data_PCOD9324709
_publ_section_title
;
Structure prediction by ZEFSAII (Michael W. Deem and Ramdas Pophale) SiO2 
 PCOD9324709
Probable space group: C 2 2 2
;
_chemical_formula_sum "Si O2"
_cell_formula_units_Z 22
_cell_length_a 14.657489
_cell_length_b 10.318663
_cell_length_c 5.698330
_cell_angle_alpha 90.000000
_cell_angle_beta 90.000000
_cell_angle_gamma 90.000000
_cell_volume 861.847849
_symmetry_space_group_name_H-M "C 2 2 2"
_symmetry_group_IT_number 21
_symmetry_cell_setting 'orthorhombic'
loop_
_space_group_symop_operation_xyz
x,y,z
-x,-y,z
x,-y,-z
-x,y,-z
1/2+x,1/2+y,z
1/2-x,1/2-y,z
1/2+x,1/2-y,-z
1/2-x,1/2+y,-z
loop_
_atom_site_type_symbol
_atom_site_label
_atom_site_fract_x
_atom_site_fract_y
_atom_site_fract_z
Si Si1 0.397003 0.136924 0.905262
Si Si2 0.344726 0.614754 0.813465
Si Si3 0.000000 0.000000 0.500000
Si Si4 0.687395 0.000000 0.500000
O O1 0.376486 0.106461 0.633001
O O2 0.500000 0.145536 0.000000
O O3 0.349354 0.257694 0.026511
O O4 0.361212 0.000000 0.000000
O O5 0.435176 0.591939 0.656056
O O6 0.258466 0.588799 0.646800
O O7 0.346672 0.500000 0.000000
#
# Coordination Sequence:
#
# PCOD9324709 Si02
#       4
#     8   8   2   4
#     4  11  27  49  74 109 155 202 256 312 380 461
#     4  11  25  48  79 115 153 197 259 315 378 463
#     4  10  22  44  84 118 152 202 250 316 388 448
#     4  11  28  50  80 113 154 206 252 322 390 442
#
# _framework density 25.526547000000001
#
# number of rings (size 3 to 8) (size 9 to 14) (size 15 to 20)
#    0.000    1.091    0.000    3.818    0.000   20.364 
#    0.000    7.273    0.000    0.000    0.000    0.000 
#    0.000    0.000    0.000    0.000    0.000    0.000 
#
# Total GULP energy -61536.222546 kJ/mol
# GULP energy per Si atom -5594.202050 kJ/mol
# Density = 2.546845 g / cm^3
# Si number density = 25.526547 Si / 1000 Ang^3
#
#
#
# Elastic Constant Matrix: (Units=GPa)
#
#
# Indices 1 2 3 4 5 6 
#
# 1 211.6665 60.7135 105.6162 0.0000 0.0000 0.0000
# 2 60.7135 243.5511 83.8934 0.0000 0.0000 0.0000
# 3 105.6162 83.8934 146.3820 0.0000 0.0000 0.0000
# 4 0.0000 0.0000 0.0000 70.0045 0.0000 0.0000
# 5 0.0000 0.0000 0.0000 0.0000 42.9989 0.0000
# 6 0.0000 0.0000 0.0000 0.0000 0.0000 8.1077
#
#
#
# Elastic Compliance Matrix: (Units=1/GPa)
#
#
# Indices 1 2 3 4 5 6 
#
# 1 0.007382 -0.000007 -0.005322 0.000000 0.000000 0.000000
# 2 -0.000007 0.005116 -0.002927 0.000000 0.000000 0.000000
# 3 -0.005322 -0.002927 0.012349 0.000000 0.000000 0.000000
# 4 0.000000 0.000000 0.000000 0.014285 0.000000 0.000000
# 5 0.000000 0.000000 0.000000 0.000000 0.023256 0.000000
# 6 0.000000 0.000000 0.000000 0.000000 0.000000 0.123340
#
#
# Mechanical properties :
#
#
# Convention : Reuss Voigt Hill
#
# Bulk Modulus (GPa) = 119.98179 122.44952 121.21565
# Shear Modulus (GPa) = 24.38801 47.64731 36.01766
#
# Velocity S-wave (km/s) = 3.09430 4.32508 3.76039
# Velocity P-wave (km/s) = 7.73764 8.54490 8.15127
#
# Compressibility (1/GPa) = 0.00833460
#
# Stress axis : x y z
#
# Youngs Moduli (GPa) = 135.46307 195.47049 80.97819
#
# Poissons Ratio (x) = 0.00135 0.43099
# Poissons Ratio (y) = 0.00094 0.23702
# Poissons Ratio (z) = 0.72097 0.57213
#
# Static dielectric constant tensor:
#      x y z
#    x 2.058590 0.000000 0.000000 
#    y 0.000000 1.971510 0.000000 
#    z 0.000000 0.000000 2.528580 
# 
# From -- ./inp_files/1942.got.cif
#   From: 2010.05.17/outbox.cif.g08.bks.cpg/sg21_1_cif.got.tgz:1942.got - 2010.06.03 23:14:55.
