data_PCOD9324124
_publ_section_title
;
Structure prediction by ZEFSAII (Michael W. Deem and Ramdas Pophale) SiO2 
 PCOD9324124
Probable space group: C 2 2 2
;
_chemical_formula_sum "Si O2"
_cell_formula_units_Z 34
_cell_length_a 29.649865
_cell_length_b 9.660124
_cell_length_c 6.232952
_cell_angle_alpha 90.000000
_cell_angle_beta 90.000000
_cell_angle_gamma 90.000000
_cell_volume 1785.250666
_symmetry_space_group_name_H-M "C 2 2 2"
_symmetry_group_IT_number 21
_symmetry_cell_setting 'orthorhombic'
loop_
_space_group_symop_operation_xyz
x,y,z
-x,-y,z
x,-y,-z
-x,y,-z
1/2+x,1/2+y,z
1/2-x,1/2-y,z
1/2+x,1/2-y,-z
1/2-x,1/2+y,-z
loop_
_atom_site_type_symbol
_atom_site_label
_atom_site_fract_x
_atom_site_fract_y
_atom_site_fract_z
Si Si1 0.576190 0.103522 0.301239
Si Si2 0.125164 0.144926 0.611300
Si Si3 0.699169 0.250374 0.718254
Si Si4 0.000000 0.500000 0.000000
Si Si5 0.670350 0.500000 0.000000
Si Si6 0.342977 0.000000 0.000000
O O1 0.582214 0.258016 0.382736
O O2 0.622309 0.070031 0.169503
O O3 0.572561 0.000000 0.500000
O O4 0.533535 0.086949 0.148597
O O5 0.163222 0.226166 0.472561
O O6 0.141765 0.099959 0.845774
O O7 0.116264 0.000000 0.500000
O O8 0.750000 0.250000 0.631146
O O9 0.697553 0.391787 0.856767
O O10 0.685191 0.117725 0.867411
#
# Coordination Sequence:
#
# PCOD9324124 Si02
#       6
#     8   8   8   2   4   4
#     4  11  21  43  66  95 125 156 217 259 336 391
#     4  10  22  39  63  87 124 176 209 257 322 384
#     4  11  22  37  56  93 127 171 225 266 310 371
#     4  10  26  36  74 100 116 152 202 284 324 404
#     4  10  21  40  55  85 123 177 208 260 316 365
#     4  11  21  37  64  92 123 179 204 269 328 372
#
# _framework density 19.044943
#
# number of rings (size 3 to 8) (size 9 to 14) (size 15 to 20)
#    0.000    1.412    4.706    1.059    0.000    0.941 
#   12.706    0.000    0.000   10.588    0.000    0.000 
#    0.000    0.000    0.000    0.000    0.000    0.000 
#
# Total GULP energy -94827.946880 kJ/mol
# GULP energy per Si atom -5578.114522 kJ/mol
# Density = 1.900160 g / cm^3
# Si number density = 19.044943 Si / 1000 Ang^3
#
#
#
# Elastic Constant Matrix: (Units=GPa)
#
#
# Indices 1 2 3 4 5 6 
#
# 1 113.4666 59.6652 42.0712 0.0000 0.0000 0.0000
# 2 59.6652 102.8302 38.9686 0.0000 0.0000 0.0000
# 3 42.0712 38.9686 95.5745 0.0000 0.0000 0.0000
# 4 0.0000 0.0000 0.0000 28.6779 0.0000 0.0000
# 5 0.0000 0.0000 0.0000 0.0000 4.0177 0.0000
# 6 0.0000 0.0000 0.0000 0.0000 0.0000 8.4333
#
#
#
# Elastic Compliance Matrix: (Units=1/GPa)
#
#
# Indices 1 2 3 4 5 6 
#
# 1 0.013484 -0.006593 -0.003247 0.000000 0.000000 0.000000
# 2 -0.006593 0.014726 -0.003102 0.000000 0.000000 0.000000
# 3 -0.003247 -0.003102 0.013157 0.000000 0.000000 0.000000
# 4 0.000000 0.000000 0.000000 0.034870 0.000000 0.000000
# 5 0.000000 0.000000 0.000000 0.000000 0.248900 0.000000
# 6 0.000000 0.000000 0.000000 0.000000 0.000000 0.118577
#
#
# Mechanical properties :
#
#
# Convention : Reuss Voigt Hill
#
# Bulk Modulus (GPa) = 64.59005 65.92014 65.25510
# Shear Modulus (GPa) = 10.53163 19.63686 15.08424
#
# Velocity S-wave (km/s) = 2.35412 3.21453 2.81736
# Velocity P-wave (km/s) = 6.43252 6.96173 6.70235
#
# Compressibility (1/GPa) = 0.01548226
#
# Stress axis : x y z
#
# Youngs Moduli (GPa) = 74.16048 67.90753 76.00384
#
# Poissons Ratio (x) = 0.44774 0.24681
# Poissons Ratio (y) = 0.48897 0.23575
# Poissons Ratio (z) = 0.24083 0.21064
#
# Static dielectric constant tensor:
#      x y z
#    x 1.642490 0.000000 0.000000 
#    y 0.000000 1.675200 0.000000 
#    z 0.000000 0.000000 1.732400 
# 
# From -- ./inp_files/7812.got.cif
#   From: 2010.05.17/outbox.cif.g08.bks.cpg/sg21_4_cif.got.tgz:7812.got - 2010.06.03 23:14:55.
