data_PCOD9324180
_publ_section_title
;
Structure prediction by ZEFSAII (Michael W. Deem and Ramdas Pophale) SiO2 
 PCOD9324180
Probable space group: C 2 2 2
;
_chemical_formula_sum "Si O2"
_cell_formula_units_Z 44
_cell_length_a 7.718999
_cell_length_b 16.065019
_cell_length_c 14.800871
_cell_angle_alpha 90.000000
_cell_angle_beta 90.000000
_cell_angle_gamma 90.000000
_cell_volume 1835.394820
_symmetry_space_group_name_H-M "C 2 2 2"
_symmetry_group_IT_number 21
_symmetry_cell_setting 'orthorhombic'
loop_
_space_group_symop_operation_xyz
x,y,z
-x,-y,z
x,-y,-z
-x,y,-z
1/2+x,1/2+y,z
1/2-x,1/2-y,z
1/2+x,1/2-y,-z
1/2-x,1/2+y,-z
loop_
_atom_site_type_symbol
_atom_site_label
_atom_site_fract_x
_atom_site_fract_y
_atom_site_fract_z
Si Si1 0.250000 0.250000 0.641632
Si Si2 0.797946 0.009939 0.893588
Si Si3 0.500000 0.171464 0.500000
Si Si4 0.750000 0.250000 0.754599
Si Si5 0.194586 0.409316 0.352368
Si Si6 0.373372 0.181763 0.080272
Si Si7 0.694977 0.920017 0.725064
O O1 0.410596 0.227406 0.576133
O O2 0.219444 0.166988 0.699649
O O3 0.727130 0.102385 0.880582
O O4 0.701280 0.944313 0.830285
O O5 0.000000 0.000000 0.872015
O O6 0.776181 0.000000 0.000000
O O7 0.351881 0.113362 0.455369
O O8 0.716216 0.329682 0.692649
O O9 0.908636 0.268997 0.825418
O O10 0.271559 0.499209 0.327944
O O11 0.003219 0.412936 0.306898
O O12 0.250000 0.250000 0.032343
O O13 0.500000 0.156603 0.000000
#
# Coordination Sequence:
#
# PCOD9324180 Si02
#       7
#     4   8   4   4   8   8   8
#     4  10  23  42  71 104 140 182 236 293 359 432
#     4  11  26  43  66  98 148 188 242 298 357 422
#     4  10  22  43  68 105 136 188 232 297 358 433
#     4  10  21  40  69 100 134 184 234 299 365 422
#     4  10  21  40  73  96 139 183 241 290 353 437
#     4  10  24  43  70 102 139 185 246 299 366 433
#     4  10  22  44  67 103 136 190 242 288 360 433
#
# _framework density 23.973043000000001
#
# number of rings (size 3 to 8) (size 9 to 14) (size 15 to 20)
#    0.545    1.273    1.818    0.545    5.091    9.091 
#    4.909    0.000    0.000    1.091    0.000    0.000 
#    0.000    0.000    0.000    0.000    0.000    0.000 
#
# Total GULP energy -122806.811510 kJ/mol
# GULP energy per Si atom -5582.127796 kJ/mol
# Density = 2.391848 g / cm^3
# Si number density = 23.973043 Si / 1000 Ang^3
#
#
#
# Elastic Constant Matrix: (Units=GPa)
#
#
# Indices 1 2 3 4 5 6 
#
# 1 47.1758 40.7838 20.5130 0.0000 0.0000 0.0000
# 2 40.7838 206.3075 75.0907 0.0000 0.0000 0.0000
# 3 20.5130 75.0907 112.7867 0.0000 0.0000 0.0000
# 4 0.0000 0.0000 0.0000 1.1022 0.0000 0.0000
# 5 0.0000 0.0000 0.0000 0.0000 27.5019 0.0000
# 6 0.0000 0.0000 0.0000 0.0000 0.0000 30.3178
#
#
#
# Elastic Compliance Matrix: (Units=1/GPa)
#
#
# Indices 1 2 3 4 5 6 
#
# 1 0.025815 -0.004480 -0.001712 0.000000 0.000000 0.000000
# 2 -0.004480 0.007175 -0.003962 0.000000 0.000000 0.000000
# 3 -0.001712 -0.003962 0.011816 0.000000 0.000000 0.000000
# 4 0.000000 0.000000 0.000000 0.907310 0.000000 0.000000
# 5 0.000000 0.000000 0.000000 0.000000 0.036361 0.000000
# 6 0.000000 0.000000 0.000000 0.000000 0.000000 0.032984
#
#
# Mechanical properties :
#
#
# Convention : Reuss Voigt Hill
#
# Bulk Modulus (GPa) = 40.82228 71.00498 55.91363
# Shear Modulus (GPa) = 4.76220 27.10989 15.93605
#
# Velocity S-wave (km/s) = 1.41095 3.36646 2.58107
# Velocity P-wave (km/s) = 4.44069 6.69281 5.67950
#
# Compressibility (1/GPa) = 0.02449643
#
# Stress axis : x y z
#
# Youngs Moduli (GPa) = 38.73750 139.37619 84.63403
#
# Poissons Ratio (x) = 0.62439 0.14493
# Poissons Ratio (y) = 0.17354 0.33532
# Poissons Ratio (z) = 0.06634 0.55222
#
# Static dielectric constant tensor:
#      x y z
#    x 1.999730 0.000000 0.000000 
#    y 0.000000 2.001310 0.000000 
#    z 0.000000 0.000000 1.970410 
# 
# From -- ./inp_files/30412.got.cif
#   From: 2010.05.17/outbox.cif.g08.bks.cpg/sg21_16_cif.got.tgz:30412.got - 2010.06.03 23:14:55.
