data_PCOD9324147
_publ_section_title
;
Structure prediction by ZEFSAII (Michael W. Deem and Ramdas Pophale) SiO2 
 PCOD9324147
Probable space group: C 2 2 2
;
_chemical_formula_sum "Si O2"
_cell_formula_units_Z 52
_cell_length_a 21.481797
_cell_length_b 19.595429
_cell_length_c 5.586019
_cell_angle_alpha 90.000000
_cell_angle_beta 90.000000
_cell_angle_gamma 90.000000
_cell_volume 2351.406924
_symmetry_space_group_name_H-M "C 2 2 2"
_symmetry_group_IT_number 21
_symmetry_cell_setting 'orthorhombic'
loop_
_space_group_symop_operation_xyz
x,y,z
-x,-y,z
x,-y,-z
-x,y,-z
1/2+x,1/2+y,z
1/2-x,1/2-y,z
1/2+x,1/2-y,-z
1/2-x,1/2+y,-z
loop_
_atom_site_type_symbol
_atom_site_label
_atom_site_fract_x
_atom_site_fract_y
_atom_site_fract_z
Si Si1 0.626456 0.163985 0.716421
Si Si2 0.180762 0.763548 0.084978
Si Si3 0.720533 0.077556 0.394340
Si Si4 0.330293 0.616045 0.705535
Si Si5 0.074448 0.797899 0.475628
Si Si6 0.570104 0.026549 0.756853
Si Si7 0.724828 0.500000 0.000000
O O1 0.668787 0.125971 0.514769
O O2 0.592619 0.229641 0.616122
O O3 0.575778 0.107035 0.776274
O O4 0.663461 0.193539 0.943717
O O5 0.250000 0.750000 0.198040
O O6 0.119853 0.785951 0.241570
O O7 0.188200 0.823071 0.886437
O O8 0.783662 0.113438 0.481910
O O9 0.718434 0.000000 0.500000
O O10 0.731276 0.057646 0.119385
O O11 0.397262 0.636081 0.607239
O O12 0.319659 0.543112 0.826847
O O13 0.000000 0.802474 0.500000
O O14 0.500000 0.000000 0.760656
O O15 0.593936 0.000000 0.500000
O O16 0.601534 0.000000 0.000000
#
# Coordination Sequence:
#
# PCOD9324147 Si02
#       7
#     8   8   8   8   8   8   4
#     4  11  25  42  68 103 145 194 256 301 370 444
#     4  11  24  44  76 101 141 194 246 317 375 443
#     4  10  21  40  64 108 140 179 241 304 370 448
#     4  10  22  44  69 104 140 180 245 299 380 447
#     4  11  28  43  70 104 148 191 247 308 375 467
#     4  10  24  44  68  95 143 203 255 306 357 441
#     4  10  22  40  76 103 153 182 220 326 388 462
#
# _framework density 22.114419000000002
#
# number of rings (size 3 to 8) (size 9 to 14) (size 15 to 20)
#    0.000    1.538    1.538    1.385    8.615    3.692 
#    6.923    0.000    0.000   18.923    0.000    0.000 
#    0.000    0.000    0.000    0.000    0.000    0.000 
#
# Total GULP energy -144905.409638 kJ/mol
# GULP energy per Si atom -5573.284986 kJ/mol
# Density = 2.206409 g / cm^3
# Si number density = 22.114419 Si / 1000 Ang^3
#
#
#
# Elastic Constant Matrix: (Units=GPa)
#
#
# Indices 1 2 3 4 5 6 
#
# 1 194.8858 61.7352 43.1488 0.0000 0.0000 0.0000
# 2 61.7352 109.3362 34.6887 0.0000 0.0000 0.0000
# 3 43.1488 34.6887 101.9779 0.0000 0.0000 0.0000
# 4 0.0000 0.0000 0.0000 41.9147 0.0000 0.0000
# 5 0.0000 0.0000 0.0000 0.0000 -1.0216 0.0000
# 6 0.0000 0.0000 0.0000 0.0000 0.0000 42.5197
#
#
#
# Elastic Compliance Matrix: (Units=1/GPa)
#
#
# Indices 1 2 3 4 5 6 
#
# 1 0.006497 -0.003134 -0.001683 0.000000 0.000000 0.000000
# 2 -0.003134 0.011765 -0.002676 0.000000 0.000000 0.000000
# 3 -0.001683 -0.002676 0.011428 0.000000 0.000000 0.000000
# 4 0.000000 0.000000 0.000000 0.023858 0.000000 0.000000
# 5 0.000000 0.000000 0.000000 0.000000 -0.978838 0.000000
# 6 0.000000 0.000000 0.000000 0.000000 0.000000 0.023518
#
#
# Mechanical properties :
#
#
# Convention : Reuss Voigt Hill
#
# Bulk Modulus (GPa) = 68.00804 76.14947 72.07875
# Shear Modulus (GPa) = -5.66967 34.45771 14.39402
#
# Velocity S-wave (km/s) = -1.60292 3.95163 2.55402
# Velocity P-wave (km/s) = 5.23390 7.43838 6.43130
#
# Compressibility (1/GPa) = 0.01470414
#
# Stress axis : x y z
#
# Youngs Moduli (GPa) = 153.92512 84.99934 87.50302
#
# Poissons Ratio (x) = 0.26642 0.14724
# Poissons Ratio (y) = 0.48246 0.23413
# Poissons Ratio (z) = 0.25901 0.22743
#
# Static dielectric constant tensor:
#      x y z
#    x 1.922130 0.000000 0.000000 
#    y 0.000000 1.805000 0.000000 
#    z 0.000000 0.000000 2.017610 
# 
# From -- ./inp_files/6009.got.cif
#   From: 2010.05.17/outbox.cif.g08.bks.cpg/sg21_4_cif.got.tgz:6009.got - 2010.06.03 23:14:55.
