data_PCOD9324463
_publ_section_title
;
Structure prediction by ZEFSAII (Michael W. Deem and Ramdas Pophale) SiO2 
 PCOD9324463
Probable space group: C 2 2 2
;
_chemical_formula_sum "Si O2"
_cell_formula_units_Z 36
_cell_length_a 18.370747
_cell_length_b 8.052437
_cell_length_c 12.812880
_cell_angle_alpha 90.000000
_cell_angle_beta 90.000000
_cell_angle_gamma 90.000000
_cell_volume 1895.400150
_symmetry_space_group_name_H-M "C 2 2 2"
_symmetry_group_IT_number 21
_symmetry_cell_setting 'orthorhombic'
loop_
_space_group_symop_operation_xyz
x,y,z
-x,-y,z
x,-y,-z
-x,y,-z
1/2+x,1/2+y,z
1/2-x,1/2-y,z
1/2+x,1/2-y,-z
1/2-x,1/2+y,-z
loop_
_atom_site_type_symbol
_atom_site_label
_atom_site_fract_x
_atom_site_fract_y
_atom_site_fract_z
Si Si1 0.966957 0.668192 0.383619
Si Si2 0.750000 0.750000 0.221270
Si Si3 0.190342 0.494136 0.383700
Si Si4 0.000000 0.000000 0.252271
Si Si5 0.750000 0.250000 0.243443
Si Si6 0.851889 0.009091 0.876250
O O1 0.882759 0.615044 0.393022
O O2 0.000000 0.500000 0.333599
O O3 0.000000 0.684007 0.500000
O O4 0.984478 0.835640 0.321869
O O5 0.761374 0.602207 0.301590
O O6 0.681945 0.690312 0.153017
O O7 0.221467 0.500000 0.500000
O O8 0.190074 0.671235 0.324709
O O9 0.071781 0.980444 0.181552
O O10 0.794390 0.126850 0.167216
O O11 0.859704 0.000000 0.000000
#
# Coordination Sequence:
#
# PCOD9324463 Si02
#       6
#     8   4   8   4   4   8
#     4  11  22  39  63  91 134 174 209 257 326 398
#     4  10  22  40  62  90 126 162 210 262 326 398
#     4  11  20  39  61  93 126 168 203 258 321 396
#     4  12  24  42  66  98 130 168 226 272 332 380
#     4  10  24  40  66  94 128 166 216 270 328 400
#     4  11  23  42  66  90 123 168 221 276 327 377
#
# _framework density 18.993351000000001
#
# number of rings (size 3 to 8) (size 9 to 14) (size 15 to 20)
#    0.000    1.111    4.444    3.333    0.000    0.000 
#    0.000    0.000    0.000    1.333    0.000    0.000 
#    0.000    0.000    0.000    0.000    0.000    0.000 
#
# Total GULP energy -100230.103876 kJ/mol
# GULP energy per Si atom -5568.339104 kJ/mol
# Density = 1.895012 g / cm^3
# Si number density = 18.993351 Si / 1000 Ang^3
#
#
#
# Elastic Constant Matrix: (Units=GPa)
#
#
# Indices 1 2 3 4 5 6 
#
# 1 88.6537 28.1835 50.3492 0.0000 0.0000 0.0000
# 2 28.1835 98.7968 68.8963 0.0000 0.0000 0.0000
# 3 50.3492 68.8963 159.0892 0.0000 0.0000 0.0000
# 4 0.0000 0.0000 0.0000 -6.4529 0.0000 0.0000
# 5 0.0000 0.0000 0.0000 0.0000 19.8739 0.0000
# 6 0.0000 0.0000 0.0000 0.0000 0.0000 35.4067
#
#
#
# Elastic Compliance Matrix: (Units=1/GPa)
#
#
# Indices 1 2 3 4 5 6 
#
# 1 0.013864 -0.001282 -0.003832 0.000000 0.000000 0.000000
# 2 -0.001282 0.014620 -0.005925 0.000000 0.000000 0.000000
# 3 -0.003832 -0.005925 0.010065 0.000000 0.000000 0.000000
# 4 0.000000 0.000000 0.000000 -0.154969 0.000000 0.000000
# 5 0.000000 0.000000 0.000000 0.000000 0.050317 0.000000
# 6 0.000000 0.000000 0.000000 0.000000 0.000000 0.028243
#
#
# Mechanical properties :
#
#
# Convention : Reuss Voigt Hill
#
# Bulk Modulus (GPa) = 60.72364 71.26643 65.99504
# Shear Modulus (GPa) = -485.90437 23.03959 -231.43239
#
# Velocity S-wave (km/s) = -16.01200 3.48664 -11.05051
# Velocity P-wave (km/s) = 17.60128 7.33568 11.31355
#
# Compressibility (1/GPa) = 0.01646805
#
# Stress axis : x y z
#
# Youngs Moduli (GPa) = 72.12887 68.40052 99.35624
#
# Poissons Ratio (x) = 0.08772 0.38077
# Poissons Ratio (y) = 0.09250 0.58873
# Poissons Ratio (z) = 0.27642 0.40531
#
# Static dielectric constant tensor:
#      x y z
#    x 1.706580 0.000000 0.000000 
#    y 0.000000 1.867510 0.000000 
#    z 0.000000 0.000000 1.569750 
# 
# From -- ./inp_files/26626.got.cif
#   From: 2010.05.17/outbox.cif.g08.bks.cpg/sg21_14_cif.got.tgz:26626.got - 2010.06.03 23:14:55.
