data_PCOD9324712
_publ_section_title
;
Structure prediction by ZEFSAII (Michael W. Deem and Ramdas Pophale) SiO2 
 PCOD9324712
Probable space group: C 2 2 2
;
_chemical_formula_sum "Si O2"
_cell_formula_units_Z 32
_cell_length_a 13.427690
_cell_length_b 5.471219
_cell_length_c 19.752044
_cell_angle_alpha 90.000000
_cell_angle_beta 90.000000
_cell_angle_gamma 90.000000
_cell_volume 1451.100359
_symmetry_space_group_name_H-M "C 2 2 2"
_symmetry_group_IT_number 21
_symmetry_cell_setting 'orthorhombic'
loop_
_space_group_symop_operation_xyz
x,y,z
-x,-y,z
x,-y,-z
-x,y,-z
1/2+x,1/2+y,z
1/2-x,1/2-y,z
1/2+x,1/2-y,-z
1/2-x,1/2+y,-z
loop_
_atom_site_type_symbol
_atom_site_label
_atom_site_fract_x
_atom_site_fract_y
_atom_site_fract_z
Si Si1 0.567013 0.246268 0.354469
Si Si2 0.250000 0.250000 0.542981
Si Si3 0.605221 0.854719 0.793744
Si Si4 0.500000 0.500000 0.874116
Si Si5 0.145571 0.377535 0.071682
O O1 0.500000 0.500000 0.347862
O O2 0.649959 0.276237 0.411989
O O3 0.627603 0.185387 0.284636
O O4 0.500000 0.000000 0.366922
O O5 0.240800 0.500000 0.500000
O O6 0.585885 0.589427 0.824486
O O7 0.500000 0.000000 0.791163
O O8 0.660419 0.982092 0.856397
O O9 0.549368 0.290872 0.917152
O O10 0.250000 0.250000 0.060877
O O11 0.127240 0.500000 0.000000
#
# Coordination Sequence:
#
# PCOD9324712 Si02
#       5
#     8   4   8   4   8
#     4  11  24  47  77 109 149 191 241 300 356 424
#     4  12  28  48  72 116 152 194 244 282 360 448
#     4   9  21  43  69 100 128 179 236 287 358 421
#     4  10  22  45  68  86 135 168 232 292 359 412
#     4  11  27  44  62  97 133 180 237 292 360 433
#
# _framework density 22.052232
#
# number of rings (size 3 to 8) (size 9 to 14) (size 15 to 20)
#    0.000    1.500    1.250    1.500    3.500   10.500 
#    2.250    0.000    0.000    0.000    0.000    0.000 
#    0.000    0.000    0.000    0.000    0.000    0.000 
#
# Total GULP energy -89148.623696 kJ/mol
# GULP energy per Si atom -5571.788981 kJ/mol
# Density = 2.200204 g / cm^3
# Si number density = 22.052232 Si / 1000 Ang^3
#
#
#
# Elastic Constant Matrix: (Units=GPa)
#
#
# Indices 1 2 3 4 5 6 
#
# 1 72.0036 28.9122 61.4948 0.0000 0.0000 0.0000
# 2 28.9122 112.5487 71.9910 0.0000 0.0000 0.0000
# 3 61.4948 71.9910 187.0609 0.0000 0.0000 0.0000
# 4 0.0000 0.0000 0.0000 62.3240 0.0000 0.0000
# 5 0.0000 0.0000 0.0000 0.0000 111.3452 0.0000
# 6 0.0000 0.0000 0.0000 0.0000 0.0000 41.8324
#
#
#
# Elastic Compliance Matrix: (Units=1/GPa)
#
#
# Indices 1 2 3 4 5 6 
#
# 1 0.019431 -0.001201 -0.005926 0.000000 0.000000 0.000000
# 2 -0.001201 0.011861 -0.004170 0.000000 0.000000 0.000000
# 3 -0.005926 -0.004170 0.008899 0.000000 0.000000 0.000000
# 4 0.000000 0.000000 0.000000 0.016045 0.000000 0.000000
# 5 0.000000 0.000000 0.000000 0.000000 0.008981 0.000000
# 6 0.000000 0.000000 0.000000 0.000000 0.000000 0.023905
#
#
# Mechanical properties :
#
#
# Convention : Reuss Voigt Hill
#
# Bulk Modulus (GPa) = 56.82669 77.37880 67.10275
# Shear Modulus (GPa) = 42.52390 57.04801 49.78596
#
# Velocity S-wave (km/s) = 4.39604 5.09172 4.75662
# Velocity P-wave (km/s) = 7.18275 8.35060 7.78860
#
# Compressibility (1/GPa) = 0.01759736
#
# Stress axis : x y z
#
# Youngs Moduli (GPa) = 51.46328 84.31136 112.37785
#
# Poissons Ratio (x) = 0.10129 0.66590
# Poissons Ratio (y) = 0.06183 0.46858
# Poissons Ratio (z) = 0.30495 0.35155
#
# Static dielectric constant tensor:
#      x y z
#    x 1.813220 0.000000 0.000000 
#    y 0.000000 1.912860 0.000000 
#    z 0.000000 0.000000 1.945520 
# 
# From -- ./inp_files/34491.got.cif
#   From: 2010.05.17/outbox.cif.g08.bks.cpg/sg21_18_cif.got.tgz:34491.got - 2010.06.03 23:14:55.
