data_PCOD9324781
_publ_section_title
;
Structure prediction by ZEFSAII (Michael W. Deem and Ramdas Pophale) SiO2 
 PCOD9324781
Probable space group: C 2 2 2
;
_chemical_formula_sum "Si O2"
_cell_formula_units_Z 30
_cell_length_a 4.977669
_cell_length_b 13.404998
_cell_length_c 18.730567
_cell_angle_alpha 90.000000
_cell_angle_beta 90.000000
_cell_angle_gamma 90.000000
_cell_volume 1249.809127
_symmetry_space_group_name_H-M "C 2 2 2"
_symmetry_group_IT_number 21
_symmetry_cell_setting 'orthorhombic'
loop_
_space_group_symop_operation_xyz
x,y,z
-x,-y,z
x,-y,-z
-x,y,-z
1/2+x,1/2+y,z
1/2-x,1/2-y,z
1/2+x,1/2-y,-z
1/2-x,1/2+y,-z
loop_
_atom_site_type_symbol
_atom_site_label
_atom_site_fract_x
_atom_site_fract_y
_atom_site_fract_z
Si Si1 0.728921 0.369670 0.118940
Si Si2 0.000000 0.175365 0.500000
Si Si3 0.996262 0.174692 0.654252
Si Si4 0.264616 0.870032 0.792642
Si Si5 0.500000 0.000000 0.000000
O O1 0.750000 0.250000 0.107712
O O2 0.429342 0.396610 0.142245
O O3 0.931319 0.394569 0.185485
O O4 0.826166 0.428275 0.050399
O O5 0.750000 0.250000 0.499071
O O6 0.971505 0.122454 0.422977
O O7 0.250000 0.250000 0.671251
O O8 0.750000 0.250000 0.642974
O O9 0.884088 0.105603 0.718310
O O10 0.250000 0.750000 0.791062
#
# Coordination Sequence:
#
# PCOD9324781 Si02
#       5
#     8   4   8   8   2
#     4  10  23  40  60  85 113 149 193 240 294 357
#     4   8  14  20  32  62 102 141 182 227 278 328
#     4   9  14  23  41  67 103 146 186 230 281 333
#     4   9  17  33  54  77 108 148 191 234 284 344
#     4  12  28  46  68  92 124 156 196 254 316 368
#
# _framework density 24.003665000000002
#
# number of rings (size 3 to 8) (size 9 to 14) (size 15 to 20)
#    0.000    2.667    0.000    4.000    0.000    6.400 
#    0.000    0.000    0.000    0.000    0.000    0.000 
#    0.000    6.400    0.000    0.800    0.000    1.067 
#
# Total GULP energy -83649.378853 kJ/mol
# GULP energy per Si atom -5576.625257 kJ/mol
# Density = 2.394903 g / cm^3
# Si number density = 24.003665 Si / 1000 Ang^3
#
#
#
# Elastic Constant Matrix: (Units=GPa)
#
#
# Indices 1 2 3 4 5 6 
#
# 1 137.7232 -11.6593 20.4072 0.0000 0.0000 0.0000
# 2 -11.6593 90.0933 17.6977 0.0000 0.0000 0.0000
# 3 20.4072 17.6977 184.2021 0.0000 0.0000 0.0000
# 4 0.0000 0.0000 0.0000 -22.8731 0.0000 0.0000
# 5 0.0000 0.0000 0.0000 0.0000 31.6423 0.0000
# 6 0.0000 0.0000 0.0000 0.0000 0.0000 16.7474
#
#
#
# Elastic Compliance Matrix: (Units=1/GPa)
#
#
# Indices 1 2 3 4 5 6 
#
# 1 0.007498 0.001155 -0.000942 0.000000 0.000000 0.000000
# 2 0.001155 0.011491 -0.001232 0.000000 0.000000 0.000000
# 3 -0.000942 -0.001232 0.005652 0.000000 0.000000 0.000000
# 4 0.000000 0.000000 0.000000 -0.043720 0.000000 0.000000
# 5 0.000000 0.000000 0.000000 0.000000 0.031603 0.000000
# 6 0.000000 0.000000 0.000000 0.000000 0.000000 0.059711
#
#
# Mechanical properties :
#
#
# Convention : Reuss Voigt Hill
#
# Bulk Modulus (GPa) = 44.23962 51.65665 47.94813
# Shear Modulus (GPa) = 61.11939 30.80819 45.96379
#
# Velocity S-wave (km/s) = 5.05151 3.58645 4.38066
# Velocity P-wave (km/s) = 7.24528 6.22232 6.75320
#
# Compressibility (1/GPa) = 0.02260417
#
# Stress axis : x y z
#
# Youngs Moduli (GPa) = 133.36372 87.02355 176.94346
#
# Poissons Ratio (x) = -0.10054 0.16663
# Poissons Ratio (y) = -0.15408 0.21800
# Poissons Ratio (z) = 0.12559 0.10722
#
# Static dielectric constant tensor:
#      x y z
#    x 1.925790 0.000000 0.000000 
#    y 0.000000 1.935470 0.000000 
#    z 0.000000 0.000000 2.081570 
# 
# From -- ./inp_files/34374.got.cif
#   From: 2010.05.17/outbox.cif.g08.bks.cpg/sg21_18_cif.got.tgz:34374.got - 2010.06.03 23:14:55.
