data_PCOD9324218
_publ_section_title
;
Structure prediction by ZEFSAII (Michael W. Deem and Ramdas Pophale) SiO2 
 PCOD9324218
Probable space group: C 2 2 2
;
_chemical_formula_sum "Si O2"
_cell_formula_units_Z 40
_cell_length_a 13.168428
_cell_length_b 8.937008
_cell_length_c 17.616633
_cell_angle_alpha 90.000000
_cell_angle_beta 90.000000
_cell_angle_gamma 90.000000
_cell_volume 2073.237173
_symmetry_space_group_name_H-M "C 2 2 2"
_symmetry_group_IT_number 21
_symmetry_cell_setting 'orthorhombic'
loop_
_space_group_symop_operation_xyz
x,y,z
-x,-y,z
x,-y,-z
-x,y,-z
1/2+x,1/2+y,z
1/2-x,1/2-y,z
1/2+x,1/2-y,-z
1/2-x,1/2+y,-z
loop_
_atom_site_type_symbol
_atom_site_label
_atom_site_fract_x
_atom_site_fract_y
_atom_site_fract_z
Si Si1 0.776039 0.473316 0.242199
Si Si2 0.500000 0.500000 0.144604
Si Si3 0.422361 0.275312 0.732609
Si Si4 0.750000 0.250000 0.645524
Si Si5 0.782734 0.077467 0.921468
Si Si6 0.967876 0.322575 0.584731
O O1 0.681774 0.368177 0.264779
O O2 0.883530 0.392857 0.253464
O O3 0.756401 0.612388 0.296211
O O4 0.768910 0.511602 0.153815
O O5 0.485511 0.643037 0.201024
O O6 0.401562 0.460146 0.094765
O O7 0.477552 0.269778 0.652014
O O8 0.849431 0.281773 0.595140
O O9 0.750000 0.250000 0.925640
O O10 0.752772 0.000000 0.000000
O O11 0.000000 0.500000 0.592619
O O12 0.000000 0.279238 0.500000
#
# Coordination Sequence:
#
# PCOD9324218 Si02
#       6
#     8   4   8   4   8   8
#     4  10  22  40  69  95 128 176 226 269 335 403
#     4  10  23  42  69  92 136 176 228 274 337 402
#     4  10  21  41  66  96 128 173 226 272 329 405
#     4  12  22  44  68  96 130 180 220 272 332 406
#     4  11  24  41  65  95 134 174 219 278 339 394
#     4  11  24  42  64 100 138 173 220 284 339 397
#
# _framework density 19.293500000000002
#
# number of rings (size 3 to 8) (size 9 to 14) (size 15 to 20)
#    0.000    1.400    3.000    2.700    5.600    1.600 
#    0.000    3.500    0.000    0.000    0.000    0.000 
#    0.000    0.000    0.000    0.000    0.000    0.000 
#
# Total GULP energy -111489.126606 kJ/mol
# GULP energy per Si atom -5574.456330 kJ/mol
# Density = 1.924959 g / cm^3
# Si number density = 19.293500 Si / 1000 Ang^3
#
#
#
# Elastic Constant Matrix: (Units=GPa)
#
#
# Indices 1 2 3 4 5 6 
#
# 1 86.7729 42.7918 82.2190 0.0000 0.0000 0.0000
# 2 42.7918 84.8494 50.4682 0.0000 0.0000 0.0000
# 3 82.2190 50.4682 158.2589 0.0000 0.0000 0.0000
# 4 0.0000 0.0000 0.0000 23.6496 0.0000 0.0000
# 5 0.0000 0.0000 0.0000 0.0000 -3.8750 0.0000
# 6 0.0000 0.0000 0.0000 0.0000 0.0000 26.6595
#
#
#
# Elastic Compliance Matrix: (Units=1/GPa)
#
#
# Indices 1 2 3 4 5 6 
#
# 1 0.024960 -0.006016 -0.011049 0.000000 0.000000 0.000000
# 2 -0.006016 0.015994 -0.001975 0.000000 0.000000 0.000000
# 3 -0.011049 -0.001975 0.012689 0.000000 0.000000 0.000000
# 4 0.000000 0.000000 0.000000 0.042284 0.000000 0.000000
# 5 0.000000 0.000000 0.000000 0.000000 -0.258065 0.000000
# 6 0.000000 0.000000 0.000000 0.000000 0.000000 0.037510
#
#
# Mechanical properties :
#
#
# Convention : Reuss Voigt Hill
#
# Bulk Modulus (GPa) = 64.25416 75.64879 69.95148
# Shear Modulus (GPa) = -61.45524 19.58031 -20.93747
#
# Velocity S-wave (km/s) = -5.64995 3.18915 -3.29782
# Velocity P-wave (km/s) = 3.03097 7.27018 4.67272
#
# Compressibility (1/GPa) = 0.01556319
#
# Stress axis : x y z
#
# Youngs Moduli (GPa) = 40.06376 62.52163 78.81038
#
# Poissons Ratio (x) = 0.37615 0.87076
# Poissons Ratio (y) = 0.24103 0.15565
# Poissons Ratio (z) = 0.44266 0.12348
#
# Static dielectric constant tensor:
#      x y z
#    x 1.697090 0.000000 0.000000 
#    y 0.000000 1.730080 0.000000 
#    z 0.000000 0.000000 1.651720 
# 
# From -- ./inp_files/32125.got.cif
#   From: 2010.05.17/outbox.cif.g08.bks.cpg/sg21_17_cif.got.tgz:32125.got - 2010.06.03 23:14:55.
