data_PCOD9324256
_publ_section_title
;
Structure prediction by ZEFSAII (Michael W. Deem and Ramdas Pophale) SiO2 
 PCOD9324256
Probable space group: C 2 2 2
;
_chemical_formula_sum "Si O2"
_cell_formula_units_Z 48
_cell_length_a 29.841920
_cell_length_b 14.466380
_cell_length_c 5.038319
_cell_angle_alpha 90.000000
_cell_angle_beta 90.000000
_cell_angle_gamma 90.000000
_cell_volume 2175.065260
_symmetry_space_group_name_H-M "C 2 2 2"
_symmetry_group_IT_number 21
_symmetry_cell_setting 'orthorhombic'
loop_
_space_group_symop_operation_xyz
x,y,z
-x,-y,z
x,-y,-z
-x,y,-z
1/2+x,1/2+y,z
1/2-x,1/2-y,z
1/2+x,1/2-y,-z
1/2-x,1/2+y,-z
loop_
_atom_site_type_symbol
_atom_site_label
_atom_site_fract_x
_atom_site_fract_y
_atom_site_fract_z
Si Si1 0.750000 0.250000 0.169243
Si Si2 0.052245 0.358699 0.999524
Si Si3 0.619690 0.000000 0.000000
Si Si4 0.403232 0.791592 0.538196
Si Si5 0.306080 0.594014 0.908565
Si Si6 0.317470 0.101773 0.598802
Si Si7 0.865986 0.905512 0.592377
O O1 0.720151 0.176723 0.334182
O O2 0.719925 0.314405 0.983609
O O3 0.069657 0.340952 0.702226
O O4 0.082210 0.437890 0.146064
O O5 0.066875 0.278391 0.199036
O O6 0.000000 0.377898 0.000000
O O7 0.652231 0.069135 0.152441
O O8 0.355022 0.844271 0.575157
O O9 0.391282 0.689126 0.443878
O O10 0.322811 0.595989 0.607770
O O11 0.280455 0.500000 0.000000
O O12 0.348339 0.591269 0.108371
O O13 0.301341 0.000000 0.500000
O O14 0.889697 0.000000 0.500000
#
# Coordination Sequence:
#
# PCOD9324256 Si02
#       7
#     4   8   4   8   8   8   8
#     4  12  26  42  64  98 136 184 240 296 348 404
#     4  11  23  40  70 103 134 170 219 278 342 428
#     4  10  23  42  64  92 136 180 224 272 355 412
#     4  11  22  42  67  97 136 175 219 275 346 412
#     4  10  23  41  60  92 125 172 232 291 325 396
#     4  11  24  44  64  94 136 188 234 282 352 407
#     4  10  21  42  66  88 125 174 230 267 338 399
#
# _framework density 22.068301000000002
#
# number of rings (size 3 to 8) (size 9 to 14) (size 15 to 20)
#    0.000    1.333    3.333    1.750    3.500    2.667 
#    0.000    1.667    0.000    3.000    0.000    0.000 
#    0.000    0.000    0.000    0.000    0.000    0.000 
#
# Total GULP energy -133845.503154 kJ/mol
# GULP energy per Si atom -5576.895965 kJ/mol
# Density = 2.201807 g / cm^3
# Si number density = 22.068301 Si / 1000 Ang^3
#
#
#
# Elastic Constant Matrix: (Units=GPa)
#
#
# Indices 1 2 3 4 5 6 
#
# 1 102.4219 45.9881 28.1234 0.0000 0.0000 0.0000
# 2 45.9881 129.2388 -1.8719 0.0000 0.0000 0.0000
# 3 28.1234 -1.8719 66.0109 0.0000 0.0000 0.0000
# 4 0.0000 0.0000 0.0000 34.4913 0.0000 0.0000
# 5 0.0000 0.0000 0.0000 0.0000 22.4164 0.0000
# 6 0.0000 0.0000 0.0000 0.0000 0.0000 1.4701
#
#
#
# Elastic Compliance Matrix: (Units=1/GPa)
#
#
# Indices 1 2 3 4 5 6 
#
# 1 0.013606 -0.004928 -0.005937 0.000000 0.000000 0.000000
# 2 -0.004928 0.009525 0.002369 0.000000 0.000000 0.000000
# 3 -0.005937 0.002369 0.017745 0.000000 0.000000 0.000000
# 4 0.000000 0.000000 0.000000 0.028993 0.000000 0.000000
# 5 0.000000 0.000000 0.000000 0.000000 0.044610 0.000000
# 6 0.000000 0.000000 0.000000 0.000000 0.000000 0.680230
#
#
# Mechanical properties :
#
#
# Convention : Reuss Voigt Hill
#
# Bulk Modulus (GPa) = 41.86263 49.12788 45.49526
# Shear Modulus (GPa) = 6.10008 26.70434 16.40221
#
# Velocity S-wave (km/s) = 1.66439 3.48239 2.72921
# Velocity P-wave (km/s) = 4.76491 6.20318 5.53099
#
# Compressibility (1/GPa) = 0.02388765
#
# Stress axis : x y z
#
# Youngs Moduli (GPa) = 73.49639 104.98310 56.35259
#
# Poissons Ratio (x) = 0.51731 0.33454
# Poissons Ratio (y) = 0.36216 -0.13353
# Poissons Ratio (z) = 0.43631 -0.24875
#
# Static dielectric constant tensor:
#      x y z
#    x 1.808410 0.000000 0.000000 
#    y 0.000000 2.226040 0.000000 
#    z 0.000000 0.000000 1.947120 
# 
# From -- ./inp_files/7352.got.cif
#   From: 2010.05.17/outbox.cif.g08.bks.cpg/sg21_4_cif.got.tgz:7352.got - 2010.06.03 23:14:55.
