data_PCOD9324552
_publ_section_title
;
Structure prediction by ZEFSAII (Michael W. Deem and Ramdas Pophale) SiO2 
 PCOD9324552
Probable space group: C 2 2 2
;
_chemical_formula_sum "Si O2"
_cell_formula_units_Z 64
_cell_length_a 25.547028
_cell_length_b 11.774818
_cell_length_c 11.124416
_cell_angle_alpha 90.000000
_cell_angle_beta 90.000000
_cell_angle_gamma 90.000000
_cell_volume 3346.353433
_symmetry_space_group_name_H-M "C 2 2 2"
_symmetry_group_IT_number 21
_symmetry_cell_setting 'orthorhombic'
loop_
_space_group_symop_operation_xyz
x,y,z
-x,-y,z
x,-y,-z
-x,y,-z
1/2+x,1/2+y,z
1/2-x,1/2-y,z
1/2+x,1/2-y,-z
1/2-x,1/2+y,-z
loop_
_atom_site_type_symbol
_atom_site_label
_atom_site_fract_x
_atom_site_fract_y
_atom_site_fract_z
Si Si1 0.109925 0.413239 0.760617
Si Si2 0.810221 0.256773 0.359327
Si Si3 0.807106 0.786160 0.363345
Si Si4 0.559785 0.789641 0.967850
Si Si5 0.939950 0.958992 0.866256
Si Si6 0.634483 0.514254 0.637461
Si Si7 0.595307 0.181693 0.771325
Si Si8 0.507058 0.137059 0.364712
O O1 0.162826 0.357435 0.714449
O O2 0.090881 0.383109 0.893577
O O3 0.107552 0.548221 0.754045
O O4 0.065935 0.351570 0.678677
O O5 0.750000 0.250000 0.322578
O O6 0.810878 0.270047 0.504044
O O7 0.840857 0.138482 0.342388
O O8 0.750000 0.750000 0.315605
O O9 0.818440 0.921287 0.365537
O O10 0.856927 0.743261 0.290728
O O11 0.559217 0.676665 0.886832
O O12 0.500000 0.822729 0.000000
O O13 0.589012 0.775955 0.093435
O O14 0.905816 0.998053 0.750461
O O15 0.000000 0.000000 0.851790
O O16 0.921649 0.000000 0.000000
O O17 0.611434 0.500000 0.500000
O O18 0.537911 0.195785 0.712498
O O19 0.500000 0.175179 0.500000
O O20 0.500000 0.000000 0.358496
#
# Coordination Sequence:
#
# PCOD9324552 Si02
#       8
#     8   8   8   8   8   8   8   8
#     4  11  22  37  61  91 124 164 210 256 313 378
#     4  10  22  41  66  91 122 167 210 262 320 380
#     4  10  23  41  64  92 124 163 211 264 318 375
#     4  12  22  39  62  90 128 168 212 250 311 381
#     4  11  22  38  65  94 123 172 214 253 312 382
#     4  10  22  42  65  93 127 163 211 267 320 372
#     4  11  23  37  61  91 125 166 207 259 312 380
#     4   9  18  32  52  84 121 154 194 250 314 372
#
# _framework density 19.125295999999999
#
# number of rings (size 3 to 8) (size 9 to 14) (size 15 to 20)
#    0.000    1.500    3.750    1.875    1.750    2.250 
#    0.000    0.625    0.000    0.000    0.000    0.000 
#    0.000    0.000    0.000    0.000    0.000    0.000 
#
# Total GULP energy -178462.801155 kJ/mol
# GULP energy per Si atom -5576.962536 kJ/mol
# Density = 1.908177 g / cm^3
# Si number density = 19.125296 Si / 1000 Ang^3
#
#
#
# Elastic Constant Matrix: (Units=GPa)
#
#
# Indices 1 2 3 4 5 6 
#
# 1 102.9847 9.9277 37.3114 0.0000 0.0000 0.0000
# 2 9.9277 52.6356 3.3079 0.0000 0.0000 0.0000
# 3 37.3114 3.3079 87.6981 0.0000 0.0000 0.0000
# 4 0.0000 0.0000 0.0000 21.0626 0.0000 0.0000
# 5 0.0000 0.0000 0.0000 0.0000 80.5375 0.0000
# 6 0.0000 0.0000 0.0000 0.0000 0.0000 -17.2109
#
#
#
# Elastic Compliance Matrix: (Units=1/GPa)
#
#
# Indices 1 2 3 4 5 6 
#
# 1 0.011665 -0.001893 -0.004891 0.000000 0.000000 0.000000
# 2 -0.001893 0.019351 0.000075 0.000000 0.000000 0.000000
# 3 -0.004891 0.000075 0.013481 0.000000 0.000000 0.000000
# 4 0.000000 0.000000 0.000000 0.047477 0.000000 0.000000
# 5 0.000000 0.000000 0.000000 0.000000 0.012417 0.000000
# 6 0.000000 0.000000 0.000000 0.000000 0.000000 -0.058103
#
#
# Mechanical properties :
#
#
# Convention : Reuss Voigt Hill
#
# Bulk Modulus (GPa) = 32.17602 38.26802 35.22202
# Shear Modulus (GPa) = 71.36216 29.72927 50.54572
#
# Velocity S-wave (km/s) = 6.11506 3.94693 5.14646
# Velocity P-wave (km/s) = 8.16817 6.38933 7.33289
#
# Compressibility (1/GPa) = 0.03107904
#
# Stress axis : x y z
#
# Youngs Moduli (GPa) = 85.72795 51.67742 74.17854
#
# Poissons Ratio (x) = 0.09781 0.36284
# Poissons Ratio (y) = 0.16226 -0.00559
# Poissons Ratio (z) = 0.41933 -0.00389
#
# Static dielectric constant tensor:
#      x y z
#    x 1.632840 0.000000 0.000000 
#    y 0.000000 1.711140 0.000000 
#    z 0.000000 0.000000 1.779130 
# 
# From -- ./inp_files/27480.got.cif
#   From: 2010.05.17/outbox.cif.g08.bks.cpg/sg21_14_cif.got.tgz:27480.got - 2010.06.03 23:14:55.
