data_PCOD9324232
_publ_section_title
;
Structure prediction by ZEFSAII (Michael W. Deem and Ramdas Pophale) SiO2 
 PCOD9324232
Probable space group: C 2 2 2
;
_chemical_formula_sum "Si O2"
_cell_formula_units_Z 48
_cell_length_a 15.445472
_cell_length_b 11.649372
_cell_length_c 12.195522
_cell_angle_alpha 90.000000
_cell_angle_beta 90.000000
_cell_angle_gamma 90.000000
_cell_volume 2194.340872
_symmetry_space_group_name_H-M "C 2 2 2"
_symmetry_group_IT_number 21
_symmetry_cell_setting 'orthorhombic'
loop_
_space_group_symop_operation_xyz
x,y,z
-x,-y,z
x,-y,-z
-x,y,-z
1/2+x,1/2+y,z
1/2-x,1/2-y,z
1/2+x,1/2-y,-z
1/2-x,1/2+y,-z
loop_
_atom_site_type_symbol
_atom_site_label
_atom_site_fract_x
_atom_site_fract_y
_atom_site_fract_z
Si Si1 0.660685 0.508556 0.357692
Si Si2 0.602774 0.367344 0.985845
Si Si3 0.645142 0.736484 0.250745
Si Si4 0.350769 0.090966 0.420656
Si Si5 0.088693 0.221575 0.564181
Si Si6 0.656689 0.301162 0.214705
O O1 0.617021 0.629109 0.327879
O O2 0.759319 0.534305 0.389483
O O3 0.618133 0.588820 0.565495
O O4 0.659325 0.436183 0.244265
O O5 0.636049 0.291840 0.087938
O O6 0.635347 0.500000 0.000000
O O7 0.500000 0.374027 0.000000
O O8 0.622615 0.303461 0.871512
O O9 0.750000 0.750000 0.256107
O O10 0.612144 0.853570 0.308548
O O11 0.342385 0.199747 0.501524
O O12 0.398263 0.000000 0.500000
O O13 0.090745 0.249819 0.694403
O O14 0.000000 0.239577 0.500000
O O15 0.750000 0.250000 0.240532
#
# Coordination Sequence:
#
# PCOD9324232 Si02
#       6
#     8   8   8   8   8   8
#     4   9  22  38  65 101 133 182 233 288 359 431
#     4  11  22  40  68  99 142 176 233 312 379 432
#     4  10  22  40  66 101 135 182 236 291 360 441
#     4  11  24  39  66  97 141 189 233 285 351 444
#     4  10  24  43  70 102 143 184 232 302 367 430
#     4  10  21  41  69  95 138 186 235 288 367 446
#
# _framework density 21.874451000000001
#
# number of rings (size 3 to 8) (size 9 to 14) (size 15 to 20)
#    1.000    0.833    1.667    1.500    9.333    0.333 
#    0.000    0.833    0.000    0.000    0.000    8.167 
#    0.000    0.000    0.000    0.000    0.000    0.000 
#
# Total GULP energy -133740.098157 kJ/mol
# GULP energy per Si atom -5572.504090 kJ/mol
# Density = 2.182466 g / cm^3
# Si number density = 21.874451 Si / 1000 Ang^3
#
#
#
# Elastic Constant Matrix: (Units=GPa)
#
#
# Indices 1 2 3 4 5 6 
#
# 1 67.4405 9.8896 27.6138 0.0000 0.0000 0.0000
# 2 9.8896 70.7668 50.8587 0.0000 0.0000 0.0000
# 3 27.6138 50.8587 192.7809 0.0000 0.0000 0.0000
# 4 0.0000 0.0000 0.0000 3612.4461 0.0000 0.0000
# 5 0.0000 0.0000 0.0000 0.0000 27.9868 0.0000
# 6 0.0000 0.0000 0.0000 0.0000 0.0000 18.5052
#
#
#
# Elastic Compliance Matrix: (Units=1/GPa)
#
#
# Indices 1 2 3 4 5 6 
#
# 1 0.015781 -0.000717 -0.002071 0.000000 0.000000 0.000000
# 2 -0.000717 0.017470 -0.004506 0.000000 0.000000 0.000000
# 3 -0.002071 -0.004506 0.006673 0.000000 0.000000 0.000000
# 4 0.000000 0.000000 0.000000 0.000277 0.000000 0.000000
# 5 0.000000 0.000000 0.000000 0.000000 0.035731 0.000000
# 6 0.000000 0.000000 0.000000 0.000000 0.000000 0.054039
#
#
# Mechanical properties :
#
#
# Convention : Reuss Voigt Hill
#
# Bulk Modulus (GPa) = 39.47114 56.41248 47.94181
# Shear Modulus (GPa) = 32.67902 747.96270 390.32086
#
# Velocity S-wave (km/s) = 3.86934 18.51153 13.37252
# Velocity P-wave (km/s) = 6.16814 21.97151 16.13681
#
# Compressibility (1/GPa) = 0.02533496
#
# Stress axis : x y z
#
# Youngs Moduli (GPa) = 63.36685 57.24256 149.86405
#
# Poissons Ratio (x) = 0.04103 0.31043
# Poissons Ratio (y) = 0.04542 0.67530
# Poissons Ratio (z) = 0.13126 0.25794
#
# Static dielectric constant tensor:
#      x y z
#    x 0.027590 0.000000 0.000000 
#    y 0.000000 1.859640 0.000000 
#    z 0.000000 0.000000 1.877490 
# 
# From -- ./inp_files/26030.got.cif
#   From: 2010.05.17/outbox.cif.g08.bks.cpg/sg21_14_cif.got.tgz:26030.got - 2010.06.03 23:14:55.
