data_PCOD9324929
_publ_section_title
;
Structure prediction by ZEFSAII (Michael W. Deem and Ramdas Pophale) SiO2 
 PCOD9324929
Probable space group: C 2 2 2
;
_chemical_formula_sum "Si O2"
_cell_formula_units_Z 30
_cell_length_a 19.911162
_cell_length_b 5.584797
_cell_length_c 11.343079
_cell_angle_alpha 90.000000
_cell_angle_beta 90.000000
_cell_angle_gamma 90.000000
_cell_volume 1261.348091
_symmetry_space_group_name_H-M "C 2 2 2"
_symmetry_group_IT_number 21
_symmetry_cell_setting 'orthorhombic'
loop_
_space_group_symop_operation_xyz
x,y,z
-x,-y,z
x,-y,-z
-x,y,-z
1/2+x,1/2+y,z
1/2-x,1/2-y,z
1/2+x,1/2-y,-z
1/2-x,1/2+y,-z
loop_
_atom_site_type_symbol
_atom_site_label
_atom_site_fract_x
_atom_site_fract_y
_atom_site_fract_z
Si Si1 0.000000 0.000000 0.500000
Si Si2 0.750000 0.250000 0.325884
Si Si3 0.391945 0.012232 0.869754
Si Si4 0.189813 0.984077 0.873052
Si Si5 0.598492 0.153939 0.385508
O O1 0.948184 0.878498 0.591383
O O2 0.737239 0.473558 0.238220
O O3 0.678810 0.211826 0.388729
O O4 0.356056 0.275795 0.871732
O O5 0.420817 0.027108 0.737383
O O6 0.350033 0.763168 0.866943
O O7 0.425664 0.000000 0.000000
O O8 0.225858 0.000000 0.000000
O O9 0.583625 0.000000 0.500000
#
# Coordination Sequence:
#
# PCOD9324929 Si02
#       5
#     2   4   8   8   8
#     4  12  30  56  72 104 156 218 254 306 402 472
#     4  10  24  40  72 118 144 190 252 326 356 442
#     4   9  20  41  72 111 153 196 247 308 377 452
#     4   9  19  36  62 111 166 194 225 306 401 450
#     4  11  27  46  77 107 149 204 254 315 380 457
#
# _framework density 23.784079999999999
#
# number of rings (size 3 to 8) (size 9 to 14) (size 15 to 20)
#    0.000    2.133    0.000    0.400    9.333   12.800 
#    0.000    0.000    0.000    4.800    0.000    0.000 
#    0.000    0.000    0.000    0.000    0.000    0.000 
#
# Total GULP energy -83551.639891 kJ/mol
# GULP energy per Si atom -5570.109326 kJ/mol
# Density = 2.372995 g / cm^3
# Si number density = 23.784080 Si / 1000 Ang^3
#
#
#
# Elastic Constant Matrix: (Units=GPa)
#
#
# Indices 1 2 3 4 5 6 
#
# 1 133.3264 50.9519 29.4132 0.0000 0.0000 0.0000
# 2 50.9519 144.3009 29.1446 0.0000 0.0000 0.0000
# 3 29.4132 29.1446 179.6981 0.0000 0.0000 0.0000
# 4 0.0000 0.0000 0.0000 22.6232 0.0000 0.0000
# 5 0.0000 0.0000 0.0000 0.0000 -21.5309 0.0000
# 6 0.0000 0.0000 0.0000 0.0000 0.0000 -9.1867
#
#
#
# Elastic Compliance Matrix: (Units=1/GPa)
#
#
# Indices 1 2 3 4 5 6 
#
# 1 0.008831 -0.002922 -0.000972 0.000000 0.000000 0.000000
# 2 -0.002922 0.008132 -0.000841 0.000000 0.000000 0.000000
# 3 -0.000972 -0.000841 0.005860 0.000000 0.000000 0.000000
# 4 0.000000 0.000000 0.000000 0.044202 0.000000 0.000000
# 5 0.000000 0.000000 0.000000 0.000000 -0.046445 0.000000
# 6 0.000000 0.000000 0.000000 0.000000 0.000000 -0.108853
#
#
# Mechanical properties :
#
#
# Convention : Reuss Voigt Hill
#
# Bulk Modulus (GPa) = 74.87996 75.14943 75.01470
# Shear Modulus (GPa) = -67.24777 21.56882 -22.83947
#
# Velocity S-wave (km/s) = -5.32313 3.01468 -3.10221
# Velocity P-wave (km/s) = 2.49586 6.61686 4.33322
#
# Compressibility (1/GPa) = 0.01335471
#
# Stress axis : x y z
#
# Youngs Moduli (GPa) = 113.23173 122.97841 170.64128
#
# Poissons Ratio (x) = 0.35936 0.16580
# Poissons Ratio (y) = 0.33087 0.14343
# Poissons Ratio (z) = 0.11002 0.10337
#
# Static dielectric constant tensor:
#      x y z
#    x 1.998680 0.000000 0.000000 
#    y 0.000000 2.114260 0.000000 
#    z 0.000000 0.000000 1.979010 
# 
# From -- ./inp_files/26486.got.cif
#   From: 2010.05.17/outbox.cif.g08.bks.cpg/sg21_14_cif.got.tgz:26486.got - 2010.06.03 23:14:55.
