data_PCOD9324981
_publ_section_title
;
Structure prediction by ZEFSAII (Michael W. Deem and Ramdas Pophale) SiO2 
 PCOD9324981
Probable space group: C 2 2 2
;
_chemical_formula_sum "Si O2"
_cell_formula_units_Z 38
_cell_length_a 23.962082
_cell_length_b 9.080888
_cell_length_c 8.135416
_cell_angle_alpha 90.000000
_cell_angle_beta 90.000000
_cell_angle_gamma 90.000000
_cell_volume 1770.241976
_symmetry_space_group_name_H-M "C 2 2 2"
_symmetry_group_IT_number 21
_symmetry_cell_setting 'orthorhombic'
loop_
_space_group_symop_operation_xyz
x,y,z
-x,-y,z
x,-y,-z
-x,y,-z
1/2+x,1/2+y,z
1/2-x,1/2-y,z
1/2+x,1/2-y,-z
1/2-x,1/2+y,-z
loop_
_atom_site_type_symbol
_atom_site_label
_atom_site_fract_x
_atom_site_fract_y
_atom_site_fract_z
Si Si1 0.909085 0.671292 0.674747
Si Si2 0.189137 0.492559 0.817082
Si Si3 0.066802 0.993995 0.197992
Si Si4 0.500000 0.000000 0.500000
Si Si5 0.347695 0.273172 0.363713
Si Si6 0.250000 0.250000 0.592670
O O1 0.872817 0.577675 0.802112
O O2 0.880533 0.673745 0.495508
O O3 0.967554 0.603453 0.627570
O O4 0.912754 0.836664 0.737963
O O5 0.181356 0.659727 0.759553
O O6 0.224384 0.380435 0.704116
O O7 0.211829 0.500000 0.000000
O O8 0.108039 0.114921 0.282136
O O9 0.000000 0.000000 0.238760
O O10 0.071669 0.000000 0.000000
O O11 0.296689 0.326543 0.477735
#
# Coordination Sequence:
#
# PCOD9324981 Si02
#       6
#     8   8   8   2   8   4
#     4  11  22  40  68  98 137 184 235 289 345 428
#     4  11  24  45  69 101 140 179 232 295 364 427
#     4  11  25  43  67 105 147 187 235 297 363 422
#     4  12  20  40  72 108 136 188 252 288 358 420
#     4  11  23  46  69 101 139 183 238 290 351 428
#     4  10  24  44  72 102 136 188 240 294 354 430
#
# _framework density 21.465990999999999
#
# number of rings (size 3 to 8) (size 9 to 14) (size 15 to 20)
#    0.000    1.053    2.105    5.053    0.000    8.421 
#    0.000    5.263    0.000    0.000    0.000    0.000 
#    0.000    0.000    0.000    0.000    0.000    0.000 
#
# Total GULP energy -106049.476193 kJ/mol
# GULP energy per Si atom -5581.551379 kJ/mol
# Density = 2.141713 g / cm^3
# Si number density = 21.465991 Si / 1000 Ang^3
#
#
#
# Elastic Constant Matrix: (Units=GPa)
#
#
# Indices 1 2 3 4 5 6 
#
# 1 109.7716 53.4480 49.7629 0.0000 0.0000 0.0000
# 2 53.4480 136.7039 56.7133 0.0000 0.0000 0.0000
# 3 49.7629 56.7133 107.9079 0.0000 0.0000 0.0000
# 4 0.0000 0.0000 0.0000 28.1977 0.0000 0.0000
# 5 0.0000 0.0000 0.0000 0.0000 80.8481 0.0000
# 6 0.0000 0.0000 0.0000 0.0000 0.0000 36.5038
#
#
#
# Elastic Compliance Matrix: (Units=1/GPa)
#
#
# Indices 1 2 3 4 5 6 
#
# 1 0.012523 -0.003197 -0.004095 0.000000 0.000000 0.000000
# 2 -0.003197 0.010171 -0.003871 0.000000 0.000000 0.000000
# 3 -0.004095 -0.003871 0.013190 0.000000 0.000000 0.000000
# 4 0.000000 0.000000 0.000000 0.035464 0.000000 0.000000
# 5 0.000000 0.000000 0.000000 0.000000 0.012369 0.000000
# 6 0.000000 0.000000 0.000000 0.000000 0.000000 0.027394
#
#
# Mechanical properties :
#
#
# Convention : Reuss Voigt Hill
#
# Bulk Modulus (GPa) = 73.75882 74.91466 74.33674
# Shear Modulus (GPa) = 36.24323 42.07386 39.15854
#
# Velocity S-wave (km/s) = 4.11347 4.43202 4.27571
# Velocity P-wave (km/s) = 7.54959 7.82083 7.68641
#
# Compressibility (1/GPa) = 0.01355770
#
# Stress axis : x y z
#
# Youngs Moduli (GPa) = 79.85395 98.31680 75.81517
#
# Poissons Ratio (x) = 0.31436 0.31043
# Poissons Ratio (y) = 0.25533 0.29349
# Poissons Ratio (z) = 0.32697 0.38060
#
# Static dielectric constant tensor:
#      x y z
#    x 1.916790 0.000000 0.000000 
#    y 0.000000 1.717470 0.000000 
#    z 0.000000 0.000000 1.823760 
# 
# From -- ./inp_files/18249.got.cif
#   From: 2010.05.17/outbox.cif.g08.bks.cpg/sg21_10_cif.got.tgz:18249.got - 2010.06.03 23:14:55.
