data_PCOD9324407
_publ_section_title
;
Structure prediction by ZEFSAII (Michael W. Deem and Ramdas Pophale) SiO2 
 PCOD9324407
Probable space group: C 2 2 2
;
_chemical_formula_sum "Si O2"
_cell_formula_units_Z 36
_cell_length_a 23.626790
_cell_length_b 11.850429
_cell_length_c 5.307249
_cell_angle_alpha 90.000000
_cell_angle_beta 90.000000
_cell_angle_gamma 90.000000
_cell_volume 1485.963896
_symmetry_space_group_name_H-M "C 2 2 2"
_symmetry_group_IT_number 21
_symmetry_cell_setting 'orthorhombic'
loop_
_space_group_symop_operation_xyz
x,y,z
-x,-y,z
x,-y,-z
-x,y,-z
1/2+x,1/2+y,z
1/2-x,1/2-y,z
1/2+x,1/2-y,-z
1/2-x,1/2+y,-z
loop_
_atom_site_type_symbol
_atom_site_label
_atom_site_fract_x
_atom_site_fract_y
_atom_site_fract_z
Si Si1 0.728566 0.000000 0.000000
Si Si2 0.036615 0.163826 0.246356
Si Si3 0.127829 0.734117 0.454754
Si Si4 0.250000 0.250000 0.757124
Si Si5 0.620961 0.462899 0.245968
Si Si6 0.344982 0.000000 0.500000
O O1 0.692856 0.029509 0.744863
O O2 0.750114 0.869870 0.913130
O O3 0.094251 0.235189 0.291711
O O4 0.000000 0.179829 0.500000
O O5 0.064033 0.038132 0.242980
O O6 0.000000 0.186493 0.000000
O O7 0.195030 0.746899 0.422374
O O8 0.108624 0.832218 0.263272
O O9 0.117156 0.604281 0.408956
O O10 0.652012 0.500000 0.500000
O O11 0.653704 0.500000 0.000000
#
# Coordination Sequence:
#
# PCOD9324407 Si02
#       6
#     4   8   8   4   8   4
#     4  10  24  46  72 108 159 217 272 340 396 496
#     4  11  24  44  70 105 144 189 254 334 408 464
#     4  10  24  46  72 108 154 211 262 333 400 492
#     4  10  24  48  74 116 164 220 282 336 414 492
#     4  10  22  38  64 103 137 185 245 316 399 458
#     4  10  24  48  69 104 158 214 267 326 406 482
#
# _framework density 24.226697999999999
#
# number of rings (size 3 to 8) (size 9 to 14) (size 15 to 20)
#    0.000    1.778    0.000    2.667    1.556   24.000 
#   28.000    0.556    0.000    5.333    0.000    0.000 
#    0.000    0.000    0.000    0.000    0.000    0.000 
#
# Total GULP energy -100254.660280 kJ/mol
# GULP energy per Si atom -5569.703349 kJ/mol
# Density = 2.417156 g / cm^3
# Si number density = 24.226698 Si / 1000 Ang^3
#
#
#
# Elastic Constant Matrix: (Units=GPa)
#
#
# Indices 1 2 3 4 5 6 
#
# 1 123.2838 48.3883 47.2528 0.0000 0.0000 0.0000
# 2 48.3883 207.6250 61.6297 0.0000 0.0000 0.0000
# 3 47.2528 61.6297 184.3079 0.0000 0.0000 0.0000
# 4 0.0000 0.0000 0.0000 15.9802 0.0000 0.0000
# 5 0.0000 0.0000 0.0000 0.0000 23.9963 0.0000
# 6 0.0000 0.0000 0.0000 0.0000 0.0000 25.8481
#
#
#
# Elastic Compliance Matrix: (Units=1/GPa)
#
#
# Indices 1 2 3 4 5 6 
#
# 1 0.009480 -0.001652 -0.001878 0.000000 0.000000 0.000000
# 2 -0.001652 0.005635 -0.001461 0.000000 0.000000 0.000000
# 3 -0.001878 -0.001461 0.006396 0.000000 0.000000 0.000000
# 4 0.000000 0.000000 0.000000 0.062577 0.000000 0.000000
# 5 0.000000 0.000000 0.000000 0.000000 0.041673 0.000000
# 6 0.000000 0.000000 0.000000 0.000000 0.000000 0.038688
#
#
# Mechanical properties :
#
#
# Convention : Reuss Voigt Hill
#
# Bulk Modulus (GPa) = 86.73815 92.19536 89.46675
# Shear Modulus (GPa) = 28.04698 37.02798 32.53748
#
# Velocity S-wave (km/s) = 3.40617 3.91371 3.66873
# Velocity P-wave (km/s) = 7.16588 7.65250 7.41318
#
# Compressibility (1/GPa) = 0.01152895
#
# Stress axis : x y z
#
# Youngs Moduli (GPa) = 105.49071 177.46438 156.35656
#
# Poissons Ratio (x) = 0.29314 0.29364
# Poissons Ratio (y) = 0.17425 0.22840
# Poissons Ratio (z) = 0.19811 0.25923
#
# Static dielectric constant tensor:
#      x y z
#    x 2.174450 0.000000 0.000000 
#    y 0.000000 2.047400 0.000000 
#    z 0.000000 0.000000 2.076800 
# 
# From -- ./inp_files/6512.got.cif
#   From: 2010.05.17/outbox.cif.g08.bks.cpg/sg21_4_cif.got.tgz:6512.got - 2010.06.03 23:14:55.
