data_PCOD9324009
_publ_section_title
;
Structure prediction by ZEFSAII (Michael W. Deem and Ramdas Pophale) SiO2 
 PCOD9324009
Probable space group: C 2 2 2
;
_chemical_formula_sum "Si O2"
_cell_formula_units_Z 64
_cell_length_a 18.778258
_cell_length_b 28.266099
_cell_length_c 6.862054
_cell_angle_alpha 90.000000
_cell_angle_beta 90.000000
_cell_angle_gamma 90.000000
_cell_volume 3642.296603
_symmetry_space_group_name_H-M "C 2 2 2"
_symmetry_group_IT_number 21
_symmetry_cell_setting 'orthorhombic'
loop_
_space_group_symop_operation_xyz
x,y,z
-x,-y,z
x,-y,-z
-x,y,-z
1/2+x,1/2+y,z
1/2-x,1/2-y,z
1/2+x,1/2-y,-z
1/2-x,1/2+y,-z
loop_
_atom_site_type_symbol
_atom_site_label
_atom_site_fract_x
_atom_site_fract_y
_atom_site_fract_z
Si Si1 0.579125 0.383042 0.909451
Si Si2 0.081085 0.695734 0.576344
Si Si3 0.420875 0.883042 0.909451
Si Si4 0.918915 0.195734 0.576344
Si Si5 0.081605 0.945185 0.553169
Si Si6 0.581605 0.945185 0.446831
Si Si7 0.165383 0.129531 0.700405
Si Si8 0.165383 0.370469 0.700405
O O1 0.585674 0.339131 0.760548
O O2 0.591277 0.429781 0.777524
O O3 0.500000 0.384451 0.000000
O O4 0.634229 0.376602 0.083891
O O5 0.085674 0.660869 0.760548
O O6 0.098189 0.750000 0.624078
O O7 0.131348 0.674998 0.407084
O O8 0.000000 0.693659 0.500000
O O9 0.408723 0.929781 0.777524
O O10 0.500000 0.884451 0.000000
O O11 0.365771 0.876602 0.083891
O O12 0.868652 0.174998 0.407084
O O13 0.000000 0.193659 0.500000
O O14 0.135216 0.914383 0.424917
O O15 0.000000 0.931218 0.500000
O O16 0.089442 0.000000 0.500000
O O17 0.500000 0.931218 0.500000
O O18 0.635216 0.914383 0.575083
O O19 0.589442 0.000000 0.500000
O O20 0.250000 0.131371 0.698633
#
# Coordination Sequence:
#
# PCOD9324009 Si02
#       8
#     8   8   8   8   8   8   8   8
#     4  11  19  37  61  88 118 153 199 243 292 352
#     4  10  21  38  63  89 115 153 197 241 293 354
#     4  11  19  37  61  88 118 153 199 243 292 352
#     4  10  21  38  63  89 115 153 197 241 293 354
#     4  10  21  39  62  87 115 155 200 245 295 352
#     4  10  21  39  62  87 115 155 200 245 295 352
#     4  11  23  39  58  86 122 156 193 246 299 349
#     4  11  23  39  58  86 122 156 193 246 299 349
#
# _framework density 17.571331000000001
#
# number of rings (size 3 to 8) (size 9 to 14) (size 15 to 20)
#    0.000    1.500    5.000    1.500    0.000    7.500 
#    0.000    1.250    0.000    0.000    0.000    0.000 
#    0.000    0.000    0.000    0.000    0.000    0.000 
#
# Total GULP energy -178656.304868 kJ/mol
# GULP energy per Si atom -5583.009527 kJ/mol
# Density = 1.753134 g / cm^3
# Si number density = 17.571331 Si / 1000 Ang^3
#
#
#
# Elastic Constant Matrix: (Units=GPa)
#
#
# Indices 1 2 3 4 5 6 
#
# 1 143.8060 45.5001 58.9308 0.0000 0.0000 0.0000
# 2 45.5001 120.2026 55.9025 0.0000 0.0000 0.0000
# 3 58.9308 55.9025 141.5369 0.0000 0.0000 0.0000
# 4 0.0000 0.0000 0.0000 12.2039 0.0000 0.0000
# 5 0.0000 0.0000 0.0000 0.0000 25.4983 0.0000
# 6 0.0000 0.0000 0.0000 0.0000 0.0000 -4.7619
#
#
#
# Elastic Compliance Matrix: (Units=1/GPa)
#
#
# Indices 1 2 3 4 5 6 
#
# 1 0.008754 -0.001983 -0.002862 0.000000 0.000000 0.000000
# 2 -0.001983 0.010640 -0.003377 0.000000 0.000000 0.000000
# 3 -0.002862 -0.003377 0.009591 0.000000 0.000000 0.000000
# 4 0.000000 0.000000 0.000000 0.081941 0.000000 0.000000
# 5 0.000000 0.000000 0.000000 0.000000 0.039218 0.000000
# 6 0.000000 0.000000 0.000000 0.000000 0.000000 -0.209999
#
#
# Mechanical properties :
#
#
# Convention : Reuss Voigt Hill
#
# Bulk Modulus (GPa) = 79.73256 80.69026 80.21141
# Shear Modulus (GPa) = -127.44778 22.93555 -52.25612
#
# Velocity S-wave (km/s) = -8.52579 3.61679 -5.45930
# Velocity P-wave (km/s) = 7.17243 7.96635 2.45142
#
# Compressibility (1/GPa) = 0.01254193
#
# Stress axis : x y z
#
# Youngs Moduli (GPa) = 114.23567 93.98172 104.26851
#
# Poissons Ratio (x) = 0.18634 0.29838
# Poissons Ratio (y) = 0.22649 0.35212
# Poissons Ratio (z) = 0.32691 0.31738
#
# Static dielectric constant tensor:
#      x y z
#    x 1.570980 0.000000 0.000000 
#    y 0.000000 1.604550 0.000000 
#    z 0.000000 0.000000 1.590970 
# 
# From -- ./inp_files/5389.got.cif
#   From: 2010.05.17/outbox.cif.g08.bks.cpg/sg21_3_cif.got.tgz:5389.got - 2010.06.03 23:14:55.
