data_PCOD9324740
_publ_section_title
;
Structure prediction by ZEFSAII (Michael W. Deem and Ramdas Pophale) SiO2 
 PCOD9324740
Probable space group: C 2 2 2
;
_chemical_formula_sum "Si O2"
_cell_formula_units_Z 56
_cell_length_a 5.592765
_cell_length_b 14.227258
_cell_length_c 30.793715
_cell_angle_alpha 90.000000
_cell_angle_beta 90.000000
_cell_angle_gamma 90.000000
_cell_volume 2450.246990
_symmetry_space_group_name_H-M "C 2 2 2"
_symmetry_group_IT_number 21
_symmetry_cell_setting 'orthorhombic'
loop_
_space_group_symop_operation_xyz
x,y,z
-x,-y,z
x,-y,-z
-x,y,-z
1/2+x,1/2+y,z
1/2-x,1/2-y,z
1/2+x,1/2-y,-z
1/2-x,1/2+y,-z
loop_
_atom_site_type_symbol
_atom_site_label
_atom_site_fract_x
_atom_site_fract_y
_atom_site_fract_z
Si Si1 0.617368 0.348389 0.304238
Si Si2 0.250000 0.250000 0.363704
Si Si3 0.255628 0.362325 0.521108
Si Si4 0.500000 0.000000 0.815089
Si Si5 0.883420 0.401047 0.387430
Si Si6 0.499846 0.689883 0.047818
Si Si7 0.664126 0.354670 0.776355
Si Si8 0.855732 0.143673 0.138618
O O1 0.750000 0.250000 0.294824
O O2 0.385843 0.322386 0.332522
O O3 0.777635 0.402952 0.338790
O O4 0.529473 0.387884 0.258782
O O5 0.437348 0.187733 0.389662
O O6 0.500000 0.397114 0.500000
O O7 0.250000 0.250000 0.515974
O O8 0.287047 0.384513 0.572124
O O9 0.000000 0.394738 0.500000
O O10 0.376598 0.926400 0.782730
O O11 0.671801 0.936723 0.845871
O O12 0.000000 0.500000 0.395481
O O13 0.250000 0.750000 0.046702
O O14 0.468506 0.628288 0.091086
O O15 0.750000 0.750000 0.052266
O O16 0.500000 0.643498 0.000000
O O17 0.750000 0.250000 0.764192
O O18 0.551796 0.352236 0.823995
O O19 0.750000 0.250000 0.138359
#
# Coordination Sequence:
#
# PCOD9324740 Si02
#       8
#     8   4   8   4   8   8   8   8
#     4  10  23  45  73 101 140 189 241 301 370 440
#     4  10  22  46  72  98 140 180 232 302 352 448
#     4  10  23  44  79 109 144 192 243 300 363 436
#     4  12  28  44  70 109 144 198 256 317 380 452
#     4  11  26  47  73 109 144 192 242 301 379 445
#     4   9  19  37  70 113 145 194 254 310 385 465
#     4  12  24  47  71 101 144 192 254 310 380 449
#     4  11  23  44  73 103 147 194 250 315 381 454
#
# _framework density 22.854837
#
# number of rings (size 3 to 8) (size 9 to 14) (size 15 to 20)
#    0.000    1.429    2.143    2.571    7.000    0.857 
#    7.714    0.714    0.000    2.571    0.000    0.000 
#    0.000    0.000    0.000    0.000    0.000    0.000 
#
# Total GULP energy -156455.647078 kJ/mol
# GULP energy per Si atom -5587.701681 kJ/mol
# Density = 2.280282 g / cm^3
# Si number density = 22.854837 Si / 1000 Ang^3
#
#
#
# Elastic Constant Matrix: (Units=GPa)
#
#
# Indices 1 2 3 4 5 6 
#
# 1 104.2569 29.7636 52.3920 0.0000 0.0000 0.0000
# 2 29.7636 96.1912 38.4487 0.0000 0.0000 0.0000
# 3 52.3920 38.4487 152.8423 0.0000 0.0000 0.0000
# 4 0.0000 0.0000 0.0000 -107.8144 0.0000 0.0000
# 5 0.0000 0.0000 0.0000 0.0000 -723.5080 0.0000
# 6 0.0000 0.0000 0.0000 0.0000 0.0000 10.5551
#
#
#
# Elastic Compliance Matrix: (Units=1/GPa)
#
#
# Indices 1 2 3 4 5 6 
#
# 1 0.012031 -0.002306 -0.003544 0.000000 0.000000 0.000000
# 2 -0.002306 0.012000 -0.002228 0.000000 0.000000 0.000000
# 3 -0.003544 -0.002228 0.008318 0.000000 0.000000 0.000000
# 4 0.000000 0.000000 0.000000 -0.009275 0.000000 0.000000
# 5 0.000000 0.000000 0.000000 0.000000 -0.001382 0.000000
# 6 0.000000 0.000000 0.000000 0.000000 0.000000 0.094741
#
#
# Mechanical properties :
#
#
# Convention : Reuss Voigt Hill
#
# Bulk Modulus (GPa) = 61.75642 66.05546 63.90594
# Shear Modulus (GPa) = 36.23532 -148.64106 -56.20287
#
# Velocity S-wave (km/s) = 3.98610 -8.07330 -4.96434
# Velocity P-wave (km/s) = 6.94731 7.61179 2.19935
#
# Compressibility (1/GPa) = 0.01619265
#
# Stress axis : x y z
#
# Youngs Moduli (GPa) = 83.11891 83.33212 120.22078
#
# Poissons Ratio (x) = 0.19217 0.42605
# Poissons Ratio (y) = 0.19168 0.26788
# Poissons Ratio (z) = 0.29457 0.18568
#
# Static dielectric constant tensor:
#      x y z
#    x 2.702690 0.000000 0.000000 
#    y 0.000000 13.284780 0.000000 
#    z 0.000000 0.000000 1.843740 
# 
# From -- ./inp_files/39513.got.cif
#   From: 2010.05.17/outbox.cif.g08.bks.cpg/sg21_20_cif.got.tgz:39513.got - 2010.06.03 23:14:55.
