data_PCOD9324715
_publ_section_title
;
Structure prediction by ZEFSAII (Michael W. Deem and Ramdas Pophale) SiO2 
 PCOD9324715
Probable space group: C 2 2 2
;
_chemical_formula_sum "Si O2"
_cell_formula_units_Z 32
_cell_length_a 6.770455
_cell_length_b 13.869890
_cell_length_c 17.091088
_cell_angle_alpha 90.000000
_cell_angle_beta 90.000000
_cell_angle_gamma 90.000000
_cell_volume 1604.946585
_symmetry_space_group_name_H-M "C 2 2 2"
_symmetry_group_IT_number 21
_symmetry_cell_setting 'orthorhombic'
loop_
_space_group_symop_operation_xyz
x,y,z
-x,-y,z
x,-y,-z
-x,y,-z
1/2+x,1/2+y,z
1/2-x,1/2-y,z
1/2+x,1/2-y,-z
1/2-x,1/2+y,-z
loop_
_atom_site_type_symbol
_atom_site_label
_atom_site_fract_x
_atom_site_fract_y
_atom_site_fract_z
Si Si1 0.500000 0.500000 0.000000
Si Si2 0.420096 0.601270 0.352678
Si Si3 0.250000 0.750000 0.684407
Si Si4 0.500000 0.500000 0.500000
Si Si5 0.941006 0.388427 0.239296
Si Si6 0.676805 0.858109 0.939537
O O1 0.356818 0.431567 0.950719
O O2 0.500000 0.500000 0.316215
O O3 0.591148 0.681499 0.359008
O O4 0.372132 0.565644 0.440923
O O5 0.239915 0.632565 0.298542
O O6 0.377454 0.822392 0.736153
O O7 0.889948 0.366168 0.149890
O O8 0.000000 0.500000 0.247536
O O9 0.750000 0.750000 0.956312
O O10 0.500000 0.881015 0.000000
#
# Coordination Sequence:
#
# PCOD9324715 Si02
#       6
#     2   8   4   2   8   8
#     4  12  26  46  68  92 140 178 234 300 348 414
#     4  10  22  45  69 104 135 188 231 286 357 414
#     4  12  24  44  72 102 140 184 232 288 358 424
#     4   8  20  46  70 100 150 176 240 300 342 430
#     4  12  25  44  73 102 143 184 238 295 353 432
#     4  12  27  45  69 102 139 188 239 296 362 420
#
# _framework density 19.938358000000001
#
# number of rings (size 3 to 8) (size 9 to 14) (size 15 to 20)
#    0.750    0.000    3.750    4.125    3.500    4.000 
#    4.500    4.375    0.000    0.000    0.000    0.000 
#    0.000    0.000    0.000    0.000    0.000    0.000 
#
# Total GULP energy -89317.564822 kJ/mol
# GULP energy per Si atom -5582.347801 kJ/mol
# Density = 1.989298 g / cm^3
# Si number density = 19.938358 Si / 1000 Ang^3
#
#
#
# Elastic Constant Matrix: (Units=GPa)
#
#
# Indices 1 2 3 4 5 6 
#
# 1 118.1041 53.9226 64.5281 0.0000 0.0000 0.0000
# 2 53.9226 139.7651 22.2642 0.0000 0.0000 0.0000
# 3 64.5281 22.2642 143.6902 0.0000 0.0000 0.0000
# 4 0.0000 0.0000 0.0000 -21.6744 0.0000 0.0000
# 5 0.0000 0.0000 0.0000 0.0000 17.6505 0.0000
# 6 0.0000 0.0000 0.0000 0.0000 0.0000 55.9119
#
#
#
# Elastic Compliance Matrix: (Units=1/GPa)
#
#
# Indices 1 2 3 4 5 6 
#
# 1 0.013338 -0.004298 -0.005324 0.000000 0.000000 0.000000
# 2 -0.004298 0.008721 0.000579 0.000000 0.000000 0.000000
# 3 -0.005324 0.000579 0.009261 0.000000 0.000000 0.000000
# 4 0.000000 0.000000 0.000000 -0.046137 0.000000 0.000000
# 5 0.000000 0.000000 0.000000 0.000000 0.056656 0.000000
# 6 0.000000 0.000000 0.000000 0.000000 0.000000 0.017885
#
#
# Mechanical properties :
#
#
# Convention : Reuss Voigt Hill
#
# Bulk Modulus (GPa) = 75.56526 75.88769 75.72647
# Shear Modulus (GPa) = 60.81220 27.76725 44.28973
#
# Velocity S-wave (km/s) = 5.52868 3.73588 4.71821
# Velocity P-wave (km/s) = 8.87338 7.53345 8.23072
#
# Compressibility (1/GPa) = 0.01323359
#
# Stress axis : x y z
#
# Youngs Moduli (GPa) = 74.97252 114.66803 107.98441
#
# Poissons Ratio (x) = 0.49283 0.57490
# Poissons Ratio (y) = 0.32223 -0.06251
# Poissons Ratio (z) = 0.39915 -0.06637
#
# Static dielectric constant tensor:
#      x y z
#    x 1.706810 0.000000 0.000000 
#    y 0.000000 1.735240 0.000000 
#    z 0.000000 0.000000 1.673020 
# 
# From -- ./inp_files/34536.got.cif
#   From: 2010.05.17/outbox.cif.g08.bks.cpg/sg21_18_cif.got.tgz:34536.got - 2010.06.03 23:14:55.
