data_PCOD9324555
_publ_section_title
;
Structure prediction by ZEFSAII (Michael W. Deem and Ramdas Pophale) SiO2 
 PCOD9324555
Probable space group: C 2 2 2
;
_chemical_formula_sum "Si O2"
_cell_formula_units_Z 30
_cell_length_a 19.116867
_cell_length_b 5.257650
_cell_length_c 12.887635
_cell_angle_alpha 90.000000
_cell_angle_beta 90.000000
_cell_angle_gamma 90.000000
_cell_volume 1295.333562
_symmetry_space_group_name_H-M "C 2 2 2"
_symmetry_group_IT_number 21
_symmetry_cell_setting 'orthorhombic'
loop_
_space_group_symop_operation_xyz
x,y,z
-x,-y,z
x,-y,-z
-x,y,-z
1/2+x,1/2+y,z
1/2-x,1/2-y,z
1/2+x,1/2-y,-z
1/2-x,1/2+y,-z
loop_
_atom_site_type_symbol
_atom_site_label
_atom_site_fract_x
_atom_site_fract_y
_atom_site_fract_z
Si Si1 0.500000 0.000000 0.000000
Si Si2 0.103584 0.126486 0.111492
Si Si3 0.250000 0.250000 0.071802
Si Si4 0.906215 0.252685 0.571767
Si Si5 0.750000 0.250000 0.571696
Si Si6 0.000000 0.000000 0.729704
O O1 0.450762 0.157149 0.077962
O O2 0.180562 0.216382 0.139579
O O3 0.065484 0.946507 0.194152
O O4 0.114658 0.000000 0.000000
O O5 0.238088 0.500000 0.000000
O O6 0.914328 0.500000 0.500000
O O7 0.827784 0.259105 0.620913
O O8 0.966821 0.215760 0.656609
O O9 0.909786 0.000000 0.500000
O O10 0.748495 0.500000 0.500000
#
# Coordination Sequence:
#
# PCOD9324555 Si02
#       6
#     2   8   4   8   4   4
#     4  12  18  40  68  90 138 174 222 288 334 404
#     4  11  23  42  63 101 139 179 231 282 341 411
#     4  10  22  41  66  93 138 190 222 277 338 403
#     4  10  23  43  64  95 133 175 227 283 340 403
#     4   8  16  37  66  85 122 174 216 273 338 393
#     4  12  24  40  68 100 138 182 228 288 346 408
#
# _framework density 23.160057999999999
#
# number of rings (size 3 to 8) (size 9 to 14) (size 15 to 20)
#    0.000    1.600    4.000    0.400    0.000    5.333 
#    0.000    0.000    0.000   11.200    0.000    0.000 
#    0.000    0.000    0.000    0.000    0.000    0.000 
#
# Total GULP energy -83669.272219 kJ/mol
# GULP energy per Si atom -5577.951481 kJ/mol
# Density = 2.310734 g / cm^3
# Si number density = 23.160058 Si / 1000 Ang^3
#
#
#
# Elastic Constant Matrix: (Units=GPa)
#
#
# Indices 1 2 3 4 5 6 
#
# 1 254.4248 42.6793 69.5486 0.0000 0.0000 0.0000
# 2 42.6793 119.6973 40.7222 0.0000 0.0000 0.0000
# 3 69.5486 40.7222 117.5585 0.0000 0.0000 0.0000
# 4 0.0000 0.0000 0.0000 4.0098 0.0000 0.0000
# 5 0.0000 0.0000 0.0000 0.0000 69.6576 0.0000
# 6 0.0000 0.0000 0.0000 0.0000 0.0000 31.5414
#
#
#
# Elastic Compliance Matrix: (Units=1/GPa)
#
#
# Indices 1 2 3 4 5 6 
#
# 1 0.004762 -0.000838 -0.002527 0.000000 0.000000 0.000000
# 2 -0.000838 0.009618 -0.002836 0.000000 0.000000 0.000000
# 3 -0.002527 -0.002836 0.010984 0.000000 0.000000 0.000000
# 4 0.000000 0.000000 0.000000 0.249390 0.000000 0.000000
# 5 0.000000 0.000000 0.000000 0.000000 0.014356 0.000000
# 6 0.000000 0.000000 0.000000 0.000000 0.000000 0.031704
#
#
# Mechanical properties :
#
#
# Convention : Reuss Voigt Hill
#
# Bulk Modulus (GPa) = 77.14939 88.62007 82.88473
# Shear Modulus (GPa) = 14.81324 43.62378 29.21851
#
# Velocity S-wave (km/s) = 2.53178 4.34473 3.55574
# Velocity P-wave (km/s) = 6.47536 7.96970 7.26107
#
# Compressibility (1/GPa) = 0.01296187
#
# Stress axis : x y z
#
# Youngs Moduli (GPa) = 210.00717 103.97123 91.04525
#
# Poissons Ratio (x) = 0.08715 0.23005
# Poissons Ratio (y) = 0.17603 0.25818
# Poissons Ratio (z) = 0.53063 0.29484
#
# Static dielectric constant tensor:
#      x y z
#    x 2.074450 0.000000 0.000000 
#    y 0.000000 1.745600 0.000000 
#    z 0.000000 0.000000 1.926650 
# 
# From -- ./inp_files/20742.got.cif
#   From: 2010.05.17/outbox.cif.g08.bks.cpg/sg21_11_cif.got.tgz:20742.got - 2010.06.03 23:14:55.
