data_PCOD9324761
_publ_section_title
;
Structure prediction by ZEFSAII (Michael W. Deem and Ramdas Pophale) SiO2 
 PCOD9324761
Probable space group: C 2 2 2
;
_chemical_formula_sum "Si O2"
_cell_formula_units_Z 48
_cell_length_a 8.951157
_cell_length_b 16.828690
_cell_length_c 16.059586
_cell_angle_alpha 90.000000
_cell_angle_beta 90.000000
_cell_angle_gamma 90.000000
_cell_volume 2419.155752
_symmetry_space_group_name_H-M "C 2 2 2"
_symmetry_group_IT_number 21
_symmetry_cell_setting 'orthorhombic'
loop_
_space_group_symop_operation_xyz
x,y,z
-x,-y,z
x,-y,-z
-x,y,-z
1/2+x,1/2+y,z
1/2-x,1/2-y,z
1/2+x,1/2-y,-z
1/2-x,1/2+y,-z
loop_
_atom_site_type_symbol
_atom_site_label
_atom_site_fract_x
_atom_site_fract_y
_atom_site_fract_z
Si Si1 0.678122 0.080951 0.105740
Si Si2 0.750000 0.750000 0.188581
Si Si3 0.332935 0.920506 0.461470
Si Si4 0.680334 0.900009 0.078670
Si Si5 0.499325 0.730096 0.674275
Si Si6 0.267034 0.871059 0.294275
Si Si7 0.250000 0.750000 0.534383
O O1 0.498886 0.091817 0.094072
O O2 0.723052 0.113113 0.195913
O O3 0.728887 0.988987 0.102512
O O4 0.728857 0.116389 0.016906
O O5 0.735114 0.828583 0.134229
O O6 0.609299 0.738297 0.247929
O O7 0.500000 0.916577 0.500000
O O8 0.325772 0.934116 0.361883
O O9 0.264375 0.833453 0.484350
O O10 0.260643 0.000000 0.500000
O O11 0.619914 0.799393 0.685180
O O12 0.597923 0.650968 0.680783
O O13 0.396528 0.740887 0.593066
#
# Coordination Sequence:
#
# PCOD9324761 Si02
#       7
#     8   4   8   8   8   8   4
#     4   9  19  38  60  86 118 165 197 245 299 365
#     4  11  20  38  57  96 118 154 205 256 286 365
#     4  11  25  41  67  97 119 166 212 247 310 374
#     4   9  19  36  61  86 121 159 201 240 307 357
#     4  10  23  36  64  90 122 165 201 244 325 348
#     4  11  21  40  60  91 122 158 206 256 293 375
#     4  11  22  46  61  86 134 164 195 268 302 373
#
# _framework density 19.841633000000002
#
# number of rings (size 3 to 8) (size 9 to 14) (size 15 to 20)
#    0.000    1.833    3.333    2.000    0.000    6.667 
#    0.000    4.167    0.000    2.000    0.000    0.000 
#    0.000    0.000    0.000    0.000    0.000    0.000 
#
# Total GULP energy -133683.340452 kJ/mol
# GULP energy per Si atom -5570.139185 kJ/mol
# Density = 1.979647 g / cm^3
# Si number density = 19.841633 Si / 1000 Ang^3
#
#
#
# Elastic Constant Matrix: (Units=GPa)
#
#
# Indices 1 2 3 4 5 6 
#
# 1 67.5517 19.6496 46.6388 0.0000 0.0000 0.0000
# 2 19.6496 83.7691 51.4589 0.0000 0.0000 0.0000
# 3 46.6388 51.4589 169.2810 0.0000 0.0000 0.0000
# 4 0.0000 0.0000 0.0000 53.7230 0.0000 0.0000
# 5 0.0000 0.0000 0.0000 0.0000 22.9884 0.0000
# 6 0.0000 0.0000 0.0000 0.0000 0.0000 15.2248
#
#
#
# Elastic Compliance Matrix: (Units=1/GPa)
#
#
# Indices 1 2 3 4 5 6 
#
# 1 0.018429 -0.001480 -0.004627 0.000000 0.000000 0.000000
# 2 -0.001480 0.014798 -0.004090 0.000000 0.000000 0.000000
# 3 -0.004627 -0.004090 0.008426 0.000000 0.000000 0.000000
# 4 0.000000 0.000000 0.000000 0.018614 0.000000 0.000000
# 5 0.000000 0.000000 0.000000 0.000000 0.043500 0.000000
# 6 0.000000 0.000000 0.000000 0.000000 0.000000 0.065682
#
#
# Mechanical properties :
#
#
# Convention : Reuss Voigt Hill
#
# Bulk Modulus (GPa) = 47.04562 61.78846 54.41704
# Shear Modulus (GPa) = 25.38976 31.91087 28.65032
#
# Velocity S-wave (km/s) = 3.58106 4.01469 3.80406
# Velocity P-wave (km/s) = 6.39224 7.25939 6.83957
#
# Compressibility (1/GPa) = 0.02125596
#
# Stress axis : x y z
#
# Youngs Moduli (GPa) = 54.26268 67.57895 118.68524
#
# Poissons Ratio (x) = 0.10003 0.54920
# Poissons Ratio (y) = 0.08032 0.48547
# Poissons Ratio (z) = 0.25109 0.27642
#
# Static dielectric constant tensor:
#      x y z
#    x 1.645430 0.000000 0.000000 
#    y 0.000000 1.679430 0.000000 
#    z 0.000000 0.000000 1.736900 
# 
# From -- ./inp_files/30568.got.cif
#   From: 2010.05.17/outbox.cif.g08.bks.cpg/sg21_16_cif.got.tgz:30568.got - 2010.06.03 23:14:55.
