data_PCOD9324030
_publ_section_title
;
Structure prediction by ZEFSAII (Michael W. Deem and Ramdas Pophale) SiO2 
 PCOD9324030
Probable space group: C 2 2 2
;
_chemical_formula_sum "Si O2"
_cell_formula_units_Z 32
_cell_length_a 12.281564
_cell_length_b 6.946478
_cell_length_c 14.433027
_cell_angle_alpha 90.000000
_cell_angle_beta 90.000000
_cell_angle_gamma 90.000000
_cell_volume 1231.333696
_symmetry_space_group_name_H-M "C 2 2 2"
_symmetry_group_IT_number 21
_symmetry_cell_setting 'orthorhombic'
loop_
_space_group_symop_operation_xyz
x,y,z
-x,-y,z
x,-y,-z
-x,y,-z
1/2+x,1/2+y,z
1/2-x,1/2-y,z
1/2+x,1/2-y,-z
1/2-x,1/2+y,-z
loop_
_atom_site_type_symbol
_atom_site_label
_atom_site_fract_x
_atom_site_fract_y
_atom_site_fract_z
Si Si1 0.636734 0.327645 0.741410
Si Si2 0.127649 0.459649 0.400137
Si Si3 0.373511 0.273284 0.980485
Si Si4 0.601576 0.221772 0.226366
O O1 0.750000 0.250000 0.779858
O O2 0.862158 0.240055 0.634121
O O3 0.622338 0.552281 0.754148
O O4 0.530569 0.216510 0.778443
O O5 0.179584 0.500000 0.500000
O O6 0.151646 0.596726 0.310699
O O7 0.000000 0.500000 0.410260
O O8 0.250000 0.250000 0.021834
O O9 0.358320 0.186563 0.876856
O O10 0.385984 0.500000 0.000000
O O11 0.500000 0.206614 0.000000
#
# Coordination Sequence:
#
# PCOD9324030 Si02
#       4
#     8   8   8   8
#     4  10  21  38  64  99 134 185 233 291 357 440
#     4   9  20  41  64  98 141 180 236 298 357 445
#     4  11  26  49  71 107 149 189 247 316 370 449
#     4  10  23  43  69  98 137 186 236 298 371 431
#
# _framework density 25.988081999999999
#
# number of rings (size 3 to 8) (size 9 to 14) (size 15 to 20)
#    0.000    2.000    0.000    3.000    3.500    5.500 
#   13.500    5.000    0.000    0.000    0.000    0.000 
#    0.000    0.000    0.000    0.000    0.000    0.000 
#
# Total GULP energy -89098.562242 kJ/mol
# GULP energy per Si atom -5568.660140 kJ/mol
# Density = 2.592893 g / cm^3
# Si number density = 25.988082 Si / 1000 Ang^3
#
#
#
# Elastic Constant Matrix: (Units=GPa)
#
#
# Indices 1 2 3 4 5 6 
#
# 1 241.0034 3.9692 13.7843 0.0000 0.0000 0.0000
# 2 3.9692 100.1512 18.0075 0.0000 0.0000 0.0000
# 3 13.7843 18.0075 175.8729 0.0000 0.0000 0.0000
# 4 0.0000 0.0000 0.0000 53.3996 0.0000 0.0000
# 5 0.0000 0.0000 0.0000 0.0000 9.9768 0.0000
# 6 0.0000 0.0000 0.0000 0.0000 0.0000 19.5437
#
#
#
# Elastic Compliance Matrix: (Units=1/GPa)
#
#
# Indices 1 2 3 4 5 6 
#
# 1 0.004169 -0.000108 -0.000316 0.000000 0.000000 0.000000
# 2 -0.000108 0.010175 -0.001033 0.000000 0.000000 0.000000
# 3 -0.000316 -0.001033 0.005816 0.000000 0.000000 0.000000
# 4 0.000000 0.000000 0.000000 0.018727 0.000000 0.000000
# 5 0.000000 0.000000 0.000000 0.000000 0.100233 0.000000
# 6 0.000000 0.000000 0.000000 0.000000 0.000000 0.051167
#
#
# Mechanical properties :
#
#
# Convention : Reuss Voigt Hill
#
# Bulk Modulus (GPa) = 57.98535 65.39439 61.68987
# Shear Modulus (GPa) = 25.13181 48.66846 36.90013
#
# Velocity S-wave (km/s) = 3.11312 4.33219 3.77223
# Velocity P-wave (km/s) = 5.93993 7.08814 6.53928
#
# Compressibility (1/GPa) = 0.01724574
#
# Stress axis : x y z
#
# Youngs Moduli (GPa) = 239.85650 98.28018 171.92574
#
# Poissons Ratio (x) = 0.01066 0.05427
# Poissons Ratio (y) = 0.02602 0.17765
# Poissons Ratio (z) = 0.07571 0.10155
#
# Static dielectric constant tensor:
#      x y z
#    x 2.151320 0.000000 0.000000 
#    y 0.000000 2.042550 0.000000 
#    z 0.000000 0.000000 2.091700 
# 
# From -- ./inp_files/29833.got.cif
#   From: 2010.05.17/outbox.cif.g08.bks.cpg/sg21_15_cif.got.tgz:29833.got - 2010.06.03 23:14:55.
