data_PCOD9324331
_publ_section_title
;
Structure prediction by ZEFSAII (Michael W. Deem and Ramdas Pophale) SiO2 
 PCOD9324331
Probable space group: C 2 2 2
;
_chemical_formula_sum "Si O2"
_cell_formula_units_Z 38
_cell_length_a 25.117261
_cell_length_b 8.586493
_cell_length_c 7.707714
_cell_angle_alpha 90.000000
_cell_angle_beta 90.000000
_cell_angle_gamma 90.000000
_cell_volume 1662.316402
_symmetry_space_group_name_H-M "C 2 2 2"
_symmetry_group_IT_number 21
_symmetry_cell_setting 'orthorhombic'
loop_
_space_group_symop_operation_xyz
x,y,z
-x,-y,z
x,-y,-z
-x,y,-z
1/2+x,1/2+y,z
1/2-x,1/2-y,z
1/2+x,1/2-y,-z
1/2-x,1/2+y,-z
loop_
_atom_site_type_symbol
_atom_site_label
_atom_site_fract_x
_atom_site_fract_y
_atom_site_fract_z
Si Si1 0.703563 0.125110 0.643146
Si Si2 0.110221 0.145095 0.383893
Si Si3 0.000000 0.000000 0.000000
Si Si4 0.661368 0.000000 0.000000
Si Si5 0.000000 0.728358 0.500000
Si Si6 0.000000 0.500000 0.785385
Si Si7 0.078890 0.751752 0.975383
O O1 0.750000 0.250000 0.657291
O O2 0.649033 0.209892 0.582997
O O3 0.693519 0.052166 0.832077
O O4 0.718411 0.000000 0.500000
O O5 0.107193 0.144942 0.173962
O O6 0.048617 0.174148 0.428559
O O7 0.128253 0.000000 0.500000
O O8 0.041059 0.128018 0.920425
O O9 0.624129 0.145986 0.058788
O O10 0.973903 0.619664 0.649528
O O11 0.041182 0.616730 0.883793
#
# Coordination Sequence:
#
# PCOD9324331 Si02
#       7
#     8   8   2   4   4   4   8
#     4  11  26  48  77 107 136 184 245 311 377 437
#     4  10  22  37  62 100 141 180 230 292 357 429
#     4  12  24  34  52  92 140 190 238 286 336 426
#     4  10  24  47  71  98 140 188 242 296 372 446
#     4   9  19  30  62  97 135 186 234 279 351 416
#     4   9  18  33  56  86 133 181 242 273 331 428
#     4  10  22  36  58  89 134 190 234 286 350 420
#
# _framework density 22.859669
#
# number of rings (size 3 to 8) (size 9 to 14) (size 15 to 20)
#    0.000    1.895    0.000    2.211   14.737    2.526 
#    0.000    4.211    0.000    0.000    0.000    0.000 
#    0.000    0.000    0.000    0.000    0.000    0.000 
#
# Total GULP energy -105874.773948 kJ/mol
# GULP energy per Si atom -5572.356524 kJ/mol
# Density = 2.280764 g / cm^3
# Si number density = 22.859669 Si / 1000 Ang^3
#
#
#
# Elastic Constant Matrix: (Units=GPa)
#
#
# Indices 1 2 3 4 5 6 
#
# 1 96.6283 51.6271 45.5642 0.0000 0.0000 0.0000
# 2 51.6271 147.9334 78.6070 0.0000 0.0000 0.0000
# 3 45.5642 78.6070 88.1048 0.0000 0.0000 0.0000
# 4 0.0000 0.0000 0.0000 25.8888 0.0000 0.0000
# 5 0.0000 0.0000 0.0000 0.0000 22.0340 0.0000
# 6 0.0000 0.0000 0.0000 0.0000 0.0000 48.8348
#
#
#
# Elastic Compliance Matrix: (Units=1/GPa)
#
#
# Indices 1 2 3 4 5 6 
#
# 1 0.013983 -0.001972 -0.005472 0.000000 0.000000 0.000000
# 2 -0.001972 0.013132 -0.010696 0.000000 0.000000 0.000000
# 3 -0.005472 -0.010696 0.023723 0.000000 0.000000 0.000000
# 4 0.000000 0.000000 0.000000 0.038627 0.000000 0.000000
# 5 0.000000 0.000000 0.000000 0.000000 0.045384 0.000000
# 6 0.000000 0.000000 0.000000 0.000000 0.000000 0.020477
#
#
# Mechanical properties :
#
#
# Convention : Reuss Voigt Hill
#
# Bulk Modulus (GPa) = 68.69415 76.02922 72.36168
# Shear Modulus (GPa) = 25.45075 29.80940 27.63008
#
# Velocity S-wave (km/s) = 3.34031 3.61504 3.48038
# Velocity P-wave (km/s) = 6.70764 7.12432 6.91912
#
# Compressibility (1/GPa) = 0.01455728
#
# Stress axis : x y z
#
# Youngs Moduli (GPa) = 71.51622 76.15185 42.15372
#
# Poissons Ratio (x) = 0.15021 0.23065
# Poissons Ratio (y) = 0.14106 0.45087
# Poissons Ratio (z) = 0.39130 0.81452
#
# Static dielectric constant tensor:
#      x y z
#    x 1.846100 0.000000 0.000000 
#    y 0.000000 1.893540 0.000000 
#    z 0.000000 0.000000 2.028140 
# 
# From -- ./inp_files/18308.got.cif
#   From: 2010.05.17/outbox.cif.g08.bks.cpg/sg21_10_cif.got.tgz:18308.got - 2010.06.03 23:14:55.
