data_PCOD9324220
_publ_section_title
;
Structure prediction by ZEFSAII (Michael W. Deem and Ramdas Pophale) SiO2 
 PCOD9324220
Probable space group: C 2 2 2
;
_chemical_formula_sum "Si O2"
_cell_formula_units_Z 26
_cell_length_a 7.882625
_cell_length_b 7.100821
_cell_length_c 18.850382
_cell_angle_alpha 90.000000
_cell_angle_beta 90.000000
_cell_angle_gamma 90.000000
_cell_volume 1055.114489
_symmetry_space_group_name_H-M "C 2 2 2"
_symmetry_group_IT_number 21
_symmetry_cell_setting 'orthorhombic'
loop_
_space_group_symop_operation_xyz
x,y,z
-x,-y,z
x,-y,-z
-x,y,-z
1/2+x,1/2+y,z
1/2-x,1/2-y,z
1/2+x,1/2-y,-z
1/2-x,1/2+y,-z
loop_
_atom_site_type_symbol
_atom_site_label
_atom_site_fract_x
_atom_site_fract_y
_atom_site_fract_z
Si Si1 0.458307 0.778908 0.885061
Si Si2 0.500000 0.500000 0.000000
Si Si3 0.552394 0.218472 0.729644
Si Si4 0.447466 0.780211 0.423126
O O1 0.250000 0.750000 0.893993
O O2 0.559914 0.653890 0.941773
O O3 0.517777 0.717195 0.805756
O O4 0.500000 0.000000 0.893494
O O5 0.750000 0.250000 0.737806
O O6 0.512990 0.297812 0.651770
O O7 0.500000 0.000000 0.726077
O O8 0.500000 0.703294 0.500000
O O9 0.250000 0.750000 0.419513
O O10 0.500000 0.000000 0.424287
#
# Coordination Sequence:
#
# PCOD9324220 Si02
#       4
#     8   2   8   8
#     4  10  24  45  69 100 142 185 240 295 365 429
#     4  12  26  40  70 106 134 192 230 310 352 450
#     4   9  19  42  65  96 136 183 233 289 349 420
#     4  10  21  41  67 101 139 185 231 286 342 412
#
# _framework density 24.641874000000001
#
# number of rings (size 3 to 8) (size 9 to 14) (size 15 to 20)
#    0.000    2.154    0.000    1.385    4.308    0.000 
#   27.692   15.385    0.000    0.000    0.000    0.000 
#    0.000    0.000    0.000    0.000    0.000    0.000 
#
# Total GULP energy -72429.246892 kJ/mol
# GULP energy per Si atom -5571.480530 kJ/mol
# Density = 2.458579 g / cm^3
# Si number density = 24.641874 Si / 1000 Ang^3
#
#
#
# Elastic Constant Matrix: (Units=GPa)
#
#
# Indices 1 2 3 4 5 6 
#
# 1 82.5196 24.0049 7.2323 0.0000 0.0000 0.0000
# 2 24.0049 191.1224 47.0717 0.0000 0.0000 0.0000
# 3 7.2323 47.0717 302.7306 0.0000 0.0000 0.0000
# 4 0.0000 0.0000 0.0000 245.8955 0.0000 0.0000
# 5 0.0000 0.0000 0.0000 0.0000 -36.5201 0.0000
# 6 0.0000 0.0000 0.0000 0.0000 0.0000 40.0321
#
#
#
# Elastic Compliance Matrix: (Units=1/GPa)
#
#
# Indices 1 2 3 4 5 6 
#
# 1 0.012579 -0.001566 -0.000057 0.000000 0.000000 0.000000
# 2 -0.001566 0.005636 -0.000839 0.000000 0.000000 0.000000
# 3 -0.000057 -0.000839 0.003435 0.000000 0.000000 0.000000
# 4 0.000000 0.000000 0.000000 0.004067 0.000000 0.000000
# 5 0.000000 0.000000 0.000000 0.000000 -0.027382 0.000000
# 6 0.000000 0.000000 0.000000 0.000000 0.000000 0.024980
#
#
# Mechanical properties :
#
#
# Convention : Reuss Voigt Hill
#
# Bulk Modulus (GPa) = 59.78739 81.44336 70.61537
# Shear Modulus (GPa) = 147.87314 83.08575 115.47944
#
# Velocity S-wave (km/s) = 7.75494 5.81296 6.85309
# Velocity P-wave (km/s) = 10.22256 8.84175 9.55713
#
# Compressibility (1/GPa) = 0.01672594
#
# Stress axis : x y z
#
# Youngs Moduli (GPa) = 79.49859 177.44585 291.11535
#
# Poissons Ratio (x) = 0.27785 0.01660
# Poissons Ratio (y) = 0.12448 0.24421
# Poissons Ratio (z) = 0.00453 0.14885
#
# Static dielectric constant tensor:
#      x y z
#    x 1.907670 0.000000 0.000000 
#    y 0.000000 1.960420 0.000000 
#    z 0.000000 0.000000 1.887090 
# 
# From -- ./inp_files/35365.got.cif
#   From: 2010.05.17/outbox.cif.g08.bks.cpg/sg21_18_cif.got.tgz:35365.got - 2010.06.03 23:14:55.
