data_PCOD9324198
_publ_section_title
;
Structure prediction by ZEFSAII (Michael W. Deem and Ramdas Pophale) SiO2 
 PCOD9324198
Probable space group: C 2 2 2
;
_chemical_formula_sum "Si O2"
_cell_formula_units_Z 32
_cell_length_a 19.575023
_cell_length_b 8.591087
_cell_length_c 8.604991
_cell_angle_alpha 90.000000
_cell_angle_beta 90.000000
_cell_angle_gamma 90.000000
_cell_volume 1447.107580
_symmetry_space_group_name_H-M "C 2 2 2"
_symmetry_group_IT_number 21
_symmetry_cell_setting 'orthorhombic'
loop_
_space_group_symop_operation_xyz
x,y,z
-x,-y,z
x,-y,-z
-x,y,-z
1/2+x,1/2+y,z
1/2-x,1/2-y,z
1/2+x,1/2-y,-z
1/2-x,1/2+y,-z
loop_
_atom_site_type_symbol
_atom_site_label
_atom_site_fract_x
_atom_site_fract_y
_atom_site_fract_z
Si Si1 0.497333 0.819879 0.688360
Si Si2 0.134430 0.846225 0.612748
Si Si3 0.259893 0.510161 0.183827
Si Si4 0.351569 0.204731 0.702464
O O1 0.500000 0.822424 0.500000
O O2 0.430980 0.712408 0.711677
O O3 0.570367 0.760706 0.746629
O O4 0.500000 0.000000 0.739707
O O5 0.152212 0.717031 0.483844
O O6 0.120514 0.000000 0.500000
O O7 0.197808 0.879908 0.724535
O O8 0.305944 0.659567 0.226923
O O9 0.183290 0.545116 0.243118
O O10 0.258346 0.500000 0.000000
#
# Coordination Sequence:
#
# PCOD9324198 Si02
#       4
#     8   8   8   8
#     4   9  18  37  61  91 124 158 204 275 329 377
#     4   9  19  39  66  98 121 166 218 270 322 389
#     4  10  21  41  60  89 129 172 208 268 323 385
#     4   9  20  41  59  90 124 156 218 268 320 388
#
# _framework density 22.113076
#
# number of rings (size 3 to 8) (size 9 to 14) (size 15 to 20)
#    0.000    2.750    0.000    0.000    0.000   11.500 
#   58.500    2.500    0.000    0.000    0.000    0.000 
#    0.000    0.000    0.000    0.000    0.000    0.000 
#
# Total GULP energy -89182.267805 kJ/mol
# GULP energy per Si atom -5573.891738 kJ/mol
# Density = 2.206275 g / cm^3
# Si number density = 22.113076 Si / 1000 Ang^3
#
#
#
# Elastic Constant Matrix: (Units=GPa)
#
#
# Indices 1 2 3 4 5 6 
#
# 1 172.1032 59.4891 67.9115 0.0000 0.0000 0.0000
# 2 59.4891 54.9067 20.4668 0.0000 0.0000 0.0000
# 3 67.9115 20.4668 79.4856 0.0000 0.0000 0.0000
# 4 0.0000 0.0000 0.0000 -0.7782 0.0000 0.0000
# 5 0.0000 0.0000 0.0000 0.0000 434.8288 0.0000
# 6 0.0000 0.0000 0.0000 0.0000 0.0000 45.0257
#
#
#
# Elastic Compliance Matrix: (Units=1/GPa)
#
#
# Indices 1 2 3 4 5 6 
#
# 1 0.012733 -0.010774 -0.008104 0.000000 0.000000 0.000000
# 2 -0.010774 0.029264 0.001670 0.000000 0.000000 0.000000
# 3 -0.008104 0.001670 0.019075 0.000000 0.000000 0.000000
# 4 0.000000 0.000000 0.000000 -1.285073 0.000000 0.000000
# 5 0.000000 0.000000 0.000000 0.000000 0.002300 0.000000
# 6 0.000000 0.000000 0.000000 0.000000 0.000000 0.022210
#
#
# Mechanical properties :
#
#
# Convention : Reuss Voigt Hill
#
# Bulk Modulus (GPa) = 37.51681 66.91447 52.21564
# Shear Modulus (GPa) = -4.32454 106.39049 51.03297
#
# Velocity S-wave (km/s) = -1.39996 6.94381 4.80919
# Velocity P-wave (km/s) = 3.79335 9.72700 7.38255
#
# Compressibility (1/GPa) = 0.02665472
#
# Stress axis : x y z
#
# Youngs Moduli (GPa) = 78.53788 34.17204 52.42452
#
# Poissons Ratio (x) = 0.36818 0.42487
# Poissons Ratio (y) = 0.84620 -0.08757
# Poissons Ratio (z) = 0.63650 -0.05708
#
# Static dielectric constant tensor:
#      x y z
#    x 1.906680 0.000000 0.000000 
#    y 0.000000 1.944280 0.000000 
#    z 0.000000 0.000000 1.779760 
# 
# From -- ./inp_files/16018.got.cif
#   From: 2010.05.17/outbox.cif.g08.bks.cpg/sg21_9_cif.got.tgz:16018.got - 2010.06.03 23:14:55.
