data_PCOD9324893
_publ_section_title
;
Structure prediction by ZEFSAII (Michael W. Deem and Ramdas Pophale) SiO2 
 PCOD9324893
Probable space group: C 2 2 2
;
_chemical_formula_sum "Si O2"
_cell_formula_units_Z 52
_cell_length_a 19.974817
_cell_length_b 13.894845
_cell_length_c 8.986620
_cell_angle_alpha 90.000000
_cell_angle_beta 90.000000
_cell_angle_gamma 90.000000
_cell_volume 2494.209296
_symmetry_space_group_name_H-M "C 2 2 2"
_symmetry_group_IT_number 21
_symmetry_cell_setting 'orthorhombic'
loop_
_space_group_symop_operation_xyz
x,y,z
-x,-y,z
x,-y,-z
-x,y,-z
1/2+x,1/2+y,z
1/2-x,1/2-y,z
1/2+x,1/2-y,-z
1/2-x,1/2+y,-z
loop_
_atom_site_type_symbol
_atom_site_label
_atom_site_fract_x
_atom_site_fract_y
_atom_site_fract_z
Si Si1 0.065531 0.107656 0.063191
Si Si2 0.138557 0.718238 0.308216
Si Si3 0.361565 0.824637 0.656243
Si Si4 0.489756 0.704942 0.670619
Si Si5 0.679194 0.984198 0.830501
Si Si6 0.250000 0.250000 0.144154
Si Si7 0.703672 0.369697 0.103038
O O1 0.049012 0.122022 0.236277
O O2 0.135675 0.136898 0.993153
O O3 0.000000 0.162180 0.000000
O O4 0.062959 0.000000 0.000000
O O5 0.150312 0.695057 0.482027
O O6 0.149703 0.617059 0.226578
O O7 0.187616 0.798886 0.239232
O O8 0.063925 0.760765 0.284376
O O9 0.438625 0.794960 0.681769
O O10 0.313865 0.753794 0.750478
O O11 0.342531 0.929937 0.719661
O O12 0.500000 0.674585 0.500000
O O13 0.760684 0.965422 0.834996
O O14 0.655634 0.000000 0.000000
O O15 0.244624 0.335383 0.024386
#
# Coordination Sequence:
#
# PCOD9324893 Si02
#       7
#     8   8   8   8   8   4   8
#     4  11  23  40  67 101 131 178 229 282 342 415
#     4  11  24  44  69  98 136 181 230 290 353 420
#     4  11  25  42  68 100 135 182 226 286 354 420
#     4  10  23  46  72  98 138 181 230 287 358 420
#     4  12  24  42  63 102 136 176 231 286 338 420
#     4  12  22  38  66  94 132 174 222 270 342 424
#     4  12  22  41  68  97 140 179 226 284 348 417
#
# _framework density 20.848289999999999
#
# number of rings (size 3 to 8) (size 9 to 14) (size 15 to 20)
#    0.000    0.769    6.154    0.923    2.154    0.615 
#    0.000    4.615    0.000    0.000    0.000    0.000 
#    0.000    0.000    0.000    0.000    0.000    0.000 
#
# Total GULP energy -144770.245660 kJ/mol
# GULP energy per Si atom -5568.086372 kJ/mol
# Density = 2.080084 g / cm^3
# Si number density = 20.848290 Si / 1000 Ang^3
#
#
#
# Elastic Constant Matrix: (Units=GPa)
#
#
# Indices 1 2 3 4 5 6 
#
# 1 105.5774 13.1301 64.1084 0.0000 0.0000 0.0000
# 2 13.1301 98.7457 71.8807 0.0000 0.0000 0.0000
# 3 64.1084 71.8807 156.5125 0.0000 0.0000 0.0000
# 4 0.0000 0.0000 0.0000 29.4762 0.0000 0.0000
# 5 0.0000 0.0000 0.0000 0.0000 44.1500 0.0000
# 6 0.0000 0.0000 0.0000 0.0000 0.0000 27.3642
#
#
#
# Elastic Compliance Matrix: (Units=1/GPa)
#
#
# Indices 1 2 3 4 5 6 
#
# 1 0.013285 0.003297 -0.006956 0.000000 0.000000 0.000000
# 2 0.003297 0.016031 -0.008713 0.000000 0.000000 0.000000
# 3 -0.006956 -0.008713 0.013240 0.000000 0.000000 0.000000
# 4 0.000000 0.000000 0.000000 0.033926 0.000000 0.000000
# 5 0.000000 0.000000 0.000000 0.000000 0.022650 0.000000
# 6 0.000000 0.000000 0.000000 0.000000 0.000000 0.036544
#
#
# Mechanical properties :
#
#
# Convention : Reuss Voigt Hill
#
# Bulk Modulus (GPa) = 56.13988 73.23046 64.68517
# Shear Modulus (GPa) = 30.05562 34.31249 32.18406
#
# Velocity S-wave (km/s) = 3.80101 4.06127 3.93329
# Velocity P-wave (km/s) = 6.80072 7.56264 7.19178
#
# Compressibility (1/GPa) = 0.01781265
#
# Stress axis : x y z
#
# Youngs Moduli (GPa) = 75.27004 62.37849 75.52828
#
# Poissons Ratio (x) = -0.20566 0.52538
# Poissons Ratio (y) = -0.24816 0.65808
# Poissons Ratio (z) = 0.52358 0.54350
#
# Static dielectric constant tensor:
#      x y z
#    x 1.945030 0.000000 0.000000 
#    y 0.000000 1.812890 0.000000 
#    z 0.000000 0.000000 1.791980 
# 
# From -- ./inp_files/17647.got.cif
#   From: 2010.05.17/outbox.cif.g08.bks.cpg/sg21_9_cif.got.tgz:17647.got - 2010.06.03 23:14:55.
