data_PCOD9324956
_publ_section_title
;
Structure prediction by ZEFSAII (Michael W. Deem and Ramdas Pophale) SiO2 
 PCOD9324956
Probable space group: C 2 2 2
;
_chemical_formula_sum "Si O2"
_cell_formula_units_Z 44
_cell_length_a 18.924320
_cell_length_b 7.177803
_cell_length_c 15.057000
_cell_angle_alpha 90.000000
_cell_angle_beta 90.000000
_cell_angle_gamma 90.000000
_cell_volume 2045.268210
_symmetry_space_group_name_H-M "C 2 2 2"
_symmetry_group_IT_number 21
_symmetry_cell_setting 'orthorhombic'
loop_
_space_group_symop_operation_xyz
x,y,z
-x,-y,z
x,-y,-z
-x,y,-z
1/2+x,1/2+y,z
1/2-x,1/2-y,z
1/2+x,1/2-y,-z
1/2-x,1/2+y,-z
loop_
_atom_site_type_symbol
_atom_site_label
_atom_site_fract_x
_atom_site_fract_y
_atom_site_fract_z
Si Si1 0.628052 0.891582 0.717097
Si Si2 0.250000 0.750000 0.148762
Si Si3 0.325081 0.304619 0.264330
Si Si4 0.317854 0.384055 0.587052
Si Si5 0.567000 0.358237 0.889125
Si Si6 0.315064 0.500000 0.000000
Si Si7 0.500000 0.000000 0.829264
O O1 0.687031 0.814233 0.786193
O O2 0.627974 0.761067 0.631136
O O3 0.554492 0.890696 0.767421
O O4 0.645739 0.108356 0.698066
O O5 0.272030 0.585983 0.081099
O O6 0.250000 0.250000 0.219054
O O7 0.305969 0.456994 0.338343
O O8 0.386371 0.385738 0.200741
O O9 0.337423 0.500000 0.500000
O O10 0.250000 0.250000 0.570787
O O11 0.500000 0.500000 0.897268
O O12 0.627681 0.354620 0.963396
O O13 0.538030 0.152249 0.886592
#
# Coordination Sequence:
#
# PCOD9324956 Si02
#       7
#     8   4   8   8   8   4   4
#     4  11  23  45  67 100 135 183 240 284 357 432
#     4  12  26  44  68 104 144 188 234 310 360 422
#     4  11  21  40  69  93 133 178 227 286 348 420
#     4  12  24  38  68 108 139 168 221 291 360 424
#     4  11  24  44  66  96 136 183 235 297 351 421
#     4  12  27  40  68  99 144 178 244 298 362 413
#     4  10  24  42  77  91 128 194 246 276 359 436
#
# _framework density 21.513072000000001
#
# number of rings (size 3 to 8) (size 9 to 14) (size 15 to 20)
#    0.000    0.727    2.727    5.182    6.364    0.000 
#    0.000    5.455    0.000   18.000    0.000    0.000 
#    0.000    0.000    0.000    0.000    0.000    0.000 
#
# Total GULP energy -122879.602980 kJ/mol
# GULP energy per Si atom -5585.436499 kJ/mol
# Density = 2.146411 g / cm^3
# Si number density = 21.513072 Si / 1000 Ang^3
#
#
#
# Elastic Constant Matrix: (Units=GPa)
#
#
# Indices 1 2 3 4 5 6 
#
# 1 84.7263 14.1454 34.0406 0.0000 0.0000 0.0000
# 2 14.1454 95.5798 46.8121 0.0000 0.0000 0.0000
# 3 34.0406 46.8121 87.2223 0.0000 0.0000 0.0000
# 4 0.0000 0.0000 0.0000 34.4584 0.0000 0.0000
# 5 0.0000 0.0000 0.0000 0.0000 34.9962 0.0000
# 6 0.0000 0.0000 0.0000 0.0000 0.0000 36.7064
#
#
#
# Elastic Compliance Matrix: (Units=1/GPa)
#
#
# Indices 1 2 3 4 5 6 
#
# 1 0.014045 0.000822 -0.005923 0.000000 0.000000 0.000000
# 2 0.000822 0.014241 -0.007964 0.000000 0.000000 0.000000
# 3 -0.005923 -0.007964 0.018051 0.000000 0.000000 0.000000
# 4 0.000000 0.000000 0.000000 0.029020 0.000000 0.000000
# 5 0.000000 0.000000 0.000000 0.000000 0.028575 0.000000
# 6 0.000000 0.000000 0.000000 0.000000 0.000000 0.027243
#
#
# Mechanical properties :
#
#
# Convention : Reuss Voigt Hill
#
# Bulk Modulus (GPa) = 49.48591 50.83607 50.16099
# Shear Modulus (GPa) = 30.48023 32.73422 31.60722
#
# Velocity S-wave (km/s) = 3.76816 3.90500 3.83719
# Velocity P-wave (km/s) = 6.47956 6.63428 6.55737
#
# Compressibility (1/GPa) = 0.02020777
#
# Stress axis : x y z
#
# Youngs Moduli (GPa) = 71.19975 70.21773 55.39925
#
# Poissons Ratio (x) = -0.05773 0.32811
# Poissons Ratio (y) = -0.05853 0.44121
# Poissons Ratio (z) = 0.42169 0.55923
#
# Static dielectric constant tensor:
#      x y z
#    x 1.740460 0.000000 0.000000 
#    y 0.000000 1.797000 0.000000 
#    z 0.000000 0.000000 1.820870 
# 
# From -- ./inp_files/32766.got.cif
#   From: 2010.05.17/outbox.cif.g08.bks.cpg/sg21_17_cif.got.tgz:32766.got - 2010.06.03 23:14:55.
