data_PCOD9324008
_publ_section_title
;
Structure prediction by ZEFSAII (Michael W. Deem and Ramdas Pophale) SiO2 
 PCOD9324008
Probable space group: C 2 2 2
;
_chemical_formula_sum "Si O2"
_cell_formula_units_Z 58
_cell_length_a 18.065100
_cell_length_b 17.225859
_cell_length_c 9.092323
_cell_angle_alpha 90.000000
_cell_angle_beta 90.000000
_cell_angle_gamma 90.000000
_cell_volume 2829.411494
_symmetry_space_group_name_H-M "C 2 2 2"
_symmetry_group_IT_number 21
_symmetry_cell_setting 'orthorhombic'
loop_
_space_group_symop_operation_xyz
x,y,z
-x,-y,z
x,-y,-z
-x,y,-z
1/2+x,1/2+y,z
1/2-x,1/2-y,z
1/2+x,1/2-y,-z
1/2-x,1/2+y,-z
loop_
_atom_site_type_symbol
_atom_site_label
_atom_site_fract_x
_atom_site_fract_y
_atom_site_fract_z
Si Si1 0.581028 0.763614 0.977001
Si Si2 0.182106 0.311923 0.469277
Si Si3 0.500000 0.500000 0.000000
Si Si4 0.954036 0.870665 0.212394
Si Si5 0.916219 0.200759 0.354695
Si Si6 0.324032 0.533874 0.854060
Si Si7 0.709702 0.572751 0.608758
Si Si8 0.292404 0.832420 0.863839
O O1 0.577400 0.693366 0.097394
O O2 0.643252 0.824188 0.019021
O O3 0.500000 0.799207 0.000000
O O4 0.594904 0.729613 0.815045
O O5 0.250000 0.250000 0.467928
O O6 0.110917 0.270386 0.539760
O O7 0.216478 0.381193 0.564690
O O8 0.174166 0.338230 0.300653
O O9 0.507250 0.430638 0.127974
O O10 0.883009 0.922635 0.248989
O O11 0.999331 0.829580 0.341039
O O12 0.860430 0.130538 0.392068
O O13 0.287645 0.463234 0.770522
O O14 0.263356 0.597583 0.892972
O O15 0.365378 0.500000 0.000000
O O16 0.701681 0.500000 0.500000
O O17 0.250000 0.750000 0.870257
#
# Coordination Sequence:
#
# PCOD9324008 Si02
#       8
#     8   8   2   8   8   8   8   8
#     4  10  21  39  60  93 124 161 217 270 313 383
#     4   9  21  40  59  85 124 171 218 270 308 378
#     4  12  16  32  52  80 146 164 184 248 330 380
#     4  11  20  35  55  92 131 169 205 259 324 391
#     4  10  21  38  63  87 125 174 216 256 320 390
#     4  12  24  37  61  97 129 168 217 266 335 399
#     4  11  22  40  58  87 132 166 212 272 321 388
#     4  11  22  38  64  88 125 169 215 270 327 379
#
# _framework density 20.498961000000001
#
# number of rings (size 3 to 8) (size 9 to 14) (size 15 to 20)
#    0.000    1.379    5.517    1.655    1.931    0.552 
#    0.000    6.897    0.000    0.414    0.000    0.000 
#    0.000    0.000    0.000    0.000    0.000    0.000 
#
# Total GULP energy -161738.498323 kJ/mol
# GULP energy per Si atom -5577.189597 kJ/mol
# Density = 2.045230 g / cm^3
# Si number density = 20.498961 Si / 1000 Ang^3
#
#
#
# Elastic Constant Matrix: (Units=GPa)
#
#
# Indices 1 2 3 4 5 6 
#
# 1 87.7824 44.1192 27.1558 0.0000 0.0000 0.0000
# 2 44.1192 59.0583 17.8094 0.0000 0.0000 0.0000
# 3 27.1558 17.8094 75.2542 0.0000 0.0000 0.0000
# 4 0.0000 0.0000 0.0000 32.2090 0.0000 0.0000
# 5 0.0000 0.0000 0.0000 0.0000 25.5035 0.0000
# 6 0.0000 0.0000 0.0000 0.0000 0.0000 38.4984
#
#
#
# Elastic Compliance Matrix: (Units=1/GPa)
#
#
# Indices 1 2 3 4 5 6 
#
# 1 0.019202 -0.013197 -0.003806 0.000000 0.000000 0.000000
# 2 -0.013197 0.027304 -0.001699 0.000000 0.000000 0.000000
# 3 -0.003806 -0.001699 0.015064 0.000000 0.000000 0.000000
# 4 0.000000 0.000000 0.000000 0.031047 0.000000 0.000000
# 5 0.000000 0.000000 0.000000 0.000000 0.039210 0.000000
# 6 0.000000 0.000000 0.000000 0.000000 0.000000 0.025975
#
#
# Mechanical properties :
#
#
# Convention : Reuss Voigt Hill
#
# Bulk Modulus (GPa) = 41.38257 44.47374 42.92815
# Shear Modulus (GPa) = 24.59883 28.10956 26.35419
#
# Velocity S-wave (km/s) = 3.46786 3.70708 3.58947
# Velocity P-wave (km/s) = 6.02215 6.32977 6.17787
#
# Compressibility (1/GPa) = 0.02416476
#
# Stress axis : x y z
#
# Youngs Moduli (GPa) = 52.07799 36.62511 66.38408
#
# Poissons Ratio (x) = 0.48334 0.25265
# Poissons Ratio (y) = 0.68727 0.11281
# Poissons Ratio (z) = 0.19821 0.06224
#
# Static dielectric constant tensor:
#      x y z
#    x 1.647400 0.000000 0.000000 
#    y 0.000000 1.716900 0.000000 
#    z 0.000000 0.000000 1.768150 
# 
# From -- ./inp_files/16707.got.cif
#   From: 2010.05.17/outbox.cif.g08.bks.cpg/sg21_9_cif.got.tgz:16707.got - 2010.06.03 23:14:55.
