data_PCOD9324076
_publ_section_title
;
Structure prediction by ZEFSAII (Michael W. Deem and Ramdas Pophale) SiO2 
 PCOD9324076
Probable space group: C 2 2 2
;
_chemical_formula_sum "Si O2"
_cell_formula_units_Z 44
_cell_length_a 10.495275
_cell_length_b 26.847512
_cell_length_c 7.719361
_cell_angle_alpha 90.000000
_cell_angle_beta 90.000000
_cell_angle_gamma 90.000000
_cell_volume 2175.099954
_symmetry_space_group_name_H-M "C 2 2 2"
_symmetry_group_IT_number 21
_symmetry_cell_setting 'orthorhombic'
loop_
_space_group_symop_operation_xyz
x,y,z
-x,-y,z
x,-y,-z
-x,y,-z
1/2+x,1/2+y,z
1/2-x,1/2-y,z
1/2+x,1/2-y,-z
1/2-x,1/2+y,-z
loop_
_atom_site_type_symbol
_atom_site_label
_atom_site_fract_x
_atom_site_fract_y
_atom_site_fract_z
Si Si1 0.000000 0.271703 0.500000
Si Si2 0.400085 0.389444 0.636293
Si Si3 0.968400 0.199092 0.808489
Si Si4 0.766345 0.663794 0.363670
Si Si5 0.873189 0.562860 0.207467
Si Si6 0.335559 0.050480 0.792019
O O1 0.024676 0.236565 0.665561
O O2 0.883484 0.306033 0.559618
O O3 0.500000 0.414282 0.500000
O O4 0.475910 0.356691 0.776820
O O5 0.328728 0.348886 0.518782
O O6 0.288637 0.422727 0.717320
O O7 0.817563 0.194369 0.773226
O O8 0.000000 0.216063 0.000000
O O9 0.805090 0.610628 0.284585
O O10 0.829319 0.507619 0.261453
O O11 0.022240 0.567949 0.260675
O O12 0.847493 0.559337 0.999994
#
# Coordination Sequence:
#
# PCOD9324076 Si02
#       6
#     4   8   8   8   8   8
#     4  12  24  46  64  95 129 168 230 284 338 392
#     4  10  21  39  63  88 127 169 212 273 327 400
#     4  11  24  45  65  91 130 176 222 279 344 404
#     4  11  22  41  63  90 131 169 215 282 332 397
#     4   9  19  36  63  93 130 169 216 276 336 386
#     4   9  18  37  61  96 130 167 221 273 324 413
#
# _framework density 20.228954999999999
#
# number of rings (size 3 to 8) (size 9 to 14) (size 15 to 20)
#    0.000    1.818    2.727    3.818    0.000    0.727 
#   13.091    8.182    0.000    9.818    0.000    0.000 
#    0.000    0.000    0.000    0.000    0.000    0.000 
#
# Total GULP energy -122705.817090 kJ/mol
# GULP energy per Si atom -5577.537140 kJ/mol
# Density = 2.018291 g / cm^3
# Si number density = 20.228955 Si / 1000 Ang^3
#
#
#
# Elastic Constant Matrix: (Units=GPa)
#
#
# Indices 1 2 3 4 5 6 
#
# 1 141.2931 60.4859 53.1864 0.0000 0.0000 0.0000
# 2 60.4859 83.1156 43.6062 0.0000 0.0000 0.0000
# 3 53.1864 43.6062 107.1103 0.0000 0.0000 0.0000
# 4 0.0000 0.0000 0.0000 948.0603 0.0000 0.0000
# 5 0.0000 0.0000 0.0000 0.0000 38.2436 0.0000
# 6 0.0000 0.0000 0.0000 0.0000 0.0000 11.0657
#
#
#
# Elastic Compliance Matrix: (Units=1/GPa)
#
#
# Indices 1 2 3 4 5 6 
#
# 1 0.010892 -0.006471 -0.002774 0.000000 0.000000 0.000000
# 2 -0.006471 0.019144 -0.004580 0.000000 0.000000 0.000000
# 3 -0.002774 -0.004580 0.012578 0.000000 0.000000 0.000000
# 4 0.000000 0.000000 0.000000 0.001055 0.000000 0.000000
# 5 0.000000 0.000000 0.000000 0.000000 0.026148 0.000000
# 6 0.000000 0.000000 0.000000 0.000000 0.000000 0.090369
#
#
# Mechanical properties :
#
#
# Convention : Reuss Voigt Hill
#
# Bulk Modulus (GPa) = 66.83131 71.78622 69.30876
# Shear Modulus (GPa) = 25.93027 211.08995 118.51011
#
# Velocity S-wave (km/s) = 3.58416 10.22629 7.66235
# Velocity P-wave (km/s) = 7.08784 13.22875 10.61219
#
# Compressibility (1/GPa) = 0.01496305
#
# Stress axis : x y z
#
# Youngs Moduli (GPa) = 91.81190 52.23651 79.50138
#
# Poissons Ratio (x) = 0.33802 0.22054
# Poissons Ratio (y) = 0.59411 0.36415
# Poissons Ratio (z) = 0.25469 0.23927
#
# Static dielectric constant tensor:
#      x y z
#    x 1.481930 0.000000 0.000000 
#    y 0.000000 1.712790 0.000000 
#    z 0.000000 0.000000 1.759530 
# 
# From -- ./inp_files/11418.got.cif
#   From: 2010.05.17/outbox.cif.g08.bks.cpg/sg21_6_cif.got.tgz:11418.got - 2010.06.03 23:14:55.
