data_PCOD9324172
_publ_section_title
;
Structure prediction by ZEFSAII (Michael W. Deem and Ramdas Pophale) SiO2 
 PCOD9324172
Probable space group: C 2 2 2
;
_chemical_formula_sum "Si O2"
_cell_formula_units_Z 56
_cell_length_a 11.160857
_cell_length_b 15.009006
_cell_length_c 16.040836
_cell_angle_alpha 90.000000
_cell_angle_beta 90.000000
_cell_angle_gamma 90.000000
_cell_volume 2687.054491
_symmetry_space_group_name_H-M "C 2 2 2"
_symmetry_group_IT_number 21
_symmetry_cell_setting 'orthorhombic'
loop_
_space_group_symop_operation_xyz
x,y,z
-x,-y,z
x,-y,-z
-x,y,-z
1/2+x,1/2+y,z
1/2-x,1/2-y,z
1/2+x,1/2-y,-z
1/2-x,1/2+y,-z
loop_
_atom_site_type_symbol
_atom_site_label
_atom_site_fract_x
_atom_site_fract_y
_atom_site_fract_z
Si Si1 0.471304 0.903704 0.827297
Si Si2 0.214386 0.352178 0.850544
Si Si3 0.370916 0.478256 0.151882
Si Si4 0.797337 0.650349 0.043387
Si Si5 0.386152 0.251845 0.440003
Si Si6 0.613677 0.562447 0.342128
Si Si7 0.117006 0.438758 0.350849
O O1 0.595737 0.864599 0.796388
O O2 0.413912 0.846812 0.899254
O O3 0.387682 0.921084 0.748643
O O4 0.500000 0.000000 0.864498
O O5 0.250000 0.250000 0.845291
O O6 0.310207 0.426653 0.827859
O O7 0.184028 0.374001 0.947352
O O8 0.500000 0.500000 0.113544
O O9 0.290854 0.418812 0.090128
O O10 0.389824 0.431568 0.241338
O O11 0.750000 0.750000 0.043076
O O12 0.500000 0.258982 0.500000
O O13 0.250000 0.250000 0.477338
O O14 0.392846 0.338552 0.380379
O O15 0.396925 0.157205 0.393359
O O16 0.500000 0.500000 0.366934
O O17 0.747288 0.526503 0.368000
O O18 0.000000 0.500000 0.370435
#
# Coordination Sequence:
#
# PCOD9324172 Si02
#       7
#     8   8   8   8   8   8   8
#     4  11  21  39  63  85 119 164 218 266 324 383
#     4  11  25  40  55  88 127 167 216 279 330 383
#     4  11  23  40  61  87 124 167 217 271 328 388
#     4  11  24  37  60  87 120 167 222 267 331 385
#     4  10  24  44  69 100 137 172 214 265 333 404
#     4  10  22  41  66  96 127 171 219 266 325 395
#     4  10  21  40  67  98 129 169 217 267 322 401
#
# _framework density 20.840662999999999
#
# number of rings (size 3 to 8) (size 9 to 14) (size 15 to 20)
#    0.000    1.429    2.857    1.714    4.000    4.571 
#    0.000    3.571    0.000    0.000    0.000    0.000 
#    0.000    0.000    0.000    0.000    0.000    0.000 
#
# Total GULP energy -156261.061563 kJ/mol
# GULP energy per Si atom -5580.752199 kJ/mol
# Density = 2.079323 g / cm^3
# Si number density = 20.840663 Si / 1000 Ang^3
#
#
#
# Elastic Constant Matrix: (Units=GPa)
#
#
# Indices 1 2 3 4 5 6 
#
# 1 152.7273 52.6157 29.2847 0.0000 0.0000 0.0000
# 2 52.6157 90.8923 30.4105 0.0000 0.0000 0.0000
# 3 29.2847 30.4105 40.2825 0.0000 0.0000 0.0000
# 4 0.0000 0.0000 0.0000 -57.0616 0.0000 0.0000
# 5 0.0000 0.0000 0.0000 0.0000 29.4910 0.0000
# 6 0.0000 0.0000 0.0000 0.0000 0.0000 34.2306
#
#
#
# Elastic Compliance Matrix: (Units=1/GPa)
#
#
# Indices 1 2 3 4 5 6 
#
# 1 0.008493 -0.003814 -0.003295 0.000000 0.000000 0.000000
# 2 -0.003814 0.016433 -0.009633 0.000000 0.000000 0.000000
# 3 -0.003295 -0.009633 0.034492 0.000000 0.000000 0.000000
# 4 0.000000 0.000000 0.000000 -0.017525 0.000000 0.000000
# 5 0.000000 0.000000 0.000000 0.000000 0.033909 0.000000
# 6 0.000000 0.000000 0.000000 0.000000 0.000000 0.029214
#
#
# Mechanical properties :
#
#
# Convention : Reuss Voigt Hill
#
# Bulk Modulus (GPa) = 38.55895 56.50266 47.53081
# Shear Modulus (GPa) = 33.97998 12.77141 23.37569
#
# Velocity S-wave (km/s) = 4.04228 2.47819 3.35272
# Velocity P-wave (km/s) = 6.35049 5.94636 6.15174
#
# Compressibility (1/GPa) = 0.02593431
#
# Stress axis : x y z
#
# Youngs Moduli (GPa) = 117.73753 60.85333 28.99190
#
# Poissons Ratio (x) = 0.23211 0.09553
# Poissons Ratio (y) = 0.44908 0.27928
# Poissons Ratio (z) = 0.38796 0.58619
#
# Static dielectric constant tensor:
#      x y z
#    x 1.816270 0.000000 0.000000 
#    y 0.000000 1.778570 0.000000 
#    z 0.000000 0.000000 1.726700 
# 
# From -- ./inp_files/31603.got.cif
#   From: 2010.05.17/outbox.cif.g08.bks.cpg/sg21_16_cif.got.tgz:31603.got - 2010.06.03 23:14:55.
