data_PCOD9324617
_publ_section_title
;
Structure prediction by ZEFSAII (Michael W. Deem and Ramdas Pophale) SiO2 
 PCOD9324617
Probable space group: C 2 2 2
;
_chemical_formula_sum "Si O2"
_cell_formula_units_Z 32
_cell_length_a 18.259963
_cell_length_b 15.258024
_cell_length_c 5.156097
_cell_angle_alpha 90.000000
_cell_angle_beta 90.000000
_cell_angle_gamma 90.000000
_cell_volume 1436.545103
_symmetry_space_group_name_H-M "C 2 2 2"
_symmetry_group_IT_number 21
_symmetry_cell_setting 'orthorhombic'
loop_
_space_group_symop_operation_xyz
x,y,z
-x,-y,z
x,-y,-z
-x,y,-z
1/2+x,1/2+y,z
1/2-x,1/2-y,z
1/2+x,1/2-y,-z
1/2-x,1/2+y,-z
loop_
_atom_site_type_symbol
_atom_site_label
_atom_site_fract_x
_atom_site_fract_y
_atom_site_fract_z
Si Si1 0.871731 0.383875 0.275614
Si Si2 0.836724 0.727903 0.214498
Si Si3 0.748796 0.000000 0.500000
Si Si4 0.128041 0.081458 0.193135
Si Si5 0.500000 0.500000 0.500000
Si Si6 0.000000 0.500000 0.500000
O O1 0.859094 0.309942 0.501924
O O2 0.805023 0.452461 0.303465
O O3 0.946123 0.437068 0.333883
O O4 0.862863 0.343329 0.993317
O O5 0.750000 0.750000 0.206116
O O6 0.873233 0.818323 0.115100
O O7 0.803465 0.927875 0.386792
O O8 0.052351 0.059687 0.330478
O O9 0.139563 0.000000 0.000000
#
# Coordination Sequence:
#
# PCOD9324617 Si02
#       6
#     8   8   4   8   2   2
#     4  11  26  46  74 107 147 186 244 298 358 441
#     4  12  25  44  75 112 139 182 247 307 356 414
#     4  10  22  42  72 100 140 188 232 294 360 432
#     4  11  24  44  69  98 142 189 234 293 368 428
#     4  10  26  44  64 100 132 196 234 282 360 450
#     4  10  28  54  72 108 150 208 236 288 390 440
#
# _framework density 22.275668
#
# number of rings (size 3 to 8) (size 9 to 14) (size 15 to 20)
#    0.000    1.000    2.500    2.625    7.000    6.000 
#    4.500    0.000    0.000    0.000    0.000    0.000 
#    0.000    0.000    0.000    0.000    0.000    0.000 
#
# Total GULP energy -89449.725422 kJ/mol
# GULP energy per Si atom -5590.607839 kJ/mol
# Density = 2.222497 g / cm^3
# Si number density = 22.275668 Si / 1000 Ang^3
#
#
#
# Elastic Constant Matrix: (Units=GPa)
#
#
# Indices 1 2 3 4 5 6 
#
# 1 145.4381 30.4518 9.1858 0.0000 0.0000 0.0000
# 2 30.4518 104.8054 2.8755 0.0000 0.0000 0.0000
# 3 9.1858 2.8755 58.2891 0.0000 0.0000 0.0000
# 4 0.0000 0.0000 0.0000 61.6780 0.0000 0.0000
# 5 0.0000 0.0000 0.0000 0.0000 10.0450 0.0000
# 6 0.0000 0.0000 0.0000 0.0000 0.0000 14.9646
#
#
#
# Elastic Compliance Matrix: (Units=1/GPa)
#
#
# Indices 1 2 3 4 5 6 
#
# 1 0.007386 -0.002117 -0.001060 0.000000 0.000000 0.000000
# 2 -0.002117 0.010161 -0.000168 0.000000 0.000000 0.000000
# 3 -0.001060 -0.000168 0.017331 0.000000 0.000000 0.000000
# 4 0.000000 0.000000 0.000000 0.016213 0.000000 0.000000
# 5 0.000000 0.000000 0.000000 0.000000 0.099552 0.000000
# 6 0.000000 0.000000 0.000000 0.000000 0.000000 0.066824
#
#
# Mechanical properties :
#
#
# Convention : Reuss Voigt Hill
#
# Bulk Modulus (GPa) = 35.47361 43.72875 39.60118
# Shear Modulus (GPa) = 21.40847 35.07217 28.24032
#
# Velocity S-wave (km/s) = 3.10348 3.97225 3.56443
# Velocity P-wave (km/s) = 5.36670 6.38057 5.89547
#
# Compressibility (1/GPa) = 0.02818997
#
# Stress axis : x y z
#
# Youngs Moduli (GPa) = 135.39227 98.41375 57.69969
#
# Poissons Ratio (x) = 0.20834 0.06113
# Poissons Ratio (y) = 0.28662 0.00967
# Poissons Ratio (z) = 0.14345 0.01650
#
# Static dielectric constant tensor:
#      x y z
#    x 1.762920 0.000000 0.000000 
#    y 0.000000 1.583340 0.000000 
#    z 0.000000 0.000000 1.865500 
# 
# From -- ./inp_files/3554.got.cif
#   From: 2010.05.17/outbox.cif.g08.bks.cpg/sg21_2_cif.got.tgz:3554.got - 2010.06.03 23:14:55.
