data_PCOD9324089
_publ_section_title
;
Structure prediction by ZEFSAII (Michael W. Deem and Ramdas Pophale) SiO2 
 PCOD9324089
Probable space group: C 2 2 2
;
_chemical_formula_sum "Si O2"
_cell_formula_units_Z 24
_cell_length_a 17.312303
_cell_length_b 4.951084
_cell_length_c 13.391150
_cell_angle_alpha 90.000000
_cell_angle_beta 90.000000
_cell_angle_gamma 90.000000
_cell_volume 1147.817955
_symmetry_space_group_name_H-M "C 2 2 2"
_symmetry_group_IT_number 21
_symmetry_cell_setting 'orthorhombic'
loop_
_space_group_symop_operation_xyz
x,y,z
-x,-y,z
x,-y,-z
-x,y,-z
1/2+x,1/2+y,z
1/2-x,1/2-y,z
1/2+x,1/2-y,-z
1/2-x,1/2+y,-z
loop_
_atom_site_type_symbol
_atom_site_label
_atom_site_fract_x
_atom_site_fract_y
_atom_site_fract_z
Si Si1 0.307508 0.000447 0.388328
Si Si2 0.330247 0.616495 0.890573
Si Si3 0.910841 0.580967 0.802881
O O1 0.250000 0.250000 0.382567
O O2 0.342650 0.000000 0.500000
O O3 0.250000 0.750000 0.377135
O O4 0.369178 0.997194 0.300643
O O5 0.250000 0.750000 0.850283
O O6 0.376082 0.377845 0.831245
O O7 0.384195 0.876487 0.889358
O O8 0.313591 0.500000 0.000000
O O9 0.000000 0.500000 0.790298
#
# Coordination Sequence:
#
# PCOD9324089 Si02
#       3
#     8   8   8
#     4  10  21  39  64  90 119 162 212 258 306 372
#     4  12  25  43  66  91 122 168 220 264 311 378
#     4  12  25  40  63  95 131 166 204 264 331 384
#
# _framework density 20.90924
#
# number of rings (size 3 to 8) (size 9 to 14) (size 15 to 20)
#    0.000    0.667    0.000   10.000    0.000    4.667 
#    0.000    0.000    0.000   10.000    0.000    0.000 
#    0.000    0.000    0.000    0.000    0.000    0.000 
#
# Total GULP energy -66940.332819 kJ/mol
# GULP energy per Si atom -5578.361068 kJ/mol
# Density = 2.086165 g / cm^3
# Si number density = 20.909240 Si / 1000 Ang^3
#
#
#
# Elastic Constant Matrix: (Units=GPa)
#
#
# Indices 1 2 3 4 5 6 
#
# 1 157.7409 58.2910 59.3805 0.0000 0.0000 0.0000
# 2 58.2910 170.7900 35.7881 0.0000 0.0000 0.0000
# 3 59.3805 35.7881 120.1521 0.0000 0.0000 0.0000
# 4 0.0000 0.0000 0.0000 24.9091 0.0000 0.0000
# 5 0.0000 0.0000 0.0000 0.0000 11.5237 0.0000
# 6 0.0000 0.0000 0.0000 0.0000 0.0000 27.5839
#
#
#
# Elastic Compliance Matrix: (Units=1/GPa)
#
#
# Indices 1 2 3 4 5 6 
#
# 1 0.008468 -0.002147 -0.003545 0.000000 0.000000 0.000000
# 2 -0.002147 0.006789 -0.000961 0.000000 0.000000 0.000000
# 3 -0.003545 -0.000961 0.010361 0.000000 0.000000 0.000000
# 4 0.000000 0.000000 0.000000 0.040146 0.000000 0.000000
# 5 0.000000 0.000000 0.000000 0.000000 0.086778 0.000000
# 6 0.000000 0.000000 0.000000 0.000000 0.000000 0.036253
#
#
# Mechanical properties :
#
#
# Convention : Reuss Voigt Hill
#
# Bulk Modulus (GPa) = 81.22736 83.95581 82.59158
# Shear Modulus (GPa) = 24.24766 32.48489 28.36627
#
# Velocity S-wave (km/s) = 3.40908 3.94587 3.68725
# Velocity P-wave (km/s) = 7.37751 7.81022 7.59694
#
# Compressibility (1/GPa) = 0.01231112
#
# Stress axis : x y z
#
# Youngs Moduli (GPa) = 118.09842 147.28946 96.51442
#
# Poissons Ratio (x) = 0.31625 0.34216
# Poissons Ratio (y) = 0.25357 0.09276
# Poissons Ratio (z) = 0.41868 0.14156
#
# Static dielectric constant tensor:
#      x y z
#    x 1.831810 0.000000 0.000000 
#    y 0.000000 1.755230 0.000000 
#    z 0.000000 0.000000 1.779700 
# 
# From -- ./inp_files/28356.got.cif
#   From: 2010.05.17/outbox.cif.g08.bks.cpg/sg21_15_cif.got.tgz:28356.got - 2010.06.03 23:14:55.
