data_PCOD9324372
_publ_section_title
;
Structure prediction by ZEFSAII (Michael W. Deem and Ramdas Pophale) SiO2 
 PCOD9324372
Probable space group: C 2 2 2
;
_chemical_formula_sum "Si O2"
_cell_formula_units_Z 38
_cell_length_a 28.149338
_cell_length_b 7.767435
_cell_length_c 9.493633
_cell_angle_alpha 90.000000
_cell_angle_beta 90.000000
_cell_angle_gamma 90.000000
_cell_volume 2075.765323
_symmetry_space_group_name_H-M "C 2 2 2"
_symmetry_group_IT_number 21
_symmetry_cell_setting 'orthorhombic'
loop_
_space_group_symop_operation_xyz
x,y,z
-x,-y,z
x,-y,-z
-x,y,-z
1/2+x,1/2+y,z
1/2-x,1/2-y,z
1/2+x,1/2-y,-z
1/2-x,1/2+y,-z
loop_
_atom_site_type_symbol
_atom_site_label
_atom_site_fract_x
_atom_site_fract_y
_atom_site_fract_z
Si Si1 0.631748 0.000000 0.000000
Si Si2 0.151276 0.151133 0.612529
Si Si3 0.907760 0.145121 0.109222
Si Si4 0.750000 0.250000 0.242161
Si Si5 0.500000 0.500000 0.000000
Si Si6 0.830833 0.500000 0.500000
Si Si7 0.213115 0.404381 0.201574
O O1 0.664391 0.098536 0.884549
O O2 0.603433 0.842455 0.930459
O O3 0.117016 0.110952 0.742145
O O4 0.204955 0.185310 0.668227
O O5 0.138699 0.336346 0.547118
O O6 0.151273 0.000000 0.500000
O O7 0.887866 0.000000 0.000000
O O8 0.964109 0.110914 0.095902
O O9 0.764775 0.414001 0.152918
O O10 0.799372 0.565308 0.367269
O O11 0.250000 0.250000 0.186387
#
# Coordination Sequence:
#
# PCOD9324372 Si02
#       7
#     4   8   8   4   2   4   8
#     4  12  24  41  63  92 130 171 216 281 320 394
#     4  11  23  38  63  92 135 179 218 267 308 386
#     4  10  24  46  66  99 120 167 219 276 350 398
#     4  10  22  38  52  90 130 184 222 244 308 374
#     4   8  24  46  80  92 122 158 222 286 364 414
#     4  10  22  38  52  90 121 182 218 259 310 372
#     4  11  25  35  55  85 130 178 220 259 303 367
#
# _framework density 18.306501999999998
#
# number of rings (size 3 to 8) (size 9 to 14) (size 15 to 20)
#    0.632    0.842    4.211    1.263   19.158    0.421 
#    0.000    0.526    0.000    0.000    0.000    0.000 
#    0.000    0.000    0.000    0.000    0.000    0.000 
#
# Total GULP energy -105909.241301 kJ/mol
# GULP energy per Si atom -5574.170595 kJ/mol
# Density = 1.826484 g / cm^3
# Si number density = 18.306502 Si / 1000 Ang^3
#
#
#
# Elastic Constant Matrix: (Units=GPa)
#
#
# Indices 1 2 3 4 5 6 
#
# 1 115.7323 54.3071 65.9341 0.0000 0.0000 0.0000
# 2 54.3071 142.2505 53.5275 0.0000 0.0000 0.0000
# 3 65.9341 53.5275 89.4967 0.0000 0.0000 0.0000
# 4 0.0000 0.0000 0.0000 24.3824 0.0000 0.0000
# 5 0.0000 0.0000 0.0000 0.0000 -0.1558 0.0000
# 6 0.0000 0.0000 0.0000 0.0000 0.0000 1.7002
#
#
#
# Elastic Compliance Matrix: (Units=1/GPa)
#
#
# Indices 1 2 3 4 5 6 
#
# 1 0.015349 -0.002071 -0.010069 0.000000 0.000000 0.000000
# 2 -0.002071 0.009351 -0.004067 0.000000 0.000000 0.000000
# 3 -0.010069 -0.004067 0.021024 0.000000 0.000000 0.000000
# 4 0.000000 0.000000 0.000000 0.041013 0.000000 0.000000
# 5 0.000000 0.000000 0.000000 0.000000 -6.416705 0.000000
# 6 0.000000 0.000000 0.000000 0.000000 0.000000 0.588173
#
#
# Mechanical properties :
#
#
# Convention : Reuss Voigt Hill
#
# Bulk Modulus (GPa) = 75.13312 77.22411 76.17861
# Shear Modulus (GPa) = -0.87643 16.76608 7.94482
#
# Velocity S-wave (km/s) = -0.69267 3.02959 2.08550
# Velocity P-wave (km/s) = 6.36326 7.38332 6.89219
#
# Compressibility (1/GPa) = 0.01330971
#
# Stress axis : x y z
#
# Youngs Moduli (GPa) = 65.15086 106.94248 47.56370
#
# Poissons Ratio (x) = 0.22145 0.47894
# Poissons Ratio (y) = 0.13491 0.19345
# Poissons Ratio (z) = 0.65603 0.43495
#
# Static dielectric constant tensor:
#      x y z
#    x 1.642480 0.000000 0.000000 
#    y 0.000000 1.638180 0.000000 
#    z 0.000000 0.000000 1.684190 
# 
# From -- ./inp_files/19541.got.cif
#   From: 2010.05.17/outbox.cif.g08.bks.cpg/sg21_10_cif.got.tgz:19541.got - 2010.06.03 23:14:55.
