data_PCOD9324548
_publ_section_title
;
Structure prediction by ZEFSAII (Michael W. Deem and Ramdas Pophale) SiO2 
 PCOD9324548
Probable space group: C 2 2 2
;
_chemical_formula_sum "Si O2"
_cell_formula_units_Z 32
_cell_length_a 14.409961
_cell_length_b 5.500972
_cell_length_c 18.547227
_cell_angle_alpha 90.000000
_cell_angle_beta 90.000000
_cell_angle_gamma 90.000000
_cell_volume 1470.216279
_symmetry_space_group_name_H-M "C 2 2 2"
_symmetry_group_IT_number 21
_symmetry_cell_setting 'orthorhombic'
loop_
_space_group_symop_operation_xyz
x,y,z
-x,-y,z
x,-y,-z
-x,y,-z
1/2+x,1/2+y,z
1/2-x,1/2-y,z
1/2+x,1/2-y,-z
1/2-x,1/2+y,-z
loop_
_atom_site_type_symbol
_atom_site_label
_atom_site_fract_x
_atom_site_fract_y
_atom_site_fract_z
Si Si1 0.750000 0.750000 0.455655
Si Si2 0.750000 0.750000 0.694993
Si Si3 0.602595 0.084999 0.771574
Si Si4 0.809959 0.502089 0.082481
Si Si5 0.397440 0.422679 0.354773
O O1 0.743299 0.500000 0.500000
O O2 0.657395 0.765548 0.405084
O O3 0.807160 0.559052 0.742896
O O4 0.670458 0.647979 0.644517
O O5 0.612662 0.044462 0.856690
O O6 0.606603 0.340174 0.729444
O O7 0.500000 0.000000 0.748483
O O8 0.750000 0.750000 0.089396
O O9 0.750000 0.250000 0.092999
O O10 0.844738 0.500000 0.000000
O O11 0.500000 0.500000 0.375848
#
# Coordination Sequence:
#
# PCOD9324548 Si02
#       5
#     4   4   8   8   8
#     4  12  29  52  78 105 150 196 230 296 375 438
#     4  12  21  44  68 103 146 178 232 306 351 412
#     4  12  24  39  72 105 142 188 245 300 363 419
#     4  10  22  41  65  97 145 196 239 295 365 424
#     4  12  26  46  75 109 141 188 243 298 355 434
#
# _framework density 21.765506999999999
#
# number of rings (size 3 to 8) (size 9 to 14) (size 15 to 20)
#    0.000    0.500    6.250    2.250    0.000    1.000 
#    0.000    3.750    0.000    4.500    0.000    0.000 
#    0.000    0.000    0.000    0.000    0.000    0.000 
#
# Total GULP energy -89178.716143 kJ/mol
# GULP energy per Si atom -5573.669759 kJ/mol
# Density = 2.171597 g / cm^3
# Si number density = 21.765507 Si / 1000 Ang^3
#
#
#
# Elastic Constant Matrix: (Units=GPa)
#
#
# Indices 1 2 3 4 5 6 
#
# 1 178.4245 34.9221 34.0893 0.0000 0.0000 0.0000
# 2 34.9221 95.8425 31.0926 0.0000 0.0000 0.0000
# 3 34.0893 31.0926 97.5462 0.0000 0.0000 0.0000
# 4 0.0000 0.0000 0.0000 20.3863 0.0000 0.0000
# 5 0.0000 0.0000 0.0000 0.0000 22.5536 0.0000
# 6 0.0000 0.0000 0.0000 0.0000 0.0000 34.7698
#
#
#
# Elastic Compliance Matrix: (Units=1/GPa)
#
#
# Indices 1 2 3 4 5 6 
#
# 1 0.006259 -0.001752 -0.001629 0.000000 0.000000 0.000000
# 2 -0.001752 0.012128 -0.003253 0.000000 0.000000 0.000000
# 3 -0.001629 -0.003253 0.011858 0.000000 0.000000 0.000000
# 4 0.000000 0.000000 0.000000 0.049052 0.000000 0.000000
# 5 0.000000 0.000000 0.000000 0.000000 0.044339 0.000000
# 6 0.000000 0.000000 0.000000 0.000000 0.000000 0.028761
#
#
# Mechanical properties :
#
#
# Convention : Reuss Voigt Hill
#
# Bulk Modulus (GPa) = 58.90773 63.55792 61.23282
# Shear Modulus (GPa) = 29.18465 33.65589 31.42027
#
# Velocity S-wave (km/s) = 3.66576 3.93656 3.80357
# Velocity P-wave (km/s) = 6.71122 7.06588 6.89083
#
# Compressibility (1/GPa) = 0.01697570
#
# Stress axis : x y z
#
# Youngs Moduli (GPa) = 159.77691 82.45638 84.33308
#
# Poissons Ratio (x) = 0.14447 0.13736
# Poissons Ratio (y) = 0.27995 0.27436
# Poissons Ratio (z) = 0.26024 0.26826
#
# Static dielectric constant tensor:
#      x y z
#    x 1.835440 0.000000 0.000000 
#    y 0.000000 1.505870 0.000000 
#    z 0.000000 0.000000 1.913890 
# 
# From -- ./inp_files/34355.got.cif
#   From: 2010.05.17/outbox.cif.g08.bks.cpg/sg21_18_cif.got.tgz:34355.got - 2010.06.03 23:14:55.
