data_PCOD9324530
_publ_section_title
;
Structure prediction by ZEFSAII (Michael W. Deem and Ramdas Pophale) SiO2 
 PCOD9324530
Probable space group: C 2 2 2
;
_chemical_formula_sum "Si O2"
_cell_formula_units_Z 64
_cell_length_a 8.600532
_cell_length_b 15.428597
_cell_length_c 22.556526
_cell_angle_alpha 90.000000
_cell_angle_beta 90.000000
_cell_angle_gamma 90.000000
_cell_volume 2993.118869
_symmetry_space_group_name_H-M "C 2 2 2"
_symmetry_group_IT_number 21
_symmetry_cell_setting 'orthorhombic'
loop_
_space_group_symop_operation_xyz
x,y,z
-x,-y,z
x,-y,-z
-x,y,-z
1/2+x,1/2+y,z
1/2-x,1/2-y,z
1/2+x,1/2-y,-z
1/2-x,1/2+y,-z
loop_
_atom_site_type_symbol
_atom_site_label
_atom_site_fract_x
_atom_site_fract_y
_atom_site_fract_z
Si Si1 0.439115 0.403099 0.933724
Si Si2 0.625571 0.427744 0.678183
Si Si3 0.684291 0.013761 0.428808
Si Si4 0.357718 0.680865 0.464545
Si Si5 0.930994 0.412950 0.065496
Si Si6 0.935355 0.256381 0.862754
Si Si7 0.070315 0.753464 0.345825
Si Si8 0.632112 0.829906 0.261523
O O1 0.500000 0.500000 0.922308
O O2 0.253853 0.410604 0.935918
O O3 0.493581 0.335665 0.883011
O O4 0.500000 0.376626 0.000000
O O5 0.500000 0.500000 0.693390
O O6 0.714374 0.455030 0.616816
O O7 0.522441 0.340761 0.671439
O O8 0.755847 0.412026 0.729239
O O9 0.500000 0.000000 0.416266
O O10 0.701367 0.000000 0.500000
O O11 0.761355 0.109799 0.427232
O O12 0.500000 0.639643 0.500000
O O13 0.250000 0.750000 0.499681
O O14 0.435990 0.743792 0.416333
O O15 0.000000 0.500000 0.095411
O O16 0.991861 0.326446 0.094537
O O17 0.000000 0.413099 0.000000
O O18 0.750000 0.250000 0.870380
O O19 0.955987 0.300249 0.797866
O O20 0.250000 0.750000 0.327233
O O21 0.985589 0.673161 0.315873
O O22 0.750000 0.750000 0.269486
#
# Coordination Sequence:
#
# PCOD9324530 Si02
#       8
#     8   8   8   8   8   8   8   8
#     4  11  22  39  67 103 139 182 227 282 351 410
#     4  11  22  42  69  95 124 171 216 277 342 402
#     4  11  26  42  68 102 136 166 214 276 341 410
#     4  11  25  41  65 100 133 171 213 263 337 414
#     4  11  22  39  64  98 139 179 225 280 345 412
#     4  11  22  42  64  94 134 178 231 283 335 401
#     4  10  22  41  63  90 126 165 215 262 326 403
#     4   9  23  43  66  91 128 176 224 277 334 393
#
# _framework density 21.382377000000002
#
# number of rings (size 3 to 8) (size 9 to 14) (size 15 to 20)
#    0.000    1.375    1.250    4.500    5.250    2.500 
#    0.000   11.250    0.000    0.000    0.000    0.000 
#    0.000    0.000    0.000    0.000    0.000    0.000 
#
# Total GULP energy -178348.481963 kJ/mol
# GULP energy per Si atom -5573.390061 kJ/mol
# Density = 2.133371 g / cm^3
# Si number density = 21.382377 Si / 1000 Ang^3
#
#
#
# Elastic Constant Matrix: (Units=GPa)
#
#
# Indices 1 2 3 4 5 6 
#
# 1 113.6614 48.6948 43.0407 0.0000 0.0000 0.0000
# 2 48.6948 96.4696 41.4549 0.0000 0.0000 0.0000
# 3 43.0407 41.4549 81.3209 0.0000 0.0000 0.0000
# 4 0.0000 0.0000 0.0000 73.5755 0.0000 0.0000
# 5 0.0000 0.0000 0.0000 0.0000 21.5885 0.0000
# 6 0.0000 0.0000 0.0000 0.0000 0.0000 47.8927
#
#
#
# Elastic Compliance Matrix: (Units=1/GPa)
#
#
# Indices 1 2 3 4 5 6 
#
# 1 0.012288 -0.004364 -0.004279 0.000000 0.000000 0.000000
# 2 -0.004364 0.014823 -0.005247 0.000000 0.000000 0.000000
# 3 -0.004279 -0.005247 0.017236 0.000000 0.000000 0.000000
# 4 0.000000 0.000000 0.000000 0.013591 0.000000 0.000000
# 5 0.000000 0.000000 0.000000 0.000000 0.046321 0.000000
# 6 0.000000 0.000000 0.000000 0.000000 0.000000 0.020880
#
#
# Mechanical properties :
#
#
# Convention : Reuss Voigt Hill
#
# Bulk Modulus (GPa) = 60.35642 61.98139 61.16891
# Shear Modulus (GPa) = 31.55720 39.16213 35.35967
#
# Velocity S-wave (km/s) = 3.84585 4.28426 4.07096
# Velocity P-wave (km/s) = 6.92887 7.31596 7.12504
#
# Compressibility (1/GPa) = 0.01656824
#
# Stress axis : x y z
#
# Youngs Moduli (GPa) = 81.38035 67.46120 58.01645
#
# Poissons Ratio (x) = 0.29438 0.24826
# Poissons Ratio (y) = 0.35512 0.30441
# Poissons Ratio (z) = 0.34824 0.35396
#
# Static dielectric constant tensor:
#      x y z
#    x 1.959100 0.000000 0.000000 
#    y 0.000000 1.836900 0.000000 
#    z 0.000000 0.000000 1.762830 
# 
# From -- ./inp_files/38540.got.cif
#   From: 2010.05.17/outbox.cif.g08.bks.cpg/sg21_20_cif.got.tgz:38540.got - 2010.06.03 23:14:55.
