data_PCOD9324100
_publ_section_title
;
Structure prediction by ZEFSAII (Michael W. Deem and Ramdas Pophale) SiO2 
 PCOD9324100
Probable space group: C 2 2 2
;
_chemical_formula_sum "Si O2"
_cell_formula_units_Z 24
_cell_length_a 16.843320
_cell_length_b 11.430437
_cell_length_c 5.283419
_cell_angle_alpha 90.000000
_cell_angle_beta 90.000000
_cell_angle_gamma 90.000000
_cell_volume 1017.198211
_symmetry_space_group_name_H-M "C 2 2 2"
_symmetry_group_IT_number 21
_symmetry_cell_setting 'orthorhombic'
loop_
_space_group_symop_operation_xyz
x,y,z
-x,-y,z
x,-y,-z
-x,y,-z
1/2+x,1/2+y,z
1/2-x,1/2-y,z
1/2+x,1/2-y,-z
1/2-x,1/2+y,-z
loop_
_atom_site_type_symbol
_atom_site_label
_atom_site_fract_x
_atom_site_fract_y
_atom_site_fract_z
Si Si1 0.452863 0.831481 0.250500
Si Si2 0.103661 0.925701 0.239698
Si Si3 0.227505 0.624443 0.359483
O O1 0.500000 0.870560 0.500000
O O2 0.447318 0.690726 0.262761
O O3 0.360765 0.868785 0.248696
O O4 0.500000 0.865718 0.000000
O O5 0.195012 0.885906 0.184354
O O6 0.100515 0.000000 0.500000
O O7 0.080653 0.000000 0.000000
O O8 0.228054 0.500000 0.500000
O O9 0.250000 0.750000 0.497637
#
# Coordination Sequence:
#
# PCOD9324100 Si02
#       3
#     8   8   8
#     4  11  24  40  62  96 135 172 212 266 331 392
#     4  10  21  39  65  93 126 173 224 271 317 377
#     4   9  21  43  69  96 129 172 222 269 319 384
#
# _framework density 23.594218999999999
#
# number of rings (size 3 to 8) (size 9 to 14) (size 15 to 20)
#    0.000    2.000    0.000    2.000    0.000   10.000 
#    0.000   20.000    0.000    0.000    0.000    0.000 
#    0.000    0.000    0.000    0.000    0.000    0.000 
#
# Total GULP energy -66996.377091 kJ/mol
# GULP energy per Si atom -5583.031424 kJ/mol
# Density = 2.354052 g / cm^3
# Si number density = 23.594219 Si / 1000 Ang^3
#
#
#
# Elastic Constant Matrix: (Units=GPa)
#
#
# Indices 1 2 3 4 5 6 
#
# 1 204.4780 48.6846 76.5082 0.0000 0.0000 0.0000
# 2 48.6846 172.6655 45.5802 0.0000 0.0000 0.0000
# 3 76.5082 45.5802 149.4753 0.0000 0.0000 0.0000
# 4 0.0000 0.0000 0.0000 -121.4015 0.0000 0.0000
# 5 0.0000 0.0000 0.0000 0.0000 18.8771 0.0000
# 6 0.0000 0.0000 0.0000 0.0000 0.0000 124.0854
#
#
#
# Elastic Compliance Matrix: (Units=1/GPa)
#
#
# Indices 1 2 3 4 5 6 
#
# 1 0.006201 -0.000990 -0.002872 0.000000 0.000000 0.000000
# 2 -0.000990 0.006457 -0.001462 0.000000 0.000000 0.000000
# 3 -0.002872 -0.001462 0.008606 0.000000 0.000000 0.000000
# 4 0.000000 0.000000 0.000000 -0.008237 0.000000 0.000000
# 5 0.000000 0.000000 0.000000 0.000000 0.052974 0.000000
# 6 0.000000 0.000000 0.000000 0.000000 0.000000 0.008059
#
#
# Mechanical properties :
#
#
# Convention : Reuss Voigt Hill
#
# Bulk Modulus (GPa) = 94.20592 96.46275 95.33434
# Shear Modulus (GPa) = 56.65962 28.03525 42.34744
#
# Velocity S-wave (km/s) = 4.90574 3.45080 4.24113
# Velocity P-wave (km/s) = 8.49133 7.53991 8.02972
#
# Compressibility (1/GPa) = 0.01061504
#
# Stress axis : x y z
#
# Youngs Moduli (GPa) = 161.26862 154.87785 116.19997
#
# Poissons Ratio (x) = 0.15337 0.33371
# Poissons Ratio (y) = 0.15970 0.16989
# Poissons Ratio (z) = 0.46315 0.22643
#
# Static dielectric constant tensor:
#      x y z
#    x 1.921540 0.000000 0.000000 
#    y 0.000000 1.968100 0.000000 
#    z 0.000000 0.000000 1.775670 
# 
# From -- ./inp_files/2050.got.cif
#   From: 2010.05.17/outbox.cif.g08.bks.cpg/sg21_2_cif.got.tgz:2050.got - 2010.06.03 23:14:55.
