data_PCOD9324436
_publ_section_title
;
Structure prediction by ZEFSAII (Michael W. Deem and Ramdas Pophale) SiO2 
 PCOD9324436
Probable space group: C 2 2 2
;
_chemical_formula_sum "Si O2"
_cell_formula_units_Z 48
_cell_length_a 8.121591
_cell_length_b 17.220155
_cell_length_c 14.357128
_cell_angle_alpha 90.000000
_cell_angle_beta 90.000000
_cell_angle_gamma 90.000000
_cell_volume 2007.916939
_symmetry_space_group_name_H-M "C 2 2 2"
_symmetry_group_IT_number 21
_symmetry_cell_setting 'orthorhombic'
loop_
_space_group_symop_operation_xyz
x,y,z
-x,-y,z
x,-y,-z
-x,y,-z
1/2+x,1/2+y,z
1/2-x,1/2-y,z
1/2+x,1/2-y,-z
1/2-x,1/2+y,-z
loop_
_atom_site_type_symbol
_atom_site_label
_atom_site_fract_x
_atom_site_fract_y
_atom_site_fract_z
Si Si1 0.500446 0.088520 0.227766
Si Si2 0.191969 0.837716 0.875375
Si Si3 0.809758 0.339271 0.374802
Si Si4 0.327797 0.331775 0.439887
Si Si5 0.175986 0.411803 0.961467
Si Si6 0.995569 0.910085 0.726579
O O1 0.331736 0.109258 0.175071
O O2 0.529967 0.146222 0.313490
O O3 0.644460 0.092101 0.148340
O O4 0.500000 0.000000 0.261146
O O5 0.250000 0.750000 0.866103
O O6 0.030982 0.857347 0.816330
O O7 0.190933 0.861844 0.983494
O O8 0.750000 0.250000 0.370007
O O9 0.799702 0.362470 0.482602
O O10 0.675281 0.390550 0.321994
O O11 0.500000 0.319508 0.500000
O O12 0.250000 0.250000 0.408560
O O13 0.373176 0.386473 0.354162
O O14 0.193965 0.500000 0.000000
O O15 0.000000 0.382035 0.000000
O O16 0.000000 0.000000 0.752188
#
# Coordination Sequence:
#
# PCOD9324436 Si02
#       6
#     8   8   8   8   8   8
#     4  11  20  39  67  87 114 162 203 245 297 361
#     4  11  22  37  63  95 120 154 207 253 296 358
#     4  10  22  39  60  88 123 158 198 246 304 357
#     4   9  20  39  62  86 119 164 202 246 300 360
#     4   9  17  36  62  83 112 159 198 235 296 358
#     4  11  23  39  61  89 127 162 195 247 311 365
#
# _framework density 23.905370999999999
#
# number of rings (size 3 to 8) (size 9 to 14) (size 15 to 20)
#    0.000    1.833    3.333    2.500    0.000    6.333 
#    0.000    2.500    0.000    1.000    0.000    0.000 
#    0.000    0.000    0.000    0.000    0.000    0.000 
#
# Total GULP energy -134156.793126 kJ/mol
# GULP energy per Si atom -5589.866380 kJ/mol
# Density = 2.385096 g / cm^3
# Si number density = 23.905371 Si / 1000 Ang^3
#
#
#
# Elastic Constant Matrix: (Units=GPa)
#
#
# Indices 1 2 3 4 5 6 
#
# 1 52.8404 0.3799 14.7174 0.0000 0.0000 0.0000
# 2 0.3799 72.7139 12.9161 0.0000 0.0000 0.0000
# 3 14.7174 12.9161 135.6687 0.0000 0.0000 0.0000
# 4 0.0000 0.0000 0.0000 -0.3919 0.0000 0.0000
# 5 0.0000 0.0000 0.0000 0.0000 -1.6666 0.0000
# 6 0.0000 0.0000 0.0000 0.0000 0.0000 22.1035
#
#
#
# Elastic Compliance Matrix: (Units=1/GPa)
#
#
# Indices 1 2 3 4 5 6 
#
# 1 0.019520 0.000279 -0.002144 0.000000 0.000000 0.000000
# 2 0.000279 0.013993 -0.001362 0.000000 0.000000 0.000000
# 3 -0.002144 -0.001362 0.007733 0.000000 0.000000 0.000000
# 4 0.000000 0.000000 0.000000 -2.551422 0.000000 0.000000
# 5 0.000000 0.000000 0.000000 0.000000 -0.600033 0.000000
# 6 0.000000 0.000000 0.000000 0.000000 0.000000 0.045242
#
#
# Mechanical properties :
#
#
# Convention : Reuss Voigt Hill
#
# Bulk Modulus (GPa) = 28.74302 35.24999 31.99651
# Shear Modulus (GPa) = -1.64100 19.55631 8.95765
#
# Velocity S-wave (km/s) = -0.82943 2.86330 1.93785
# Velocity P-wave (km/s) = 3.33654 5.07040 4.29194
#
# Compressibility (1/GPa) = 0.03479105
#
# Stress axis : x y z
#
# Youngs Moduli (GPa) = 51.22923 71.46390 129.31261
#
# Poissons Ratio (x) = -0.01993 0.27726
# Poissons Ratio (y) = -0.01429 0.17618
# Poissons Ratio (z) = 0.10984 0.09737
#
# Static dielectric constant tensor:
#      x y z
#    x 2.017520 0.000000 0.000000 
#    y 0.000000 1.870970 0.000000 
#    z 0.000000 0.000000 1.950230 
# 
# From -- ./inp_files/30462.got.cif
#   From: 2010.05.17/outbox.cif.g08.bks.cpg/sg21_16_cif.got.tgz:30462.got - 2010.06.03 23:14:55.
