data_PCOD9324007
_publ_section_title
;
Structure prediction by ZEFSAII (Michael W. Deem and Ramdas Pophale) SiO2 
 PCOD9324007
Probable space group: C 2 2 2
;
_chemical_formula_sum "Si O2"
_cell_formula_units_Z 60
_cell_length_a 20.189132
_cell_length_b 12.103331
_cell_length_c 11.777499
_cell_angle_alpha 90.000000
_cell_angle_beta 90.000000
_cell_angle_gamma 90.000000
_cell_volume 2877.899568
_symmetry_space_group_name_H-M "C 2 2 2"
_symmetry_group_IT_number 21
_symmetry_cell_setting 'orthorhombic'
loop_
_space_group_symop_operation_xyz
x,y,z
-x,-y,z
x,-y,-z
-x,y,-z
1/2+x,1/2+y,z
1/2-x,1/2-y,z
1/2+x,1/2-y,-z
1/2-x,1/2+y,-z
loop_
_atom_site_type_symbol
_atom_site_label
_atom_site_fract_x
_atom_site_fract_y
_atom_site_fract_z
Si Si1 0.068468 0.383243 0.063044
Si Si2 0.127926 0.263593 0.378254
Si Si3 0.999044 0.875496 0.637562
Si Si4 0.885434 0.514853 0.282369
Si Si5 0.179323 0.792050 0.860673
Si Si6 0.752777 0.489807 0.127612
Si Si7 0.750000 0.750000 0.792562
Si Si8 0.877430 0.272996 0.361110
O O1 0.064687 0.429717 0.191571
O O2 0.121498 0.280461 0.075496
O O3 0.086018 0.500000 0.000000
O O4 0.000000 0.348021 0.000000
O O5 0.063241 0.196775 0.337823
O O6 0.119068 0.394708 0.379717
O O7 0.175718 0.237610 0.273497
O O8 0.141388 0.238683 0.509706
O O9 0.000000 0.880600 0.500000
O O10 0.934084 0.811566 0.675668
O O11 0.000000 0.000000 0.681687
O O12 0.813815 0.511893 0.215320
O O13 0.902850 0.397088 0.335249
O O14 0.250000 0.750000 0.904901
O O15 0.190886 0.924926 0.862771
O O16 0.734748 0.362345 0.142249
O O17 0.777638 0.500000 0.000000
O O18 0.812941 0.732902 0.713929
#
# Coordination Sequence:
#
# PCOD9324007 Si02
#       8
#     8   8   8   8   8   8   4   8
#     4  10  22  40  66 101 141 181 234 292 350 410
#     4  10  21  38  64  94 135 181 218 276 349 413
#     4   9  20  38  58  83 123 178 219 252 323 403
#     4  10  21  38  62  98 129 173 229 278 347 416
#     4  11  23  40  69 102 133 181 235 278 358 436
#     4  11  24  43  64  92 132 176 222 285 353 415
#     4  10  26  40  66 102 126 170 232 282 350 416
#     4  10  22  40  63  96 140 173 223 288 336 415
#
# _framework density 20.848538999999999
#
# number of rings (size 3 to 8) (size 9 to 14) (size 15 to 20)
#    0.000    1.867    2.667    0.800    3.733    5.867 
#    0.000    2.000    0.000    0.000    0.000    0.933 
#    0.000    0.000    0.000    0.000    0.000    0.000 
#
# Total GULP energy -167027.670402 kJ/mol
# GULP energy per Si atom -5567.589013 kJ/mol
# Density = 2.080109 g / cm^3
# Si number density = 20.848539 Si / 1000 Ang^3
#
#
#
# Elastic Constant Matrix: (Units=GPa)
#
#
# Indices 1 2 3 4 5 6 
#
# 1 112.1075 68.1388 25.9204 0.0000 0.0000 0.0000
# 2 68.1388 187.5108 28.4321 0.0000 0.0000 0.0000
# 3 25.9204 28.4321 61.1632 0.0000 0.0000 0.0000
# 4 0.0000 0.0000 0.0000 23.9087 0.0000 0.0000
# 5 0.0000 0.0000 0.0000 0.0000 20.6128 0.0000
# 6 0.0000 0.0000 0.0000 0.0000 0.0000 34.8372
#
#
#
# Elastic Compliance Matrix: (Units=1/GPa)
#
#
# Indices 1 2 3 4 5 6 
#
# 1 0.012038 -0.003874 -0.003301 0.000000 0.000000 0.000000
# 2 -0.003874 0.006984 -0.001605 0.000000 0.000000 0.000000
# 3 -0.003301 -0.001605 0.018495 0.000000 0.000000 0.000000
# 4 0.000000 0.000000 0.000000 0.041826 0.000000 0.000000
# 5 0.000000 0.000000 0.000000 0.000000 0.048514 0.000000
# 6 0.000000 0.000000 0.000000 0.000000 0.000000 0.028705
#
#
# Mechanical properties :
#
#
# Convention : Reuss Voigt Hill
#
# Bulk Modulus (GPa) = 50.10655 67.30712 58.70683
# Shear Modulus (GPa) = 27.65917 31.75775 29.70846
#
# Velocity S-wave (km/s) = 3.64630 3.90713 3.77897
# Velocity P-wave (km/s) = 6.46631 7.26004 6.87464
#
# Compressibility (1/GPa) = 0.01995747
#
# Stress axis : x y z
#
# Youngs Moduli (GPa) = 83.07240 143.18283 54.07000
#
# Poissons Ratio (x) = 0.55467 0.17847
# Poissons Ratio (y) = 0.32181 0.08678
# Poissons Ratio (z) = 0.27420 0.22979
#
# Static dielectric constant tensor:
#      x y z
#    x 1.805520 0.000000 0.000000 
#    y 0.000000 1.825850 0.000000 
#    z 0.000000 0.000000 1.773130 
# 
# From -- ./inp_files/26894.got.cif
#   From: 2010.05.17/outbox.cif.g08.bks.cpg/sg21_14_cif.got.tgz:26894.got - 2010.06.03 23:14:55.
