data_PCOD9324346
_publ_section_title
;
Structure prediction by ZEFSAII (Michael W. Deem and Ramdas Pophale) SiO2 
 PCOD9324346
Probable space group: C 2 2 2
;
_chemical_formula_sum "Si O2"
_cell_formula_units_Z 32
_cell_length_a 29.906353
_cell_length_b 8.882821
_cell_length_c 5.985178
_cell_angle_alpha 90.000000
_cell_angle_beta 90.000000
_cell_angle_gamma 90.000000
_cell_volume 1589.979177
_symmetry_space_group_name_H-M "C 2 2 2"
_symmetry_group_IT_number 21
_symmetry_cell_setting 'orthorhombic'
loop_
_space_group_symop_operation_xyz
x,y,z
-x,-y,z
x,-y,-z
-x,y,-z
1/2+x,1/2+y,z
1/2-x,1/2-y,z
1/2+x,1/2-y,-z
1/2-x,1/2+y,-z
loop_
_atom_site_type_symbol
_atom_site_label
_atom_site_fract_x
_atom_site_fract_y
_atom_site_fract_z
Si Si1 0.961295 0.246857 0.684197
Si Si2 0.878783 0.668759 0.599596
Si Si3 0.353585 0.000000 0.000000
Si Si4 0.500000 0.500000 0.000000
Si Si5 0.292048 0.149568 0.372552
Si Si6 0.500000 0.000000 0.000000
O O1 0.916326 0.243905 0.537071
O O2 0.970025 0.393806 0.839171
O O3 0.000000 0.249127 0.500000
O O4 0.969394 0.105266 0.844505
O O5 0.882349 0.500000 0.500000
O O6 0.881007 0.626955 0.861419
O O7 0.829134 0.724881 0.536414
O O8 0.321077 0.907823 0.835934
O O9 0.250000 0.250000 0.314746
O O10 0.275865 0.000000 0.500000
#
# Coordination Sequence:
#
# PCOD9324346 Si02
#       6
#     8   8   4   2   8   2
#     4  11  22  39  60  86 118 154 195 241 293 351
#     4   9  19  35  59  88 115 147 194 246 290 342
#     4   8  18  33  57  89 118 144 189 249 300 337
#     4  10  26  42  54  80 126 166 188 230 296 352
#     4   9  19  36  57  84 116 151 190 237 290 348
#     4  10  22  36  64  92 110 142 198 254 300 342
#
# _framework density 20.126048999999998
#
# number of rings (size 3 to 8) (size 9 to 14) (size 15 to 20)
#    0.000    3.000    0.000    2.250    0.000   17.000 
#    0.000    3.750    0.000    0.000    0.000    0.000 
#    0.000    0.000    0.000    0.000    0.000    0.000 
#
# Total GULP energy -89162.831726 kJ/mol
# GULP energy per Si atom -5572.676983 kJ/mol
# Density = 2.008024 g / cm^3
# Si number density = 20.126049 Si / 1000 Ang^3
#
#
#
# Elastic Constant Matrix: (Units=GPa)
#
#
# Indices 1 2 3 4 5 6 
#
# 1 116.3564 45.7980 50.9928 0.0000 0.0000 0.0000
# 2 45.7980 76.5196 51.7494 0.0000 0.0000 0.0000
# 3 50.9928 51.7494 137.9661 0.0000 0.0000 0.0000
# 4 0.0000 0.0000 0.0000 22.0738 0.0000 0.0000
# 5 0.0000 0.0000 0.0000 0.0000 21.3774 0.0000
# 6 0.0000 0.0000 0.0000 0.0000 0.0000 17.1873
#
#
#
# Elastic Compliance Matrix: (Units=1/GPa)
#
#
# Indices 1 2 3 4 5 6 
#
# 1 0.011757 -0.005491 -0.002286 0.000000 0.000000 0.000000
# 2 -0.005491 0.020075 -0.005500 0.000000 0.000000 0.000000
# 3 -0.002286 -0.005500 0.010156 0.000000 0.000000 0.000000
# 4 0.000000 0.000000 0.000000 0.045303 0.000000 0.000000
# 5 0.000000 0.000000 0.000000 0.000000 0.046778 0.000000
# 6 0.000000 0.000000 0.000000 0.000000 0.000000 0.058183
#
#
# Mechanical properties :
#
#
# Convention : Reuss Voigt Hill
#
# Bulk Modulus (GPa) = 64.79290 69.76916 67.28103
# Shear Modulus (GPa) = 22.32632 24.28115 23.30373
#
# Velocity S-wave (km/s) = 3.33427 3.47717 3.40647
# Velocity P-wave (km/s) = 6.86196 7.13178 6.99817
#
# Compressibility (1/GPa) = 0.01543379
#
# Stress axis : x y z
#
# Youngs Moduli (GPa) = 85.05321 49.81379 98.46238
#
# Poissons Ratio (x) = 0.27352 0.22508
# Poissons Ratio (y) = 0.46702 0.54157
# Poissons Ratio (z) = 0.19443 0.27399
#
# Static dielectric constant tensor:
#      x y z
#    x 1.758510 0.000000 0.000000 
#    y 0.000000 1.715600 0.000000 
#    z 0.000000 0.000000 1.834910 
# 
# From -- ./inp_files/7810.got.cif
#   From: 2010.05.17/outbox.cif.g08.bks.cpg/sg21_4_cif.got.tgz:7810.got - 2010.06.03 23:14:55.
