data_PCOD9324547
_publ_section_title
;
Structure prediction by ZEFSAII (Michael W. Deem and Ramdas Pophale) SiO2 
 PCOD9324547
Probable space group: C 2 2 2
;
_chemical_formula_sum "Si O2"
_cell_formula_units_Z 58
_cell_length_a 9.151181
_cell_length_b 24.336141
_cell_length_c 11.506526
_cell_angle_alpha 90.000000
_cell_angle_beta 90.000000
_cell_angle_gamma 90.000000
_cell_volume 2562.554327
_symmetry_space_group_name_H-M "C 2 2 2"
_symmetry_group_IT_number 21
_symmetry_cell_setting 'orthorhombic'
loop_
_space_group_symop_operation_xyz
x,y,z
-x,-y,z
x,-y,-z
-x,y,-z
1/2+x,1/2+y,z
1/2-x,1/2-y,z
1/2+x,1/2-y,-z
1/2-x,1/2+y,-z
loop_
_atom_site_type_symbol
_atom_site_label
_atom_site_fract_x
_atom_site_fract_y
_atom_site_fract_z
Si Si1 0.327517 0.191018 0.846895
Si Si2 0.122862 0.713701 0.781856
Si Si3 0.166624 0.500125 0.361636
Si Si4 0.500000 0.000000 0.000000
Si Si5 0.202560 0.894439 0.756963
Si Si6 0.104999 0.715909 0.397367
Si Si7 0.746665 0.581298 0.971208
Si Si8 0.916092 0.943945 0.757816
O O1 0.250000 0.250000 0.860560
O O2 0.499883 0.195695 0.871449
O O3 0.329923 0.178149 0.706781
O O4 0.261096 0.142327 0.919568
O O5 0.250000 0.750000 0.834012
O O6 0.207371 0.660659 0.734095
O O7 0.023394 0.744355 0.683548
O O8 0.170690 0.500000 0.500000
O O9 0.231510 0.442826 0.318739
O O10 0.264737 0.549559 0.310810
O O11 0.000000 0.500000 0.320904
O O12 0.613177 0.956938 0.942823
O O13 0.028259 0.894429 0.734050
O O14 0.224720 0.912647 0.891609
O O15 0.250000 0.750000 0.436593
O O16 0.000000 0.693772 0.500000
O O17 0.619195 0.555427 0.894289
O O18 0.000000 0.000000 0.727353
#
# Coordination Sequence:
#
# PCOD9324547 Si02
#       8
#     8   8   8   2   8   8   8   8
#     4   9  23  43  67 100 142 191 244 299 376 436
#     4  10  22  41  65  97 143 181 240 301 353 441
#     4  10  24  47  73  99 137 182 239 308 370 440
#     4  12  24  36  70 100 130 192 242 302 364 426
#     4  11  25  42  67 104 140 186 242 291 370 441
#     4   9  19  40  69  98 133 184 247 306 374 436
#     4  12  25  42  70 102 147 187 243 302 365 448
#     4  10  24  42  68 100 140 180 234 295 367 438
#
# _framework density 22.633666000000002
#
# number of rings (size 3 to 8) (size 9 to 14) (size 15 to 20)
#    0.828    0.966    0.000    3.310    7.724    4.690 
#    4.966    0.000    6.069    0.000    0.000    0.000 
#    0.000    0.000    0.000    0.000    0.000    0.000 
#
# Total GULP energy -161536.758327 kJ/mol
# GULP energy per Si atom -5570.233046 kJ/mol
# Density = 2.258215 g / cm^3
# Si number density = 22.633666 Si / 1000 Ang^3
#
#
#
# Elastic Constant Matrix: (Units=GPa)
#
#
# Indices 1 2 3 4 5 6 
#
# 1 165.9502 46.8979 25.2953 0.0000 0.0000 0.0000
# 2 46.8979 100.7389 16.0821 0.0000 0.0000 0.0000
# 3 25.2953 16.0821 83.6380 0.0000 0.0000 0.0000
# 4 0.0000 0.0000 0.0000 23.1698 0.0000 0.0000
# 5 0.0000 0.0000 0.0000 0.0000 23.3050 0.0000
# 6 0.0000 0.0000 0.0000 0.0000 0.0000 29.7109
#
#
#
# Elastic Compliance Matrix: (Units=1/GPa)
#
#
# Indices 1 2 3 4 5 6 
#
# 1 0.007132 -0.003070 -0.001567 0.000000 0.000000 0.000000
# 2 -0.003070 0.011563 -0.001295 0.000000 0.000000 0.000000
# 3 -0.001567 -0.001295 0.012679 0.000000 0.000000 0.000000
# 4 0.000000 0.000000 0.000000 0.043160 0.000000 0.000000
# 5 0.000000 0.000000 0.000000 0.000000 0.042909 0.000000
# 6 0.000000 0.000000 0.000000 0.000000 0.000000 0.033658
#
#
# Mechanical properties :
#
#
# Convention : Reuss Voigt Hill
#
# Bulk Modulus (GPa) = 51.25410 58.54198 54.89804
# Shear Modulus (GPa) = 29.50412 32.70725 31.10569
#
# Velocity S-wave (km/s) = 3.61439 3.80553 3.71119
# Velocity P-wave (km/s) = 6.33345 6.72537 6.53235
#
# Compressibility (1/GPa) = 0.01951064
#
# Stress axis : x y z
#
# Youngs Moduli (GPa) = 140.20547 86.48510 78.87004
#
# Poissons Ratio (x) = 0.26553 0.12357
# Poissons Ratio (y) = 0.43047 0.10212
# Poissons Ratio (z) = 0.21967 0.11197
#
# Static dielectric constant tensor:
#      x y z
#    x 1.919670 0.000000 0.000000 
#    y 0.000000 1.824140 0.000000 
#    z 0.000000 0.000000 1.886740 
# 
# From -- ./inp_files/22990.got.cif
#   From: 2010.05.17/outbox.cif.g08.bks.cpg/sg21_12_cif.got.tgz:22990.got - 2010.06.03 23:14:55.
