data_PCOD9324424
_publ_section_title
;
Structure prediction by ZEFSAII (Michael W. Deem and Ramdas Pophale) SiO2 
 PCOD9324424
Probable space group: C 2 2 2
;
_chemical_formula_sum "Si O2"
_cell_formula_units_Z 48
_cell_length_a 8.897210
_cell_length_b 23.823452
_cell_length_c 12.028912
_cell_angle_alpha 90.000000
_cell_angle_beta 90.000000
_cell_angle_gamma 90.000000
_cell_volume 2549.675317
_symmetry_space_group_name_H-M "C 2 2 2"
_symmetry_group_IT_number 21
_symmetry_cell_setting 'orthorhombic'
loop_
_space_group_symop_operation_xyz
x,y,z
-x,-y,z
x,-y,-z
-x,y,-z
1/2+x,1/2+y,z
1/2-x,1/2-y,z
1/2+x,1/2-y,-z
1/2-x,1/2+y,-z
loop_
_atom_site_type_symbol
_atom_site_label
_atom_site_fract_x
_atom_site_fract_y
_atom_site_fract_z
Si Si1 0.500000 0.185957 0.500000
Si Si2 0.106321 0.223036 0.832795
Si Si3 0.355646 0.351399 0.209612
Si Si4 0.250000 0.750000 0.635697
Si Si5 0.529106 0.841489 0.129989
Si Si6 0.522709 0.566431 0.628881
Si Si7 0.700736 0.137195 0.305375
O O1 0.619546 0.224297 0.561629
O O2 0.592153 0.151190 0.407979
O O3 0.250000 0.250000 0.899494
O O4 0.194982 0.191376 0.731063
O O5 0.990817 0.173745 0.866488
O O6 0.001599 0.278188 0.822827
O O7 0.318278 0.300652 0.293510
O O8 0.198285 0.361417 0.149810
O O9 0.412073 0.402319 0.285338
O O10 0.405187 0.875478 0.199827
O O11 0.500000 0.840720 0.000000
O O12 0.500000 0.500000 0.635219
O O13 0.500000 0.584074 0.500000
O O14 0.687213 0.587613 0.663932
#
# Coordination Sequence:
#
# PCOD9324424 Si02
#       7
#     4   8   8   4   8   8   8
#     4  12  24  30  54  91 133 170 196 248 312 388
#     4   9  18  33  52  84 123 162 204 247 293 367
#     4  11  20  37  58  88 124 163 210 251 315 376
#     4  12  22  30  54  86 128 166 196 242 308 382
#     4  11  22  38  59  88 129 169 211 257 312 380
#     4  10  23  43  67  89 119 161 210 268 326 386
#     4  10  22  39  56  88 127 162 213 258 310 382
#
# _framework density 18.825925000000002
#
# number of rings (size 3 to 8) (size 9 to 14) (size 15 to 20)
#    0.000    1.500    3.333    2.000    9.333    4.000 
#    0.000    5.000    0.000    3.000    0.000    0.000 
#    0.000    0.000    0.000    0.000    0.000    0.000 
#
# Total GULP energy -133739.895058 kJ/mol
# GULP energy per Si atom -5572.495627 kJ/mol
# Density = 1.878308 g / cm^3
# Si number density = 18.825925 Si / 1000 Ang^3
#
#
#
# Elastic Constant Matrix: (Units=GPa)
#
#
# Indices 1 2 3 4 5 6 
#
# 1 156.6840 48.5099 67.0290 0.0000 0.0000 0.0000
# 2 48.5099 63.5217 37.1681 0.0000 0.0000 0.0000
# 3 67.0290 37.1681 110.0567 0.0000 0.0000 0.0000
# 4 0.0000 0.0000 0.0000 0.6350 0.0000 0.0000
# 5 0.0000 0.0000 0.0000 0.0000 11.3140 0.0000
# 6 0.0000 0.0000 0.0000 0.0000 0.0000 21.6002
#
#
#
# Elastic Compliance Matrix: (Units=1/GPa)
#
#
# Indices 1 2 3 4 5 6 
#
# 1 0.009735 -0.004941 -0.004260 0.000000 0.000000 0.000000
# 2 -0.004941 0.022128 -0.004463 0.000000 0.000000 0.000000
# 3 -0.004260 -0.004463 0.013188 0.000000 0.000000 0.000000
# 4 0.000000 0.000000 0.000000 1.574679 0.000000 0.000000
# 5 0.000000 0.000000 0.000000 0.000000 0.088386 0.000000
# 6 0.000000 0.000000 0.000000 0.000000 0.000000 0.046296
#
#
# Mechanical properties :
#
#
# Convention : Reuss Voigt Hill
#
# Bulk Modulus (GPa) = 56.43043 70.63072 63.53058
# Shear Modulus (GPa) = 2.79697 18.54688 10.67192
#
# Velocity S-wave (km/s) = 1.22022 3.14216 2.38349
# Velocity P-wave (km/s) = 5.65908 7.12485 6.43384
#
# Compressibility (1/GPa) = 0.01772094
#
# Stress axis : x y z
#
# Youngs Moduli (GPa) = 102.72703 45.19165 75.82605
#
# Poissons Ratio (x) = 0.22331 0.32301
# Poissons Ratio (y) = 0.50762 0.33845
# Poissons Ratio (z) = 0.43761 0.20171
#
# Static dielectric constant tensor:
#      x y z
#    x 1.707800 0.000000 0.000000 
#    y 0.000000 1.625030 0.000000 
#    z 0.000000 0.000000 1.679450 
# 
# From -- ./inp_files/22813.got.cif
#   From: 2010.05.17/outbox.cif.g08.bks.cpg/sg21_12_cif.got.tgz:22813.got - 2010.06.03 23:14:55.
