data_PCOD9324219
_publ_section_title
;
Structure prediction by ZEFSAII (Michael W. Deem and Ramdas Pophale) SiO2 
 PCOD9324219
Probable space group: C 2 2 2
;
_chemical_formula_sum "Si O2"
_cell_formula_units_Z 56
_cell_length_a 9.008658
_cell_length_b 21.727940
_cell_length_c 13.691281
_cell_angle_alpha 90.000000
_cell_angle_beta 90.000000
_cell_angle_gamma 90.000000
_cell_volume 2679.925600
_symmetry_space_group_name_H-M "C 2 2 2"
_symmetry_group_IT_number 21
_symmetry_cell_setting 'orthorhombic'
loop_
_space_group_symop_operation_xyz
x,y,z
-x,-y,z
x,-y,-z
-x,y,-z
1/2+x,1/2+y,z
1/2-x,1/2-y,z
1/2+x,1/2-y,-z
1/2-x,1/2+y,-z
loop_
_atom_site_type_symbol
_atom_site_label
_atom_site_fract_x
_atom_site_fract_y
_atom_site_fract_z
Si Si1 0.331731 0.668864 0.403917
Si Si2 0.545750 0.568877 0.743197
Si Si3 0.166928 0.141847 0.109907
Si Si4 0.000000 0.244550 0.000000
Si Si5 0.247514 0.560055 0.066219
Si Si6 0.980356 0.347723 0.129620
Si Si7 0.041942 0.706814 0.334313
Si Si8 0.250000 0.750000 0.576095
O O1 0.395570 0.608231 0.350692
O O2 0.151695 0.669673 0.405020
O O3 0.394473 0.723716 0.334925
O O4 0.345703 0.700349 0.511940
O O5 0.500000 0.500000 0.712035
O O6 0.415793 0.606671 0.801310
O O7 0.664677 0.557406 0.831314
O O8 0.341462 0.151034 0.130078
O O9 0.165029 0.104323 0.008220
O O10 0.085093 0.204706 0.080197
O O11 0.091698 0.294309 0.937669
O O12 0.089725 0.589258 0.093513
O O13 0.233017 0.500000 0.000000
O O14 0.933460 0.329072 0.235927
O O15 0.871035 0.713177 0.362095
#
# Coordination Sequence:
#
# PCOD9324219 Si02
#       8
#     8   8   8   4   8   8   8   4
#     4  10  21  41  66  98 139 170 212 286 358 418
#     4  12  24  42  66  93 131 184 244 279 333 408
#     4  12  25  39  60  89 133 185 224 281 328 399
#     4  12  24  36  56  90 138 168 222 268 352 386
#     4  12  24  46  62  86 134 195 239 278 324 393
#     4  12  26  40  60  97 134 182 222 286 339 402
#     4  10  22  40  67 103 137 169 216 272 356 429
#     4  10  22  42  72 108 142 168 212 286 376 448
#
# _framework density 20.896103
#
# number of rings (size 3 to 8) (size 9 to 14) (size 15 to 20)
#    0.000    0.857    5.714    3.000    4.000    1.143 
#    0.000    0.000    0.000    1.714    0.000    0.000 
#   17.143    0.000    0.000    0.000    0.000    0.000 
#
# Total GULP energy -156010.005090 kJ/mol
# GULP energy per Si atom -5571.785896 kJ/mol
# Density = 2.084854 g / cm^3
# Si number density = 20.896103 Si / 1000 Ang^3
#
#
#
# Elastic Constant Matrix: (Units=GPa)
#
#
# Indices 1 2 3 4 5 6 
#
# 1 83.2402 24.5546 -12.1511 0.0000 0.0000 0.0000
# 2 24.5546 118.8344 16.1135 0.0000 0.0000 0.0000
# 3 -12.1511 16.1135 43.7520 0.0000 0.0000 0.0000
# 4 0.0000 0.0000 0.0000 -0.6135 0.0000 0.0000
# 5 0.0000 0.0000 0.0000 0.0000 28.4179 0.0000
# 6 0.0000 0.0000 0.0000 0.0000 0.0000 21.9774
#
#
#
# Elastic Compliance Matrix: (Units=1/GPa)
#
#
# Indices 1 2 3 4 5 6 
#
# 1 0.013812 -0.003551 0.005144 0.000000 0.000000 0.000000
# 2 -0.003551 0.009771 -0.004585 0.000000 0.000000 0.000000
# 3 0.005144 -0.004585 0.025973 0.000000 0.000000 0.000000
# 4 0.000000 0.000000 0.000000 -1.630006 0.000000 0.000000
# 5 0.000000 0.000000 0.000000 0.000000 0.035189 0.000000
# 6 0.000000 0.000000 0.000000 0.000000 0.000000 0.045501
#
#
# Mechanical properties :
#
#
# Convention : Reuss Voigt Hill
#
# Bulk Modulus (GPa) = 22.95092 33.65116 28.30104
# Shear Modulus (GPa) = -3.38009 24.44367 10.53179
#
# Velocity S-wave (km/s) = -1.27322 3.42390 2.24745
# Velocity P-wave (km/s) = 2.97418 5.63647 4.50642
#
# Compressibility (1/GPa) = 0.04357125
#
# Stress axis : x y z
#
# Youngs Moduli (GPa) = 72.40107 102.34809 38.50114
#
# Poissons Ratio (x) = 0.36348 -0.19805
# Poissons Ratio (y) = 0.25713 0.17652
# Poissons Ratio (z) = -0.37243 0.46924
#
# Static dielectric constant tensor:
#      x y z
#    x 1.906340 0.000000 0.000000 
#    y 0.000000 1.805570 0.000000 
#    z 0.000000 0.000000 1.889730 
# 
# From -- ./inp_files/30797.got.cif
#   From: 2010.05.17/outbox.cif.g08.bks.cpg/sg21_16_cif.got.tgz:30797.got - 2010.06.03 23:14:55.
