data_PCOD9324768
_publ_section_title
;
Structure prediction by ZEFSAII (Michael W. Deem and Ramdas Pophale) SiO2 
 PCOD9324768
Probable space group: C 2 2 2
;
_chemical_formula_sum "Si O2"
_cell_formula_units_Z 38
_cell_length_a 5.814840
_cell_length_b 14.326391
_cell_length_c 21.741826
_cell_angle_alpha 90.000000
_cell_angle_beta 90.000000
_cell_angle_gamma 90.000000
_cell_volume 1811.217413
_symmetry_space_group_name_H-M "C 2 2 2"
_symmetry_group_IT_number 21
_symmetry_cell_setting 'orthorhombic'
loop_
_space_group_symop_operation_xyz
x,y,z
-x,-y,z
x,-y,-z
-x,y,-z
1/2+x,1/2+y,z
1/2-x,1/2-y,z
1/2+x,1/2-y,-z
1/2-x,1/2+y,-z
loop_
_atom_site_type_symbol
_atom_site_label
_atom_site_fract_x
_atom_site_fract_y
_atom_site_fract_z
Si Si1 0.146182 0.853955 0.804877
Si Si2 0.001263 0.194476 0.932078
Si Si3 0.676481 0.352686 0.448531
Si Si4 0.623622 0.400698 0.314640
Si Si5 0.500000 0.000000 0.500000
Si Si6 0.000000 0.500000 0.752708
O O1 0.250000 0.750000 0.806552
O O2 0.016380 0.865622 0.869870
O O3 0.324205 0.938869 0.793395
O O4 0.987335 0.854371 0.744869
O O5 0.750000 0.250000 0.932713
O O6 0.250000 0.250000 0.927470
O O7 0.000000 0.148895 0.000000
O O8 0.500000 0.385559 0.500000
O O9 0.750000 0.250000 0.468066
O O10 0.596530 0.347318 0.378295
O O11 0.871085 0.429893 0.454195
O O12 0.500000 0.500000 0.324309
O O13 0.878125 0.426029 0.292379
#
# Coordination Sequence:
#
# PCOD9324768 Si02
#       6
#     8   8   8   8   2   4
#     4  10  23  38  67  97 128 176 220 280 339 411
#     4   9  19  36  63 101 135 177 234 283 339 416
#     4  12  26  44  68  98 129 176 227 277 348 419
#     4  10  23  42  63  91 130 169 216 281 338 412
#     4  12  24  48  68  88 134 172 214 294 334 412
#     4  10  23  42  62 100 127 170 224 280 343 410
#
# _framework density 20.980366
#
# number of rings (size 3 to 8) (size 9 to 14) (size 15 to 20)
#    0.000    1.684    1.053    2.211    8.842    2.526 
#    0.000    0.000    0.000    6.947    0.000    0.000 
#    0.000    0.000    0.000    0.000    0.000    0.000 
#
# Total GULP energy -105842.417300 kJ/mol
# GULP energy per Si atom -5570.653542 kJ/mol
# Density = 2.093261 g / cm^3
# Si number density = 20.980366 Si / 1000 Ang^3
#
#
#
# Elastic Constant Matrix: (Units=GPa)
#
#
# Indices 1 2 3 4 5 6 
#
# 1 78.5857 15.5340 47.6880 0.0000 0.0000 0.0000
# 2 15.5340 66.4216 18.6630 0.0000 0.0000 0.0000
# 3 47.6880 18.6630 185.1730 0.0000 0.0000 0.0000
# 4 0.0000 0.0000 0.0000 8.8330 0.0000 0.0000
# 5 0.0000 0.0000 0.0000 0.0000 -2.6841 0.0000
# 6 0.0000 0.0000 0.0000 0.0000 0.0000 22.0716
#
#
#
# Elastic Compliance Matrix: (Units=1/GPa)
#
#
# Indices 1 2 3 4 5 6 
#
# 1 0.015499 -0.002576 -0.003732 0.000000 0.000000 0.000000
# 2 -0.002576 0.015922 -0.000941 0.000000 0.000000 0.000000
# 3 -0.003732 -0.000941 0.006456 0.000000 0.000000 0.000000
# 4 0.000000 0.000000 0.000000 0.113211 0.000000 0.000000
# 5 0.000000 0.000000 0.000000 0.000000 -0.372569 0.000000
# 6 0.000000 0.000000 0.000000 0.000000 0.000000 0.045307
#
#
# Mechanical properties :
#
#
# Convention : Reuss Voigt Hill
#
# Bulk Modulus (GPa) = 42.77369 54.88336 48.82853
# Shear Modulus (GPa) = -32.49256 22.19712 -5.14772
#
# Velocity S-wave (km/s) = -3.93964 3.25621 -1.56809
# Velocity P-wave (km/s) = 0.51243 6.35243 4.47721
#
# Compressibility (1/GPa) = 0.02337886
#
# Stress axis : x y z
#
# Youngs Moduli (GPa) = 64.52137 62.80489 154.88793
#
# Poissons Ratio (x) = 0.16179 0.57801
# Poissons Ratio (y) = 0.16622 0.14580
# Poissons Ratio (z) = 0.24078 0.05912
#
# Static dielectric constant tensor:
#      x y z
#    x 1.870430 0.000000 0.000000 
#    y 0.000000 1.832050 0.000000 
#    z 0.000000 0.000000 1.833590 
# 
# From -- ./inp_files/38169.got.cif
#   From: 2010.05.17/outbox.cif.g08.bks.cpg/sg21_20_cif.got.tgz:38169.got - 2010.06.03 23:14:55.
