data_PCOD9324536
_publ_section_title
;
Structure prediction by ZEFSAII (Michael W. Deem and Ramdas Pophale) SiO2 
 PCOD9324536
Probable space group: C 2 2 2
;
_chemical_formula_sum "Si O2"
_cell_formula_units_Z 64
_cell_length_a 15.640494
_cell_length_b 7.598509
_cell_length_c 26.337750
_cell_angle_alpha 90.000000
_cell_angle_beta 90.000000
_cell_angle_gamma 90.000000
_cell_volume 3130.095003
_symmetry_space_group_name_H-M "C 2 2 2"
_symmetry_group_IT_number 21
_symmetry_cell_setting 'orthorhombic'
loop_
_space_group_symop_operation_xyz
x,y,z
-x,-y,z
x,-y,-z
-x,y,-z
1/2+x,1/2+y,z
1/2-x,1/2-y,z
1/2+x,1/2-y,-z
1/2-x,1/2+y,-z
loop_
_atom_site_type_symbol
_atom_site_label
_atom_site_fract_x
_atom_site_fract_y
_atom_site_fract_z
Si Si1 0.845377 0.707535 0.370906
Si Si2 0.835933 0.853071 0.905030
Si Si3 0.658906 0.210016 0.984147
Si Si4 0.653429 0.789190 0.634032
Si Si5 0.905008 0.090295 0.824405
Si Si6 0.103053 0.991809 0.710495
Si Si7 0.001246 0.713377 0.442395
Si Si8 0.022886 0.694509 0.900352
O O1 0.750000 0.750000 0.389130
O O2 0.854607 0.499890 0.358308
O O3 0.863423 0.829724 0.322748
O O4 0.915643 0.760948 0.412347
O O5 0.750000 0.750000 0.890596
O O6 0.930004 0.777045 0.894678
O O7 0.841264 0.017234 0.867358
O O8 0.836939 0.834163 0.966163
O O9 0.750000 0.250000 0.957882
O O10 0.581178 0.259748 0.947120
O O11 0.653454 0.000000 0.000000
O O12 0.750000 0.750000 0.616796
O O13 0.636780 0.671130 0.684201
O O14 0.583228 0.736557 0.591649
O O15 0.871775 0.048931 0.768535
O O16 0.927229 0.282449 0.847160
O O17 0.000000 0.000000 0.824843
O O18 0.000000 0.000000 0.708006
O O19 0.000000 0.500000 0.444627
O O20 0.000000 0.779401 0.500000
O O21 0.000000 0.500000 0.914238
#
# Coordination Sequence:
#
# PCOD9324536 Si02
#       8
#     8   8   8   8   8   8   8   8
#     4  11  22  40  65  97 130 175 221 267 324 390
#     4  10  22  41  64  90 125 162 205 252 312 380
#     4  11  24  39  66  94 122 162 211 255 315 386
#     4  11  22  39  68  93 131 176 218 270 329 380
#     4   9  23  43  62  92 125 164 209 267 326 373
#     4  11  22  44  67  93 129 169 226 280 319 392
#     4   9  20  39  63  97 134 172 218 269 326 386
#     4  11  22  41  65  92 127 162 201 258 322 383
#
# _framework density 20.446664999999999
#
# number of rings (size 3 to 8) (size 9 to 14) (size 15 to 20)
#    0.000    1.625    3.750    0.375    3.500    1.000 
#    6.750    3.750    0.000    0.000    0.000    0.000 
#    0.000    0.000    0.000    0.000    0.000    0.000 
#
# Total GULP energy -178260.728570 kJ/mol
# GULP energy per Si atom -5570.647768 kJ/mol
# Density = 2.040013 g / cm^3
# Si number density = 20.446665 Si / 1000 Ang^3
#
#
#
# Elastic Constant Matrix: (Units=GPa)
#
#
# Indices 1 2 3 4 5 6 
#
# 1 141.2681 31.5035 65.1884 0.0000 0.0000 0.0000
# 2 31.5035 64.1097 45.9012 0.0000 0.0000 0.0000
# 3 65.1884 45.9012 142.7331 0.0000 0.0000 0.0000
# 4 0.0000 0.0000 0.0000 125.4124 0.0000 0.0000
# 5 0.0000 0.0000 0.0000 0.0000 5.6923 0.0000
# 6 0.0000 0.0000 0.0000 0.0000 0.0000 15.4863
#
#
#
# Elastic Compliance Matrix: (Units=1/GPa)
#
#
# Indices 1 2 3 4 5 6 
#
# 1 0.009154 -0.001955 -0.003552 0.000000 0.000000 0.000000
# 2 -0.001955 0.020682 -0.005758 0.000000 0.000000 0.000000
# 3 -0.003552 -0.005758 0.010480 0.000000 0.000000 0.000000
# 4 0.000000 0.000000 0.000000 0.007974 0.000000 0.000000
# 5 0.000000 0.000000 0.000000 0.000000 0.175677 0.000000
# 6 0.000000 0.000000 0.000000 0.000000 0.000000 0.064573
#
#
# Mechanical properties :
#
#
# Convention : Reuss Voigt Hill
#
# Bulk Modulus (GPa) = 56.22613 70.36634 63.29623
# Shear Modulus (GPa) = 15.77299 43.01939 29.39619
#
# Velocity S-wave (km/s) = 2.78046 4.59189 3.79582
# Velocity P-wave (km/s) = 6.15358 7.91222 7.08766
#
# Compressibility (1/GPa) = 0.01778533
#
# Stress axis : x y z
#
# Youngs Moduli (GPa) = 109.24447 48.35218 95.41954
#
# Poissons Ratio (x) = 0.09453 0.33893
# Poissons Ratio (y) = 0.21358 0.54943
# Poissons Ratio (z) = 0.38803 0.27841
#
# Static dielectric constant tensor:
#      x y z
#    x 1.396750 0.000000 0.000000 
#    y 0.000000 1.823240 0.000000 
#    z 0.000000 0.000000 1.736530 
# 
# From -- ./inp_files/38749.got.cif
#   From: 2010.05.17/outbox.cif.g08.bks.cpg/sg21_20_cif.got.tgz:38749.got - 2010.06.03 23:14:55.
