data_PCOD9324413
_publ_section_title
;
Structure prediction by ZEFSAII (Michael W. Deem and Ramdas Pophale) SiO2 
 PCOD9324413
Probable space group: C 2 2 2
;
_chemical_formula_sum "Si O2"
_cell_formula_units_Z 38
_cell_length_a 5.912094
_cell_length_b 24.692154
_cell_length_c 11.238966
_cell_angle_alpha 90.000000
_cell_angle_beta 90.000000
_cell_angle_gamma 90.000000
_cell_volume 1640.690505
_symmetry_space_group_name_H-M "C 2 2 2"
_symmetry_group_IT_number 21
_symmetry_cell_setting 'orthorhombic'
loop_
_space_group_symop_operation_xyz
x,y,z
-x,-y,z
x,-y,-z
-x,y,-z
1/2+x,1/2+y,z
1/2-x,1/2-y,z
1/2+x,1/2-y,-z
1/2-x,1/2+y,-z
loop_
_atom_site_type_symbol
_atom_site_label
_atom_site_fract_x
_atom_site_fract_y
_atom_site_fract_z
Si Si1 0.750420 0.923109 0.058443
Si Si2 0.750000 0.750000 0.790761
Si Si3 0.661415 0.949755 0.321700
Si Si4 0.000000 0.000000 0.500000
Si Si5 0.438061 0.828713 0.636728
Si Si6 0.352429 0.692435 0.845819
O O1 0.749908 0.951206 0.187113
O O2 0.755859 0.859000 0.087958
O O3 0.500000 0.934813 0.000000
O O4 0.000000 0.934720 0.000000
O O5 0.590307 0.787251 0.710620
O O6 0.614564 0.704696 0.863029
O O7 0.857641 0.959899 0.416129
O O8 0.532618 0.892896 0.341270
O O9 0.500000 0.000000 0.340356
O O10 0.500000 0.818485 0.500000
O O11 0.196219 0.817993 0.703310
O O12 0.250000 0.750000 0.879601
#
# Coordination Sequence:
#
# PCOD9324413 Si02
#       6
#     8   4   8   2   8   8
#     4  11  28  49  79 111 156 206 260 328 394 467
#     4  10  22  38  70  96 156 190 252 316 390 464
#     4  11  27  50  78 113 153 199 266 322 403 470
#     4  12  26  48  82 114 152 208 254 338 398 478
#     4  10  22  38  66 104 147 195 251 313 391 467
#     4   9  22  40  64 102 142 201 254 320 375 465
#
# _framework density 23.160979999999999
#
# number of rings (size 3 to 8) (size 9 to 14) (size 15 to 20)
#    0.000    1.684    0.000    1.579   16.211    6.316 
#    0.000    0.000    0.000    0.000    0.000    0.000 
#    0.000    0.000    0.000    0.000    0.000    0.000 
#
# Total GULP energy -105980.077511 kJ/mol
# GULP energy per Si atom -5577.898816 kJ/mol
# Density = 2.310826 g / cm^3
# Si number density = 23.160980 Si / 1000 Ang^3
#
#
#
# Elastic Constant Matrix: (Units=GPa)
#
#
# Indices 1 2 3 4 5 6 
#
# 1 119.1909 36.0283 73.8693 0.0000 0.0000 0.0000
# 2 36.0283 133.7726 17.6345 0.0000 0.0000 0.0000
# 3 73.8693 17.6345 148.7238 0.0000 0.0000 0.0000
# 4 0.0000 0.0000 0.0000 26.6710 0.0000 0.0000
# 5 0.0000 0.0000 0.0000 0.0000 36.0307 0.0000
# 6 0.0000 0.0000 0.0000 0.0000 0.0000 -28.4788
#
#
#
# Elastic Compliance Matrix: (Units=1/GPa)
#
#
# Indices 1 2 3 4 5 6 
#
# 1 0.013012 -0.002695 -0.006143 0.000000 0.000000 0.000000
# 2 -0.002695 0.008152 0.000372 0.000000 0.000000 0.000000
# 3 -0.006143 0.000372 0.009731 0.000000 0.000000 0.000000
# 4 0.000000 0.000000 0.000000 0.037494 0.000000 0.000000
# 5 0.000000 0.000000 0.000000 0.000000 0.027754 0.000000
# 6 0.000000 0.000000 0.000000 0.000000 0.000000 -0.035114
#
#
# Mechanical properties :
#
#
# Convention : Reuss Voigt Hill
#
# Bulk Modulus (GPa) = 71.61921 72.97238 72.29580
# Shear Modulus (GPa) = 60.52138 25.12160 42.82149
#
# Velocity S-wave (km/s) = 5.11737 3.29698 4.30451
# Velocity P-wave (km/s) = 8.11826 6.78737 7.48246
#
# Compressibility (1/GPa) = 0.01396273
#
# Stress axis : x y z
#
# Youngs Moduli (GPa) = 76.85377 122.66817 102.76345
#
# Poissons Ratio (x) = 0.33053 0.63130
# Poissons Ratio (y) = 0.20709 -0.03820
# Poissons Ratio (z) = 0.47213 -0.04560
#
# Static dielectric constant tensor:
#      x y z
#    x 2.192010 0.000000 0.000000 
#    y 0.000000 1.798310 0.000000 
#    z 0.000000 0.000000 1.966250 
# 
# From -- ./inp_files/21236.got.cif
#   From: 2010.05.17/outbox.cif.g08.bks.cpg/sg21_11_cif.got.tgz:21236.got - 2010.06.03 23:14:55.
