data_PCOD9324961
_publ_section_title
;
Structure prediction by ZEFSAII (Michael W. Deem and Ramdas Pophale) SiO2 
 PCOD9324961
Probable space group: C 2 2 2
;
_chemical_formula_sum "Si O2"
_cell_formula_units_Z 64
_cell_length_a 14.174018
_cell_length_b 17.445275
_cell_length_c 12.090707
_cell_angle_alpha 90.000000
_cell_angle_beta 90.000000
_cell_angle_gamma 90.000000
_cell_volume 2989.664790
_symmetry_space_group_name_H-M "C 2 2 2"
_symmetry_group_IT_number 21
_symmetry_cell_setting 'orthorhombic'
loop_
_space_group_symop_operation_xyz
x,y,z
-x,-y,z
x,-y,-z
-x,y,-z
1/2+x,1/2+y,z
1/2-x,1/2-y,z
1/2+x,1/2-y,-z
1/2-x,1/2+y,-z
loop_
_atom_site_type_symbol
_atom_site_label
_atom_site_fract_x
_atom_site_fract_y
_atom_site_fract_z
Si Si1 0.385619 0.481569 0.186538
Si Si2 0.604999 0.660148 0.030597
Si Si3 0.990658 0.771970 0.380537
Si Si4 0.609918 0.091487 0.981225
Si Si5 0.126373 0.926687 0.569457
Si Si6 0.235755 0.866444 0.151020
Si Si7 0.147050 0.710850 0.799593
Si Si8 0.298529 0.677126 0.389715
O O1 0.500000 0.500000 0.190183
O O2 0.362384 0.414010 0.100433
O O3 0.351218 0.457164 0.308690
O O4 0.326163 0.555712 0.154876
O O5 0.604602 0.731525 0.110604
O O6 0.500000 0.639479 0.000000
O O7 0.666245 0.683540 0.924963
O O8 0.939961 0.854100 0.402163
O O9 0.925246 0.721132 0.301883
O O10 0.000000 0.733011 0.500000
O O11 0.096358 0.798066 0.349179
O O12 0.671051 0.126413 0.079840
O O13 0.500000 0.109115 0.000000
O O14 0.645302 0.129161 0.864380
O O15 0.621522 0.000000 0.000000
O O16 0.198159 0.888770 0.481606
O O17 0.092023 0.000000 0.500000
O O18 0.253599 0.843133 0.276402
O O19 0.250000 0.750000 0.773815
O O20 0.250000 0.750000 0.443932
#
# Coordination Sequence:
#
# PCOD9324961 Si02
#       8
#     8   8   8   8   8   8   8   8
#     4  12  23  38  67 104 150 191 219 284 364 456
#     4  12  23  39  62 103 147 178 221 274 365 441
#     4  10  24  43  67 102 140 185 234 293 351 426
#     4  11  27  49  71  97 136 192 247 297 350 424
#     4  11  23  43  67 102 141 189 235 282 360 434
#     4  12  24  40  65 101 140 185 232 282 353 429
#     4  12  25  44  72 104 139 188 238 301 363 429
#     4  11  26  42  65  98 141 186 237 290 348 425
#
# _framework density 21.407084000000001
#
# number of rings (size 3 to 8) (size 9 to 14) (size 15 to 20)
#    0.000    0.625    5.000    3.000    7.000    2.000 
#    0.000    0.000    0.000    0.000    0.000    0.875 
#    0.000    0.000    0.000    0.000    0.000    0.000 
#
# Total GULP energy -178633.859818 kJ/mol
# GULP energy per Si atom -5582.308119 kJ/mol
# Density = 2.135836 g / cm^3
# Si number density = 21.407084 Si / 1000 Ang^3
#
#
#
# Elastic Constant Matrix: (Units=GPa)
#
#
# Indices 1 2 3 4 5 6 
#
# 1 74.5387 10.2018 25.4505 0.0000 0.0000 0.0000
# 2 10.2018 93.4405 20.9233 0.0000 0.0000 0.0000
# 3 25.4505 20.9233 102.8272 0.0000 0.0000 0.0000
# 4 0.0000 0.0000 0.0000 -83.4732 0.0000 0.0000
# 5 0.0000 0.0000 0.0000 0.0000 12.7279 0.0000
# 6 0.0000 0.0000 0.0000 0.0000 0.0000 -5.9833
#
#
#
# Elastic Compliance Matrix: (Units=1/GPa)
#
#
# Indices 1 2 3 4 5 6 
#
# 1 0.014715 -0.000829 -0.003473 0.000000 0.000000 0.000000
# 2 -0.000829 0.011260 -0.002086 0.000000 0.000000 0.000000
# 3 -0.003473 -0.002086 0.011009 0.000000 0.000000 0.000000
# 4 0.000000 0.000000 0.000000 -0.011980 0.000000 0.000000
# 5 0.000000 0.000000 0.000000 0.000000 0.078567 0.000000
# 6 0.000000 0.000000 0.000000 0.000000 0.000000 -0.167132
#
#
# Mechanical properties :
#
#
# Convention : Reuss Voigt Hill
#
# Bulk Modulus (GPa) = 41.30947 42.66195 41.98571
# Shear Modulus (GPa) = -117.05537 -1.06366 -59.05951
#
# Velocity S-wave (km/s) = -7.40266 -0.70566 -5.25820
# Velocity P-wave (km/s) = 7.32986 4.39411 4.14841
#
# Compressibility (1/GPa) = 0.02420752
#
# Stress axis : x y z
#
# Youngs Moduli (GPa) = 67.95655 88.81331 90.83292
#
# Poissons Ratio (x) = 0.07361 0.31551
# Poissons Ratio (y) = 0.05632 0.18947
# Poissons Ratio (z) = 0.23605 0.18526
#
# Static dielectric constant tensor:
#      x y z
#    x 1.817160 0.000000 0.000000 
#    y 0.000000 1.809350 0.000000 
#    z 0.000000 0.000000 1.808830 
# 
# From -- ./inp_files/25490.got.cif
#   From: 2010.05.17/outbox.cif.g08.bks.cpg/sg21_13_cif.got.tgz:25490.got - 2010.06.03 23:14:55.
