data_PCOD9324471
_publ_section_title
;
Structure prediction by ZEFSAII (Michael W. Deem and Ramdas Pophale) SiO2 
 PCOD9324471
Probable space group: C 2 2 2
;
_chemical_formula_sum "Si O2"
_cell_formula_units_Z 64
_cell_length_a 16.745032
_cell_length_b 9.495470
_cell_length_c 19.542068
_cell_angle_alpha 90.000000
_cell_angle_beta 90.000000
_cell_angle_gamma 90.000000
_cell_volume 3107.226900
_symmetry_space_group_name_H-M "C 2 2 2"
_symmetry_group_IT_number 21
_symmetry_cell_setting 'orthorhombic'
loop_
_space_group_symop_operation_xyz
x,y,z
-x,-y,z
x,-y,-z
-x,y,-z
1/2+x,1/2+y,z
1/2-x,1/2-y,z
1/2+x,1/2-y,-z
1/2-x,1/2+y,-z
loop_
_atom_site_type_symbol
_atom_site_label
_atom_site_fract_x
_atom_site_fract_y
_atom_site_fract_z
Si Si1 0.181509 0.035262 0.078366
Si Si2 0.165924 0.168454 0.424259
Si Si3 0.130084 0.474481 0.922111
Si Si4 0.402190 0.158009 0.300565
Si Si5 0.833866 0.833607 0.578634
Si Si6 0.593100 0.835913 0.701721
Si Si7 0.093780 0.738561 0.845768
Si Si8 0.910605 0.799435 0.845028
O O1 0.275482 0.006460 0.084775
O O2 0.133736 0.939113 0.132010
O O3 0.152766 0.189544 0.100059
O O4 0.159047 0.000000 0.000000
O O5 0.250000 0.250000 0.424557
O O6 0.116951 0.247585 0.365933
O O7 0.132343 0.182944 0.501482
O O8 0.175908 0.001551 0.410244
O O9 0.084198 0.578508 0.871060
O O10 0.112872 0.316278 0.901028
O O11 0.106170 0.500000 0.000000
O O12 0.497652 0.152270 0.293192
O O13 0.371548 0.230164 0.230783
O O14 0.373786 0.995395 0.305750
O O15 0.750000 0.750000 0.580179
O O16 0.885313 0.760424 0.637291
O O17 0.618574 0.760412 0.771999
O O18 0.006765 0.810659 0.844524
#
# Coordination Sequence:
#
# PCOD9324471 Si02
#       8
#     8   8   8   8   8   8   8   8
#     4  11  25  41  59  91 128 159 202 263 323 374
#     4  10  22  40  63  93 127 163 205 251 300 361
#     4  11  23  41  63  87 120 161 206 257 313 372
#     4  10  22  41  62  88 123 161 205 257 309 364
#     4  10  22  40  63  93 127 163 205 251 300 361
#     4  10  22  41  62  88 123 161 205 257 309 364
#     4  11  23  41  63  89 122 163 209 256 308 374
#     4  11  23  41  63  89 122 163 209 256 308 374
#
# _framework density 20.597144
#
# number of rings (size 3 to 8) (size 9 to 14) (size 15 to 20)
#    0.000    1.500    1.250    3.000    1.750    9.500 
#    0.000    2.500    0.000    0.000    0.000    0.000 
#    0.000    0.000    0.000    0.000    0.000    0.000 
#
# Total GULP energy -178802.811101 kJ/mol
# GULP energy per Si atom -5587.587847 kJ/mol
# Density = 2.055026 g / cm^3
# Si number density = 20.597144 Si / 1000 Ang^3
#
#
#
# Elastic Constant Matrix: (Units=GPa)
#
#
# Indices 1 2 3 4 5 6 
#
# 1 30.0999 17.9387 27.6796 0.0000 0.0000 0.0000
# 2 17.9387 88.3667 32.6963 0.0000 0.0000 0.0000
# 3 27.6796 32.6963 124.5645 0.0000 0.0000 0.0000
# 4 0.0000 0.0000 0.0000 36.5062 0.0000 0.0000
# 5 0.0000 0.0000 0.0000 0.0000 17.1069 0.0000
# 6 0.0000 0.0000 0.0000 0.0000 0.0000 34.9420
#
#
#
# Elastic Compliance Matrix: (Units=1/GPa)
#
#
# Indices 1 2 3 4 5 6 
#
# 1 0.044402 -0.005940 -0.008308 0.000000 0.000000 0.000000
# 2 -0.005940 0.013328 -0.002179 0.000000 0.000000 0.000000
# 3 -0.008308 -0.002179 0.010446 0.000000 0.000000 0.000000
# 4 0.000000 0.000000 0.000000 0.027393 0.000000 0.000000
# 5 0.000000 0.000000 0.000000 0.000000 0.058456 0.000000
# 6 0.000000 0.000000 0.000000 0.000000 0.000000 0.028619
#
#
# Mechanical properties :
#
#
# Convention : Reuss Voigt Hill
#
# Bulk Modulus (GPa) = 28.30901 44.40668 36.35784
# Shear Modulus (GPa) = 22.00016 28.69211 25.34614
#
# Velocity S-wave (km/s) = 3.27175 3.73636 3.51175
# Velocity P-wave (km/s) = 5.29589 6.34195 5.84238
#
# Compressibility (1/GPa) = 0.03532445
#
# Stress axis : x y z
#
# Youngs Moduli (GPa) = 22.52133 75.02777 95.73181
#
# Poissons Ratio (x) = 0.44566 0.79530
# Poissons Ratio (y) = 0.13378 0.20856
# Poissons Ratio (z) = 0.18710 0.16345
#
# Static dielectric constant tensor:
#      x y z
#    x 1.729870 0.000000 0.000000 
#    y 0.000000 1.706510 0.000000 
#    z 0.000000 0.000000 1.726570 
# 
# From -- ./inp_files/37694.got.cif
#   From: 2010.05.17/outbox.cif.g08.bks.cpg/sg21_19_cif.got.tgz:37694.got - 2010.06.03 23:14:55.
