data_PCOD9324221
_publ_section_title
;
Structure prediction by ZEFSAII (Michael W. Deem and Ramdas Pophale) SiO2 
 PCOD9324221
Probable space group: C 2 2 2
;
_chemical_formula_sum "Si O2"
_cell_formula_units_Z 30
_cell_length_a 14.303036
_cell_length_b 15.879220
_cell_length_c 4.578918
_cell_angle_alpha 90.000000
_cell_angle_beta 90.000000
_cell_angle_gamma 90.000000
_cell_volume 1039.968688
_symmetry_space_group_name_H-M "C 2 2 2"
_symmetry_group_IT_number 21
_symmetry_cell_setting 'orthorhombic'
loop_
_space_group_symop_operation_xyz
x,y,z
-x,-y,z
x,-y,-z
-x,y,-z
1/2+x,1/2+y,z
1/2-x,1/2-y,z
1/2+x,1/2-y,-z
1/2-x,1/2+y,-z
loop_
_atom_site_type_symbol
_atom_site_label
_atom_site_fract_x
_atom_site_fract_y
_atom_site_fract_z
Si Si1 0.000000 0.500000 0.000000
Si Si2 0.500000 0.241006 0.500000
Si Si3 0.750000 0.750000 0.027907
Si Si4 0.399687 0.374354 0.098685
Si Si5 0.134389 0.383906 0.417812
Si Si6 0.214318 0.000000 0.500000
O O1 0.931415 0.556207 0.213201
O O2 0.440261 0.301936 0.305740
O O3 0.427571 0.173846 0.630963
O O4 0.670525 0.683832 0.900055
O O5 0.805889 0.681428 0.223826
O O6 0.346738 0.448664 0.269829
O O7 0.500000 0.409438 0.000000
O O8 0.209578 0.433341 0.611590
#
# Coordination Sequence:
#
# PCOD9324221 Si02
#       6
#     2   4   4   8   8   4
#     4  12  24  38  72 116 148 206 248 306 396 440
#     4  10  22  42  74 100 146 194 246 310 368 450
#     4   8  20  40  68 102 138 184 248 294 360 438
#     4  10  22  45  76 107 147 198 250 308 381 455
#     4  10  21  41  67 106 148 192 245 307 373 443
#     4  10  22  48  70 108 154 194 248 317 381 442
#
# _framework density 28.847023
#
# number of rings (size 3 to 8) (size 9 to 14) (size 15 to 20)
#    0.000    2.133    0.000    1.600    7.467    0.533 
#    9.600    6.667    0.000    0.000    0.000    0.000 
#    0.000    0.000    0.000    0.000    0.000    0.000 
#
# Total GULP energy -83633.134309 kJ/mol
# GULP energy per Si atom -5575.542287 kJ/mol
# Density = 2.878137 g / cm^3
# Si number density = 28.847023 Si / 1000 Ang^3
#
#
#
# Elastic Constant Matrix: (Units=GPa)
#
#
# Indices 1 2 3 4 5 6 
#
# 1 206.7986 151.0355 69.1617 0.0000 0.0000 0.0000
# 2 151.0355 223.6103 74.8585 0.0000 0.0000 0.0000
# 3 69.1617 74.8585 60.0349 0.0000 0.0000 0.0000
# 4 0.0000 0.0000 0.0000 160.8771 0.0000 0.0000
# 5 0.0000 0.0000 0.0000 0.0000 365.2792 0.0000
# 6 0.0000 0.0000 0.0000 0.0000 0.0000 163.9915
#
#
#
# Elastic Compliance Matrix: (Units=1/GPa)
#
#
# Indices 1 2 3 4 5 6 
#
# 1 0.010538 -0.005242 -0.005604 0.000000 0.000000 0.000000
# 2 -0.005242 0.010284 -0.006784 0.000000 0.000000 0.000000
# 3 -0.005604 -0.006784 0.031573 0.000000 0.000000 0.000000
# 4 0.000000 0.000000 0.000000 0.006216 0.000000 0.000000
# 5 0.000000 0.000000 0.000000 0.000000 0.002738 0.000000
# 6 0.000000 0.000000 0.000000 0.000000 0.000000 0.006098
#
#
# Mechanical properties :
#
#
# Convention : Reuss Voigt Hill
#
# Bulk Modulus (GPa) = 58.36347 120.06167 89.21257
# Shear Modulus (GPa) = 46.11759 151.05542 98.58651
#
# Velocity S-wave (km/s) = 4.00271 7.24417 5.85233
# Velocity P-wave (km/s) = 6.45277 10.56793 8.75555
#
# Compressibility (1/GPa) = 0.01713400
#
# Stress axis : x y z
#
# Youngs Moduli (GPa) = 94.89210 97.23986 31.67290
#
# Poissons Ratio (x) = 0.50972 0.17750
# Poissons Ratio (y) = 0.49741 0.21488
# Poissons Ratio (z) = 0.53179 0.65971
#
# Static dielectric constant tensor:
#      x y z
#    x 2.327150 0.000000 0.000000 
#    y 0.000000 2.170140 0.000000 
#    z 0.000000 0.000000 2.150120 
# 
# From -- ./inp_files/3476.got.cif
#   From: 2010.05.17/outbox.cif.g08.bks.cpg/sg21_2_cif.got.tgz:3476.got - 2010.06.03 23:14:55.
