data_PCOD9324562
_publ_section_title
;
Structure prediction by ZEFSAII (Michael W. Deem and Ramdas Pophale) SiO2 
 PCOD9324562
Probable space group: C 2 2 2
;
_chemical_formula_sum "Si O2"
_cell_formula_units_Z 58
_cell_length_a 16.991896
_cell_length_b 17.994278
_cell_length_c 8.849206
_cell_angle_alpha 90.000000
_cell_angle_beta 90.000000
_cell_angle_gamma 90.000000
_cell_volume 2705.705797
_symmetry_space_group_name_H-M "C 2 2 2"
_symmetry_group_IT_number 21
_symmetry_cell_setting 'orthorhombic'
loop_
_space_group_symop_operation_xyz
x,y,z
-x,-y,z
x,-y,-z
-x,y,-z
1/2+x,1/2+y,z
1/2-x,1/2-y,z
1/2+x,1/2-y,-z
1/2-x,1/2+y,-z
loop_
_atom_site_type_symbol
_atom_site_label
_atom_site_fract_x
_atom_site_fract_y
_atom_site_fract_z
Si Si1 0.084886 0.659790 0.073361
Si Si2 0.397762 0.654504 0.435712
Si Si3 0.673598 0.291836 0.919152
Si Si4 0.268259 0.924487 0.066889
Si Si5 0.000000 0.000000 0.000000
Si Si6 0.544218 0.616587 0.250224
Si Si7 0.917182 0.669952 0.566470
Si Si8 0.266736 0.079079 0.578492
O O1 0.143659 0.596149 0.013012
O O2 0.078689 0.660102 0.253287
O O3 0.130441 0.734646 0.028767
O O4 0.000000 0.656693 0.000000
O O5 0.453497 0.638442 0.289769
O O6 0.425221 0.604104 0.578917
O O7 0.407612 0.742199 0.468690
O O8 0.307502 0.633818 0.421910
O O9 0.750000 0.250000 0.847208
O O10 0.605141 0.321325 0.809686
O O11 0.711251 0.358524 0.015465
O O12 0.277291 0.934633 0.244355
O O13 0.237195 0.000000 0.000000
O O14 0.955631 0.054024 0.879891
O O15 0.842852 0.621525 0.513019
O O16 0.000000 0.644551 0.500000
O O17 0.252633 0.000000 0.500000
#
# Coordination Sequence:
#
# PCOD9324562 Si02
#       8
#     8   8   8   8   2   8   8   8
#     4  10  22  41  68  96 131 173 219 284 338 397
#     4  11  25  47  69 100 139 182 229 281 345 419
#     4  10  23  41  68 102 132 176 234 284 335 403
#     4  10  24  43  64  95 134 174 224 273 339 406
#     4  12  32  42  68 112 144 182 224 284 344 426
#     4  11  27  44  68 101 141 182 222 283 343 406
#     4  11  23  45  71 102 134 177 238 291 339 410
#     4  11  27  44  69  98 139 187 222 286 356 420
#
# _framework density 21.43618
#
# number of rings (size 3 to 8) (size 9 to 14) (size 15 to 20)
#    0.000    1.379    1.379    2.069    9.655    5.517 
#    0.000    2.759    0.000    0.000    0.000    0.000 
#    0.000    0.000    0.000    0.000    0.000    0.000 
#
# Total GULP energy -161882.026586 kJ/mol
# GULP energy per Si atom -5582.138848 kJ/mol
# Density = 2.138739 g / cm^3
# Si number density = 21.436180 Si / 1000 Ang^3
#
#
#
# Elastic Constant Matrix: (Units=GPa)
#
#
# Indices 1 2 3 4 5 6 
#
# 1 131.1162 7.8854 24.0277 0.0000 0.0000 0.0000
# 2 7.8854 47.2263 18.2282 0.0000 0.0000 0.0000
# 3 24.0277 18.2282 71.2919 0.0000 0.0000 0.0000
# 4 0.0000 0.0000 0.0000 17.0167 0.0000 0.0000
# 5 0.0000 0.0000 0.0000 0.0000 29.4940 0.0000
# 6 0.0000 0.0000 0.0000 0.0000 0.0000 -4.2607
#
#
#
# Elastic Compliance Matrix: (Units=1/GPa)
#
#
# Indices 1 2 3 4 5 6 
#
# 1 0.008134 -0.000333 -0.002656 0.000000 0.000000 0.000000
# 2 -0.000333 0.023507 -0.005898 0.000000 0.000000 0.000000
# 3 -0.002656 -0.005898 0.016430 0.000000 0.000000 0.000000
# 4 0.000000 0.000000 0.000000 0.058766 0.000000 0.000000
# 5 0.000000 0.000000 0.000000 0.000000 0.033905 0.000000
# 6 0.000000 0.000000 0.000000 0.000000 0.000000 -0.234704
#
#
# Mechanical properties :
#
#
# Convention : Reuss Voigt Hill
#
# Bulk Modulus (GPa) = 33.00750 38.87967 35.94359
# Shear Modulus (GPa) = -75.65545 21.74954 -26.95296
#
# Velocity S-wave (km/s) = -5.94727 3.18876 -3.54977
# Velocity P-wave (km/s) = 5.63280 5.63333 0.05433
#
# Compressibility (1/GPa) = 0.03029614
#
# Stress axis : x y z
#
# Youngs Moduli (GPa) = 122.94683 42.54096 60.86386
#
# Poissons Ratio (x) = 0.01416 0.16167
# Poissons Ratio (y) = 0.04092 0.35898
# Poissons Ratio (z) = 0.32657 0.25091
#
# Static dielectric constant tensor:
#      x y z
#    x 1.814740 0.000000 0.000000 
#    y 0.000000 1.778370 0.000000 
#    z 0.000000 0.000000 1.771100 
# 
# From -- ./inp_files/16675.got.cif
#   From: 2010.05.17/outbox.cif.g08.bks.cpg/sg21_9_cif.got.tgz:16675.got - 2010.06.03 23:14:55.
