data_PCOD9324051
_publ_section_title
;
Structure prediction by ZEFSAII (Michael W. Deem and Ramdas Pophale) SiO2 
 PCOD9324051
Probable space group: C 2 2 2
;
_chemical_formula_sum "Si O2"
_cell_formula_units_Z 64
_cell_length_a 9.029665
_cell_length_b 30.729800
_cell_length_c 11.721014
_cell_angle_alpha 90.000000
_cell_angle_beta 90.000000
_cell_angle_gamma 90.000000
_cell_volume 3252.344615
_symmetry_space_group_name_H-M "C 2 2 2"
_symmetry_group_IT_number 21
_symmetry_cell_setting 'orthorhombic'
loop_
_space_group_symop_operation_xyz
x,y,z
-x,-y,z
x,-y,-z
-x,y,-z
1/2+x,1/2+y,z
1/2-x,1/2-y,z
1/2+x,1/2-y,-z
1/2-x,1/2+y,-z
loop_
_atom_site_type_symbol
_atom_site_label
_atom_site_fract_x
_atom_site_fract_y
_atom_site_fract_z
Si Si1 0.840510 0.789032 0.745013
Si Si2 0.835584 0.320033 0.476410
Si Si3 0.655664 0.486861 0.369780
Si Si4 0.161267 0.592256 0.338452
Si Si5 0.901950 0.539583 0.235730
Si Si6 0.156792 0.877869 0.130987
Si Si7 0.317006 0.613931 0.861327
Si Si8 0.817426 0.203002 0.715445
O O1 0.750000 0.750000 0.800297
O O2 0.746443 0.799105 0.631272
O O3 0.848365 0.827633 0.835408
O O4 0.009466 0.785429 0.706970
O O5 0.853497 0.369358 0.429371
O O6 0.745183 0.312387 0.592394
O O7 0.000000 0.302427 0.500000
O O8 0.500000 0.500000 0.316527
O O9 0.654491 0.500000 0.500000
O O10 0.698579 0.436748 0.372036
O O11 0.782101 0.512425 0.304955
O O12 0.209492 0.605690 0.210347
O O13 0.012795 0.564617 0.321741
O O14 0.804493 0.577277 0.173444
O O15 0.000000 0.500000 0.176641
O O16 0.992592 0.896803 0.162437
O O17 0.187370 0.882930 0.998106
O O18 0.291125 0.661024 0.799039
O O19 0.750000 0.250000 0.749936
#
# Coordination Sequence:
#
# PCOD9324051 Si02
#       8
#     8   8   8   8   8   8   8   8
#     4  10  21  39  59  85 121 158 201 253 303 362
#     4  11  22  36  58  85 119 161 198 245 306 366
#     4  10  22  38  58  86 120 157 200 243 298 368
#     4  10  22  38  58  88 121 154 198 250 307 360
#     4  10  22  39  62  91 123 159 202 258 308 370
#     4   9  21  41  63  87 117 163 208 251 304 372
#     4  10  21  41  65  87 121 161 207 255 306 366
#     4  11  23  38  60  91 122 157 204 248 307 371
#
# _framework density 19.678111000000001
#
# number of rings (size 3 to 8) (size 9 to 14) (size 15 to 20)
#    0.000    1.875    0.000    3.000    3.500    3.750 
#    4.500    4.375    0.000    6.750    0.000    0.000 
#    0.000    0.000    0.000    0.000    0.000    0.000 
#
# Total GULP energy -178203.177215 kJ/mol
# GULP energy per Si atom -5568.849288 kJ/mol
# Density = 1.963332 g / cm^3
# Si number density = 19.678111 Si / 1000 Ang^3
#
#
#
# Elastic Constant Matrix: (Units=GPa)
#
#
# Indices 1 2 3 4 5 6 
#
# 1 133.2733 52.1411 24.6669 0.0000 0.0000 0.0000
# 2 52.1411 94.3574 27.5115 0.0000 0.0000 0.0000
# 3 24.6669 27.5115 57.6087 0.0000 0.0000 0.0000
# 4 0.0000 0.0000 0.0000 -31.0002 0.0000 0.0000
# 5 0.0000 0.0000 0.0000 0.0000 45.8624 0.0000
# 6 0.0000 0.0000 0.0000 0.0000 0.0000 37.7143
#
#
#
# Elastic Compliance Matrix: (Units=1/GPa)
#
#
# Indices 1 2 3 4 5 6 
#
# 1 0.009741 -0.004841 -0.001859 0.000000 0.000000 0.000000
# 2 -0.004841 0.014718 -0.004956 0.000000 0.000000 0.000000
# 3 -0.001859 -0.004956 0.020521 0.000000 0.000000 0.000000
# 4 0.000000 0.000000 0.000000 -0.032258 0.000000 0.000000
# 5 0.000000 0.000000 0.000000 0.000000 0.021804 0.000000
# 6 0.000000 0.000000 0.000000 0.000000 0.000000 0.026515
#
#
# Mechanical properties :
#
#
# Convention : Reuss Voigt Hill
#
# Bulk Modulus (GPa) = 46.14979 54.87537 50.51258
# Shear Modulus (GPa) = 54.59855 22.57664 38.58759
#
# Velocity S-wave (km/s) = 5.27315 3.39085 4.43305
# Velocity P-wave (km/s) = 7.78319 6.57857 7.20609
#
# Compressibility (1/GPa) = 0.02166857
#
# Stress axis : x y z
#
# Youngs Moduli (GPa) = 102.65425 67.94384 48.72976
#
# Poissons Ratio (x) = 0.32891 0.09060
# Poissons Ratio (y) = 0.49694 0.24150
# Poissons Ratio (z) = 0.19086 0.33672
#
# Static dielectric constant tensor:
#      x y z
#    x 1.840570 0.000000 0.000000 
#    y 0.000000 1.640600 0.000000 
#    z 0.000000 0.000000 1.645270 
# 
# From -- ./inp_files/23135.got.cif
#   From: 2010.05.17/outbox.cif.g08.bks.cpg/sg21_12_cif.got.tgz:23135.got - 2010.06.03 23:14:55.
