data_PCOD9324968
_publ_section_title
;
Structure prediction by ZEFSAII (Michael W. Deem and Ramdas Pophale) SiO2 
 PCOD9324968
Probable space group: C 2 2 2
;
_chemical_formula_sum "Si O2"
_cell_formula_units_Z 28
_cell_length_a 18.171363
_cell_length_b 13.094449
_cell_length_c 5.265114
_cell_angle_alpha 90.000000
_cell_angle_beta 90.000000
_cell_angle_gamma 90.000000
_cell_volume 1252.802212
_symmetry_space_group_name_H-M "C 2 2 2"
_symmetry_group_IT_number 21
_symmetry_cell_setting 'orthorhombic'
loop_
_space_group_symop_operation_xyz
x,y,z
-x,-y,z
x,-y,-z
-x,y,-z
1/2+x,1/2+y,z
1/2-x,1/2-y,z
1/2+x,1/2-y,-z
1/2-x,1/2+y,-z
loop_
_atom_site_type_symbol
_atom_site_label
_atom_site_fract_x
_atom_site_fract_y
_atom_site_fract_z
Si Si1 0.500000 0.702626 0.500000
Si Si2 0.890079 0.898285 0.830947
Si Si3 0.416274 0.800995 0.895189
Si Si4 0.778642 0.000000 0.500000
Si Si5 0.322176 0.000000 0.000000
O O1 0.530350 0.627578 0.714841
O O2 0.434298 0.774619 0.601331
O O3 0.834791 0.912224 0.594484
O O4 0.874446 0.797982 0.995833
O O5 0.887825 0.000000 0.000000
O O6 0.500000 0.809556 0.000000
O O7 0.373183 0.900462 0.979497
O O8 0.727955 0.989887 0.251783
#
# Coordination Sequence:
#
# PCOD9324968 Si02
#       5
#     4   8   8   4   4
#     4  10  24  43  83 110 152 196 251 339 378 438
#     4  11  24  48  70 115 149 193 256 306 387 444
#     4  10  25  48  76 111 145 199 251 328 371 445
#     4  12  28  49  71 106 150 210 234 312 366 460
#     4  12  29  52  72 111 154 202 258 294 388 461
#
# _framework density 22.349899000000001
#
# number of rings (size 3 to 8) (size 9 to 14) (size 15 to 20)
#    0.000    1.143    1.429    2.143    8.000   14.857 
#    5.143    0.000    0.000    0.000    0.000    0.000 
#    0.000    0.000    0.000    0.000    0.000    0.000 
#
# Total GULP energy -78135.973172 kJ/mol
# GULP energy per Si atom -5581.140941 kJ/mol
# Density = 2.229903 g / cm^3
# Si number density = 22.349899 Si / 1000 Ang^3
#
#
#
# Elastic Constant Matrix: (Units=GPa)
#
#
# Indices 1 2 3 4 5 6 
#
# 1 87.3917 60.3255 49.2182 0.0000 0.0000 0.0000
# 2 60.3255 197.9656 67.6062 0.0000 0.0000 0.0000
# 3 49.2182 67.6062 147.0959 0.0000 0.0000 0.0000
# 4 0.0000 0.0000 0.0000 18.3545 0.0000 0.0000
# 5 0.0000 0.0000 0.0000 0.0000 40.9123 0.0000
# 6 0.0000 0.0000 0.0000 0.0000 0.0000 11.9137
#
#
#
# Elastic Compliance Matrix: (Units=1/GPa)
#
#
# Indices 1 2 3 4 5 6 
#
# 1 0.016024 -0.003620 -0.003698 0.000000 0.000000 0.000000
# 2 -0.003620 0.006810 -0.001918 0.000000 0.000000 0.000000
# 3 -0.003698 -0.001918 0.008917 0.000000 0.000000 0.000000
# 4 0.000000 0.000000 0.000000 0.054482 0.000000 0.000000
# 5 0.000000 0.000000 0.000000 0.000000 0.024443 0.000000
# 6 0.000000 0.000000 0.000000 0.000000 0.000000 0.083937
#
#
# Mechanical properties :
#
#
# Convention : Reuss Voigt Hill
#
# Bulk Modulus (GPa) = 75.31086 87.41701 81.36393
# Shear Modulus (GPa) = 22.98719 31.25633 27.12176
#
# Velocity S-wave (km/s) = 3.21053 3.74371 3.48732
# Velocity P-wave (km/s) = 6.89295 7.60822 7.25940
#
# Compressibility (1/GPa) = 0.01327830
#
# Stress axis : x y z
#
# Youngs Moduli (GPa) = 62.40511 146.84881 112.14115
#
# Poissons Ratio (x) = 0.53162 0.41468
# Poissons Ratio (y) = 0.22592 0.21514
# Poissons Ratio (z) = 0.23077 0.28173
#
# Static dielectric constant tensor:
#      x y z
#    x 1.862650 0.000000 0.000000 
#    y 0.000000 1.787270 0.000000 
#    z 0.000000 0.000000 1.987220 
# 
# From -- ./inp_files/5536.got.cif
#   From: 2010.05.17/outbox.cif.g08.bks.cpg/sg21_3_cif.got.tgz:5536.got - 2010.06.03 23:14:55.
