data_PCOD9324920
_publ_section_title
;
Structure prediction by ZEFSAII (Michael W. Deem and Ramdas Pophale) SiO2 
 PCOD9324920
Probable space group: C 2 2 2
;
_chemical_formula_sum "Si O2"
_cell_formula_units_Z 58
_cell_length_a 12.179648
_cell_length_b 15.363006
_cell_length_c 13.741353
_cell_angle_alpha 90.000000
_cell_angle_beta 90.000000
_cell_angle_gamma 90.000000
_cell_volume 2571.227081
_symmetry_space_group_name_H-M "C 2 2 2"
_symmetry_group_IT_number 21
_symmetry_cell_setting 'orthorhombic'
loop_
_space_group_symop_operation_xyz
x,y,z
-x,-y,z
x,-y,-z
-x,y,-z
1/2+x,1/2+y,z
1/2-x,1/2-y,z
1/2+x,1/2-y,-z
1/2-x,1/2+y,-z
loop_
_atom_site_type_symbol
_atom_site_label
_atom_site_fract_x
_atom_site_fract_y
_atom_site_fract_z
Si Si1 0.495748 0.788891 0.611863
Si Si2 0.851267 0.115601 0.149981
Si Si3 0.500000 0.500000 0.000000
Si Si4 0.379573 0.890279 0.244184
Si Si5 0.150521 0.461481 0.396426
Si Si6 0.505636 0.219608 0.109560
Si Si7 0.354936 0.309316 0.239356
Si Si8 0.380938 0.510300 0.677694
O O1 0.500000 0.761837 0.500000
O O2 0.608199 0.822212 0.663986
O O3 0.410103 0.870005 0.613286
O O4 0.443850 0.715625 0.678974
O O5 0.719201 0.114191 0.165317
O O6 0.895784 0.212914 0.132743
O O7 0.878328 0.076481 0.256560
O O8 0.918431 0.058038 0.069542
O O9 0.484385 0.862007 0.181156
O O10 0.378277 0.980027 0.302427
O O11 0.115638 0.500000 0.500000
O O12 0.282530 0.467348 0.394778
O O13 0.398955 0.275385 0.136867
O O14 0.500000 0.191877 0.000000
O O15 0.250000 0.250000 0.262040
O O16 0.355548 0.412875 0.243221
O O17 0.500000 0.500000 0.630957
#
# Coordination Sequence:
#
# PCOD9324920 Si02
#       8
#     8   8   2   8   8   8   8   8
#     4  11  22  43  70  97 133 185 241 292 357 443
#     4  11  22  41  67  99 134 181 236 291 356 421
#     4  12  20  40  72  96 128 188 250 276 342 444
#     4  10  24  39  65 103 137 174 230 302 351 416
#     4  11  22  41  71  99 134 187 237 288 362 440
#     4  11  23  44  67  97 140 184 233 289 355 431
#     4  11  23  43  66  99 136 179 232 296 361 425
#     4  11  22  43  65  98 145 177 229 304 360 423
#
# _framework density 22.557323
#
# number of rings (size 3 to 8) (size 9 to 14) (size 15 to 20)
#    0.000    1.103    5.517    0.828    0.000    1.379 
#    2.483    2.759    0.000    0.828    0.000    0.000 
#    0.000    0.000    0.000    0.000    0.000    0.000 
#
# Total GULP energy -161587.740666 kJ/mol
# GULP energy per Si atom -5571.991057 kJ/mol
# Density = 2.250598 g / cm^3
# Si number density = 22.557323 Si / 1000 Ang^3
#
#
#
# Elastic Constant Matrix: (Units=GPa)
#
#
# Indices 1 2 3 4 5 6 
#
# 1 100.4190 2.3076 1.7326 0.0000 0.0000 0.0000
# 2 2.3076 49.3308 4.2752 0.0000 0.0000 0.0000
# 3 1.7326 4.2752 83.7024 0.0000 0.0000 0.0000
# 4 0.0000 0.0000 0.0000 29.6701 0.0000 0.0000
# 5 0.0000 0.0000 0.0000 0.0000 23.5720 0.0000
# 6 0.0000 0.0000 0.0000 0.0000 0.0000 11.6849
#
#
#
# Elastic Compliance Matrix: (Units=1/GPa)
#
#
# Indices 1 2 3 4 5 6 
#
# 1 0.009972 -0.000451 -0.000183 0.000000 0.000000 0.000000
# 2 -0.000451 0.020382 -0.001032 0.000000 0.000000 0.000000
# 3 -0.000183 -0.001032 0.012004 0.000000 0.000000 0.000000
# 4 0.000000 0.000000 0.000000 0.033704 0.000000 0.000000
# 5 0.000000 0.000000 0.000000 0.000000 0.042423 0.000000
# 6 0.000000 0.000000 0.000000 0.000000 0.000000 0.085580
#
#
# Mechanical properties :
#
#
# Convention : Reuss Voigt Hill
#
# Bulk Modulus (GPa) = 25.62405 27.78700 26.70552
# Shear Modulus (GPa) = 22.68556 27.99453 25.34005
#
# Velocity S-wave (km/s) = 3.17469 3.52666 3.35530
# Velocity P-wave (km/s) = 4.98221 5.37850 5.18414
#
# Compressibility (1/GPa) = 0.03902584
#
# Stress axis : x y z
#
# Youngs Moduli (GPa) = 100.28283 49.06342 83.30845
#
# Poissons Ratio (x) = 0.02211 0.01528
# Poissons Ratio (y) = 0.04518 0.08595
# Poissons Ratio (z) = 0.01839 0.05062
#
# Static dielectric constant tensor:
#      x y z
#    x 1.990820 0.000000 0.000000 
#    y 0.000000 1.875210 0.000000 
#    z 0.000000 0.000000 1.834610 
# 
# From -- ./inp_files/31719.got.cif
#   From: 2010.05.17/outbox.cif.g08.bks.cpg/sg21_16_cif.got.tgz:31719.got - 2010.06.03 23:14:55.
