data_PCOD9324800
_publ_section_title
;
Structure prediction by ZEFSAII (Michael W. Deem and Ramdas Pophale) SiO2 
 PCOD9324800
Probable space group: C 2 2 2
;
_chemical_formula_sum "Si O2"
_cell_formula_units_Z 56
_cell_length_a 24.893899
_cell_length_b 9.750714
_cell_length_c 13.118073
_cell_angle_alpha 90.000000
_cell_angle_beta 90.000000
_cell_angle_gamma 90.000000
_cell_volume 3184.193011
_symmetry_space_group_name_H-M "C 2 2 2"
_symmetry_group_IT_number 21
_symmetry_cell_setting 'orthorhombic'
loop_
_space_group_symop_operation_xyz
x,y,z
-x,-y,z
x,-y,-z
-x,y,-z
1/2+x,1/2+y,z
1/2-x,1/2-y,z
1/2+x,1/2-y,-z
1/2-x,1/2+y,-z
loop_
_atom_site_type_symbol
_atom_site_label
_atom_site_fract_x
_atom_site_fract_y
_atom_site_fract_z
Si Si1 0.804674 0.662426 0.121812
Si Si2 0.404419 0.222680 0.746541
Si Si3 0.695010 0.834551 0.884897
Si Si4 0.564470 0.474703 0.380822
Si Si5 0.563793 0.972938 0.384871
Si Si6 0.999277 0.165675 0.881482
Si Si7 0.599530 0.275102 0.742271
O O1 0.750000 0.750000 0.131924
O O2 0.796969 0.497991 0.134527
O O3 0.847015 0.721139 0.203402
O O4 0.823209 0.680706 0.003510
O O5 0.348569 0.225537 0.806680
O O6 0.416571 0.324808 0.652797
O O7 0.450385 0.265547 0.826213
O O8 0.411328 0.073025 0.699163
O O9 0.750000 0.750000 0.874827
O O10 0.500000 0.500000 0.362682
O O11 0.573389 0.500000 0.500000
O O12 0.598714 0.575583 0.308871
O O13 0.578744 0.822320 0.348151
O O14 0.500000 0.000000 0.383126
O O15 0.582594 0.000000 0.500000
O O16 0.946103 0.221541 0.828390
O O17 0.000000 0.000000 0.870387
O O18 0.000000 0.197716 0.000000
#
# Coordination Sequence:
#
# PCOD9324800 Si02
#       7
#     8   8   8   8   8   8   8
#     4  10  23  41  62  88 117 155 199 241 291 356
#     4  12  20  39  58  88 120 154 193 243 298 343
#     4  10  23  41  62  88 117 155 199 241 291 356
#     4  11  22  38  61  88 121 159 206 244 282 348
#     4  11  22  36  59  88 121 155 194 238 292 356
#     4  11  22  35  54  87 123 159 193 233 290 355
#     4  12  20  39  58  88 120 154 193 243 298 343
#
# _framework density 17.586873000000001
#
# number of rings (size 3 to 8) (size 9 to 14) (size 15 to 20)
#    0.000    1.000    5.714    1.714    2.000    2.286 
#    0.000    0.714    0.000    5.143    0.000    0.000 
#    0.000    0.000    0.000    0.000    0.000    0.000 
#
# Total GULP energy -156280.350563 kJ/mol
# GULP energy per Si atom -5581.441092 kJ/mol
# Density = 1.754684 g / cm^3
# Si number density = 17.586873 Si / 1000 Ang^3
#
#
#
# Elastic Constant Matrix: (Units=GPa)
#
#
# Indices 1 2 3 4 5 6 
#
# 1 74.0675 8.5911 31.9959 0.0000 0.0000 0.0000
# 2 8.5911 33.6661 -5.9219 0.0000 0.0000 0.0000
# 3 31.9959 -5.9219 102.5718 0.0000 0.0000 0.0000
# 4 0.0000 0.0000 0.0000 125.3480 0.0000 0.0000
# 5 0.0000 0.0000 0.0000 0.0000 23.6923 0.0000
# 6 0.0000 0.0000 0.0000 0.0000 0.0000 -17.9833
#
#
#
# Elastic Compliance Matrix: (Units=1/GPa)
#
#
# Indices 1 2 3 4 5 6 
#
# 1 0.016443 -0.005150 -0.005426 0.000000 0.000000 0.000000
# 2 -0.005150 0.031622 0.003432 0.000000 0.000000 0.000000
# 3 -0.005426 0.003432 0.011640 0.000000 0.000000 0.000000
# 4 0.000000 0.000000 0.000000 0.007978 0.000000 0.000000
# 5 0.000000 0.000000 0.000000 0.000000 0.042208 0.000000
# 6 0.000000 0.000000 0.000000 0.000000 0.000000 -0.055607
#
#
# Mechanical properties :
#
#
# Convention : Reuss Voigt Hill
#
# Bulk Modulus (GPa) = 22.01909 31.07061 26.54485
# Shear Modulus (GPa) = 59.72970 37.92076 48.82523
#
# Velocity S-wave (km/s) = 5.83407 4.64852 5.27471
# Velocity P-wave (km/s) = 7.61112 6.82034 7.22656
#
# Compressibility (1/GPa) = 0.04541514
#
# Stress axis : x y z
#
# Youngs Moduli (GPa) = 60.81718 31.62402 85.90962
#
# Poissons Ratio (x) = 0.16288 0.46618
# Poissons Ratio (y) = 0.31324 -0.29486
# Poissons Ratio (z) = 0.33002 -0.10854
#
# Static dielectric constant tensor:
#      x y z
#    x 1.493350 0.000000 0.000000 
#    y 0.000000 1.590390 0.000000 
#    z 0.000000 0.000000 1.588390 
# 
# From -- ./inp_files/33301.got.cif
#   From: 2010.05.17/outbox.cif.g08.bks.cpg/sg21_17_cif.got.tgz:33301.got - 2010.06.03 23:14:55.
