data_PCOD9324278
_publ_section_title
;
Structure prediction by ZEFSAII (Michael W. Deem and Ramdas Pophale) SiO2 
 PCOD9324278
Probable space group: C 2 2 2
;
_chemical_formula_sum "Si O2"
_cell_formula_units_Z 64
_cell_length_a 8.401784
_cell_length_b 27.331509
_cell_length_c 12.576985
_cell_angle_alpha 90.000000
_cell_angle_beta 90.000000
_cell_angle_gamma 90.000000
_cell_volume 2888.096268
_symmetry_space_group_name_H-M "C 2 2 2"
_symmetry_group_IT_number 21
_symmetry_cell_setting 'orthorhombic'
loop_
_space_group_symop_operation_xyz
x,y,z
-x,-y,z
x,-y,-z
-x,y,-z
1/2+x,1/2+y,z
1/2-x,1/2-y,z
1/2+x,1/2-y,-z
1/2-x,1/2+y,-z
loop_
_atom_site_type_symbol
_atom_site_label
_atom_site_fract_x
_atom_site_fract_y
_atom_site_fract_z
Si Si1 0.784214 0.116218 0.676840
Si Si2 0.350011 0.861851 0.460497
Si Si3 0.487025 0.268847 0.160423
Si Si4 0.188515 0.506318 0.626509
Si Si5 0.837751 0.141534 0.066198
Si Si6 0.162930 0.327213 0.122086
Si Si7 0.148003 0.912945 0.279826
Si Si8 0.435786 0.757415 0.390084
O O1 0.757755 0.145129 0.565488
O O2 0.728124 0.061315 0.657418
O O3 0.683039 0.141030 0.771305
O O4 0.968517 0.107926 0.707206
O O5 0.500000 0.894068 0.500000
O O6 0.247972 0.884989 0.369106
O O7 0.438475 0.815746 0.405858
O O8 0.625270 0.304503 0.118129
O O9 0.326162 0.295126 0.124258
O O10 0.478384 0.212429 0.124014
O O11 0.482036 0.264639 0.287757
O O12 0.220035 0.500000 0.500000
O O13 0.303255 0.468768 0.691752
O O14 0.000000 0.500000 0.647104
O O15 0.807454 0.104105 0.161590
O O16 0.691659 0.142561 0.984522
O O17 0.000000 0.128753 0.000000
O O18 0.500000 0.736073 0.500000
O O19 0.250000 0.750000 0.377118
#
# Coordination Sequence:
#
# PCOD9324278 Si02
#       8
#     8   8   8   8   8   8   8   8
#     4  12  23  41  73 101 139 175 236 281 351 418
#     4  11  24  40  59  96 143 179 216 281 350 414
#     4  10  21  43  66  94 134 188 238 283 342 402
#     4  11  25  46  73 104 144 178 217 282 360 439
#     4  10  21  45  66 102 140 180 244 297 350 396
#     4  10  22  42  73  95 138 187 234 299 342 400
#     4  12  23  42  74 105 134 181 235 289 348 422
#     4  11  25  37  58  91 138 182 234 277 347 410
#
# _framework density 22.159928000000001
#
# number of rings (size 3 to 8) (size 9 to 14) (size 15 to 20)
#    0.000    1.125    3.750    3.750    3.500    0.500 
#   18.000    0.625    0.000    0.750    0.000    0.000 
#    0.000    0.000    0.000    0.000    0.000    0.000 
#
# Total GULP energy -178756.684127 kJ/mol
# GULP energy per Si atom -5586.146379 kJ/mol
# Density = 2.210949 g / cm^3
# Si number density = 22.159928 Si / 1000 Ang^3
#
#
#
# Elastic Constant Matrix: (Units=GPa)
#
#
# Indices 1 2 3 4 5 6 
#
# 1 50.0475 15.2274 11.1415 0.0000 0.0000 0.0000
# 2 15.2274 95.8477 47.1180 0.0000 0.0000 0.0000
# 3 11.1415 47.1180 164.0377 0.0000 0.0000 0.0000
# 4 0.0000 0.0000 0.0000 22.6392 0.0000 0.0000
# 5 0.0000 0.0000 0.0000 0.0000 -4.1262 0.0000
# 6 0.0000 0.0000 0.0000 0.0000 0.0000 27.4849
#
#
#
# Elastic Compliance Matrix: (Units=1/GPa)
#
#
# Indices 1 2 3 4 5 6 
#
# 1 0.021038 -0.003074 -0.000546 0.000000 0.000000 0.000000
# 2 -0.003074 0.012598 -0.003410 0.000000 0.000000 0.000000
# 3 -0.000546 -0.003410 0.007113 0.000000 0.000000 0.000000
# 4 0.000000 0.000000 0.000000 0.044171 0.000000 0.000000
# 5 0.000000 0.000000 0.000000 0.000000 -0.242352 0.000000
# 6 0.000000 0.000000 0.000000 0.000000 0.000000 0.036384
#
#
# Mechanical properties :
#
#
# Convention : Reuss Voigt Hill
#
# Bulk Modulus (GPa) = 37.46865 50.76741 44.11803
# Shear Modulus (GPa) = -50.97209 24.96263 -13.00473
#
# Velocity S-wave (km/s) = -4.80124 3.35994 -2.42514
# Velocity P-wave (km/s) = 3.71360 6.16535 3.48000
#
# Compressibility (1/GPa) = 0.02668898
#
# Stress axis : x y z
#
# Youngs Moduli (GPa) = 47.53344 79.37894 140.59420
#
# Poissons Ratio (x) = 0.24400 0.07676
# Poissons Ratio (y) = 0.14611 0.47940
# Poissons Ratio (z) = 0.02595 0.27067
#
# Static dielectric constant tensor:
#      x y z
#    x 1.844290 0.000000 0.000000 
#    y 0.000000 2.088110 0.000000 
#    z 0.000000 0.000000 1.807830 
# 
# From -- ./inp_files/23139.got.cif
#   From: 2010.05.17/outbox.cif.g08.bks.cpg/sg21_12_cif.got.tgz:23139.got - 2010.06.03 23:14:55.
