data_PCOD9324846
_publ_section_title
;
Structure prediction by ZEFSAII (Michael W. Deem and Ramdas Pophale) SiO2 
 PCOD9324846
Probable space group: C 2 2 2
;
_chemical_formula_sum "Si O2"
_cell_formula_units_Z 32
_cell_length_a 7.910515
_cell_length_b 18.529768
_cell_length_c 10.314465
_cell_angle_alpha 90.000000
_cell_angle_beta 90.000000
_cell_angle_gamma 90.000000
_cell_volume 1511.894359
_symmetry_space_group_name_H-M "C 2 2 2"
_symmetry_group_IT_number 21
_symmetry_cell_setting 'orthorhombic'
loop_
_space_group_symop_operation_xyz
x,y,z
-x,-y,z
x,-y,-z
-x,y,-z
1/2+x,1/2+y,z
1/2-x,1/2-y,z
1/2+x,1/2-y,-z
1/2-x,1/2+y,-z
loop_
_atom_site_type_symbol
_atom_site_label
_atom_site_fract_x
_atom_site_fract_y
_atom_site_fract_z
Si Si1 0.782073 0.163640 0.121218
Si Si2 0.163033 0.550520 0.330265
Si Si3 0.683676 0.668909 0.162360
Si Si4 0.325110 0.412959 0.421766
O O1 0.750000 0.250000 0.135405
O O2 0.690255 0.109959 0.220357
O O3 0.982607 0.158802 0.146054
O O4 0.741799 0.139319 0.973467
O O5 0.313134 0.491470 0.351966
O O6 0.180813 0.589408 0.468785
O O7 0.000000 0.500000 0.311487
O O8 0.750000 0.750000 0.162115
O O9 0.719828 0.638304 0.303335
O O10 0.500000 0.398158 0.500000
#
# Coordination Sequence:
#
# PCOD9324846 Si02
#       4
#     8   8   8   8
#     4  10  23  44  68  99 136 176 227 287 349 413
#     4  11  24  42  66  99 138 179 223 282 347 414
#     4  10  23  43  69  98 133 180 230 287 344 412
#     4  11  22  42  65  93 136 180 229 284 339 409
#
# _framework density 21.165500999999999
#
# number of rings (size 3 to 8) (size 9 to 14) (size 15 to 20)
#    0.000    1.500    2.500    3.000    3.500    2.000 
#    0.000    5.000    0.000    0.000    0.000    0.000 
#    0.000    0.000    0.000    0.000    0.000    0.000 
#
# Total GULP energy -89137.398922 kJ/mol
# GULP energy per Si atom -5571.087433 kJ/mol
# Density = 2.111733 g / cm^3
# Si number density = 21.165501 Si / 1000 Ang^3
#
#
#
# Elastic Constant Matrix: (Units=GPa)
#
#
# Indices 1 2 3 4 5 6 
#
# 1 98.8501 38.4564 56.7140 0.0000 0.0000 0.0000
# 2 38.4564 76.7226 111.2353 0.0000 0.0000 0.0000
# 3 56.7140 111.2353 230.4330 0.0000 0.0000 0.0000
# 4 0.0000 0.0000 0.0000 65.3794 0.0000 0.0000
# 5 0.0000 0.0000 0.0000 0.0000 -7.2918 0.0000
# 6 0.0000 0.0000 0.0000 0.0000 0.0000 31.9950
#
#
#
# Elastic Compliance Matrix: (Units=1/GPa)
#
#
# Indices 1 2 3 4 5 6 
#
# 1 0.012569 -0.006048 -0.000174 0.000000 0.000000 0.000000
# 2 -0.006048 0.046338 -0.020880 0.000000 0.000000 0.000000
# 3 -0.000174 -0.020880 0.014462 0.000000 0.000000 0.000000
# 4 0.000000 0.000000 0.000000 0.015295 0.000000 0.000000
# 5 0.000000 0.000000 0.000000 0.000000 -0.137140 0.000000
# 6 0.000000 0.000000 0.000000 0.000000 0.000000 0.031255
#
#
# Mechanical properties :
#
#
# Convention : Reuss Voigt Hill
#
# Bulk Modulus (GPa) = 52.17792 90.97967 71.57879
# Shear Modulus (GPa) = 115.28701 31.32319 73.30510
#
# Velocity S-wave (km/s) = 7.38834 3.85114 5.89147
# Velocity P-wave (km/s) = 9.87367 7.92801 8.95384
#
# Compressibility (1/GPa) = 0.01916520
#
# Stress axis : x y z
#
# Youngs Moduli (GPa) = 79.56085 21.58072 69.14817
#
# Poissons Ratio (x) = 0.13051 0.01204
# Poissons Ratio (y) = 0.48115 1.44380
# Poissons Ratio (z) = 0.01386 0.45060
#
# Static dielectric constant tensor:
#      x y z
#    x 1.799680 0.000000 0.000000 
#    y 0.000000 1.794500 0.000000 
#    z 0.000000 0.000000 1.820570 
# 
# From -- ./inp_files/10457.got.cif
#   From: 2010.05.17/outbox.cif.g08.bks.cpg/sg21_6_cif.got.tgz:10457.got - 2010.06.03 23:14:55.
