data_PCOD9324317
_publ_section_title
;
Structure prediction by ZEFSAII (Michael W. Deem and Ramdas Pophale) SiO2 
 PCOD9324317
Probable space group: C 2 2 2
;
_chemical_formula_sum "Si O2"
_cell_formula_units_Z 38
_cell_length_a 26.498456
_cell_length_b 9.950600
_cell_length_c 8.449601
_cell_angle_alpha 90.000000
_cell_angle_beta 90.000000
_cell_angle_gamma 90.000000
_cell_volume 2227.953075
_symmetry_space_group_name_H-M "C 2 2 2"
_symmetry_group_IT_number 21
_symmetry_cell_setting 'orthorhombic'
loop_
_space_group_symop_operation_xyz
x,y,z
-x,-y,z
x,-y,-z
-x,y,-z
1/2+x,1/2+y,z
1/2-x,1/2-y,z
1/2+x,1/2-y,-z
1/2-x,1/2+y,-z
loop_
_atom_site_type_symbol
_atom_site_label
_atom_site_fract_x
_atom_site_fract_y
_atom_site_fract_z
Si Si1 0.330899 0.872038 0.383811
Si Si2 0.750000 0.750000 0.839223
Si Si3 0.098726 0.373947 0.907219
Si Si4 0.339896 0.642299 0.942573
Si Si5 0.797531 0.855615 0.411885
Si Si6 0.000000 0.500000 0.000000
O O1 0.281089 0.853245 0.272252
O O2 0.377550 0.876495 0.265218
O O3 0.334276 0.733600 0.479976
O O4 0.328189 0.000000 0.500000
O O5 0.708741 0.679807 0.949552
O O6 0.039204 0.405495 0.906048
O O7 0.122599 0.500000 0.000000
O O8 0.117321 0.249244 0.011213
O O9 0.321177 0.632236 0.762212
O O10 0.358981 0.500000 0.000000
O O11 0.750000 0.750000 0.399013
O O12 0.789221 0.000000 0.500000
#
# Coordination Sequence:
#
# PCOD9324317 Si02
#       6
#     8   4   8   8   8   2
#     4  11  22  35  56  87 123 159 197 242 293 347
#     4  10  22  34  52  82 126 168 204 228 274 348
#     4   9  20  41  64  87 113 149 199 254 307 363
#     4  11  23  37  58  86 119 165 209 244 283 351
#     4  12  24  37  52  80 126 168 203 238 285 343
#     4   8  20  44  72  84 116 140 212 256 316 362
#
# _framework density 17.056014999999999
#
# number of rings (size 3 to 8) (size 9 to 14) (size 15 to 20)
#    0.632    0.842    2.105    4.421    2.947    3.368 
#    0.000    1.053    0.000    0.000    0.000    0.000 
#    0.000    0.000    0.000    0.000    0.000    0.000 
#
# Total GULP energy -105824.665785 kJ/mol
# GULP energy per Si atom -5569.719252 kJ/mol
# Density = 1.701719 g / cm^3
# Si number density = 17.056015 Si / 1000 Ang^3
#
#
#
# Elastic Constant Matrix: (Units=GPa)
#
#
# Indices 1 2 3 4 5 6 
#
# 1 109.9351 47.2065 57.9287 0.0000 0.0000 0.0000
# 2 47.2065 158.6591 67.4449 0.0000 0.0000 0.0000
# 3 57.9287 67.4449 148.3930 0.0000 0.0000 0.0000
# 4 0.0000 0.0000 0.0000 32.0461 0.0000 0.0000
# 5 0.0000 0.0000 0.0000 0.0000 18.1738 0.0000
# 6 0.0000 0.0000 0.0000 0.0000 0.0000 12.5324
#
#
#
# Elastic Compliance Matrix: (Units=1/GPa)
#
#
# Indices 1 2 3 4 5 6 
#
# 1 0.011917 -0.001944 -0.003769 0.000000 0.000000 0.000000
# 2 -0.001944 0.008129 -0.002936 0.000000 0.000000 0.000000
# 3 -0.003769 -0.002936 0.009544 0.000000 0.000000 0.000000
# 4 0.000000 0.000000 0.000000 0.031205 0.000000 0.000000
# 5 0.000000 0.000000 0.000000 0.000000 0.055024 0.000000
# 6 0.000000 0.000000 0.000000 0.000000 0.000000 0.079793
#
#
# Mechanical properties :
#
#
# Convention : Reuss Voigt Hill
#
# Bulk Modulus (GPa) = 81.34107 84.68302 83.01205
# Shear Modulus (GPa) = 23.04070 28.84426 25.94248
#
# Velocity S-wave (km/s) = 3.67943 4.11682 3.90425
# Velocity P-wave (km/s) = 8.11449 8.50619 8.31265
#
# Compressibility (1/GPa) = 0.01229391
#
# Stress axis : x y z
#
# Youngs Moduli (GPa) = 83.91605 123.01351 104.77320
#
# Poissons Ratio (x) = 0.23909 0.39485
# Poissons Ratio (y) = 0.16310 0.30761
# Poissons Ratio (z) = 0.31624 0.36117
#
# Static dielectric constant tensor:
#      x y z
#    x 1.584220 0.000000 0.000000 
#    y 0.000000 1.571140 0.000000 
#    z 0.000000 0.000000 1.613910 
# 
# From -- ./inp_files/18252.got.cif
#   From: 2010.05.17/outbox.cif.g08.bks.cpg/sg21_10_cif.got.tgz:18252.got - 2010.06.03 23:14:55.
