data_PCOD9324437
_publ_section_title
;
Structure prediction by ZEFSAII (Michael W. Deem and Ramdas Pophale) SiO2 
 PCOD9324437
Probable space group: C 2 2 2
;
_chemical_formula_sum "Si O2"
_cell_formula_units_Z 30
_cell_length_a 36.498029
_cell_length_b 5.377807
_cell_length_c 7.234455
_cell_angle_alpha 90.000000
_cell_angle_beta 90.000000
_cell_angle_gamma 90.000000
_cell_volume 1419.974167
_symmetry_space_group_name_H-M "C 2 2 2"
_symmetry_group_IT_number 21
_symmetry_cell_setting 'orthorhombic'
loop_
_space_group_symop_operation_xyz
x,y,z
-x,-y,z
x,-y,-z
-x,y,-z
1/2+x,1/2+y,z
1/2-x,1/2-y,z
1/2+x,1/2-y,-z
1/2-x,1/2+y,-z
loop_
_atom_site_type_symbol
_atom_site_label
_atom_site_fract_x
_atom_site_fract_y
_atom_site_fract_z
Si Si1 0.339476 0.498104 0.777430
Si Si2 0.037184 0.609125 0.209106
Si Si3 0.117644 0.498392 0.224534
Si Si4 0.273919 0.500000 0.500000
Si Si5 0.000000 0.000000 0.000000
O O1 0.357872 0.235779 0.722698
O O2 0.300855 0.521331 0.675817
O O3 0.364834 0.734118 0.724199
O O4 0.335561 0.500000 0.000000
O O5 0.076153 0.544355 0.291232
O O6 0.000000 0.500000 0.295672
O O7 0.037444 0.500000 0.000000
O O8 0.028678 0.889592 0.151387
O O9 0.116349 0.500000 0.000000
O O10 0.250000 0.750000 0.486048
#
# Coordination Sequence:
#
# PCOD9324437 Si02
#       5
#     8   8   8   4   2
#     4  10  22  39  60  90 117 151 191 233 287 345
#     4   8  15  22  38  70 111 158 197 241 284 325
#     4   9  18  31  53  80 120 156 195 241 282 331
#     4  12  26  44  68  90 117 148 183 234 294 362
#     4   8  14  20  36  66 116 154 206 236 296 320
#
# _framework density 21.127144000000001
#
# number of rings (size 3 to 8) (size 9 to 14) (size 15 to 20)
#    0.000    2.933    0.000    1.600   13.067    1.067 
#    0.000    0.000    0.000    0.000    0.000    5.600 
#    0.000    0.000    0.000    0.000    0.000    0.000 
#
# Total GULP energy -83524.602776 kJ/mol
# GULP energy per Si atom -5568.306852 kJ/mol
# Density = 2.107906 g / cm^3
# Si number density = 21.127144 Si / 1000 Ang^3
#
#
#
# Elastic Constant Matrix: (Units=GPa)
#
#
# Indices 1 2 3 4 5 6 
#
# 1 182.3040 79.6372 31.0225 0.0000 0.0000 0.0000
# 2 79.6372 132.5270 13.4627 0.0000 0.0000 0.0000
# 3 31.0225 13.4627 89.0055 0.0000 0.0000 0.0000
# 4 0.0000 0.0000 0.0000 -10.4372 0.0000 0.0000
# 5 0.0000 0.0000 0.0000 0.0000 264.9392 0.0000
# 6 0.0000 0.0000 0.0000 0.0000 0.0000 56.3564
#
#
#
# Elastic Compliance Matrix: (Units=1/GPa)
#
#
# Indices 1 2 3 4 5 6 
#
# 1 0.007785 -0.004471 -0.002037 0.000000 0.000000 0.000000
# 2 -0.004471 0.010231 0.000011 0.000000 0.000000 0.000000
# 3 -0.002037 0.000011 0.011944 0.000000 0.000000 0.000000
# 4 0.000000 0.000000 0.000000 -0.095811 0.000000 0.000000
# 5 0.000000 0.000000 0.000000 0.000000 0.003774 0.000000
# 6 0.000000 0.000000 0.000000 0.000000 0.000000 0.017744
#
#
# Mechanical properties :
#
#
# Convention : Reuss Voigt Hill
#
# Bulk Modulus (GPa) = 58.94466 72.45350 65.69908
# Shear Modulus (GPa) = -194.68810 80.81929 -56.93441
#
# Velocity S-wave (km/s) = -9.60993 6.19167 -5.19682
# Velocity P-wave (km/s) = 9.75571 9.24577 2.20109
#
# Compressibility (1/GPa) = 0.01696507
#
# Stress axis : x y z
#
# Youngs Moduli (GPa) = 128.44809 97.73837 83.72639
#
# Poissons Ratio (x) = 0.43702 0.17057
# Poissons Ratio (y) = 0.57433 -0.00091
# Poissons Ratio (z) = 0.26167 -0.00106
#
# Static dielectric constant tensor:
#      x y z
#    x 1.807250 0.000000 0.000000 
#    y 0.000000 1.557540 0.000000 
#    z 0.000000 0.000000 1.795270 
# 
# From -- ./inp_files/9074.got.cif
#   From: 2010.05.17/outbox.cif.g08.bks.cpg/sg21_5_cif.got.tgz:9074.got - 2010.06.03 23:14:55.
