data_PCOD9324356
_publ_section_title
;
Structure prediction by ZEFSAII (Michael W. Deem and Ramdas Pophale) SiO2 
 PCOD9324356
Probable space group: C 2 2 2
;
_chemical_formula_sum "Si O2"
_cell_formula_units_Z 40
_cell_length_a 13.163557
_cell_length_b 26.882978
_cell_length_c 5.227572
_cell_angle_alpha 90.000000
_cell_angle_beta 90.000000
_cell_angle_gamma 90.000000
_cell_volume 1849.910247
_symmetry_space_group_name_H-M "C 2 2 2"
_symmetry_group_IT_number 21
_symmetry_cell_setting 'orthorhombic'
loop_
_space_group_symop_operation_xyz
x,y,z
-x,-y,z
x,-y,-z
-x,y,-z
1/2+x,1/2+y,z
1/2-x,1/2-y,z
1/2+x,1/2-y,-z
1/2-x,1/2+y,-z
loop_
_atom_site_type_symbol
_atom_site_label
_atom_site_fract_x
_atom_site_fract_y
_atom_site_fract_z
Si Si1 0.737393 0.343399 0.114645
Si Si2 0.118288 0.477063 0.247179
Si Si3 0.106963 0.171467 0.377742
Si Si4 0.899564 0.716960 0.164519
Si Si5 0.383243 0.120730 0.489232
O O1 0.675476 0.328670 0.368372
O O2 0.819554 0.380915 0.250026
O O3 0.662585 0.354670 0.869777
O O4 0.805367 0.297681 0.013448
O O5 0.163536 0.500000 0.500000
O O6 0.146073 0.419082 0.273835
O O7 0.000000 0.500000 0.244893
O O8 0.166366 0.500000 0.000000
O O9 0.094150 0.227783 0.273674
O O10 0.000000 0.153164 0.500000
O O11 0.887126 0.676916 0.390065
O O12 0.000000 0.706530 0.000000
O O13 0.500000 0.104629 0.500000
#
# Coordination Sequence:
#
# PCOD9324356 Si02
#       5
#     8   8   8   8   8
#     4  12  27  42  65  91 128 178 238 303 342 429
#     4  10  22  37  60  86 130 185 214 252 320 414
#     4  12  28  46  61  86 126 183 245 305 370 381
#     4  12  26  38  66  92 134 175 233 288 349 426
#     4  12  24  40  63  98 136 180 232 272 346 421
#
# _framework density 21.622669999999999
#
# number of rings (size 3 to 8) (size 9 to 14) (size 15 to 20)
#    0.000    0.400    6.000    3.000   11.200    0.000 
#    0.000    0.000    0.000    0.000    0.000    0.000 
#    0.000    0.800    8.400    0.000    0.000    0.600 
#
# Total GULP energy -111362.425892 kJ/mol
# GULP energy per Si atom -5568.121295 kJ/mol
# Density = 2.157346 g / cm^3
# Si number density = 21.622670 Si / 1000 Ang^3
#
#
#
# Elastic Constant Matrix: (Units=GPa)
#
#
# Indices 1 2 3 4 5 6 
#
# 1 123.2371 3.5657 65.7387 0.0000 0.0000 0.0000
# 2 3.5657 55.4638 23.9266 0.0000 0.0000 0.0000
# 3 65.7387 23.9266 210.8470 0.0000 0.0000 0.0000
# 4 0.0000 0.0000 0.0000 41.8089 0.0000 0.0000
# 5 0.0000 0.0000 0.0000 0.0000 4.8846 0.0000
# 6 0.0000 0.0000 0.0000 0.0000 0.0000 11.4837
#
#
#
# Elastic Compliance Matrix: (Units=1/GPa)
#
#
# Indices 1 2 3 4 5 6 
#
# 1 0.009761 0.000721 -0.003125 0.000000 0.000000 0.000000
# 2 0.000721 0.019011 -0.002382 0.000000 0.000000 0.000000
# 3 -0.003125 -0.002382 0.005987 0.000000 0.000000 0.000000
# 4 0.000000 0.000000 0.000000 0.023918 0.000000 0.000000
# 5 0.000000 0.000000 0.000000 0.000000 0.204726 0.000000
# 6 0.000000 0.000000 0.000000 0.000000 0.000000 0.087080
#
#
# Mechanical properties :
#
#
# Convention : Reuss Voigt Hill
#
# Bulk Modulus (GPa) = 39.70425 64.00110 51.85267
# Shear Modulus (GPa) = 13.57031 31.38989 22.48010
#
# Velocity S-wave (km/s) = 2.50791 3.81427 3.22786
# Velocity P-wave (km/s) = 5.17574 7.00439 6.15832
#
# Compressibility (1/GPa) = 0.02518622
#
# Stress axis : x y z
#
# Youngs Moduli (GPa) = 102.45328 52.60103 167.01758
#
# Poissons Ratio (x) = -0.03790 0.52192
# Poissons Ratio (y) = -0.07383 0.39784
# Poissons Ratio (z) = 0.32016 0.12530
#
# Static dielectric constant tensor:
#      x y z
#    x 1.933510 0.000000 0.000000 
#    y 0.000000 2.154020 0.000000 
#    z 0.000000 0.000000 1.819630 
# 
# From -- ./inp_files/2838.got.cif
#   From: 2010.05.17/outbox.cif.g08.bks.cpg/sg21_2_cif.got.tgz:2838.got - 2010.06.03 23:14:55.
