data_PCOD9324595
_publ_section_title
;
Structure prediction by ZEFSAII (Michael W. Deem and Ramdas Pophale) SiO2 
 PCOD9324595
Probable space group: C 2 2 2
;
_chemical_formula_sum "Si O2"
_cell_formula_units_Z 38
_cell_length_a 7.037193
_cell_length_b 30.035324
_cell_length_c 10.080767
_cell_angle_alpha 90.000000
_cell_angle_beta 90.000000
_cell_angle_gamma 90.000000
_cell_volume 2130.714984
_symmetry_space_group_name_H-M "C 2 2 2"
_symmetry_group_IT_number 21
_symmetry_cell_setting 'orthorhombic'
loop_
_space_group_symop_operation_xyz
x,y,z
-x,-y,z
x,-y,-z
-x,y,-z
1/2+x,1/2+y,z
1/2-x,1/2-y,z
1/2+x,1/2-y,-z
1/2-x,1/2+y,-z
loop_
_atom_site_type_symbol
_atom_site_label
_atom_site_fract_x
_atom_site_fract_y
_atom_site_fract_z
Si Si1 0.000000 0.367736 0.500000
Si Si2 0.371244 0.792358 0.883402
Si Si3 0.800364 0.296556 0.315895
Si Si4 0.521702 0.351713 0.841267
Si Si5 0.000000 0.000000 0.500000
Si Si6 0.860595 0.086575 0.615944
O O1 0.873135 0.335196 0.410693
O O2 0.852231 0.396737 0.586589
O O3 0.250000 0.750000 0.933079
O O4 0.523282 0.780253 0.773332
O O5 0.219760 0.825916 0.825611
O O6 0.500000 0.812002 0.000000
O O7 0.750000 0.250000 0.387612
O O8 0.642075 0.320092 0.221504
O O9 0.550724 0.395875 0.753180
O O10 0.500000 0.358283 0.000000
O O11 0.121356 0.966313 0.591012
O O12 0.000000 0.105630 0.500000
#
# Coordination Sequence:
#
# PCOD9324595 Si02
#       6
#     4   8   8   8   2   8
#     4  12  24  39  65  90 124 172 219 261 310 368
#     4  12  22  35  55  82 120 174 221 255 300 361
#     4  12  24  36  55  87 125 175 219 263 305 347
#     4  12  23  38  61  91 126 163 209 263 311 371
#     4   8  20  46  72  92 122 152 204 258 328 400
#     4  10  22  42  67  91 123 154 205 256 320 391
#
# _framework density 17.834389000000002
#
# number of rings (size 3 to 8) (size 9 to 14) (size 15 to 20)
#    0.632    0.000    8.421    1.263    0.000    2.947 
#    0.000    0.526    0.000    0.000    0.000    0.000 
#    0.000    0.000    0.000    0.000    0.000    0.000 
#
# Total GULP energy -105838.691662 kJ/mol
# GULP energy per Si atom -5570.457456 kJ/mol
# Density = 1.779380 g / cm^3
# Si number density = 17.834389 Si / 1000 Ang^3
#
#
#
# Elastic Constant Matrix: (Units=GPa)
#
#
# Indices 1 2 3 4 5 6 
#
# 1 95.9367 45.8418 23.6292 0.0000 0.0000 0.0000
# 2 45.8418 126.4181 47.4478 0.0000 0.0000 0.0000
# 3 23.6292 47.4478 61.5414 0.0000 0.0000 0.0000
# 4 0.0000 0.0000 0.0000 25.9405 0.0000 0.0000
# 5 0.0000 0.0000 0.0000 0.0000 31.6410 0.0000
# 6 0.0000 0.0000 0.0000 0.0000 0.0000 22.6486
#
#
#
# Elastic Compliance Matrix: (Units=1/GPa)
#
#
# Indices 1 2 3 4 5 6 
#
# 1 0.012760 -0.003924 -0.001874 0.000000 0.000000 0.000000
# 2 -0.003924 0.012338 -0.008006 0.000000 0.000000 0.000000
# 3 -0.001874 -0.008006 0.023141 0.000000 0.000000 0.000000
# 4 0.000000 0.000000 0.000000 0.038550 0.000000 0.000000
# 5 0.000000 0.000000 0.000000 0.000000 0.031605 0.000000
# 6 0.000000 0.000000 0.000000 0.000000 0.000000 0.044153
#
#
# Mechanical properties :
#
#
# Convention : Reuss Voigt Hill
#
# Bulk Modulus (GPa) = 48.46897 57.52598 52.99748
# Shear Modulus (GPa) = 25.37672 27.17783 26.27728
#
# Velocity S-wave (km/s) = 3.77624 3.90795 3.84266
# Velocity P-wave (km/s) = 6.80070 7.25868 7.03342
#
# Compressibility (1/GPa) = 0.02063175
#
# Stress axis : x y z
#
# Youngs Moduli (GPa) = 78.36999 81.05145 43.21277
#
# Poissons Ratio (x) = 0.31801 0.08099
# Poissons Ratio (y) = 0.30749 0.34596
# Poissons Ratio (z) = 0.14688 0.64889
#
# Static dielectric constant tensor:
#      x y z
#    x 1.630170 0.000000 0.000000 
#    y 0.000000 1.612740 0.000000 
#    z 0.000000 0.000000 1.639740 
# 
# From -- ./inp_files/21209.got.cif
#   From: 2010.05.17/outbox.cif.g08.bks.cpg/sg21_11_cif.got.tgz:21209.got - 2010.06.03 23:14:55.
