data_PCOD9324907
_publ_section_title
;
Structure prediction by ZEFSAII (Michael W. Deem and Ramdas Pophale) SiO2 
 PCOD9324907
Probable space group: C 2 2 2
;
_chemical_formula_sum "Si O2"
_cell_formula_units_Z 36
_cell_length_a 20.969126
_cell_length_b 9.959584
_cell_length_c 8.978415
_cell_angle_alpha 90.000000
_cell_angle_beta 90.000000
_cell_angle_gamma 90.000000
_cell_volume 1875.086053
_symmetry_space_group_name_H-M "C 2 2 2"
_symmetry_group_IT_number 21
_symmetry_cell_setting 'orthorhombic'
loop_
_space_group_symop_operation_xyz
x,y,z
-x,-y,z
x,-y,-z
-x,y,-z
1/2+x,1/2+y,z
1/2-x,1/2-y,z
1/2+x,1/2-y,-z
1/2-x,1/2+y,-z
loop_
_atom_site_type_symbol
_atom_site_label
_atom_site_fract_x
_atom_site_fract_y
_atom_site_fract_z
Si Si1 0.000000 0.702513 0.500000
Si Si2 0.674149 0.253519 0.151028
Si Si3 0.500000 0.500000 0.227632
Si Si4 0.604583 0.000000 0.000000
Si Si5 0.894108 0.137403 0.428100
Si Si6 0.898094 0.000000 0.000000
Si Si7 0.500000 0.000000 0.241629
O O1 0.066310 0.775631 0.545857
O O2 0.019987 0.615813 0.356241
O O3 0.750000 0.250000 0.140778
O O4 0.652551 0.278864 0.322960
O O5 0.645029 0.121853 0.071234
O O6 0.644553 0.384343 0.070551
O O7 0.455618 0.592497 0.328747
O O8 0.446868 0.435533 0.119970
O O9 0.557342 0.044121 0.866233
O O10 0.867404 0.000000 0.500000
#
# Coordination Sequence:
#
# PCOD9324907 Si02
#       7
#     4   8   4   4   8   4   4
#     4  11  19  38  56  96 125 159 196 258 334 387
#     4  11  24  41  59  87 128 176 215 257 305 381
#     4   9  17  30  56  94 109 139 194 266 324 356
#     4  11  23  40  62  92 129 167 204 268 320 383
#     4  11  20  35  63  90 120 156 207 264 319 370
#     4   9  21  34  60  86 117 153 204 264 316 369
#     4  10  24  34  62  94 128 158 200 258 336 390
#
# _framework density 19.199119
#
# number of rings (size 3 to 8) (size 9 to 14) (size 15 to 20)
#    0.000    1.556    4.444    0.667    3.111    1.778 
#    0.000    2.222    0.000    5.333    0.000    0.000 
#    0.000    0.000    0.000    0.000    0.000    0.000 
#
# Total GULP energy -100215.195881 kJ/mol
# GULP energy per Si atom -5567.510882 kJ/mol
# Density = 1.915542 g / cm^3
# Si number density = 19.199119 Si / 1000 Ang^3
#
#
#
# Elastic Constant Matrix: (Units=GPa)
#
#
# Indices 1 2 3 4 5 6 
#
# 1 126.6500 33.5346 37.0216 0.0000 0.0000 0.0000
# 2 33.5346 83.8753 24.3429 0.0000 0.0000 0.0000
# 3 37.0216 24.3429 82.0342 0.0000 0.0000 0.0000
# 4 0.0000 0.0000 0.0000 33.5897 0.0000 0.0000
# 5 0.0000 0.0000 0.0000 0.0000 23.1189 0.0000
# 6 0.0000 0.0000 0.0000 0.0000 0.0000 18.7957
#
#
#
# Elastic Compliance Matrix: (Units=1/GPa)
#
#
# Indices 1 2 3 4 5 6 
#
# 1 0.009680 -0.002847 -0.003523 0.000000 0.000000 0.000000
# 2 -0.002847 0.013884 -0.002835 0.000000 0.000000 0.000000
# 3 -0.003523 -0.002835 0.014621 0.000000 0.000000 0.000000
# 4 0.000000 0.000000 0.000000 0.029771 0.000000 0.000000
# 5 0.000000 0.000000 0.000000 0.000000 0.043255 0.000000
# 6 0.000000 0.000000 0.000000 0.000000 0.000000 0.053204
#
#
# Mechanical properties :
#
#
# Convention : Reuss Voigt Hill
#
# Bulk Modulus (GPa) = 50.57330 53.59529 52.08430
# Shear Modulus (GPa) = 26.39688 28.27825 27.33756
#
# Velocity S-wave (km/s) = 3.71199 3.84199 3.77755
# Velocity P-wave (km/s) = 6.69107 6.90343 6.79808
#
# Compressibility (1/GPa) = 0.01977328
#
# Stress axis : x y z
#
# Youngs Moduli (GPa) = 103.30920 72.02707 68.39324
#
# Poissons Ratio (x) = 0.20510 0.24098
# Poissons Ratio (y) = 0.29417 0.19388
# Poissons Ratio (z) = 0.36400 0.20418
#
# Static dielectric constant tensor:
#      x y z
#    x 1.642570 0.000000 0.000000 
#    y 0.000000 1.798790 0.000000 
#    z 0.000000 0.000000 1.751540 
# 
# From -- ./inp_files/17397.got.cif
#   From: 2010.05.17/outbox.cif.g08.bks.cpg/sg21_9_cif.got.tgz:17397.got - 2010.06.03 23:14:55.
