data_PCOD9324751
_publ_section_title
;
Structure prediction by ZEFSAII (Michael W. Deem and Ramdas Pophale) SiO2 
 PCOD9324751
Probable space group: C 2 2 2
;
_chemical_formula_sum "Si O2"
_cell_formula_units_Z 30
_cell_length_a 7.738206
_cell_length_b 11.177282
_cell_length_c 16.506853
_cell_angle_alpha 90.000000
_cell_angle_beta 90.000000
_cell_angle_gamma 90.000000
_cell_volume 1427.712556
_symmetry_space_group_name_H-M "C 2 2 2"
_symmetry_group_IT_number 21
_symmetry_cell_setting 'orthorhombic'
loop_
_space_group_symop_operation_xyz
x,y,z
-x,-y,z
x,-y,-z
-x,y,-z
1/2+x,1/2+y,z
1/2-x,1/2-y,z
1/2+x,1/2-y,-z
1/2-x,1/2+y,-z
loop_
_atom_site_type_symbol
_atom_site_label
_atom_site_fract_x
_atom_site_fract_y
_atom_site_fract_z
Si Si1 0.195505 0.999879 0.696283
Si Si2 0.250000 0.750000 0.229503
Si Si3 0.101752 0.845154 0.851974
Si Si4 0.815818 0.615299 0.457131
Si Si5 0.000000 0.000000 0.000000
O O1 0.267780 0.132236 0.713946
O O2 0.164023 0.935912 0.782080
O O3 0.312360 0.921487 0.637027
O O4 0.000000 0.000000 0.660401
O O5 0.419407 0.715910 0.175653
O O6 0.250000 0.750000 0.857426
O O7 0.095155 0.913983 0.936807
O O8 0.725449 0.500000 0.500000
O O9 0.750000 0.750000 0.465838
O O10 0.000000 0.619422 0.500000
#
# Coordination Sequence:
#
# PCOD9324751 Si02
#       5
#     8   4   8   8   2
#     4  10  23  45  74 102 144 190 244 301 367 439
#     4  10  22  48  78 106 140 206 234 302 374 442
#     4  11  25  45  73 106 150 189 241 303 363 443
#     4  11  28  45  70 106 140 189 247 307 365 445
#     4  12  24  48  66 122 146 186 252 300 364 448
#
# _framework density 21.012632
#
# number of rings (size 3 to 8) (size 9 to 14) (size 15 to 20)
#    0.000    1.333    4.000    0.800    7.467   11.733 
#    0.000    1.333    0.000    0.000    0.000    0.000 
#    0.000    0.000    0.000    0.000    0.000    0.000 
#
# Total GULP energy -83683.202800 kJ/mol
# GULP energy per Si atom -5578.880187 kJ/mol
# Density = 2.096481 g / cm^3
# Si number density = 21.012632 Si / 1000 Ang^3
#
#
#
# Elastic Constant Matrix: (Units=GPa)
#
#
# Indices 1 2 3 4 5 6 
#
# 1 103.4728 79.4239 61.4727 0.0000 0.0000 0.0000
# 2 79.4239 229.7952 79.9506 0.0000 0.0000 0.0000
# 3 61.4727 79.9506 153.9202 0.0000 0.0000 0.0000
# 4 0.0000 0.0000 0.0000 41.1833 0.0000 0.0000
# 5 0.0000 0.0000 0.0000 0.0000 8.4682 0.0000
# 6 0.0000 0.0000 0.0000 0.0000 0.0000 28.1095
#
#
#
# Elastic Compliance Matrix: (Units=1/GPa)
#
#
# Indices 1 2 3 4 5 6 
#
# 1 0.014939 -0.003768 -0.004009 0.000000 0.000000 0.000000
# 2 -0.003768 0.006262 -0.001748 0.000000 0.000000 0.000000
# 3 -0.004009 -0.001748 0.009006 0.000000 0.000000 0.000000
# 4 0.000000 0.000000 0.000000 0.024282 0.000000 0.000000
# 5 0.000000 0.000000 0.000000 0.000000 0.118089 0.000000
# 6 0.000000 0.000000 0.000000 0.000000 0.000000 0.035575
#
#
# Mechanical properties :
#
#
# Convention : Reuss Voigt Hill
#
# Bulk Modulus (GPa) = 89.63258 103.20916 96.42087
# Shear Modulus (GPa) = 21.65241 33.30827 27.48034
#
# Velocity S-wave (km/s) = 3.21354 3.98572 3.62028
# Velocity P-wave (km/s) = 7.51786 8.39080 7.96630
#
# Compressibility (1/GPa) = 0.01115666
#
# Stress axis : x y z
#
# Youngs Moduli (GPa) = 66.94093 159.68638 111.04081
#
# Poissons Ratio (x) = 0.60178 0.44513
# Poissons Ratio (y) = 0.25227 0.19407
# Poissons Ratio (z) = 0.26835 0.27909
#
# Static dielectric constant tensor:
#      x y z
#    x 1.793720 0.000000 0.000000 
#    y 0.000000 1.889120 0.000000 
#    z 0.000000 0.000000 1.770100 
# 
# From -- ./inp_files/29870.got.cif
#   From: 2010.05.17/outbox.cif.g08.bks.cpg/sg21_15_cif.got.tgz:29870.got - 2010.06.03 23:14:55.
