data_PCOD9324772
_publ_section_title
;
Structure prediction by ZEFSAII (Michael W. Deem and Ramdas Pophale) SiO2 
 PCOD9324772
Probable space group: C 2 2 2
;
_chemical_formula_sum "Si O2"
_cell_formula_units_Z 30
_cell_length_a 7.027507
_cell_length_b 26.639082
_cell_length_c 6.879579
_cell_angle_alpha 90.000000
_cell_angle_beta 90.000000
_cell_angle_gamma 90.000000
_cell_volume 1287.900773
_symmetry_space_group_name_H-M "C 2 2 2"
_symmetry_group_IT_number 21
_symmetry_cell_setting 'orthorhombic'
loop_
_space_group_symop_operation_xyz
x,y,z
-x,-y,z
x,-y,-z
-x,y,-z
1/2+x,1/2+y,z
1/2-x,1/2-y,z
1/2+x,1/2-y,-z
1/2-x,1/2+y,-z
loop_
_atom_site_type_symbol
_atom_site_label
_atom_site_fract_x
_atom_site_fract_y
_atom_site_fract_z
Si Si1 0.123424 0.371155 0.666148
Si Si2 0.000000 0.178681 0.500000
Si Si3 0.187945 0.951988 0.123026
Si Si4 0.470168 0.762271 0.225702
Si Si5 0.500000 0.500000 0.500000
O O1 0.329373 0.354212 0.584196
O O2 0.167797 0.406863 0.846073
O O3 0.009069 0.320193 0.716673
O O4 0.000000 0.397708 0.500000
O O5 0.076280 0.217702 0.337344
O O6 0.125275 0.968731 0.342455
O O7 0.000000 0.935945 0.000000
O O8 0.258671 0.000000 0.000000
O O9 0.250000 0.750000 0.268910
O O10 0.500000 0.756715 0.000000
#
# Coordination Sequence:
#
# PCOD9324772 Si02
#       5
#     8   4   8   8   2
#     4  11  23  41  70 100 134 184 229 283 351 414
#     4  10  23  44  62  97 142 177 226 278 337 412
#     4   9  20  42  69  98 131 176 238 289 361 417
#     4  10  23  39  63  93 135 182 218 273 334 410
#     4   8  16  40  74  86 120 178 214 300 348 402
#
# _framework density 23.293721000000001
#
# number of rings (size 3 to 8) (size 9 to 14) (size 15 to 20)
#    0.000    2.400    1.333    0.800    3.733    4.267 
#    9.600    0.667    0.000    1.600    0.000    0.000 
#    0.000    0.000    0.000    0.000    0.000    0.000 
#
# Total GULP energy -83782.252198 kJ/mol
# GULP energy per Si atom -5585.483480 kJ/mol
# Density = 2.324070 g / cm^3
# Si number density = 23.293721 Si / 1000 Ang^3
#
#
#
# Elastic Constant Matrix: (Units=GPa)
#
#
# Indices 1 2 3 4 5 6 
#
# 1 82.4719 48.8651 29.5957 0.0000 0.0000 0.0000
# 2 48.8651 131.4317 55.6650 0.0000 0.0000 0.0000
# 3 29.5957 55.6650 168.4320 0.0000 0.0000 0.0000
# 4 0.0000 0.0000 0.0000 53.9740 0.0000 0.0000
# 5 0.0000 0.0000 0.0000 0.0000 36.4055 0.0000
# 6 0.0000 0.0000 0.0000 0.0000 0.0000 -2.4836
#
#
#
# Elastic Compliance Matrix: (Units=1/GPa)
#
#
# Indices 1 2 3 4 5 6 
#
# 1 0.015684 -0.005423 -0.000964 0.000000 0.000000 0.000000
# 2 -0.005423 0.010722 -0.002591 0.000000 0.000000 0.000000
# 3 -0.000964 -0.002591 0.006963 0.000000 0.000000 0.000000
# 4 0.000000 0.000000 0.000000 0.018527 0.000000 0.000000
# 5 0.000000 0.000000 0.000000 0.000000 0.027468 0.000000
# 6 0.000000 0.000000 0.000000 0.000000 0.000000 -0.402633
#
#
# Mechanical properties :
#
#
# Convention : Reuss Voigt Hill
#
# Bulk Modulus (GPa) = 64.87535 72.28745 68.58140
# Shear Modulus (GPa) = -16.65691 34.12649 8.73479
#
# Velocity S-wave (km/s) = -2.67700 3.83175 1.93855
# Velocity P-wave (km/s) = 4.28443 7.11876 5.87508
#
# Compressibility (1/GPa) = 0.01541417
#
# Stress axis : x y z
#
# Youngs Moduli (GPa) = 63.75747 93.26627 143.62447
#
# Poissons Ratio (x) = 0.50580 0.13840
# Poissons Ratio (y) = 0.34577 0.37207
# Poissons Ratio (z) = 0.06144 0.24161
#
# Static dielectric constant tensor:
#      x y z
#    x 1.867620 0.000000 0.000000 
#    y 0.000000 1.917740 0.000000 
#    z 0.000000 0.000000 1.895610 
# 
# From -- ./inp_files/1521.got.cif
#   From: 2010.05.17/outbox.cif.g08.bks.cpg/sg21_1_cif.got.tgz:1521.got - 2010.06.03 23:14:55.
