data_PCOD9324546
_publ_section_title
;
Structure prediction by ZEFSAII (Michael W. Deem and Ramdas Pophale) SiO2 
 PCOD9324546
Probable space group: C 2 2 2
;
_chemical_formula_sum "Si O2"
_cell_formula_units_Z 64
_cell_length_a 9.580555
_cell_length_b 21.595250
_cell_length_c 14.441092
_cell_angle_alpha 90.000000
_cell_angle_beta 90.000000
_cell_angle_gamma 90.000000
_cell_volume 2987.782225
_symmetry_space_group_name_H-M "C 2 2 2"
_symmetry_group_IT_number 21
_symmetry_cell_setting 'orthorhombic'
loop_
_space_group_symop_operation_xyz
x,y,z
-x,-y,z
x,-y,-z
-x,y,-z
1/2+x,1/2+y,z
1/2-x,1/2-y,z
1/2+x,1/2-y,-z
1/2-x,1/2+y,-z
loop_
_atom_site_type_symbol
_atom_site_label
_atom_site_fract_x
_atom_site_fract_y
_atom_site_fract_z
Si Si1 0.874664 0.709287 0.268129
Si Si2 0.058808 0.865756 0.357460
Si Si3 0.917131 0.737384 0.583000
Si Si4 0.287740 0.929576 0.470363
Si Si5 0.038145 0.756035 0.105697
Si Si6 0.241774 0.845442 0.181110
Si Si7 0.635783 0.960913 0.724239
Si Si8 0.238791 0.089348 0.322157
O O1 0.750000 0.750000 0.314607
O O2 0.820774 0.639168 0.259988
O O3 0.020637 0.706864 0.324603
O O4 0.908955 0.746333 0.174502
O O5 0.012594 0.804484 0.408395
O O6 0.140542 0.910134 0.426462
O O7 0.168272 0.839351 0.281910
O O8 0.924903 0.897212 0.315212
O O9 0.750000 0.750000 0.571965
O O10 0.000000 0.704497 0.500000
O O11 0.383971 0.926621 0.376999
O O12 0.290363 0.897516 0.571369
O O13 0.299135 0.000000 0.500000
O O14 0.110793 0.823374 0.117753
O O15 0.143464 0.702736 0.143853
O O16 0.000000 0.745270 0.000000
O O17 0.310593 0.913021 0.198117
O O18 0.500000 0.000000 0.750048
O O19 0.740954 0.017586 0.703308
#
# Coordination Sequence:
#
# PCOD9324546 Si02
#       8
#     8   8   8   8   8   8   8   8
#     4  12  24  42  63 100 137 177 237 298 363 439
#     4  11  21  39  62  91 140 180 239 294 352 424
#     4  12  25  39  58  89 139 190 233 290 362 421
#     4   9  21  35  57  90 134 188 251 287 337 408
#     4  11  24  44  74 104 135 172 225 295 377 446
#     4  10  22  44  68 103 134 173 230 292 362 435
#     4  10  22  41  65  97 140 194 244 295 351 420
#     4  11  22  38  62  98 140 193 243 294 347 418
#
# _framework density 21.420570000000001
#
# number of rings (size 3 to 8) (size 9 to 14) (size 15 to 20)
#    0.000    1.250    2.500    3.000    3.500    9.250 
#    0.000    0.000    0.000    3.375    6.500    0.000 
#    0.000    0.000    0.000    0.000    0.000    0.000 
#
# Total GULP energy -178199.931715 kJ/mol
# GULP energy per Si atom -5568.747866 kJ/mol
# Density = 2.137182 g / cm^3
# Si number density = 21.420570 Si / 1000 Ang^3
#
#
#
# Elastic Constant Matrix: (Units=GPa)
#
#
# Indices 1 2 3 4 5 6 
#
# 1 116.8271 47.1898 45.0045 0.0000 0.0000 0.0000
# 2 47.1898 96.7228 31.5152 0.0000 0.0000 0.0000
# 3 45.0045 31.5152 108.0244 0.0000 0.0000 0.0000
# 4 0.0000 0.0000 0.0000 16.2065 0.0000 0.0000
# 5 0.0000 0.0000 0.0000 0.0000 14.3788 0.0000
# 6 0.0000 0.0000 0.0000 0.0000 0.0000 44.4735
#
#
#
# Elastic Compliance Matrix: (Units=1/GPa)
#
#
# Indices 1 2 3 4 5 6 
#
# 1 0.011789 -0.004588 -0.003573 0.000000 0.000000 0.000000
# 2 -0.004588 0.013210 -0.001943 0.000000 0.000000 0.000000
# 3 -0.003573 -0.001943 0.011313 0.000000 0.000000 0.000000
# 4 0.000000 0.000000 0.000000 0.061704 0.000000 0.000000
# 5 0.000000 0.000000 0.000000 0.000000 0.069547 0.000000
# 6 0.000000 0.000000 0.000000 0.000000 0.000000 0.022485
#
#
# Mechanical properties :
#
#
# Convention : Reuss Voigt Hill
#
# Bulk Modulus (GPa) = 62.09259 63.22149 62.65704
# Shear Modulus (GPa) = 23.18866 28.20273 25.69570
#
# Velocity S-wave (km/s) = 3.29377 3.63246 3.46725
# Velocity P-wave (km/s) = 6.59663 6.86815 6.73376
#
# Compressibility (1/GPa) = 0.01610498
#
# Stress axis : x y z
#
# Youngs Moduli (GPa) = 84.82372 75.70015 88.39737
#
# Poissons Ratio (x) = 0.34728 0.31586
# Poissons Ratio (y) = 0.38913 0.17173
# Poissons Ratio (z) = 0.30309 0.14706
#
# Static dielectric constant tensor:
#      x y z
#    x 1.933290 0.000000 0.000000 
#    y 0.000000 1.810660 0.000000 
#    z 0.000000 0.000000 1.805470 
# 
# From -- ./inp_files/30900.got.cif
#   From: 2010.05.17/outbox.cif.g08.bks.cpg/sg21_16_cif.got.tgz:30900.got - 2010.06.03 23:14:55.
