data_PCOD9324021
_publ_section_title
;
Structure prediction by ZEFSAII (Michael W. Deem and Ramdas Pophale) SiO2 
 PCOD9324021
Probable space group: C 2 2 2
;
_chemical_formula_sum "Si O2"
_cell_formula_units_Z 40
_cell_length_a 15.655497
_cell_length_b 13.809728
_cell_length_c 9.450680
_cell_angle_alpha 90.000000
_cell_angle_beta 90.000000
_cell_angle_gamma 90.000000
_cell_volume 2043.219582
_symmetry_space_group_name_H-M "C 2 2 2"
_symmetry_group_IT_number 21
_symmetry_cell_setting 'orthorhombic'
loop_
_space_group_symop_operation_xyz
x,y,z
-x,-y,z
x,-y,-z
-x,y,-z
1/2+x,1/2+y,z
1/2-x,1/2-y,z
1/2+x,1/2-y,-z
1/2-x,1/2+y,-z
loop_
_atom_site_type_symbol
_atom_site_label
_atom_site_fract_x
_atom_site_fract_y
_atom_site_fract_z
Si Si1 0.000000 0.769542 0.000000
Si Si2 0.153995 0.377497 0.382432
Si Si3 0.507179 0.110084 0.221106
Si Si4 0.801703 0.405379 0.301265
Si Si5 0.668051 0.610389 0.948074
Si Si6 0.750000 0.250000 0.825716
O O1 0.971920 0.693508 0.120080
O O2 0.076675 0.836287 0.056754
O O3 0.191828 0.478373 0.321741
O O4 0.192428 0.365325 0.538726
O O5 0.180633 0.291066 0.281818
O O6 0.051777 0.389164 0.361988
O O7 0.607898 0.128012 0.236362
O O8 0.500000 0.000000 0.165182
O O9 0.723094 0.382399 0.197388
O O10 0.658397 0.500000 0.000000
O O11 0.719460 0.665609 0.070845
#
# Coordination Sequence:
#
# PCOD9324021 Si02
#       6
#     4   8   8   8   8   4
#     4  12  24  40  64  94 130 184 222 274 328 386
#     4  10  21  40  65  98 131 171 213 272 335 404
#     4  10  21  38  63  99 136 165 213 276 340 398
#     4  10  22  40  67  94 133 172 213 270 343 398
#     4  12  25  43  64  97 132 179 225 276 322 396
#     4  12  22  40  68  94 130 172 218 272 332 390
#
# _framework density 19.576946
#
# number of rings (size 3 to 8) (size 9 to 14) (size 15 to 20)
#    0.000    1.200    4.000    2.400    0.000    4.800 
#    0.000    0.000    0.000    0.000    0.000    0.000 
#    0.000    0.000    0.000    0.000    0.000    0.000 
#
# Total GULP energy -111523.310776 kJ/mol
# GULP energy per Si atom -5576.165539 kJ/mol
# Density = 1.953239 g / cm^3
# Si number density = 19.576946 Si / 1000 Ang^3
#
#
#
# Elastic Constant Matrix: (Units=GPa)
#
#
# Indices 1 2 3 4 5 6 
#
# 1 134.1605 42.4755 71.8985 0.0000 0.0000 0.0000
# 2 42.4755 115.8919 54.0606 0.0000 0.0000 0.0000
# 3 71.8985 54.0606 138.6662 0.0000 0.0000 0.0000
# 4 0.0000 0.0000 0.0000 14.6814 0.0000 0.0000
# 5 0.0000 0.0000 0.0000 0.0000 11.6113 0.0000
# 6 0.0000 0.0000 0.0000 0.0000 0.0000 19.7536
#
#
#
# Elastic Compliance Matrix: (Units=1/GPa)
#
#
# Indices 1 2 3 4 5 6 
#
# 1 0.010562 -0.001609 -0.004849 0.000000 0.000000 0.000000
# 2 -0.001609 0.010792 -0.003373 0.000000 0.000000 0.000000
# 3 -0.004849 -0.003373 0.011041 0.000000 0.000000 0.000000
# 4 0.000000 0.000000 0.000000 0.068114 0.000000 0.000000
# 5 0.000000 0.000000 0.000000 0.000000 0.086123 0.000000
# 6 0.000000 0.000000 0.000000 0.000000 0.000000 0.050624
#
#
# Mechanical properties :
#
#
# Convention : Reuss Voigt Hill
#
# Bulk Modulus (GPa) = 78.54045 80.62089 79.58067
# Shear Modulus (GPa) = 19.14527 23.89485 21.52006
#
# Velocity S-wave (km/s) = 3.13061 3.49744 3.31910
# Velocity P-wave (km/s) = 7.29887 7.58818 7.44493
#
# Compressibility (1/GPa) = 0.01273229
#
# Stress axis : x y z
#
# Youngs Moduli (GPa) = 94.68035 92.66201 90.57318
#
# Poissons Ratio (x) = 0.14910 0.43919
# Poissons Ratio (y) = 0.15235 0.30551
# Poissons Ratio (z) = 0.45911 0.31255
#
# Static dielectric constant tensor:
#      x y z
#    x 1.746180 0.000000 0.000000 
#    y 0.000000 1.682880 0.000000 
#    z 0.000000 0.000000 1.706020 
# 
# From -- ./inp_files/14571.got.cif
#   From: 2010.05.17/outbox.cif.g08.bks.cpg/sg21_8_cif.got.tgz:14571.got - 2010.06.03 23:14:55.
