data_PCOD9324649
_publ_section_title
;
Structure prediction by ZEFSAII (Michael W. Deem and Ramdas Pophale) SiO2 
 PCOD9324649
Probable space group: C 2 2 2
;
_chemical_formula_sum "Si O2"
_cell_formula_units_Z 34
_cell_length_a 5.022882
_cell_length_b 14.255384
_cell_length_c 20.896565
_cell_angle_alpha 90.000000
_cell_angle_beta 90.000000
_cell_angle_gamma 90.000000
_cell_volume 1496.259078
_symmetry_space_group_name_H-M "C 2 2 2"
_symmetry_group_IT_number 21
_symmetry_cell_setting 'orthorhombic'
loop_
_space_group_symop_operation_xyz
x,y,z
-x,-y,z
x,-y,-z
-x,y,-z
1/2+x,1/2+y,z
1/2-x,1/2-y,z
1/2+x,1/2-y,-z
1/2-x,1/2+y,-z
loop_
_atom_site_type_symbol
_atom_site_label
_atom_site_fract_x
_atom_site_fract_y
_atom_site_fract_z
Si Si1 0.802175 0.359406 0.321125
Si Si2 0.795214 0.136181 0.596331
Si Si3 0.495960 0.318775 0.930334
Si Si4 0.239676 0.940253 0.184491
Si Si5 0.500000 0.000000 0.500000
O O1 0.750000 0.250000 0.324562
O O2 0.580379 0.391108 0.373277
O O3 0.813158 0.379905 0.245794
O O4 0.089104 0.385302 0.347002
O O5 0.750000 0.250000 0.582016
O O6 0.691956 0.071131 0.539207
O O7 0.250000 0.250000 0.937934
O O8 0.406867 0.386355 0.873319
O O9 0.750000 0.250000 0.917630
O O10 0.500000 0.368380 0.000000
O O11 0.500000 0.000000 0.163672
O O12 0.000000 0.000000 0.212916
#
# Coordination Sequence:
#
# PCOD9324649 Si02
#       5
#     8   8   8   8   2
#     4  10  23  45  68  95 135 180 230 288 336 413
#     4  10  25  45  70 103 136 181 239 290 351 429
#     4  10  22  43  68  94 132 187 241 284 345 432
#     4  12  25  39  67 105 141 178 229 295 363 420
#     4  12  28  46  80 100 148 194 222 302 364 436
#
# _framework density 22.723337999999998
#
# number of rings (size 3 to 8) (size 9 to 14) (size 15 to 20)
#    0.000    1.412    0.000    3.529    4.941    8.000 
#    0.000    1.176    0.000    0.000    0.000    0.000 
#    0.000    0.000    0.000    0.000    0.000    0.000 
#
# Total GULP energy -94816.889569 kJ/mol
# GULP energy per Si atom -5577.464092 kJ/mol
# Density = 2.267162 g / cm^3
# Si number density = 22.723338 Si / 1000 Ang^3
#
#
#
# Elastic Constant Matrix: (Units=GPa)
#
#
# Indices 1 2 3 4 5 6 
#
# 1 109.9737 24.8621 33.7061 0.0000 0.0000 0.0000
# 2 24.8621 71.5196 43.2420 0.0000 0.0000 0.0000
# 3 33.7061 43.2420 122.6084 0.0000 0.0000 0.0000
# 4 0.0000 0.0000 0.0000 -6.3188 0.0000 0.0000
# 5 0.0000 0.0000 0.0000 0.0000 25.1333 0.0000
# 6 0.0000 0.0000 0.0000 0.0000 0.0000 24.4992
#
#
#
# Elastic Compliance Matrix: (Units=1/GPa)
#
#
# Indices 1 2 3 4 5 6 
#
# 1 0.010234 -0.002360 -0.001981 0.000000 0.000000 0.000000
# 2 -0.002360 0.018316 -0.005811 0.000000 0.000000 0.000000
# 3 -0.001981 -0.005811 0.010750 0.000000 0.000000 0.000000
# 4 0.000000 0.000000 0.000000 -0.158259 0.000000 0.000000
# 5 0.000000 0.000000 0.000000 0.000000 0.039788 0.000000
# 6 0.000000 0.000000 0.000000 0.000000 0.000000 0.040818
#
#
# Mechanical properties :
#
#
# Convention : Reuss Voigt Hill
#
# Bulk Modulus (GPa) = 52.64237 56.41359 54.52798
# Shear Modulus (GPa) = -426.71840 22.14883 -202.28479
#
# Velocity S-wave (km/s) = -13.71846 3.12543 -9.44531
# Velocity P-wave (km/s) = 15.09011 6.15667 9.74184
#
# Compressibility (1/GPa) = 0.01899610
#
# Stress axis : x y z
#
# Youngs Moduli (GPa) = 97.71595 54.59726 93.02209
#
# Poissons Ratio (x) = 0.12883 0.18429
# Poissons Ratio (y) = 0.23058 0.54055
# Poissons Ratio (z) = 0.19359 0.31727
#
# Static dielectric constant tensor:
#      x y z
#    x 1.340440 0.000000 0.000000 
#    y 0.000000 1.874680 0.000000 
#    z 0.000000 0.000000 2.050550 
# 
# From -- ./inp_files/34495.got.cif
#   From: 2010.05.17/outbox.cif.g08.bks.cpg/sg21_18_cif.got.tgz:34495.got - 2010.06.03 23:14:55.
