data_PCOD9324416
_publ_section_title
;
Structure prediction by ZEFSAII (Michael W. Deem and Ramdas Pophale) SiO2 
 PCOD9324416
Probable space group: C 2 2 2
;
_chemical_formula_sum "Si O2"
_cell_formula_units_Z 36
_cell_length_a 6.455173
_cell_length_b 18.682652
_cell_length_c 14.451218
_cell_angle_alpha 90.000000
_cell_angle_beta 90.000000
_cell_angle_gamma 90.000000
_cell_volume 1742.813289
_symmetry_space_group_name_H-M "C 2 2 2"
_symmetry_group_IT_number 21
_symmetry_cell_setting 'orthorhombic'
loop_
_space_group_symop_operation_xyz
x,y,z
-x,-y,z
x,-y,-z
-x,y,-z
1/2+x,1/2+y,z
1/2-x,1/2-y,z
1/2+x,1/2-y,-z
1/2-x,1/2+y,-z
loop_
_atom_site_type_symbol
_atom_site_label
_atom_site_fract_x
_atom_site_fract_y
_atom_site_fract_z
Si Si1 0.750603 0.164524 0.241028
Si Si2 0.866102 0.929623 0.254542
Si Si3 0.481862 0.913788 0.607182
Si Si4 0.920620 0.604976 0.099575
Si Si5 0.750000 0.750000 0.035953
O O1 0.750000 0.250000 0.244308
O O2 0.649599 0.128609 0.332215
O O3 0.614666 0.136041 0.155928
O O4 0.976545 0.132743 0.229764
O O5 0.736124 0.901824 0.342075
O O6 0.707256 0.945416 0.169871
O O7 0.000000 0.000000 0.275412
O O8 0.500000 0.894039 0.500000
O O9 0.500000 0.000000 0.614111
O O10 0.773445 0.673253 0.083003
O O11 0.000000 0.578620 0.000000
O O12 0.500000 0.745567 0.000000
#
# Coordination Sequence:
#
# PCOD9324416 Si02
#       5
#     8   8   8   8   4
#     4  11  24  43  68 103 138 173 223 289 348 406
#     4  11  23  43  71  94 136 180 227 285 355 419
#     4  10  22  45  71 100 132 173 227 275 344 440
#     4  10  24  38  65  96 139 182 236 285 341 413
#     4  10  22  38  66  96 136 184 250 294 342 420
#
# _framework density 20.656258999999999
#
# number of rings (size 3 to 8) (size 9 to 14) (size 15 to 20)
#    0.000    1.556    2.222    1.333   12.444    3.556 
#    4.000    3.333    0.000    0.000    0.000    0.000 
#    0.000    0.000    0.000    0.000    0.000    0.000 
#
# Total GULP energy -100324.395387 kJ/mol
# GULP energy per Si atom -5573.577521 kJ/mol
# Density = 2.060924 g / cm^3
# Si number density = 20.656259 Si / 1000 Ang^3
#
#
#
# Elastic Constant Matrix: (Units=GPa)
#
#
# Indices 1 2 3 4 5 6 
#
# 1 159.7437 38.2702 80.9894 0.0000 0.0000 0.0000
# 2 38.2702 76.5125 32.4781 0.0000 0.0000 0.0000
# 3 80.9894 32.4781 177.7539 0.0000 0.0000 0.0000
# 4 0.0000 0.0000 0.0000 10.4011 0.0000 0.0000
# 5 0.0000 0.0000 0.0000 0.0000 6.9561 0.0000
# 6 0.0000 0.0000 0.0000 0.0000 0.0000 37.3582
#
#
#
# Elastic Compliance Matrix: (Units=1/GPa)
#
#
# Indices 1 2 3 4 5 6 
#
# 1 0.008693 -0.002891 -0.003432 0.000000 0.000000 0.000000
# 2 -0.002891 0.015130 -0.001447 0.000000 0.000000 0.000000
# 3 -0.003432 -0.001447 0.007454 0.000000 0.000000 0.000000
# 4 0.000000 0.000000 0.000000 0.096144 0.000000 0.000000
# 5 0.000000 0.000000 0.000000 0.000000 0.143759 0.000000
# 6 0.000000 0.000000 0.000000 0.000000 0.000000 0.026768
#
#
# Mechanical properties :
#
#
# Convention : Reuss Voigt Hill
#
# Bulk Modulus (GPa) = 63.55004 79.72061 71.63533
# Shear Modulus (GPa) = 15.68704 28.42790 22.05747
#
# Velocity S-wave (km/s) = 2.75877 3.71379 3.27132
# Velocity P-wave (km/s) = 6.40157 7.55429 7.00169
#
# Compressibility (1/GPa) = 0.01573563
#
# Stress axis : x y z
#
# Youngs Moduli (GPa) = 115.03655 66.09324 134.15395
#
# Poissons Ratio (x) = 0.19108 0.46048
# Poissons Ratio (y) = 0.33257 0.19416
# Poissons Ratio (z) = 0.39486 0.09565
#
# Static dielectric constant tensor:
#      x y z
#    x 1.774400 0.000000 0.000000 
#    y 0.000000 1.942650 0.000000 
#    z 0.000000 0.000000 1.759640 
# 
# From -- ./inp_files/28939.got.cif
#   From: 2010.05.17/outbox.cif.g08.bks.cpg/sg21_15_cif.got.tgz:28939.got - 2010.06.03 23:14:55.
