data_PCOD9324627
_publ_section_title
;
Structure prediction by ZEFSAII (Michael W. Deem and Ramdas Pophale) SiO2 
 PCOD9324627
Probable space group: C 2 2 2
;
_chemical_formula_sum "Si O2"
_cell_formula_units_Z 24
_cell_length_a 5.569554
_cell_length_b 21.745220
_cell_length_c 9.081617
_cell_angle_alpha 90.000000
_cell_angle_beta 90.000000
_cell_angle_gamma 90.000000
_cell_volume 1099.885324
_symmetry_space_group_name_H-M "C 2 2 2"
_symmetry_group_IT_number 21
_symmetry_cell_setting 'orthorhombic'
loop_
_space_group_symop_operation_xyz
x,y,z
-x,-y,z
x,-y,-z
-x,y,-z
1/2+x,1/2+y,z
1/2-x,1/2-y,z
1/2+x,1/2-y,-z
1/2-x,1/2+y,-z
loop_
_atom_site_type_symbol
_atom_site_label
_atom_site_fract_x
_atom_site_fract_y
_atom_site_fract_z
Si Si1 0.250000 0.750000 0.406343
Si Si2 0.000000 0.500000 0.500000
Si Si3 0.441786 0.693236 0.824816
Si Si4 0.805468 0.055449 0.750670
Si Si5 0.500000 0.000000 0.000000
O O1 0.500000 0.760708 0.500000
O O2 0.330283 0.699993 0.285101
O O3 0.156771 0.543222 0.603770
O O4 0.250000 0.750000 0.803659
O O5 0.358523 0.626687 0.770738
O O6 0.500000 0.692559 0.000000
O O7 0.655944 0.041346 0.895469
O O8 0.000000 0.000000 0.748218
#
# Coordination Sequence:
#
# PCOD9324627 Si02
#       5
#     4   2   8   8   2
#     4  12  28  52  76 120 164 218 270 338 414 492
#     4  10  26  50  80 108 160 210 272 342 410 494
#     4  12  27  48  81 117 165 216 280 340 419 503
#     4  11  25  47  74 113 154 209 270 335 410 487
#     4  10  22  42  76 108 148 198 264 334 400 484
#
# _framework density 21.820457999999999
#
# number of rings (size 3 to 8) (size 9 to 14) (size 15 to 20)
#    0.000    0.667    3.333    3.000    2.333   10.667 
#    3.000    0.000    0.000    0.000    0.000    0.000 
#    0.000    0.000    0.000    0.000    0.000    0.000 
#
# Total GULP energy -66856.450712 kJ/mol
# GULP energy per Si atom -5571.370893 kJ/mol
# Density = 2.177079 g / cm^3
# Si number density = 21.820458 Si / 1000 Ang^3
#
#
#
# Elastic Constant Matrix: (Units=GPa)
#
#
# Indices 1 2 3 4 5 6 
#
# 1 127.1179 80.7796 91.2295 0.0000 0.0000 0.0000
# 2 80.7796 208.3293 68.1148 0.0000 0.0000 0.0000
# 3 91.2295 68.1148 206.0734 0.0000 0.0000 0.0000
# 4 0.0000 0.0000 0.0000 205.9490 0.0000 0.0000
# 5 0.0000 0.0000 0.0000 0.0000 81.5352 0.0000
# 6 0.0000 0.0000 0.0000 0.0000 0.0000 38.3260
#
#
#
# Elastic Compliance Matrix: (Units=1/GPa)
#
#
# Indices 1 2 3 4 5 6 
#
# 1 0.013710 -0.003735 -0.004835 0.000000 0.000000 0.000000
# 2 -0.003735 0.006399 -0.000462 0.000000 0.000000 0.000000
# 3 -0.004835 -0.000462 0.007146 0.000000 0.000000 0.000000
# 4 0.000000 0.000000 0.000000 0.004856 0.000000 0.000000
# 5 0.000000 0.000000 0.000000 0.000000 0.012265 0.000000
# 6 0.000000 0.000000 0.000000 0.000000 0.000000 0.026092
#
#
# Mechanical properties :
#
#
# Convention : Reuss Voigt Hill
#
# Bulk Modulus (GPa) = 108.79468 113.52984 111.16226
# Shear Modulus (GPa) = 54.58801 85.25515 69.92158
#
# Velocity S-wave (km/s) = 5.00712 6.25748 5.66689
# Velocity P-wave (km/s) = 9.13212 10.21519 9.68880
#
# Compressibility (1/GPa) = 0.00919163
#
# Stress axis : x y z
#
# Youngs Moduli (GPa) = 72.93758 156.26484 139.94503
#
# Poissons Ratio (x) = 0.58371 0.67663
# Poissons Ratio (y) = 0.27245 0.06459
# Poissons Ratio (z) = 0.35265 0.07213
#
# Static dielectric constant tensor:
#      x y z
#    x 2.002910 0.000000 0.000000 
#    y 0.000000 1.219750 0.000000 
#    z 0.000000 0.000000 1.788040 
# 
# From -- ./inp_files/8688.got.cif
#   From: 2010.05.17/outbox.cif.g08.bks.cpg/sg21_5_cif.got.tgz:8688.got - 2010.06.03 23:14:55.
