data_PCOD9324367
_publ_section_title
;
Structure prediction by ZEFSAII (Michael W. Deem and Ramdas Pophale) SiO2 
 PCOD9324367
Probable space group: C 2 2 2
;
_chemical_formula_sum "Si O2"
_cell_formula_units_Z 32
_cell_length_a 9.561970
_cell_length_b 13.512292
_cell_length_c 10.582652
_cell_angle_alpha 90.000000
_cell_angle_beta 90.000000
_cell_angle_gamma 90.000000
_cell_volume 1367.322353
_symmetry_space_group_name_H-M "C 2 2 2"
_symmetry_group_IT_number 21
_symmetry_cell_setting 'orthorhombic'
loop_
_space_group_symop_operation_xyz
x,y,z
-x,-y,z
x,-y,-z
-x,y,-z
1/2+x,1/2+y,z
1/2-x,1/2-y,z
1/2+x,1/2-y,-z
1/2-x,1/2+y,-z
loop_
_atom_site_type_symbol
_atom_site_label
_atom_site_fract_x
_atom_site_fract_y
_atom_site_fract_z
Si Si1 0.385080 0.795748 0.919440
Si Si2 0.229405 0.603434 0.662710
Si Si3 0.973886 0.189865 0.281589
Si Si4 0.824106 0.622553 0.624433
O O1 0.250000 0.750000 0.988781
O O2 0.319588 0.850049 0.796152
O O3 0.479106 0.707283 0.861533
O O4 0.500000 0.855171 0.000000
O O5 0.398191 0.625863 0.661130
O O6 0.165875 0.493373 0.653517
O O7 0.187732 0.643547 0.524664
O O8 0.942524 0.302791 0.328099
O O9 0.824699 0.144008 0.309675
#
# Coordination Sequence:
#
# PCOD9324367 Si02
#       4
#     8   8   8   8
#     4  10  24  43  70  96 135 185 238 281 335 418
#     4  10  22  41  63 102 139 175 225 294 343 425
#     4  10  22  37  67  93 138 178 223 277 358 413
#     4  10  22  37  67 104 136 172 225 282 366 424
#
# _framework density 23.403406
#
# number of rings (size 3 to 8) (size 9 to 14) (size 15 to 20)
#    0.000    2.000    0.000    1.500   17.500    3.000 
#    0.000    5.000    0.000    1.500    0.000    0.000 
#    0.000    0.000    0.000    0.000    0.000    0.000 
#
# Total GULP energy -89094.700089 kJ/mol
# GULP energy per Si atom -5568.418756 kJ/mol
# Density = 2.335014 g / cm^3
# Si number density = 23.403406 Si / 1000 Ang^3
#
#
#
# Elastic Constant Matrix: (Units=GPa)
#
#
# Indices 1 2 3 4 5 6 
#
# 1 175.3578 25.2961 54.0910 0.0000 0.0000 0.0000
# 2 25.2961 99.9424 8.1754 0.0000 0.0000 0.0000
# 3 54.0910 8.1754 78.7601 0.0000 0.0000 0.0000
# 4 0.0000 0.0000 0.0000 31.5673 0.0000 0.0000
# 5 0.0000 0.0000 0.0000 0.0000 49.5411 0.0000
# 6 0.0000 0.0000 0.0000 0.0000 0.0000 19.3499
#
#
#
# Elastic Compliance Matrix: (Units=1/GPa)
#
#
# Indices 1 2 3 4 5 6 
#
# 1 0.007446 -0.001479 -0.004960 0.000000 0.000000 0.000000
# 2 -0.001479 0.010385 -0.000062 0.000000 0.000000 0.000000
# 3 -0.004960 -0.000062 0.016110 0.000000 0.000000 0.000000
# 4 0.000000 0.000000 0.000000 0.031678 0.000000 0.000000
# 5 0.000000 0.000000 0.000000 0.000000 0.020185 0.000000
# 6 0.000000 0.000000 0.000000 0.000000 0.000000 0.051680
#
#
# Mechanical properties :
#
#
# Convention : Reuss Voigt Hill
#
# Bulk Modulus (GPa) = 47.75981 58.79837 53.27909
# Shear Modulus (GPa) = 31.75273 37.85819 34.80546
#
# Velocity S-wave (km/s) = 3.68741 4.02635 3.86060
# Velocity P-wave (km/s) = 6.21135 6.84059 6.53355
#
# Compressibility (1/GPa) = 0.02093811
#
# Stress axis : x y z
#
# Youngs Moduli (GPa) = 134.30010 96.29104 62.07372
#
# Poissons Ratio (x) = 0.14240 0.30790
# Poissons Ratio (y) = 0.19861 0.00387
# Poissons Ratio (z) = 0.66617 0.00600
#
# Static dielectric constant tensor:
#      x y z
#    x 1.766900 0.000000 0.000000 
#    y 0.000000 1.961460 0.000000 
#    z 0.000000 0.000000 1.900880 
# 
# From -- ./inp_files/21813.got.cif
#   From: 2010.05.17/outbox.cif.g08.bks.cpg/sg21_11_cif.got.tgz:21813.got - 2010.06.03 23:14:55.
