data_PCOD9324519
_publ_section_title
;
Structure prediction by ZEFSAII (Michael W. Deem and Ramdas Pophale) SiO2 
 PCOD9324519
Probable space group: C 2 2 2
;
_chemical_formula_sum "Si O2"
_cell_formula_units_Z 34
_cell_length_a 5.746910
_cell_length_b 25.275257
_cell_length_c 11.787193
_cell_angle_alpha 90.000000
_cell_angle_beta 90.000000
_cell_angle_gamma 90.000000
_cell_volume 1712.144325
_symmetry_space_group_name_H-M "C 2 2 2"
_symmetry_group_IT_number 21
_symmetry_cell_setting 'orthorhombic'
loop_
_space_group_symop_operation_xyz
x,y,z
-x,-y,z
x,-y,-z
-x,y,-z
1/2+x,1/2+y,z
1/2-x,1/2-y,z
1/2+x,1/2-y,-z
1/2-x,1/2+y,-z
loop_
_atom_site_type_symbol
_atom_site_label
_atom_site_fract_x
_atom_site_fract_y
_atom_site_fract_z
Si Si1 0.043284 0.405891 0.120637
Si Si2 0.250000 0.750000 0.564570
Si Si3 0.000000 0.500000 0.000000
Si Si4 0.826764 0.949964 0.701571
Si Si5 0.000000 0.565455 0.500000
Si Si6 0.197144 0.863648 0.669087
O O1 0.190271 0.372664 0.207751
O O2 0.828591 0.431654 0.190974
O O3 0.000000 0.377267 0.000000
O O4 0.156683 0.460195 0.073409
O O5 0.500000 0.759688 0.500000
O O6 0.195975 0.802898 0.635330
O O7 0.668788 0.962844 0.591644
O O8 0.957759 0.895605 0.670140
O O9 0.000000 0.000000 0.718781
O O10 0.151720 0.603520 0.579548
#
# Coordination Sequence:
#
# PCOD9324519 Si02
#       6
#     8   4   2   8   4   8
#     4   9  21  40  64  92 134 173 223 283 335 413
#     4  12  26  46  78 104 140 190 240 298 360 432
#     4   8  16  40  62  86 136 174 220 272 346 420
#     4  11  23  38  64  97 131 179 222 275 353 422
#     4  10  22  41  56  92 140 164 213 276 344 410
#     4  11  23  41  67 101 130 178 230 285 343 425
#
# _framework density 19.858139999999999
#
# number of rings (size 3 to 8) (size 9 to 14) (size 15 to 20)
#    0.706    0.941    1.176    3.529    3.294    6.588 
#    0.000    0.000    5.176    0.000    0.000    0.000 
#    0.000    0.000    0.000    0.000    0.000    0.000 
#
# Total GULP energy -94645.890559 kJ/mol
# GULP energy per Si atom -5567.405327 kJ/mol
# Density = 1.981294 g / cm^3
# Si number density = 19.858140 Si / 1000 Ang^3
#
#
#
# Elastic Constant Matrix: (Units=GPa)
#
#
# Indices 1 2 3 4 5 6 
#
# 1 93.6169 49.0456 64.9398 0.0000 0.0000 0.0000
# 2 49.0456 134.7666 39.3581 0.0000 0.0000 0.0000
# 3 64.9398 39.3581 162.9446 0.0000 0.0000 0.0000
# 4 0.0000 0.0000 0.0000 48.3851 0.0000 0.0000
# 5 0.0000 0.0000 0.0000 0.0000 -1.0186 0.0000
# 6 0.0000 0.0000 0.0000 0.0000 0.0000 24.0261
#
#
#
# Elastic Compliance Matrix: (Units=1/GPa)
#
#
# Indices 1 2 3 4 5 6 
#
# 1 0.016992 -0.004525 -0.005679 0.000000 0.000000 0.000000
# 2 -0.004525 0.009189 -0.000416 0.000000 0.000000 0.000000
# 3 -0.005679 -0.000416 0.008501 0.000000 0.000000 0.000000
# 4 0.000000 0.000000 0.000000 0.020668 0.000000 0.000000
# 5 0.000000 0.000000 0.000000 0.000000 -0.981706 0.000000
# 6 0.000000 0.000000 0.000000 0.000000 0.000000 0.041621
#
#
# Mechanical properties :
#
#
# Convention : Reuss Voigt Hill
#
# Bulk Modulus (GPa) = 74.39918 77.55723 75.97820
# Shear Modulus (GPa) = -5.82062 30.14417 12.16177
#
# Velocity S-wave (km/s) = -1.71390 3.90035 2.47742
# Velocity P-wave (km/s) = 5.79914 7.70870 6.82107
#
# Compressibility (1/GPa) = 0.01344101
#
# Stress axis : x y z
#
# Youngs Moduli (GPa) = 58.85134 108.83030 117.63637
#
# Poissons Ratio (x) = 0.49250 0.66804
# Poissons Ratio (y) = 0.26632 0.04893
# Poissons Ratio (z) = 0.33421 0.04526
#
# Static dielectric constant tensor:
#      x y z
#    x 1.683390 0.000000 0.000000 
#    y 0.000000 1.697660 0.000000 
#    z 0.000000 0.000000 1.875600 
# 
# From -- ./inp_files/21010.got.cif
#   From: 2010.05.17/outbox.cif.g08.bks.cpg/sg21_11_cif.got.tgz:21010.got - 2010.06.03 23:14:55.
