data_PCOD9324660
_publ_section_title
;
Structure prediction by ZEFSAII (Michael W. Deem and Ramdas Pophale) SiO2 
 PCOD9324660
Probable space group: C 2 2 2
;
_chemical_formula_sum "Si O2"
_cell_formula_units_Z 34
_cell_length_a 19.536711
_cell_length_b 9.009741
_cell_length_c 8.290014
_cell_angle_alpha 90.000000
_cell_angle_beta 90.000000
_cell_angle_gamma 90.000000
_cell_volume 1459.214118
_symmetry_space_group_name_H-M "C 2 2 2"
_symmetry_group_IT_number 21
_symmetry_cell_setting 'orthorhombic'
loop_
_space_group_symop_operation_xyz
x,y,z
-x,-y,z
x,-y,-z
-x,y,-z
1/2+x,1/2+y,z
1/2-x,1/2-y,z
1/2+x,1/2-y,-z
1/2-x,1/2+y,-z
loop_
_atom_site_type_symbol
_atom_site_label
_atom_site_fract_x
_atom_site_fract_y
_atom_site_fract_z
Si Si1 0.000000 0.000000 0.000000
Si Si2 0.060275 0.189868 0.723528
Si Si3 0.597513 0.302711 0.634884
Si Si4 0.231740 0.925347 0.673580
Si Si5 0.631577 0.994056 0.810330
O O1 0.051405 0.101329 0.891746
O O2 0.102889 0.165178 0.556576
O O3 0.086808 0.354891 0.757654
O O4 0.981251 0.173551 0.671726
O O5 0.652229 0.410272 0.721602
O O6 0.611444 0.136370 0.700731
O O7 0.250000 0.750000 0.661111
O O8 0.285978 0.011082 0.784357
O O9 0.239589 0.000000 0.500000
O O10 0.618957 0.000000 0.000000
#
# Coordination Sequence:
#
# PCOD9324660 Si02
#       5
#     2   8   8   8   8
#     4  12  28  42  66 120 156 206 248 346 402 454
#     4  11  24  44  70 104 156 198 260 317 395 474
#     4  10  23  43  75 106 142 206 258 320 386 483
#     4  10  22  43  70 106 146 199 263 311 386 474
#     4  11  22  43  72 108 150 197 262 327 387 456
#
# _framework density 23.300215000000001
#
# number of rings (size 3 to 8) (size 9 to 14) (size 15 to 20)
#    0.000    1.412    0.000    5.647    3.294    3.765 
#    2.118   10.588    0.000    0.000    0.000    0.000 
#    0.000    0.000    0.000    0.000    0.000    0.000 
#
# Total GULP energy -94725.933598 kJ/mol
# GULP energy per Si atom -5572.113741 kJ/mol
# Density = 2.324718 g / cm^3
# Si number density = 23.300215 Si / 1000 Ang^3
#
#
#
# Elastic Constant Matrix: (Units=GPa)
#
#
# Indices 1 2 3 4 5 6 
#
# 1 68.6107 25.3130 20.0529 0.0000 0.0000 0.0000
# 2 25.3130 117.3468 53.5581 0.0000 0.0000 0.0000
# 3 20.0529 53.5581 102.2882 0.0000 0.0000 0.0000
# 4 0.0000 0.0000 0.0000 44.9602 0.0000 0.0000
# 5 0.0000 0.0000 0.0000 0.0000 29.3981 0.0000
# 6 0.0000 0.0000 0.0000 0.0000 0.0000 -34.0281
#
#
#
# Elastic Compliance Matrix: (Units=1/GPa)
#
#
# Indices 1 2 3 4 5 6 
#
# 1 0.016071 -0.002666 -0.001755 0.000000 0.000000 0.000000
# 2 -0.002666 0.011640 -0.005572 0.000000 0.000000 0.000000
# 3 -0.001755 -0.005572 0.013038 0.000000 0.000000 0.000000
# 4 0.000000 0.000000 0.000000 0.022242 0.000000 0.000000
# 5 0.000000 0.000000 0.000000 0.000000 0.034016 0.000000
# 6 0.000000 0.000000 0.000000 0.000000 0.000000 -0.029387
#
#
# Mechanical properties :
#
#
# Convention : Reuss Voigt Hill
#
# Bulk Modulus (GPa) = 48.16096 54.01038 51.08567
# Shear Modulus (GPa) = 52.89543 20.68749 36.79146
#
# Velocity S-wave (km/s) = 4.76980 2.98294 3.97800
# Velocity P-wave (km/s) = 7.14488 5.92406 6.56292
#
# Compressibility (1/GPa) = 0.02076371
#
# Stress axis : x y z
#
# Youngs Moduli (GPa) = 62.22227 85.91112 76.69975
#
# Poissons Ratio (x) = 0.22903 0.13460
# Poissons Ratio (y) = 0.16588 0.42737
# Poissons Ratio (z) = 0.10919 0.47870
#
# Static dielectric constant tensor:
#      x y z
#    x 1.981400 0.000000 0.000000 
#    y 0.000000 1.942720 0.000000 
#    z 0.000000 0.000000 1.907780 
# 
# From -- ./inp_files/17186.got.cif
#   From: 2010.05.17/outbox.cif.g08.bks.cpg/sg21_9_cif.got.tgz:17186.got - 2010.06.03 23:14:55.
