data_PCOD9324083
_publ_section_title
;
Structure prediction by ZEFSAII (Michael W. Deem and Ramdas Pophale) SiO2 
 PCOD9324083
Probable space group: C 2 2 2
;
_chemical_formula_sum "Si O2"
_cell_formula_units_Z 58
_cell_length_a 8.505540
_cell_length_b 26.654559
_cell_length_c 12.955334
_cell_angle_alpha 90.000000
_cell_angle_beta 90.000000
_cell_angle_gamma 90.000000
_cell_volume 2937.122139
_symmetry_space_group_name_H-M "C 2 2 2"
_symmetry_group_IT_number 21
_symmetry_cell_setting 'orthorhombic'
loop_
_space_group_symop_operation_xyz
x,y,z
-x,-y,z
x,-y,-z
-x,y,-z
1/2+x,1/2+y,z
1/2-x,1/2-y,z
1/2+x,1/2-y,-z
1/2-x,1/2+y,-z
loop_
_atom_site_type_symbol
_atom_site_label
_atom_site_fract_x
_atom_site_fract_y
_atom_site_fract_z
Si Si1 0.405420 0.628508 0.842466
Si Si2 0.914346 0.722869 0.899265
Si Si3 0.500000 0.500000 0.500000
Si Si4 0.670107 0.453663 0.686478
Si Si5 0.757465 0.879083 0.938059
Si Si6 0.853833 0.460420 0.217251
Si Si7 0.522568 0.106914 0.622366
Si Si8 0.166114 0.702134 0.725457
O O1 0.420558 0.583329 0.761763
O O2 0.580990 0.639118 0.882138
O O3 0.303309 0.671455 0.786025
O O4 0.303817 0.612851 0.942835
O O5 0.750000 0.750000 0.876378
O O6 0.865846 0.665761 0.925433
O O7 0.040157 0.722135 0.808305
O O8 0.000000 0.745588 0.000000
O O9 0.595359 0.465417 0.577354
O O10 0.711461 0.504952 0.744589
O O11 0.830734 0.425997 0.658692
O O12 0.689455 0.928683 0.883817
O O13 0.000000 0.500000 0.203418
O O14 0.888174 0.418849 0.306995
O O15 0.500000 0.102402 0.500000
O O16 0.570405 0.163377 0.653964
O O17 0.250000 0.750000 0.673749
#
# Coordination Sequence:
#
# PCOD9324083 Si02
#       8
#     8   8   2   8   8   8   8   8
#     4  10  23  39  60  91 132 163 205 258 316 371
#     4  12  24  37  63  94 122 163 211 256 311 375
#     4  12  20  36  62  86 116 160 216 254 304 382
#     4  10  22  37  60  89 123 162 205 264 314 355
#     4  11  22  39  61  91 128 170 207 250 311 392
#     4  10  21  39  63  93 126 165 213 259 313 379
#     4  10  21  40  63  88 118 160 208 267 316 375
#     4  11  22  42  63  87 124 162 205 265 320 371
#
# _framework density 19.747219999999999
#
# number of rings (size 3 to 8) (size 9 to 14) (size 15 to 20)
#    0.000    1.379    2.759    2.897    1.931    2.483 
#    0.000    5.517    6.069    0.000    0.000    0.000 
#    0.000    0.000    0.000    0.000    0.000    0.000 
#
# Total GULP energy -161933.974251 kJ/mol
# GULP energy per Si atom -5583.930147 kJ/mol
# Density = 1.970227 g / cm^3
# Si number density = 19.747220 Si / 1000 Ang^3
#
#
#
# Elastic Constant Matrix: (Units=GPa)
#
#
# Indices 1 2 3 4 5 6 
#
# 1 47.3523 25.4618 -6.7669 0.0000 0.0000 0.0000
# 2 25.4618 108.9544 28.5020 0.0000 0.0000 0.0000
# 3 -6.7669 28.5020 52.9964 0.0000 0.0000 0.0000
# 4 0.0000 0.0000 0.0000 13.9695 0.0000 0.0000
# 5 0.0000 0.0000 0.0000 0.0000 -23.5348 0.0000
# 6 0.0000 0.0000 0.0000 0.0000 0.0000 19.5179
#
#
#
# Elastic Compliance Matrix: (Units=1/GPa)
#
#
# Indices 1 2 3 4 5 6 
#
# 1 0.026707 -0.008301 0.007875 0.000000 0.000000 0.000000
# 2 -0.008301 0.013261 -0.008192 0.000000 0.000000 0.000000
# 3 0.007875 -0.008192 0.024280 0.000000 0.000000 0.000000
# 4 0.000000 0.000000 0.000000 0.071584 0.000000 0.000000
# 5 0.000000 0.000000 0.000000 0.000000 -0.042490 0.000000
# 6 0.000000 0.000000 0.000000 0.000000 0.000000 0.051235
#
#
# Mechanical properties :
#
#
# Convention : Reuss Voigt Hill
#
# Bulk Modulus (GPa) = 21.27129 33.74410 27.50770
# Shear Modulus (GPa) = 28.17133 12.79761 20.48447
#
# Velocity S-wave (km/s) = 3.78113 2.54849 3.22426
# Velocity P-wave (km/s) = 5.46423 5.07788 5.27459
#
# Compressibility (1/GPa) = 0.04701172
#
# Stress axis : x y z
#
# Youngs Moduli (GPa) = 37.44292 75.40874 41.18556
#
# Poissons Ratio (x) = 0.62599 -0.32432
# Poissons Ratio (y) = 0.31082 0.33739
# Poissons Ratio (z) = -0.29485 0.61774
#
# Static dielectric constant tensor:
#      x y z
#    x 1.710920 0.000000 0.000000 
#    y 0.000000 1.832200 0.000000 
#    z 0.000000 0.000000 1.682460 
# 
# From -- ./inp_files/23024.got.cif
#   From: 2010.05.17/outbox.cif.g08.bks.cpg/sg21_12_cif.got.tgz:23024.got - 2010.06.03 23:14:55.
