data_PCOD9324145
_publ_section_title
;
Structure prediction by ZEFSAII (Michael W. Deem and Ramdas Pophale) SiO2 
 PCOD9324145
Probable space group: C 2 2 2
;
_chemical_formula_sum "Si O2"
_cell_formula_units_Z 48
_cell_length_a 27.323047
_cell_length_b 15.667341
_cell_length_c 4.939997
_cell_angle_alpha 90.000000
_cell_angle_beta 90.000000
_cell_angle_gamma 90.000000
_cell_volume 2114.711419
_symmetry_space_group_name_H-M "C 2 2 2"
_symmetry_group_IT_number 21
_symmetry_cell_setting 'orthorhombic'
loop_
_space_group_symop_operation_xyz
x,y,z
-x,-y,z
x,-y,-z
-x,y,-z
1/2+x,1/2+y,z
1/2-x,1/2-y,z
1/2+x,1/2-y,-z
1/2-x,1/2+y,-z
loop_
_atom_site_type_symbol
_atom_site_label
_atom_site_fract_x
_atom_site_fract_y
_atom_site_fract_z
Si Si1 0.399344 0.276506 0.242888
Si Si2 0.181884 0.094427 0.384672
Si Si3 0.885033 0.500000 0.500000
Si Si4 0.500000 0.770305 0.000000
Si Si5 0.849453 0.390039 0.988668
Si Si6 0.256965 0.651471 0.112973
Si Si7 0.433819 0.137533 0.612362
O O1 0.369050 0.360397 0.303780
O O2 0.366323 0.206326 0.087692
O O3 0.410908 0.226337 0.518434
O O4 0.452623 0.281990 0.100235
O O5 0.210975 0.146573 0.615836
O O6 0.174938 0.000000 0.500000
O O7 0.214789 0.099873 0.118177
O O8 0.847190 0.447680 0.719158
O O9 0.931099 0.568499 0.380926
O O10 0.519432 0.833814 0.770466
O O11 0.797458 0.385253 0.133067
O O12 0.890930 0.414456 0.218371
O O13 0.250000 0.750000 0.029726
#
# Coordination Sequence:
#
# PCOD9324145 Si02
#       7
#     8   8   4   4   8   8   8
#     4  10  22  44  68  97 131 182 234 300 362 437
#     4  12  28  45  70 110 147 188 242 306 362 428
#     4  10  22  36  61  94 142 184 226 302 359 422
#     4  10  22  42  71  95 124 180 246 290 374 449
#     4  10  22  39  63  94 140 190 236 285 349 431
#     4  12  25  45  72 105 143 201 246 289 359 439
#     4  10  21  40  63  95 128 180 233 292 360 430
#
# _framework density 22.698135000000001
#
# number of rings (size 3 to 8) (size 9 to 14) (size 15 to 20)
#    0.000    1.333    1.667    3.000    8.167    1.333 
#    0.000   24.167    0.000    3.000    0.000    0.000 
#    0.000    0.000    0.000    0.000    0.000    0.000 
#
# Total GULP energy -133773.675771 kJ/mol
# GULP energy per Si atom -5573.903157 kJ/mol
# Density = 2.264647 g / cm^3
# Si number density = 22.698135 Si / 1000 Ang^3
#
#
#
# Elastic Constant Matrix: (Units=GPa)
#
#
# Indices 1 2 3 4 5 6 
#
# 1 168.1467 52.7505 46.9728 0.0000 0.0000 0.0000
# 2 52.7505 113.0030 12.7625 0.0000 0.0000 0.0000
# 3 46.9728 12.7625 105.9177 0.0000 0.0000 0.0000
# 4 0.0000 0.0000 0.0000 29.7067 0.0000 0.0000
# 5 0.0000 0.0000 0.0000 0.0000 39.4762 0.0000
# 6 0.0000 0.0000 0.0000 0.0000 0.0000 -19.1803
#
#
#
# Elastic Compliance Matrix: (Units=1/GPa)
#
#
# Indices 1 2 3 4 5 6 
#
# 1 0.007848 -0.003316 -0.003081 0.000000 0.000000 0.000000
# 2 -0.003316 0.010372 0.000221 0.000000 0.000000 0.000000
# 3 -0.003081 0.000221 0.010781 0.000000 0.000000 0.000000
# 4 0.000000 0.000000 0.000000 0.033662 0.000000 0.000000
# 5 0.000000 0.000000 0.000000 0.000000 0.025332 0.000000
# 6 0.000000 0.000000 0.000000 0.000000 0.000000 -0.052137
#
#
# Mechanical properties :
#
#
# Convention : Reuss Voigt Hill
#
# Bulk Modulus (GPa) = 60.06220 68.00433 64.03326
# Shear Modulus (GPa) = 93.00556 28.30595 60.65575
#
# Velocity S-wave (km/s) = 6.40811 3.53521 5.17502
# Velocity P-wave (km/s) = 9.01502 6.83293 7.99874
#
# Compressibility (1/GPa) = 0.01664941
#
# Stress axis : x y z
#
# Youngs Moduli (GPa) = 127.42076 96.41231 92.75520
#
# Poissons Ratio (x) = 0.31966 0.28578
# Poissons Ratio (y) = 0.42247 -0.02046
# Poissons Ratio (z) = 0.39258 -0.02127
#
# Static dielectric constant tensor:
#      x y z
#    x 1.910510 0.000000 0.000000 
#    y 0.000000 1.928920 0.000000 
#    z 0.000000 0.000000 2.554320 
# 
# From -- ./inp_files/7355.got.cif
#   From: 2010.05.17/outbox.cif.g08.bks.cpg/sg21_4_cif.got.tgz:7355.got - 2010.06.03 23:14:55.
