data_PCOD9324132
_publ_section_title
;
Structure prediction by ZEFSAII (Michael W. Deem and Ramdas Pophale) SiO2 
 PCOD9324132
Probable space group: C 2 2 2
;
_chemical_formula_sum "Si O2"
_cell_formula_units_Z 52
_cell_length_a 7.754330
_cell_length_b 20.771501
_cell_length_c 15.830259
_cell_angle_alpha 90.000000
_cell_angle_beta 90.000000
_cell_angle_gamma 90.000000
_cell_volume 2549.765148
_symmetry_space_group_name_H-M "C 2 2 2"
_symmetry_group_IT_number 21
_symmetry_cell_setting 'orthorhombic'
loop_
_space_group_symop_operation_xyz
x,y,z
-x,-y,z
x,-y,-z
-x,y,-z
1/2+x,1/2+y,z
1/2-x,1/2-y,z
1/2+x,1/2-y,-z
1/2-x,1/2+y,-z
loop_
_atom_site_type_symbol
_atom_site_label
_atom_site_fract_x
_atom_site_fract_y
_atom_site_fract_z
Si Si1 0.934157 0.863431 0.305234
Si Si2 0.574818 0.710002 0.848203
Si Si3 0.245496 0.500000 0.000000
Si Si4 0.455540 0.752412 0.593887
Si Si5 0.549320 0.172812 0.758629
Si Si6 0.000000 0.112810 0.000000
Si Si7 0.500000 0.500000 0.264940
Si Si8 0.853956 0.546949 0.820205
O O1 0.995327 0.821644 0.384933
O O2 0.740896 0.850311 0.268000
O O3 0.057371 0.836829 0.231596
O O4 0.946943 0.938538 0.318594
O O5 0.750000 0.750000 0.855504
O O6 0.443185 0.768599 0.826115
O O7 0.552351 0.661718 0.926049
O O8 0.358000 0.561219 0.966962
O O9 0.152895 0.466354 0.920855
O O10 0.500000 0.773202 0.500000
O O11 0.250000 0.750000 0.601748
O O12 0.523403 0.796223 0.670962
O O13 0.427801 0.116962 0.795707
O O14 0.665545 0.475468 0.211499
O O15 0.000000 0.500000 0.783207
#
# Coordination Sequence:
#
# PCOD9324132 Si02
#       8
#     8   8   4   8   8   4   4   8
#     4  10  21  40  62  91 128 171 218 273 325 394
#     4  11  22  38  59  89 121 166 216 275 335 387
#     4  11  23  42  60  87 127 172 221 275 326 397
#     4   9  20  38  66  98 133 169 209 268 331 392
#     4  10  22  42  64  95 131 166 222 273 329 391
#     4  11  24  40  60  88 129 168 224 280 329 384
#     4  12  22  39  67  92 124 178 224 268 324 390
#     4  12  24  42  65  93 125 172 225 267 328 389
#
# _framework density 20.394037000000001
#
# number of rings (size 3 to 8) (size 9 to 14) (size 15 to 20)
#    0.000    1.385    1.538    6.231    0.000    4.923 
#    2.769    0.385    0.000    0.462    0.000    0.000 
#    0.000    0.000    0.000    0.000    0.000    0.000 
#
# Total GULP energy -144856.084975 kJ/mol
# GULP energy per Si atom -5571.387884 kJ/mol
# Density = 2.034762 g / cm^3
# Si number density = 20.394037 Si / 1000 Ang^3
#
#
#
# Elastic Constant Matrix: (Units=GPa)
#
#
# Indices 1 2 3 4 5 6 
#
# 1 90.3060 43.4689 20.1928 0.0000 0.0000 0.0000
# 2 43.4689 190.1254 54.8114 0.0000 0.0000 0.0000
# 3 20.1928 54.8114 98.1833 0.0000 0.0000 0.0000
# 4 0.0000 0.0000 0.0000 15.0285 0.0000 0.0000
# 5 0.0000 0.0000 0.0000 0.0000 17.7378 0.0000
# 6 0.0000 0.0000 0.0000 0.0000 0.0000 24.8126
#
#
#
# Elastic Compliance Matrix: (Units=1/GPa)
#
#
# Indices 1 2 3 4 5 6 
#
# 1 0.012554 -0.002534 -0.001167 0.000000 0.000000 0.000000
# 2 -0.002534 0.006780 -0.003264 0.000000 0.000000 0.000000
# 3 -0.001167 -0.003264 0.012247 0.000000 0.000000 0.000000
# 4 0.000000 0.000000 0.000000 0.066540 0.000000 0.000000
# 5 0.000000 0.000000 0.000000 0.000000 0.056377 0.000000
# 6 0.000000 0.000000 0.000000 0.000000 0.000000 0.040302
#
#
# Mechanical properties :
#
#
# Convention : Reuss Voigt Hill
#
# Bulk Modulus (GPa) = 56.65342 68.39567 62.52455
# Shear Modulus (GPa) = 23.29764 28.85856 26.07810
#
# Velocity S-wave (km/s) = 3.38357 3.76579 3.57979
# Velocity P-wave (km/s) = 6.56540 7.24694 6.91457
#
# Compressibility (1/GPa) = 0.01765119
#
# Stress axis : x y z
#
# Youngs Moduli (GPa) = 79.65512 147.49455 81.65138
#
# Poissons Ratio (x) = 0.37371 0.09533
# Poissons Ratio (y) = 0.20182 0.26650
# Poissons Ratio (z) = 0.09300 0.48140
#
# Static dielectric constant tensor:
#      x y z
#    x 1.880080 0.000000 0.000000 
#    y 0.000000 1.763960 0.000000 
#    z 0.000000 0.000000 1.727770 
# 
# From -- ./inp_files/30720.got.cif
#   From: 2010.05.17/outbox.cif.g08.bks.cpg/sg21_16_cif.got.tgz:30720.got - 2010.06.03 23:14:55.
