data_PCOD9324448
_publ_section_title
;
Structure prediction by ZEFSAII (Michael W. Deem and Ramdas Pophale) SiO2 
 PCOD9324448
Probable space group: C 2 2 2
;
_chemical_formula_sum "Si O2"
_cell_formula_units_Z 48
_cell_length_a 25.799600
_cell_length_b 14.632472
_cell_length_c 5.777126
_cell_angle_alpha 90.000000
_cell_angle_beta 90.000000
_cell_angle_gamma 90.000000
_cell_volume 2180.933955
_symmetry_space_group_name_H-M "C 2 2 2"
_symmetry_group_IT_number 21
_symmetry_cell_setting 'orthorhombic'
loop_
_space_group_symop_operation_xyz
x,y,z
-x,-y,z
x,-y,-z
-x,y,-z
1/2+x,1/2+y,z
1/2-x,1/2-y,z
1/2+x,1/2-y,-z
1/2-x,1/2+y,-z
loop_
_atom_site_type_symbol
_atom_site_label
_atom_site_fract_x
_atom_site_fract_y
_atom_site_fract_z
Si Si1 0.500000 0.295803 0.000000
Si Si2 0.145363 0.500000 0.000000
Si Si3 0.764095 0.562797 0.301428
Si Si4 0.196038 0.270266 0.596187
Si Si5 0.334370 0.641051 0.781222
Si Si6 0.558483 0.450402 0.749753
Si Si7 0.608315 0.197426 0.059657
O O1 0.477515 0.360445 0.207561
O O2 0.549977 0.236057 0.076393
O O3 0.187548 0.495170 0.206478
O O4 0.112023 0.592335 0.978612
O O5 0.739812 0.500000 0.500000
O O6 0.787660 0.655559 0.405401
O O7 0.718563 0.595254 0.128100
O O8 0.250000 0.250000 0.733260
O O9 0.180753 0.177214 0.471036
O O10 0.143780 0.303916 0.713045
O O11 0.381336 0.573037 0.757222
O O12 0.358494 0.728419 0.912536
O O13 0.550592 0.500000 0.500000
O O14 0.551434 0.500000 0.000000
#
# Coordination Sequence:
#
# PCOD9324448 Si02
#       7
#     4   4   8   8   8   8   8
#     4  10  27  51  70 100 138 200 240 301 361 420
#     4  12  24  37  70  98 140 177 234 298 340 424
#     4  11  22  39  61 100 138 185 227 283 355 424
#     4  10  22  39  65  96 137 177 228 282 354 433
#     4  10  24  40  66 100 142 183 227 282 365 446
#     4  11  26  49  74 107 146 187 242 302 359 432
#     4  11  24  45  68 100 133 186 238 294 358 422
#
# _framework density 22.008918000000001
#
# number of rings (size 3 to 8) (size 9 to 14) (size 15 to 20)
#    0.000    1.333    3.333    0.750    8.167    1.667 
#    3.000    0.000    0.000    0.000    0.000    0.000 
#    0.000    0.000    0.000    0.000    0.000    0.000 
#
# Total GULP energy -133684.929242 kJ/mol
# GULP energy per Si atom -5570.205385 kJ/mol
# Density = 2.195883 g / cm^3
# Si number density = 22.008918 Si / 1000 Ang^3
#
#
#
# Elastic Constant Matrix: (Units=GPa)
#
#
# Indices 1 2 3 4 5 6 
#
# 1 198.9545 74.9179 45.2790 0.0000 0.0000 0.0000
# 2 74.9179 116.8485 37.4077 0.0000 0.0000 0.0000
# 3 45.2790 37.4077 58.9222 0.0000 0.0000 0.0000
# 4 0.0000 0.0000 0.0000 33.0128 0.0000 0.0000
# 5 0.0000 0.0000 0.0000 0.0000 30.5498 0.0000
# 6 0.0000 0.0000 0.0000 0.0000 0.0000 49.9664
#
#
#
# Elastic Compliance Matrix: (Units=1/GPa)
#
#
# Indices 1 2 3 4 5 6 
#
# 1 0.007079 -0.003511 -0.003211 0.000000 0.000000 0.000000
# 2 -0.003511 0.012482 -0.005227 0.000000 0.000000 0.000000
# 3 -0.003211 -0.005227 0.022757 0.000000 0.000000 0.000000
# 4 0.000000 0.000000 0.000000 0.030291 0.000000 0.000000
# 5 0.000000 0.000000 0.000000 0.000000 0.032733 0.000000
# 6 0.000000 0.000000 0.000000 0.000000 0.000000 0.020013
#
#
# Mechanical properties :
#
#
# Convention : Reuss Voigt Hill
#
# Bulk Modulus (GPa) = 54.28407 76.65938 65.47172
# Shear Modulus (GPa) = 32.17615 37.18052 34.67833
#
# Velocity S-wave (km/s) = 3.82771 4.11462 3.97375
# Velocity P-wave (km/s) = 6.65231 7.58156 7.13209
#
# Compressibility (1/GPa) = 0.01842161
#
# Stress axis : x y z
#
# Youngs Moduli (GPa) = 141.26128 80.11324 43.94182
#
# Poissons Ratio (x) = 0.28126 0.14110
# Poissons Ratio (y) = 0.49594 0.22967
# Poissons Ratio (z) = 0.45360 0.41873
#
# Static dielectric constant tensor:
#      x y z
#    x 1.815850 0.000000 0.000000 
#    y 0.000000 1.875150 0.000000 
#    z 0.000000 0.000000 1.916390 
# 
# From -- ./inp_files/7378.got.cif
#   From: 2010.05.17/outbox.cif.g08.bks.cpg/sg21_4_cif.got.tgz:7378.got - 2010.06.03 23:14:55.
