data_PCOD9324522
_publ_section_title
;
Structure prediction by ZEFSAII (Michael W. Deem and Ramdas Pophale) SiO2 
 PCOD9324522
Probable space group: C 2 2 2
;
_chemical_formula_sum "Si O2"
_cell_formula_units_Z 48
_cell_length_a 19.717113
_cell_length_b 19.827711
_cell_length_c 5.329649
_cell_angle_alpha 90.000000
_cell_angle_beta 90.000000
_cell_angle_gamma 90.000000
_cell_volume 2083.600792
_symmetry_space_group_name_H-M "C 2 2 2"
_symmetry_group_IT_number 21
_symmetry_cell_setting 'orthorhombic'
loop_
_space_group_symop_operation_xyz
x,y,z
-x,-y,z
x,-y,-z
-x,y,-z
1/2+x,1/2+y,z
1/2-x,1/2-y,z
1/2+x,1/2-y,-z
1/2-x,1/2+y,-z
loop_
_atom_site_type_symbol
_atom_site_label
_atom_site_fract_x
_atom_site_fract_y
_atom_site_fract_z
Si Si1 0.118107 0.295048 0.763023
Si Si2 0.730252 0.171774 0.596658
Si Si3 0.500000 0.000000 0.500000
Si Si4 0.000000 0.225055 0.500000
Si Si5 0.076478 0.568769 0.104096
Si Si6 0.000000 0.000000 0.500000
Si Si7 0.436363 0.614345 0.821177
Si Si8 0.693297 0.343490 0.096382
O O1 0.154631 0.324065 0.513023
O O2 0.043418 0.268144 0.695704
O O3 0.111333 0.360505 0.935724
O O4 0.163247 0.233492 0.873269
O O5 0.750000 0.250000 0.602147
O O6 0.752722 0.147957 0.870957
O O7 0.774913 0.139580 0.367665
O O8 0.555349 0.051822 0.386183
O O9 0.057011 0.177056 0.371342
O O10 0.109781 0.500000 0.000000
O O11 0.000000 0.571207 0.000000
O O12 0.047968 0.047140 0.332419
O O13 0.370778 0.614973 0.994577
O O14 0.500000 0.624540 0.000000
#
# Coordination Sequence:
#
# PCOD9324522 Si02
#       8
#     8   8   2   4   8   2   8   8
#     4  11  22  39  67 101 135 180 227 281 353 405
#     4  10  22  41  61  93 134 183 215 268 339 408
#     4   8  16  40  54  84 130 176 214 270 326 400
#     4  11  23  35  60 109 136 160 214 296 345 391
#     4   9  20  38  58  90 135 175 222 274 334 405
#     4  10  26  40  70  96 130 188 208 270 372 404
#     4  11  22  42  64  99 134 165 221 284 334 423
#     4  11  23  42  65  95 138 170 225 282 333 395
#
# _framework density 23.037044000000002
#
# number of rings (size 3 to 8) (size 9 to 14) (size 15 to 20)
#    0.000    1.833    1.667    4.250    4.667    0.000 
#   18.000    0.000    3.667    0.000    0.000    0.000 
#    0.000    0.000    0.000    0.000    0.000    0.000 
#
# Total GULP energy -133843.980764 kJ/mol
# GULP energy per Si atom -5576.832532 kJ/mol
# Density = 2.298461 g / cm^3
# Si number density = 23.037044 Si / 1000 Ang^3
#
#
#
# Elastic Constant Matrix: (Units=GPa)
#
#
# Indices 1 2 3 4 5 6 
#
# 1 85.0036 24.6805 24.1141 0.0000 0.0000 0.0000
# 2 24.6805 98.1430 25.7100 0.0000 0.0000 0.0000
# 3 24.1141 25.7100 89.8585 0.0000 0.0000 0.0000
# 4 0.0000 0.0000 0.0000 19.6357 0.0000 0.0000
# 5 0.0000 0.0000 0.0000 0.0000 0.2365 0.0000
# 6 0.0000 0.0000 0.0000 0.0000 0.0000 -24.2594
#
#
#
# Elastic Compliance Matrix: (Units=1/GPa)
#
#
# Indices 1 2 3 4 5 6 
#
# 1 0.013324 -0.002610 -0.002829 0.000000 0.000000 0.000000
# 2 -0.002610 0.011526 -0.002597 0.000000 0.000000 0.000000
# 3 -0.002829 -0.002597 0.012631 0.000000 0.000000 0.000000
# 4 0.000000 0.000000 0.000000 0.050928 0.000000 0.000000
# 5 0.000000 0.000000 0.000000 0.000000 4.228263 0.000000
# 6 0.000000 0.000000 0.000000 0.000000 0.000000 -0.041221
#
#
# Mechanical properties :
#
#
# Convention : Reuss Voigt Hill
#
# Bulk Modulus (GPa) = 46.70916 46.89049 46.79982
# Shear Modulus (GPa) = 1.16315 12.35594 6.75954
#
# Velocity S-wave (km/s) = 0.71134 2.31844 1.71481
# Velocity P-wave (km/s) = 4.58196 5.25028 4.92746
#
# Compressibility (1/GPa) = 0.02140908
#
# Stress axis : x y z
#
# Youngs Moduli (GPa) = 75.04990 86.76106 79.17052
#
# Poissons Ratio (x) = 0.22642 0.22398
# Poissons Ratio (y) = 0.19585 0.20564
# Poissons Ratio (z) = 0.21232 0.22536
#
# Static dielectric constant tensor:
#      x y z
#    x 1.883130 0.000000 0.000000 
#    y 0.000000 1.921410 0.000000 
#    z 0.000000 0.000000 1.939140 
# 
# From -- ./inp_files/5228.got.cif
#   From: 2010.05.17/outbox.cif.g08.bks.cpg/sg21_3_cif.got.tgz:5228.got - 2010.06.03 23:14:55.
