data_PCOD9324727
_publ_section_title
;
Structure prediction by ZEFSAII (Michael W. Deem and Ramdas Pophale) SiO2 
 PCOD9324727
Probable space group: C 2 2 2
;
_chemical_formula_sum "Si O2"
_cell_formula_units_Z 40
_cell_length_a 9.339164
_cell_length_b 8.455235
_cell_length_c 21.549067
_cell_angle_alpha 90.000000
_cell_angle_beta 90.000000
_cell_angle_gamma 90.000000
_cell_volume 1701.618333
_symmetry_space_group_name_H-M "C 2 2 2"
_symmetry_group_IT_number 21
_symmetry_cell_setting 'orthorhombic'
loop_
_space_group_symop_operation_xyz
x,y,z
-x,-y,z
x,-y,-z
-x,y,-z
1/2+x,1/2+y,z
1/2-x,1/2-y,z
1/2+x,1/2-y,-z
1/2-x,1/2+y,-z
loop_
_atom_site_type_symbol
_atom_site_label
_atom_site_fract_x
_atom_site_fract_y
_atom_site_fract_z
Si Si1 0.403333 0.216576 0.558166
Si Si2 0.257777 0.080952 0.259471
Si Si3 0.750000 0.750000 0.813509
Si Si4 0.500000 0.500000 0.353306
Si Si5 0.750000 0.250000 0.980909
Si Si6 0.000000 0.500000 0.343042
Si Si7 0.030662 0.680827 0.087267
O O1 0.500000 0.178740 0.500000
O O2 0.250000 0.250000 0.530856
O O3 0.461104 0.359490 0.599693
O O4 0.391460 0.081984 0.609836
O O5 0.250000 0.250000 0.223940
O O6 0.403411 0.103511 0.298548
O O7 0.267882 0.914219 0.223436
O O8 0.128986 0.050563 0.307832
O O9 0.888866 0.767774 0.857304
O O10 0.612131 0.275909 0.935274
O O11 0.849112 0.341400 0.032390
O O12 0.000000 0.500000 0.106126
#
# Coordination Sequence:
#
# PCOD9324727 Si02
#       7
#     8   8   4   4   4   4   8
#     4  12  27  43  71 108 145 182 244 315 384 461
#     4  12  27  49  79 104 147 206 255 314 376 449
#     4  11  28  50  72 118 158 194 261 322 368 446
#     4  12  25  48  70 102 142 195 252 304 380 468
#     4   9  18  42  78 108 146 206 245 294 380 448
#     4  12  25  48  72 100 144 197 246 306 386 456
#     4  10  22  45  75 110 158 199 253 316 372 444
#
# _framework density 23.507034999999998
#
# number of rings (size 3 to 8) (size 9 to 14) (size 15 to 20)
#    0.000    0.800    4.000    3.000    4.200    1.600 
#    5.400   16.000    0.000    0.000    0.000    0.000 
#    0.000    0.000    0.000    0.000    0.000    0.000 
#
# Total GULP energy -111437.489413 kJ/mol
# GULP energy per Si atom -5571.874471 kJ/mol
# Density = 2.345353 g / cm^3
# Si number density = 23.507035 Si / 1000 Ang^3
#
#
#
# Elastic Constant Matrix: (Units=GPa)
#
#
# Indices 1 2 3 4 5 6 
#
# 1 139.5714 16.1338 46.3692 0.0000 0.0000 0.0000
# 2 16.1338 98.1876 52.5741 0.0000 0.0000 0.0000
# 3 46.3692 52.5741 105.3182 0.0000 0.0000 0.0000
# 4 0.0000 0.0000 0.0000 14.8495 0.0000 0.0000
# 5 0.0000 0.0000 0.0000 0.0000 64.1045 0.0000
# 6 0.0000 0.0000 0.0000 0.0000 0.0000 18.3193
#
#
#
# Elastic Compliance Matrix: (Units=1/GPa)
#
#
# Indices 1 2 3 4 5 6 
#
# 1 0.008441 0.000823 -0.004127 0.000000 0.000000 0.000000
# 2 0.000823 0.013980 -0.007341 0.000000 0.000000 0.000000
# 3 -0.004127 -0.007341 0.014977 0.000000 0.000000 0.000000
# 4 0.000000 0.000000 0.000000 0.067342 0.000000 0.000000
# 5 0.000000 0.000000 0.000000 0.000000 0.015600 0.000000
# 6 0.000000 0.000000 0.000000 0.000000 0.000000 0.054587
#
#
# Mechanical properties :
#
#
# Convention : Reuss Voigt Hill
#
# Bulk Modulus (GPa) = 62.08449 63.69237 62.88843
# Shear Modulus (GPa) = 24.80329 34.65467 29.72898
#
# Velocity S-wave (km/s) = 3.25182 3.84373 3.56010
# Velocity P-wave (km/s) = 6.36926 6.84491 6.61137
#
# Compressibility (1/GPa) = 0.01610708
#
# Stress axis : x y z
#
# Youngs Moduli (GPa) = 118.47237 71.53020 66.77048
#
# Poissons Ratio (x) = -0.05886 0.27557
# Poissons Ratio (y) = -0.09749 0.49017
# Poissons Ratio (z) = 0.48894 0.52511
#
# Static dielectric constant tensor:
#      x y z
#    x 1.879660 0.000000 0.000000 
#    y 0.000000 1.902320 0.000000 
#    z 0.000000 0.000000 1.845170 
# 
# From -- ./inp_files/38465.got.cif
#   From: 2010.05.17/outbox.cif.g08.bks.cpg/sg21_20_cif.got.tgz:38465.got - 2010.06.03 23:14:55.
