data_PCOD9324911
_publ_section_title
;
Structure prediction by ZEFSAII (Michael W. Deem and Ramdas Pophale) SiO2 
 PCOD9324911
Probable space group: C 2 2 2
;
_chemical_formula_sum "Si O2"
_cell_formula_units_Z 60
_cell_length_a 9.325247
_cell_length_b 24.610154
_cell_length_c 12.653988
_cell_angle_alpha 90.000000
_cell_angle_beta 90.000000
_cell_angle_gamma 90.000000
_cell_volume 2904.036653
_symmetry_space_group_name_H-M "C 2 2 2"
_symmetry_group_IT_number 21
_symmetry_cell_setting 'orthorhombic'
loop_
_space_group_symop_operation_xyz
x,y,z
-x,-y,z
x,-y,-z
-x,y,-z
1/2+x,1/2+y,z
1/2-x,1/2-y,z
1/2+x,1/2-y,-z
1/2-x,1/2+y,-z
loop_
_atom_site_type_symbol
_atom_site_label
_atom_site_fract_x
_atom_site_fract_y
_atom_site_fract_z
Si Si1 0.000000 0.381488 0.500000
Si Si2 0.156855 0.195169 0.700358
Si Si3 0.779382 0.186166 0.525382
Si Si4 0.661885 0.512350 0.191537
Si Si5 0.431149 0.059237 0.283989
Si Si6 0.660644 0.305519 0.762134
Si Si7 0.817477 0.396091 0.163552
Si Si8 0.340250 0.387034 0.045800
O O1 0.136512 0.343435 0.513747
O O2 0.028794 0.416868 0.396907
O O3 0.250000 0.250000 0.699471
O O4 0.120863 0.180368 0.577939
O O5 0.243003 0.146993 0.757778
O O6 0.008710 0.206386 0.759562
O O7 0.750000 0.250000 0.536469
O O8 0.807999 0.168920 0.645955
O O9 0.500000 0.500000 0.226975
O O10 0.763379 0.547615 0.268489
O O11 0.737692 0.454382 0.175146
O O12 0.657401 0.550952 0.088499
O O13 0.516619 0.095138 0.196625
O O14 0.500000 0.000000 0.274597
O O15 0.750000 0.250000 0.774313
O O16 0.688143 0.347133 0.856479
O O17 0.778440 0.379224 0.044708
O O18 0.500000 0.376145 0.000000
#
# Coordination Sequence:
#
# PCOD9324911 Si02
#       8
#     4   8   8   8   8   8   8   8
#     4  12  21  42  70  98 140 182 221 294 356 414
#     4  11  23  41  66  98 138 182 228 290 353 424
#     4  10  24  37  67  96 131 176 233 275 352 413
#     4  11  22  41  71  98 133 180 233 292 346 418
#     4  10  24  42  67 103 138 179 232 286 357 428
#     4  11  25  43  67 100 137 180 240 290 347 429
#     4  11  23  42  66 100 134 179 234 281 350 421
#     4  12  23  42  69  97 135 185 233 291 357 413
#
# _framework density 20.660895
#
# number of rings (size 3 to 8) (size 9 to 14) (size 15 to 20)
#    0.000    1.067    4.000    1.800    7.467    2.133 
#    0.000    2.000    0.000    3.200    0.000    0.000 
#    0.000    0.000    0.000    0.000    0.000    0.000 
#
# Total GULP energy -167510.137308 kJ/mol
# GULP energy per Si atom -5583.671244 kJ/mol
# Density = 2.061387 g / cm^3
# Si number density = 20.660895 Si / 1000 Ang^3
#
#
#
# Elastic Constant Matrix: (Units=GPa)
#
#
# Indices 1 2 3 4 5 6 
#
# 1 109.3036 36.3700 58.7519 0.0000 0.0000 0.0000
# 2 36.3700 107.6977 72.5132 0.0000 0.0000 0.0000
# 3 58.7519 72.5132 165.7175 0.0000 0.0000 0.0000
# 4 0.0000 0.0000 0.0000 38.3924 0.0000 0.0000
# 5 0.0000 0.0000 0.0000 0.0000 66.9565 0.0000
# 6 0.0000 0.0000 0.0000 0.0000 0.0000 32.9986
#
#
#
# Elastic Compliance Matrix: (Units=1/GPa)
#
#
# Indices 1 2 3 4 5 6 
#
# 1 0.011497 -0.001614 -0.003370 0.000000 0.000000 0.000000
# 2 -0.001614 0.013390 -0.005287 0.000000 0.000000 0.000000
# 3 -0.003370 -0.005287 0.009543 0.000000 0.000000 0.000000
# 4 0.000000 0.000000 0.000000 0.026047 0.000000 0.000000
# 5 0.000000 0.000000 0.000000 0.000000 0.014935 0.000000
# 6 0.000000 0.000000 0.000000 0.000000 0.000000 0.030304
#
#
# Mechanical properties :
#
#
# Convention : Reuss Voigt Hill
#
# Bulk Modulus (GPa) = 72.00224 79.77655 75.88940
# Shear Modulus (GPa) = 38.20104 42.00842 40.10473
#
# Velocity S-wave (km/s) = 4.30461 4.51403 4.41056
# Velocity P-wave (km/s) = 7.72214 8.11571 7.92137
#
# Compressibility (1/GPa) = 0.01388846
#
# Stress axis : x y z
#
# Youngs Moduli (GPa) = 86.97796 74.68312 104.79350
#
# Poissons Ratio (x) = 0.12051 0.35316
# Poissons Ratio (y) = 0.14035 0.55404
# Poissons Ratio (z) = 0.29312 0.39485
#
# Static dielectric constant tensor:
#      x y z
#    x 1.764840 0.000000 0.000000 
#    y 0.000000 1.703290 0.000000 
#    z 0.000000 0.000000 1.772550 
# 
# From -- ./inp_files/23007.got.cif
#   From: 2010.05.17/outbox.cif.g08.bks.cpg/sg21_12_cif.got.tgz:23007.got - 2010.06.03 23:14:55.
