data_PCOD9324137
_publ_section_title
;
Structure prediction by ZEFSAII (Michael W. Deem and Ramdas Pophale) SiO2 
 PCOD9324137
Probable space group: C 2 2 2
;
_chemical_formula_sum "Si O2"
_cell_formula_units_Z 28
_cell_length_a 8.087356
_cell_length_b 10.509838
_cell_length_c 14.936632
_cell_angle_alpha 90.000000
_cell_angle_beta 90.000000
_cell_angle_gamma 90.000000
_cell_volume 1269.565944
_symmetry_space_group_name_H-M "C 2 2 2"
_symmetry_group_IT_number 21
_symmetry_cell_setting 'orthorhombic'
loop_
_space_group_symop_operation_xyz
x,y,z
-x,-y,z
x,-y,-z
-x,y,-z
1/2+x,1/2+y,z
1/2-x,1/2-y,z
1/2+x,1/2-y,-z
1/2-x,1/2+y,-z
loop_
_atom_site_type_symbol
_atom_site_label
_atom_site_fract_x
_atom_site_fract_y
_atom_site_fract_z
Si Si1 0.000000 0.500000 0.156511
Si Si2 0.170292 0.887541 0.553115
Si Si3 0.678645 0.606454 0.240060
Si Si4 0.055303 0.777118 0.096422
O O1 0.826110 0.510333 0.210469
O O2 0.012437 0.367606 0.103803
O O3 0.250000 0.750000 0.549385
O O4 0.143306 0.921871 0.656643
O O5 0.000000 0.874521 0.500000
O O6 0.264481 0.000000 0.500000
O O7 0.750000 0.750000 0.240782
O O8 0.523083 0.632884 0.173448
O O9 0.250000 0.750000 0.102231
O O10 0.000000 0.829289 0.000000
#
# Coordination Sequence:
#
# PCOD9324137 Si02
#       4
#     4   8   8   8
#     4  10  21  40  63  86 126 166 207 262 319 384
#     4  10  23  40  62  93 127 163 212 266 323 392
#     4   9  21  41  62  91 126 164 210 265 325 385
#     4  11  23  39  62  92 126 165 211 260 319 391
#
# _framework density 22.054781999999999
#
# number of rings (size 3 to 8) (size 9 to 14) (size 15 to 20)
#    0.000    2.000    0.000    3.000    0.000   14.286 
#    0.000    1.429    0.000    0.000    0.000    0.000 
#    0.000    0.000    0.000    0.000    0.000    0.000 
#
# Total GULP energy -78015.878054 kJ/mol
# GULP energy per Si atom -5572.562718 kJ/mol
# Density = 2.200458 g / cm^3
# Si number density = 22.054782 Si / 1000 Ang^3
#
#
#
# Elastic Constant Matrix: (Units=GPa)
#
#
# Indices 1 2 3 4 5 6 
#
# 1 134.1944 17.4743 79.9975 0.0000 0.0000 0.0000
# 2 17.4743 123.5286 45.3033 0.0000 0.0000 0.0000
# 3 79.9975 45.3033 213.6493 0.0000 0.0000 0.0000
# 4 0.0000 0.0000 0.0000 45.1264 0.0000 0.0000
# 5 0.0000 0.0000 0.0000 0.0000 24.4345 0.0000
# 6 0.0000 0.0000 0.0000 0.0000 0.0000 43.7198
#
#
#
# Elastic Compliance Matrix: (Units=1/GPa)
#
#
# Indices 1 2 3 4 5 6 
#
# 1 0.009593 -0.000043 -0.003583 0.000000 0.000000 0.000000
# 2 -0.000043 0.008778 -0.001845 0.000000 0.000000 0.000000
# 3 -0.003583 -0.001845 0.006413 0.000000 0.000000 0.000000
# 4 0.000000 0.000000 0.000000 0.022160 0.000000 0.000000
# 5 0.000000 0.000000 0.000000 0.000000 0.040926 0.000000
# 6 0.000000 0.000000 0.000000 0.000000 0.000000 0.022873
#
#
# Mechanical properties :
#
#
# Convention : Reuss Voigt Hill
#
# Bulk Modulus (GPa) = 72.24164 84.10249 78.17207
# Shear Modulus (GPa) = 39.58820 44.56262 42.07541
#
# Velocity S-wave (km/s) = 4.24133 4.49992 4.37254
# Velocity P-wave (km/s) = 7.53736 8.07560 7.81112
#
# Compressibility (1/GPa) = 0.01384243
#
# Stress axis : x y z
#
# Youngs Moduli (GPa) = 104.23836 113.91978 155.92299
#
# Poissons Ratio (x) = 0.00490 0.55867
# Poissons Ratio (y) = 0.00449 0.28771
# Poissons Ratio (z) = 0.37348 0.21021
#
# Static dielectric constant tensor:
#      x y z
#    x 1.874770 0.000000 0.000000 
#    y 0.000000 2.030100 0.000000 
#    z 0.000000 0.000000 1.800810 
# 
# From -- ./inp_files/29763.got.cif
#   From: 2010.05.17/outbox.cif.g08.bks.cpg/sg21_15_cif.got.tgz:29763.got - 2010.06.03 23:14:55.
