data_PCOD9324213
_publ_section_title
;
Structure prediction by ZEFSAII (Michael W. Deem and Ramdas Pophale) SiO2 
 PCOD9324213
Probable space group: C 2 2 2
;
_chemical_formula_sum "Si O2"
_cell_formula_units_Z 56
_cell_length_a 20.985435
_cell_length_b 8.756273
_cell_length_c 15.090191
_cell_angle_alpha 90.000000
_cell_angle_beta 90.000000
_cell_angle_gamma 90.000000
_cell_volume 2772.885943
_symmetry_space_group_name_H-M "C 2 2 2"
_symmetry_group_IT_number 21
_symmetry_cell_setting 'orthorhombic'
loop_
_space_group_symop_operation_xyz
x,y,z
-x,-y,z
x,-y,-z
-x,y,-z
1/2+x,1/2+y,z
1/2-x,1/2-y,z
1/2+x,1/2-y,-z
1/2-x,1/2+y,-z
loop_
_atom_site_type_symbol
_atom_site_label
_atom_site_fract_x
_atom_site_fract_y
_atom_site_fract_z
Si Si1 0.239780 0.420148 0.359112
Si Si2 0.433893 0.930479 0.214877
Si Si3 0.932523 0.065576 0.222110
Si Si4 0.125661 0.929009 0.404824
Si Si5 0.174816 0.063582 0.094357
Si Si6 0.608770 0.066329 0.410669
Si Si7 0.807731 0.412279 0.844660
O O1 0.250000 0.250000 0.395757
O O2 0.303170 0.518869 0.375464
O O3 0.179137 0.496092 0.403305
O O4 0.219813 0.401101 0.255923
O O5 0.434046 0.747931 0.213224
O O6 0.425250 0.976610 0.318484
O O7 0.500000 0.000000 0.181625
O O8 0.372791 0.994018 0.162567
O O9 0.919906 0.020518 0.324462
O O10 0.873134 0.001818 0.167163
O O11 0.000000 0.000000 0.191759
O O12 0.117504 0.747804 0.413183
O O13 0.111439 0.000000 0.500000
O O14 0.178180 0.246581 0.112033
O O15 0.248238 0.010569 0.105983
O O16 0.152601 0.000000 0.000000
O O17 0.578522 0.000000 0.500000
#
# Coordination Sequence:
#
# PCOD9324213 Si02
#       7
#     8   8   8   8   8   8   8
#     4  11  18  34  59  84 124 165 209 260 318 381
#     4  10  23  40  64  89 124 177 216 264 327 392
#     4  11  24  43  65  93 132 171 220 272 327 388
#     4  11  22  37  59  90 126 170 217 267 323 384
#     4  11  23  42  70 101 129 166 214 266 330 393
#     4  10  22  35  52  86 123 167 220 270 318 377
#     4  10  21  41  65  96 131 164 210 260 327 385
#
# _framework density 20.195567
#
# number of rings (size 3 to 8) (size 9 to 14) (size 15 to 20)
#    0.000    1.429    2.857    2.571    0.000    7.143 
#    0.000    2.857    0.000    3.000    0.000    0.000 
#    0.000    0.000    0.000    0.000    0.000    0.000 
#
# Total GULP energy -156394.339051 kJ/mol
# GULP energy per Si atom -5585.512109 kJ/mol
# Density = 2.014960 g / cm^3
# Si number density = 20.195567 Si / 1000 Ang^3
#
#
#
# Elastic Constant Matrix: (Units=GPa)
#
#
# Indices 1 2 3 4 5 6 
#
# 1 133.2828 37.1968 20.4949 0.0000 0.0000 0.0000
# 2 37.1968 52.4889 31.2537 0.0000 0.0000 0.0000
# 3 20.4949 31.2537 99.3893 0.0000 0.0000 0.0000
# 4 0.0000 0.0000 0.0000 18.7841 0.0000 0.0000
# 5 0.0000 0.0000 0.0000 0.0000 19.0724 0.0000
# 6 0.0000 0.0000 0.0000 0.0000 0.0000 24.1133
#
#
#
# Elastic Compliance Matrix: (Units=1/GPa)
#
#
# Indices 1 2 3 4 5 6 
#
# 1 0.009355 -0.006744 0.000191 0.000000 0.000000 0.000000
# 2 -0.006744 0.028302 -0.007509 0.000000 0.000000 0.000000
# 3 0.000191 -0.007509 0.012383 0.000000 0.000000 0.000000
# 4 0.000000 0.000000 0.000000 0.053236 0.000000 0.000000
# 5 0.000000 0.000000 0.000000 0.000000 0.052432 0.000000
# 6 0.000000 0.000000 0.000000 0.000000 0.000000 0.041471
#
#
# Mechanical properties :
#
#
# Convention : Reuss Voigt Hill
#
# Bulk Modulus (GPa) = 45.62526 51.45019 48.53773
# Shear Modulus (GPa) = 21.49531 25.47499 23.48515
#
# Velocity S-wave (km/s) = 3.26599 3.55549 3.41381
# Velocity P-wave (km/s) = 6.07149 6.51050 6.29483
#
# Compressibility (1/GPa) = 0.02191768
#
# Stress axis : x y z
#
# Youngs Moduli (GPa) = 106.88906 35.33322 80.75410
#
# Poissons Ratio (x) = 0.23828 -0.01546
# Poissons Ratio (y) = 0.72085 0.60639
# Poissons Ratio (z) = -0.02047 0.26532
#
# Static dielectric constant tensor:
#      x y z
#    x 1.689580 0.000000 0.000000 
#    y 0.000000 1.271470 0.000000 
#    z 0.000000 0.000000 1.758140 
# 
# From -- ./inp_files/33284.got.cif
#   From: 2010.05.17/outbox.cif.g08.bks.cpg/sg21_17_cif.got.tgz:33284.got - 2010.06.03 23:14:55.
