data_PCOD9324985
_publ_section_title
;
Structure prediction by ZEFSAII (Michael W. Deem and Ramdas Pophale) SiO2 
 PCOD9324985
Probable space group: C 2 2 2
;
_chemical_formula_sum "Si O2"
_cell_formula_units_Z 32
_cell_length_a 8.322432
_cell_length_b 29.815917
_cell_length_c 4.652857
_cell_angle_alpha 90.000000
_cell_angle_beta 90.000000
_cell_angle_gamma 90.000000
_cell_volume 1154.564318
_symmetry_space_group_name_H-M "C 2 2 2"
_symmetry_group_IT_number 21
_symmetry_cell_setting 'orthorhombic'
loop_
_space_group_symop_operation_xyz
x,y,z
-x,-y,z
x,-y,-z
-x,y,-z
1/2+x,1/2+y,z
1/2-x,1/2-y,z
1/2+x,1/2-y,-z
1/2-x,1/2+y,-z
loop_
_atom_site_type_symbol
_atom_site_label
_atom_site_fract_x
_atom_site_fract_y
_atom_site_fract_z
Si Si1 0.000000 0.000000 0.500000
Si Si2 0.256247 0.877942 0.307391
Si Si3 0.750000 0.250000 0.350398
Si Si4 0.251032 0.938574 0.809633
Si Si5 0.000000 0.817920 0.500000
Si Si6 0.000000 0.687889 0.000000
Si Si7 0.000000 0.500000 0.500000
O O1 0.897391 0.967389 0.298254
O O2 0.258446 0.891148 0.641187
O O3 0.409464 0.850436 0.201751
O O4 0.090980 0.850027 0.273888
O O5 0.248429 0.924743 0.138784
O O6 0.651928 0.284873 0.552442
O O7 0.879608 0.274406 0.148217
O O8 0.398451 0.967854 0.704683
#
# Coordination Sequence:
#
# PCOD9324985 Si02
#       7
#     2   8   4   8   4   4   2
#     4  10  26  44  68 104 144 190 240 304 368 444
#     4  11  25  46  75 109 147 197 249 308 372 447
#     4  10  24  46  72 110 154 202 254 312 380 450
#     4  11  25  45  72 105 147 193 247 304 372 443
#     4  10  25  46  73 107 150 198 252 311 375 448
#     4  10  24  46  76 109 150 196 250 311 376 446
#     4  10  24  44  74 108 148 198 248 308 374 444
#
# _framework density 27.716083999999999
#
# number of rings (size 3 to 8) (size 9 to 14) (size 15 to 20)
#    0.000    1.500    0.000    2.250    0.000   19.000 
#    0.000    0.000    0.000    3.000    0.000    0.000 
#    0.000    0.000    0.000    0.000    0.000    0.000 
#
# Total GULP energy -89270.314702 kJ/mol
# GULP energy per Si atom -5579.394669 kJ/mol
# Density = 2.765300 g / cm^3
# Si number density = 27.716084 Si / 1000 Ang^3
#
#
#
# Elastic Constant Matrix: (Units=GPa)
#
#
# Indices 1 2 3 4 5 6 
#
# 1 178.2355 75.2541 57.6534 0.0000 0.0000 0.0000
# 2 75.2541 134.3215 24.3575 0.0000 0.0000 0.0000
# 3 57.6534 24.3575 84.8088 0.0000 0.0000 0.0000
# 4 0.0000 0.0000 0.0000 -69.3087 0.0000 0.0000
# 5 0.0000 0.0000 0.0000 0.0000 24.9728 0.0000
# 6 0.0000 0.0000 0.0000 0.0000 0.0000 7.0557
#
#
#
# Elastic Compliance Matrix: (Units=1/GPa)
#
#
# Indices 1 2 3 4 5 6 
#
# 1 0.008930 -0.004117 -0.004888 0.000000 0.000000 0.000000
# 2 -0.004117 0.009752 -0.000002 0.000000 0.000000 0.000000
# 3 -0.004888 -0.000002 0.015115 0.000000 0.000000 0.000000
# 4 0.000000 0.000000 0.000000 -0.014428 0.000000 0.000000
# 5 0.000000 0.000000 0.000000 0.000000 0.040044 0.000000
# 6 0.000000 0.000000 0.000000 0.000000 0.000000 0.141729
#
#
# Mechanical properties :
#
#
# Convention : Reuss Voigt Hill
#
# Bulk Modulus (GPa) = 63.36239 79.09953 71.23096
# Shear Modulus (GPa) = 22.28011 8.55068 15.41539
#
# Velocity S-wave (km/s) = 2.83833 1.75835 2.36093
# Velocity P-wave (km/s) = 5.80107 5.72045 5.76090
#
# Compressibility (1/GPa) = 0.01578223
#
# Stress axis : x y z
#
# Youngs Moduli (GPa) = 111.98426 102.54788 66.15974
#
# Poissons Ratio (x) = 0.42214 0.32341
# Poissons Ratio (y) = 0.46099 0.00015
# Poissons Ratio (z) = 0.54741 0.00023
#
# Static dielectric constant tensor:
#      x y z
#    x 2.166010 0.000000 0.000000 
#    y 0.000000 2.134260 0.000000 
#    z 0.000000 0.000000 2.068440 
# 
# From -- ./inp_files/1560.got.cif
#   From: 2010.05.17/outbox.cif.g08.bks.cpg/sg21_1_cif.got.tgz:1560.got - 2010.06.03 23:14:55.
