data_PCOD9324322
_publ_section_title
;
Structure prediction by ZEFSAII (Michael W. Deem and Ramdas Pophale) SiO2 
 PCOD9324322
Probable space group: C 2 2 2
;
_chemical_formula_sum "Si O2"
_cell_formula_units_Z 34
_cell_length_a 5.083406
_cell_length_b 25.272583
_cell_length_c 13.464375
_cell_angle_alpha 90.000000
_cell_angle_beta 90.000000
_cell_angle_gamma 90.000000
_cell_volume 1729.779029
_symmetry_space_group_name_H-M "C 2 2 2"
_symmetry_group_IT_number 21
_symmetry_cell_setting 'orthorhombic'
loop_
_space_group_symop_operation_xyz
x,y,z
-x,-y,z
x,-y,-z
-x,y,-z
1/2+x,1/2+y,z
1/2-x,1/2-y,z
1/2+x,1/2-y,-z
1/2-x,1/2+y,-z
loop_
_atom_site_type_symbol
_atom_site_label
_atom_site_fract_x
_atom_site_fract_y
_atom_site_fract_z
Si Si1 0.855145 0.051547 0.806825
Si Si2 0.358603 0.884422 0.243866
Si Si3 0.498884 0.785234 0.882066
Si Si4 0.500000 0.500000 0.000000
Si Si5 0.748724 0.189897 0.428670
O O1 0.582694 0.069849 0.757711
O O2 0.827545 0.034718 0.922996
O O3 0.082795 0.095462 0.800199
O O4 0.000000 0.000000 0.759763
O O5 0.486676 0.839752 0.174963
O O6 0.287681 0.855263 0.346595
O O7 0.750000 0.750000 0.858337
O O8 0.250000 0.750000 0.854884
O O9 0.500000 0.795114 0.000000
O O10 0.500000 0.188008 0.500000
O O11 0.750000 0.250000 0.385064
O O12 0.000000 0.182864 0.500000
#
# Coordination Sequence:
#
# PCOD9324322 Si02
#       5
#     8   8   8   2   8
#     4  10  24  38  61  90 125 159 216 264 303 364
#     4  12  22  38  66  88 120 169 210 259 317 378
#     4  10  22  35  51  83 125 162 202 246 302 382
#     4   8  24  42  60  90 130 166 224 270 304 358
#     4  10  22  40  64  94 127 160 206 265 320 380
#
# _framework density 19.65569
#
# number of rings (size 3 to 8) (size 9 to 14) (size 15 to 20)
#    0.706    0.941    0.000    4.235    3.294    3.765 
#    0.000    0.000    0.000   10.588    0.000    0.000 
#    0.000    0.000    0.000    0.000    0.000    0.000 
#
# Total GULP energy -94850.052526 kJ/mol
# GULP energy per Si atom -5579.414854 kJ/mol
# Density = 1.961095 g / cm^3
# Si number density = 19.655690 Si / 1000 Ang^3
#
#
#
# Elastic Constant Matrix: (Units=GPa)
#
#
# Indices 1 2 3 4 5 6 
#
# 1 149.4612 33.6450 47.1133 0.0000 0.0000 0.0000
# 2 33.6450 82.2009 52.1307 0.0000 0.0000 0.0000
# 3 47.1133 52.1307 88.1988 0.0000 0.0000 0.0000
# 4 0.0000 0.0000 0.0000 52.1467 0.0000 0.0000
# 5 0.0000 0.0000 0.0000 0.0000 11.1615 0.0000
# 6 0.0000 0.0000 0.0000 0.0000 0.0000 53.8796
#
#
#
# Elastic Compliance Matrix: (Units=1/GPa)
#
#
# Indices 1 2 3 4 5 6 
#
# 1 0.008088 -0.000913 -0.003781 0.000000 0.000000 0.000000
# 2 -0.000913 0.019563 -0.011075 0.000000 0.000000 0.000000
# 3 -0.003781 -0.011075 0.019904 0.000000 0.000000 0.000000
# 4 0.000000 0.000000 0.000000 0.019177 0.000000 0.000000
# 5 0.000000 0.000000 0.000000 0.000000 0.089594 0.000000
# 6 0.000000 0.000000 0.000000 0.000000 0.000000 0.018560
#
#
# Mechanical properties :
#
#
# Convention : Reuss Voigt Hill
#
# Bulk Modulus (GPa) = 62.43408 65.07098 63.75253
# Shear Modulus (GPa) = 23.61153 35.90235 29.75694
#
# Velocity S-wave (km/s) = 3.46968 4.27847 3.89512
# Velocity P-wave (km/s) = 6.91985 7.58843 7.26184
#
# Compressibility (1/GPa) = 0.01601689
#
# Stress axis : x y z
#
# Youngs Moduli (GPa) = 123.64037 51.11813 50.24175
#
# Poissons Ratio (x) = 0.04665 0.18996
# Poissons Ratio (y) = 0.11283 0.55643
# Poissons Ratio (z) = 0.46748 0.56614
#
# Static dielectric constant tensor:
#      x y z
#    x 1.672010 0.000000 0.000000 
#    y 0.000000 1.742770 0.000000 
#    z 0.000000 0.000000 1.659990 
# 
# From -- ./inp_files/29062.got.cif
#   From: 2010.05.17/outbox.cif.g08.bks.cpg/sg21_15_cif.got.tgz:29062.got - 2010.06.03 23:14:55.
