data_PCOD9324691
_publ_section_title
;
Structure prediction by ZEFSAII (Michael W. Deem and Ramdas Pophale) SiO2 
 PCOD9324691
Probable space group: C 2 2 2
;
_chemical_formula_sum "Si O2"
_cell_formula_units_Z 58
_cell_length_a 30.646551
_cell_length_b 17.262315
_cell_length_c 5.286675
_cell_angle_alpha 90.000000
_cell_angle_beta 90.000000
_cell_angle_gamma 90.000000
_cell_volume 2796.811880
_symmetry_space_group_name_H-M "C 2 2 2"
_symmetry_group_IT_number 21
_symmetry_cell_setting 'orthorhombic'
loop_
_space_group_symop_operation_xyz
x,y,z
-x,-y,z
x,-y,-z
-x,y,-z
1/2+x,1/2+y,z
1/2-x,1/2-y,z
1/2+x,1/2-y,-z
1/2-x,1/2+y,-z
loop_
_atom_site_type_symbol
_atom_site_label
_atom_site_fract_x
_atom_site_fract_y
_atom_site_fract_z
Si Si1 0.213863 0.051499 0.748693
Si Si2 0.500000 0.500000 0.500000
Si Si3 0.625025 0.363256 0.172870
Si Si4 0.882333 0.309048 0.218080
Si Si5 0.048649 0.714469 0.610916
Si Si6 0.949336 0.416061 0.934178
Si Si7 0.929778 0.882369 0.303066
Si Si8 0.686469 0.053156 0.251607
O O1 0.173393 0.108431 0.764959
O O2 0.263494 0.082572 0.736800
O O3 0.208203 0.000000 0.500000
O O4 0.212343 0.000000 0.000000
O O5 0.468647 0.443822 0.336570
O O6 0.630685 0.272412 0.100171
O O7 0.594735 0.378945 0.421710
O O8 0.603005 0.401986 0.925973
O O9 0.904722 0.281624 0.474707
O O10 0.845664 0.373801 0.242926
O O11 0.922467 0.349265 0.072291
O O12 0.050458 0.620542 0.659241
O O13 0.051080 0.796248 0.764208
O O14 0.000000 0.722482 0.500000
O O15 0.931138 0.500000 0.000000
O O16 0.000000 0.415991 0.000000
O O17 0.678214 0.000000 0.500000
O O18 0.681218 0.000000 0.000000
#
# Coordination Sequence:
#
# PCOD9324691 Si02
#       8
#     8   2   8   8   8   8   8   8
#     4  10  22  44  70  96 132 168 215 275 339 402
#     4  12  28  46  68 106 136 192 236 290 328 410
#     4  11  25  43  69  99 130 177 220 276 337 399
#     4  11  24  39  65  90 132 171 217 275 333 396
#     4  11  22  43  60  89 136 181 216 278 336 395
#     4  11  23  38  60  90 126 174 230 268 325 401
#     4  11  26  43  68  99 136 177 227 277 333 390
#     4  10  24  43  67  99 131 170 214 275 340 401
#
# _framework density 20.737895999999999
#
# number of rings (size 3 to 8) (size 9 to 14) (size 15 to 20)
#    0.000    1.241    3.448    1.241    6.759    1.655 
#    0.000    0.000    0.000    6.621    0.000    0.000 
#    0.000    0.000    0.000    0.000    0.000    0.000 
#
# Total GULP energy -161440.297858 kJ/mol
# GULP energy per Si atom -5566.906823 kJ/mol
# Density = 2.069070 g / cm^3
# Si number density = 20.737896 Si / 1000 Ang^3
#
#
#
# Elastic Constant Matrix: (Units=GPa)
#
#
# Indices 1 2 3 4 5 6 
#
# 1 136.7009 85.2810 32.1079 0.0000 0.0000 0.0000
# 2 85.2810 117.8521 19.6661 0.0000 0.0000 0.0000
# 3 32.1079 19.6661 84.3027 0.0000 0.0000 0.0000
# 4 0.0000 0.0000 0.0000 32.9016 0.0000 0.0000
# 5 0.0000 0.0000 0.0000 0.0000 19.9892 0.0000
# 6 0.0000 0.0000 0.0000 0.0000 0.0000-6471.8401
#
#
#
# Elastic Compliance Matrix: (Units=1/GPa)
#
#
# Indices 1 2 3 4 5 6 
#
# 1 0.014076 -0.009667 -0.003106 0.000000 0.000000 0.000000
# 2 -0.009667 0.015468 0.000073 0.000000 0.000000 0.000000
# 3 -0.003106 0.000073 0.013028 0.000000 0.000000 0.000000
# 4 0.000000 0.000000 0.000000 0.030394 0.000000 0.000000
# 5 0.000000 0.000000 0.000000 0.000000 0.050027 0.000000
# 6 0.000000 0.000000 0.000000 0.000000 0.000000 -0.000155
#
#
# Mechanical properties :
#
#
# Convention : Reuss Voigt Hill
#
# Bulk Modulus (GPa) = 58.23187 68.10729 63.16958
# Shear Modulus (GPa) = 32.47572 -1270.33648 -618.93038
#
# Velocity S-wave (km/s) = 3.96158 -24.77695 -17.29456
# Velocity P-wave (km/s) = 7.00474 28.02886 19.19050
#
# Compressibility (1/GPa) = 0.01717273
#
# Stress axis : x y z
#
# Youngs Moduli (GPa) = 71.04480 64.64778 76.75925
#
# Poissons Ratio (x) = 0.62497 0.23839
# Poissons Ratio (y) = 0.68681 -0.00564
# Poissons Ratio (z) = 0.22065 -0.00475
#
# Static dielectric constant tensor:
#      x y z
#    x 1.745940 0.000000 0.000000 
#    y 0.000000 1.807460 0.000000 
#    z 0.000000 0.000000 38.216250 
# 
# From -- ./inp_files/7486.got.cif
#   From: 2010.05.17/outbox.cif.g08.bks.cpg/sg21_4_cif.got.tgz:7486.got - 2010.06.03 23:14:55.
