data_PCOD9324983
_publ_section_title
;
Structure prediction by ZEFSAII (Michael W. Deem and Ramdas Pophale) SiO2 
 PCOD9324983
Probable space group: C 2 2 2
;
_chemical_formula_sum "Si O2"
_cell_formula_units_Z 48
_cell_length_a 13.692769
_cell_length_b 17.445005
_cell_length_c 9.024435
_cell_angle_alpha 90.000000
_cell_angle_beta 90.000000
_cell_angle_gamma 90.000000
_cell_volume 2155.670612
_symmetry_space_group_name_H-M "C 2 2 2"
_symmetry_group_IT_number 21
_symmetry_cell_setting 'orthorhombic'
loop_
_space_group_symop_operation_xyz
x,y,z
-x,-y,z
x,-y,-z
-x,y,-z
1/2+x,1/2+y,z
1/2-x,1/2-y,z
1/2+x,1/2-y,-z
1/2-x,1/2+y,-z
loop_
_atom_site_type_symbol
_atom_site_label
_atom_site_fract_x
_atom_site_fract_y
_atom_site_fract_z
Si Si1 0.550395 0.917688 0.352921
Si Si2 0.265105 0.165295 0.978211
Si Si3 0.467195 0.643388 0.667328
Si Si4 0.737592 0.422019 0.727332
Si Si5 0.463672 0.209094 0.838429
Si Si6 0.885135 0.052676 0.146849
O O1 0.500000 0.884430 0.500000
O O2 0.666543 0.924020 0.372469
O O3 0.524677 0.863386 0.216971
O O4 0.500000 0.000000 0.329633
O O5 0.250000 0.250000 0.044289
O O6 0.353674 0.178850 0.864243
O O7 0.170730 0.131118 0.896746
O O8 0.276960 0.105414 0.111666
O O9 0.500000 0.629051 0.500000
O O10 0.350359 0.634820 0.681825
O O11 0.510508 0.723742 0.724145
O O12 0.516397 0.580250 0.774696
O O13 0.685770 0.504221 0.745806
O O14 0.500000 0.235269 0.000000
O O15 0.894911 0.000000 0.000000
#
# Coordination Sequence:
#
# PCOD9324983 Si02
#       6
#     8   8   8   8   8   8
#     4  11  26  47  70 102 147 191 239 310 378 449
#     4  11  21  42  72 106 137 184 243 298 357 428
#     4  12  28  46  73 110 152 196 242 310 384 455
#     4  11  25  44  70 102 145 189 241 302 377 437
#     4  12  24  45  75 103 142 186 250 302 364 443
#     4  10  24  44  73 108 146 195 249 305 362 448
#
# _framework density 22.266853000000001
#
# number of rings (size 3 to 8) (size 9 to 14) (size 15 to 20)
#    0.000    0.833    3.333    3.000    2.333    7.667 
#    0.000    0.000    0.000    0.000    0.000    0.000 
#    0.000    0.000    0.000    0.000    0.000    0.000 
#
# Total GULP energy -134175.524190 kJ/mol
# GULP energy per Si atom -5590.646841 kJ/mol
# Density = 2.221617 g / cm^3
# Si number density = 22.266853 Si / 1000 Ang^3
#
#
#
# Elastic Constant Matrix: (Units=GPa)
#
#
# Indices 1 2 3 4 5 6 
#
# 1 189.9509 34.6837 51.7022 0.0000 0.0000 0.0000
# 2 34.6837 88.6447 7.2623 0.0000 0.0000 0.0000
# 3 51.7022 7.2623 73.2268 0.0000 0.0000 0.0000
# 4 0.0000 0.0000 0.0000 24.7542 0.0000 0.0000
# 5 0.0000 0.0000 0.0000 0.0000 25.4370 0.0000
# 6 0.0000 0.0000 0.0000 0.0000 0.0000 25.7355
#
#
#
# Elastic Compliance Matrix: (Units=1/GPa)
#
#
# Indices 1 2 3 4 5 6 
#
# 1 0.006968 -0.002342 -0.004688 0.000000 0.000000 0.000000
# 2 -0.002342 0.012161 0.000448 0.000000 0.000000 0.000000
# 3 -0.004688 0.000448 0.016921 0.000000 0.000000 0.000000
# 4 0.000000 0.000000 0.000000 0.040397 0.000000 0.000000
# 5 0.000000 0.000000 0.000000 0.000000 0.039313 0.000000
# 6 0.000000 0.000000 0.000000 0.000000 0.000000 0.038857
#
#
# Mechanical properties :
#
#
# Convention : Reuss Voigt Hill
#
# Bulk Modulus (GPa) = 43.69467 59.90208 51.79837
# Shear Modulus (GPa) = 28.50462 32.39696 30.45079
#
# Velocity S-wave (km/s) = 3.58178 3.81851 3.70204
# Velocity P-wave (km/s) = 6.06394 6.81187 6.44876
#
# Compressibility (1/GPa) = 0.02288609
#
# Stress axis : x y z
#
# Youngs Moduli (GPa) = 143.51087 82.23153 59.09652
#
# Poissons Ratio (x) = 0.19262 0.27702
# Poissons Ratio (y) = 0.33615 -0.02646
# Poissons Ratio (z) = 0.67272 -0.03682
#
# Static dielectric constant tensor:
#      x y z
#    x 1.873060 0.000000 0.000000 
#    y 0.000000 1.813990 0.000000 
#    z 0.000000 0.000000 1.870310 
# 
# From -- ./inp_files/14986.got.cif
#   From: 2010.05.17/outbox.cif.g08.bks.cpg/sg21_8_cif.got.tgz:14986.got - 2010.06.03 23:14:55.
