data_PCOD9324044
_publ_section_title
;
Structure prediction by ZEFSAII (Michael W. Deem and Ramdas Pophale) SiO2 
 PCOD9324044
Probable space group: C 2 2 2
;
_chemical_formula_sum "Si O2"
_cell_formula_units_Z 32
_cell_length_a 17.674939
_cell_length_b 5.414189
_cell_length_c 17.261308
_cell_angle_alpha 90.000000
_cell_angle_beta 90.000000
_cell_angle_gamma 90.000000
_cell_volume 1651.828815
_symmetry_space_group_name_H-M "C 2 2 2"
_symmetry_group_IT_number 21
_symmetry_cell_setting 'orthorhombic'
loop_
_space_group_symop_operation_xyz
x,y,z
-x,-y,z
x,-y,-z
-x,y,-z
1/2+x,1/2+y,z
1/2-x,1/2-y,z
1/2+x,1/2-y,-z
1/2-x,1/2+y,-z
loop_
_atom_site_type_symbol
_atom_site_label
_atom_site_fract_x
_atom_site_fract_y
_atom_site_fract_z
Si Si1 0.548161 0.751329 0.309898
Si Si2 0.173742 0.892151 0.579503
Si Si3 0.750000 0.750000 0.704499
Si Si4 0.672474 0.124848 0.802278
Si Si5 0.750000 0.250000 0.952976
O O1 0.500000 0.500000 0.317413
O O2 0.610253 0.767232 0.378140
O O3 0.597952 0.754006 0.231367
O O4 0.500000 0.000000 0.310847
O O5 0.250000 0.750000 0.556909
O O6 0.142087 0.000000 0.500000
O O7 0.202165 0.083781 0.644532
O O8 0.813584 0.640552 0.763431
O O9 0.750000 0.250000 0.770416
O O10 0.683792 0.159595 0.893731
O O11 0.730005 0.500000 0.000000
#
# Coordination Sequence:
#
# PCOD9324044 Si02
#       5
#     8   8   4   8   4
#     4  12  26  43  64  93 137 176 218 270 330 397
#     4  12  24  40  65  94 123 180 230 292 338 389
#     4  12  17  40  67  92 124 162 240 276 323 380
#     4  10  22  38  69  94 125 170 220 269 313 391
#     4  10  21  38  69 106 130 156 212 284 325 374
#
# _framework density 19.372467
#
# number of rings (size 3 to 8) (size 9 to 14) (size 15 to 20)
#    0.750    0.000    6.250    2.250    0.000    0.500 
#    0.000    3.750    0.000    4.500    0.000    0.000 
#    0.000    0.000    0.000    0.000    0.000    0.000 
#
# Total GULP energy -89109.148730 kJ/mol
# GULP energy per Si atom -5569.321796 kJ/mol
# Density = 1.932837 g / cm^3
# Si number density = 19.372467 Si / 1000 Ang^3
#
#
#
# Elastic Constant Matrix: (Units=GPa)
#
#
# Indices 1 2 3 4 5 6 
#
# 1 80.0783 23.6607 14.5977 0.0000 0.0000 0.0000
# 2 23.6607 83.8040 36.4405 0.0000 0.0000 0.0000
# 3 14.5977 36.4405 128.1528 0.0000 0.0000 0.0000
# 4 0.0000 0.0000 0.0000 25.1571 0.0000 0.0000
# 5 0.0000 0.0000 0.0000 0.0000 -26.3563 0.0000
# 6 0.0000 0.0000 0.0000 0.0000 0.0000 40.3242
#
#
#
# Elastic Compliance Matrix: (Units=1/GPa)
#
#
# Indices 1 2 3 4 5 6 
#
# 1 0.013655 -0.003627 -0.000524 0.000000 0.000000 0.000000
# 2 -0.003627 0.014580 -0.003733 0.000000 0.000000 0.000000
# 3 -0.000524 -0.003733 0.008924 0.000000 0.000000 0.000000
# 4 0.000000 0.000000 0.000000 0.039750 0.000000 0.000000
# 5 0.000000 0.000000 0.000000 0.000000 -0.037942 0.000000
# 6 0.000000 0.000000 0.000000 0.000000 0.000000 0.024799
#
#
# Mechanical properties :
#
#
# Convention : Reuss Voigt Hill
#
# Bulk Modulus (GPa) = 46.74841 49.04811 47.89826
# Shear Modulus (GPa) = 57.69328 22.31407 40.00368
#
# Velocity S-wave (km/s) = 5.46312 3.39757 4.54913
# Velocity P-wave (km/s) = 7.99863 6.38472 7.23681
#
# Compressibility (1/GPa) = 0.02139110
#
# Stress axis : x y z
#
# Youngs Moduli (GPa) = 73.23271 68.58799 112.05436
#
# Poissons Ratio (x) = 0.24880 0.05871
# Poissons Ratio (y) = 0.26565 0.41825
# Poissons Ratio (z) = 0.03837 0.25601
#
# Static dielectric constant tensor:
#      x y z
#    x 1.700100 0.000000 0.000000 
#    y 0.000000 1.946520 0.000000 
#    z 0.000000 0.000000 1.668500 
# 
# From -- ./inp_files/36370.got.cif
#   From: 2010.05.17/outbox.cif.g08.bks.cpg/sg21_19_cif.got.tgz:36370.got - 2010.06.03 23:14:55.
