data_PCOD9324286
_publ_section_title
;
Structure prediction by ZEFSAII (Michael W. Deem and Ramdas Pophale) SiO2 
 PCOD9324286
Probable space group: C 2 2 2
;
_chemical_formula_sum "Si O2"
_cell_formula_units_Z 64
_cell_length_a 9.796163
_cell_length_b 24.693156
_cell_length_c 13.525935
_cell_angle_alpha 90.000000
_cell_angle_beta 90.000000
_cell_angle_gamma 90.000000
_cell_volume 3271.899075
_symmetry_space_group_name_H-M "C 2 2 2"
_symmetry_group_IT_number 21
_symmetry_cell_setting 'orthorhombic'
loop_
_space_group_symop_operation_xyz
x,y,z
-x,-y,z
x,-y,-z
-x,y,-z
1/2+x,1/2+y,z
1/2-x,1/2-y,z
1/2+x,1/2-y,-z
1/2-x,1/2+y,-z
loop_
_atom_site_type_symbol
_atom_site_label
_atom_site_fract_x
_atom_site_fract_y
_atom_site_fract_z
Si Si1 0.076893 0.953601 0.774784
Si Si2 0.405481 0.272487 0.598053
Si Si3 0.591271 0.865084 0.096371
Si Si4 0.589482 0.243015 0.779057
Si Si5 0.098723 0.849295 0.908761
Si Si6 0.410197 0.399826 0.598280
Si Si7 0.148604 0.435260 0.482376
Si Si8 0.621727 0.044018 0.737731
O O1 0.085795 0.897620 0.831126
O O2 0.227968 0.978291 0.760987
O O3 0.985331 0.938110 0.678254
O O4 0.000000 0.000000 0.833886
O O5 0.500000 0.266865 0.500000
O O6 0.250000 0.250000 0.585556
O O7 0.488163 0.244594 0.686716
O O8 0.404291 0.336527 0.625837
O O9 0.561836 0.811687 0.160797
O O10 0.744559 0.853758 0.058709
O O11 0.584202 0.915289 0.173342
O O12 0.500000 0.872979 0.000000
O O13 0.750000 0.250000 0.747962
O O14 0.568434 0.293407 0.852788
O O15 0.000000 0.856169 0.000000
O O16 0.500000 0.404832 0.500000
O O17 0.259875 0.415049 0.559644
O O18 0.146373 0.500000 0.500000
O O19 0.162057 0.425837 0.365081
O O20 0.000000 0.411425 0.500000
O O21 0.500000 0.000000 0.722587
#
# Coordination Sequence:
#
# PCOD9324286 Si02
#       8
#     8   8   8   8   8   8   8   8
#     4  11  23  40  65  92 125 172 216 266 331 386
#     4  11  25  42  62  96 136 174 216 267 330 400
#     4  10  24  42  67  96 126 172 217 274 340 395
#     4  10  21  43  70  93 128 171 217 275 334 400
#     4  10  22  42  67  93 127 164 218 278 333 396
#     4  11  23  39  64  90 128 170 220 261 314 395
#     4  11  22  38  61  93 129 168 216 266 325 387
#     4  11  23  42  62  94 133 170 216 272 328 398
#
# _framework density 19.560506
#
# number of rings (size 3 to 8) (size 9 to 14) (size 15 to 20)
#    0.000    1.375    3.750    1.500    0.000    5.000 
#    0.000    2.500    0.000    0.000    0.000    0.000 
#    0.000    0.000    0.000    0.000    0.000    0.000 
#
# Total GULP energy -178395.138568 kJ/mol
# GULP energy per Si atom -5574.848080 kJ/mol
# Density = 1.951599 g / cm^3
# Si number density = 19.560506 Si / 1000 Ang^3
#
#
#
# Elastic Constant Matrix: (Units=GPa)
#
#
# Indices 1 2 3 4 5 6 
#
# 1 120.5655 32.4063 59.6043 0.0000 0.0000 0.0000
# 2 32.4063 56.8258 15.3643 0.0000 0.0000 0.0000
# 3 59.6043 15.3643 90.2871 0.0000 0.0000 0.0000
# 4 0.0000 0.0000 0.0000 5.4242 0.0000 0.0000
# 5 0.0000 0.0000 0.0000 0.0000 32.2696 0.0000
# 6 0.0000 0.0000 0.0000 0.0000 0.0000 29.1103
#
#
#
# Elastic Compliance Matrix: (Units=1/GPa)
#
#
# Indices 1 2 3 4 5 6 
#
# 1 0.013875 -0.005698 -0.008190 0.000000 0.000000 0.000000
# 2 -0.005698 0.020786 0.000224 0.000000 0.000000 0.000000
# 3 -0.008190 0.000224 0.016444 0.000000 0.000000 0.000000
# 4 0.000000 0.000000 0.000000 0.184358 0.000000 0.000000
# 5 0.000000 0.000000 0.000000 0.000000 0.030989 0.000000
# 6 0.000000 0.000000 0.000000 0.000000 0.000000 0.034352
#
#
# Mechanical properties :
#
#
# Convention : Reuss Voigt Hill
#
# Bulk Modulus (GPa) = 42.05524 53.60312 47.82918
# Shear Modulus (GPa) = 14.87840 24.04772 19.46306
#
# Velocity S-wave (km/s) = 2.76095 3.51009 3.15781
# Velocity P-wave (km/s) = 5.63121 6.62502 6.14823
#
# Compressibility (1/GPa) = 0.02377825
#
# Stress axis : x y z
#
# Youngs Moduli (GPa) = 72.07377 48.10831 60.81136
#
# Poissons Ratio (x) = 0.27412 0.49804
# Poissons Ratio (y) = 0.41068 -0.01364
# Poissons Ratio (z) = 0.59028 -0.01079
#
# Static dielectric constant tensor:
#      x y z
#    x 1.801550 0.000000 0.000000 
#    y 0.000000 1.706340 0.000000 
#    z 0.000000 0.000000 1.462120 
# 
# From -- ./inp_files/30891.got.cif
#   From: 2010.05.17/outbox.cif.g08.bks.cpg/sg21_16_cif.got.tgz:30891.got - 2010.06.03 23:14:55.
