data_PCOD9324784
_publ_section_title
;
Structure prediction by ZEFSAII (Michael W. Deem and Ramdas Pophale) SiO2 
 PCOD9324784
Probable space group: C 2 2 2
;
_chemical_formula_sum "Si O2"
_cell_formula_units_Z 38
_cell_length_a 11.555725
_cell_length_b 28.080566
_cell_length_c 5.301130
_cell_angle_alpha 90.000000
_cell_angle_beta 90.000000
_cell_angle_gamma 90.000000
_cell_volume 1720.170557
_symmetry_space_group_name_H-M "C 2 2 2"
_symmetry_group_IT_number 21
_symmetry_cell_setting 'orthorhombic'
loop_
_space_group_symop_operation_xyz
x,y,z
-x,-y,z
x,-y,-z
-x,y,-z
1/2+x,1/2+y,z
1/2-x,1/2-y,z
1/2+x,1/2-y,-z
1/2-x,1/2+y,-z
loop_
_atom_site_type_symbol
_atom_site_label
_atom_site_fract_x
_atom_site_fract_y
_atom_site_fract_z
Si Si1 0.370238 0.903904 0.455157
Si Si2 0.427870 0.681314 0.249826
Si Si3 0.500000 0.500000 0.000000
Si Si4 0.874497 0.660106 0.049700
Si Si5 0.619661 0.575899 0.660945
Si Si6 0.750000 0.750000 0.873530
O O1 0.500000 0.926369 0.500000
O O2 0.370796 0.878403 0.180079
O O3 0.246455 0.931554 0.465120
O O4 0.363125 0.865417 0.681602
O O5 0.500000 0.676330 0.500000
O O6 0.372789 0.628647 0.216238
O O7 0.347739 0.726634 0.295416
O O8 0.500000 0.690905 0.000000
O O9 0.587190 0.534218 0.850309
O O10 0.787416 0.703921 0.030491
O O11 0.000000 0.682557 0.000000
O O12 0.500000 0.576418 0.500000
#
# Coordination Sequence:
#
# PCOD9324784 Si02
#       6
#     8   8   2   8   8   4
#     4  10  23  45  72 100 142 192 237 295 360 435
#     4  11  26  43  64  99 148 190 244 302 358 427
#     4  12  26  48  84 112 144 184 250 318 398 458
#     4  10  23  40  61  98 140 192 249 290 351 422
#     4  11  25  46  75 110 144 189 244 309 380 447
#     4  12  24  40  64  98 140 202 244 300 342 426
#
# _framework density 22.090834000000001
#
# number of rings (size 3 to 8) (size 9 to 14) (size 15 to 20)
#    0.000    1.263    3.158    0.947    8.842    5.895 
#    0.000    0.000    0.000    3.789    0.000    0.000 
#    0.000    0.000    0.000    0.000    0.000    0.000 
#
# Total GULP energy -105885.552972 kJ/mol
# GULP energy per Si atom -5572.923841 kJ/mol
# Density = 2.204055 g / cm^3
# Si number density = 22.090834 Si / 1000 Ang^3
#
#
#
# Elastic Constant Matrix: (Units=GPa)
#
#
# Indices 1 2 3 4 5 6 
#
# 1 163.0987 39.7810 11.5743 0.0000 0.0000 0.0000
# 2 39.7810 87.1850 26.9616 0.0000 0.0000 0.0000
# 3 11.5743 26.9616 72.8869 0.0000 0.0000 0.0000
# 4 0.0000 0.0000 0.0000 2.5296 0.0000 0.0000
# 5 0.0000 0.0000 0.0000 0.0000 17.0139 0.0000
# 6 0.0000 0.0000 0.0000 0.0000 0.0000 12.6594
#
#
#
# Elastic Compliance Matrix: (Units=1/GPa)
#
#
# Indices 1 2 3 4 5 6 
#
# 1 0.006899 -0.003172 0.000078 0.000000 0.000000 0.000000
# 2 -0.003172 0.014410 -0.004827 0.000000 0.000000 0.000000
# 3 0.000078 -0.004827 0.015493 0.000000 0.000000 0.000000
# 4 0.000000 0.000000 0.000000 0.395326 0.000000 0.000000
# 5 0.000000 0.000000 0.000000 0.000000 0.058775 0.000000
# 6 0.000000 0.000000 0.000000 0.000000 0.000000 0.078993
#
#
# Mechanical properties :
#
#
# Convention : Reuss Voigt Hill
#
# Bulk Modulus (GPa) = 47.70923 53.31159 50.51041
# Shear Modulus (GPa) = 8.43561 22.76416 15.59988
#
# Velocity S-wave (km/s) = 1.95624 3.21359 2.66027
# Velocity P-wave (km/s) = 5.17168 6.16075 5.68775
#
# Compressibility (1/GPa) = 0.02096030
#
# Stress axis : x y z
#
# Youngs Moduli (GPa) = 144.93913 69.39692 64.54546
#
# Poissons Ratio (x) = 0.22014 -0.00502
# Poissons Ratio (y) = 0.45977 0.31154
# Poissons Ratio (z) = -0.01127 0.33495
#
# Static dielectric constant tensor:
#      x y z
#    x 1.934370 0.000000 0.000000 
#    y 0.000000 1.778960 0.000000 
#    z 0.000000 0.000000 1.812140 
# 
# From -- ./inp_files/2887.got.cif
#   From: 2010.05.17/outbox.cif.g08.bks.cpg/sg21_2_cif.got.tgz:2887.got - 2010.06.03 23:14:55.
