data_PCOD9324980
_publ_section_title
;
Structure prediction by ZEFSAII (Michael W. Deem and Ramdas Pophale) SiO2 
 PCOD9324980
Probable space group: C 2 2 2
;
_chemical_formula_sum "Si O2"
_cell_formula_units_Z 58
_cell_length_a 9.768323
_cell_length_b 10.953764
_cell_length_c 27.099397
_cell_angle_alpha 90.000000
_cell_angle_beta 90.000000
_cell_angle_gamma 90.000000
_cell_volume 2899.632900
_symmetry_space_group_name_H-M "C 2 2 2"
_symmetry_group_IT_number 21
_symmetry_cell_setting 'orthorhombic'
loop_
_space_group_symop_operation_xyz
x,y,z
-x,-y,z
x,-y,-z
-x,y,-z
1/2+x,1/2+y,z
1/2-x,1/2-y,z
1/2+x,1/2-y,-z
1/2-x,1/2+y,-z
loop_
_atom_site_type_symbol
_atom_site_label
_atom_site_fract_x
_atom_site_fract_y
_atom_site_fract_z
Si Si1 0.839312 0.861136 0.486078
Si Si2 0.183038 0.363865 0.382394
Si Si3 0.944347 0.245015 0.838230
Si Si4 0.365891 0.147882 0.755673
Si Si5 0.000000 0.000000 0.000000
Si Si6 0.750217 0.963084 0.168275
Si Si7 0.849063 0.854295 0.916207
Si Si8 0.869755 0.355137 0.358681
O O1 0.750000 0.750000 0.509410
O O2 0.787109 0.861145 0.429442
O O3 0.000000 0.842719 0.500000
O O4 0.804491 0.000000 0.500000
O O5 0.250000 0.250000 0.351511
O O6 0.186378 0.507310 0.367868
O O7 0.016899 0.338543 0.387264
O O8 0.883337 0.116471 0.820278
O O9 0.845178 0.355645 0.852325
O O10 0.021531 0.300960 0.792038
O O11 0.032849 0.211520 0.885213
O O12 0.250000 0.250000 0.756448
O O13 0.410059 0.139298 0.699228
O O14 0.308663 0.027615 0.783012
O O15 0.906753 0.924651 0.962560
O O16 0.777953 0.060374 0.125330
O O17 0.750000 0.750000 0.934095
O O18 0.750000 0.250000 0.366086
#
# Coordination Sequence:
#
# PCOD9324980 Si02
#       8
#     8   8   8   8   2   8   8   8
#     4  10  24  44  71 108 137 180 242 296 352 420
#     4  10  24  45  68  99 145 186 229 295 351 416
#     4  11  22  37  65  96 126 164 213 269 329 383
#     4  11  22  40  65  98 131 174 219 274 323 398
#     4  12  28  44  68  88 136 172 216 276 356 424
#     4  11  22  37  65  96 126 165 212 270 330 383
#     4  12  24  44  66  94 128 169 214 279 336 407
#     4  10  25  44  66  96 143 192 232 278 359 421
#
# _framework density 20.002533
#
# number of rings (size 3 to 8) (size 9 to 14) (size 15 to 20)
#    0.000    1.241    4.138    0.414    3.862   12.414 
#    0.000    2.759    0.000    0.000    0.000    0.000 
#    0.000    0.000    0.000    0.000    0.000    0.000 
#
# Total GULP energy -161436.194591 kJ/mol
# GULP energy per Si atom -5566.765331 kJ/mol
# Density = 1.995701 g / cm^3
# Si number density = 20.002533 Si / 1000 Ang^3
#
#
#
# Elastic Constant Matrix: (Units=GPa)
#
#
# Indices 1 2 3 4 5 6 
#
# 1 87.4853 56.2054 39.6384 0.0000 0.0000 0.0000
# 2 56.2054 142.6093 27.6519 0.0000 0.0000 0.0000
# 3 39.6384 27.6519 99.5428 0.0000 0.0000 0.0000
# 4 0.0000 0.0000 0.0000 103.5026 0.0000 0.0000
# 5 0.0000 0.0000 0.0000 0.0000 0.6298 0.0000
# 6 0.0000 0.0000 0.0000 0.0000 0.0000 57.2794
#
#
#
# Elastic Compliance Matrix: (Units=1/GPa)
#
#
# Indices 1 2 3 4 5 6 
#
# 1 0.017679 -0.005922 -0.005395 0.000000 0.000000 0.000000
# 2 -0.005922 0.009395 -0.000252 0.000000 0.000000 0.000000
# 3 -0.005395 -0.000252 0.012264 0.000000 0.000000 0.000000
# 4 0.000000 0.000000 0.000000 0.009662 0.000000 0.000000
# 5 0.000000 0.000000 0.000000 0.000000 1.587891 0.000000
# 6 0.000000 0.000000 0.000000 0.000000 0.000000 0.017458
#
#
# Mechanical properties :
#
#
# Convention : Reuss Voigt Hill
#
# Bulk Modulus (GPa) = 61.72286 64.06988 62.89637
# Shear Modulus (GPa) = 2.97109 46.02513 24.49811
#
# Velocity S-wave (km/s) = 1.22007 4.80204 3.50344
# Velocity P-wave (km/s) = 5.73666 7.92758 6.91939
#
# Compressibility (1/GPa) = 0.01620145
#
# Stress axis : x y z
#
# Youngs Moduli (GPa) = 56.56324 106.44131 81.53826
#
# Poissons Ratio (x) = 0.63031 0.43990
# Poissons Ratio (y) = 0.33495 0.02053
# Poissons Ratio (z) = 0.30516 0.02680
#
# Static dielectric constant tensor:
#      x y z
#    x 1.665120 0.000000 0.000000 
#    y 0.000000 1.733800 0.000000 
#    z 0.000000 0.000000 1.696400 
# 
# From -- ./inp_files/39216.got.cif
#   From: 2010.05.17/outbox.cif.g08.bks.cpg/sg21_20_cif.got.tgz:39216.got - 2010.06.03 23:14:55.
