data_PCOD9324877
_publ_section_title
;
Structure prediction by ZEFSAII (Michael W. Deem and Ramdas Pophale) SiO2 
 PCOD9324877
Probable space group: C 2 2 2
;
_chemical_formula_sum "Si O2"
_cell_formula_units_Z 26
_cell_length_a 8.471660
_cell_length_b 6.861864
_cell_length_c 19.874754
_cell_angle_alpha 90.000000
_cell_angle_beta 90.000000
_cell_angle_gamma 90.000000
_cell_volume 1155.346853
_symmetry_space_group_name_H-M "C 2 2 2"
_symmetry_group_IT_number 21
_symmetry_cell_setting 'orthorhombic'
loop_
_space_group_symop_operation_xyz
x,y,z
-x,-y,z
x,-y,-z
-x,y,-z
1/2+x,1/2+y,z
1/2-x,1/2-y,z
1/2+x,1/2-y,-z
1/2-x,1/2+y,-z
loop_
_atom_site_type_symbol
_atom_site_label
_atom_site_fract_x
_atom_site_fract_y
_atom_site_fract_z
Si Si1 0.432460 0.218003 0.709712
Si Si2 0.934141 0.278191 0.570207
Si Si3 0.000000 0.000000 0.169241
Si Si4 0.000000 0.500000 0.000000
Si Si5 0.750000 0.250000 0.913450
O O1 0.250000 0.250000 0.691847
O O2 0.522491 0.297420 0.644129
O O3 0.454207 0.328050 0.779705
O O4 0.500000 0.000000 0.719367
O O5 0.750000 0.250000 0.564175
O O6 0.000000 0.500000 0.572565
O O7 0.000000 0.199423 0.500000
O O8 0.148144 0.087502 0.127697
O O9 0.117174 0.635781 0.956303
#
# Coordination Sequence:
#
# PCOD9324877 Si02
#       5
#     8   8   4   2   4
#     4  11  26  45  71 107 153 198 256 312 377 445
#     4  10  23  45  70 100 143 197 258 319 377 435
#     4  12  28  45  79 116 150 206 238 312 364 458
#     4  12  28  56  80 120 146 202 238 306 352 454
#     4  12  28  50  84 112 160 188 254 292 374 434
#
# _framework density 22.504064
#
# number of rings (size 3 to 8) (size 9 to 14) (size 15 to 20)
#    0.000    0.923    0.000    4.615   17.231    0.000 
#    0.000    0.000    0.000    0.000    0.000    0.000 
#    0.000    0.000    0.000    0.000    0.000    0.000 
#
# Total GULP energy -72601.691818 kJ/mol
# GULP energy per Si atom -5584.745524 kJ/mol
# Density = 2.245284 g / cm^3
# Si number density = 22.504064 Si / 1000 Ang^3
#
#
#
# Elastic Constant Matrix: (Units=GPa)
#
#
# Indices 1 2 3 4 5 6 
#
# 1 245.8898 71.7187 109.5409 0.0000 0.0000 0.0000
# 2 71.7187 182.2550 70.9571 0.0000 0.0000 0.0000
# 3 109.5409 70.9571 183.6636 0.0000 0.0000 0.0000
# 4 0.0000 0.0000 0.0000 84.5031 0.0000 0.0000
# 5 0.0000 0.0000 0.0000 0.0000 52.0265 0.0000
# 6 0.0000 0.0000 0.0000 0.0000 0.0000 48.5409
#
#
#
# Elastic Compliance Matrix: (Units=1/GPa)
#
#
# Indices 1 2 3 4 5 6 
#
# 1 0.005715 -0.001085 -0.002989 0.000000 0.000000 0.000000
# 2 -0.001085 0.006664 -0.001928 0.000000 0.000000 0.000000
# 3 -0.002989 -0.001928 0.007972 0.000000 0.000000 0.000000
# 4 0.000000 0.000000 0.000000 0.011834 0.000000 0.000000
# 5 0.000000 0.000000 0.000000 0.000000 0.019221 0.000000
# 6 0.000000 0.000000 0.000000 0.000000 0.000000 0.020601
#
#
# Mechanical properties :
#
#
# Convention : Reuss Voigt Hill
#
# Bulk Modulus (GPa) = 119.79323 124.02686 121.91005
# Shear Modulus (GPa) = 57.60751 60.98689 59.29720
#
# Velocity S-wave (km/s) = 5.06501 5.21145 5.13875
# Velocity P-wave (km/s) = 9.35698 9.56269 9.46039
#
# Compressibility (1/GPa) = 0.00834772
#
# Stress axis : x y z
#
# Youngs Moduli (GPa) = 174.97570 150.05467 125.43351
#
# Poissons Ratio (x) = 0.16282 0.37497
# Poissons Ratio (y) = 0.18986 0.24178
# Poissons Ratio (z) = 0.52307 0.28923
#
# Static dielectric constant tensor:
#      x y z
#    x 1.767200 0.000000 0.000000 
#    y 0.000000 2.028700 0.000000 
#    z 0.000000 0.000000 1.831630 
# 
# From -- ./inp_files/35349.got.cif
#   From: 2010.05.17/outbox.cif.g08.bks.cpg/sg21_18_cif.got.tgz:35349.got - 2010.06.03 23:14:55.
