data_PCOD9324998
_publ_section_title
;
Structure prediction by ZEFSAII (Michael W. Deem and Ramdas Pophale) SiO2 
 PCOD9324998
Probable space group: C 2 2 2
;
_chemical_formula_sum "Si O2"
_cell_formula_units_Z 58
_cell_length_a 9.125473
_cell_length_b 28.671742
_cell_length_c 11.034345
_cell_angle_alpha 90.000000
_cell_angle_beta 90.000000
_cell_angle_gamma 90.000000
_cell_volume 2887.061418
_symmetry_space_group_name_H-M "C 2 2 2"
_symmetry_group_IT_number 21
_symmetry_cell_setting 'orthorhombic'
loop_
_space_group_symop_operation_xyz
x,y,z
-x,-y,z
x,-y,-z
-x,y,-z
1/2+x,1/2+y,z
1/2-x,1/2-y,z
1/2+x,1/2-y,-z
1/2-x,1/2+y,-z
loop_
_atom_site_type_symbol
_atom_site_label
_atom_site_fract_x
_atom_site_fract_y
_atom_site_fract_z
Si Si1 0.201683 0.623485 0.201334
Si Si2 0.070936 0.626469 0.631707
Si Si3 0.521257 0.634827 0.644283
Si Si4 0.204326 0.802736 0.727563
Si Si5 0.311190 0.555119 0.689560
Si Si6 0.178719 0.801097 0.006724
Si Si7 0.500000 0.500000 0.500000
Si Si8 0.164437 0.515121 0.138535
O O1 0.315776 0.625593 0.312679
O O2 0.260360 0.660097 0.100647
O O3 0.190756 0.570291 0.153721
O O4 0.045403 0.634843 0.261100
O O5 0.193133 0.666051 0.643356
O O6 0.157653 0.578386 0.653454
O O7 0.000000 0.626428 0.500000
O O8 0.500000 0.630042 0.500000
O O9 0.460692 0.684856 0.687568
O O10 0.419714 0.598048 0.718777
O O11 0.250000 0.750000 0.711478
O O12 0.225252 0.814179 0.869489
O O13 0.393798 0.531078 0.579745
O O14 0.280437 0.515632 0.787479
O O15 0.250000 0.750000 0.033868
O O16 0.000000 0.798467 0.000000
O O17 0.000000 0.500000 0.178534
O O18 0.175997 0.500000 0.000000
#
# Coordination Sequence:
#
# PCOD9324998 Si02
#       8
#     8   8   8   8   8   8   2   8
#     4  12  25  43  73 103 138 187 235 295 357 425
#     4  11  26  44  69 103 138 183 235 289 355 426
#     4  11  23  44  67  97 142 184 236 289 347 423
#     4  10  24  45  70 100 140 179 230 296 359 419
#     4  11  24  44  66  98 137 185 230 292 339 420
#     4  11  26  47  75 108 141 185 242 300 365 437
#     4  12  24  40  76  92 132 180 238 282 352 404
#     4  11  26  44  65 101 141 180 234 289 354 418
#
# _framework density 20.089632000000002
#
# number of rings (size 3 to 8) (size 9 to 14) (size 15 to 20)
#    0.000    0.966    3.448    2.483    9.655    0.552 
#    0.000    3.793    0.000    0.000    0.000    0.000 
#    0.000    0.000    0.000    0.000    0.000    0.000 
#
# Total GULP energy -161961.363133 kJ/mol
# GULP energy per Si atom -5584.874591 kJ/mol
# Density = 2.004391 g / cm^3
# Si number density = 20.089632 Si / 1000 Ang^3
#
#
#
# Elastic Constant Matrix: (Units=GPa)
#
#
# Indices 1 2 3 4 5 6 
#
# 1 101.8111 35.0059 21.2520 0.0000 0.0000 0.0000
# 2 35.0059 109.7813 44.0210 0.0000 0.0000 0.0000
# 3 21.2520 44.0210 64.8293 0.0000 0.0000 0.0000
# 4 0.0000 0.0000 0.0000 27.3565 0.0000 0.0000
# 5 0.0000 0.0000 0.0000 0.0000 49.0762 0.0000
# 6 0.0000 0.0000 0.0000 0.0000 0.0000 -89.5500
#
#
#
# Elastic Compliance Matrix: (Units=1/GPa)
#
#
# Indices 1 2 3 4 5 6 
#
# 1 0.011168 -0.002876 -0.001708 0.000000 0.000000 0.000000
# 2 -0.002876 0.013258 -0.008060 0.000000 0.000000 0.000000
# 3 -0.001708 -0.008060 0.021458 0.000000 0.000000 0.000000
# 4 0.000000 0.000000 0.000000 0.036554 0.000000 0.000000
# 5 0.000000 0.000000 0.000000 0.000000 0.020376 0.000000
# 6 0.000000 0.000000 0.000000 0.000000 0.000000 -0.011167
#
#
# Mechanical properties :
#
#
# Convention : Reuss Voigt Hill
#
# Bulk Modulus (GPa) = 48.55362 52.99772 50.77567
# Shear Modulus (GPa) = 40.38773 9.11940 24.75356
#
# Velocity S-wave (km/s) = 4.48859 2.13289 3.51402
# Velocity P-wave (km/s) = 7.14732 5.70119 6.46482
#
# Compressibility (1/GPa) = 0.02059579
#
# Stress axis : x y z
#
# Youngs Moduli (GPa) = 89.54533 75.42617 46.60313
#
# Poissons Ratio (x) = 0.21694 0.07959
# Poissons Ratio (y) = 0.25755 0.37561
# Poissons Ratio (z) = 0.15293 0.60791
#
# Static dielectric constant tensor:
#      x y z
#    x 1.711640 0.000000 0.000000 
#    y 0.000000 1.682680 0.000000 
#    z 0.000000 0.000000 1.704510 
# 
# From -- ./inp_files/23000.got.cif
#   From: 2010.05.17/outbox.cif.g08.bks.cpg/sg21_12_cif.got.tgz:23000.got - 2010.06.03 23:14:55.
