data_PCOD9324642
_publ_section_title
;
Structure prediction by ZEFSAII (Michael W. Deem and Ramdas Pophale) SiO2 
 PCOD9324642
Probable space group: C 2 2 2
;
_chemical_formula_sum "Si O2"
_cell_formula_units_Z 34
_cell_length_a 6.848515
_cell_length_b 14.451663
_cell_length_c 16.584282
_cell_angle_alpha 90.000000
_cell_angle_beta 90.000000
_cell_angle_gamma 90.000000
_cell_volume 1641.386703
_symmetry_space_group_name_H-M "C 2 2 2"
_symmetry_group_IT_number 21
_symmetry_cell_setting 'orthorhombic'
loop_
_space_group_symop_operation_xyz
x,y,z
-x,-y,z
x,-y,-z
-x,y,-z
1/2+x,1/2+y,z
1/2-x,1/2-y,z
1/2+x,1/2-y,-z
1/2-x,1/2+y,-z
loop_
_atom_site_type_symbol
_atom_site_label
_atom_site_fract_x
_atom_site_fract_y
_atom_site_fract_z
Si Si1 0.250000 0.250000 0.812300
Si Si2 0.872239 0.093136 0.573709
Si Si3 0.116832 0.162840 0.248499
Si Si4 0.500000 0.500000 0.866651
Si Si5 0.500000 0.000000 0.500000
Si Si6 0.887229 0.587052 0.915757
O O1 0.391729 0.309049 0.758251
O O2 0.121422 0.318425 0.866865
O O3 0.847172 0.143230 0.658155
O O4 0.000000 0.138056 0.500000
O O5 0.654564 0.064040 0.547217
O O6 0.000000 0.000000 0.589807
O O7 0.250000 0.250000 0.222677
O O8 0.117999 0.072989 0.190148
O O9 0.660794 0.555246 0.918451
O O10 0.000000 0.500000 0.876695
O O11 0.000000 0.600958 0.000000
#
# Coordination Sequence:
#
# PCOD9324642 Si02
#       6
#     4   8   8   4   2   8
#     4  10  24  44  62  94 130 166 214 270 326 386
#     4   9  19  38  60  92 124 166 215 259 321 381
#     4  11  22  40  65  93 129 169 214 270 322 385
#     4  10  22  43  67  92 128 166 218 270 319 398
#     4   8  18  36  64  86 124 166 212 252 324 378
#     4  10  22  44  66  95 124 169 213 262 329 395
#
# _framework density 20.714193000000002
#
# number of rings (size 3 to 8) (size 9 to 14) (size 15 to 20)
#    0.000    2.353    1.176    1.412    0.000    5.647 
#   25.412    0.000    0.000    0.000    0.000    0.000 
#    0.000    0.000    0.000    0.000    0.000    0.000 
#
# Total GULP energy -94705.037558 kJ/mol
# GULP energy per Si atom -5570.884562 kJ/mol
# Density = 2.066705 g / cm^3
# Si number density = 20.714193 Si / 1000 Ang^3
#
#
#
# Elastic Constant Matrix: (Units=GPa)
#
#
# Indices 1 2 3 4 5 6 
#
# 1 135.0412 29.8534 71.4528 0.0000 0.0000 0.0000
# 2 29.8534 79.7043 42.1153 0.0000 0.0000 0.0000
# 3 71.4528 42.1153 111.4897 0.0000 0.0000 0.0000
# 4 0.0000 0.0000 0.0000 22.4307 0.0000 0.0000
# 5 0.0000 0.0000 0.0000 0.0000 16.3169 0.0000
# 6 0.0000 0.0000 0.0000 0.0000 0.0000 43.9698
#
#
#
# Elastic Compliance Matrix: (Units=1/GPa)
#
#
# Indices 1 2 3 4 5 6 
#
# 1 0.011221 -0.000503 -0.007001 0.000000 0.000000 0.000000
# 2 -0.000503 0.015698 -0.005607 0.000000 0.000000 0.000000
# 3 -0.007001 -0.005607 0.015575 0.000000 0.000000 0.000000
# 4 0.000000 0.000000 0.000000 0.044582 0.000000 0.000000
# 5 0.000000 0.000000 0.000000 0.000000 0.061286 0.000000
# 6 0.000000 0.000000 0.000000 0.000000 0.000000 0.022743
#
#
# Mechanical properties :
#
#
# Convention : Reuss Voigt Hill
#
# Bulk Modulus (GPa) = 61.46440 68.11979 64.79209
# Shear Modulus (GPa) = 24.66079 28.73105 26.69592
#
# Velocity S-wave (km/s) = 3.45414 3.72832 3.59385
# Velocity P-wave (km/s) = 6.75612 7.17570 6.96907
#
# Compressibility (1/GPa) = 0.01626958
#
# Stress axis : x y z
#
# Youngs Moduli (GPa) = 89.11925 63.70340 64.20711
#
# Poissons Ratio (x) = 0.03207 0.44953
# Poissons Ratio (y) = 0.04486 0.36002
# Poissons Ratio (z) = 0.62394 0.35720
#
# Static dielectric constant tensor:
#      x y z
#    x 1.729240 0.000000 0.000000 
#    y 0.000000 1.805580 0.000000 
#    z 0.000000 0.000000 2.263430 
# 
# From -- ./inp_files/34552.got.cif
#   From: 2010.05.17/outbox.cif.g08.bks.cpg/sg21_18_cif.got.tgz:34552.got - 2010.06.03 23:14:55.
