data_PCOD9324042
_publ_section_title
;
Structure prediction by ZEFSAII (Michael W. Deem and Ramdas Pophale) SiO2 
 PCOD9324042
Probable space group: C 2 2 2
;
_chemical_formula_sum "Si O2"
_cell_formula_units_Z 58
_cell_length_a 16.058809
_cell_length_b 19.016306
_cell_length_c 8.766359
_cell_angle_alpha 90.000000
_cell_angle_beta 90.000000
_cell_angle_gamma 90.000000
_cell_volume 2677.063926
_symmetry_space_group_name_H-M "C 2 2 2"
_symmetry_group_IT_number 21
_symmetry_cell_setting 'orthorhombic'
loop_
_space_group_symop_operation_xyz
x,y,z
-x,-y,z
x,-y,-z
-x,y,-z
1/2+x,1/2+y,z
1/2-x,1/2-y,z
1/2+x,1/2-y,-z
1/2-x,1/2+y,-z
loop_
_atom_site_type_symbol
_atom_site_label
_atom_site_fract_x
_atom_site_fract_y
_atom_site_fract_z
Si Si1 0.150118 0.927653 0.093811
Si Si2 0.856973 0.676534 0.248732
Si Si3 0.000000 0.500000 0.500000
Si Si4 0.830846 0.582178 0.977187
Si Si5 0.931371 0.805979 0.109056
Si Si6 0.660115 0.761195 0.574387
Si Si7 0.049856 0.873855 0.361293
Si Si8 0.545939 0.878467 0.724535
O O1 0.246603 0.908918 0.119934
O O2 0.100481 0.925961 0.252010
O O3 0.108091 0.868519 0.988038
O O4 0.145579 0.000000 0.000000
O O5 0.864806 0.748917 0.156510
O O6 0.823377 0.700013 0.412423
O O7 0.950154 0.645397 0.271353
O O8 0.814333 0.620206 0.138636
O O9 0.950111 0.552817 0.613690
O O10 0.912054 0.607575 0.887540
O O11 0.842698 0.500000 0.000000
O O12 0.981636 0.835268 0.253753
O O13 0.000000 0.770454 0.000000
O O14 0.750000 0.750000 0.649843
O O15 0.611600 0.686806 0.573360
O O16 0.598877 0.814516 0.657955
O O17 0.000000 0.907247 0.500000
#
# Coordination Sequence:
#
# PCOD9324042 Si02
#       8
#     8   8   2   8   8   8   8   8
#     4  10  25  47  67 100 143 180 226 293 361 426
#     4  12  23  42  67  99 136 178 235 287 340 421
#     4  12  24  40  74 100 140 184 230 280 352 424
#     4  11  26  43  65  98 140 181 230 283 345 424
#     4  10  21  38  68  95 130 173 227 284 341 410
#     4  12  25  41  67 101 141 178 227 292 359 413
#     4  11  21  43  73 100 133 175 233 288 340 418
#     4  12  23  45  67 100 136 186 231 280 351 420
#
# _framework density 21.665527000000001
#
# number of rings (size 3 to 8) (size 9 to 14) (size 15 to 20)
#    0.000    0.828    4.138    2.897    3.862    3.034 
#    0.000    1.379    0.000    0.000    0.000    0.000 
#    0.000    0.000    0.000    0.000    0.000    0.000 
#
# Total GULP energy -162120.618861 kJ/mol
# GULP energy per Si atom -5590.366168 kJ/mol
# Density = 2.161621 g / cm^3
# Si number density = 21.665527 Si / 1000 Ang^3
#
#
#
# Elastic Constant Matrix: (Units=GPa)
#
#
# Indices 1 2 3 4 5 6 
#
# 1 83.6371 16.7724 14.8705 0.0000 0.0000 0.0000
# 2 16.7724 70.5278 13.3074 0.0000 0.0000 0.0000
# 3 14.8705 13.3074 83.7467 0.0000 0.0000 0.0000
# 4 0.0000 0.0000 0.0000 20.9850 0.0000 0.0000
# 5 0.0000 0.0000 0.0000 0.0000 25.5775 0.0000
# 6 0.0000 0.0000 0.0000 0.0000 0.0000 -6.3974
#
#
#
# Elastic Compliance Matrix: (Units=1/GPa)
#
#
# Indices 1 2 3 4 5 6 
#
# 1 0.012827 -0.002702 -0.001848 0.000000 0.000000 0.000000
# 2 -0.002702 0.015186 -0.001933 0.000000 0.000000 0.000000
# 3 -0.001848 -0.001933 0.012576 0.000000 0.000000 0.000000
# 4 0.000000 0.000000 0.000000 0.047653 0.000000 0.000000
# 5 0.000000 0.000000 0.000000 0.000000 0.039097 0.000000
# 6 0.000000 0.000000 0.000000 0.000000 0.000000 -0.156313
#
#
# Mechanical properties :
#
#
# Convention : Reuss Voigt Hill
#
# Bulk Modulus (GPa) = 36.20241 36.42359 36.31300
# Shear Modulus (GPa) = -735.26828 20.89712 -357.18558
#
# Velocity S-wave (km/s) = -18.44205 3.10906 -12.85385
# Velocity P-wave (km/s) = 20.89816 5.45313 14.26528
#
# Compressibility (1/GPa) = 0.02762247
#
# Stress axis : x y z
#
# Youngs Moduli (GPa) = 77.96167 65.84975 79.51539
#
# Poissons Ratio (x) = 0.17790 0.14697
# Poissons Ratio (y) = 0.21062 0.15373
# Poissons Ratio (z) = 0.14410 0.12731
#
# Static dielectric constant tensor:
#      x y z
#    x 1.797460 0.000000 0.000000 
#    y 0.000000 1.763510 0.000000 
#    z 0.000000 0.000000 1.895300 
# 
# From -- ./inp_files/16672.got.cif
#   From: 2010.05.17/outbox.cif.g08.bks.cpg/sg21_9_cif.got.tgz:16672.got - 2010.06.03 23:14:55.
