data_PCOD9324335
_publ_section_title
;
Structure prediction by ZEFSAII (Michael W. Deem and Ramdas Pophale) SiO2 
 PCOD9324335
Probable space group: C 2 2 2
;
_chemical_formula_sum "Si O2"
_cell_formula_units_Z 64
_cell_length_a 19.670904
_cell_length_b 13.748340
_cell_length_c 10.866672
_cell_angle_alpha 90.000000
_cell_angle_beta 90.000000
_cell_angle_gamma 90.000000
_cell_volume 2938.807511
_symmetry_space_group_name_H-M "C 2 2 2"
_symmetry_group_IT_number 21
_symmetry_cell_setting 'orthorhombic'
loop_
_space_group_symop_operation_xyz
x,y,z
-x,-y,z
x,-y,-z
-x,y,-z
1/2+x,1/2+y,z
1/2-x,1/2-y,z
1/2+x,1/2-y,-z
1/2-x,1/2+y,-z
loop_
_atom_site_type_symbol
_atom_site_label
_atom_site_fract_x
_atom_site_fract_y
_atom_site_fract_z
Si Si1 0.929014 0.776419 0.329001
Si Si2 0.420973 0.240321 0.597827
Si Si3 0.793509 0.974675 0.130224
Si Si4 0.614227 0.180012 0.050534
Si Si5 0.062355 0.128581 0.082199
Si Si6 0.072788 0.445558 0.715147
Si Si7 0.309267 0.690948 0.229387
Si Si8 0.164307 0.382062 0.205155
O O1 0.908915 0.795549 0.469858
O O2 0.951059 0.854690 0.227047
O O3 0.869530 0.712235 0.268312
O O4 0.001152 0.726672 0.358739
O O5 0.402182 0.126533 0.606156
O O6 0.379147 0.299884 0.697239
O O7 0.866468 0.929500 0.092850
O O8 0.745288 0.897984 0.200189
O O9 0.797371 0.078704 0.198437
O O10 0.759757 0.000000 0.000000
O O11 0.574594 0.268482 0.986273
O O12 0.637776 0.117470 0.935302
O O13 0.576234 0.118794 0.157170
O O14 0.676905 0.237161 0.113668
O O15 0.000000 0.091104 0.000000
O O16 0.129725 0.526970 0.729707
O O17 0.000000 0.500000 0.700850
O O18 0.250000 0.750000 0.299297
#
# Coordination Sequence:
#
# PCOD9324335 Si02
#       8
#     8   8   8   8   8   8   8   8
#     4  10  23  44  70  94 137 182 230 286 345 416
#     4  10  22  45  66  95 131 188 234 282 346 405
#     4  12  24  42  66 104 139 176 225 293 350 425
#     4  10  22  36  60  92 138 176 216 271 355 412
#     4  11  24  43  68 101 133 179 230 281 352 419
#     4  11  20  35  62  98 132 174 224 281 335 417
#     4  11  22  42  68  96 137 185 232 280 354 428
#     4  11  23  39  60  99 137 177 222 284 354 416
#
# _framework density 21.777539999999998
#
# number of rings (size 3 to 8) (size 9 to 14) (size 15 to 20)
#    0.000    1.250    2.500    4.875    1.750    2.750 
#    2.250    0.625    0.000    1.500    0.000    0.000 
#    0.000    0.000    0.000    0.000    0.000    0.000 
#
# Total GULP energy -178235.910960 kJ/mol
# GULP energy per Si atom -5569.872217 kJ/mol
# Density = 2.172797 g / cm^3
# Si number density = 21.777540 Si / 1000 Ang^3
#
#
#
# Elastic Constant Matrix: (Units=GPa)
#
#
# Indices 1 2 3 4 5 6 
#
# 1 119.3395 37.8435 20.9564 0.0000 0.0000 0.0000
# 2 37.8435 68.3329 9.6896 0.0000 0.0000 0.0000
# 3 20.9564 9.6896 61.1271 0.0000 0.0000 0.0000
# 4 0.0000 0.0000 0.0000 -6.7255 0.0000 0.0000
# 5 0.0000 0.0000 0.0000 0.0000 3.1667 0.0000
# 6 0.0000 0.0000 0.0000 0.0000 0.0000 22.8857
#
#
#
# Elastic Compliance Matrix: (Units=1/GPa)
#
#
# Indices 1 2 3 4 5 6 
#
# 1 0.010603 -0.005480 -0.002766 0.000000 0.000000 0.000000
# 2 -0.005480 0.017803 -0.000943 0.000000 0.000000 0.000000
# 3 -0.002766 -0.000943 0.017457 0.000000 0.000000 0.000000
# 4 0.000000 0.000000 0.000000 -0.148687 0.000000 0.000000
# 5 0.000000 0.000000 0.000000 0.000000 0.315783 0.000000
# 6 0.000000 0.000000 0.000000 0.000000 0.000000 0.043695
#
#
# Mechanical properties :
#
#
# Convention : Reuss Voigt Hill
#
# Bulk Modulus (GPa) = 36.38491 42.86428 39.62459
# Shear Modulus (GPa) = 17.59355 15.88604 16.73979
#
# Velocity S-wave (km/s) = 2.84540 2.70380 2.77550
# Velocity P-wave (km/s) = 5.24775 5.42889 5.33909
#
# Compressibility (1/GPa) = 0.02748392
#
# Stress axis : x y z
#
# Youngs Moduli (GPa) = 94.31375 56.17111 57.28258
#
# Poissons Ratio (x) = 0.30780 0.15847
# Poissons Ratio (y) = 0.51681 0.05404
# Poissons Ratio (z) = 0.26091 0.05299
#
# Static dielectric constant tensor:
#      x y z
#    x 1.907360 0.000000 0.000000 
#    y 0.000000 1.874640 0.000000 
#    z 0.000000 0.000000 1.842430 
# 
# From -- ./inp_files/26257.got.cif
#   From: 2010.05.17/outbox.cif.g08.bks.cpg/sg21_14_cif.got.tgz:26257.got - 2010.06.03 23:14:55.
