data_PCOD9324844
_publ_section_title
;
Structure prediction by ZEFSAII (Michael W. Deem and Ramdas Pophale) SiO2 
 PCOD9324844
Probable space group: C 2 2 2
;
_chemical_formula_sum "Si O2"
_cell_formula_units_Z 38
_cell_length_a 23.289520
_cell_length_b 6.380188
_cell_length_c 11.433959
_cell_angle_alpha 90.000000
_cell_angle_beta 90.000000
_cell_angle_gamma 90.000000
_cell_volume 1698.989302
_symmetry_space_group_name_H-M "C 2 2 2"
_symmetry_group_IT_number 21
_symmetry_cell_setting 'orthorhombic'
loop_
_space_group_symop_operation_xyz
x,y,z
-x,-y,z
x,-y,-z
-x,y,-z
1/2+x,1/2+y,z
1/2-x,1/2-y,z
1/2+x,1/2-y,-z
1/2-x,1/2+y,-z
loop_
_atom_site_type_symbol
_atom_site_label
_atom_site_fract_x
_atom_site_fract_y
_atom_site_fract_z
Si Si1 0.750000 0.750000 0.954886
Si Si2 0.791433 0.422179 0.619159
Si Si3 0.932041 0.518724 0.135928
Si Si4 0.399493 0.323084 0.340399
Si Si5 0.657114 0.716942 0.767346
Si Si6 0.500000 0.500000 0.500000
O O1 0.693627 0.679236 0.883188
O O2 0.766504 0.500000 0.000000
O O3 0.763264 0.500000 0.500000
O O4 0.750000 0.250000 0.675975
O O5 0.854145 0.325602 0.593925
O O6 0.803746 0.615889 0.700723
O O7 0.913603 0.718923 0.213899
O O8 0.902401 0.325877 0.199826
O O9 0.000000 0.500000 0.140719
O O10 0.914766 0.500000 0.000000
O O11 0.361431 0.526355 0.312990
O O12 0.456355 0.369996 0.415922
#
# Coordination Sequence:
#
# PCOD9324844 Si02
#       6
#     4   8   8   8   8   2
#     4  12  30  46  78 116 156 208 260 336 406 484
#     4  11  26  42  68  99 138 188 245 307 386 470
#     4  10  23  43  69 102 140 191 253 313 388 461
#     4  11  25  44  70 101 146 195 249 325 387 480
#     4  11  25  45  70 101 145 196 250 322 390 478
#     4  12  24  44  74 110 148 198 264 324 418 464
#
# _framework density 22.366240000000001
#
# number of rings (size 3 to 8) (size 9 to 14) (size 15 to 20)
#    0.000    1.053    0.000    4.421   16.211    1.684 
#    0.000    6.316    0.000    0.000    0.000    0.000 
#    0.000    0.000    0.000    0.000    0.000    0.000 
#
# Total GULP energy -105946.746864 kJ/mol
# GULP energy per Si atom -5576.144572 kJ/mol
# Density = 2.231533 g / cm^3
# Si number density = 22.366240 Si / 1000 Ang^3
#
#
#
# Elastic Constant Matrix: (Units=GPa)
#
#
# Indices 1 2 3 4 5 6 
#
# 1 117.6693 42.4715 23.5020 0.0000 0.0000 0.0000
# 2 42.4715 114.5522 51.0065 0.0000 0.0000 0.0000
# 3 23.5020 51.0065 85.2327 0.0000 0.0000 0.0000
# 4 0.0000 0.0000 0.0000 25.9736 0.0000 0.0000
# 5 0.0000 0.0000 0.0000 0.0000 36.0984 0.0000
# 6 0.0000 0.0000 0.0000 0.0000 0.0000 44.4094
#
#
#
# Elastic Compliance Matrix: (Units=1/GPa)
#
#
# Indices 1 2 3 4 5 6 
#
# 1 0.009844 -0.003328 -0.000723 0.000000 0.000000 0.000000
# 2 -0.003328 0.013026 -0.006878 0.000000 0.000000 0.000000
# 3 -0.000723 -0.006878 0.016048 0.000000 0.000000 0.000000
# 4 0.000000 0.000000 0.000000 0.038501 0.000000 0.000000
# 5 0.000000 0.000000 0.000000 0.000000 0.027702 0.000000
# 6 0.000000 0.000000 0.000000 0.000000 0.000000 0.022518
#
#
# Mechanical properties :
#
#
# Convention : Reuss Voigt Hill
#
# Bulk Modulus (GPa) = 58.61334 61.26823 59.94079
# Shear Modulus (GPa) = 32.22037 34.66124 33.44081
#
# Velocity S-wave (km/s) = 3.79962 3.94091 3.87091
# Velocity P-wave (km/s) = 6.74630 6.93976 6.84371
#
# Compressibility (1/GPa) = 0.01706096
#
# Stress axis : x y z
#
# Youngs Moduli (GPa) = 101.58543 76.77039 62.31434
#
# Poissons Ratio (x) = 0.25548 0.04504
# Poissons Ratio (y) = 0.33807 0.42857
# Poissons Ratio (z) = 0.07343 0.52799
#
# Static dielectric constant tensor:
#      x y z
#    x 1.820800 0.000000 0.000000 
#    y 0.000000 1.909310 0.000000 
#    z 0.000000 0.000000 1.900190 
# 
# From -- ./inp_files/27649.got.cif
#   From: 2010.05.17/outbox.cif.g08.bks.cpg/sg21_14_cif.got.tgz:27649.got - 2010.06.03 23:14:55.
