data_PCOD9324777
_publ_section_title
;
Structure prediction by ZEFSAII (Michael W. Deem and Ramdas Pophale) SiO2 
 PCOD9324777
Probable space group: C 2 2 2
;
_chemical_formula_sum "Si O2"
_cell_formula_units_Z 48
_cell_length_a 9.924405
_cell_length_b 16.029388
_cell_length_c 11.983961
_cell_angle_alpha 90.000000
_cell_angle_beta 90.000000
_cell_angle_gamma 90.000000
_cell_volume 1906.434143
_symmetry_space_group_name_H-M "C 2 2 2"
_symmetry_group_IT_number 21
_symmetry_cell_setting 'orthorhombic'
loop_
_space_group_symop_operation_xyz
x,y,z
-x,-y,z
x,-y,-z
-x,y,-z
1/2+x,1/2+y,z
1/2-x,1/2-y,z
1/2+x,1/2-y,-z
1/2-x,1/2+y,-z
loop_
_atom_site_type_symbol
_atom_site_label
_atom_site_fract_x
_atom_site_fract_y
_atom_site_fract_z
Si Si1 0.514287 0.314083 0.685600
Si Si2 0.579999 0.917353 0.854685
Si Si3 0.869808 0.050393 0.177733
Si Si4 0.402131 0.750830 0.911499
Si Si5 0.707360 0.440653 0.609275
Si Si6 0.493304 0.869363 0.624973
O O1 0.404480 0.364877 0.755463
O O2 0.609861 0.289945 0.790140
O O3 0.589789 0.372457 0.598327
O O4 0.469489 0.227734 0.631583
O O5 0.734997 0.928197 0.892505
O O6 0.488603 0.836837 0.888268
O O7 0.581076 0.913044 0.719204
O O8 0.500000 0.000000 0.884308
O O9 0.832150 0.990206 0.280249
O O10 0.000000 0.000000 0.128183
O O11 0.250000 0.750000 0.957505
O O12 0.500000 0.704724 0.000000
O O13 0.718997 0.500000 0.500000
O O14 0.837818 0.388286 0.645717
O O15 0.500000 0.901369 0.500000
#
# Coordination Sequence:
#
# PCOD9324777 Si02
#       6
#     8   8   8   8   8   8
#     4  10  24  44  67  99 148 186 238 308 371 422
#     4  11  23  45  74 101 149 190 244 309 374 441
#     4  10  23  39  69 101 140 193 238 297 362 430
#     4  11  27  48  79 109 142 189 246 308 384 451
#     4  11  22  39  66 100 145 197 244 291 357 441
#     4  11  23  37  62  98 141 195 248 288 360 436
#
# _framework density 25.177894999999999
#
# number of rings (size 3 to 8) (size 9 to 14) (size 15 to 20)
#    0.000    1.333    1.667    3.500    7.000    4.667 
#    3.000    0.000    0.000    4.500    0.000    0.000 
#    0.000    0.000    0.000    0.000    0.000    0.000 
#
# Total GULP energy -134018.786676 kJ/mol
# GULP energy per Si atom -5584.116112 kJ/mol
# Density = 2.512059 g / cm^3
# Si number density = 25.177895 Si / 1000 Ang^3
#
#
#
# Elastic Constant Matrix: (Units=GPa)
#
#
# Indices 1 2 3 4 5 6 
#
# 1 184.8613 44.6357 20.8503 0.0000 0.0000 0.0000
# 2 44.6357 132.8696 10.5159 0.0000 0.0000 0.0000
# 3 20.8503 10.5159 91.0006 0.0000 0.0000 0.0000
# 4 0.0000 0.0000 0.0000 8.3077 0.0000 0.0000
# 5 0.0000 0.0000 0.0000 0.0000 10.9002 0.0000
# 6 0.0000 0.0000 0.0000 0.0000 0.0000 15.7392
#
#
#
# Elastic Compliance Matrix: (Units=1/GPa)
#
#
# Indices 1 2 3 4 5 6 
#
# 1 0.006005 -0.001926 -0.001153 0.000000 0.000000 0.000000
# 2 -0.001926 0.008213 -0.000508 0.000000 0.000000 0.000000
# 3 -0.001153 -0.000508 0.011312 0.000000 0.000000 0.000000
# 4 0.000000 0.000000 0.000000 0.120370 0.000000 0.000000
# 5 0.000000 0.000000 0.000000 0.000000 0.091742 0.000000
# 6 0.000000 0.000000 0.000000 0.000000 0.000000 0.063536
#
#
# Mechanical properties :
#
#
# Convention : Reuss Voigt Hill
#
# Bulk Modulus (GPa) = 54.47865 62.30393 58.39129
# Shear Modulus (GPa) = 15.89978 29.17138 22.53558
#
# Velocity S-wave (km/s) = 2.51569 3.40753 2.99499
# Velocity P-wave (km/s) = 5.48842 6.34672 5.93311
#
# Compressibility (1/GPa) = 0.01835582
#
# Stress axis : x y z
#
# Youngs Moduli (GPa) = 166.54052 121.75314 88.40283
#
# Poissons Ratio (x) = 0.23448 0.10195
# Poissons Ratio (y) = 0.32074 0.04490
# Poissons Ratio (z) = 0.19206 0.06183
#
# Static dielectric constant tensor:
#      x y z
#    x 1.514480 0.000000 0.000000 
#    y 0.000000 2.198170 0.000000 
#    z 0.000000 0.000000 2.022550 
# 
# From -- ./inp_files/30480.got.cif
#   From: 2010.05.17/outbox.cif.g08.bks.cpg/sg21_16_cif.got.tgz:30480.got - 2010.06.03 23:14:55.
