data_PCOD9324011
_publ_section_title
;
Structure prediction by ZEFSAII (Michael W. Deem and Ramdas Pophale) SiO2 
 PCOD9324011
Probable space group: C 2 2 2
;
_chemical_formula_sum "Si O2"
_cell_formula_units_Z 40
_cell_length_a 8.311078
_cell_length_b 28.155526
_cell_length_c 7.951528
_cell_angle_alpha 90.000000
_cell_angle_beta 90.000000
_cell_angle_gamma 90.000000
_cell_volume 1860.679599
_symmetry_space_group_name_H-M "C 2 2 2"
_symmetry_group_IT_number 21
_symmetry_cell_setting 'orthorhombic'
loop_
_space_group_symop_operation_xyz
x,y,z
-x,-y,z
x,-y,-z
-x,y,-z
1/2+x,1/2+y,z
1/2-x,1/2-y,z
1/2+x,1/2-y,-z
1/2-x,1/2+y,-z
loop_
_atom_site_type_symbol
_atom_site_label
_atom_site_fract_x
_atom_site_fract_y
_atom_site_fract_z
Si Si1 0.696142 0.445782 0.996716
Si Si2 0.369861 0.788851 0.123790
Si Si3 0.192786 0.123406 0.703378
Si Si4 0.693147 0.621697 0.310300
Si Si5 0.121328 0.286629 0.365039
O O1 0.743009 0.417386 0.827235
O O2 0.753184 0.500000 0.000000
O O3 0.500000 0.446798 0.000000
O O4 0.743589 0.417052 0.164151
O O5 0.250000 0.750000 0.047799
O O6 0.273398 0.828441 0.226888
O O7 0.494188 0.760699 0.244823
O O8 0.500000 0.811973 0.000000
O O9 0.228567 0.111585 0.507886
O O10 0.998873 0.128201 0.709053
O O11 0.781313 0.671432 0.277692
O O12 0.250000 0.250000 0.436962
O O13 0.000000 0.308313 0.500000
#
# Coordination Sequence:
#
# PCOD9324011 Si02
#       5
#     8   8   8   8   8
#     4   9  19  37  62  95 129 163 213 277 336 392
#     4  12  25  41  60  91 128 175 225 273 328 396
#     4  10  21  38  63  93 128 171 220 269 331 394
#     4  10  21  38  64  94 129 172 216 273 331 396
#     4  12  24  38  61  90 127 172 215 270 323 392
#
# _framework density 21.497522
#
# number of rings (size 3 to 8) (size 9 to 14) (size 15 to 20)
#    0.000    1.400    2.000    3.600    2.800    3.200 
#    0.000    4.000    0.000    5.400    0.000    0.000 
#    0.000    0.000    0.000    0.000    0.000    0.000 
#
# Total GULP energy -111552.530214 kJ/mol
# GULP energy per Si atom -5577.626511 kJ/mol
# Density = 2.144859 g / cm^3
# Si number density = 21.497522 Si / 1000 Ang^3
#
#
#
# Elastic Constant Matrix: (Units=GPa)
#
#
# Indices 1 2 3 4 5 6 
#
# 1 63.3154 52.6807 53.5590 0.0000 0.0000 0.0000
# 2 52.6807 155.4998 79.7428 0.0000 0.0000 0.0000
# 3 53.5590 79.7428 145.3242 0.0000 0.0000 0.0000
# 4 0.0000 0.0000 0.0000 27.1373 0.0000 0.0000
# 5 0.0000 0.0000 0.0000 0.0000 39.0691 0.0000
# 6 0.0000 0.0000 0.0000 0.0000 0.0000 19.6834
#
#
#
# Elastic Compliance Matrix: (Units=1/GPa)
#
#
# Indices 1 2 3 4 5 6 
#
# 1 0.025825 -0.005383 -0.006564 0.000000 0.000000 0.000000
# 2 -0.005383 0.010071 -0.003542 0.000000 0.000000 0.000000
# 3 -0.006564 -0.003542 0.011244 0.000000 0.000000 0.000000
# 4 0.000000 0.000000 0.000000 0.036850 0.000000 0.000000
# 5 0.000000 0.000000 0.000000 0.000000 0.025596 0.000000
# 6 0.000000 0.000000 0.000000 0.000000 0.000000 0.050804
#
#
# Mechanical properties :
#
#
# Convention : Reuss Voigt Hill
#
# Bulk Modulus (GPa) = 61.87469 81.78937 71.83203
# Shear Modulus (GPa) = 25.41209 29.05508 27.23358
#
# Velocity S-wave (km/s) = 3.44189 3.68034 3.56311
# Velocity P-wave (km/s) = 6.68133 7.49589 7.10030
#
# Compressibility (1/GPa) = 0.01616170
#
# Stress axis : x y z
#
# Youngs Moduli (GPa) = 38.72144 99.29364 88.93516
#
# Poissons Ratio (x) = 0.53450 0.58378
# Poissons Ratio (y) = 0.20844 0.31504
# Poissons Ratio (z) = 0.25417 0.35173
#
# Static dielectric constant tensor:
#      x y z
#    x 1.772740 0.000000 0.000000 
#    y 0.000000 1.710440 0.000000 
#    z 0.000000 0.000000 1.935040 
# 
# From -- ./inp_files/10965.got.cif
#   From: 2010.05.17/outbox.cif.g08.bks.cpg/sg21_6_cif.got.tgz:10965.got - 2010.06.03 23:14:55.
