data_PCOD9324344
_publ_section_title
;
Structure prediction by ZEFSAII (Michael W. Deem and Ramdas Pophale) SiO2 
 PCOD9324344
Probable space group: C 2 2 2
;
_chemical_formula_sum "Si O2"
_cell_formula_units_Z 48
_cell_length_a 5.296101
_cell_length_b 15.126901
_cell_length_c 27.338410
_cell_angle_alpha 90.000000
_cell_angle_beta 90.000000
_cell_angle_gamma 90.000000
_cell_volume 2190.178321
_symmetry_space_group_name_H-M "C 2 2 2"
_symmetry_group_IT_number 21
_symmetry_cell_setting 'orthorhombic'
loop_
_space_group_symop_operation_xyz
x,y,z
-x,-y,z
x,-y,-z
-x,y,-z
1/2+x,1/2+y,z
1/2-x,1/2-y,z
1/2+x,1/2-y,-z
1/2-x,1/2+y,-z
loop_
_atom_site_type_symbol
_atom_site_label
_atom_site_fract_x
_atom_site_fract_y
_atom_site_fract_z
Si Si1 0.104082 0.159863 0.103763
Si Si2 0.000000 0.811710 0.000000
Si Si3 0.616227 0.164795 0.736756
Si Si4 0.000000 0.000000 0.394599
Si Si5 0.750119 0.447712 0.815900
Si Si6 0.000280 0.195624 0.559133
Si Si7 0.750000 0.750000 0.818039
Si Si8 0.000000 0.500000 0.670836
O O1 0.250000 0.250000 0.094288
O O2 0.300983 0.100331 0.133030
O O3 0.015169 0.132323 0.050249
O O4 0.894566 0.184540 0.144588
O O5 0.250000 0.750000 0.006429
O O6 0.750000 0.250000 0.712917
O O7 0.819939 0.112055 0.769137
O O8 0.435387 0.199444 0.780502
O O9 0.497185 0.091811 0.701599
O O10 0.249615 0.002016 0.361603
O O11 0.997278 0.093347 0.423849
O O12 0.500000 0.500000 0.826907
O O13 0.000000 0.500000 0.801751
O O14 0.250000 0.250000 0.575395
O O15 0.000000 0.195031 0.500000
O O16 0.750000 0.250000 0.575068
#
# Coordination Sequence:
#
# PCOD9324344 Si02
#       8
#     8   4   8   4   8   8   4   4
#     4  11  22  39  65  97 124 164 211 270 346 416
#     4  10  22  36  63  96 131 154 202 264 332 435
#     4  12  27  43  69  97 129 181 238 302 341 412
#     4  12  27  50  70 106 156 206 234 305 362 444
#     4  12  25  41  68  95 128 165 219 286 337 401
#     4  10  22  44  80 117 149 194 254 307 356 422
#     4  12  20  42  70  96 124 166 238 286 342 406
#     4  12  32  46  67 100 150 191 248 284 370 416
#
# _framework density 21.916025999999999
#
# number of rings (size 3 to 8) (size 9 to 14) (size 15 to 20)
#    0.000    0.667    5.000    2.250    3.500    2.000 
#    0.000    3.750    0.000    3.000    0.000    0.000 
#    0.000    0.000    0.000    0.000    0.000    0.000 
#
# Total GULP energy -133955.186329 kJ/mol
# GULP energy per Si atom -5581.466097 kJ/mol
# Density = 2.186614 g / cm^3
# Si number density = 21.916026 Si / 1000 Ang^3
#
#
#
# Elastic Constant Matrix: (Units=GPa)
#
#
# Indices 1 2 3 4 5 6 
#
# 1 109.8675 38.0574 40.5668 0.0000 0.0000 0.0000
# 2 38.0574 139.0115 45.6624 0.0000 0.0000 0.0000
# 3 40.5668 45.6624 75.4217 0.0000 0.0000 0.0000
# 4 0.0000 0.0000 0.0000 17.8413 0.0000 0.0000
# 5 0.0000 0.0000 0.0000 0.0000 29.5872 0.0000
# 6 0.0000 0.0000 0.0000 0.0000 0.0000 31.8045
#
#
#
# Elastic Compliance Matrix: (Units=1/GPa)
#
#
# Indices 1 2 3 4 5 6 
#
# 1 0.011572 -0.001403 -0.005375 0.000000 0.000000 0.000000
# 2 -0.001403 0.009149 -0.004785 0.000000 0.000000 0.000000
# 3 -0.005375 -0.004785 0.019047 0.000000 0.000000 0.000000
# 4 0.000000 0.000000 0.000000 0.056050 0.000000 0.000000
# 5 0.000000 0.000000 0.000000 0.000000 0.033798 0.000000
# 6 0.000000 0.000000 0.000000 0.000000 0.000000 0.031442
#
#
# Mechanical properties :
#
#
# Convention : Reuss Voigt Hill
#
# Bulk Modulus (GPa) = 60.08448 63.65264 61.86856
# Shear Modulus (GPa) = 26.35296 29.18088 27.76692
#
# Velocity S-wave (km/s) = 3.47140 3.65291 3.56331
# Velocity P-wave (km/s) = 6.59870 6.84826 6.72463
#
# Compressibility (1/GPa) = 0.01664323
#
# Stress axis : x y z
#
# Youngs Moduli (GPa) = 86.41219 109.29718 52.50201
#
# Poissons Ratio (x) = 0.15329 0.28221
# Poissons Ratio (y) = 0.12120 0.25122
# Poissons Ratio (z) = 0.46449 0.52298
#
# Static dielectric constant tensor:
#      x y z
#    x 1.822260 0.000000 0.000000 
#    y 0.000000 1.944190 0.000000 
#    z 0.000000 0.000000 1.801760 
# 
# From -- ./inp_files/39105.got.cif
#   From: 2010.05.17/outbox.cif.g08.bks.cpg/sg21_20_cif.got.tgz:39105.got - 2010.06.03 23:14:55.
