data_PCOD9324550
_publ_section_title
;
Structure prediction by ZEFSAII (Michael W. Deem and Ramdas Pophale) SiO2 
 PCOD9324550
Probable space group: C 2 2 2
;
_chemical_formula_sum "Si O2"
_cell_formula_units_Z 56
_cell_length_a 14.164266
_cell_length_b 14.307243
_cell_length_c 12.363483
_cell_angle_alpha 90.000000
_cell_angle_beta 90.000000
_cell_angle_gamma 90.000000
_cell_volume 2505.479557
_symmetry_space_group_name_H-M "C 2 2 2"
_symmetry_group_IT_number 21
_symmetry_cell_setting 'orthorhombic'
loop_
_space_group_symop_operation_xyz
x,y,z
-x,-y,z
x,-y,-z
-x,y,-z
1/2+x,1/2+y,z
1/2-x,1/2-y,z
1/2+x,1/2-y,-z
1/2-x,1/2+y,-z
loop_
_atom_site_type_symbol
_atom_site_label
_atom_site_fract_x
_atom_site_fract_y
_atom_site_fract_z
Si Si1 0.327717 0.178029 0.580824
Si Si2 0.213212 0.854092 0.982703
Si Si3 0.389332 0.476102 0.853060
Si Si4 0.808269 0.332687 0.667039
Si Si5 0.584517 0.902042 0.939347
Si Si6 0.313711 0.488811 0.618284
Si Si7 0.493072 0.898318 0.296889
O O1 0.250000 0.250000 0.624552
O O2 0.341073 0.196938 0.453808
O O3 0.428846 0.172413 0.636080
O O4 0.274554 0.080110 0.597763
O O5 0.250000 0.750000 0.943304
O O6 0.177819 0.934830 0.895199
O O7 0.136777 0.882862 0.076895
O O8 0.309495 0.872435 0.047362
O O9 0.500000 0.500000 0.869073
O O10 0.371064 0.459817 0.725054
O O11 0.750000 0.250000 0.717481
O O12 0.734666 0.414454 0.648715
O O13 0.902025 0.363564 0.726887
O O14 0.559505 0.912754 0.815450
O O15 0.500000 0.846048 0.000000
O O16 0.586807 0.000000 0.000000
O O17 0.362568 0.500000 0.500000
O O18 0.500000 0.000000 0.353316
#
# Coordination Sequence:
#
# PCOD9324550 Si02
#       7
#     8   8   8   8   8   8   8
#     4  10  22  41  66 100 140 179 229 288 343 405
#     4  11  25  46  74 100 138 184 238 289 357 424
#     4  11  25  47  75 101 143 189 235 293 351 422
#     4  10  23  42  64 100 143 180 227 288 344 406
#     4  11  23  40  63  97 135 170 214 290 354 400
#     4  10  22  42  70 100 142 193 238 287 352 419
#     4  12  22  37  73 100 129 179 237 283 345 414
#
# _framework density 22.351011
#
# number of rings (size 3 to 8) (size 9 to 14) (size 15 to 20)
#    0.000    1.286    4.286    2.143    2.000    4.857 
#    5.143    0.000    0.000    0.000    0.000    0.000 
#    0.000    0.000    0.000    0.000    0.000    0.000 
#
# Total GULP energy -155918.178457 kJ/mol
# GULP energy per Si atom -5568.506373 kJ/mol
# Density = 2.230014 g / cm^3
# Si number density = 22.351011 Si / 1000 Ang^3
#
#
#
# Elastic Constant Matrix: (Units=GPa)
#
#
# Indices 1 2 3 4 5 6 
#
# 1 110.9360 19.8683 29.2767 0.0000 0.0000 0.0000
# 2 19.8683 93.4680 7.7876 0.0000 0.0000 0.0000
# 3 29.2767 7.7876 142.6137 0.0000 0.0000 0.0000
# 4 0.0000 0.0000 0.0000 12.2014 0.0000 0.0000
# 5 0.0000 0.0000 0.0000 0.0000 -94.9424 0.0000
# 6 0.0000 0.0000 0.0000 0.0000 0.0000 12.6828
#
#
#
# Elastic Compliance Matrix: (Units=1/GPa)
#
#
# Indices 1 2 3 4 5 6 
#
# 1 0.009868 -0.001938 -0.001920 0.000000 0.000000 0.000000
# 2 -0.001938 0.011128 -0.000210 0.000000 0.000000 0.000000
# 3 -0.001920 -0.000210 0.007418 0.000000 0.000000 0.000000
# 4 0.000000 0.000000 0.000000 0.081958 0.000000 0.000000
# 5 0.000000 0.000000 0.000000 0.000000 -0.010533 0.000000
# 6 0.000000 0.000000 0.000000 0.000000 0.000000 0.078847
#
#
# Mechanical properties :
#
#
# Convention : Reuss Voigt Hill
#
# Bulk Modulus (GPa) = 49.31277 51.20921 50.26099
# Shear Modulus (GPa) = 25.82909 5.32738 15.57823
#
# Velocity S-wave (km/s) = 3.40312 1.54554 2.64290
# Velocity P-wave (km/s) = 6.12800 5.11332 5.64351
#
# Compressibility (1/GPa) = 0.02027872
#
# Stress axis : x y z
#
# Youngs Moduli (GPa) = 101.33855 89.86167 134.81542
#
# Poissons Ratio (x) = 0.17412 0.25884
# Poissons Ratio (y) = 0.19636 0.02830
# Poissons Ratio (z) = 0.19456 0.01886
#
# Static dielectric constant tensor:
#      x y z
#    x 1.863840 0.000000 0.000000 
#    y 0.000000 2.433890 0.000000 
#    z 0.000000 0.000000 1.883230 
# 
# From -- ./inp_files/25278.got.cif
#   From: 2010.05.17/outbox.cif.g08.bks.cpg/sg21_13_cif.got.tgz:25278.got - 2010.06.03 23:14:55.
