data_PCOD9324243
_publ_section_title
;
Structure prediction by ZEFSAII (Michael W. Deem and Ramdas Pophale) SiO2 
 PCOD9324243
Probable space group: C 2 2 2
;
_chemical_formula_sum "Si O2"
_cell_formula_units_Z 46
_cell_length_a 23.193880
_cell_length_b 5.289572
_cell_length_c 18.568666
_cell_angle_alpha 90.000000
_cell_angle_beta 90.000000
_cell_angle_gamma 90.000000
_cell_volume 2278.109753
_symmetry_space_group_name_H-M "C 2 2 2"
_symmetry_group_IT_number 21
_symmetry_cell_setting 'orthorhombic'
loop_
_space_group_symop_operation_xyz
x,y,z
-x,-y,z
x,-y,-z
-x,y,-z
1/2+x,1/2+y,z
1/2-x,1/2-y,z
1/2+x,1/2-y,-z
1/2-x,1/2+y,-z
loop_
_atom_site_type_symbol
_atom_site_label
_atom_site_fract_x
_atom_site_fract_y
_atom_site_fract_z
Si Si1 0.922023 0.353893 0.073758
Si Si2 0.250000 0.250000 0.197663
Si Si3 0.500000 0.500000 0.000000
Si Si4 0.142328 0.009587 0.277451
Si Si5 0.567977 0.002451 0.233985
Si Si6 0.795411 0.566275 0.919186
Si Si7 0.711277 0.499224 0.415860
O O1 0.935010 0.496715 0.146826
O O2 0.855106 0.297443 0.072640
O O3 0.935874 0.500000 0.000000
O O4 0.956475 0.106743 0.059622
O O5 0.207464 0.067588 0.244259
O O6 0.202655 0.348482 0.139143
O O7 0.102366 0.253595 0.260294
O O8 0.157558 0.993296 0.361882
O O9 0.107193 0.754710 0.253064
O O10 0.500000 0.000000 0.258587
O O11 0.750000 0.750000 0.885187
O O12 0.776442 0.500000 0.000000
O O13 0.694340 0.500000 0.500000
O O14 0.750000 0.750000 0.403375
O O15 0.750000 0.250000 0.402919
#
# Coordination Sequence:
#
# PCOD9324243 Si02
#       7
#     8   4   2   8   8   8   8
#     4  11  26  43  62  90 121 172 238 301 349 392
#     4  12  24  40  64  96 132 172 214 282 352 416
#     4  12  26  40  68  82 120 168 244 306 350 388
#     4  12  26  43  71 102 141 177 222 285 348 413
#     4  12  27  46  67  96 136 187 238 287 342 410
#     4  11  23  38  58  87 127 171 219 271 346 418
#     4  10  21  41  73 111 147 179 216 271 344 423
#
# _framework density 20.19218
#
# number of rings (size 3 to 8) (size 9 to 14) (size 15 to 20)
#    0.000    0.696    3.478    3.913    6.087    0.000 
#    0.000    0.000    0.000    3.130    0.000    0.000 
#    0.000    0.000    0.000    0.000    0.000    0.000 
#
# Total GULP energy -128095.558870 kJ/mol
# GULP energy per Si atom -5569.372125 kJ/mol
# Density = 2.014622 g / cm^3
# Si number density = 20.192180 Si / 1000 Ang^3
#
#
#
# Elastic Constant Matrix: (Units=GPa)
#
#
# Indices 1 2 3 4 5 6 
#
# 1 89.6602 35.4614 43.5615 0.0000 0.0000 0.0000
# 2 35.4614 107.4920 46.1457 0.0000 0.0000 0.0000
# 3 43.5615 46.1457 131.0807 0.0000 0.0000 0.0000
# 4 0.0000 0.0000 0.0000 18.7337 0.0000 0.0000
# 5 0.0000 0.0000 0.0000 0.0000 14.2528 0.0000
# 6 0.0000 0.0000 0.0000 0.0000 0.0000 22.5154
#
#
#
# Elastic Compliance Matrix: (Units=1/GPa)
#
#
# Indices 1 2 3 4 5 6 
#
# 1 0.014135 -0.003118 -0.003600 0.000000 0.000000 0.000000
# 2 -0.003118 0.011647 -0.003064 0.000000 0.000000 0.000000
# 3 -0.003600 -0.003064 0.009904 0.000000 0.000000 0.000000
# 4 0.000000 0.000000 0.000000 0.053380 0.000000 0.000000
# 5 0.000000 0.000000 0.000000 0.000000 0.070161 0.000000
# 6 0.000000 0.000000 0.000000 0.000000 0.000000 0.044414
#
#
# Mechanical properties :
#
#
# Convention : Reuss Voigt Hill
#
# Bulk Modulus (GPa) = 62.02473 64.28558 63.15516
# Shear Modulus (GPa) = 21.87425 24.63801 23.25613
#
# Velocity S-wave (km/s) = 3.29493 3.49689 3.39741
# Velocity P-wave (km/s) = 6.72750 6.94336 6.83629
#
# Compressibility (1/GPa) = 0.01612260
#
# Stress axis : x y z
#
# Youngs Moduli (GPa) = 70.74442 85.85929 100.97008
#
# Poissons Ratio (x) = 0.26769 0.36349
# Poissons Ratio (y) = 0.22057 0.30938
# Poissons Ratio (z) = 0.25468 0.26308
#
# Static dielectric constant tensor:
#      x y z
#    x 1.764800 0.000000 0.000000 
#    y 0.000000 1.845730 0.000000 
#    z 0.000000 0.000000 1.729940 
# 
# From -- ./inp_files/37107.got.cif
#   From: 2010.05.17/outbox.cif.g08.bks.cpg/sg21_19_cif.got.tgz:37107.got - 2010.06.03 23:14:55.
