data_PCOD9324728
_publ_section_title
;
Structure prediction by ZEFSAII (Michael W. Deem and Ramdas Pophale) SiO2 
 PCOD9324728
Probable space group: C 2 2 2
;
_chemical_formula_sum "Si O2"
_cell_formula_units_Z 32
_cell_length_a 7.832192
_cell_length_b 16.101798
_cell_length_c 11.674222
_cell_angle_alpha 90.000000
_cell_angle_beta 90.000000
_cell_angle_gamma 90.000000
_cell_volume 1472.263845
_symmetry_space_group_name_H-M "C 2 2 2"
_symmetry_group_IT_number 21
_symmetry_cell_setting 'orthorhombic'
loop_
_space_group_symop_operation_xyz
x,y,z
-x,-y,z
x,-y,-z
-x,y,-z
1/2+x,1/2+y,z
1/2-x,1/2-y,z
1/2+x,1/2-y,-z
1/2-x,1/2+y,-z
loop_
_atom_site_type_symbol
_atom_site_label
_atom_site_fract_x
_atom_site_fract_y
_atom_site_fract_z
Si Si1 0.446622 0.756845 0.193964
Si Si2 0.500000 0.354520 0.000000
Si Si3 0.617701 0.070303 0.758054
Si Si4 0.753366 0.000000 0.000000
Si Si5 0.377931 0.328142 0.398480
O O1 0.250000 0.750000 0.160089
O O2 0.555280 0.706026 0.100928
O O3 0.505870 0.850121 0.208368
O O4 0.485853 0.711322 0.311523
O O5 0.358208 0.419209 0.959209
O O6 0.673318 0.032700 0.881354
O O7 0.765699 0.104522 0.673001
O O8 0.500000 0.000000 0.700759
O O9 0.500000 0.360131 0.500000
O O10 0.250000 0.250000 0.430108
#
# Coordination Sequence:
#
# PCOD9324728 Si02
#       5
#     8   4   8   4   8
#     4  11  24  40  68 105 140 188 246 287 360 433
#     4  11  24  38  65  98 146 190 235 288 352 431
#     4  11  24  42  69 109 149 190 239 299 363 432
#     4  11  23  42  64  98 152 194 232 294 362 426
#     4  10  22  45  76 103 138 186 250 304 356 425
#
# _framework density 21.735233999999998
#
# number of rings (size 3 to 8) (size 9 to 14) (size 15 to 20)
#    0.000    1.250    2.500    2.625    7.000    0.000 
#    0.000    0.000    0.000   76.500    0.000    0.000 
#    0.000    0.000    0.000    0.000    0.000    0.000 
#
# Total GULP energy -89263.300972 kJ/mol
# GULP energy per Si atom -5578.956311 kJ/mol
# Density = 2.168576 g / cm^3
# Si number density = 21.735234 Si / 1000 Ang^3
#
#
#
# Elastic Constant Matrix: (Units=GPa)
#
#
# Indices 1 2 3 4 5 6 
#
# 1 90.4313 63.9889 51.7358 0.0000 0.0000 0.0000
# 2 63.9889 165.0823 59.0519 0.0000 0.0000 0.0000
# 3 51.7358 59.0519 108.8222 0.0000 0.0000 0.0000
# 4 0.0000 0.0000 0.0000 15.6905 0.0000 0.0000
# 5 0.0000 0.0000 0.0000 0.0000 21.9025 0.0000
# 6 0.0000 0.0000 0.0000 0.0000 0.0000 4.3938
#
#
#
# Elastic Compliance Matrix: (Units=1/GPa)
#
#
# Indices 1 2 3 4 5 6 
#
# 1 0.017813 -0.004809 -0.005859 0.000000 0.000000 0.000000
# 2 -0.004809 0.008815 -0.002497 0.000000 0.000000 0.000000
# 3 -0.005859 -0.002497 0.013330 0.000000 0.000000 0.000000
# 4 0.000000 0.000000 0.000000 0.063733 0.000000 0.000000
# 5 0.000000 0.000000 0.000000 0.000000 0.045657 0.000000
# 6 0.000000 0.000000 0.000000 0.000000 0.000000 0.227596
#
#
# Mechanical properties :
#
#
# Convention : Reuss Voigt Hill
#
# Bulk Modulus (GPa) = 73.38073 79.32101 76.35087
# Shear Modulus (GPa) = 12.26046 21.03463 16.64755
#
# Velocity S-wave (km/s) = 2.37762 3.11427 2.77054
# Velocity P-wave (km/s) = 6.43210 7.03598 6.74080
#
# Compressibility (1/GPa) = 0.01362756
#
# Stress axis : x y z
#
# Youngs Moduli (GPa) = 56.13986 113.44579 75.01955
#
# Poissons Ratio (x) = 0.54552 0.43954
# Poissons Ratio (y) = 0.26996 0.18734
# Poissons Ratio (z) = 0.32892 0.28330
#
# Static dielectric constant tensor:
#      x y z
#    x 1.922190 0.000000 0.000000 
#    y 0.000000 1.773830 0.000000 
#    z 0.000000 0.000000 1.819250 
# 
# From -- ./inp_files/22006.got.cif
#   From: 2010.05.17/outbox.cif.g08.bks.cpg/sg21_12_cif.got.tgz:22006.got - 2010.06.03 23:14:55.
