data_PCOD9324142
_publ_section_title
;
Structure prediction by ZEFSAII (Michael W. Deem and Ramdas Pophale) SiO2 
 PCOD9324142
Probable space group: C 2 2 2
;
_chemical_formula_sum "Si O2"
_cell_formula_units_Z 60
_cell_length_a 11.627121
_cell_length_b 20.193603
_cell_length_c 11.816817
_cell_angle_alpha 90.000000
_cell_angle_beta 90.000000
_cell_angle_gamma 90.000000
_cell_volume 2774.511415
_symmetry_space_group_name_H-M "C 2 2 2"
_symmetry_group_IT_number 21
_symmetry_cell_setting 'orthorhombic'
loop_
_space_group_symop_operation_xyz
x,y,z
-x,-y,z
x,-y,-z
-x,y,-z
1/2+x,1/2+y,z
1/2-x,1/2-y,z
1/2+x,1/2-y,-z
1/2-x,1/2+y,-z
loop_
_atom_site_type_symbol
_atom_site_label
_atom_site_fract_x
_atom_site_fract_y
_atom_site_fract_z
Si Si1 0.164562 0.589923 0.851196
Si Si2 0.278914 0.676870 0.031462
Si Si3 0.873658 0.476269 0.300548
Si Si4 0.376743 0.645371 0.459312
Si Si5 0.198608 0.000000 0.500000
Si Si6 0.453491 0.307646 0.770227
Si Si7 0.931287 0.344177 0.199227
Si Si8 0.207876 0.178225 0.312626
O O1 0.154214 0.512379 0.820348
O O2 0.206691 0.623992 0.735663
O O3 0.037816 0.621335 0.866639
O O4 0.254652 0.617799 0.943029
O O5 0.250000 0.750000 0.979913
O O6 0.396378 0.677843 0.106359
O O7 0.176188 0.668467 0.119554
O O8 0.779823 0.497640 0.390467
O O9 0.887644 0.397764 0.289197
O O10 0.000000 0.500000 0.334818
O O11 0.500000 0.672168 0.500000
O O12 0.372235 0.567209 0.485360
O O13 0.370260 0.663692 0.327929
O O14 0.291154 0.675003 0.551485
O O15 0.464439 0.228345 0.757139
O O16 0.581023 0.334831 0.741643
O O17 0.250000 0.250000 0.276801
#
# Coordination Sequence:
#
# PCOD9324142 Si02
#       8
#     8   8   8   8   4   8   8   8
#     4  11  21  40  60  95 127 168 215 260 322 394
#     4  10  22  37  62  90 126 170 210 270 322 383
#     4  10  23  38  61  92 129 167 212 259 322 404
#     4  10  23  39  62  91 122 167 219 268 326 391
#     4  12  20  40  62  86 126 172 206 262 330 390
#     4  10  22  41  62  96 128 166 224 273 333 386
#     4  10  21  40  63  91 130 170 214 268 324 389
#     4  11  21  38  63  94 128 169 213 272 328 390
#
# _framework density 21.625427999999999
#
# number of rings (size 3 to 8) (size 9 to 14) (size 15 to 20)
#    0.000    1.600    2.667    2.000    0.000    3.733 
#    0.000    3.333    0.000    0.000    0.000    1.867 
#    0.000    0.000    0.000    0.000    0.000    0.000 
#
# Total GULP energy -167310.159290 kJ/mol
# GULP energy per Si atom -5577.005310 kJ/mol
# Density = 2.157621 g / cm^3
# Si number density = 21.625428 Si / 1000 Ang^3
#
#
#
# Elastic Constant Matrix: (Units=GPa)
#
#
# Indices 1 2 3 4 5 6 
#
# 1 63.8876 6.9696 17.1186 0.0000 0.0000 0.0000
# 2 6.9696 68.1952 8.4160 0.0000 0.0000 0.0000
# 3 17.1186 8.4160 65.6369 0.0000 0.0000 0.0000
# 4 0.0000 0.0000 0.0000 19.9702 0.0000 0.0000
# 5 0.0000 0.0000 0.0000 0.0000 31.2519 0.0000
# 6 0.0000 0.0000 0.0000 0.0000 0.0000 23.1532
#
#
#
# Elastic Compliance Matrix: (Units=1/GPa)
#
#
# Indices 1 2 3 4 5 6 
#
# 1 0.016925 -0.001204 -0.004260 0.000000 0.000000 0.000000
# 2 -0.001204 0.014985 -0.001607 0.000000 0.000000 0.000000
# 3 -0.004260 -0.001607 0.016552 0.000000 0.000000 0.000000
# 4 0.000000 0.000000 0.000000 0.050075 0.000000 0.000000
# 5 0.000000 0.000000 0.000000 0.000000 0.031998 0.000000
# 6 0.000000 0.000000 0.000000 0.000000 0.000000 0.043191
#
#
# Mechanical properties :
#
#
# Convention : Reuss Voigt Hill
#
# Bulk Modulus (GPa) = 29.13726 29.19201 29.16464
# Shear Modulus (GPa) = 25.08668 25.88942 25.48805
#
# Velocity S-wave (km/s) = 3.40965 3.46378 3.43682
# Velocity P-wave (km/s) = 5.38552 5.43371 5.40967
#
# Compressibility (1/GPa) = 0.03432031
#
# Stress axis : x y z
#
# Youngs Moduli (GPa) = 59.08326 66.73244 60.41411
#
# Poissons Ratio (x) = 0.08035 0.25736
# Poissons Ratio (y) = 0.07114 0.09711
# Poissons Ratio (z) = 0.25169 0.10727
#
# Static dielectric constant tensor:
#      x y z
#    x 1.794840 0.000000 0.000000 
#    y 0.000000 1.664700 0.000000 
#    z 0.000000 0.000000 1.834390 
# 
# From -- ./inp_files/24288.got.cif
#   From: 2010.05.17/outbox.cif.g08.bks.cpg/sg21_13_cif.got.tgz:24288.got - 2010.06.03 23:14:55.
