data_PCOD9324858
_publ_section_title
;
Structure prediction by ZEFSAII (Michael W. Deem and Ramdas Pophale) SiO2 
 PCOD9324858
Probable space group: C 2 2 2
;
_chemical_formula_sum "Si O2"
_cell_formula_units_Z 40
_cell_length_a 13.187541
_cell_length_b 15.271252
_cell_length_c 8.840665
_cell_angle_alpha 90.000000
_cell_angle_beta 90.000000
_cell_angle_gamma 90.000000
_cell_volume 1780.423839
_symmetry_space_group_name_H-M "C 2 2 2"
_symmetry_group_IT_number 21
_symmetry_cell_setting 'orthorhombic'
loop_
_space_group_symop_operation_xyz
x,y,z
-x,-y,z
x,-y,-z
-x,y,-z
1/2+x,1/2+y,z
1/2-x,1/2-y,z
1/2+x,1/2-y,-z
1/2-x,1/2+y,-z
loop_
_atom_site_type_symbol
_atom_site_label
_atom_site_fract_x
_atom_site_fract_y
_atom_site_fract_z
Si Si1 0.832174 0.150929 0.752685
Si Si2 0.208728 0.031578 0.673990
Si Si3 0.099310 0.369077 0.776510
Si Si4 0.392901 0.176962 0.129646
Si Si5 0.111941 0.200826 0.570877
O O1 0.719832 0.157025 0.818336
O O2 0.906178 0.219188 0.836104
O O3 0.825275 0.184650 0.581026
O O4 0.852228 0.047743 0.751420
O O5 0.319376 0.055120 0.742716
O O6 0.142357 0.119677 0.676176
O O7 0.223069 0.000000 0.500000
O O8 0.125655 0.290974 0.660101
O O9 0.976400 0.378028 0.775190
O O10 0.107549 0.340556 0.951497
O O11 0.000000 0.195572 0.500000
#
# Coordination Sequence:
#
# PCOD9324858 Si02
#       5
#     8   8   8   8   8
#     4  10  23  44  64  96 135 177 219 288 339 399
#     4  10  25  40  67 103 136 174 233 289 343 397
#     4  11  24  44  70 101 132 186 231 277 345 426
#     4  10  24  44  68  97 138 179 227 280 353 415
#     4  11  23  42  69  96 133 183 234 282 342 413
#
# _framework density 22.466560000000001
#
# number of rings (size 3 to 8) (size 9 to 14) (size 15 to 20)
#    0.000    1.600    2.000    0.600   16.800    5.200 
#    0.000    5.000    0.000    2.400    0.000    0.000 
#    0.000    0.000    0.000    0.000    0.000    0.000 
#
# Total GULP energy -111579.979348 kJ/mol
# GULP energy per Si atom -5578.998967 kJ/mol
# Density = 2.241543 g / cm^3
# Si number density = 22.466560 Si / 1000 Ang^3
#
#
#
# Elastic Constant Matrix: (Units=GPa)
#
#
# Indices 1 2 3 4 5 6 
#
# 1 37.8367 9.2519 1.9477 0.0000 0.0000 0.0000
# 2 9.2519 71.2105 2.5904 0.0000 0.0000 0.0000
# 3 1.9477 2.5904 47.1136 0.0000 0.0000 0.0000
# 4 0.0000 0.0000 0.0000 18.1239 0.0000 0.0000
# 5 0.0000 0.0000 0.0000 0.0000 33.6691 0.0000
# 6 0.0000 0.0000 0.0000 0.0000 0.0000 27.0086
#
#
#
# Elastic Compliance Matrix: (Units=1/GPa)
#
#
# Indices 1 2 3 4 5 6 
#
# 1 0.027338 -0.003518 -0.000937 0.000000 0.000000 0.000000
# 2 -0.003518 0.014524 -0.000653 0.000000 0.000000 0.000000
# 3 -0.000937 -0.000653 0.021300 0.000000 0.000000 0.000000
# 4 0.000000 0.000000 0.000000 0.055176 0.000000 0.000000
# 5 0.000000 0.000000 0.000000 0.000000 0.029701 0.000000
# 6 0.000000 0.000000 0.000000 0.000000 0.000000 0.037025
#
#
# Mechanical properties :
#
#
# Convention : Reuss Voigt Hill
#
# Bulk Modulus (GPa) = 18.88710 20.41563 19.65137
# Shear Modulus (GPa) = 23.48223 25.25173 24.36698
#
# Velocity S-wave (km/s) = 3.23648 3.35620 3.29688
# Velocity P-wave (km/s) = 4.73195 4.91179 4.82271
#
# Compressibility (1/GPa) = 0.05294619
#
# Stress axis : x y z
#
# Youngs Moduli (GPa) = 36.57943 68.85313 46.94857
#
# Poissons Ratio (x) = 0.24221 0.04398
# Poissons Ratio (y) = 0.12868 0.03066
# Poissons Ratio (z) = 0.03427 0.04497
#
# Static dielectric constant tensor:
#      x y z
#    x 1.946600 0.000000 0.000000 
#    y 0.000000 1.913140 0.000000 
#    z 0.000000 0.000000 1.805540 
# 
# From -- ./inp_files/14515.got.cif
#   From: 2010.05.17/outbox.cif.g08.bks.cpg/sg21_8_cif.got.tgz:14515.got - 2010.06.03 23:14:55.
