data_PCOD9324326
_publ_section_title
;
Structure prediction by ZEFSAII (Michael W. Deem and Ramdas Pophale) SiO2 
 PCOD9324326
Probable space group: C 2 2 2
;
_chemical_formula_sum "Si O2"
_cell_formula_units_Z 56
_cell_length_a 13.533433
_cell_length_b 19.021635
_cell_length_c 11.005048
_cell_angle_alpha 90.000000
_cell_angle_beta 90.000000
_cell_angle_gamma 90.000000
_cell_volume 2833.007748
_symmetry_space_group_name_H-M "C 2 2 2"
_symmetry_group_IT_number 21
_symmetry_cell_setting 'orthorhombic'
loop_
_space_group_symop_operation_xyz
x,y,z
-x,-y,z
x,-y,-z
-x,y,-z
1/2+x,1/2+y,z
1/2-x,1/2-y,z
1/2+x,1/2-y,-z
1/2-x,1/2+y,-z
loop_
_atom_site_type_symbol
_atom_site_label
_atom_site_fract_x
_atom_site_fract_y
_atom_site_fract_z
Si Si1 0.414427 0.143875 0.269340
Si Si2 0.949051 0.931102 0.366944
Si Si3 0.019881 0.204664 0.201713
Si Si4 0.716873 0.961474 0.376832
Si Si5 0.581155 0.054659 0.209724
Si Si6 0.178904 0.414505 0.014924
Si Si7 0.161386 0.806403 0.031068
O O1 0.053388 0.276057 0.267780
O O2 0.332572 0.114776 0.360679
O O3 0.513096 0.099316 0.298931
O O4 0.368541 0.119526 0.136569
O O5 0.964000 0.862241 0.287037
O O6 0.833625 0.950247 0.374333
O O7 0.000000 0.921853 0.500000
O O8 0.000000 0.000000 0.310262
O O9 0.908585 0.202277 0.148247
O O10 0.091797 0.202726 0.085344
O O11 0.688809 0.000000 0.500000
O O12 0.669911 0.011963 0.272039
O O13 0.613473 0.105479 0.101921
O O14 0.500000 0.000000 0.158239
O O15 0.285475 0.381433 0.989051
O O16 0.181485 0.500000 0.000000
O O17 0.250000 0.750000 0.031720
#
# Coordination Sequence:
#
# PCOD9324326 Si02
#       7
#     8   8   8   8   8   8   8
#     4  11  23  41  66  99 140 173 218 278 344 414
#     4  11  25  49  74  91 129 178 242 287 329 400
#     4  11  26  44  68 100 135 183 224 279 347 400
#     4  11  23  42  69  96 127 177 222 285 346 394
#     4  10  22  35  63 101 132 169 214 274 334 407
#     4  12  21  35  65  98 136 178 227 259 338 407
#     4  11  24  41  64  98 144 180 216 274 338 416
#
# _framework density 19.766977000000001
#
# number of rings (size 3 to 8) (size 9 to 14) (size 15 to 20)
#    0.000    1.000    5.714    2.143    4.000    2.571 
#    2.571    1.429    0.000    0.000    0.000    0.000 
#    0.000    0.000    0.000    0.000    0.000    0.000 
#
# Total GULP energy -156138.628508 kJ/mol
# GULP energy per Si atom -5576.379590 kJ/mol
# Density = 1.972199 g / cm^3
# Si number density = 19.766977 Si / 1000 Ang^3
#
#
#
# Elastic Constant Matrix: (Units=GPa)
#
#
# Indices 1 2 3 4 5 6 
#
# 1 135.6846 49.3979 39.0211 0.0000 0.0000 0.0000
# 2 49.3979 143.8509 35.0334 0.0000 0.0000 0.0000
# 3 39.0211 35.0334 75.3847 0.0000 0.0000 0.0000
# 4 0.0000 0.0000 0.0000 21.5048 0.0000 0.0000
# 5 0.0000 0.0000 0.0000 0.0000 9.2419 0.0000
# 6 0.0000 0.0000 0.0000 0.0000 0.0000 21.1589
#
#
#
# Elastic Compliance Matrix: (Units=1/GPa)
#
#
# Indices 1 2 3 4 5 6 
#
# 1 0.009274 -0.002273 -0.003744 0.000000 0.000000 0.000000
# 2 -0.002273 0.008396 -0.002725 0.000000 0.000000 0.000000
# 3 -0.003744 -0.002725 0.016470 0.000000 0.000000 0.000000
# 4 0.000000 0.000000 0.000000 0.046501 0.000000 0.000000
# 5 0.000000 0.000000 0.000000 0.000000 0.108203 0.000000
# 6 0.000000 0.000000 0.000000 0.000000 0.000000 0.047261
#
#
# Mechanical properties :
#
#
# Convention : Reuss Voigt Hill
#
# Bulk Modulus (GPa) = 60.04161 66.86944 63.45552
# Shear Modulus (GPa) = 19.29438 25.81230 22.55334
#
# Velocity S-wave (km/s) = 3.12764 3.61755 3.38148
# Velocity P-wave (km/s) = 6.59420 7.16597 6.88602
#
# Compressibility (1/GPa) = 0.01665512
#
# Stress axis : x y z
#
# Youngs Moduli (GPa) = 107.82442 119.10636 60.71642
#
# Poissons Ratio (x) = 0.27071 0.22734
# Poissons Ratio (y) = 0.24507 0.16547
# Poissons Ratio (z) = 0.40373 0.32460
#
# Static dielectric constant tensor:
#      x y z
#    x 1.708870 0.000000 0.000000 
#    y 0.000000 1.760420 0.000000 
#    z 0.000000 0.000000 1.729610 
# 
# From -- ./inp_files/24241.got.cif
#   From: 2010.05.17/outbox.cif.g08.bks.cpg/sg21_13_cif.got.tgz:24241.got - 2010.06.03 23:14:55.
