data_PCOD9324469
_publ_section_title
;
Structure prediction by ZEFSAII (Michael W. Deem and Ramdas Pophale) SiO2 
 PCOD9324469
Probable space group: C 2 2 2
;
_chemical_formula_sum "Si O2"
_cell_formula_units_Z 56
_cell_length_a 24.995075
_cell_length_b 9.721889
_cell_length_c 13.098224
_cell_angle_alpha 90.000000
_cell_angle_beta 90.000000
_cell_angle_gamma 90.000000
_cell_volume 3182.859849
_symmetry_space_group_name_H-M "C 2 2 2"
_symmetry_group_IT_number 21
_symmetry_cell_setting 'orthorhombic'
loop_
_space_group_symop_operation_xyz
x,y,z
-x,-y,z
x,-y,-z
-x,y,-z
1/2+x,1/2+y,z
1/2-x,1/2-y,z
1/2+x,1/2-y,-z
1/2-x,1/2+y,-z
loop_
_atom_site_type_symbol
_atom_site_label
_atom_site_fract_x
_atom_site_fract_y
_atom_site_fract_z
Si Si1 0.804923 0.663537 0.121990
Si Si2 0.401715 0.219723 0.743946
Si Si3 0.695164 0.834348 0.885230
Si Si4 0.564249 0.476254 0.380142
Si Si5 0.563544 0.971338 0.383940
Si Si6 0.999130 0.333981 0.880466
Si Si7 0.597385 0.271315 0.745671
O O1 0.750000 0.750000 0.131046
O O2 0.797689 0.498381 0.135563
O O3 0.847483 0.724282 0.202287
O O4 0.823982 0.679068 0.003544
O O5 0.346770 0.228581 0.805328
O O6 0.416884 0.326275 0.655403
O O7 0.448992 0.226751 0.826393
O O8 0.405513 0.070695 0.692378
O O9 0.750000 0.750000 0.877915
O O10 0.500000 0.500000 0.368551
O O11 0.576538 0.500000 0.500000
O O12 0.593651 0.576496 0.299465
O O13 0.579339 0.819710 0.351290
O O14 0.500000 0.000000 0.372367
O O15 0.577533 0.000000 0.500000
O O16 0.000000 0.500000 0.865016
O O17 0.947819 0.265701 0.828733
O O18 0.000000 0.308927 0.000000
#
# Coordination Sequence:
#
# PCOD9324469 Si02
#       7
#     8   8   8   8   8   8   8
#     4  10  22  40  63  90 119 156 199 242 292 355
#     4  12  20  38  58  87 118 157 194 242 300 348
#     4  10  22  40  63  90 119 156 199 242 292 355
#     4  11  24  40  59  86 125 161 198 246 298 352
#     4  11  20  34  59  88 115 147 202 246 286 358
#     4  11  20  33  56  89 121 151 185 237 300 361
#     4  12  20  38  58  87 118 157 194 242 300 348
#
# _framework density 17.594241
#
# number of rings (size 3 to 8) (size 9 to 14) (size 15 to 20)
#    0.000    1.000    5.714    1.714    2.000    4.571 
#    0.000    2.857    0.000    5.143    0.000    0.000 
#    0.000    0.000    0.000    0.000    0.000    0.000 
#
# Total GULP energy -156270.221175 kJ/mol
# GULP energy per Si atom -5581.079328 kJ/mol
# Density = 1.755420 g / cm^3
# Si number density = 17.594241 Si / 1000 Ang^3
#
#
#
# Elastic Constant Matrix: (Units=GPa)
#
#
# Indices 1 2 3 4 5 6 
#
# 1 74.0371 4.6953 32.8706 0.0000 0.0000 0.0000
# 2 4.6953 35.0155 -1.2726 0.0000 0.0000 0.0000
# 3 32.8706 -1.2726 102.3151 0.0000 0.0000 0.0000
# 4 0.0000 0.0000 0.0000 72.3850 0.0000 0.0000
# 5 0.0000 0.0000 0.0000 0.0000 23.8816 0.0000
# 6 0.0000 0.0000 0.0000 0.0000 0.0000 23.9106
#
#
#
# Elastic Compliance Matrix: (Units=1/GPa)
#
#
# Indices 1 2 3 4 5 6 
#
# 1 0.015941 -0.002325 -0.005150 0.000000 0.000000 0.000000
# 2 -0.002325 0.028911 0.001106 0.000000 0.000000 0.000000
# 3 -0.005150 0.001106 0.011442 0.000000 0.000000 0.000000
# 4 0.000000 0.000000 0.000000 0.013815 0.000000 0.000000
# 5 0.000000 0.000000 0.000000 0.000000 0.041873 0.000000
# 6 0.000000 0.000000 0.000000 0.000000 0.000000 0.041822
#
#
# Mechanical properties :
#
#
# Convention : Reuss Voigt Hill
#
# Bulk Modulus (GPa) = 22.95858 31.55048 27.25453
# Shear Modulus (GPa) = 27.61518 35.70708 31.66113
#
# Velocity S-wave (km/s) = 3.96606 4.50986 4.24667
# Velocity P-wave (km/s) = 5.83525 6.71488 6.29046
#
# Compressibility (1/GPa) = 0.04355669
#
# Stress axis : x y z
#
# Youngs Moduli (GPa) = 62.73247 34.58924 87.39669
#
# Poissons Ratio (x) = 0.08041 0.45011
# Poissons Ratio (y) = 0.14583 -0.09670
# Poissons Ratio (z) = 0.32308 -0.03827
#
# Static dielectric constant tensor:
#      x y z
#    x 1.568100 0.000000 0.000000 
#    y 0.000000 1.601180 0.000000 
#    z 0.000000 0.000000 1.571240 
# 
# From -- ./inp_files/33302.got.cif
#   From: 2010.05.17/outbox.cif.g08.bks.cpg/sg21_17_cif.got.tgz:33302.got - 2010.06.03 23:14:55.
