data_PCOD9324670
_publ_section_title
;
Structure prediction by ZEFSAII (Michael W. Deem and Ramdas Pophale) SiO2 
 PCOD9324670
Probable space group: C 2 2 2
;
_chemical_formula_sum "Si O2"
_cell_formula_units_Z 22
_cell_length_a 5.960951
_cell_length_b 13.534069
_cell_length_c 10.831172
_cell_angle_alpha 90.000000
_cell_angle_beta 90.000000
_cell_angle_gamma 90.000000
_cell_volume 873.814789
_symmetry_space_group_name_H-M "C 2 2 2"
_symmetry_group_IT_number 21
_symmetry_cell_setting 'orthorhombic'
loop_
_space_group_symop_operation_xyz
x,y,z
-x,-y,z
x,-y,-z
-x,y,-z
1/2+x,1/2+y,z
1/2-x,1/2-y,z
1/2+x,1/2-y,-z
1/2-x,1/2+y,-z
loop_
_atom_site_type_symbol
_atom_site_label
_atom_site_fract_x
_atom_site_fract_y
_atom_site_fract_z
Si Si1 0.250000 0.750000 0.810446
Si Si2 0.838990 0.642789 0.853329
Si Si3 0.500000 0.500000 0.000000
Si Si4 0.440598 0.615195 0.360320
O O1 0.412872 0.685375 0.726261
O O2 0.102964 0.662841 0.875758
O O3 0.750000 0.750000 0.889570
O O4 0.803380 0.626269 0.704754
O O5 0.672896 0.564242 0.916403
O O6 0.500000 0.500000 0.351537
O O7 0.500000 0.644587 0.500000
#
# Coordination Sequence:
#
# PCOD9324670 Si02
#       4
#     4   8   2   8
#     4  10  24  44  74 112 158 198 252 340 388 474
#     4  10  24  50  75 113 153 202 272 325 398 471
#     4  12  24  56  84 102 162 230 264 334 390 470
#     4  10  22  43  73 111 152 199 254 314 396 481
#
# _framework density 25.176960999999999
#
# number of rings (size 3 to 8) (size 9 to 14) (size 15 to 20)
#    0.000    1.818    1.818    0.000    7.636    1.455 
#   13.091   14.545    0.000    0.000    0.000    0.000 
#    0.000    0.000    0.000    0.000    0.000    0.000 
#
# Total GULP energy -61361.148393 kJ/mol
# GULP energy per Si atom -5578.286218 kJ/mol
# Density = 2.511966 g / cm^3
# Si number density = 25.176961 Si / 1000 Ang^3
#
#
#
# Elastic Constant Matrix: (Units=GPa)
#
#
# Indices 1 2 3 4 5 6 
#
# 1 130.0826 56.7937 73.5329 0.0000 0.0000 0.0000
# 2 56.7937 137.4781 51.3366 0.0000 0.0000 0.0000
# 3 73.5329 51.3366 157.2358 0.0000 0.0000 0.0000
# 4 0.0000 0.0000 0.0000 48.7916 0.0000 0.0000
# 5 0.0000 0.0000 0.0000 0.0000 27.4407 0.0000
# 6 0.0000 0.0000 0.0000 0.0000 0.0000 59.0159
#
#
#
# Elastic Compliance Matrix: (Units=1/GPa)
#
#
# Indices 1 2 3 4 5 6 
#
# 1 0.011522 -0.003129 -0.004367 0.000000 0.000000 0.000000
# 2 -0.003129 0.009134 -0.001519 0.000000 0.000000 0.000000
# 3 -0.004367 -0.001519 0.008898 0.000000 0.000000 0.000000
# 4 0.000000 0.000000 0.000000 0.020495 0.000000 0.000000
# 5 0.000000 0.000000 0.000000 0.000000 0.036442 0.000000
# 6 0.000000 0.000000 0.000000 0.000000 0.000000 0.016945
#
#
# Mechanical properties :
#
#
# Convention : Reuss Voigt Hill
#
# Bulk Modulus (GPa) = 86.77315 87.56920 87.17118
# Shear Modulus (GPa) = 39.90215 43.25854 41.58035
#
# Velocity S-wave (km/s) = 3.98536 4.14959 4.06830
# Velocity P-wave (km/s) = 7.46442 7.60367 7.53437
#
# Compressibility (1/GPa) = 0.01152430
#
# Stress axis : x y z
#
# Youngs Moduli (GPa) = 86.78995 109.48434 112.38680
#
# Poissons Ratio (x) = 0.34261 0.49076
# Poissons Ratio (y) = 0.27159 0.17068
# Poissons Ratio (z) = 0.37899 0.16627
#
# Static dielectric constant tensor:
#      x y z
#    x 2.290600 0.000000 0.000000 
#    y 0.000000 1.944090 0.000000 
#    z 0.000000 0.000000 2.124410 
# 
# From -- ./inp_files/21702.got.cif
#   From: 2010.05.17/outbox.cif.g08.bks.cpg/sg21_11_cif.got.tgz:21702.got - 2010.06.03 23:14:55.
