data_PCOD9324803
_publ_section_title
;
Structure prediction by ZEFSAII (Michael W. Deem and Ramdas Pophale) SiO2 
 PCOD9324803
Probable space group: C 2 2 2
;
_chemical_formula_sum "Si O2"
_cell_formula_units_Z 48
_cell_length_a 14.610208
_cell_length_b 28.478694
_cell_length_c 5.329944
_cell_angle_alpha 90.000000
_cell_angle_beta 90.000000
_cell_angle_gamma 90.000000
_cell_volume 2217.681196
_symmetry_space_group_name_H-M "C 2 2 2"
_symmetry_group_IT_number 21
_symmetry_cell_setting 'orthorhombic'
loop_
_space_group_symop_operation_xyz
x,y,z
-x,-y,z
x,-y,-z
-x,y,-z
1/2+x,1/2+y,z
1/2-x,1/2-y,z
1/2+x,1/2-y,-z
1/2-x,1/2+y,-z
loop_
_atom_site_type_symbol
_atom_site_label
_atom_site_fract_x
_atom_site_fract_y
_atom_site_fract_z
Si Si1 0.901838 0.856248 0.610426
Si Si2 0.861587 0.449147 0.893860
Si Si3 0.100288 0.324943 0.624116
Si Si4 0.000000 0.208061 0.000000
Si Si5 0.725016 0.088077 0.412670
Si Si6 0.000000 0.622259 0.000000
Si Si7 0.847614 0.763096 0.345601
O O1 0.830750 0.898261 0.625419
O O2 0.855303 0.816372 0.437156
O O3 0.000000 0.870745 0.500000
O O4 0.929857 0.826484 0.856262
O O5 0.798046 0.446395 0.645720
O O6 0.948117 0.415827 0.826061
O O7 0.889030 0.500000 0.000000
O O8 0.812389 0.428533 0.142885
O O9 0.171411 0.363399 0.524017
O O10 0.139164 0.273575 0.573498
O O11 0.000000 0.328740 0.500000
O O12 0.078250 0.343171 0.901083
O O13 0.062108 0.240344 0.175944
O O14 0.750000 0.750000 0.227024
#
# Coordination Sequence:
#
# PCOD9324803 Si02
#       7
#     8   8   8   4   8   4   8
#     4  10  23  43  65  91 130 178 238 278 348 400
#     4  11  24  44  70 103 140 177 228 285 359 433
#     4  11  21  39  61  93 137 176 231 277 335 410
#     4  10  24  43  62  91 127 194 230 296 340 419
#     4  11  24  42  71 100 133 183 224 283 352 416
#     4  10  23  41  64  97 140 190 223 280 347 429
#     4  11  23  41  61  92 137 180 236 289 343 402
#
# _framework density 21.644227000000001
#
# number of rings (size 3 to 8) (size 9 to 14) (size 15 to 20)
#    0.000    1.333    3.333    2.250    4.667    3.333 
#    3.000    1.667    0.000    3.000    0.000    0.000 
#    0.000    0.000    0.000    0.000    0.000    0.000 
#
# Total GULP energy -133839.637161 kJ/mol
# GULP energy per Si atom -5576.651548 kJ/mol
# Density = 2.159496 g / cm^3
# Si number density = 21.644227 Si / 1000 Ang^3
#
#
#
# Elastic Constant Matrix: (Units=GPa)
#
#
# Indices 1 2 3 4 5 6 
#
# 1 99.7261 25.0980 17.6536 0.0000 0.0000 0.0000
# 2 25.0980 63.3699 17.3428 0.0000 0.0000 0.0000
# 3 17.6536 17.3428 74.7778 0.0000 0.0000 0.0000
# 4 0.0000 0.0000 0.0000 27.5588 0.0000 0.0000
# 5 0.0000 0.0000 0.0000 0.0000 13.4864 0.0000
# 6 0.0000 0.0000 0.0000 0.0000 0.0000 27.2367
#
#
#
# Elastic Compliance Matrix: (Units=1/GPa)
#
#
# Indices 1 2 3 4 5 6 
#
# 1 0.011348 -0.004016 -0.001748 0.000000 0.000000 0.000000
# 2 -0.004016 0.018271 -0.003289 0.000000 0.000000 0.000000
# 3 -0.001748 -0.003289 0.014548 0.000000 0.000000 0.000000
# 4 0.000000 0.000000 0.000000 0.036286 0.000000 0.000000
# 5 0.000000 0.000000 0.000000 0.000000 0.074149 0.000000
# 6 0.000000 0.000000 0.000000 0.000000 0.000000 0.036715
#
#
# Mechanical properties :
#
#
# Convention : Reuss Voigt Hill
#
# Bulk Modulus (GPa) = 38.37123 39.78474 39.07798
# Shear Modulus (GPa) = 22.92420 25.50834 24.21627
#
# Velocity S-wave (km/s) = 3.25797 3.43669 3.34852
# Velocity P-wave (km/s) = 5.64970 5.84542 5.74839
#
# Compressibility (1/GPa) = 0.02606119
#
# Stress axis : x y z
#
# Youngs Moduli (GPa) = 88.12497 54.73111 68.73600
#
# Poissons Ratio (x) = 0.21980 0.12012
# Poissons Ratio (y) = 0.35391 0.22610
# Poissons Ratio (z) = 0.15400 0.18003
#
# Static dielectric constant tensor:
#      x y z
#    x 1.815980 0.000000 0.000000 
#    y 0.000000 1.775200 0.000000 
#    z 0.000000 0.000000 1.938690 
# 
# From -- ./inp_files/4163.got.cif
#   From: 2010.05.17/outbox.cif.g08.bks.cpg/sg21_3_cif.got.tgz:4163.got - 2010.06.03 23:14:55.
