data_PCOD9324738
_publ_section_title
;
Structure prediction by ZEFSAII (Michael W. Deem and Ramdas Pophale) SiO2 
 PCOD9324738
Probable space group: C 2 2 2
;
_chemical_formula_sum "Si O2"
_cell_formula_units_Z 30
_cell_length_a 13.629703
_cell_length_b 10.965391
_cell_length_c 8.518259
_cell_angle_alpha 90.000000
_cell_angle_beta 90.000000
_cell_angle_gamma 90.000000
_cell_volume 1273.096591
_symmetry_space_group_name_H-M "C 2 2 2"
_symmetry_group_IT_number 21
_symmetry_cell_setting 'orthorhombic'
loop_
_space_group_symop_operation_xyz
x,y,z
-x,-y,z
x,-y,-z
-x,y,-z
1/2+x,1/2+y,z
1/2-x,1/2-y,z
1/2+x,1/2-y,-z
1/2-x,1/2+y,-z
loop_
_atom_site_type_symbol
_atom_site_label
_atom_site_fract_x
_atom_site_fract_y
_atom_site_fract_z
Si Si1 0.000000 0.000000 0.500000
Si Si2 0.588501 0.304634 0.714290
Si Si3 0.176228 0.366466 0.544123
Si Si4 0.426592 0.159069 0.862690
Si Si5 0.250000 0.750000 0.942757
O O1 0.932224 0.084286 0.603979
O O2 0.616608 0.188856 0.604689
O O3 0.488462 0.277399 0.807404
O O4 0.678607 0.326386 0.830424
O O5 0.218386 0.500000 0.500000
O O6 0.250000 0.250000 0.580404
O O7 0.105978 0.393532 0.693947
O O8 0.500000 0.113682 0.000000
O O9 0.324213 0.175407 0.950939
#
# Coordination Sequence:
#
# PCOD9324738 Si02
#       5
#     2   8   8   8   4
#     4  12  24  44  80 112 156 194 268 316 388 452
#     4  11  24  44  76 111 152 201 258 320 384 469
#     4  12  26  47  81 114 151 203 265 321 391 471
#     4  10  22  46  76 108 152 200 259 321 389 461
#     4  10  22  46  70 110 156 200 258 316 394 456
#
# _framework density 23.564589999999999
#
# number of rings (size 3 to 8) (size 9 to 14) (size 15 to 20)
#    0.000    1.067    5.333    0.000    1.867    2.133 
#    0.000   18.000    2.933    0.000    0.000    0.000 
#    0.000    0.000    0.000    0.000    0.000    0.000 
#
# Total GULP energy -83654.515770 kJ/mol
# GULP energy per Si atom -5576.967718 kJ/mol
# Density = 2.351096 g / cm^3
# Si number density = 23.564590 Si / 1000 Ang^3
#
#
#
# Elastic Constant Matrix: (Units=GPa)
#
#
# Indices 1 2 3 4 5 6 
#
# 1 132.7665 38.7506 53.0981 0.0000 0.0000 0.0000
# 2 38.7506 140.4824 37.4326 0.0000 0.0000 0.0000
# 3 53.0981 37.4326 130.4795 0.0000 0.0000 0.0000
# 4 0.0000 0.0000 0.0000 82.7258 0.0000 0.0000
# 5 0.0000 0.0000 0.0000 0.0000 50.8010 0.0000
# 6 0.0000 0.0000 0.0000 0.0000 0.0000 2.7008
#
#
#
# Elastic Compliance Matrix: (Units=1/GPa)
#
#
# Indices 1 2 3 4 5 6 
#
# 1 0.009355 -0.001696 -0.003320 0.000000 0.000000 0.000000
# 2 -0.001696 0.008015 -0.001609 0.000000 0.000000 0.000000
# 3 -0.003320 -0.001609 0.009477 0.000000 0.000000 0.000000
# 4 0.000000 0.000000 0.000000 0.012088 0.000000 0.000000
# 5 0.000000 0.000000 0.000000 0.000000 0.019685 0.000000
# 6 0.000000 0.000000 0.000000 0.000000 0.000000 0.370263
#
#
# Mechanical properties :
#
#
# Convention : Reuss Voigt Hill
#
# Bulk Modulus (GPa) = 73.55185 73.58788 73.56987
# Shear Modulus (GPa) = 11.19406 45.54198 28.36802
#
# Velocity S-wave (km/s) = 2.18190 4.40095 3.47341
# Velocity P-wave (km/s) = 6.13418 7.55781 6.88290
#
# Compressibility (1/GPa) = 0.01359585
#
# Stress axis : x y z
#
# Youngs Moduli (GPa) = 106.89559 124.76799 105.51886
#
# Poissons Ratio (x) = 0.21157 0.35037
# Poissons Ratio (y) = 0.18126 0.16981
# Poissons Ratio (z) = 0.35494 0.20079
#
# Static dielectric constant tensor:
#      x y z
#    x 1.924720 0.000000 0.000000 
#    y 0.000000 1.886500 0.000000 
#    z 0.000000 0.000000 1.906730 
# 
# From -- ./inp_files/14064.got.cif
#   From: 2010.05.17/outbox.cif.g08.bks.cpg/sg21_8_cif.got.tgz:14064.got - 2010.06.03 23:14:55.
