data_PCOD9324779
_publ_section_title
;
Structure prediction by ZEFSAII (Michael W. Deem and Ramdas Pophale) SiO2 
 PCOD9324779
Probable space group: C 2 2 2
;
_chemical_formula_sum "Si O2"
_cell_formula_units_Z 32
_cell_length_a 11.024726
_cell_length_b 9.929719
_cell_length_c 13.699384
_cell_angle_alpha 90.000000
_cell_angle_beta 90.000000
_cell_angle_gamma 90.000000
_cell_volume 1499.704873
_symmetry_space_group_name_H-M "C 2 2 2"
_symmetry_group_IT_number 21
_symmetry_cell_setting 'orthorhombic'
loop_
_space_group_symop_operation_xyz
x,y,z
-x,-y,z
x,-y,-z
-x,y,-z
1/2+x,1/2+y,z
1/2-x,1/2-y,z
1/2+x,1/2-y,-z
1/2-x,1/2+y,-z
loop_
_atom_site_type_symbol
_atom_site_label
_atom_site_fract_x
_atom_site_fract_y
_atom_site_fract_z
Si Si1 0.011124 0.660220 0.108519
Si Si2 0.250000 0.750000 0.549580
Si Si3 0.250000 0.750000 0.222388
Si Si4 0.070431 0.640685 0.692731
Si Si5 0.902558 0.121435 0.379766
O O1 0.140017 0.698977 0.155696
O O2 0.000000 0.500000 0.097776
O O3 0.914875 0.690746 0.195271
O O4 0.000000 0.720510 0.000000
O O5 0.185077 0.645998 0.622788
O O6 0.165869 0.840945 0.479636
O O7 0.197414 0.868827 0.292540
O O8 0.000000 0.500000 0.693784
O O9 0.981672 0.746916 0.642694
O O10 0.000000 0.000000 0.378428
#
# Coordination Sequence:
#
# PCOD9324779 Si02
#       5
#     8   4   4   8   8
#     4   9  19  39  64  89 117 154 203 252 306 370
#     4  11  24  39  62  88 126 165 200 257 308 350
#     4   9  20  41  64  86 128 163 194 261 312 350
#     4  10  23  40  59  88 121 157 203 249 302 368
#     4  10  23  41  61  89 124 166 210 247 300 372
#
# _framework density 21.337529
#
# number of rings (size 3 to 8) (size 9 to 14) (size 15 to 20)
#    0.000    2.250    0.000    0.750    0.000   15.000 
#    0.000   16.250    0.000    6.750    0.000    1.750 
#    0.000    0.000    0.000    0.000    0.000    0.000 
#
# Total GULP energy -89233.382584 kJ/mol
# GULP energy per Si atom -5577.086412 kJ/mol
# Density = 2.128896 g / cm^3
# Si number density = 21.337529 Si / 1000 Ang^3
#
#
#
# Elastic Constant Matrix: (Units=GPa)
#
#
# Indices 1 2 3 4 5 6 
#
# 1 80.3498 48.1155 98.6684 0.0000 0.0000 0.0000
# 2 48.1155 102.7348 45.7156 0.0000 0.0000 0.0000
# 3 98.6684 45.7156 240.5375 0.0000 0.0000 0.0000
# 4 0.0000 0.0000 0.0000 21.0741 0.0000 0.0000
# 5 0.0000 0.0000 0.0000 0.0000 43.2692 0.0000
# 6 0.0000 0.0000 0.0000 0.0000 0.0000 39.5136
#
#
#
# Elastic Compliance Matrix: (Units=1/GPa)
#
#
# Indices 1 2 3 4 5 6 
#
# 1 0.032564 -0.010167 -0.011426 0.000000 0.000000 0.000000
# 2 -0.010167 0.013807 0.001546 0.000000 0.000000 0.000000
# 3 -0.011426 0.001546 0.008550 0.000000 0.000000 0.000000
# 4 0.000000 0.000000 0.000000 0.047452 0.000000 0.000000
# 5 0.000000 0.000000 0.000000 0.000000 0.023111 0.000000
# 6 0.000000 0.000000 0.000000 0.000000 0.000000 0.025308
#
#
# Mechanical properties :
#
#
# Convention : Reuss Voigt Hill
#
# Bulk Modulus (GPa) = 67.43402 89.84680 78.64041
# Shear Modulus (GPa) = 25.53254 36.17955 30.85604
#
# Velocity S-wave (km/s) = 3.46295 4.12221 3.80688
# Velocity P-wave (km/s) = 6.90373 8.05330 7.50057
#
# Compressibility (1/GPa) = 0.01482931
#
# Stress axis : x y z
#
# Youngs Moduli (GPa) = 30.70833 72.42462 116.95595
#
# Poissons Ratio (x) = 0.73636 1.33629
# Poissons Ratio (y) = 0.31222 -0.18086
# Poissons Ratio (z) = 0.35086 -0.11200
#
# Static dielectric constant tensor:
#      x y z
#    x 1.981100 0.000000 0.000000 
#    y 0.000000 1.768210 0.000000 
#    z 0.000000 0.000000 1.859370 
# 
# From -- ./inp_files/29964.got.cif
#   From: 2010.05.17/outbox.cif.g08.bks.cpg/sg21_15_cif.got.tgz:29964.got - 2010.06.03 23:14:55.
