data_PCOD9324990
_publ_section_title
;
Structure prediction by ZEFSAII (Michael W. Deem and Ramdas Pophale) SiO2 
 PCOD9324990
Probable space group: C 2 2 2
;
_chemical_formula_sum "Si O2"
_cell_formula_units_Z 22
_cell_length_a 5.267995
_cell_length_b 31.483270
_cell_length_c 5.652612
_cell_angle_alpha 90.000000
_cell_angle_beta 90.000000
_cell_angle_gamma 90.000000
_cell_volume 937.506665
_symmetry_space_group_name_H-M "C 2 2 2"
_symmetry_group_IT_number 21
_symmetry_cell_setting 'orthorhombic'
loop_
_space_group_symop_operation_xyz
x,y,z
-x,-y,z
x,-y,-z
-x,y,-z
1/2+x,1/2+y,z
1/2-x,1/2-y,z
1/2+x,1/2-y,-z
1/2-x,1/2+y,-z
loop_
_atom_site_type_symbol
_atom_site_label
_atom_site_fract_x
_atom_site_fract_y
_atom_site_fract_z
Si Si1 0.000000 0.500000 0.000000
Si Si2 0.351867 0.658142 0.747836
Si Si3 0.250000 0.250000 0.155615
Si Si4 0.756525 0.435411 0.658370
O O1 0.804666 0.469403 0.861073
O O2 0.500000 0.655027 0.500000
O O3 0.219689 0.704235 0.720640
O O4 0.214015 0.612832 0.755076
O O5 0.500000 0.659328 0.000000
O O6 0.500000 0.253509 0.000000
O O7 0.500000 0.439631 0.500000
O O8 0.000000 0.443092 0.500000
#
# Coordination Sequence:
#
# PCOD9324990 Si02
#       4
#     2   8   4   8
#     4  12  30  50  84 108 160 206 274 334 406 468
#     4  10  25  48  76 112 153 200 251 313 384 462
#     4  10  24  44  76 112 152 198 252 304 382 462
#     4  11  29  51  75 113 152 201 262 325 397 471
#
# _framework density 23.466498999999999
#
# number of rings (size 3 to 8) (size 9 to 14) (size 15 to 20)
#    0.000    1.455    0.000    0.545   12.727   17.455 
#    0.000    0.000    0.000    0.000    0.000    0.000 
#    0.000    0.000    0.000    0.000    0.000    0.000 
#
# Total GULP energy -61347.246475 kJ/mol
# GULP energy per Si atom -5577.022407 kJ/mol
# Density = 2.341309 g / cm^3
# Si number density = 23.466499 Si / 1000 Ang^3
#
#
#
# Elastic Constant Matrix: (Units=GPa)
#
#
# Indices 1 2 3 4 5 6 
#
# 1 119.6058 32.3567 31.5435 0.0000 0.0000 0.0000
# 2 32.3567 264.5319 60.5035 0.0000 0.0000 0.0000
# 3 31.5435 60.5035 111.5947 0.0000 0.0000 0.0000
# 4 0.0000 0.0000 0.0000 70.8637 0.0000 0.0000
# 5 0.0000 0.0000 0.0000 0.0000 11.4190 0.0000
# 6 0.0000 0.0000 0.0000 0.0000 0.0000 44.4197
#
#
#
# Elastic Compliance Matrix: (Units=1/GPa)
#
#
# Indices 1 2 3 4 5 6 
#
# 1 0.009117 -0.000600 -0.002252 0.000000 0.000000 0.000000
# 2 -0.000600 0.004355 -0.002191 0.000000 0.000000 0.000000
# 3 -0.002252 -0.002191 0.010786 0.000000 0.000000 0.000000
# 4 0.000000 0.000000 0.000000 0.014112 0.000000 0.000000
# 5 0.000000 0.000000 0.000000 0.000000 0.087573 0.000000
# 6 0.000000 0.000000 0.000000 0.000000 0.000000 0.022513
#
#
# Mechanical properties :
#
#
# Convention : Reuss Voigt Hill
#
# Bulk Modulus (GPa) = 70.56679 82.72664 76.64672
# Shear Modulus (GPa) = 30.62505 50.09571 40.36038
#
# Velocity S-wave (km/s) = 3.61647 4.62538 4.15168
# Velocity P-wave (km/s) = 6.89747 7.99094 7.46425
#
# Compressibility (1/GPa) = 0.01417097
#
# Stress axis : x y z
#
# Youngs Moduli (GPa) = 109.68543 229.62622 92.71627
#
# Poissons Ratio (x) = 0.13781 0.20876
# Poissons Ratio (y) = 0.06583 0.20318
# Poissons Ratio (z) = 0.24697 0.50322
#
# Static dielectric constant tensor:
#      x y z
#    x 1.838520 0.000000 0.000000 
#    y 0.000000 2.033130 0.000000 
#    z 0.000000 0.000000 1.799110 
# 
# From -- ./inp_files/733.got.cif
#   From: 2010.05.17/outbox.cif.g08.bks.cpg/sg21_1_cif.got.tgz:733.got - 2010.06.03 23:14:55.
