data_PCOD9324451
_publ_section_title
;
Structure prediction by ZEFSAII (Michael W. Deem and Ramdas Pophale) SiO2 
 PCOD9324451
Probable space group: C 2 2 2
;
_chemical_formula_sum "Si O2"
_cell_formula_units_Z 32
_cell_length_a 5.665925
_cell_length_b 13.943656
_cell_length_c 18.020226
_cell_angle_alpha 90.000000
_cell_angle_beta 90.000000
_cell_angle_gamma 90.000000
_cell_volume 1423.664693
_symmetry_space_group_name_H-M "C 2 2 2"
_symmetry_group_IT_number 21
_symmetry_cell_setting 'orthorhombic'
loop_
_space_group_symop_operation_xyz
x,y,z
-x,-y,z
x,-y,-z
-x,y,-z
1/2+x,1/2+y,z
1/2-x,1/2-y,z
1/2+x,1/2-y,-z
1/2-x,1/2+y,-z
loop_
_atom_site_type_symbol
_atom_site_label
_atom_site_fract_x
_atom_site_fract_y
_atom_site_fract_z
Si Si1 0.887667 0.103651 0.308309
Si Si2 0.250000 0.750000 0.761250
Si Si3 0.088372 0.603524 0.159208
Si Si4 0.253890 0.889277 0.471144
Si Si5 0.250000 0.750000 0.043698
O O1 0.735124 0.091331 0.234529
O O2 0.743555 0.123050 0.382646
O O3 0.071981 0.187910 0.289220
O O4 0.000000 0.000000 0.322997
O O5 0.381043 0.825199 0.814849
O O6 0.238112 0.657370 0.097013
O O7 0.000000 0.500000 0.134072
O O8 0.500000 0.848436 0.500000
O O9 0.000000 0.853659 0.500000
O O10 0.255660 0.000000 0.500000
O O11 0.500000 0.749075 0.000000
#
# Coordination Sequence:
#
# PCOD9324451 Si02
#       5
#     8   4   8   8   4
#     4  12  24  43  80 114 155 217 267 339 399 484
#     4  12  25  46  76 119 160 198 280 330 395 474
#     4  12  27  48  81 119 156 212 265 325 407 486
#     4  10  22  39  68 109 153 207 266 320 406 457
#     4  12  29  56  84 117 170 208 260 340 405 492
#
# _framework density 22.477204
#
# number of rings (size 3 to 8) (size 9 to 14) (size 15 to 20)
#    0.000    0.500    7.500    0.750    7.000    0.500 
#    0.000    3.750    5.500    0.000    0.000    0.000 
#    0.000    0.000    0.000    0.000    0.000    0.000 
#
# Total GULP energy -89521.877046 kJ/mol
# GULP energy per Si atom -5595.117315 kJ/mol
# Density = 2.242604 g / cm^3
# Si number density = 22.477204 Si / 1000 Ang^3
#
#
#
# Elastic Constant Matrix: (Units=GPa)
#
#
# Indices 1 2 3 4 5 6 
#
# 1 132.4270 29.7806 45.6952 0.0000 0.0000 0.0000
# 2 29.7806 153.4641 15.1667 0.0000 0.0000 0.0000
# 3 45.6952 15.1667 129.8685 0.0000 0.0000 0.0000
# 4 0.0000 0.0000 0.0000 15.4981 0.0000 0.0000
# 5 0.0000 0.0000 0.0000 0.0000 47.4933 0.0000
# 6 0.0000 0.0000 0.0000 0.0000 0.0000 1.6912
#
#
#
# Elastic Compliance Matrix: (Units=1/GPa)
#
#
# Indices 1 2 3 4 5 6 
#
# 1 0.008896 -0.001434 -0.002963 0.000000 0.000000 0.000000
# 2 -0.001434 0.006823 -0.000292 0.000000 0.000000 0.000000
# 3 -0.002963 -0.000292 0.008777 0.000000 0.000000 0.000000
# 4 0.000000 0.000000 0.000000 0.064524 0.000000 0.000000
# 5 0.000000 0.000000 0.000000 0.000000 0.021056 0.000000
# 6 0.000000 0.000000 0.000000 0.000000 0.000000 0.591289
#
#
# Mechanical properties :
#
#
# Convention : Reuss Voigt Hill
#
# Bulk Modulus (GPa) = 66.14372 66.33829 66.24100
# Shear Modulus (GPa) = 6.98537 34.61098 20.79818
#
# Velocity S-wave (km/s) = 1.76480 3.92832 3.04518
# Velocity P-wave (km/s) = 5.80031 7.08190 6.47290
#
# Compressibility (1/GPa) = 0.01511859
#
# Stress axis : x y z
#
# Youngs Moduli (GPa) = 112.40983 146.55730 113.93793
#
# Poissons Ratio (x) = 0.21009 0.33757
# Poissons Ratio (y) = 0.16114 0.03332
# Poissons Ratio (z) = 0.33304 0.04286
#
# Static dielectric constant tensor:
#      x y z
#    x 1.861350 0.000000 0.000000 
#    y 0.000000 1.786590 0.000000 
#    z 0.000000 0.000000 1.802110 
# 
# From -- ./inp_files/34458.got.cif
#   From: 2010.05.17/outbox.cif.g08.bks.cpg/sg21_18_cif.got.tgz:34458.got - 2010.06.03 23:14:55.
