data_PCOD9324540
_publ_section_title
;
Structure prediction by ZEFSAII (Michael W. Deem and Ramdas Pophale) SiO2 
 PCOD9324540
Probable space group: C 2 2 2
;
_chemical_formula_sum "Si O2"
_cell_formula_units_Z 64
_cell_length_a 18.946244
_cell_length_b 14.286807
_cell_length_c 11.958948
_cell_angle_alpha 90.000000
_cell_angle_beta 90.000000
_cell_angle_gamma 90.000000
_cell_volume 3237.063967
_symmetry_space_group_name_H-M "C 2 2 2"
_symmetry_group_IT_number 21
_symmetry_cell_setting 'orthorhombic'
loop_
_space_group_symop_operation_xyz
x,y,z
-x,-y,z
x,-y,-z
-x,y,-z
1/2+x,1/2+y,z
1/2-x,1/2-y,z
1/2+x,1/2-y,-z
1/2-x,1/2+y,-z
loop_
_atom_site_type_symbol
_atom_site_label
_atom_site_fract_x
_atom_site_fract_y
_atom_site_fract_z
Si Si1 0.701055 0.108701 0.136937
Si Si2 0.839357 0.899320 0.269515
Si Si3 0.395464 0.893732 0.491996
Si Si4 0.087095 0.291070 0.270360
Si Si5 0.707841 0.884301 0.121390
Si Si6 0.071258 0.296118 0.737161
Si Si7 0.843614 0.887538 0.725133
Si Si8 0.264031 0.360165 0.497958
O O1 0.631568 0.147836 0.196623
O O2 0.772993 0.134544 0.202535
O O3 0.697042 0.995957 0.135402
O O4 0.704841 0.140702 0.008677
O O5 0.897756 0.819540 0.283076
O O6 0.785066 0.867467 0.173157
O O7 0.792908 0.901057 0.382862
O O8 0.864312 0.005314 0.249923
O O9 0.405267 0.840624 0.609029
O O10 0.427192 0.834701 0.390117
O O11 0.311684 0.899856 0.468260
O O12 0.421899 0.000000 0.500000
O O13 0.147618 0.333511 0.192031
O O14 0.008872 0.308051 0.223464
O O15 0.096190 0.188680 0.744198
O O16 0.819006 0.876426 0.596808
O O17 0.250000 0.250000 0.481292
#
# Coordination Sequence:
#
# PCOD9324540 Si02
#       8
#     8   8   8   8   8   8   8   8
#     4  10  22  41  65  90 115 149 196 247 295 344
#     4  11  22  39  63  88 116 154 200 246 288 338
#     4  12  23  38  59  88 122 153 192 241 294 351
#     4  12  25  39  58  88 124 160 193 233 292 354
#     4  10  22  41  65  90 115 149 196 247 295 344
#     4  12  25  39  58  88 124 160 193 233 292 354
#     4  11  22  39  63  88 116 154 200 246 288 338
#     4  12  18  35  64  90 117 148 194 251 295 335
#
# _framework density 19.771004000000001
#
# number of rings (size 3 to 8) (size 9 to 14) (size 15 to 20)
#    0.000    0.750    5.000    3.000    0.000    5.500 
#    0.000    1.250    0.000    3.000    0.000    5.250 
#    0.000    0.000    0.000    0.000    0.000    0.000 
#
# Total GULP energy -178966.671338 kJ/mol
# GULP energy per Si atom -5592.708479 kJ/mol
# Density = 1.972600 g / cm^3
# Si number density = 19.771004 Si / 1000 Ang^3
#
#
#
# Elastic Constant Matrix: (Units=GPa)
#
#
# Indices 1 2 3 4 5 6 
#
# 1 45.5887 32.8876 3.9827 0.0000 0.0000 0.0000
# 2 32.8876 118.1950 25.3456 0.0000 0.0000 0.0000
# 3 3.9827 25.3456 98.0524 0.0000 0.0000 0.0000
# 4 0.0000 0.0000 0.0000 14.2970 0.0000 0.0000
# 5 0.0000 0.0000 0.0000 0.0000 2.3425 0.0000
# 6 0.0000 0.0000 0.0000 0.0000 0.0000 -9.5683
#
#
#
# Elastic Compliance Matrix: (Units=1/GPa)
#
#
# Indices 1 2 3 4 5 6 
#
# 1 0.027521 -0.007853 0.000912 0.000000 0.000000 0.000000
# 2 -0.007853 0.011198 -0.002576 0.000000 0.000000 0.000000
# 3 0.000912 -0.002576 0.010827 0.000000 0.000000 0.000000
# 4 0.000000 0.000000 0.000000 0.069945 0.000000 0.000000
# 5 0.000000 0.000000 0.000000 0.000000 0.426902 0.000000
# 6 0.000000 0.000000 0.000000 0.000000 0.000000 -0.104511
#
#
# Mechanical properties :
#
#
# Convention : Reuss Voigt Hill
#
# Bulk Modulus (GPa) = 32.77302 42.91864 37.84583
# Shear Modulus (GPa) = 10.61377 14.72223 12.66800
#
# Velocity S-wave (km/s) = 2.31948 2.73177 2.53402
# Velocity P-wave (km/s) = 4.87705 5.63072 5.26738
#
# Compressibility (1/GPa) = 0.03051290
#
# Stress axis : x y z
#
# Youngs Moduli (GPa) = 36.33600 89.30113 92.35869
#
# Poissons Ratio (x) = 0.70130 -0.08425
# Poissons Ratio (y) = 0.28536 0.23788
# Poissons Ratio (z) = -0.03314 0.23001
#
# Static dielectric constant tensor:
#      x y z
#    x 1.664520 0.000000 0.000000 
#    y 0.000000 1.731070 0.000000 
#    z 0.000000 0.000000 1.669010 
# 
# From -- ./inp_files/26225.got.cif
#   From: 2010.05.17/outbox.cif.g08.bks.cpg/sg21_14_cif.got.tgz:26225.got - 2010.06.03 23:14:55.
