data_PCOD9324005
_publ_section_title
;
Structure prediction by ZEFSAII (Michael W. Deem and Ramdas Pophale) SiO2 
 PCOD9324005
Probable space group: C 2 2 2
;
_chemical_formula_sum "Si O2"
_cell_formula_units_Z 48
_cell_length_a 28.494861
_cell_length_b 9.253357
_cell_length_c 9.343987
_cell_angle_alpha 90.000000
_cell_angle_beta 90.000000
_cell_angle_gamma 90.000000
_cell_volume 2463.758220
_symmetry_space_group_name_H-M "C 2 2 2"
_symmetry_group_IT_number 21
_symmetry_cell_setting 'orthorhombic'
loop_
_space_group_symop_operation_xyz
x,y,z
-x,-y,z
x,-y,-z
-x,y,-z
1/2+x,1/2+y,z
1/2-x,1/2-y,z
1/2+x,1/2-y,-z
1/2-x,1/2+y,-z
loop_
_atom_site_type_symbol
_atom_site_label
_atom_site_fract_x
_atom_site_fract_y
_atom_site_fract_z
Si Si1 0.954245 0.157704 0.422687
Si Si2 0.635361 0.841549 0.974141
Si Si3 0.200233 0.672244 0.755402
Si Si4 0.351081 0.673900 0.514149
Si Si5 0.204667 0.663592 0.281749
Si Si6 0.454603 0.656124 0.074464
O O1 0.903066 0.220697 0.462209
O O2 0.958898 0.149021 0.249021
O O3 0.000000 0.227606 0.500000
O O4 0.952140 0.000000 0.500000
O O5 0.660987 0.823770 0.824084
O O6 0.593008 0.731553 0.974100
O O7 0.677418 0.833195 0.088118
O O8 0.614538 0.000000 0.000000
O O9 0.250000 0.750000 0.754422
O O10 0.161480 0.764369 0.668904
O O11 0.209676 0.508836 0.699447
O O12 0.347519 0.500000 0.500000
O O13 0.310921 0.750676 0.421595
O O14 0.250000 0.750000 0.224769
O O15 0.452565 0.500000 0.000000
O O16 0.500000 0.728587 0.000000
#
# Coordination Sequence:
#
# PCOD9324005 Si02
#       6
#     8   8   8   8   8   8
#     4  10  21  38  62  93 130 159 202 256 309 359
#     4  10  24  42  62  90 127 163 201 256 313 367
#     4  11  24  40  63  91 122 166 207 254 309 366
#     4  11  23  38  63  92 123 164 205 253 308 364
#     4  11  22  42  63  87 125 160 206 258 306 369
#     4  11  23  38  67  98 124 163 209 256 307 366
#
# _framework density 19.482430999999998
#
# number of rings (size 3 to 8) (size 9 to 14) (size 15 to 20)
#    0.000    1.333    1.667    4.500    7.000    1.667 
#    0.000    0.000    0.000    2.000    0.000    0.000 
#    0.000    0.000    0.000    0.000    0.000    0.000 
#
# Total GULP energy -133763.389476 kJ/mol
# GULP energy per Si atom -5573.474561 kJ/mol
# Density = 1.943809 g / cm^3
# Si number density = 19.482431 Si / 1000 Ang^3
#
#
#
# Elastic Constant Matrix: (Units=GPa)
#
#
# Indices 1 2 3 4 5 6 
#
# 1 126.1226 57.3284 11.0991 0.0000 0.0000 0.0000
# 2 57.3284 84.1111 11.1000 0.0000 0.0000 0.0000
# 3 11.0991 11.1000 73.4285 0.0000 0.0000 0.0000
# 4 0.0000 0.0000 0.0000 20.1200 0.0000 0.0000
# 5 0.0000 0.0000 0.0000 0.0000 37.1892 0.0000
# 6 0.0000 0.0000 0.0000 0.0000 0.0000 26.4816
#
#
#
# Elastic Compliance Matrix: (Units=1/GPa)
#
#
# Indices 1 2 3 4 5 6 
#
# 1 0.011511 -0.007771 -0.000565 0.000000 0.000000 0.000000
# 2 -0.007771 0.017377 -0.001452 0.000000 0.000000 0.000000
# 3 -0.000565 -0.001452 0.013924 0.000000 0.000000 0.000000
# 4 0.000000 0.000000 0.000000 0.049702 0.000000 0.000000
# 5 0.000000 0.000000 0.000000 0.000000 0.026890 0.000000
# 6 0.000000 0.000000 0.000000 0.000000 0.000000 0.037762
#
#
# Mechanical properties :
#
#
# Convention : Reuss Voigt Hill
#
# Bulk Modulus (GPa) = 43.03876 49.19080 46.11478
# Shear Modulus (GPa) = 27.10221 30.36713 28.73467
#
# Velocity S-wave (km/s) = 3.73381 3.95231 3.84461
# Velocity P-wave (km/s) = 6.38180 6.79200 6.59010
#
# Compressibility (1/GPa) = 0.02323487
#
# Stress axis : x y z
#
# Youngs Moduli (GPa) = 86.87519 57.54665 71.82022
#
# Poissons Ratio (x) = 0.44719 0.04059
# Poissons Ratio (y) = 0.67510 0.10430
# Poissons Ratio (z) = 0.04910 0.08357
#
# Static dielectric constant tensor:
#      x y z
#    x 1.690130 0.000000 0.000000 
#    y 0.000000 1.729510 0.000000 
#    z 0.000000 0.000000 1.726090 
# 
# From -- ./inp_files/19661.got.cif
#   From: 2010.05.17/outbox.cif.g08.bks.cpg/sg21_10_cif.got.tgz:19661.got - 2010.06.03 23:14:55.
