data_PCOD9324208
_publ_section_title
;
Structure prediction by ZEFSAII (Michael W. Deem and Ramdas Pophale) SiO2 
 PCOD9324208
Probable space group: C 2 2 2
;
_chemical_formula_sum "Si O2"
_cell_formula_units_Z 58
_cell_length_a 17.632739
_cell_length_b 18.845094
_cell_length_c 9.321050
_cell_angle_alpha 90.000000
_cell_angle_beta 90.000000
_cell_angle_gamma 90.000000
_cell_volume 3097.297520
_symmetry_space_group_name_H-M "C 2 2 2"
_symmetry_group_IT_number 21
_symmetry_cell_setting 'orthorhombic'
loop_
_space_group_symop_operation_xyz
x,y,z
-x,-y,z
x,-y,-z
-x,y,-z
1/2+x,1/2+y,z
1/2-x,1/2-y,z
1/2+x,1/2-y,-z
1/2-x,1/2+y,-z
loop_
_atom_site_type_symbol
_atom_site_label
_atom_site_fract_x
_atom_site_fract_y
_atom_site_fract_z
Si Si1 0.190743 0.936781 0.261255
Si Si2 0.922962 0.703355 0.590339
Si Si3 0.198690 0.902914 0.741317
Si Si4 0.321241 0.924520 0.502751
Si Si5 0.500000 0.000000 0.000000
Si Si6 0.756170 0.666994 0.976811
Si Si7 0.570247 0.138940 0.094183
Si Si8 0.089964 0.138055 0.518909
O O1 0.259992 0.932603 0.375123
O O2 0.119415 0.914785 0.358322
O O3 0.181283 0.017010 0.206505
O O4 0.212334 0.881397 0.138564
O O5 0.870243 0.643903 0.522883
O O6 0.932653 0.678048 0.753801
O O7 0.890605 0.782544 0.573672
O O8 0.000000 0.703470 0.500000
O O9 0.274452 0.912180 0.646960
O O10 0.217728 0.850755 0.870882
O O11 0.134205 0.877327 0.629715
O O12 0.364051 0.000000 0.500000
O O13 0.449549 0.945731 0.094909
O O14 0.750000 0.750000 0.942409
O O15 0.845888 0.647768 0.971524
O O16 0.500000 0.168249 0.000000
O O17 0.000000 0.132330 0.500000
#
# Coordination Sequence:
#
# PCOD9324208 Si02
#       8
#     8   8   8   8   2   8   8   8
#     4  10  21  41  64  91 121 166 214 262 326 391
#     4  11  23  37  61  92 128 171 210 270 320 388
#     4  10  24  38  64  95 120 165 213 271 319 391
#     4   9  20  36  58  86 124 161 208 258 312 377
#     4   8  24  40  70  92 132 192 222 276 320 404
#     4  12  25  39  65  96 134 177 214 271 331 393
#     4  10  24  42  63  93 134 182 224 261 334 391
#     4  10  23  43  66  91 125 162 214 274 342 394
#
# _framework density 18.726002000000001
#
# number of rings (size 3 to 8) (size 9 to 14) (size 15 to 20)
#    0.414    1.379    1.379    2.483    5.793    4.690 
#    0.000    0.690    0.000    1.655    0.000    0.000 
#    0.000    0.000    0.000    0.000    0.000    0.000 
#
# Total GULP energy -161733.643750 kJ/mol
# GULP energy per Si atom -5577.022198 kJ/mol
# Density = 1.868338 g / cm^3
# Si number density = 18.726002 Si / 1000 Ang^3
#
#
#
# Elastic Constant Matrix: (Units=GPa)
#
#
# Indices 1 2 3 4 5 6 
#
# 1 79.4405 31.5671 21.9677 0.0000 0.0000 0.0000
# 2 31.5671 116.3257 31.4885 0.0000 0.0000 0.0000
# 3 21.9677 31.4885 99.3460 0.0000 0.0000 0.0000
# 4 0.0000 0.0000 0.0000 34.0831 0.0000 0.0000
# 5 0.0000 0.0000 0.0000 0.0000 12.7195 0.0000
# 6 0.0000 0.0000 0.0000 0.0000 0.0000 40.5219
#
#
#
# Elastic Compliance Matrix: (Units=1/GPa)
#
#
# Indices 1 2 3 4 5 6 
#
# 1 0.014516 -0.003358 -0.002145 0.000000 0.000000 0.000000
# 2 -0.003358 0.010180 -0.002484 0.000000 0.000000 0.000000
# 3 -0.002145 -0.002484 0.011328 0.000000 0.000000 0.000000
# 4 0.000000 0.000000 0.000000 0.029340 0.000000 0.000000
# 5 0.000000 0.000000 0.000000 0.000000 0.078619 0.000000
# 6 0.000000 0.000000 0.000000 0.000000 0.000000 0.024678
#
#
# Mechanical properties :
#
#
# Convention : Reuss Voigt Hill
#
# Bulk Modulus (GPa) = 49.88014 51.68430 50.78222
# Shear Modulus (GPa) = 26.13429 31.47083 28.80256
#
# Velocity S-wave (km/s) = 3.73985 4.10395 3.92612
# Velocity P-wave (km/s) = 6.73374 7.07932 6.90869
#
# Compressibility (1/GPa) = 0.02004806
#
# Stress axis : x y z
#
# Youngs Moduli (GPa) = 68.89041 98.22844 88.28020
#
# Poissons Ratio (x) = 0.32989 0.18939
# Poissons Ratio (y) = 0.23136 0.21930
# Poissons Ratio (z) = 0.14779 0.24401
#
# Static dielectric constant tensor:
#      x y z
#    x 1.636520 0.000000 0.000000 
#    y 0.000000 1.666130 0.000000 
#    z 0.000000 0.000000 1.619740 
# 
# From -- ./inp_files/16693.got.cif
#   From: 2010.05.17/outbox.cif.g08.bks.cpg/sg21_9_cif.got.tgz:16693.got - 2010.06.03 23:14:55.
