data_PCOD9324949
_publ_section_title
;
Structure prediction by ZEFSAII (Michael W. Deem and Ramdas Pophale) SiO2 
 PCOD9324949
Probable space group: C 2 2 2
;
_chemical_formula_sum "Si O2"
_cell_formula_units_Z 32
_cell_length_a 8.024046
_cell_length_b 12.041771
_cell_length_c 13.425884
_cell_angle_alpha 90.000000
_cell_angle_beta 90.000000
_cell_angle_gamma 90.000000
_cell_volume 1297.258916
_symmetry_space_group_name_H-M "C 2 2 2"
_symmetry_group_IT_number 21
_symmetry_cell_setting 'orthorhombic'
loop_
_space_group_symop_operation_xyz
x,y,z
-x,-y,z
x,-y,-z
-x,y,-z
1/2+x,1/2+y,z
1/2-x,1/2-y,z
1/2+x,1/2-y,-z
1/2-x,1/2+y,-z
loop_
_atom_site_type_symbol
_atom_site_label
_atom_site_fract_x
_atom_site_fract_y
_atom_site_fract_z
Si Si1 0.169600 0.064003 0.715700
Si Si2 0.132888 0.416381 0.162786
Si Si3 0.696984 0.130774 0.483200
Si Si4 0.980398 0.181418 0.884522
O O1 0.230744 0.140214 0.628349
O O2 0.126223 0.123484 0.821541
O O3 0.313561 0.974186 0.735072
O O4 0.000000 0.000000 0.689682
O O5 0.313386 0.393970 0.113894
O O6 0.000000 0.500000 0.114553
O O7 0.055029 0.295683 0.172428
O O8 0.500000 0.128369 0.500000
O O9 0.750000 0.250000 0.534063
O O10 0.753358 0.000000 0.500000
O O11 0.000000 0.210245 0.000000
#
# Coordination Sequence:
#
# PCOD9324949 Si02
#       4
#     8   8   8   8
#     4  10  25  47  76 108 150 199 255 323 405 472
#     4  10  24  42  69 104 142 195 251 308 384 464
#     4  11  29  51  78 115 155 205 269 338 407 497
#     4  10  24  45  67 106 153 195 252 319 387 472
#
# _framework density 24.667397000000001
#
# number of rings (size 3 to 8) (size 9 to 14) (size 15 to 20)
#    0.000    1.750    0.000    0.000   10.500   11.000 
#    4.500    0.000    0.000    0.000    0.000    0.000 
#    0.000    0.000    0.000    0.000    0.000    0.000 
#
# Total GULP energy -89209.979596 kJ/mol
# GULP energy per Si atom -5575.623725 kJ/mol
# Density = 2.461125 g / cm^3
# Si number density = 24.667397 Si / 1000 Ang^3
#
#
#
# Elastic Constant Matrix: (Units=GPa)
#
#
# Indices 1 2 3 4 5 6 
#
# 1 107.4647 48.6954 30.9729 0.0000 0.0000 0.0000
# 2 48.6954 218.3725 34.8733 0.0000 0.0000 0.0000
# 3 30.9729 34.8733 50.4049 0.0000 0.0000 0.0000
# 4 0.0000 0.0000 0.0000 29.9761 0.0000 0.0000
# 5 0.0000 0.0000 0.0000 0.0000 57.7590 0.0000
# 6 0.0000 0.0000 0.0000 0.0000 0.0000 29.5290
#
#
#
# Elastic Compliance Matrix: (Units=1/GPa)
#
#
# Indices 1 2 3 4 5 6 
#
# 1 0.011820 -0.001659 -0.006115 0.000000 0.000000 0.000000
# 2 -0.001659 0.005381 -0.002703 0.000000 0.000000 0.000000
# 3 -0.006115 -0.002703 0.025467 0.000000 0.000000 0.000000
# 4 0.000000 0.000000 0.000000 0.033360 0.000000 0.000000
# 5 0.000000 0.000000 0.000000 0.000000 0.017313 0.000000
# 6 0.000000 0.000000 0.000000 0.000000 0.000000 0.033865
#
#
# Mechanical properties :
#
#
# Convention : Reuss Voigt Hill
#
# Bulk Modulus (GPa) = 46.05588 67.25839 56.65714
# Shear Modulus (GPa) = 32.17523 40.89952 36.53738
#
# Velocity S-wave (km/s) = 3.61551 4.07632 3.85281
# Velocity P-wave (km/s) = 6.01170 7.03424 6.54297
#
# Compressibility (1/GPa) = 0.02171275
#
# Stress axis : x y z
#
# Youngs Moduli (GPa) = 84.60499 185.83790 39.26600
#
# Poissons Ratio (x) = 0.30833 0.24011
# Poissons Ratio (y) = 0.14037 0.10615
# Poissons Ratio (z) = 0.51736 0.50240
#
# Static dielectric constant tensor:
#      x y z
#    x 1.952130 0.000000 0.000000 
#    y 0.000000 1.964360 0.000000 
#    z 0.000000 0.000000 2.003190 
# 
# From -- ./inp_files/29835.got.cif
#   From: 2010.05.17/outbox.cif.g08.bks.cpg/sg21_15_cif.got.tgz:29835.got - 2010.06.03 23:14:55.
