data_PCOD9324189
_publ_section_title
;
Structure prediction by ZEFSAII (Michael W. Deem and Ramdas Pophale) SiO2 
 PCOD9324189
Probable space group: C 2 2 2
;
_chemical_formula_sum "Si O2"
_cell_formula_units_Z 48
_cell_length_a 19.199628
_cell_length_b 14.601561
_cell_length_c 8.409407
_cell_angle_alpha 90.000000
_cell_angle_beta 90.000000
_cell_angle_gamma 90.000000
_cell_volume 2357.531332
_symmetry_space_group_name_H-M "C 2 2 2"
_symmetry_group_IT_number 21
_symmetry_cell_setting 'orthorhombic'
loop_
_space_group_symop_operation_xyz
x,y,z
-x,-y,z
x,-y,-z
-x,y,-z
1/2+x,1/2+y,z
1/2-x,1/2-y,z
1/2+x,1/2-y,-z
1/2-x,1/2+y,-z
loop_
_atom_site_type_symbol
_atom_site_label
_atom_site_fract_x
_atom_site_fract_y
_atom_site_fract_z
Si Si1 0.500000 0.000000 0.000000
Si Si2 0.642005 0.585559 0.288652
Si Si3 0.857395 0.130624 0.345299
Si Si4 0.278903 0.099276 0.088178
Si Si5 0.500000 0.000000 0.500000
Si Si6 0.991190 0.815298 0.308044
Si Si7 0.920079 0.620317 0.250339
Si Si8 0.250000 0.750000 0.153505
O O1 0.451948 0.065417 0.103154
O O2 0.648570 0.476996 0.310434
O O3 0.648342 0.635090 0.461795
O O4 0.702504 0.612707 0.166321
O O5 0.562648 0.609365 0.243386
O O6 0.797629 0.188137 0.264144
O O7 0.928822 0.167592 0.265522
O O8 0.337454 0.113523 0.223831
O O9 0.290650 0.178835 0.959194
O O10 0.282639 0.000000 0.000000
O O11 0.449274 0.064664 0.399706
O O12 0.954777 0.720113 0.261437
O O13 0.000000 0.821235 0.500000
#
# Coordination Sequence:
#
# PCOD9324189 Si02
#       8
#     2   8   8   8   2   8   8   4
#     4  10  24  38  60  90 134 182 226 270 360 398
#     4  10  22  46  68 102 135 178 227 291 358 407
#     4  10  23  42  73 100 134 178 235 291 341 421
#     4  12  25  45  66  99 144 189 227 286 357 426
#     4  10  24  42  68  98 134 178 250 286 336 422
#     4  10  21  40  71 100 131 170 232 290 346 407
#     4  11  23  43  64  97 135 182 228 286 342 420
#     4  12  26  42  68 102 142 180 234 284 352 430
#
# _framework density 20.360281000000001
#
# number of rings (size 3 to 8) (size 9 to 14) (size 15 to 20)
#    0.000    1.333    3.333    1.500    2.333    6.667 
#    0.000    0.000    0.000    0.000    0.000    0.000 
#    0.000    0.000    0.000    0.000    0.000    0.000 
#
# Total GULP energy -133949.628039 kJ/mol
# GULP energy per Si atom -5581.234502 kJ/mol
# Density = 2.031394 g / cm^3
# Si number density = 20.360281 Si / 1000 Ang^3
#
#
#
# Elastic Constant Matrix: (Units=GPa)
#
#
# Indices 1 2 3 4 5 6 
#
# 1 128.6468 35.4695 39.9349 0.0000 0.0000 0.0000
# 2 35.4695 105.4136 30.8254 0.0000 0.0000 0.0000
# 3 39.9349 30.8254 48.5375 0.0000 0.0000 0.0000
# 4 0.0000 0.0000 0.0000 38.6512 0.0000 0.0000
# 5 0.0000 0.0000 0.0000 0.0000 -0.4622 0.0000
# 6 0.0000 0.0000 0.0000 0.0000 0.0000 31.3837
#
#
#
# Elastic Compliance Matrix: (Units=1/GPa)
#
#
# Indices 1 2 3 4 5 6 
#
# 1 0.010571 -0.001245 -0.007907 0.000000 0.000000 0.000000
# 2 -0.001245 0.011797 -0.006468 0.000000 0.000000 0.000000
# 3 -0.007907 -0.006468 0.031216 0.000000 0.000000 0.000000
# 4 0.000000 0.000000 0.000000 0.025872 0.000000 0.000000
# 5 0.000000 0.000000 0.000000 0.000000 -2.163446 0.000000
# 6 0.000000 0.000000 0.000000 0.000000 0.000000 0.031864
#
#
# Mechanical properties :
#
#
# Convention : Reuss Voigt Hill
#
# Bulk Modulus (GPa) = 44.75363 55.00638 49.88001
# Shear Modulus (GPa) = -2.48331 25.67240 11.59454
#
# Velocity S-wave (km/s) = -1.10559 3.55478 2.38894
# Velocity P-wave (km/s) = 4.51650 6.62750 5.67109
#
# Compressibility (1/GPa) = 0.02234455
#
# Stress axis : x y z
#
# Youngs Moduli (GPa) = 94.59957 84.77038 32.03526
#
# Poissons Ratio (x) = 0.10552 0.25330
# Poissons Ratio (y) = 0.11775 0.20719
# Poissons Ratio (z) = 0.74798 0.54827
#
# Static dielectric constant tensor:
#      x y z
#    x 1.742740 0.000000 0.000000 
#    y 0.000000 1.828790 0.000000 
#    z 0.000000 0.000000 1.737840 
# 
# From -- ./inp_files/16487.got.cif
#   From: 2010.05.17/outbox.cif.g08.bks.cpg/sg21_9_cif.got.tgz:16487.got - 2010.06.03 23:14:55.
