data_PCOD9324013
_publ_section_title
;
Structure prediction by ZEFSAII (Michael W. Deem and Ramdas Pophale) SiO2 
 PCOD9324013
Probable space group: C 2 2 2
;
_chemical_formula_sum "Si O2"
_cell_formula_units_Z 48
_cell_length_a 14.678732
_cell_length_b 13.773094
_cell_length_c 10.850139
_cell_angle_alpha 90.000000
_cell_angle_beta 90.000000
_cell_angle_gamma 90.000000
_cell_volume 2193.589481
_symmetry_space_group_name_H-M "C 2 2 2"
_symmetry_group_IT_number 21
_symmetry_cell_setting 'orthorhombic'
loop_
_space_group_symop_operation_xyz
x,y,z
-x,-y,z
x,-y,-z
-x,y,-z
1/2+x,1/2+y,z
1/2-x,1/2-y,z
1/2+x,1/2-y,-z
1/2-x,1/2+y,-z
loop_
_atom_site_type_symbol
_atom_site_label
_atom_site_fract_x
_atom_site_fract_y
_atom_site_fract_z
Si Si1 0.601742 0.545426 0.379743
Si Si2 0.398258 0.954574 0.620257
Si Si3 0.895557 0.036095 0.129689
Si Si4 0.895557 0.536095 0.870311
Si Si5 0.640426 0.750000 0.775501
Si Si6 0.139597 0.250000 0.482900
O O1 0.500000 0.500000 0.376033
O O2 0.648130 0.500000 0.500000
O O3 0.644975 0.515816 0.250612
O O4 0.601137 0.657707 0.410869
O O5 0.398863 0.842293 0.589131
O O6 0.500000 0.000000 0.623967
O O7 0.351870 0.000000 0.500000
O O8 0.355025 0.984184 0.749388
O O9 0.891847 0.151225 0.157345
O O10 0.000000 0.000000 0.125754
O O11 0.855446 0.000000 0.000000
O O12 0.891847 0.651225 0.842655
O O13 0.000000 0.500000 0.874246
O O14 0.855446 0.500000 0.000000
O O15 0.750000 0.750000 0.779913
O O16 0.615332 0.750000 0.629182
O O17 0.250000 0.250000 0.476219
#
# Coordination Sequence:
#
# PCOD9324013 Si02
#       6
#     8   8   8   8   8   8
#     4  10  21  38  63  94 119 161 209 257 299 366
#     4  10  21  38  63  94 119 161 209 257 299 366
#     4  10  23  42  65  93 127 164 208 258 310 369
#     4  10  23  42  65  93 127 164 208 258 310 369
#     4  11  24  41  63  93 129 166 203 258 321 366
#     4  11  24  39  62  95 130 162 205 260 315 366
#
# _framework density 21.881943
#
# number of rings (size 3 to 8) (size 9 to 14) (size 15 to 20)
#    0.000    1.667    3.333    0.000    0.000   14.667 
#    0.000    1.667    0.000    0.000    0.000    0.000 
#    0.000    0.000    0.000    0.000    0.000    0.000 
#
# Total GULP energy -134016.489132 kJ/mol
# GULP energy per Si atom -5584.020381 kJ/mol
# Density = 2.183214 g / cm^3
# Si number density = 21.881943 Si / 1000 Ang^3
#
#
#
# Elastic Constant Matrix: (Units=GPa)
#
#
# Indices 1 2 3 4 5 6 
#
# 1 119.3684 38.5809 19.8840 0.0000 0.0000 0.0000
# 2 38.5809 273.0804 109.7616 0.0000 0.0000 0.0000
# 3 19.8840 109.7616 258.8524 0.0000 0.0000 0.0000
# 4 0.0000 0.0000 0.0000 -28.6065 0.0000 0.0000
# 5 0.0000 0.0000 0.0000 0.0000 -23.6004 0.0000
# 6 0.0000 0.0000 0.0000 0.0000 0.0000 147.6386
#
#
#
# Elastic Compliance Matrix: (Units=1/GPa)
#
#
# Indices 1 2 3 4 5 6 
#
# 1 0.008785 -0.001169 -0.000179 0.000000 0.000000 0.000000
# 2 -0.001169 0.004570 -0.001848 0.000000 0.000000 0.000000
# 3 -0.000179 -0.001848 0.004661 0.000000 0.000000 0.000000
# 4 0.000000 0.000000 0.000000 -0.034957 0.000000 0.000000
# 5 0.000000 0.000000 0.000000 0.000000 -0.042372 0.000000
# 6 0.000000 0.000000 0.000000 0.000000 0.000000 0.006773
#
#
# Mechanical properties :
#
#
# Convention : Reuss Voigt Hill
#
# Bulk Modulus (GPa) = 86.03524 109.75045 97.89284
# Shear Modulus (GPa) = -118.27687 51.29134 -33.49277
#
# Velocity S-wave (km/s) = -7.36000 4.84674 -3.91655
# Velocity P-wave (km/s) = 5.72913 9.03249 4.93776
#
# Compressibility (1/GPa) = 0.01162314
#
# Stress axis : x y z
#
# Youngs Moduli (GPa) = 113.82846 218.82427 214.56672
#
# Poissons Ratio (x) = 0.25585 0.03842
# Poissons Ratio (y) = 0.13309 0.39651
# Poissons Ratio (z) = 0.02038 0.40438
#
# Static dielectric constant tensor:
#      x y z
#    x 2.360820 0.000000 0.000000 
#    y 0.000000 1.819120 0.000000 
#    z 0.000000 0.000000 1.897540 
# 
# From -- ./inp_files/26047.got.cif
#   From: 2010.05.17/outbox.cif.g08.bks.cpg/sg21_14_cif.got.tgz:26047.got - 2010.06.03 23:14:55.
