data_PCOD9324131
_publ_section_title
;
Structure prediction by ZEFSAII (Michael W. Deem and Ramdas Pophale) SiO2 
 PCOD9324131
Probable space group: C 2 2 2
;
_chemical_formula_sum "Si O2"
_cell_formula_units_Z 32
_cell_length_a 33.886963
_cell_length_b 5.401859
_cell_length_c 7.169799
_cell_angle_alpha 90.000000
_cell_angle_beta 90.000000
_cell_angle_gamma 90.000000
_cell_volume 1312.450320
_symmetry_space_group_name_H-M "C 2 2 2"
_symmetry_group_IT_number 21
_symmetry_cell_setting 'orthorhombic'
loop_
_space_group_symop_operation_xyz
x,y,z
-x,-y,z
x,-y,-z
-x,y,-z
1/2+x,1/2+y,z
1/2-x,1/2-y,z
1/2+x,1/2-y,-z
1/2-x,1/2+y,-z
loop_
_atom_site_type_symbol
_atom_site_label
_atom_site_fract_x
_atom_site_fract_y
_atom_site_fract_z
Si Si1 0.640603 0.214645 0.803884
Si Si2 0.483093 0.744236 0.287694
Si Si3 0.890776 0.226008 0.227888
Si Si4 0.274210 0.005255 0.275423
O O1 0.635682 0.487653 0.714776
O O2 0.683585 0.085803 0.808594
O O3 0.617675 0.000259 0.698125
O O4 0.620592 0.248754 0.007437
O O5 0.500000 0.500000 0.196772
O O6 0.500000 0.746737 0.500000
O O7 0.436496 0.698853 0.272647
O O8 0.500000 0.000000 0.207718
O O9 0.250000 0.250000 0.227710
O O10 0.279333 0.000000 0.500000
O O11 0.250000 0.750000 0.225814
#
# Coordination Sequence:
#
# PCOD9324131 Si02
#       4
#     8   8   8   8
#     4  10  21  40  62  94 127 171 213 269 331 390
#     4  10  21  40  62  89 126 168 221 273 330 390
#     4  10  21  40  62  90 133 163 221 269 327 392
#     4  10  21  40  65  94 131 171 216 269 328 398
#
# _framework density 24.381872999999999
#
# number of rings (size 3 to 8) (size 9 to 14) (size 15 to 20)
#    0.000    2.000    0.000    3.000    0.000    0.000 
#   13.500   25.000    0.000    0.000    0.000    0.000 
#    0.000    0.000    0.000    0.000    0.000    0.000 
#
# Total GULP energy -89117.763835 kJ/mol
# GULP energy per Si atom -5569.860240 kJ/mol
# Density = 2.432638 g / cm^3
# Si number density = 24.381873 Si / 1000 Ang^3
#
#
#
# Elastic Constant Matrix: (Units=GPa)
#
#
# Indices 1 2 3 4 5 6 
#
# 1 196.7862 60.9429 40.8379 0.0000 0.0000 0.0000
# 2 60.9429 282.9999 24.4963 0.0000 0.0000 0.0000
# 3 40.8379 24.4963 152.9066 0.0000 0.0000 0.0000
# 4 0.0000 0.0000 0.0000 -49.8791 0.0000 0.0000
# 5 0.0000 0.0000 0.0000 0.0000 -29.6116 0.0000
# 6 0.0000 0.0000 0.0000 0.0000 0.0000 54.2061
#
#
#
# Elastic Compliance Matrix: (Units=1/GPa)
#
#
# Indices 1 2 3 4 5 6 
#
# 1 0.005705 -0.001112 -0.001346 0.000000 0.000000 0.000000
# 2 -0.001112 0.003800 -0.000312 0.000000 0.000000 0.000000
# 3 -0.001346 -0.000312 0.006949 0.000000 0.000000 0.000000
# 4 0.000000 0.000000 0.000000 -0.020048 0.000000 0.000000
# 5 0.000000 0.000000 0.000000 0.000000 -0.033771 0.000000
# 6 0.000000 0.000000 0.000000 0.000000 0.000000 0.018448
#
#
# Mechanical properties :
#
#
# Convention : Reuss Voigt Hill
#
# Bulk Modulus (GPa) = 91.61161 98.36079 94.98620
# Shear Modulus (GPa) = -513.41074 28.70414 -242.35330
#
# Velocity S-wave (km/s) = -14.52680 3.43486 -9.98072
# Velocity P-wave (km/s) = 15.61138 7.49402 9.68387
#
# Compressibility (1/GPa) = 0.01091565
#
# Stress axis : x y z
#
# Youngs Moduli (GPa) = 175.27502 263.15435 143.90023
#
# Poissons Ratio (x) = 0.29267 0.19363
# Poissons Ratio (y) = 0.19493 0.04486
# Poissons Ratio (z) = 0.23585 0.08204
#
# Static dielectric constant tensor:
#      x y z
#    x 2.524650 0.000000 0.000000 
#    y 0.000000 1.982800 0.000000 
#    z 0.000000 0.000000 1.849370 
# 
# From -- ./inp_files/9168.got.cif
#   From: 2010.05.17/outbox.cif.g08.bks.cpg/sg21_5_cif.got.tgz:9168.got - 2010.06.03 23:14:55.
