data_PCOD9324689
_publ_section_title
;
Structure prediction by ZEFSAII (Michael W. Deem and Ramdas Pophale) SiO2 
 PCOD9324689
Probable space group: C 2 2 2
;
_chemical_formula_sum "Si O2"
_cell_formula_units_Z 32
_cell_length_a 14.080457
_cell_length_b 6.674191
_cell_length_c 16.753339
_cell_angle_alpha 90.000000
_cell_angle_beta 90.000000
_cell_angle_gamma 90.000000
_cell_volume 1574.406079
_symmetry_space_group_name_H-M "C 2 2 2"
_symmetry_group_IT_number 21
_symmetry_cell_setting 'orthorhombic'
loop_
_space_group_symop_operation_xyz
x,y,z
-x,-y,z
x,-y,-z
-x,y,-z
1/2+x,1/2+y,z
1/2-x,1/2-y,z
1/2+x,1/2-y,-z
1/2-x,1/2+y,-z
loop_
_atom_site_type_symbol
_atom_site_label
_atom_site_fract_x
_atom_site_fract_y
_atom_site_fract_z
Si Si1 0.657228 0.637437 0.387690
Si Si2 0.000000 0.000000 0.500000
Si Si3 0.357708 0.176548 0.063567
Si Si4 0.750000 0.250000 0.324412
Si Si5 0.000000 0.000000 0.000000
Si Si6 0.609159 0.937153 0.246377
O O1 0.750000 0.750000 0.421164
O O2 0.567416 0.635500 0.444940
O O3 0.688152 0.408658 0.373742
O O4 0.632601 0.749310 0.304412
O O5 0.250000 0.250000 0.050527
O O6 0.369881 0.106742 0.154281
O O7 0.431258 0.356649 0.050174
O O8 0.377727 0.000000 0.000000
O O9 0.821851 0.384132 0.273340
O O10 0.500000 0.000000 0.256344
#
# Coordination Sequence:
#
# PCOD9324689 Si02
#       6
#     8   2   8   4   2   8
#     4  10  24  44  66 103 135 184 232 286 359 418
#     4  12  24  42  74  98 140 184 236 296 346 428
#     4  12  26  44  70 102 138 187 241 294 357 420
#     4  10  22  44  70  92 140 178 228 294 346 430
#     4  12  26  46  64  96 144 178 234 296 344 418
#     4  11  24  43  68 101 139 183 234 286 360 428
#
# _framework density 20.325123999999999
#
# number of rings (size 3 to 8) (size 9 to 14) (size 15 to 20)
#    0.000    1.000    1.250    5.625    3.500    7.000 
#    0.000    5.000    0.000    0.000    0.000    0.000 
#    0.000    0.000    0.000    0.000    0.000    0.000 
#
# Total GULP energy -89522.744307 kJ/mol
# GULP energy per Si atom -5595.171519 kJ/mol
# Density = 2.027886 g / cm^3
# Si number density = 20.325124 Si / 1000 Ang^3
#
#
#
# Elastic Constant Matrix: (Units=GPa)
#
#
# Indices 1 2 3 4 5 6 
#
# 1 157.9928 58.7724 63.6474 0.0000 0.0000 0.0000
# 2 58.7724 132.8494 68.7846 0.0000 0.0000 0.0000
# 3 63.6474 68.7846 132.6411 0.0000 0.0000 0.0000
# 4 0.0000 0.0000 0.0000 8.7661 0.0000 0.0000
# 5 0.0000 0.0000 0.0000 0.0000 13.7095 0.0000
# 6 0.0000 0.0000 0.0000 0.0000 0.0000 39.3303
#
#
#
# Elastic Compliance Matrix: (Units=1/GPa)
#
#
# Indices 1 2 3 4 5 6 
#
# 1 0.008290 -0.002198 -0.002838 0.000000 0.000000 0.000000
# 2 -0.002198 0.010873 -0.004584 0.000000 0.000000 0.000000
# 3 -0.002838 -0.004584 0.011278 0.000000 0.000000 0.000000
# 4 0.000000 0.000000 0.000000 0.114075 0.000000 0.000000
# 5 0.000000 0.000000 0.000000 0.000000 0.072942 0.000000
# 6 0.000000 0.000000 0.000000 0.000000 0.000000 0.025426
#
#
# Mechanical properties :
#
#
# Convention : Reuss Voigt Hill
#
# Bulk Modulus (GPa) = 89.27497 89.54357 89.40927
# Shear Modulus (GPa) = 18.80699 27.84646 23.32673
#
# Velocity S-wave (km/s) = 3.04519 3.70544 3.39142
# Velocity P-wave (km/s) = 7.50886 7.90305 7.70848
#
# Compressibility (1/GPa) = 0.01120135
#
# Stress axis : x y z
#
# Youngs Moduli (GPa) = 120.62002 91.97022 88.66741
#
# Poissons Ratio (x) = 0.20217 0.25166
# Poissons Ratio (y) = 0.26514 0.40643
# Poissons Ratio (z) = 0.34235 0.42157
#
# Static dielectric constant tensor:
#      x y z
#    x 1.723520 0.000000 0.000000 
#    y 0.000000 1.703950 0.000000 
#    z 0.000000 0.000000 1.709500 
# 
# From -- ./inp_files/34509.got.cif
#   From: 2010.05.17/outbox.cif.g08.bks.cpg/sg21_18_cif.got.tgz:34509.got - 2010.06.03 23:14:55.
