data_PCOD9324175
_publ_section_title
;
Structure prediction by ZEFSAII (Michael W. Deem and Ramdas Pophale) SiO2 
 PCOD9324175
Probable space group: C 2 2 2
;
_chemical_formula_sum "Si O2"
_cell_formula_units_Z 38
_cell_length_a 9.422265
_cell_length_b 11.880827
_cell_length_c 16.947014
_cell_angle_alpha 90.000000
_cell_angle_beta 90.000000
_cell_angle_gamma 90.000000
_cell_volume 1897.121626
_symmetry_space_group_name_H-M "C 2 2 2"
_symmetry_group_IT_number 21
_symmetry_cell_setting 'orthorhombic'
loop_
_space_group_symop_operation_xyz
x,y,z
-x,-y,z
x,-y,-z
-x,y,-z
1/2+x,1/2+y,z
1/2-x,1/2-y,z
1/2+x,1/2-y,-z
1/2-x,1/2+y,-z
loop_
_atom_site_type_symbol
_atom_site_label
_atom_site_fract_x
_atom_site_fract_y
_atom_site_fract_z
Si Si1 0.417861 0.752090 0.575039
Si Si2 0.500000 0.000000 0.619795
Si Si3 0.567770 0.627464 0.257401
Si Si4 0.000000 0.000000 0.000000
Si Si5 0.161310 0.498316 0.231151
Si Si6 0.147526 0.843717 0.126683
O O1 0.500000 0.700589 0.500000
O O2 0.250000 0.750000 0.561399
O O3 0.462974 0.882997 0.580116
O O4 0.447049 0.691854 0.659472
O O5 0.367486 0.026873 0.677573
O O6 0.500000 0.500000 0.264023
O O7 0.733738 0.609164 0.234556
O O8 0.483005 0.686793 0.185477
O O9 0.909226 0.077566 0.057921
O O10 0.247851 0.589484 0.184284
O O11 0.000000 0.500000 0.198734
O O12 0.250000 0.750000 0.091764
#
# Coordination Sequence:
#
# PCOD9324175 Si02
#       6
#     8   4   8   2   8   8
#     4  12  25  42  62  97 138 179 231 287 341 399
#     4  10  21  40  68  91 132 176 236 281 336 396
#     4  10  21  43  70  94 131 179 224 279 339 409
#     4  12  24  48  66 102 150 168 222 288 336 410
#     4   9  18  39  70  95 124 171 227 275 326 409
#     4  11  23  44  70  99 134 180 221 271 346 410
#
# _framework density 20.030346000000002
#
# number of rings (size 3 to 8) (size 9 to 14) (size 15 to 20)
#    0.632    0.842    5.263    1.579    0.000    4.632 
#    7.579    1.053    0.000    0.000    0.000    0.000 
#    0.000    0.000    0.000    0.000    0.000    0.000 
#
# Total GULP energy -105820.041788 kJ/mol
# GULP energy per Si atom -5569.475884 kJ/mol
# Density = 1.998476 g / cm^3
# Si number density = 20.030346 Si / 1000 Ang^3
#
#
#
# Elastic Constant Matrix: (Units=GPa)
#
#
# Indices 1 2 3 4 5 6 
#
# 1 155.6364 39.2519 57.2636 0.0000 0.0000 0.0000
# 2 39.2519 77.3108 18.0651 0.0000 0.0000 0.0000
# 3 57.2636 18.0651 86.7648 0.0000 0.0000 0.0000
# 4 0.0000 0.0000 0.0000 21.3152 0.0000 0.0000
# 5 0.0000 0.0000 0.0000 0.0000 -53.5365 0.0000
# 6 0.0000 0.0000 0.0000 0.0000 0.0000 39.7944
#
#
#
# Elastic Compliance Matrix: (Units=1/GPa)
#
#
# Indices 1 2 3 4 5 6 
#
# 1 0.009286 -0.003450 -0.005410 0.000000 0.000000 0.000000
# 2 -0.003450 0.014878 -0.000821 0.000000 0.000000 0.000000
# 3 -0.005410 -0.000821 0.015267 0.000000 0.000000 0.000000
# 4 0.000000 0.000000 0.000000 0.046915 0.000000 0.000000
# 5 0.000000 0.000000 0.000000 0.000000 -0.018679 0.000000
# 6 0.000000 0.000000 0.000000 0.000000 0.000000 0.025129
#
#
# Mechanical properties :
#
#
# Convention : Reuss Voigt Hill
#
# Bulk Modulus (GPa) = 49.82837 60.98589 55.40713
# Shear Modulus (GPa) = 42.07030 15.19005 28.63017
#
# Velocity S-wave (km/s) = 4.58791 2.75681 3.78476
# Velocity P-wave (km/s) = 7.27981 6.37543 6.84258
#
# Compressibility (1/GPa) = 0.02006889
#
# Stress axis : x y z
#
# Youngs Moduli (GPa) = 107.68842 67.21157 65.50096
#
# Poissons Ratio (x) = 0.23191 0.35438
# Poissons Ratio (y) = 0.37157 0.05375
# Poissons Ratio (z) = 0.58262 0.05515
#
# Static dielectric constant tensor:
#      x y z
#    x 1.759830 0.000000 0.000000 
#    y 0.000000 1.725280 0.000000 
#    z 0.000000 0.000000 1.672610 
# 
# From -- ./inp_files/35493.got.cif
#   From: 2010.05.17/outbox.cif.g08.bks.cpg/sg21_18_cif.got.tgz:35493.got - 2010.06.03 23:14:55.
