data_PCOD9324409
_publ_section_title
;
Structure prediction by ZEFSAII (Michael W. Deem and Ramdas Pophale) SiO2 
 PCOD9324409
Probable space group: C 2 2 2
;
_chemical_formula_sum "Si O2"
_cell_formula_units_Z 48
_cell_length_a 22.905897
_cell_length_b 14.279592
_cell_length_c 6.613150
_cell_angle_alpha 90.000000
_cell_angle_beta 90.000000
_cell_angle_gamma 90.000000
_cell_volume 2163.074492
_symmetry_space_group_name_H-M "C 2 2 2"
_symmetry_group_IT_number 21
_symmetry_cell_setting 'orthorhombic'
loop_
_space_group_symop_operation_xyz
x,y,z
-x,-y,z
x,-y,-z
-x,y,-z
1/2+x,1/2+y,z
1/2-x,1/2-y,z
1/2+x,1/2-y,-z
1/2-x,1/2+y,-z
loop_
_atom_site_type_symbol
_atom_site_label
_atom_site_fract_x
_atom_site_fract_y
_atom_site_fract_z
Si Si1 0.590505 0.604150 0.489085
Si Si2 0.125242 0.250748 0.792314
Si Si3 0.449275 0.249754 0.164278
Si Si4 0.750000 0.250000 0.053728
Si Si5 0.407340 0.103188 0.452594
Si Si6 0.794113 0.000000 0.500000
Si Si7 0.294091 0.933577 0.820582
O O1 0.565792 0.500000 0.500000
O O2 0.589593 0.664640 0.692929
O O3 0.561592 0.661807 0.308918
O O4 0.660163 0.585046 0.463891
O O5 0.194005 0.233906 0.803885
O O6 0.108208 0.338221 0.653061
O O7 0.106930 0.263208 0.022885
O O8 0.451923 0.161979 0.314641
O O9 0.500000 0.256050 0.000000
O O10 0.736077 0.158679 0.916398
O O11 0.346589 0.093172 0.328742
O O12 0.428365 0.000000 0.500000
O O13 0.752555 0.995506 0.305953
O O14 0.316759 0.000000 0.000000
#
# Coordination Sequence:
#
# PCOD9324409 Si02
#       7
#     8   8   8   4   8   4   8
#     4   9  23  42  67 102 141 177 233 285 361 432
#     4  11  24  42  66 101 139 183 233 294 361 441
#     4  11  25  49  72  98 136 185 243 307 355 428
#     4  12  24  38  68 100 146 188 230 280 374 430
#     4  11  25  43  67  98 140 183 238 297 363 423
#     4  10  22  38  64  97 148 181 218 284 350 446
#     4  12  24  38  62 101 141 188 229 286 352 438
#
# _framework density 22.190636999999999
#
# number of rings (size 3 to 8) (size 9 to 14) (size 15 to 20)
#    0.500    0.667    2.500    3.000    4.667    3.333 
#    0.000    5.000    0.000    0.000    0.000    0.000 
#    0.000    0.000    0.000    0.000    0.000    0.000 
#
# Total GULP energy -134129.982984 kJ/mol
# GULP energy per Si atom -5588.749291 kJ/mol
# Density = 2.214013 g / cm^3
# Si number density = 22.190637 Si / 1000 Ang^3
#
#
#
# Elastic Constant Matrix: (Units=GPa)
#
#
# Indices 1 2 3 4 5 6 
#
# 1 93.8159 31.4635 34.2262 0.0000 0.0000 0.0000
# 2 31.4635 183.8352 86.4426 0.0000 0.0000 0.0000
# 3 34.2262 86.4426 115.2811 0.0000 0.0000 0.0000
# 4 0.0000 0.0000 0.0000 20.6103 0.0000 0.0000
# 5 0.0000 0.0000 0.0000 0.0000 50.1927 0.0000
# 6 0.0000 0.0000 0.0000 0.0000 0.0000 5.6227
#
#
#
# Elastic Compliance Matrix: (Units=1/GPa)
#
#
# Indices 1 2 3 4 5 6 
#
# 1 0.011994 -0.000584 -0.003123 0.000000 0.000000 0.000000
# 2 -0.000584 0.008431 -0.006148 0.000000 0.000000 0.000000
# 3 -0.003123 -0.006148 0.014212 0.000000 0.000000 0.000000
# 4 0.000000 0.000000 0.000000 0.048520 0.000000 0.000000
# 5 0.000000 0.000000 0.000000 0.000000 0.019923 0.000000
# 6 0.000000 0.000000 0.000000 0.000000 0.000000 0.177850
#
#
# Mechanical properties :
#
#
# Convention : Reuss Voigt Hill
#
# Bulk Modulus (GPa) = 66.99717 77.46632 72.23174
# Shear Modulus (GPa) = 16.36041 31.33845 23.84943
#
# Velocity S-wave (km/s) = 2.71821 3.76205 3.28190
# Velocity P-wave (km/s) = 6.33315 7.33866 6.85437
#
# Compressibility (1/GPa) = 0.01492600
#
# Stress axis : x y z
#
# Youngs Moduli (GPa) = 83.37175 118.61495 70.36443
#
# Poissons Ratio (x) = 0.06932 0.21974
# Poissons Ratio (y) = 0.04873 0.43261
# Poissons Ratio (z) = 0.26036 0.72926
#
# Static dielectric constant tensor:
#      x y z
#    x 1.878250 0.000000 0.000000 
#    y 0.000000 1.824820 0.000000 
#    z 0.000000 0.000000 1.773170 
# 
# From -- ./inp_files/7376.got.cif
#   From: 2010.05.17/outbox.cif.g08.bks.cpg/sg21_4_cif.got.tgz:7376.got - 2010.06.03 23:14:55.
