data_PCOD9324655
_publ_section_title
;
Structure prediction by ZEFSAII (Michael W. Deem and Ramdas Pophale) SiO2 
 PCOD9324655
Probable space group: C 2 2 2
;
_chemical_formula_sum "Si O2"
_cell_formula_units_Z 38
_cell_length_a 7.641583
_cell_length_b 17.104951
_cell_length_c 13.119504
_cell_angle_alpha 90.000000
_cell_angle_beta 90.000000
_cell_angle_gamma 90.000000
_cell_volume 1714.835973
_symmetry_space_group_name_H-M "C 2 2 2"
_symmetry_group_IT_number 21
_symmetry_cell_setting 'orthorhombic'
loop_
_space_group_symop_operation_xyz
x,y,z
-x,-y,z
x,-y,-z
-x,y,-z
1/2+x,1/2+y,z
1/2-x,1/2-y,z
1/2+x,1/2-y,-z
1/2-x,1/2+y,-z
loop_
_atom_site_type_symbol
_atom_site_label
_atom_site_fract_x
_atom_site_fract_y
_atom_site_fract_z
Si Si1 0.415145 0.881997 0.714942
Si Si2 0.236894 0.527563 0.385255
Si Si3 0.000000 0.731714 0.000000
Si Si4 0.500000 0.500000 0.000000
Si Si5 0.500000 0.626992 0.500000
Si Si6 0.720991 0.639584 0.078964
Si Si7 0.750000 0.250000 0.596884
O O1 0.598064 0.917522 0.674482
O O2 0.362427 0.869914 0.831950
O O3 0.387203 0.798198 0.663682
O O4 0.273761 0.946816 0.676715
O O5 0.183322 0.500000 0.500000
O O6 0.414106 0.574418 0.410758
O O7 0.164276 0.673560 0.015333
O O8 0.072020 0.792485 0.913757
O O9 0.623945 0.558459 0.062377
O O10 0.345769 0.684033 0.533146
#
# Coordination Sequence:
#
# PCOD9324655 Si02
#       7
#     8   8   4   2   4   8   4
#     4  11  24  41  67 100 138 181 250 291 345 420
#     4  11  24  45  67  95 147 204 230 292 362 411
#     4   9  20  44  72  91 148 190 214 281 394 426
#     4  10  24  42  72 110 142 176 240 290 372 446
#     4  12  25  42  66  95 134 202 238 283 362 412
#     4  10  22  43  69 104 138 185 230 294 357 443
#     4  12  24  36  62  96 130 174 246 294 326 416
#
# _framework density 22.159552999999999
#
# number of rings (size 3 to 8) (size 9 to 14) (size 15 to 20)
#    0.000    1.263    2.105    4.105    0.000    5.474 
#    0.000    8.421    0.000    0.000    0.000    0.000 
#    0.000    0.000    0.000    0.000    0.000    0.000 
#
# Total GULP energy -105789.500214 kJ/mol
# GULP energy per Si atom -5567.868432 kJ/mol
# Density = 2.210912 g / cm^3
# Si number density = 22.159553 Si / 1000 Ang^3
#
#
#
# Elastic Constant Matrix: (Units=GPa)
#
#
# Indices 1 2 3 4 5 6 
#
# 1 115.2567 47.7962 33.5772 0.0000 0.0000 0.0000
# 2 47.7962 153.8206 26.5244 0.0000 0.0000 0.0000
# 3 33.5772 26.5244 71.8303 0.0000 0.0000 0.0000
# 4 0.0000 0.0000 0.0000 16.3780 0.0000 0.0000
# 5 0.0000 0.0000 0.0000 0.0000 11.8996 0.0000
# 6 0.0000 0.0000 0.0000 0.0000 0.0000 64.4417
#
#
#
# Elastic Compliance Matrix: (Units=1/GPa)
#
#
# Indices 1 2 3 4 5 6 
#
# 1 0.011006 -0.002705 -0.004146 0.000000 0.000000 0.000000
# 2 -0.002705 0.007608 -0.001545 0.000000 0.000000 0.000000
# 3 -0.004146 -0.001545 0.016430 0.000000 0.000000 0.000000
# 4 0.000000 0.000000 0.000000 0.061058 0.000000 0.000000
# 5 0.000000 0.000000 0.000000 0.000000 0.084037 0.000000
# 6 0.000000 0.000000 0.000000 0.000000 0.000000 0.015518
#
#
# Mechanical properties :
#
#
# Convention : Reuss Voigt Hill
#
# Bulk Modulus (GPa) = 54.78685 61.85590 58.32137
# Shear Modulus (GPa) = 22.87996 34.07783 28.47889
#
# Velocity S-wave (km/s) = 3.21676 3.92578 3.58882
# Velocity P-wave (km/s) = 6.21081 6.96588 6.59915
#
# Compressibility (1/GPa) = 0.01825256
#
# Stress axis : x y z
#
# Youngs Moduli (GPa) = 90.86136 131.44109 60.86359
#
# Poissons Ratio (x) = 0.35553 0.25233
# Poissons Ratio (y) = 0.24577 0.09403
# Poissons Ratio (z) = 0.37670 0.20307
#
# Static dielectric constant tensor:
#      x y z
#    x 1.908770 0.000000 0.000000 
#    y 0.000000 1.802930 0.000000 
#    z 0.000000 0.000000 1.882800 
# 
# From -- ./inp_files/22373.got.cif
#   From: 2010.05.17/outbox.cif.g08.bks.cpg/sg21_12_cif.got.tgz:22373.got - 2010.06.03 23:14:55.
