data_PCOD9324109
_publ_section_title
;
Structure prediction by ZEFSAII (Michael W. Deem and Ramdas Pophale) SiO2 
 PCOD9324109
Probable space group: C 2 2 2
;
_chemical_formula_sum "Si O2"
_cell_formula_units_Z 64
_cell_length_a 14.704611
_cell_length_b 23.879090
_cell_length_c 9.259690
_cell_angle_alpha 90.000000
_cell_angle_beta 90.000000
_cell_angle_gamma 90.000000
_cell_volume 3251.380224
_symmetry_space_group_name_H-M "C 2 2 2"
_symmetry_group_IT_number 21
_symmetry_cell_setting 'orthorhombic'
loop_
_space_group_symop_operation_xyz
x,y,z
-x,-y,z
x,-y,-z
-x,y,-z
1/2+x,1/2+y,z
1/2-x,1/2-y,z
1/2+x,1/2-y,-z
1/2-x,1/2+y,-z
loop_
_atom_site_type_symbol
_atom_site_label
_atom_site_fract_x
_atom_site_fract_y
_atom_site_fract_z
Si Si1 0.149181 0.504535 0.827119
Si Si2 0.596173 0.620271 0.917754
Si Si3 0.819005 0.300969 0.847729
Si Si4 0.495637 0.795897 0.670483
Si Si5 0.646698 0.746534 0.862506
Si Si6 0.991057 0.066784 0.670551
Si Si7 0.199752 0.913788 0.820306
Si Si8 0.016630 0.412020 0.827122
O O1 0.242202 0.531970 0.775454
O O2 0.109919 0.444099 0.789070
O O3 0.068262 0.547852 0.788965
O O4 0.154056 0.500000 0.000000
O O5 0.631927 0.683768 0.921045
O O6 0.570986 0.597353 0.760439
O O7 0.500000 0.619179 0.000000
O O8 0.665157 0.583551 0.013321
O O9 0.750000 0.250000 0.844277
O O10 0.767029 0.359479 0.818192
O O11 0.895383 0.286280 0.731941
O O12 0.861472 0.293059 0.009209
O O13 0.500000 0.792920 0.500000
O O14 0.569889 0.756295 0.744478
O O15 0.515614 0.857011 0.733890
O O16 0.750000 0.750000 0.806795
O O17 0.892540 0.088788 0.726596
O O18 0.000000 0.075789 0.500000
O O19 0.000000 0.000000 0.700437
O O20 0.000000 0.402496 0.000000
#
# Coordination Sequence:
#
# PCOD9324109 Si02
#       8
#     8   8   8   8   8   8   8   8
#     4   9  19  32  62  96 122 152 210 266 318 366
#     4  10  21  39  67  96 123 157 214 271 322 375
#     4  11  22  43  70  94 124 167 213 269 328 388
#     4  12  26  41  60  91 139 174 212 264 321 391
#     4  11  23  42  66  96 124 170 214 269 325 382
#     4  10  25  47  62  88 134 179 212 264 337 388
#     4  11  21  39  69  98 121 158 223 273 318 385
#     4   9  18  39  61  88 125 169 203 256 320 379
#
# _framework density 19.683948999999998
#
# number of rings (size 3 to 8) (size 9 to 14) (size 15 to 20)
#    0.000    1.625    3.750    2.625    5.250    2.750 
#    2.250    2.500    0.000    0.000    0.000    0.000 
#    0.000    0.000    0.000    0.000    0.000    0.000 
#
# Total GULP energy -178500.826088 kJ/mol
# GULP energy per Si atom -5578.150815 kJ/mol
# Density = 1.963915 g / cm^3
# Si number density = 19.683949 Si / 1000 Ang^3
#
#
#
# Elastic Constant Matrix: (Units=GPa)
#
#
# Indices 1 2 3 4 5 6 
#
# 1 90.5417 10.8409 43.2493 0.0000 0.0000 0.0000
# 2 10.8409 46.8076 21.5732 0.0000 0.0000 0.0000
# 3 43.2493 21.5732 99.1857 0.0000 0.0000 0.0000
# 4 0.0000 0.0000 0.0000 80.4485 0.0000 0.0000
# 5 0.0000 0.0000 0.0000 0.0000 6.0406 0.0000
# 6 0.0000 0.0000 0.0000 0.0000 0.0000 32.6861
#
#
#
# Elastic Compliance Matrix: (Units=1/GPa)
#
#
# Indices 1 2 3 4 5 6 
#
# 1 0.013960 -0.000475 -0.005984 0.000000 0.000000 0.000000
# 2 -0.000475 0.023760 -0.004961 0.000000 0.000000 0.000000
# 3 -0.005984 -0.004961 0.013770 0.000000 0.000000 0.000000
# 4 0.000000 0.000000 0.000000 0.012430 0.000000 0.000000
# 5 0.000000 0.000000 0.000000 0.000000 0.165545 0.000000
# 6 0.000000 0.000000 0.000000 0.000000 0.000000 0.030594
#
#
# Mechanical properties :
#
#
# Convention : Reuss Voigt Hill
#
# Bulk Modulus (GPa) = 34.90280 43.09577 38.99928
# Shear Modulus (GPa) = 17.09693 34.55982 25.82838
#
# Velocity S-wave (km/s) = 2.95035 4.19470 3.62630
# Velocity P-wave (km/s) = 5.41998 6.73810 6.11466
#
# Compressibility (1/GPa) = 0.02865100
#
# Stress axis : x y z
#
# Youngs Moduli (GPa) = 71.63421 42.08670 72.62042
#
# Poissons Ratio (x) = 0.02001 0.43454
# Poissons Ratio (y) = 0.03405 0.36025
# Poissons Ratio (z) = 0.42864 0.20878
#
# Static dielectric constant tensor:
#      x y z
#    x 1.699890 0.000000 0.000000 
#    y 0.000000 1.755150 0.000000 
#    z 0.000000 0.000000 1.703630 
# 
# From -- ./inp_files/15481.got.cif
#   From: 2010.05.17/outbox.cif.g08.bks.cpg/sg21_8_cif.got.tgz:15481.got - 2010.06.03 23:14:55.
