data_PCOD9324601
_publ_section_title
;
Structure prediction by ZEFSAII (Michael W. Deem and Ramdas Pophale) SiO2 
 PCOD9324601
Probable space group: C 2 2 2
;
_chemical_formula_sum "Si O2"
_cell_formula_units_Z 32
_cell_length_a 22.985548
_cell_length_b 11.204983
_cell_length_c 5.659059
_cell_angle_alpha 90.000000
_cell_angle_beta 90.000000
_cell_angle_gamma 90.000000
_cell_volume 1457.505781
_symmetry_space_group_name_H-M "C 2 2 2"
_symmetry_group_IT_number 21
_symmetry_cell_setting 'orthorhombic'
loop_
_space_group_symop_operation_xyz
x,y,z
-x,-y,z
x,-y,-z
-x,y,-z
1/2+x,1/2+y,z
1/2-x,1/2-y,z
1/2+x,1/2-y,-z
1/2-x,1/2+y,-z
loop_
_atom_site_type_symbol
_atom_site_label
_atom_site_fract_x
_atom_site_fract_y
_atom_site_fract_z
Si Si1 0.188365 0.286705 0.806125
Si Si2 0.163334 0.500000 0.500000
Si Si3 0.000000 0.188641 0.000000
Si Si4 0.914718 0.619751 0.133121
Si Si5 0.109138 0.067673 0.751740
O O1 0.250000 0.250000 0.914103
O O2 0.199953 0.403990 0.646280
O O3 0.156489 0.171138 0.697311
O O4 0.138470 0.330556 0.980034
O O5 0.117509 0.416935 0.366592
O O6 0.953887 0.117994 0.160859
O O7 0.037807 0.278680 0.159979
O O8 0.935846 0.500000 0.000000
O O9 0.102328 0.000000 0.500000
O O10 0.128353 0.000000 0.000000
#
# Coordination Sequence:
#
# PCOD9324601 Si02
#       5
#     8   4   4   8   8
#     4  10  24  43  71  99 139 186 235 305 358 434
#     4  10  22  42  69 100 132 174 239 294 358 426
#     4  10  22  44  68  96 144 183 233 294 356 426
#     4   9  20  42  64 100 135 175 233 289 357 424
#     4  11  27  48  69 106 145 193 243 293 364 437
#
# _framework density 21.955313
#
# number of rings (size 3 to 8) (size 9 to 14) (size 15 to 20)
#    0.000    2.000    0.000    0.750    8.750    6.000 
#    9.000   11.250    0.000    0.000    0.000    0.000 
#    0.000    0.000    0.000    0.000    0.000    0.000 
#
# Total GULP energy -89140.466432 kJ/mol
# GULP energy per Si atom -5571.279152 kJ/mol
# Density = 2.190534 g / cm^3
# Si number density = 21.955313 Si / 1000 Ang^3
#
#
#
# Elastic Constant Matrix: (Units=GPa)
#
#
# Indices 1 2 3 4 5 6 
#
# 1 104.0081 45.9520 -1.1895 0.0000 0.0000 0.0000
# 2 45.9520 101.1854 30.5230 0.0000 0.0000 0.0000
# 3 -1.1895 30.5230 54.8389 0.0000 0.0000 0.0000
# 4 0.0000 0.0000 0.0000 -469.1408 0.0000 0.0000
# 5 0.0000 0.0000 0.0000 0.0000 29.6342 0.0000
# 6 0.0000 0.0000 0.0000 0.0000 0.0000 75.9967
#
#
#
# Elastic Compliance Matrix: (Units=1/GPa)
#
#
# Indices 1 2 3 4 5 6 
#
# 1 0.012792 -0.007082 0.004219 0.000000 0.000000 0.000000
# 2 -0.007082 0.015798 -0.008947 0.000000 0.000000 0.000000
# 3 0.004219 -0.008947 0.023306 0.000000 0.000000 0.000000
# 4 0.000000 0.000000 0.000000 -0.002132 0.000000 0.000000
# 5 0.000000 0.000000 0.000000 0.000000 0.033745 0.000000
# 6 0.000000 0.000000 0.000000 0.000000 0.000000 0.013158
#
#
# Mechanical properties :
#
#
# Convention : Reuss Voigt Hill
#
# Bulk Modulus (GPa) = 35.36398 45.62261 40.49330
# Shear Modulus (GPa) = 38.54688 -60.38553 -10.91933
#
# Velocity S-wave (km/s) = 4.19465 -5.25010 -2.23254
# Velocity P-wave (km/s) = 6.29304 3.99080 3.44063
#
# Compressibility (1/GPa) = 0.02827736
#
# Stress axis : x y z
#
# Youngs Moduli (GPa) = 78.17511 63.29989 42.90668
#
# Poissons Ratio (x) = 0.44829 -0.18103
# Poissons Ratio (y) = 0.55363 0.38387
# Poissons Ratio (z) = -0.32984 0.56632
#
# Static dielectric constant tensor:
#      x y z
#    x 2.035880 0.000000 0.000000 
#    y 0.000000 1.833580 0.000000 
#    z 0.000000 0.000000 1.821250 
# 
# From -- ./inp_files/6444.got.cif
#   From: 2010.05.17/outbox.cif.g08.bks.cpg/sg21_4_cif.got.tgz:6444.got - 2010.06.03 23:14:55.
