data_PCOD9324835
_publ_section_title
;
Structure prediction by ZEFSAII (Michael W. Deem and Ramdas Pophale) SiO2 
 PCOD9324835
Probable space group: C 2 2 2
;
_chemical_formula_sum "Si O2"
_cell_formula_units_Z 48
_cell_length_a 24.750436
_cell_length_b 11.139411
_cell_length_c 7.737060
_cell_angle_alpha 90.000000
_cell_angle_beta 90.000000
_cell_angle_gamma 90.000000
_cell_volume 2133.148286
_symmetry_space_group_name_H-M "C 2 2 2"
_symmetry_group_IT_number 21
_symmetry_cell_setting 'orthorhombic'
loop_
_space_group_symop_operation_xyz
x,y,z
-x,-y,z
x,-y,-z
-x,y,-z
1/2+x,1/2+y,z
1/2-x,1/2-y,z
1/2+x,1/2-y,-z
1/2-x,1/2+y,-z
loop_
_atom_site_type_symbol
_atom_site_label
_atom_site_fract_x
_atom_site_fract_y
_atom_site_fract_z
Si Si1 1.000000 0.358032 0.802433
Si Si2 0.436217 0.500000 0.712104
Si Si3 0.281094 0.865415 0.798875
Si Si4 0.889222 0.750450 0.301269
Si Si5 0.610778 0.250450 0.301269
Si Si6 0.281094 0.134585 0.798875
O O1 0.053449 0.314453 0.708950
O O2 0.000000 0.500000 0.808829
O O3 0.946551 0.314453 0.708950
O O4 0.000000 0.311275 0.000000
O O5 0.500000 0.500000 0.764660
O O6 0.437436 0.500000 0.500000
O O7 0.403259 0.617325 0.768764
O O8 0.403259 0.382675 0.768763
O O9 0.250000 0.750000 0.721369
O O10 0.343779 0.827424 0.791263
O O11 0.273066 0.000000 0.724580
O O12 0.264425 0.872718 0.000000
O O13 0.871817 0.762227 0.500000
O O14 0.656221 0.172576 0.208737
O O15 0.250000 0.250000 0.721369
#
# Coordination Sequence:
#
# PCOD9324835 Si02
#       6
#     8   8   8   8   8   8
#     4  11  23  38  57  84 120 159 196 241 300 361
#     4   9  18  36  58  86 124 158 190 241 302 351
#     4  10  23  43  64  88 121 159 201 251 304 359
#     4  11  22  38  62  89 120 156 199 248 301 358
#     4  11  22  38  62  89 120 156 199 248 301 358
#     4  10  23  43  64  88 121 159 201 251 304 359
#
# _framework density 22.501950999999998
#
# number of rings (size 3 to 8) (size 9 to 14) (size 15 to 20)
#    0.000    1.667    1.667    2.500    2.333    6.667 
#    0.000    3.333    0.000    0.000    0.000    0.000 
#    0.000    0.000    0.000    0.000    0.000    0.000 
#
# Total GULP energy -134028.094481 kJ/mol
# GULP energy per Si atom -5584.503937 kJ/mol
# Density = 2.245074 g / cm^3
# Si number density = 22.501951 Si / 1000 Ang^3
#
#
#
# Elastic Constant Matrix: (Units=GPa)
#
#
# Indices 1 2 3 4 5 6 
#
# 1 92.6461 53.9970 -10.1051 0.0000 0.0000 0.0000
# 2 53.9970 204.1859 11.8086 0.0000 0.0000 0.0000
# 3 -10.1051 11.8086 45.8656 0.0000 0.0000 0.0000
# 4 0.0000 0.0000 0.0000 14.0105 0.0000 0.0000
# 5 0.0000 0.0000 0.0000 0.0000 89.9341 0.0000
# 6 0.0000 0.0000 0.0000 0.0000 0.0000 29.1901
#
#
#
# Elastic Compliance Matrix: (Units=1/GPa)
#
#
# Indices 1 2 3 4 5 6 
#
# 1 0.013424 -0.003777 0.003930 0.000000 0.000000 0.000000
# 2 -0.003777 0.006034 -0.002386 0.000000 0.000000 0.000000
# 3 0.003930 -0.002386 0.023283 0.000000 0.000000 0.000000
# 4 0.000000 0.000000 0.000000 0.071375 0.000000 0.000000
# 5 0.000000 0.000000 0.000000 0.000000 0.011119 0.000000
# 6 0.000000 0.000000 0.000000 0.000000 0.000000 0.034258
#
#
# Mechanical properties :
#
#
# Convention : Reuss Voigt Hill
#
# Bulk Modulus (GPa) = 26.12658 50.45539 38.29098
# Shear Modulus (GPa) = 28.29362 45.76008 37.02685
#
# Velocity S-wave (km/s) = 3.54981 4.51444 4.06087
# Velocity P-wave (km/s) = 5.33269 7.04592 6.24830
#
# Compressibility (1/GPa) = 0.03827520
#
# Stress axis : x y z
#
# Youngs Moduli (GPa) = 74.49391 165.71747 42.94991
#
# Poissons Ratio (x) = 0.62595 -0.16879
# Poissons Ratio (y) = 0.28138 0.10247
# Poissons Ratio (z) = -0.29276 0.39537
#
# Static dielectric constant tensor:
#      x y z
#    x 1.802890 0.000000 0.000000 
#    y 0.000000 1.878640 0.000000 
#    z 0.000000 0.000000 1.887930 
# 
# From -- ./inp_files/18459.got.cif
#   From: 2010.05.17/outbox.cif.g08.bks.cpg/sg21_10_cif.got.tgz:18459.got - 2010.06.03 23:14:55.
