data_PCOD9324714
_publ_section_title
;
Structure prediction by ZEFSAII (Michael W. Deem and Ramdas Pophale) SiO2 
 PCOD9324714
Probable space group: C 2 2 2
;
_chemical_formula_sum "Si O2"
_cell_formula_units_Z 24
_cell_length_a 13.411529
_cell_length_b 12.253453
_cell_length_c 6.636470
_cell_angle_alpha 90.000000
_cell_angle_beta 90.000000
_cell_angle_gamma 90.000000
_cell_volume 1090.621156
_symmetry_space_group_name_H-M "C 2 2 2"
_symmetry_group_IT_number 21
_symmetry_cell_setting 'orthorhombic'
loop_
_space_group_symop_operation_xyz
x,y,z
-x,-y,z
x,-y,-z
-x,y,-z
1/2+x,1/2+y,z
1/2-x,1/2-y,z
1/2+x,1/2-y,-z
1/2-x,1/2+y,-z
loop_
_atom_site_type_symbol
_atom_site_label
_atom_site_fract_x
_atom_site_fract_y
_atom_site_fract_z
Si Si1 0.000000 0.500000 0.000000
Si Si2 0.250000 0.250000 0.102689
Si Si3 0.858108 0.091534 0.160844
Si Si4 0.000000 0.000000 0.500000
Si Si5 0.668491 0.959692 0.284504
O O1 0.074292 0.562241 0.855113
O O2 0.160650 0.205490 0.956169
O O3 0.270151 0.150155 0.253538
O O4 0.744980 0.054228 0.214824
O O5 0.929003 0.074516 0.354988
O O6 0.891465 0.000000 0.000000
O O7 0.634820 0.000000 0.500000
#
# Coordination Sequence:
#
# PCOD9324714 Si02
#       5
#     2   4   8   2   8
#     4  12  22  48  72 100 146 188 222 308 344 404
#     4  10  22  48  74 100 146 184 226 306 348 398
#     4  10  22  45  69 103 147 180 230 295 343 412
#     4  12  22  44  76 100 140 198 222 284 364 412
#     4  11  23  46  72 102 143 183 234 289 347 419
#
# _framework density 22.005807999999998
#
# number of rings (size 3 to 8) (size 9 to 14) (size 15 to 20)
#    0.000    1.333    6.667    1.000    0.000    1.333 
#   12.000    0.000    0.000    0.000    0.000    0.000 
#    0.000    0.000    0.000    0.000    0.000    0.000 
#
# Total GULP energy -66830.404343 kJ/mol
# GULP energy per Si atom -5569.200362 kJ/mol
# Density = 2.195572 g / cm^3
# Si number density = 22.005808 Si / 1000 Ang^3
#
#
#
# Elastic Constant Matrix: (Units=GPa)
#
#
# Indices 1 2 3 4 5 6 
#
# 1 89.5078 5.4725 45.3971 0.0000 0.0000 0.0000
# 2 5.4725 89.0074 43.4172 0.0000 0.0000 0.0000
# 3 45.3971 43.4172 151.5185 0.0000 0.0000 0.0000
# 4 0.0000 0.0000 0.0000 18.7414 0.0000 0.0000
# 5 0.0000 0.0000 0.0000 0.0000 -15.4629 0.0000
# 6 0.0000 0.0000 0.0000 0.0000 0.0000 2.0993
#
#
#
# Elastic Compliance Matrix: (Units=1/GPa)
#
#
# Indices 1 2 3 4 5 6 
#
# 1 0.013304 0.001309 -0.004361 0.000000 0.000000 0.000000
# 2 0.001309 0.013189 -0.004172 0.000000 0.000000 0.000000
# 3 -0.004361 -0.004172 0.009102 0.000000 0.000000 0.000000
# 4 0.000000 0.000000 0.000000 0.053358 0.000000 0.000000
# 5 0.000000 0.000000 0.000000 0.000000 -0.064671 0.000000
# 6 0.000000 0.000000 0.000000 0.000000 0.000000 0.476355
#
#
# Mechanical properties :
#
#
# Convention : Reuss Voigt Hill
#
# Bulk Modulus (GPa) = 47.28505 57.62304 52.45404
# Shear Modulus (GPa) = 9.57607 16.79200 13.18404
#
# Velocity S-wave (km/s) = 2.08831 2.76537 2.45034
# Velocity P-wave (km/s) = 5.22962 6.03644 5.64746
#
# Compressibility (1/GPa) = 0.02114833
#
# Stress axis : x y z
#
# Youngs Moduli (GPa) = 75.16452 75.81813 109.86637
#
# Poissons Ratio (x) = -0.09928 0.47916
# Poissons Ratio (y) = -0.09842 0.45833
# Poissons Ratio (z) = 0.32782 0.31629
#
# Static dielectric constant tensor:
#      x y z
#    x 1.852460 0.000000 0.000000 
#    y 0.000000 1.779230 0.000000 
#    z 0.000000 0.000000 1.909580 
# 
# From -- ./inp_files/3218.got.cif
#   From: 2010.05.17/outbox.cif.g08.bks.cpg/sg21_2_cif.got.tgz:3218.got - 2010.06.03 23:14:55.
