data_PCOD9324104
_publ_section_title
;
Structure prediction by ZEFSAII (Michael W. Deem and Ramdas Pophale) SiO2 
 PCOD9324104
Probable space group: C 2 2 2
;
_chemical_formula_sum "Si O2"
_cell_formula_units_Z 56
_cell_length_a 21.252686
_cell_length_b 10.908995
_cell_length_c 11.177208
_cell_angle_alpha 90.000000
_cell_angle_beta 90.000000
_cell_angle_gamma 90.000000
_cell_volume 2591.384766
_symmetry_space_group_name_H-M "C 2 2 2"
_symmetry_group_IT_number 21
_symmetry_cell_setting 'orthorhombic'
loop_
_space_group_symop_operation_xyz
x,y,z
-x,-y,z
x,-y,-z
-x,y,-z
1/2+x,1/2+y,z
1/2-x,1/2-y,z
1/2+x,1/2-y,-z
1/2-x,1/2+y,-z
loop_
_atom_site_type_symbol
_atom_site_label
_atom_site_fract_x
_atom_site_fract_y
_atom_site_fract_z
Si Si1 0.404770 0.533910 0.138621
Si Si2 0.395475 0.257176 0.151485
Si Si3 0.367746 0.874827 0.081822
Si Si4 0.474087 0.763242 0.232297
Si Si5 0.500000 0.184147 0.500000
Si Si6 0.618520 0.000000 0.500000
Si Si7 0.266816 0.452513 0.863415
Si Si8 0.291170 0.138340 0.317944
O O1 0.402998 0.397389 0.191518
O O2 0.454922 0.629637 0.185002
O O3 0.336358 0.593104 0.165637
O O4 0.415392 0.500000 0.000000
O O5 0.462601 0.193519 0.167736
O O6 0.342384 0.198225 0.231405
O O7 0.376568 0.233652 0.014524
O O8 0.418411 0.854599 0.187780
O O9 0.297072 0.874621 0.133543
O O10 0.374578 0.000000 0.000000
O O11 0.492627 0.752502 0.371404
O O12 0.433863 0.108770 0.502085
O O13 0.668196 0.952983 0.400261
O O14 0.253163 0.560458 0.769732
O O15 0.272491 0.500000 0.000000
O O16 0.250000 0.250000 0.374752
#
# Coordination Sequence:
#
# PCOD9324104 Si02
#       8
#     8   8   8   8   4   4   8   8
#     4  11  24  43  68 104 149 189 235 297 373 450
#     4  12  23  43  69 101 143 190 235 299 376 441
#     4  11  23  39  67 109 147 187 245 301 368 448
#     4  12  26  44  69 105 142 193 247 305 371 436
#     4  11  26  48  77  96 144 197 246 311 366 442
#     4  11  26  50  74 102 136 193 254 308 372 427
#     4  10  21  39  66 107 143 188 226 292 370 446
#     4  12  23  46  75  99 142 189 246 308 374 441
#
# _framework density 21.610067999999998
#
# number of rings (size 3 to 8) (size 9 to 14) (size 15 to 20)
#    0.000    0.714    7.143    1.714    0.000    2.286 
#    5.143    1.429    0.000    0.000    0.000    0.000 
#    0.000    0.000    0.000    0.000    0.000    0.000 
#
# Total GULP energy -156165.465032 kJ/mol
# GULP energy per Si atom -5577.338037 kJ/mol
# Density = 2.156088 g / cm^3
# Si number density = 21.610068 Si / 1000 Ang^3
#
#
#
# Elastic Constant Matrix: (Units=GPa)
#
#
# Indices 1 2 3 4 5 6 
#
# 1 153.4237 25.4782 45.0307 0.0000 0.0000 0.0000
# 2 25.4782 75.5974 44.5417 0.0000 0.0000 0.0000
# 3 45.0307 44.5417 100.9126 0.0000 0.0000 0.0000
# 4 0.0000 0.0000 0.0000 18.7492 0.0000 0.0000
# 5 0.0000 0.0000 0.0000 0.0000 48.1831 0.0000
# 6 0.0000 0.0000 0.0000 0.0000 0.0000 -611.1647
#
#
#
# Elastic Compliance Matrix: (Units=1/GPa)
#
#
# Indices 1 2 3 4 5 6 
#
# 1 0.007532 -0.000754 -0.003028 0.000000 0.000000 0.000000
# 2 -0.000754 0.017953 -0.007588 0.000000 0.000000 0.000000
# 3 -0.003028 -0.007588 0.014610 0.000000 0.000000 0.000000
# 4 0.000000 0.000000 0.000000 0.053336 0.000000 0.000000
# 5 0.000000 0.000000 0.000000 0.000000 0.020754 0.000000
# 6 0.000000 0.000000 0.000000 0.000000 0.000000 -0.001636
#
#
# Mechanical properties :
#
#
# Convention : Reuss Voigt Hill
#
# Bulk Modulus (GPa) = 57.62136 62.22610 59.92373
# Shear Modulus (GPa) = 35.44273 -94.52094 -29.53910
#
# Velocity S-wave (km/s) = 4.05421 -6.62074 -3.70119
# Velocity P-wave (km/s) = 6.97406 5.43950 3.08620
#
# Compressibility (1/GPa) = 0.01735467
#
# Stress axis : x y z
#
# Youngs Moduli (GPa) = 132.76846 55.70186 68.44712
#
# Poissons Ratio (x) = 0.04202 0.20726
# Poissons Ratio (y) = 0.10015 0.51934
# Poissons Ratio (z) = 0.40203 0.42264
#
# Static dielectric constant tensor:
#      x y z
#    x 1.814850 0.000000 0.000000 
#    y 0.000000 1.883950 0.000000 
#    z 0.000000 0.000000 2.031030 
# 
# From -- ./inp_files/26861.got.cif
#   From: 2010.05.17/outbox.cif.g08.bks.cpg/sg21_14_cif.got.tgz:26861.got - 2010.06.03 23:14:55.
