data_PCOD9324752
_publ_section_title
;
Structure prediction by ZEFSAII (Michael W. Deem and Ramdas Pophale) SiO2 
 PCOD9324752
Probable space group: C 2 2 2
;
_chemical_formula_sum "Si O2"
_cell_formula_units_Z 32
_cell_length_a 13.627931
_cell_length_b 5.728573
_cell_length_c 16.632870
_cell_angle_alpha 90.000000
_cell_angle_beta 90.000000
_cell_angle_gamma 90.000000
_cell_volume 1298.504835
_symmetry_space_group_name_H-M "C 2 2 2"
_symmetry_group_IT_number 21
_symmetry_cell_setting 'orthorhombic'
loop_
_space_group_symop_operation_xyz
x,y,z
-x,-y,z
x,-y,-z
-x,y,-z
1/2+x,1/2+y,z
1/2-x,1/2-y,z
1/2+x,1/2-y,-z
1/2-x,1/2+y,-z
loop_
_atom_site_type_symbol
_atom_site_label
_atom_site_fract_x
_atom_site_fract_y
_atom_site_fract_z
Si Si1 0.000000 0.000000 0.500000
Si Si2 0.000000 0.500000 0.000000
Si Si3 0.354629 0.854793 0.581037
Si Si4 0.750000 0.250000 0.852207
Si Si5 0.097065 0.137008 0.888071
Si Si6 0.650499 0.892695 0.736587
O O1 0.931067 0.842448 0.443909
O O2 0.077841 0.642029 0.055150
O O3 0.250000 0.750000 0.607346
O O4 0.336790 0.000000 0.500000
O O5 0.390209 0.019438 0.652799
O O6 0.689846 0.459874 0.896330
O O7 0.824540 0.385994 0.793254
O O8 0.092798 0.222759 0.795882
O O9 0.000000 0.000000 0.906515
O O10 0.750000 0.750000 0.718421
#
# Coordination Sequence:
#
# PCOD9324752 Si02
#       6
#     2   2   8   4   8   8
#     4  12  30  48  72 112 160 214 270 324 420 464
#     4  12  26  52  84 118 162 216 264 340 422 484
#     4  12  25  51  74 107 159 208 268 336 392 476
#     4  10  22  48  78 116 150 200 268 316 402 484
#     4  11  25  49  84 114 161 209 261 333 409 492
#     4  10  23  46  80 112 151 205 263 328 396 474
#
# _framework density 24.643729
#
# number of rings (size 3 to 8) (size 9 to 14) (size 15 to 20)
#    0.000    1.000    2.500    3.000    0.000    0.000 
#   22.500    0.000  123.750    0.000    0.000    0.000 
#    0.000    0.000    0.000    0.000    0.000    0.000 
#
# Total GULP energy -89551.630316 kJ/mol
# GULP energy per Si atom -5596.976895 kJ/mol
# Density = 2.458764 g / cm^3
# Si number density = 24.643729 Si / 1000 Ang^3
#
#
#
# Elastic Constant Matrix: (Units=GPa)
#
#
# Indices 1 2 3 4 5 6 
#
# 1 101.4488 37.5327 52.8113 0.0000 0.0000 0.0000
# 2 37.5327 116.0777 67.9219 0.0000 0.0000 0.0000
# 3 52.8113 67.9219 162.0532 0.0000 0.0000 0.0000
# 4 0.0000 0.0000 0.0000 53.1053 0.0000 0.0000
# 5 0.0000 0.0000 0.0000 0.0000 3.8150 0.0000
# 6 0.0000 0.0000 0.0000 0.0000 0.0000 25.3294
#
#
#
# Elastic Compliance Matrix: (Units=1/GPa)
#
#
# Indices 1 2 3 4 5 6 
#
# 1 0.012265 -0.002156 -0.003094 0.000000 0.000000 0.000000
# 2 -0.002156 0.011793 -0.004240 0.000000 0.000000 0.000000
# 3 -0.003094 -0.004240 0.008956 0.000000 0.000000 0.000000
# 4 0.000000 0.000000 0.000000 0.018831 0.000000 0.000000
# 5 0.000000 0.000000 0.000000 0.000000 0.262126 0.000000
# 6 0.000000 0.000000 0.000000 0.000000 0.000000 0.039480
#
#
# Mechanical properties :
#
#
# Convention : Reuss Voigt Hill
#
# Bulk Modulus (GPa) = 71.24878 77.34571 74.29725
# Shear Modulus (GPa) = 13.25877 31.20419 22.23148
#
# Velocity S-wave (km/s) = 2.32204 3.56225 3.00678
# Velocity P-wave (km/s) = 6.01360 6.95508 6.50141
#
# Compressibility (1/GPa) = 0.01403533
#
# Stress axis : x y z
#
# Youngs Moduli (GPa) = 81.53201 84.79482 111.65368
#
# Poissons Ratio (x) = 0.18279 0.34541
# Poissons Ratio (y) = 0.17575 0.47346
# Poissons Ratio (z) = 0.25222 0.35957
#
# Static dielectric constant tensor:
#      x y z
#    x 1.646050 0.000000 0.000000 
#    y 0.000000 2.048950 0.000000 
#    z 0.000000 0.000000 1.912490 
# 
# From -- ./inp_files/36405.got.cif
#   From: 2010.05.17/outbox.cif.g08.bks.cpg/sg21_19_cif.got.tgz:36405.got - 2010.06.03 23:14:55.
