data_PCOD9324574
_publ_section_title
;
Structure prediction by ZEFSAII (Michael W. Deem and Ramdas Pophale) SiO2 
 PCOD9324574
Probable space group: C 2 2 2
;
_chemical_formula_sum "Si O2"
_cell_formula_units_Z 60
_cell_length_a 18.156217
_cell_length_b 11.786927
_cell_length_c 13.339494
_cell_angle_alpha 90.000000
_cell_angle_beta 90.000000
_cell_angle_gamma 90.000000
_cell_volume 2854.731811
_symmetry_space_group_name_H-M "C 2 2 2"
_symmetry_group_IT_number 21
_symmetry_cell_setting 'orthorhombic'
loop_
_space_group_symop_operation_xyz
x,y,z
-x,-y,z
x,-y,-z
-x,y,-z
1/2+x,1/2+y,z
1/2-x,1/2-y,z
1/2+x,1/2-y,-z
1/2-x,1/2+y,-z
loop_
_atom_site_type_symbol
_atom_site_label
_atom_site_fract_x
_atom_site_fract_y
_atom_site_fract_z
Si Si1 0.560743 0.915074 0.709828
Si Si2 0.580230 0.441080 0.097749
Si Si3 0.341356 0.489846 0.693652
Si Si4 0.340243 0.742298 0.419026
Si Si5 0.821374 0.500000 0.000000
Si Si6 0.190465 0.429353 0.214575
Si Si7 0.837002 0.762668 0.358393
Si Si8 0.059691 0.325585 0.918621
O O1 0.608746 0.825235 0.647133
O O2 0.529021 0.851492 0.807588
O O3 0.500000 0.000000 0.662033
O O4 0.620654 0.995954 0.759693
O O5 0.500000 0.500000 0.108879
O O6 0.623192 0.456919 0.200793
O O7 0.574260 0.307969 0.076266
O O8 0.615385 0.500000 0.000000
O O9 0.353217 0.388141 0.615407
O O10 0.255920 0.519822 0.716949
O O11 0.368823 0.612383 0.657723
O O12 0.250000 0.750000 0.405172
O O13 0.365246 0.773587 0.532385
O O14 0.785764 0.557891 0.098825
O O15 0.869505 0.398818 0.049358
O O16 0.162665 0.307345 0.254836
O O17 0.750000 0.750000 0.379849
O O18 0.000000 0.358554 0.000000
#
# Coordination Sequence:
#
# PCOD9324574 Si02
#       8
#     8   8   8   8   4   8   8   8
#     4  11  23  39  67  99 134 171 221 283 341 412
#     4  11  24  39  62  92 127 175 221 274 338 412
#     4  11  22  41  66  94 129 175 228 278 338 410
#     4  11  21  42  70  97 130 178 226 283 341 413
#     4  10  23  36  62  94 131 164 208 276 342 394
#     4  10  22  42  61  99 132 170 216 279 339 412
#     4   9  22  40  67  95 129 175 227 277 339 412
#     4  11  20  40  61  89 125 176 222 256 336 427
#
# _framework density 21.017735999999999
#
# number of rings (size 3 to 8) (size 9 to 14) (size 15 to 20)
#    0.000    1.467    4.000    2.200    2.800    1.600 
#    0.000    1.333    0.000    0.800    0.000    0.000 
#    0.000    0.000    0.000    0.000    0.000    0.000 
#
# Total GULP energy -167004.926222 kJ/mol
# GULP energy per Si atom -5566.830874 kJ/mol
# Density = 2.096990 g / cm^3
# Si number density = 21.017736 Si / 1000 Ang^3
#
#
#
# Elastic Constant Matrix: (Units=GPa)
#
#
# Indices 1 2 3 4 5 6 
#
# 1 35.5698 11.3283 9.9239 0.0000 0.0000 0.0000
# 2 11.3283 128.6295 34.4618 0.0000 0.0000 0.0000
# 3 9.9239 34.4618 109.9039 0.0000 0.0000 0.0000
# 4 0.0000 0.0000 0.0000 13.0560 0.0000 0.0000
# 5 0.0000 0.0000 0.0000 0.0000 14.5189 0.0000
# 6 0.0000 0.0000 0.0000 0.0000 0.0000 53.9642
#
#
#
# Elastic Compliance Matrix: (Units=1/GPa)
#
#
# Indices 1 2 3 4 5 6 
#
# 1 0.029325 -0.002045 -0.002007 0.000000 0.000000 0.000000
# 2 -0.002045 0.008630 -0.002521 0.000000 0.000000 0.000000
# 3 -0.002007 -0.002521 0.010071 0.000000 0.000000 0.000000
# 4 0.000000 0.000000 0.000000 0.076593 0.000000 0.000000
# 5 0.000000 0.000000 0.000000 0.000000 0.068876 0.000000
# 6 0.000000 0.000000 0.000000 0.000000 0.000000 0.018531
#
#
# Mechanical properties :
#
#
# Convention : Reuss Voigt Hill
#
# Bulk Modulus (GPa) = 28.67027 42.83679 35.75353
# Shear Modulus (GPa) = 21.11510 30.86710 25.99110
#
# Velocity S-wave (km/s) = 3.17303 3.83642 3.52039
# Velocity P-wave (km/s) = 5.20526 6.32848 5.79415
#
# Compressibility (1/GPa) = 0.03487934
#
# Stress axis : x y z
#
# Youngs Moduli (GPa) = 34.10074 115.87647 99.29835
#
# Poissons Ratio (x) = 0.23697 0.19926
# Poissons Ratio (y) = 0.06974 0.25037
# Poissons Ratio (z) = 0.06843 0.29217
#
# Static dielectric constant tensor:
#      x y z
#    x 1.812070 0.000000 0.000000 
#    y 0.000000 1.833560 0.000000 
#    z 0.000000 0.000000 1.844670 
# 
# From -- ./inp_files/26905.got.cif
#   From: 2010.05.17/outbox.cif.g08.bks.cpg/sg21_14_cif.got.tgz:26905.got - 2010.06.03 23:14:55.
