data_PCOD9324481
_publ_section_title
;
Structure prediction by ZEFSAII (Michael W. Deem and Ramdas Pophale) SiO2 
 PCOD9324481
Probable space group: C 2 2 2
;
_chemical_formula_sum "Si O2"
_cell_formula_units_Z 32
_cell_length_a 14.276693
_cell_length_b 9.041053
_cell_length_c 10.609590
_cell_angle_alpha 90.000000
_cell_angle_beta 90.000000
_cell_angle_gamma 90.000000
_cell_volume 1369.447026
_symmetry_space_group_name_H-M "C 2 2 2"
_symmetry_group_IT_number 21
_symmetry_cell_setting 'orthorhombic'
loop_
_space_group_symop_operation_xyz
x,y,z
-x,-y,z
x,-y,-z
-x,y,-z
1/2+x,1/2+y,z
1/2-x,1/2-y,z
1/2+x,1/2-y,-z
1/2-x,1/2+y,-z
loop_
_atom_site_type_symbol
_atom_site_label
_atom_site_fract_x
_atom_site_fract_y
_atom_site_fract_z
Si Si1 0.970979 0.154905 0.699999
Si Si2 0.851726 0.681875 0.805946
Si Si3 0.159674 0.161696 0.061168
Si Si4 0.892694 0.441267 0.627502
O O1 0.917333 0.132383 0.832910
O O2 0.903280 0.265516 0.625619
O O3 0.068308 0.237041 0.727109
O O4 0.000000 0.000000 0.643351
O O5 0.750000 0.750000 0.782742
O O6 0.851797 0.514068 0.754718
O O7 0.873842 0.726246 0.950166
O O8 0.250000 0.250000 0.112043
O O9 0.182791 0.000000 0.000000
O O10 0.845777 0.500000 0.500000
O O11 0.000000 0.500000 0.626743
#
# Coordination Sequence:
#
# PCOD9324481 Si02
#       4
#     8   8   8   8
#     4  11  22  39  68  95 130 174 212 278 337 394
#     4  10  22  40  64  92 134 172 218 270 324 395
#     4  11  24  39  65  99 136 168 217 271 337 409
#     4   9  21  43  65  91 128 173 229 275 327 399
#
# _framework density 23.367094999999999
#
# number of rings (size 3 to 8) (size 9 to 14) (size 15 to 20)
#    0.000    1.750    2.500    0.750    7.000    0.000 
#    0.000   17.500    0.000    0.000    0.000    0.000 
#    0.000    0.000    0.000    0.000    0.000    0.000 
#
# Total GULP energy -89315.816644 kJ/mol
# GULP energy per Si atom -5582.238540 kJ/mol
# Density = 2.331391 g / cm^3
# Si number density = 23.367095 Si / 1000 Ang^3
#
#
#
# Elastic Constant Matrix: (Units=GPa)
#
#
# Indices 1 2 3 4 5 6 
#
# 1 68.4445 18.1799 17.2119 0.0000 0.0000 0.0000
# 2 18.1799 176.1786 66.0782 0.0000 0.0000 0.0000
# 3 17.2119 66.0782 98.4321 0.0000 0.0000 0.0000
# 4 0.0000 0.0000 0.0000 4.7044 0.0000 0.0000
# 5 0.0000 0.0000 0.0000 0.0000 1.1446 0.0000
# 6 0.0000 0.0000 0.0000 0.0000 0.0000 24.1829
#
#
#
# Elastic Compliance Matrix: (Units=1/GPa)
#
#
# Indices 1 2 3 4 5 6 
#
# 1 0.015361 -0.000772 -0.002168 0.000000 0.000000 0.000000
# 2 -0.000772 0.007625 -0.004984 0.000000 0.000000 0.000000
# 3 -0.002168 -0.004984 0.013884 0.000000 0.000000 0.000000
# 4 0.000000 0.000000 0.000000 0.212566 0.000000 0.000000
# 5 0.000000 0.000000 0.000000 0.000000 0.873652 0.000000
# 6 0.000000 0.000000 0.000000 0.000000 0.000000 0.041352
#
#
# Mechanical properties :
#
#
# Convention : Reuss Voigt Hill
#
# Bulk Modulus (GPa) = 47.56784 60.66613 54.11699
# Shear Modulus (GPa) = 4.21126 22.11206 13.16166
#
# Velocity S-wave (km/s) = 1.34392 3.07952 2.37588
# Velocity P-wave (km/s) = 4.77589 6.21797 5.54402
#
# Compressibility (1/GPa) = 0.02102261
#
# Stress axis : x y z
#
# Youngs Moduli (GPa) = 65.10180 131.14886 72.02579
#
# Poissons Ratio (x) = 0.10125 0.15613
# Poissons Ratio (y) = 0.05026 0.35895
# Poissons Ratio (z) = 0.14112 0.65360
#
# Static dielectric constant tensor:
#      x y z
#    x 1.843920 0.000000 0.000000 
#    y 0.000000 1.985450 0.000000 
#    z 0.000000 0.000000 1.950240 
# 
# From -- ./inp_files/21817.got.cif
#   From: 2010.05.17/outbox.cif.g08.bks.cpg/sg21_11_cif.got.tgz:21817.got - 2010.06.03 23:14:55.
