data_PCOD9324897
_publ_section_title
;
Structure prediction by ZEFSAII (Michael W. Deem and Ramdas Pophale) SiO2 
 PCOD9324897
Probable space group: C 2 2 2
;
_chemical_formula_sum "Si O2"
_cell_formula_units_Z 58
_cell_length_a 9.625213
_cell_length_b 26.039900
_cell_length_c 11.006282
_cell_angle_alpha 90.000000
_cell_angle_beta 90.000000
_cell_angle_gamma 90.000000
_cell_volume 2758.609942
_symmetry_space_group_name_H-M "C 2 2 2"
_symmetry_group_IT_number 21
_symmetry_cell_setting 'orthorhombic'
loop_
_space_group_symop_operation_xyz
x,y,z
-x,-y,z
x,-y,-z
-x,y,-z
1/2+x,1/2+y,z
1/2-x,1/2-y,z
1/2+x,1/2-y,-z
1/2-x,1/2+y,-z
loop_
_atom_site_type_symbol
_atom_site_label
_atom_site_fract_x
_atom_site_fract_y
_atom_site_fract_z
Si Si1 0.500000 0.500000 0.500000
Si Si2 0.640421 0.966896 0.241410
Si Si3 0.149314 0.623819 0.944181
Si Si4 0.654449 0.892983 0.479837
Si Si5 0.315540 0.557766 0.311695
Si Si6 0.168289 0.797557 0.831653
Si Si7 0.081052 0.127400 0.895039
Si Si8 0.347000 0.705191 0.553112
O O1 0.412207 0.536118 0.415227
O O2 0.641016 0.931167 0.122011
O O3 0.656138 0.933355 0.366521
O O4 0.500000 0.000000 0.247152
O O5 0.761674 0.009251 0.235673
O O6 0.211770 0.659443 0.837980
O O7 0.264739 0.633087 0.049246
O O8 0.000000 0.636680 0.000000
O O9 0.500000 0.871386 0.500000
O O10 0.690324 0.918674 0.609800
O O11 0.766261 0.848484 0.458635
O O12 0.396817 0.598300 0.230040
O O13 0.250000 0.750000 0.895227
O O14 0.135608 0.782123 0.695090
O O15 0.024441 0.824099 0.877301
O O16 0.000000 0.095906 0.000000
O O17 0.500000 0.702191 0.500000
O O18 0.250000 0.750000 0.497874
#
# Coordination Sequence:
#
# PCOD9324897 Si02
#       8
#     2   8   8   8   8   8   8   8
#     4  12  28  36  60 100 136 184 250 286 352 428
#     4  12  24  44  65  98 142 191 248 291 354 421
#     4  11  25  45  70 102 140 190 241 302 356 425
#     4  12  24  42  71 100 141 191 242 306 347 430
#     4  12  26  40  66 100 143 192 245 294 357 424
#     4  10  23  47  73 100 138 183 234 299 365 434
#     4  10  25  45  67 100 140 182 238 297 360 428
#     4  11  24  44  73 108 148 189 236 297 375 442
#
# _framework density 21.025082000000001
#
# number of rings (size 3 to 8) (size 9 to 14) (size 15 to 20)
#    0.000    0.828    4.138    2.069    6.759    3.586 
#    0.000    0.000    0.000    4.138    0.000    0.000 
#    0.000    0.000    0.000    0.000    0.000    0.000 
#
# Total GULP energy -161746.385303 kJ/mol
# GULP energy per Si atom -5577.461562 kJ/mol
# Density = 2.097723 g / cm^3
# Si number density = 21.025082 Si / 1000 Ang^3
#
#
#
# Elastic Constant Matrix: (Units=GPa)
#
#
# Indices 1 2 3 4 5 6 
#
# 1 185.6098 64.8341 52.2373 0.0000 0.0000 0.0000
# 2 64.8341 104.1816 23.1678 0.0000 0.0000 0.0000
# 3 52.2373 23.1678 80.3410 0.0000 0.0000 0.0000
# 4 0.0000 0.0000 0.0000 16.0761 0.0000 0.0000
# 5 0.0000 0.0000 0.0000 0.0000 31.7455 0.0000
# 6 0.0000 0.0000 0.0000 0.0000 0.0000 43.0286
#
#
#
# Elastic Compliance Matrix: (Units=1/GPa)
#
#
# Indices 1 2 3 4 5 6 
#
# 1 0.007921 -0.004044 -0.003984 0.000000 0.000000 0.000000
# 2 -0.004044 0.012320 -0.000924 0.000000 0.000000 0.000000
# 3 -0.003984 -0.000924 0.015304 0.000000 0.000000 0.000000
# 4 0.000000 0.000000 0.000000 0.062204 0.000000 0.000000
# 5 0.000000 0.000000 0.000000 0.000000 0.031501 0.000000
# 6 0.000000 0.000000 0.000000 0.000000 0.000000 0.023240
#
#
# Mechanical properties :
#
#
# Convention : Reuss Voigt Hill
#
# Bulk Modulus (GPa) = 56.68166 72.29008 64.48587
# Shear Modulus (GPa) = 28.36473 33.49624 30.93049
#
# Velocity S-wave (km/s) = 3.67698 3.99577 3.83968
# Velocity P-wave (km/s) = 6.71152 7.46630 7.09895
#
# Compressibility (1/GPa) = 0.01764239
#
# Stress axis : x y z
#
# Youngs Moduli (GPa) = 126.23942 81.16590 65.34249
#
# Poissons Ratio (x) = 0.32820 0.26035
# Poissons Ratio (y) = 0.51046 0.06036
# Poissons Ratio (z) = 0.50299 0.07497
#
# Static dielectric constant tensor:
#      x y z
#    x 1.810320 0.000000 0.000000 
#    y 0.000000 1.766010 0.000000 
#    z 0.000000 0.000000 1.789280 
# 
# From -- ./inp_files/22989.got.cif
#   From: 2010.05.17/outbox.cif.g08.bks.cpg/sg21_12_cif.got.tgz:22989.got - 2010.06.03 23:14:55.
