data_PCOD9324527
_publ_section_title
;
Structure prediction by ZEFSAII (Michael W. Deem and Ramdas Pophale) SiO2 
 PCOD9324527
Probable space group: C 2 2 2
;
_chemical_formula_sum "Si O2"
_cell_formula_units_Z 32
_cell_length_a 5.174036
_cell_length_b 36.745102
_cell_length_c 7.233765
_cell_angle_alpha 90.000000
_cell_angle_beta 90.000000
_cell_angle_gamma 90.000000
_cell_volume 1375.286878
_symmetry_space_group_name_H-M "C 2 2 2"
_symmetry_group_IT_number 21
_symmetry_cell_setting 'orthorhombic'
loop_
_space_group_symop_operation_xyz
x,y,z
-x,-y,z
x,-y,-z
-x,y,-z
1/2+x,1/2+y,z
1/2-x,1/2-y,z
1/2+x,1/2-y,-z
1/2-x,1/2+y,-z
loop_
_atom_site_type_symbol
_atom_site_label
_atom_site_fract_x
_atom_site_fract_y
_atom_site_fract_z
Si Si1 0.616576 0.714679 0.198011
Si Si2 0.247680 0.406180 0.633000
Si Si3 0.106547 0.672465 0.292354
Si Si4 0.751718 0.016771 0.207849
O O1 0.750000 0.750000 0.288312
O O2 0.362675 0.697359 0.288708
O O3 0.855451 0.686442 0.179725
O O4 0.500000 0.726261 0.000000
O O5 0.500000 0.403493 0.500000
O O6 0.200746 0.368606 0.742816
O O7 0.263709 0.440117 0.772044
O O8 0.000000 0.411774 0.500000
O O9 0.000000 0.672478 0.500000
O O10 0.500000 0.000000 0.296169
O O11 0.000000 0.000000 0.300116
O O12 0.751236 0.000000 0.000000
#
# Coordination Sequence:
#
# PCOD9324527 Si02
#       4
#     8   8   8   8
#     4  12  25  46  70 100 142 184 229 283 343 406
#     4  11  23  42  68  96 136 178 222 282 343 403
#     4  11  24  45  70 102 139 180 235 284 341 411
#     4  10  22  41  62  93 133 170 218 284 326 407
#
# _framework density 23.267875
#
# number of rings (size 3 to 8) (size 9 to 14) (size 15 to 20)
#    0.000    1.000    0.000    8.250    0.000    5.000 
#   13.500    2.500    0.000    0.000    0.000    0.000 
#    0.000    0.000    0.000    0.000    0.000    0.000 
#
# Total GULP energy -89398.381617 kJ/mol
# GULP energy per Si atom -5587.398851 kJ/mol
# Density = 2.321492 g / cm^3
# Si number density = 23.267875 Si / 1000 Ang^3
#
#
#
# Elastic Constant Matrix: (Units=GPa)
#
#
# Indices 1 2 3 4 5 6 
#
# 1 236.0700 81.0225 19.3201 0.0000 0.0000 0.0000
# 2 81.0225 198.3976 23.0612 0.0000 0.0000 0.0000
# 3 19.3201 23.0612 52.3165 0.0000 0.0000 0.0000
# 4 0.0000 0.0000 0.0000 36.4328 0.0000 0.0000
# 5 0.0000 0.0000 0.0000 0.0000 -9.0953 0.0000
# 6 0.0000 0.0000 0.0000 0.0000 0.0000 43.4529
#
#
#
# Elastic Compliance Matrix: (Units=1/GPa)
#
#
# Indices 1 2 3 4 5 6 
#
# 1 0.004975 -0.001916 -0.000992 0.000000 0.000000 0.000000
# 2 -0.001916 0.006051 -0.001959 0.000000 0.000000 0.000000
# 3 -0.000992 -0.001959 0.020345 0.000000 0.000000 0.000000
# 4 0.000000 0.000000 0.000000 0.027448 0.000000 0.000000
# 5 0.000000 0.000000 0.000000 0.000000 -0.109947 0.000000
# 6 0.000000 0.000000 0.000000 0.000000 0.000000 0.023013
#
#
# Mechanical properties :
#
#
# Convention : Reuss Voigt Hill
#
# Bulk Modulus (GPa) = 46.22400 81.51019 63.86709
# Shear Modulus (GPa) = -447.73939 38.38343 -204.67798
#
# Velocity S-wave (km/s) = -13.88690 4.06597 -9.38919
# Velocity P-wave (km/s) = 15.40191 7.55977 9.48864
#
# Compressibility (1/GPa) = 0.02163378
#
# Stress axis : x y z
#
# Youngs Moduli (GPa) = 201.00619 165.26873 49.15282
#
# Poissons Ratio (x) = 0.31671 0.04878
# Poissons Ratio (y) = 0.38520 0.09631
# Poissons Ratio (z) = 0.19950 0.32384
#
# Static dielectric constant tensor:
#      x y z
#    x 1.883770 0.000000 0.000000 
#    y 0.000000 1.891970 0.000000 
#    z 0.000000 0.000000 1.879050 
# 
# From -- ./inp_files/9180.got.cif
#   From: 2010.05.17/outbox.cif.g08.bks.cpg/sg21_5_cif.got.tgz:9180.got - 2010.06.03 23:14:55.
