data_PCOD9324579
_publ_section_title
;
Structure prediction by ZEFSAII (Michael W. Deem and Ramdas Pophale) SiO2 
 PCOD9324579
Probable space group: C 2 2 2
;
_chemical_formula_sum "Si O2"
_cell_formula_units_Z 48
_cell_length_a 13.745666
_cell_length_b 5.462736
_cell_length_c 29.332725
_cell_angle_alpha 90.000000
_cell_angle_beta 90.000000
_cell_angle_gamma 90.000000
_cell_volume 2202.563360
_symmetry_space_group_name_H-M "C 2 2 2"
_symmetry_group_IT_number 21
_symmetry_cell_setting 'orthorhombic'
loop_
_space_group_symop_operation_xyz
x,y,z
-x,-y,z
x,-y,-z
-x,y,-z
1/2+x,1/2+y,z
1/2-x,1/2-y,z
1/2+x,1/2-y,-z
1/2-x,1/2+y,-z
loop_
_atom_site_type_symbol
_atom_site_label
_atom_site_fract_x
_atom_site_fract_y
_atom_site_fract_z
Si Si1 0.437837 0.751116 0.374099
Si Si2 0.750000 0.750000 0.228456
Si Si3 0.500000 0.000000 0.885263
Si Si4 0.690452 0.995695 0.054364
Si Si5 0.891994 0.113811 0.278191
Si Si6 0.634829 0.248963 0.476256
Si Si7 0.357647 0.133891 0.814244
O O1 0.500000 0.500000 0.376182
O O2 0.374879 0.725774 0.328028
O O3 0.385974 0.761814 0.422663
O O4 0.500000 0.000000 0.369124
O O5 0.692803 0.568393 0.261918
O O6 0.831018 0.649123 0.193305
O O7 0.409523 0.954025 0.918573
O O8 0.557157 0.819366 0.850032
O O9 0.750000 0.750000 0.064535
O O10 0.750000 0.250000 0.065244
O O11 0.672140 0.000000 0.000000
O O12 0.891955 0.298453 0.236208
O O13 0.000000 0.000000 0.279654
O O14 0.600240 0.500000 0.500000
O O15 0.750000 0.250000 0.482418
O O16 0.599617 0.000000 0.500000
O O17 0.250000 0.250000 0.823727
#
# Coordination Sequence:
#
# PCOD9324579 Si02
#       7
#     8   4   4   8   8   8   8
#     4  11  25  41  65  95 126 167 218 271 331 405
#     4  10  22  42  64  90 130 186 216 292 338 402
#     4  12  23  40  72 100 140 192 229 300 358 416
#     4  10  24  48  73 105 146 186 241 297 349 425
#     4  10  23  42  64  92 132 176 232 278 338 412
#     4  10  22  42  63  92 126 162 207 267 332 404
#     4  10  23  41  62  96 137 179 234 282 348 412
#
# _framework density 21.792788000000002
#
# number of rings (size 3 to 8) (size 9 to 14) (size 15 to 20)
#    0.000    1.667    0.000    2.750    7.000    4.667 
#   13.500    2.500    0.000    0.000    0.000    0.000 
#    0.000    0.000    0.000    0.000    0.000    0.000 
#
# Total GULP energy -133760.918220 kJ/mol
# GULP energy per Si atom -5573.371592 kJ/mol
# Density = 2.174319 g / cm^3
# Si number density = 21.792788 Si / 1000 Ang^3
#
#
#
# Elastic Constant Matrix: (Units=GPa)
#
#
# Indices 1 2 3 4 5 6 
#
# 1 146.9896 49.8319 74.0838 0.0000 0.0000 0.0000
# 2 49.8319 123.0987 49.3113 0.0000 0.0000 0.0000
# 3 74.0838 49.3113 149.0945 0.0000 0.0000 0.0000
# 4 0.0000 0.0000 0.0000 -21.2279 0.0000 0.0000
# 5 0.0000 0.0000 0.0000 0.0000 67.3914 0.0000
# 6 0.0000 0.0000 0.0000 0.0000 0.0000 -6.5107
#
#
#
# Elastic Compliance Matrix: (Units=1/GPa)
#
#
# Indices 1 2 3 4 5 6 
#
# 1 0.009600 -0.002277 -0.004017 0.000000 0.000000 0.000000
# 2 -0.002277 0.009904 -0.002144 0.000000 0.000000 0.000000
# 3 -0.004017 -0.002144 0.009412 0.000000 0.000000 0.000000
# 4 0.000000 0.000000 0.000000 -0.047108 0.000000 0.000000
# 5 0.000000 0.000000 0.000000 0.000000 0.014839 0.000000
# 6 0.000000 0.000000 0.000000 0.000000 0.000000 -0.153593
#
#
# Mechanical properties :
#
#
# Convention : Reuss Voigt Hill
#
# Bulk Modulus (GPa) = 83.05724 85.07077 84.06401
# Shear Modulus (GPa) = -36.74967 24.32761 -6.21103
#
# Velocity S-wave (km/s) = -4.11094 3.34475 -1.69004
# Velocity P-wave (km/s) = 3.95751 7.35102 5.90336
#
# Compressibility (1/GPa) = 0.01203989
#
# Stress axis : x y z
#
# Youngs Moduli (GPa) = 104.17009 100.96636 106.24350
#
# Poissons Ratio (x) = 0.22990 0.42677
# Poissons Ratio (y) = 0.23719 0.22782
# Poissons Ratio (z) = 0.41844 0.21651
#
# Static dielectric constant tensor:
#      x y z
#    x 1.803080 0.000000 0.000000 
#    y 0.000000 1.824410 0.000000 
#    z 0.000000 0.000000 1.797140 
# 
# From -- ./inp_files/39339.got.cif
#   From: 2010.05.17/outbox.cif.g08.bks.cpg/sg21_20_cif.got.tgz:39339.got - 2010.06.03 23:14:55.
