data_PCOD9324906
_publ_section_title
;
Structure prediction by ZEFSAII (Michael W. Deem and Ramdas Pophale) SiO2 
 PCOD9324906
Probable space group: C 2 2 2
;
_chemical_formula_sum "Si O2"
_cell_formula_units_Z 32
_cell_length_a 27.365158
_cell_length_b 4.887744
_cell_length_c 11.513877
_cell_angle_alpha 90.000000
_cell_angle_beta 90.000000
_cell_angle_gamma 90.000000
_cell_volume 1540.025801
_symmetry_space_group_name_H-M "C 2 2 2"
_symmetry_group_IT_number 21
_symmetry_cell_setting 'orthorhombic'
loop_
_space_group_symop_operation_xyz
x,y,z
-x,-y,z
x,-y,-z
-x,y,-z
1/2+x,1/2+y,z
1/2-x,1/2-y,z
1/2+x,1/2-y,-z
1/2-x,1/2+y,-z
loop_
_atom_site_type_symbol
_atom_site_label
_atom_site_fract_x
_atom_site_fract_y
_atom_site_fract_z
Si Si1 0.134042 0.198052 0.327529
Si Si2 0.500000 0.000000 0.791516
Si Si3 0.593436 0.244602 0.918507
Si Si4 0.283675 0.500000 0.500000
Si Si5 0.927283 0.693471 0.608225
O O1 0.128339 0.174876 0.189175
O O2 0.182512 0.111494 0.395033
O O3 0.119663 0.512120 0.352509
O O4 0.092369 0.003158 0.384961
O O5 0.541392 0.149482 0.865814
O O6 0.469131 0.189322 0.704868
O O7 0.585076 0.500000 0.000000
O O8 0.612553 0.000000 0.000000
O O9 0.250000 0.250000 0.540017
O O10 0.943888 0.500000 0.500000
#
# Coordination Sequence:
#
# PCOD9324906 Si02
#       5
#     8   4   8   4   8
#     4  11  23  41  62  93 125 162 207 255 328 386
#     4  10  24  34  58  90 122 173 229 258 290 344
#     4  11  24  41  61  87 129 178 222 266 298 357
#     4  12  24  42  72  99 124 149 196 270 336 408
#     4  11  20  37  57  85 133 172 205 257 306 375
#
# _framework density 20.778872
#
# number of rings (size 3 to 8) (size 9 to 14) (size 15 to 20)
#    0.000    1.000    2.500    5.250    0.000   12.000 
#    0.000    5.000    0.000    3.000    0.000    0.000 
#    0.000    0.000    0.000    0.000    0.000    0.000 
#
# Total GULP energy -89302.341350 kJ/mol
# GULP energy per Si atom -5581.396334 kJ/mol
# Density = 2.073158 g / cm^3
# Si number density = 20.778872 Si / 1000 Ang^3
#
#
#
# Elastic Constant Matrix: (Units=GPa)
#
#
# Indices 1 2 3 4 5 6 
#
# 1 90.2896 11.9517 35.8033 0.0000 0.0000 0.0000
# 2 11.9517 92.1509 17.8670 0.0000 0.0000 0.0000
# 3 35.8033 17.8670 151.8278 0.0000 0.0000 0.0000
# 4 0.0000 0.0000 0.0000 23.0438 0.0000 0.0000
# 5 0.0000 0.0000 0.0000 0.0000 19.6195 0.0000
# 6 0.0000 0.0000 0.0000 0.0000 0.0000 11.1549
#
#
#
# Elastic Compliance Matrix: (Units=1/GPa)
#
#
# Indices 1 2 3 4 5 6 
#
# 1 0.012318 -0.001059 -0.002780 0.000000 0.000000 0.000000
# 2 -0.001059 0.011196 -0.001068 0.000000 0.000000 0.000000
# 3 -0.002780 -0.001068 0.007368 0.000000 0.000000 0.000000
# 4 0.000000 0.000000 0.000000 0.043396 0.000000 0.000000
# 5 0.000000 0.000000 0.000000 0.000000 0.050970 0.000000
# 6 0.000000 0.000000 0.000000 0.000000 0.000000 0.089647
#
#
# Mechanical properties :
#
#
# Convention : Reuss Voigt Hill
#
# Bulk Modulus (GPa) = 47.46429 51.72358 49.59393
# Shear Modulus (GPa) = 21.57678 28.67337 25.12507
#
# Velocity S-wave (km/s) = 3.22592 3.71877 3.48108
# Velocity P-wave (km/s) = 6.06363 6.58676 6.33060
#
# Compressibility (1/GPa) = 0.02106847
#
# Stress axis : x y z
#
# Youngs Moduli (GPa) = 81.18164 89.31664 135.72752
#
# Poissons Ratio (x) = 0.09455 0.37735
# Poissons Ratio (y) = 0.08594 0.14495
# Poissons Ratio (z) = 0.22570 0.09538
#
# Static dielectric constant tensor:
#      x y z
#    x 1.725900 0.000000 0.000000 
#    y 0.000000 1.731190 0.000000 
#    z 0.000000 0.000000 1.829980 
# 
# From -- ./inp_files/27102.got.cif
#   From: 2010.05.17/outbox.cif.g08.bks.cpg/sg21_14_cif.got.tgz:27102.got - 2010.06.03 23:14:55.
