data_PCOD9324624
_publ_section_title
;
Structure prediction by ZEFSAII (Michael W. Deem and Ramdas Pophale) SiO2 
 PCOD9324624
Probable space group: C 2 2 2
;
_chemical_formula_sum "Si O2"
_cell_formula_units_Z 32
_cell_length_a 10.459012
_cell_length_b 16.442330
_cell_length_c 7.473860
_cell_angle_alpha 90.000000
_cell_angle_beta 90.000000
_cell_angle_gamma 90.000000
_cell_volume 1285.283641
_symmetry_space_group_name_H-M "C 2 2 2"
_symmetry_group_IT_number 21
_symmetry_cell_setting 'orthorhombic'
loop_
_space_group_symop_operation_xyz
x,y,z
-x,-y,z
x,-y,-z
-x,y,-z
1/2+x,1/2+y,z
1/2-x,1/2-y,z
1/2+x,1/2-y,-z
1/2-x,1/2+y,-z
loop_
_atom_site_type_symbol
_atom_site_label
_atom_site_fract_x
_atom_site_fract_y
_atom_site_fract_z
Si Si1 0.743017 0.913635 0.463124
Si Si2 0.788293 0.843860 0.830000
Si Si3 0.550833 0.289987 0.691769
Si Si4 0.386304 0.119415 0.131280
O O1 0.713506 0.877730 0.657261
O O2 0.833945 0.848017 0.367047
O O3 0.631448 0.926122 0.318768
O O4 0.808203 0.000000 0.500000
O O5 0.750000 0.750000 0.846514
O O6 0.938072 0.842007 0.783566
O O7 0.740357 0.887176 0.008124
O O8 0.500000 0.257648 0.500000
O O9 0.588914 0.213890 0.813203
O O10 0.500000 0.094789 0.000000
#
# Coordination Sequence:
#
# PCOD9324624 Si02
#       4
#     8   8   8   8
#     4  11  26  45  67 100 146 188 232 291 367 442
#     4  11  22  42  72 105 135 178 242 307 356 417
#     4  10  22  42  74 105 135 180 242 304 358 418
#     4  12  25  41  74 106 137 186 241 301 356 426
#
# _framework density 24.897227999999998
#
# number of rings (size 3 to 8) (size 9 to 14) (size 15 to 20)
#    0.000    1.000    2.500    5.250    0.000    5.500 
#    0.000    3.750    0.000    9.000    0.000    0.000 
#    0.000    0.000    0.000    0.000    0.000    0.000 
#
# Total GULP energy -89597.417730 kJ/mol
# GULP energy per Si atom -5599.838608 kJ/mol
# Density = 2.484056 g / cm^3
# Si number density = 24.897228 Si / 1000 Ang^3
#
#
#
# Elastic Constant Matrix: (Units=GPa)
#
#
# Indices 1 2 3 4 5 6 
#
# 1 53.4516 7.5786 40.9651 0.0000 0.0000 0.0000
# 2 7.5786 63.8958 13.1257 0.0000 0.0000 0.0000
# 3 40.9651 13.1257 199.2440 0.0000 0.0000 0.0000
# 4 0.0000 0.0000 0.0000 0.6065 0.0000 0.0000
# 5 0.0000 0.0000 0.0000 0.0000 40.7349 0.0000
# 6 0.0000 0.0000 0.0000 0.0000 0.0000 4.3072
#
#
#
# Elastic Compliance Matrix: (Units=1/GPa)
#
#
# Indices 1 2 3 4 5 6 
#
# 1 0.022396 -0.001734 -0.004490 0.000000 0.000000 0.000000
# 2 -0.001734 0.015999 -0.000698 0.000000 0.000000 0.000000
# 3 -0.004490 -0.000698 0.005988 0.000000 0.000000 0.000000
# 4 0.000000 0.000000 0.000000 1.648703 0.000000 0.000000
# 5 0.000000 0.000000 0.000000 0.000000 0.024549 0.000000
# 6 0.000000 0.000000 0.000000 0.000000 0.000000 0.232172
#
#
# Mechanical properties :
#
#
# Convention : Reuss Voigt Hill
#
# Bulk Modulus (GPa) = 32.74423 48.88115 40.81269
# Shear Modulus (GPa) = 2.53315 26.12452 14.32883
#
# Velocity S-wave (km/s) = 1.00978 3.24280 2.40160
# Velocity P-wave (km/s) = 3.81311 5.80489 4.91104
#
# Compressibility (1/GPa) = 0.03053973
#
# Stress axis : x y z
#
# Youngs Moduli (GPa) = 44.65126 62.50223 166.99606
#
# Poissons Ratio (x) = 0.10837 0.74988
# Poissons Ratio (y) = 0.07742 0.11648
# Poissons Ratio (z) = 0.20050 0.04360
#
# Static dielectric constant tensor:
#      x y z
#    x 2.075000 0.000000 0.000000 
#    y 0.000000 1.966180 0.000000 
#    z 0.000000 0.000000 1.962830 
# 
# From -- ./inp_files/3389.got.cif
#   From: 2010.05.17/outbox.cif.g08.bks.cpg/sg21_2_cif.got.tgz:3389.got - 2010.06.03 23:14:55.
