data_PCOD9324612
_publ_section_title
;
Structure prediction by ZEFSAII (Michael W. Deem and Ramdas Pophale) SiO2 
 PCOD9324612
Probable space group: C 2 2 2
;
_chemical_formula_sum "Si O2"
_cell_formula_units_Z 56
_cell_length_a 19.603200
_cell_length_b 15.087730
_cell_length_c 9.036560
_cell_angle_alpha 90.000000
_cell_angle_beta 90.000000
_cell_angle_gamma 90.000000
_cell_volume 2672.723369
_symmetry_space_group_name_H-M "C 2 2 2"
_symmetry_group_IT_number 21
_symmetry_cell_setting 'orthorhombic'
loop_
_space_group_symop_operation_xyz
x,y,z
-x,-y,z
x,-y,-z
-x,y,-z
1/2+x,1/2+y,z
1/2-x,1/2-y,z
1/2+x,1/2-y,-z
1/2-x,1/2+y,-z
loop_
_atom_site_type_symbol
_atom_site_label
_atom_site_fract_x
_atom_site_fract_y
_atom_site_fract_z
Si Si1 0.024134 0.207241 0.328024
Si Si2 0.666831 0.829579 0.758157
Si Si3 0.750000 0.750000 0.998174
Si Si4 0.519275 0.098467 0.323184
Si Si5 0.827713 0.853196 0.226765
Si Si6 0.840362 0.000000 0.000000
Si Si7 0.887822 0.870459 0.759327
Si Si8 0.227821 0.099135 0.529783
O O1 0.096162 0.164247 0.286974
O O2 0.000000 0.212491 0.500000
O O3 0.018075 0.309807 0.271849
O O4 0.967177 0.142196 0.264780
O O5 0.598397 0.885527 0.724873
O O6 0.641377 0.728908 0.768776
O O7 0.716826 0.848638 0.623447
O O8 0.718556 0.830368 0.899229
O O9 0.809430 0.779223 0.108036
O O10 0.500000 0.095955 0.500000
O O11 0.500000 0.000000 0.266744
O O12 0.783853 0.853740 0.374743
O O13 0.809692 0.943472 0.136453
O O14 0.879170 0.924972 0.908359
O O15 0.842953 0.909005 0.623523
O O16 0.252875 0.000000 0.500000
#
# Coordination Sequence:
#
# PCOD9324612 Si02
#       8
#     8   8   4   8   8   4   8   8
#     4  10  22  42  70  99 140 185 241 306 369 438
#     4  11  23  45  71  98 149 193 232 307 381 430
#     4  12  26  46  68 102 148 200 234 296 392 452
#     4   9  21  41  70 105 136 180 247 307 357 435
#     4  12  27  43  68 104 140 190 246 298 366 463
#     4  12  24  47  62 102 140 176 239 296 368 448
#     4  11  22  44  70  97 140 184 236 299 375 436
#     4  12  24  41  70 104 136 186 247 301 355 440
#
# _framework density 20.952411000000001
#
# number of rings (size 3 to 8) (size 9 to 14) (size 15 to 20)
#    0.000    1.000    5.714    0.000    4.000    1.714 
#    0.000    1.429    0.000    0.857    0.000    0.000 
#    0.000    0.000    0.000    0.000    0.000    0.000 
#
# Total GULP energy -155942.518581 kJ/mol
# GULP energy per Si atom -5569.375664 kJ/mol
# Density = 2.090472 g / cm^3
# Si number density = 20.952411 Si / 1000 Ang^3
#
#
#
# Elastic Constant Matrix: (Units=GPa)
#
#
# Indices 1 2 3 4 5 6 
#
# 1 107.9731 33.9660 54.8102 0.0000 0.0000 0.0000
# 2 33.9660 78.3488 47.3249 0.0000 0.0000 0.0000
# 3 54.8102 47.3249 134.1120 0.0000 0.0000 0.0000
# 4 0.0000 0.0000 0.0000 42.0903 0.0000 0.0000
# 5 0.0000 0.0000 0.0000 0.0000 19.2868 0.0000
# 6 0.0000 0.0000 0.0000 0.0000 0.0000 12.3616
#
#
#
# Elastic Compliance Matrix: (Units=1/GPa)
#
#
# Indices 1 2 3 4 5 6 
#
# 1 0.012180 -0.002889 -0.003958 0.000000 0.000000 0.000000
# 2 -0.002889 0.016906 -0.004785 0.000000 0.000000 0.000000
# 3 -0.003958 -0.004785 0.010763 0.000000 0.000000 0.000000
# 4 0.000000 0.000000 0.000000 0.023758 0.000000 0.000000
# 5 0.000000 0.000000 0.000000 0.000000 0.051849 0.000000
# 6 0.000000 0.000000 0.000000 0.000000 0.000000 0.080896
#
#
# Mechanical properties :
#
#
# Convention : Reuss Voigt Hill
#
# Bulk Modulus (GPa) = 60.30020 65.84844 63.07432
# Shear Modulus (GPa) = 22.20795 27.03659 24.62227
#
# Velocity S-wave (km/s) = 3.25918 3.59608 3.43177
# Velocity P-wave (km/s) = 6.55782 6.98128 6.77286
#
# Compressibility (1/GPa) = 0.01658369
#
# Stress axis : x y z
#
# Youngs Moduli (GPa) = 82.10331 59.14952 92.91414
#
# Poissons Ratio (x) = 0.17090 0.36777
# Poissons Ratio (y) = 0.23723 0.44459
# Poissons Ratio (z) = 0.32498 0.28303
#
# Static dielectric constant tensor:
#      x y z
#    x 1.750900 0.000000 0.000000 
#    y 0.000000 1.806140 0.000000 
#    z 0.000000 0.000000 1.929430 
# 
# From -- ./inp_files/17735.got.cif
#   From: 2010.05.17/outbox.cif.g08.bks.cpg/sg21_9_cif.got.tgz:17735.got - 2010.06.03 23:14:55.
