data_PCOD9324616
_publ_section_title
;
Structure prediction by ZEFSAII (Michael W. Deem and Ramdas Pophale) SiO2 
 PCOD9324616
Probable space group: C 2 2 2
;
_chemical_formula_sum "Si O2"
_cell_formula_units_Z 34
_cell_length_a 9.155177
_cell_length_b 19.112086
_cell_length_c 8.097720
_cell_angle_alpha 90.000000
_cell_angle_beta 90.000000
_cell_angle_gamma 90.000000
_cell_volume 1416.894752
_symmetry_space_group_name_H-M "C 2 2 2"
_symmetry_group_IT_number 21
_symmetry_cell_setting 'orthorhombic'
loop_
_space_group_symop_operation_xyz
x,y,z
-x,-y,z
x,-y,-z
-x,y,-z
1/2+x,1/2+y,z
1/2-x,1/2-y,z
1/2+x,1/2-y,-z
1/2-x,1/2+y,-z
loop_
_atom_site_type_symbol
_atom_site_label
_atom_site_fract_x
_atom_site_fract_y
_atom_site_fract_z
Si Si1 0.920189 0.726495 0.330308
Si Si2 0.496131 0.372096 0.801470
Si Si3 0.815595 0.599383 0.133750
Si Si4 0.500000 0.000000 0.500000
Si Si5 0.700060 0.941246 0.766743
O O1 0.750000 0.750000 0.353709
O O2 0.913160 0.659770 0.211291
O O3 0.000000 0.710424 0.500000
O O4 0.010456 0.791500 0.252457
O O5 0.661736 0.393680 0.768365
O O6 0.369004 0.420948 0.729041
O O7 0.500000 0.378130 0.000000
O O8 0.841528 0.518575 0.168628
O O9 0.817690 0.605505 0.934222
O O10 0.395375 0.053593 0.601767
#
# Coordination Sequence:
#
# PCOD9324616 Si02
#       5
#     8   8   8   2   8
#     4  10  22  42  71 112 153 192 248 315 385 452
#     4   9  19  42  72 106 141 195 256 307 375 453
#     4   9  20  42  74 105 141 201 252 316 370 461
#     4  12  28  42  66 116 150 208 246 328 384 448
#     4  10  22  43  70 103 152 197 256 305 383 454
#
# _framework density 23.996136
#
# number of rings (size 3 to 8) (size 9 to 14) (size 15 to 20)
#    0.000    2.353    0.000    0.706    1.647    8.471 
#    4.235    4.706    5.176    0.000    0.000    0.000 
#    0.000    0.000    0.000    0.000    0.000    0.000 
#
# Total GULP energy -94725.914368 kJ/mol
# GULP energy per Si atom -5572.112610 kJ/mol
# Density = 2.394152 g / cm^3
# Si number density = 23.996136 Si / 1000 Ang^3
#
#
#
# Elastic Constant Matrix: (Units=GPa)
#
#
# Indices 1 2 3 4 5 6 
#
# 1 158.9435 63.2886 57.4899 0.0000 0.0000 0.0000
# 2 63.2886 105.2391 25.8279 0.0000 0.0000 0.0000
# 3 57.4899 25.8279 67.5556 0.0000 0.0000 0.0000
# 4 0.0000 0.0000 0.0000 36.0186 0.0000 0.0000
# 5 0.0000 0.0000 0.0000 0.0000 34.0457 0.0000
# 6 0.0000 0.0000 0.0000 0.0000 0.0000 10.9447
#
#
#
# Elastic Compliance Matrix: (Units=1/GPa)
#
#
# Indices 1 2 3 4 5 6 
#
# 1 0.010855 -0.004702 -0.007440 0.000000 0.000000 0.000000
# 2 -0.004702 0.012523 -0.000786 0.000000 0.000000 0.000000
# 3 -0.007440 -0.000786 0.021434 0.000000 0.000000 0.000000
# 4 0.000000 0.000000 0.000000 0.027763 0.000000 0.000000
# 5 0.000000 0.000000 0.000000 0.000000 0.029372 0.000000
# 6 0.000000 0.000000 0.000000 0.000000 0.000000 0.091368
#
#
# Mechanical properties :
#
#
# Convention : Reuss Voigt Hill
#
# Bulk Modulus (GPa) = 52.75394 69.43900 61.09647
# Shear Modulus (GPa) = 22.17384 28.54393 25.35889
#
# Velocity S-wave (km/s) = 3.04313 3.45269 3.25436
# Velocity P-wave (km/s) = 5.86341 6.70038 6.29582
#
# Compressibility (1/GPa) = 0.01895593
#
# Stress axis : x y z
#
# Youngs Moduli (GPa) = 92.12573 79.85422 46.65380
#
# Poissons Ratio (x) = 0.37547 0.34709
# Poissons Ratio (y) = 0.43317 0.03669
# Poissons Ratio (z) = 0.68539 0.06280
#
# Static dielectric constant tensor:
#      x y z
#    x 2.111160 0.000000 0.000000 
#    y 0.000000 1.967340 0.000000 
#    z 0.000000 0.000000 1.995830 
# 
# From -- ./inp_files/10615.got.cif
#   From: 2010.05.17/outbox.cif.g08.bks.cpg/sg21_6_cif.got.tgz:10615.got - 2010.06.03 23:14:55.
