data_PCOD9324169
_publ_section_title
;
Structure prediction by ZEFSAII (Michael W. Deem and Ramdas Pophale) SiO2 
 PCOD9324169
Probable space group: C 2 2 2
;
_chemical_formula_sum "Si O2"
_cell_formula_units_Z 56
_cell_length_a 18.768475
_cell_length_b 19.239345
_cell_length_c 7.316611
_cell_angle_alpha 90.000000
_cell_angle_beta 90.000000
_cell_angle_gamma 90.000000
_cell_volume 2641.978228
_symmetry_space_group_name_H-M "C 2 2 2"
_symmetry_group_IT_number 21
_symmetry_cell_setting 'orthorhombic'
loop_
_space_group_symop_operation_xyz
x,y,z
-x,-y,z
x,-y,-z
-x,y,-z
1/2+x,1/2+y,z
1/2-x,1/2-y,z
1/2+x,1/2-y,-z
1/2-x,1/2+y,-z
loop_
_atom_site_type_symbol
_atom_site_label
_atom_site_fract_x
_atom_site_fract_y
_atom_site_fract_z
Si Si1 0.331597 0.361724 0.167294
Si Si2 0.419681 0.983231 0.219462
Si Si3 0.481342 0.577869 0.715787
Si Si4 0.579044 0.845558 0.931922
Si Si5 0.402042 0.311639 0.814076
Si Si6 0.830118 0.748490 0.469389
Si Si7 0.172424 0.609865 0.727636
O O1 0.399550 0.404987 0.238565
O O2 0.332400 0.289033 0.277326
O O3 0.256287 0.394989 0.225385
O O4 0.344403 0.345185 0.953176
O O5 0.405344 0.901098 0.227801
O O6 0.500000 0.000000 0.279809
O O7 0.363986 0.035901 0.308528
O O8 0.415766 0.000000 0.000000
O O9 0.500000 0.500000 0.778066
O O10 0.500000 0.580698 0.500000
O O11 0.531693 0.636197 0.805147
O O12 0.578789 0.764892 0.885461
O O13 0.500000 0.863978 0.000000
O O14 0.634999 0.860079 0.090771
O O15 0.376064 0.293091 0.610291
O O16 0.750000 0.750000 0.544213
O O17 0.844285 0.668216 0.424202
#
# Coordination Sequence:
#
# PCOD9324169 Si02
#       7
#     8   8   8   8   8   8   8
#     4  11  23  44  68  99 132 173 230 283 351 403
#     4   9  16  35  61  94 132 177 220 265 331 391
#     4  11  25  49  72  96 135 180 227 292 357 429
#     4  11  20  36  65 101 134 177 224 277 333 406
#     4  12  25  40  72  99 132 177 232 279 347 415
#     4  10  23  41  63  99 141 176 224 285 340 402
#     4  10  21  40  67  94 142 181 220 286 338 402
#
# _framework density 21.196237
#
# number of rings (size 3 to 8) (size 9 to 14) (size 15 to 20)
#    0.000    1.429    5.714    1.286    2.000    1.143 
#    7.714    0.714    0.000    0.857    0.000    0.000 
#    0.000    0.000    0.000    0.000    0.000    0.000 
#
# Total GULP energy -156334.745506 kJ/mol
# GULP energy per Si atom -5583.383768 kJ/mol
# Density = 2.114799 g / cm^3
# Si number density = 21.196237 Si / 1000 Ang^3
#
#
#
# Elastic Constant Matrix: (Units=GPa)
#
#
# Indices 1 2 3 4 5 6 
#
# 1 145.2593 76.1179 38.9796 0.0000 0.0000 0.0000
# 2 76.1179 172.2043 28.2816 0.0000 0.0000 0.0000
# 3 38.9796 28.2816 77.0379 0.0000 0.0000 0.0000
# 4 0.0000 0.0000 0.0000 -15.9000 0.0000 0.0000
# 5 0.0000 0.0000 0.0000 0.0000 13.6071 0.0000
# 6 0.0000 0.0000 0.0000 0.0000 0.0000 30.3076
#
#
#
# Elastic Compliance Matrix: (Units=1/GPa)
#
#
# Indices 1 2 3 4 5 6 
#
# 1 0.009811 -0.003747 -0.003588 0.000000 0.000000 0.000000
# 2 -0.003747 0.007611 -0.000898 0.000000 0.000000 0.000000
# 3 -0.003588 -0.000898 0.015126 0.000000 0.000000 0.000000
# 4 0.000000 0.000000 0.000000 -0.062893 0.000000 0.000000
# 5 0.000000 0.000000 0.000000 0.000000 0.073491 0.000000
# 6 0.000000 0.000000 0.000000 0.000000 0.000000 0.032995
#
#
# Mechanical properties :
#
#
# Convention : Reuss Voigt Hill
#
# Bulk Modulus (GPa) = 62.18791 75.69556 68.94174
# Shear Modulus (GPa) = 51.03692 22.34443 36.69067
#
# Velocity S-wave (km/s) = 4.91229 3.25032 4.16504
# Velocity P-wave (km/s) = 7.84710 7.06225 7.46500
#
# Compressibility (1/GPa) = 0.01608029
#
# Stress axis : x y z
#
# Youngs Moduli (GPa) = 101.92878 131.39052 66.11154
#
# Poissons Ratio (x) = 0.49235 0.23723
# Poissons Ratio (y) = 0.38195 0.05937
# Poissons Ratio (z) = 0.36576 0.11799
#
# Static dielectric constant tensor:
#      x y z
#    x 1.749970 0.000000 0.000000 
#    y 0.000000 1.789780 0.000000 
#    z 0.000000 0.000000 1.858980 
# 
# From -- ./inp_files/15315.got.cif
#   From: 2010.05.17/outbox.cif.g08.bks.cpg/sg21_8_cif.got.tgz:15315.got - 2010.06.03 23:14:55.
