data_PCOD9324370
_publ_section_title
;
Structure prediction by ZEFSAII (Michael W. Deem and Ramdas Pophale) SiO2 
 PCOD9324370
Probable space group: C 2 2 2
;
_chemical_formula_sum "Si O2"
_cell_formula_units_Z 38
_cell_length_a 14.718269
_cell_length_b 14.718342
_cell_length_c 10.337980
_cell_angle_alpha 90.000000
_cell_angle_beta 90.000000
_cell_angle_gamma 90.000000
_cell_volume 2239.501274
_symmetry_space_group_name_H-M "C 2 2 2"
_symmetry_group_IT_number 21
_symmetry_cell_setting 'orthorhombic'
loop_
_space_group_symop_operation_xyz
x,y,z
-x,-y,z
x,-y,-z
-x,y,-z
1/2+x,1/2+y,z
1/2-x,1/2-y,z
1/2+x,1/2-y,-z
1/2-x,1/2+y,-z
loop_
_atom_site_type_symbol
_atom_site_label
_atom_site_fract_x
_atom_site_fract_y
_atom_site_fract_z
Si Si1 0.467513 0.688346 0.147719
Si Si2 0.677540 0.177541 0.231609
Si Si3 0.811652 0.032487 0.147720
Si Si4 0.373955 0.373957 0.327693
Si Si5 0.250000 0.750000 0.489806
Si Si6 0.500000 0.500000 0.500000
O O1 0.416887 0.782255 0.183214
O O2 0.395742 0.604257 0.171916
O O3 0.555700 0.679418 0.237036
O O4 0.500000 0.683921 0.000000
O O5 0.750000 0.250000 0.174443
O O6 0.717743 0.083114 0.183214
O O7 0.690557 0.190558 0.386787
O O8 0.820579 0.944302 0.237038
O O9 0.816076 0.000000 0.000000
O O10 0.311908 0.311909 0.418770
O O11 0.436259 0.436260 0.416844
#
# Coordination Sequence:
#
# PCOD9324370 Si02
#       6
#     8   8   8   8   4   2
#     4  11  20  36  59  87 121 149 190 249 299 342
#     4   8  20  39  52  79 125 159 176 245 296 340
#     4  11  20  36  59  87 121 149 190 249 299 342
#     4  12  22  32  59  85 115 151 200 240 289 347
#     4  10  22  38  50  84 128 158 198 224 302 362
#     4  12  20  32  54  88 104 148 196 250 280 332
#
# _framework density 16.968063999999998
#
# number of rings (size 3 to 8) (size 9 to 14) (size 15 to 20)
#    0.632    0.842    4.211    2.526    0.000    1.684 
#    0.000    0.000    0.000    4.421    0.000    5.895 
#    0.000    0.000    0.000    0.000    0.000    0.000 
#
# Total GULP energy -105839.394174 kJ/mol
# GULP energy per Si atom -5570.494430 kJ/mol
# Density = 1.692944 g / cm^3
# Si number density = 16.968064 Si / 1000 Ang^3
#
#
#
# Elastic Constant Matrix: (Units=GPa)
#
#
# Indices 1 2 3 4 5 6 
#
# 1 67.4025 52.3101 31.9504 0.0000 0.0000 0.0000
# 2 52.3101 67.4066 31.9517 0.0000 0.0000 0.0000
# 3 31.9504 31.9517 91.9499 0.0000 0.0000 0.0000
# 4 0.0000 0.0000 0.0000 32.6834 0.0000 0.0000
# 5 0.0000 0.0000 0.0000 0.0000 32.6820 0.0000
# 6 0.0000 0.0000 0.0000 0.0000 0.0000 40.5820
#
#
#
# Elastic Compliance Matrix: (Units=1/GPa)
#
#
# Indices 1 2 3 4 5 6 
#
# 1 0.038254 -0.027997 -0.003563 0.000000 0.000000 0.000000
# 2 -0.027997 0.038251 -0.003564 0.000000 0.000000 0.000000
# 3 -0.003563 -0.003564 0.013352 0.000000 0.000000 0.000000
# 4 0.000000 0.000000 0.000000 0.030597 0.000000 0.000000
# 5 0.000000 0.000000 0.000000 0.000000 0.030598 0.000000
# 6 0.000000 0.000000 0.000000 0.000000 0.000000 0.024641
#
#
# Mechanical properties :
#
#
# Convention : Reuss Voigt Hill
#
# Bulk Modulus (GPa) = 50.99824 51.02039 51.00931
# Shear Modulus (GPa) = 19.80373 28.55926 24.18150
#
# Velocity S-wave (km/s) = 3.42002 4.10703 3.77917
# Velocity P-wave (km/s) = 6.76136 7.25424 7.01214
#
# Compressibility (1/GPa) = 0.01960852
#
# Stress axis : x y z
#
# Youngs Moduli (GPa) = 26.14134 26.14282 74.89486
#
# Poissons Ratio (x) = 0.73192 0.26689
# Poissons Ratio (y) = 0.73188 0.26690
# Poissons Ratio (z) = 0.09315 0.09316
#
# Static dielectric constant tensor:
#      x y z
#    x 1.580300 0.000000 0.000000 
#    y 0.000000 1.580300 0.000000 
#    z 0.000000 0.000000 1.584720 
# 
# From -- ./inp_files/23837.got.cif
#   From: 2010.05.17/outbox.cif.g08.bks.cpg/sg21_12_cif.got.tgz:23837.got - 2010.06.03 23:14:55.
