data_PCOD9324669
_publ_section_title
;
Structure prediction by ZEFSAII (Michael W. Deem and Ramdas Pophale) SiO2 
 PCOD9324669
Probable space group: C 2 2 2
;
_chemical_formula_sum "Si O2"
_cell_formula_units_Z 48
_cell_length_a 10.157726
_cell_length_b 28.091962
_cell_length_c 7.423678
_cell_angle_alpha 90.000000
_cell_angle_beta 90.000000
_cell_angle_gamma 90.000000
_cell_volume 2118.349879
_symmetry_space_group_name_H-M "C 2 2 2"
_symmetry_group_IT_number 21
_symmetry_cell_setting 'orthorhombic'
loop_
_space_group_symop_operation_xyz
x,y,z
-x,-y,z
x,-y,-z
-x,y,-z
1/2+x,1/2+y,z
1/2-x,1/2-y,z
1/2+x,1/2-y,-z
1/2-x,1/2+y,-z
loop_
_atom_site_type_symbol
_atom_site_label
_atom_site_fract_x
_atom_site_fract_y
_atom_site_fract_z
Si Si1 0.367875 0.394309 0.104649
Si Si2 0.735294 0.105722 0.243004
Si Si3 0.151516 0.206935 0.273501
Si Si4 0.844508 0.792289 0.709071
Si Si5 0.025088 0.445147 0.215506
Si Si6 0.698780 0.552558 0.416506
O O1 0.275668 0.416338 0.949070
O O2 0.496011 0.285085 0.767586
O O3 0.500000 0.381652 0.000000
O O4 0.314743 0.345223 0.193238
O O5 0.775167 0.160109 0.221684
O O6 0.585550 0.091345 0.284952
O O7 0.814336 0.086466 0.413077
O O8 0.250000 0.250000 0.218257
O O9 0.157855 0.204570 0.491099
O O10 0.099154 0.067485 0.259888
O O11 0.750000 0.750000 0.766324
O O12 0.165443 0.436231 0.307697
O O13 0.000000 0.500000 0.268143
O O14 0.000000 0.443183 0.000000
O O15 0.695588 0.500000 0.500000
#
# Coordination Sequence:
#
# PCOD9324669 Si02
#       6
#     8   8   8   8   8   8
#     4  12  26  47  74 104 149 201 256 318 376 466
#     4  12  24  43  75 105 147 199 241 308 395 458
#     4  10  22  45  74 104 149 198 251 315 385 467
#     4  10  22  43  73 108 146 193 254 314 386 469
#     4  11  23  43  73 107 148 186 242 310 375 451
#     4  12  26  47  75 105 145 199 252 317 387 455
#
# _framework density 22.659144000000001
#
# number of rings (size 3 to 8) (size 9 to 14) (size 15 to 20)
#    0.000    0.833    6.667    0.500    0.000    3.333 
#    6.000    2.500    0.000    0.000    0.000    0.000 
#    0.000    0.000    0.000    0.000    0.000    0.000 
#
# Total GULP energy -134014.499762 kJ/mol
# GULP energy per Si atom -5583.937490 kJ/mol
# Density = 2.260757 g / cm^3
# Si number density = 22.659144 Si / 1000 Ang^3
#
#
#
# Elastic Constant Matrix: (Units=GPa)
#
#
# Indices 1 2 3 4 5 6 
#
# 1 104.8046 47.8228 15.5656 0.0000 0.0000 0.0000
# 2 47.8228 99.0979 47.6409 0.0000 0.0000 0.0000
# 3 15.5656 47.6409 142.7047 0.0000 0.0000 0.0000
# 4 0.0000 0.0000 0.0000 197.3619 0.0000 0.0000
# 5 0.0000 0.0000 0.0000 0.0000 28.4746 0.0000
# 6 0.0000 0.0000 0.0000 0.0000 0.0000 32.1933
#
#
#
# Elastic Compliance Matrix: (Units=1/GPa)
#
#
# Indices 1 2 3 4 5 6 
#
# 1 0.012305 -0.006305 0.000763 0.000000 0.000000 0.000000
# 2 -0.006305 0.015251 -0.004404 0.000000 0.000000 0.000000
# 3 0.000763 -0.004404 0.008394 0.000000 0.000000 0.000000
# 4 0.000000 0.000000 0.000000 0.005067 0.000000 0.000000
# 5 0.000000 0.000000 0.000000 0.000000 0.035119 0.000000
# 6 0.000000 0.000000 0.000000 0.000000 0.000000 0.031062
#
#
# Mechanical properties :
#
#
# Convention : Reuss Voigt Hill
#
# Bulk Modulus (GPa) = 62.27205 63.18509 62.72857
# Shear Modulus (GPa) = 37.75201 67.31115 52.53158
#
# Velocity S-wave (km/s) = 4.08620 5.45623 4.82014
# Velocity P-wave (km/s) = 7.05722 8.22432 7.66302
#
# Compressibility (1/GPa) = 0.01605857
#
# Stress axis : x y z
#
# Youngs Moduli (GPa) = 81.26598 65.57072 119.12694
#
# Poissons Ratio (x) = 0.41342 -0.09085
# Poissons Ratio (y) = 0.51238 0.52459
# Poissons Ratio (z) = -0.06198 0.28875
#
# Static dielectric constant tensor:
#      x y z
#    x 1.614970 0.000000 0.000000 
#    y 0.000000 1.849900 0.000000 
#    z 0.000000 0.000000 1.885250 
# 
# From -- ./inp_files/13350.got.cif
#   From: 2010.05.17/outbox.cif.g08.bks.cpg/sg21_7_cif.got.tgz:13350.got - 2010.06.03 23:14:55.
