data_PCOD9324336
_publ_section_title
;
Structure prediction by ZEFSAII (Michael W. Deem and Ramdas Pophale) SiO2 
 PCOD9324336
Probable space group: C 2 2 2
;
_chemical_formula_sum "Si O2"
_cell_formula_units_Z 40
_cell_length_a 5.049982
_cell_length_b 31.919208
_cell_length_c 11.684010
_cell_angle_alpha 90.000000
_cell_angle_beta 90.000000
_cell_angle_gamma 90.000000
_cell_volume 1883.362232
_symmetry_space_group_name_H-M "C 2 2 2"
_symmetry_group_IT_number 21
_symmetry_cell_setting 'orthorhombic'
loop_
_space_group_symop_operation_xyz
x,y,z
-x,-y,z
x,-y,-z
-x,y,-z
1/2+x,1/2+y,z
1/2-x,1/2-y,z
1/2+x,1/2-y,-z
1/2-x,1/2+y,-z
loop_
_atom_site_type_symbol
_atom_site_label
_atom_site_fract_x
_atom_site_fract_y
_atom_site_fract_z
Si Si1 0.262624 0.860605 0.926998
Si Si2 0.661337 0.169450 0.387137
Si Si3 0.014061 0.723435 0.178123
Si Si4 0.328639 0.384761 0.324462
Si Si5 0.741598 0.519728 0.371738
O O1 0.402594 0.817620 0.884885
O O2 0.157486 0.884055 0.813195
O O3 0.500000 0.881974 0.000000
O O4 0.000000 0.851729 0.000000
O O5 0.500000 0.185203 0.500000
O O6 0.651686 0.205684 0.292940
O O7 0.459871 0.133479 0.349094
O O8 0.948202 0.146365 0.378407
O O9 0.250000 0.750000 0.117967
O O10 0.750000 0.750000 0.202540
O O11 0.313934 0.431146 0.375646
O O12 0.500000 0.500000 0.305430
O O13 0.745413 0.500000 0.500000
O O14 0.000000 0.500000 0.316976
#
# Coordination Sequence:
#
# PCOD9324336 Si02
#       5
#     8   8   8   8   8
#     4  11  23  42  66  91 121 170 223 269 337 387
#     4  11  24  38  62  90 125 179 212 251 322 405
#     4  11  23  41  61  90 128 160 217 282 327 381
#     4  11  23  41  62  92 133 163 213 267 313 394
#     4  10  22  36  60  94 128 161 196 252 320 384
#
# _framework density 21.238610999999999
#
# number of rings (size 3 to 8) (size 9 to 14) (size 15 to 20)
#    0.000    1.200    0.000    7.800    8.400    2.400 
#    0.000    2.000    0.000    3.600    0.000    0.000 
#    0.000    0.000    0.000    0.000    0.000    0.000 
#
# Total GULP energy -111419.118729 kJ/mol
# GULP energy per Si atom -5570.955936 kJ/mol
# Density = 2.119027 g / cm^3
# Si number density = 21.238611 Si / 1000 Ang^3
#
#
#
# Elastic Constant Matrix: (Units=GPa)
#
#
# Indices 1 2 3 4 5 6 
#
# 1 155.3389 29.2434 19.5340 0.0000 0.0000 0.0000
# 2 29.2434 93.2864 18.8339 0.0000 0.0000 0.0000
# 3 19.5340 18.8339 104.5211 0.0000 0.0000 0.0000
# 4 0.0000 0.0000 0.0000 13.9451 0.0000 0.0000
# 5 0.0000 0.0000 0.0000 0.0000 22.9532 0.0000
# 6 0.0000 0.0000 0.0000 0.0000 0.0000 29.9406
#
#
#
# Elastic Compliance Matrix: (Units=1/GPa)
#
#
# Indices 1 2 3 4 5 6 
#
# 1 0.006929 -0.001983 -0.000938 0.000000 0.000000 0.000000
# 2 -0.001983 0.011692 -0.001736 0.000000 0.000000 0.000000
# 3 -0.000938 -0.001736 0.010056 0.000000 0.000000 0.000000
# 4 0.000000 0.000000 0.000000 0.071710 0.000000 0.000000
# 5 0.000000 0.000000 0.000000 0.000000 0.043567 0.000000
# 6 0.000000 0.000000 0.000000 0.000000 0.000000 0.033399
#
#
# Mechanical properties :
#
#
# Convention : Reuss Voigt Hill
#
# Bulk Modulus (GPa) = 51.64525 54.26322 52.95424
# Shear Modulus (GPa) = 25.89067 32.40344 29.14706
#
# Velocity S-wave (km/s) = 3.49526 3.91024 3.70856
# Velocity P-wave (km/s) = 6.37641 6.78170 6.58217
#
# Compressibility (1/GPa) = 0.01936286
#
# Stress axis : x y z
#
# Youngs Moduli (GPa) = 144.32718 85.53042 99.44768
#
# Poissons Ratio (x) = 0.16958 0.09325
# Poissons Ratio (y) = 0.28616 0.17266
# Poissons Ratio (z) = 0.13533 0.14850
#
# Static dielectric constant tensor:
#      x y z
#    x 1.808420 0.000000 0.000000 
#    y 0.000000 1.846150 0.000000 
#    z 0.000000 0.000000 1.890700 
# 
# From -- ./inp_files/21180.got.cif
#   From: 2010.05.17/outbox.cif.g08.bks.cpg/sg21_11_cif.got.tgz:21180.got - 2010.06.03 23:14:55.
