data_PCOD9324675
_publ_section_title
;
Structure prediction by ZEFSAII (Michael W. Deem and Ramdas Pophale) SiO2 
 PCOD9324675
Probable space group: C 2 2 2
;
_chemical_formula_sum "Si O2"
_cell_formula_units_Z 26
_cell_length_a 7.167605
_cell_length_b 23.298660
_cell_length_c 8.257103
_cell_angle_alpha 90.000000
_cell_angle_beta 90.000000
_cell_angle_gamma 90.000000
_cell_volume 1378.899803
_symmetry_space_group_name_H-M "C 2 2 2"
_symmetry_group_IT_number 21
_symmetry_cell_setting 'orthorhombic'
loop_
_space_group_symop_operation_xyz
x,y,z
-x,-y,z
x,-y,-z
-x,y,-z
1/2+x,1/2+y,z
1/2-x,1/2-y,z
1/2+x,1/2-y,-z
1/2-x,1/2+y,-z
loop_
_atom_site_type_symbol
_atom_site_label
_atom_site_fract_x
_atom_site_fract_y
_atom_site_fract_z
Si Si1 0.750000 0.750000 0.604087
Si Si2 0.500000 0.152302 0.500000
Si Si3 0.000000 0.500000 0.000000
Si Si4 0.886213 0.610256 0.158945
Si Si5 0.086888 0.203652 0.176028
O O1 0.674076 0.804217 0.506045
O O2 0.578540 0.723615 0.705687
O O3 0.493411 0.118990 0.329481
O O4 0.120521 0.543425 0.890126
O O5 0.689856 0.641996 0.184183
O O6 0.000000 0.635521 0.000000
O O7 0.250000 0.250000 0.187071
O O8 0.000000 0.206765 0.000000
#
# Coordination Sequence:
#
# PCOD9324675 Si02
#       5
#     4   4   2   8   8
#     4  12  24  36  60 112 142 172 220 270 352 448
#     4  12  22  39  68  96 142 175 212 288 346 408
#     4   8  24  46  70  96 126 182 252 280 326 400
#     4  10  22  44  65  97 129 181 232 281 337 394
#     4  12  21  38  66 101 143 180 220 276 350 411
#
# _framework density 18.855612000000001
#
# number of rings (size 3 to 8) (size 9 to 14) (size 15 to 20)
#    0.923    0.000    4.615    4.615    0.000    0.615 
#    0.000    0.769    0.000    0.000    8.000    0.000 
#    0.000    0.000    0.000    0.000    0.000    0.000 
#
# Total GULP energy -72426.652864 kJ/mol
# GULP energy per Si atom -5571.280990 kJ/mol
# Density = 1.881270 g / cm^3
# Si number density = 18.855612 Si / 1000 Ang^3
#
#
#
# Elastic Constant Matrix: (Units=GPa)
#
#
# Indices 1 2 3 4 5 6 
#
# 1 99.7905 48.2527 34.6194 0.0000 0.0000 0.0000
# 2 48.2527 140.0637 51.9929 0.0000 0.0000 0.0000
# 3 34.6194 51.9929 150.3786 0.0000 0.0000 0.0000
# 4 0.0000 0.0000 0.0000 32.3917 0.0000 0.0000
# 5 0.0000 0.0000 0.0000 0.0000 37.2612 0.0000
# 6 0.0000 0.0000 0.0000 0.0000 0.0000 23.8536
#
#
#
# Elastic Compliance Matrix: (Units=1/GPa)
#
#
# Indices 1 2 3 4 5 6 
#
# 1 0.012340 -0.003667 -0.001573 0.000000 0.000000 0.000000
# 2 -0.003667 0.009281 -0.002365 0.000000 0.000000 0.000000
# 3 -0.001573 -0.002365 0.007830 0.000000 0.000000 0.000000
# 4 0.000000 0.000000 0.000000 0.030872 0.000000 0.000000
# 5 0.000000 0.000000 0.000000 0.000000 0.026838 0.000000
# 6 0.000000 0.000000 0.000000 0.000000 0.000000 0.041922
#
#
# Mechanical properties :
#
#
# Convention : Reuss Voigt Hill
#
# Bulk Modulus (GPa) = 70.22084 73.32921 71.77503
# Shear Modulus (GPa) = 33.54837 35.72584 34.63710
#
# Velocity S-wave (km/s) = 4.22266 4.35754 4.29063
# Velocity P-wave (km/s) = 7.81644 8.01822 7.91797
#
# Compressibility (1/GPa) = 0.01424079
#
# Stress axis : x y z
#
# Youngs Moduli (GPa) = 81.03754 107.74993 127.72196
#
# Poissons Ratio (x) = 0.39515 0.20089
# Poissons Ratio (y) = 0.29719 0.30200
# Poissons Ratio (z) = 0.12746 0.25478
#
# Static dielectric constant tensor:
#      x y z
#    x 1.700720 0.000000 0.000000 
#    y 0.000000 1.661480 0.000000 
#    z 0.000000 0.000000 1.723640 
# 
# From -- ./inp_files/8823.got.cif
#   From: 2010.05.17/outbox.cif.g08.bks.cpg/sg21_5_cif.got.tgz:8823.got - 2010.06.03 23:14:55.
