data_PCOD9324034
_publ_section_title
;
Structure prediction by ZEFSAII (Michael W. Deem and Ramdas Pophale) SiO2 
 PCOD9324034
Probable space group: C 2 2 2
;
_chemical_formula_sum "Si O2"
_cell_formula_units_Z 40
_cell_length_a 7.663971
_cell_length_b 16.037484
_cell_length_c 15.337594
_cell_angle_alpha 90.000000
_cell_angle_beta 90.000000
_cell_angle_gamma 90.000000
_cell_volume 1885.156137
_symmetry_space_group_name_H-M "C 2 2 2"
_symmetry_group_IT_number 21
_symmetry_cell_setting 'orthorhombic'
loop_
_space_group_symop_operation_xyz
x,y,z
-x,-y,z
x,-y,-z
-x,y,-z
1/2+x,1/2+y,z
1/2-x,1/2-y,z
1/2+x,1/2-y,-z
1/2-x,1/2+y,-z
loop_
_atom_site_type_symbol
_atom_site_label
_atom_site_fract_x
_atom_site_fract_y
_atom_site_fract_z
Si Si1 0.666998 0.586150 0.730996
Si Si2 0.221045 0.847393 0.781967
Si Si3 0.000000 0.323586 0.500000
Si Si4 0.750000 0.750000 0.634091
Si Si5 0.829374 0.444609 0.623365
Si Si6 0.710660 0.489320 0.902559
O O1 0.472781 0.619027 0.755412
O O2 0.750215 0.668406 0.692599
O O3 0.688130 0.513918 0.656420
O O4 0.753089 0.549575 0.819919
O O5 0.250000 0.750000 0.790896
O O6 0.338023 0.881070 0.703520
O O7 0.259838 0.897639 0.869611
O O8 0.917005 0.263919 0.427570
O O9 0.846166 0.384435 0.538616
O O10 0.000000 0.500000 0.617251
O O11 0.500000 0.500000 0.907918
O O12 0.780127 0.500000 0.000000
#
# Coordination Sequence:
#
# PCOD9324034 Si02
#       6
#     8   8   4   4   8   8
#     4  10  22  40  64  91 123 170 209 256 330 378
#     4  10  21  38  65  94 123 163 210 265 319 380
#     4  12  27  42  60  89 122 170 220 275 322 382
#     4  12  26  40  58  94 126 166 212 280 320 370
#     4  11  22  41  63  84 121 164 209 261 324 378
#     4   8  16  36  64  91 123 163 209 251 312 396
#
# _framework density 21.218399999999999
#
# number of rings (size 3 to 8) (size 9 to 14) (size 15 to 20)
#    0.000    1.800    2.000    3.300    4.200    0.000 
#    1.800    0.000    0.000    9.600    0.000    0.000 
#    0.000    0.000    0.000    0.000    0.000    0.000 
#
# Total GULP energy -111371.421211 kJ/mol
# GULP energy per Si atom -5568.571061 kJ/mol
# Density = 2.117011 g / cm^3
# Si number density = 21.218400 Si / 1000 Ang^3
#
#
#
# Elastic Constant Matrix: (Units=GPa)
#
#
# Indices 1 2 3 4 5 6 
#
# 1 44.1191 10.5224 9.1586 0.0000 0.0000 0.0000
# 2 10.5224 176.1805 52.6217 0.0000 0.0000 0.0000
# 3 9.1586 52.6217 100.0889 0.0000 0.0000 0.0000
# 4 0.0000 0.0000 0.0000 -10.6035 0.0000 0.0000
# 5 0.0000 0.0000 0.0000 0.0000 9.6879 0.0000
# 6 0.0000 0.0000 0.0000 0.0000 0.0000 26.0011
#
#
#
# Elastic Compliance Matrix: (Units=1/GPa)
#
#
# Indices 1 2 3 4 5 6 
#
# 1 0.023222 -0.000892 -0.001656 0.000000 0.000000 0.000000
# 2 -0.000892 0.006768 -0.003476 0.000000 0.000000 0.000000
# 3 -0.001656 -0.003476 0.011970 0.000000 0.000000 0.000000
# 4 0.000000 0.000000 0.000000 -0.094309 0.000000 0.000000
# 5 0.000000 0.000000 0.000000 0.000000 0.103221 0.000000
# 6 0.000000 0.000000 0.000000 0.000000 0.000000 0.038460
#
#
# Mechanical properties :
#
#
# Convention : Reuss Voigt Hill
#
# Bulk Modulus (GPa) = 33.43224 51.66598 42.54911
# Shear Modulus (GPa) = 44.90245 21.55617 33.22931
#
# Velocity S-wave (km/s) = 4.60521 3.19081 3.96164
# Velocity P-wave (km/s) = 6.63835 6.16259 6.40489
#
# Compressibility (1/GPa) = 0.02991125
#
# Stress axis : x y z
#
# Youngs Moduli (GPa) = 43.06175 147.76204 83.53967
#
# Poissons Ratio (x) = 0.13187 0.13832
# Poissons Ratio (y) = 0.03843 0.29042
# Poissons Ratio (z) = 0.07130 0.51368
#
# Static dielectric constant tensor:
#      x y z
#    x 1.896190 0.000000 0.000000 
#    y 0.000000 1.758370 0.000000 
#    z 0.000000 0.000000 1.783340 
# 
# From -- ./inp_files/30224.got.cif
#   From: 2010.05.17/outbox.cif.g08.bks.cpg/sg21_16_cif.got.tgz:30224.got - 2010.06.03 23:14:55.
