data_PCOD9324773
_publ_section_title
;
Structure prediction by ZEFSAII (Michael W. Deem and Ramdas Pophale) SiO2 
 PCOD9324773
Probable space group: C 2 2 2
;
_chemical_formula_sum "Si O2"
_cell_formula_units_Z 64
_cell_length_a 18.062005
_cell_length_b 14.861733
_cell_length_c 10.765345
_cell_angle_alpha 90.000000
_cell_angle_beta 90.000000
_cell_angle_gamma 90.000000
_cell_volume 2889.770579
_symmetry_space_group_name_H-M "C 2 2 2"
_symmetry_group_IT_number 21
_symmetry_cell_setting 'orthorhombic'
loop_
_space_group_symop_operation_xyz
x,y,z
-x,-y,z
x,-y,-z
-x,y,-z
1/2+x,1/2+y,z
1/2-x,1/2-y,z
1/2+x,1/2-y,-z
1/2-x,1/2+y,-z
loop_
_atom_site_type_symbol
_atom_site_label
_atom_site_fract_x
_atom_site_fract_y
_atom_site_fract_z
Si Si1 0.594225 0.193600 0.754682
Si Si2 0.422480 0.547662 0.829975
Si Si3 0.576457 0.198013 0.204738
Si Si4 0.684406 0.692595 0.618535
Si Si5 0.647654 0.703150 0.028076
Si Si6 0.077561 0.155996 0.427095
Si Si7 0.221113 0.078312 0.852504
Si Si8 0.619139 0.998359 0.855347
O O1 0.510336 0.218956 0.795762
O O2 0.653816 0.238832 0.847428
O O3 0.597752 0.242979 0.621953
O O4 0.601365 0.087579 0.777659
O O5 0.500000 0.500000 0.847600
O O6 0.408790 0.625021 0.930472
O O7 0.423208 0.593501 0.693949
O O8 0.353736 0.479518 0.843095
O O9 0.620434 0.246948 0.315923
O O10 0.586176 0.091044 0.206723
O O11 0.613612 0.235185 0.079226
O O12 0.750000 0.750000 0.558721
O O13 0.642134 0.630083 0.521935
O O14 0.723015 0.638330 0.729361
O O15 0.715312 0.648206 0.967414
O O16 0.000000 0.153627 0.500000
O O17 0.292678 0.017104 0.859662
O O18 0.593327 0.000000 0.000000
#
# Coordination Sequence:
#
# PCOD9324773 Si02
#       8
#     8   8   8   8   8   8   8   8
#     4  11  24  41  70 101 136 178 231 285 333 403
#     4  11  25  41  66 100 134 174 219 283 341 408
#     4  11  22  41  69 100 135 175 230 276 341 409
#     4  11  23  44  72  93 130 184 229 279 341 408
#     4  10  23  39  64 100 138 176 214 269 347 410
#     4  11  24  46  68  96 130 174 231 289 339 393
#     4  11  25  43  63  99 142 178 222 274 342 416
#     4  12  24  42  66 103 144 178 220 282 341 411
#
# _framework density 22.147086999999999
#
# number of rings (size 3 to 8) (size 9 to 14) (size 15 to 20)
#    0.000    1.000    3.750    2.625    7.000    3.750 
#    2.250    1.875    0.000    0.000    0.000    0.000 
#    0.000    0.000    0.000    0.000    0.000    0.000 
#
# Total GULP energy -179032.936848 kJ/mol
# GULP energy per Si atom -5594.779277 kJ/mol
# Density = 2.209668 g / cm^3
# Si number density = 22.147087 Si / 1000 Ang^3
#
#
#
# Elastic Constant Matrix: (Units=GPa)
#
#
# Indices 1 2 3 4 5 6 
#
# 1 100.7358 3.5349 12.0740 0.0000 0.0000 0.0000
# 2 3.5349 72.8843 6.9012 0.0000 0.0000 0.0000
# 3 12.0740 6.9012 85.0051 0.0000 0.0000 0.0000
# 4 0.0000 0.0000 0.0000 32.4110 0.0000 0.0000
# 5 0.0000 0.0000 0.0000 0.0000 24.8353 0.0000
# 6 0.0000 0.0000 0.0000 0.0000 0.0000 33.2646
#
#
#
# Elastic Compliance Matrix: (Units=1/GPa)
#
#
# Indices 1 2 3 4 5 6 
#
# 1 0.010108 -0.000357 -0.001407 0.000000 0.000000 0.000000
# 2 -0.000357 0.013839 -0.001073 0.000000 0.000000 0.000000
# 3 -0.001407 -0.001073 0.012051 0.000000 0.000000 0.000000
# 4 0.000000 0.000000 0.000000 0.030854 0.000000 0.000000
# 5 0.000000 0.000000 0.000000 0.000000 0.040265 0.000000
# 6 0.000000 0.000000 0.000000 0.000000 0.000000 0.030062
#
#
# Mechanical properties :
#
#
# Convention : Reuss Voigt Hill
#
# Bulk Modulus (GPa) = 32.97606 33.73837 33.35721
# Shear Modulus (GPa) = 32.68811 33.84319 33.26565
#
# Velocity S-wave (km/s) = 3.84598 3.91335 3.87981
# Velocity P-wave (km/s) = 5.88592 5.97377 5.93000
#
# Compressibility (1/GPa) = 0.03032503
#
# Stress axis : x y z
#
# Youngs Moduli (GPa) = 98.93055 72.25809 82.98128
#
# Poissons Ratio (x) = 0.02580 0.11673
# Poissons Ratio (y) = 0.03532 0.08903
# Poissons Ratio (z) = 0.13917 0.07752
#
# Static dielectric constant tensor:
#      x y z
#    x 1.822680 0.000000 0.000000 
#    y 0.000000 1.839690 0.000000 
#    z 0.000000 0.000000 1.798300 
# 
# From -- ./inp_files/26244.got.cif
#   From: 2010.05.17/outbox.cif.g08.bks.cpg/sg21_14_cif.got.tgz:26244.got - 2010.06.03 23:14:55.
