data_PCOD9324263
_publ_section_title
;
Structure prediction by ZEFSAII (Michael W. Deem and Ramdas Pophale) SiO2 
 PCOD9324263
Probable space group: C 2 2 2
;
_chemical_formula_sum "Si O2"
_cell_formula_units_Z 32
_cell_length_a 17.540814
_cell_length_b 7.117021
_cell_length_c 12.390396
_cell_angle_alpha 90.000000
_cell_angle_beta 90.000000
_cell_angle_gamma 90.000000
_cell_volume 1546.796488
_symmetry_space_group_name_H-M "C 2 2 2"
_symmetry_group_IT_number 21
_symmetry_cell_setting 'orthorhombic'
loop_
_space_group_symop_operation_xyz
x,y,z
-x,-y,z
x,-y,-z
-x,y,-z
1/2+x,1/2+y,z
1/2-x,1/2-y,z
1/2+x,1/2-y,-z
1/2-x,1/2+y,-z
loop_
_atom_site_type_symbol
_atom_site_label
_atom_site_fract_x
_atom_site_fract_y
_atom_site_fract_z
Si Si1 0.990753 0.276252 0.623392
Si Si2 0.164218 0.751261 0.739818
Si Si3 0.923524 0.906982 0.827033
Si Si4 0.816898 0.394228 0.109621
O O1 0.903320 0.241892 0.654800
O O2 0.000000 0.500000 0.630832
O O3 0.000000 0.216833 0.500000
O O4 0.047459 0.179160 0.710735
O O5 0.250000 0.750000 0.695761
O O6 0.141289 0.932819 0.811969
O O7 0.337558 0.941002 0.807460
O O8 0.890343 0.739971 0.898474
O O9 0.000000 0.000000 0.871515
O O10 0.750000 0.250000 0.143424
O O11 0.795534 0.500000 0.000000
#
# Coordination Sequence:
#
# PCOD9324263 Si02
#       4
#     8   8   8   8
#     4  10  21  42  68  97 136 178 216 272 338 394
#     4  11  22  41  67  99 132 174 223 274 327 397
#     4  10  23  42  68  96 134 176 218 272 332 397
#     4  12  25  43  69  96 133 175 223 276 339 401
#
# _framework density 20.687919000000001
#
# number of rings (size 3 to 8) (size 9 to 14) (size 15 to 20)
#    0.000    1.250    5.000    0.750    0.000    4.500 
#    0.000   20.000    0.000    0.000    0.000    0.000 
#    0.000    0.000    0.000    0.000    0.000    0.000 
#
# Total GULP energy -89284.900415 kJ/mol
# GULP energy per Si atom -5580.306276 kJ/mol
# Density = 2.064083 g / cm^3
# Si number density = 20.687919 Si / 1000 Ang^3
#
#
#
# Elastic Constant Matrix: (Units=GPa)
#
#
# Indices 1 2 3 4 5 6 
#
# 1 107.5069 49.0667 12.6805 0.0000 0.0000 0.0000
# 2 49.0667 149.8225 28.1851 0.0000 0.0000 0.0000
# 3 12.6805 28.1851 50.8936 0.0000 0.0000 0.0000
# 4 0.0000 0.0000 0.0000 10.1146 0.0000 0.0000
# 5 0.0000 0.0000 0.0000 0.0000 19.0441 0.0000
# 6 0.0000 0.0000 0.0000 0.0000 0.0000 53.4303
#
#
#
# Elastic Compliance Matrix: (Units=1/GPa)
#
#
# Indices 1 2 3 4 5 6 
#
# 1 0.010968 -0.003436 -0.000830 0.000000 0.000000 0.000000
# 2 -0.003436 0.008527 -0.003866 0.000000 0.000000 0.000000
# 3 -0.000830 -0.003866 0.021997 0.000000 0.000000 0.000000
# 4 0.000000 0.000000 0.000000 0.098867 0.000000 0.000000
# 5 0.000000 0.000000 0.000000 0.000000 0.052510 0.000000
# 6 0.000000 0.000000 0.000000 0.000000 0.000000 0.018716
#
#
# Mechanical properties :
#
#
# Convention : Reuss Voigt Hill
#
# Bulk Modulus (GPa) = 39.63913 54.23196 46.93554
# Shear Modulus (GPa) = 21.16335 31.07051 26.11693
#
# Velocity S-wave (km/s) = 3.20188 3.87960 3.55692
# Velocity P-wave (km/s) = 5.73336 6.80732 6.29329
#
# Compressibility (1/GPa) = 0.02522760
#
# Stress axis : x y z
#
# Youngs Moduli (GPa) = 91.17659 117.27286 45.46111
#
# Poissons Ratio (x) = 0.40292 0.03773
# Poissons Ratio (y) = 0.31326 0.17577
# Poissons Ratio (z) = 0.07567 0.45341
#
# Static dielectric constant tensor:
#      x y z
#    x 1.750720 0.000000 0.000000 
#    y 0.000000 1.776080 0.000000 
#    z 0.000000 0.000000 1.742230 
# 
# From -- ./inp_files/25739.got.cif
#   From: 2010.05.17/outbox.cif.g08.bks.cpg/sg21_13_cif.got.tgz:25739.got - 2010.06.03 23:14:55.
