data_PCOD9324882
_publ_section_title
;
Structure prediction by ZEFSAII (Michael W. Deem and Ramdas Pophale) SiO2 
 PCOD9324882
Probable space group: C 2 2 2
;
_chemical_formula_sum "Si O2"
_cell_formula_units_Z 34
_cell_length_a 14.940191
_cell_length_b 11.836898
_cell_length_c 7.178819
_cell_angle_alpha 90.000000
_cell_angle_beta 90.000000
_cell_angle_gamma 90.000000
_cell_volume 1269.541957
_symmetry_space_group_name_H-M "C 2 2 2"
_symmetry_group_IT_number 21
_symmetry_cell_setting 'orthorhombic'
loop_
_space_group_symop_operation_xyz
x,y,z
-x,-y,z
x,-y,-z
-x,y,-z
1/2+x,1/2+y,z
1/2-x,1/2-y,z
1/2+x,1/2-y,-z
1/2-x,1/2+y,-z
loop_
_atom_site_type_symbol
_atom_site_label
_atom_site_fract_x
_atom_site_fract_y
_atom_site_fract_z
Si Si1 0.654162 0.199578 0.190745
Si Si2 0.000000 0.500000 0.500000
Si Si3 0.393832 0.159864 0.213752
Si Si4 0.242934 0.616611 0.518344
Si Si5 0.002157 0.872397 0.223737
O O1 0.750000 0.250000 0.122732
O O2 0.670821 0.104069 0.346341
O O3 0.592194 0.301890 0.268141
O O4 0.602857 0.847503 0.991000
O O5 0.954904 0.585976 0.349497
O O6 0.294756 0.125550 0.274953
O O7 0.419260 0.289807 0.269858
O O8 0.297503 0.500000 0.500000
O O9 0.250000 0.750000 0.476787
O O10 0.000000 0.000000 0.294378
O O11 0.000000 0.880202 0.000000
#
# Coordination Sequence:
#
# PCOD9324882 Si02
#       5
#     8   2   8   8   8
#     4  10  23  45  72 107 144 191 246 304 380 443
#     4  12  24  44  72 100 150 180 262 292 360 440
#     4  11  23  44  70 103 144 196 237 311 364 446
#     4  11  25  46  68 105 151 194 251 311 374 457
#     4   9  20  41  71 103 141 188 245 301 370 450
#
# _framework density 26.781312
#
# number of rings (size 3 to 8) (size 9 to 14) (size 15 to 20)
#    0.000    1.647    1.176    2.118    0.000    4.706 
#    8.471   13.529    0.000    0.000    0.000    0.000 
#    0.000    0.000    0.000    0.000    0.000    0.000 
#
# Total GULP energy -94685.564896 kJ/mol
# GULP energy per Si atom -5569.739112 kJ/mol
# Density = 2.672036 g / cm^3
# Si number density = 26.781312 Si / 1000 Ang^3
#
#
#
# Elastic Constant Matrix: (Units=GPa)
#
#
# Indices 1 2 3 4 5 6 
#
# 1 61.7280 3.7675 -17.4067 0.0000 0.0000 0.0000
# 2 3.7675 216.9916 13.0409 0.0000 0.0000 0.0000
# 3 -17.4067 13.0409 150.8389 0.0000 0.0000 0.0000
# 4 0.0000 0.0000 0.0000 23.2236 0.0000 0.0000
# 5 0.0000 0.0000 0.0000 0.0000 25.5798 0.0000
# 6 0.0000 0.0000 0.0000 0.0000 0.0000 37.3104
#
#
#
# Elastic Compliance Matrix: (Units=1/GPa)
#
#
# Indices 1 2 3 4 5 6 
#
# 1 0.016781 -0.000410 0.001972 0.000000 0.000000 0.000000
# 2 -0.000410 0.004643 -0.000449 0.000000 0.000000 0.000000
# 3 0.001972 -0.000449 0.006896 0.000000 0.000000 0.000000
# 4 0.000000 0.000000 0.000000 0.043060 0.000000 0.000000
# 5 0.000000 0.000000 0.000000 0.000000 0.039093 0.000000
# 6 0.000000 0.000000 0.000000 0.000000 0.000000 0.026802
#
#
# Mechanical properties :
#
#
# Convention : Reuss Voigt Hill
#
# Bulk Modulus (GPa) = 32.73693 47.59576 40.16635
# Shear Modulus (GPa) = 34.42812 45.89989 40.16401
#
# Velocity S-wave (km/s) = 3.58932 4.14439 3.87680
# Velocity P-wave (km/s) = 5.42475 6.38059 5.92198
#
# Compressibility (1/GPa) = 0.03054654
#
# Stress axis : x y z
#
# Youngs Moduli (GPa) = 59.59051 215.39862 145.01278
#
# Poissons Ratio (x) = 0.08829 -0.28596
# Poissons Ratio (y) = 0.02442 0.06506
# Poissons Ratio (z) = -0.11751 0.09664
#
# Static dielectric constant tensor:
#      x y z
#    x 2.530890 0.000000 0.000000 
#    y 0.000000 2.165770 0.000000 
#    z 0.000000 0.000000 2.081550 
# 
# From -- ./inp_files/17196.got.cif
#   From: 2010.05.17/outbox.cif.g08.bks.cpg/sg21_9_cif.got.tgz:17196.got - 2010.06.03 23:14:55.
