data_PCOD9324925
_publ_section_title
;
Structure prediction by ZEFSAII (Michael W. Deem and Ramdas Pophale) SiO2 
 PCOD9324925
Probable space group: C 2 2 2
;
_chemical_formula_sum "Si O2"
_cell_formula_units_Z 28
_cell_length_a 8.214613
_cell_length_b 5.317308
_cell_length_c 27.185601
_cell_angle_alpha 90.000000
_cell_angle_beta 90.000000
_cell_angle_gamma 90.000000
_cell_volume 1187.456923
_symmetry_space_group_name_H-M "C 2 2 2"
_symmetry_group_IT_number 21
_symmetry_cell_setting 'orthorhombic'
loop_
_space_group_symop_operation_xyz
x,y,z
-x,-y,z
x,-y,-z
-x,y,-z
1/2+x,1/2+y,z
1/2-x,1/2-y,z
1/2+x,1/2-y,-z
1/2-x,1/2+y,-z
loop_
_atom_site_type_symbol
_atom_site_label
_atom_site_fract_x
_atom_site_fract_y
_atom_site_fract_z
Si Si1 0.500000 0.000000 0.859345
Si Si2 0.500000 0.000000 0.653678
Si Si3 0.000000 0.500000 0.500000
Si Si4 0.750000 0.750000 0.273292
Si Si5 0.000000 0.000000 0.205747
Si Si6 0.250000 0.250000 0.576569
Si Si7 0.500000 0.500000 0.000000
Si Si8 0.750000 0.250000 0.926874
O O1 0.482475 0.249975 0.826792
O O2 0.660122 0.046957 0.892507
O O3 0.612007 0.155889 0.690110
O O4 0.383305 0.165802 0.619093
O O5 0.883755 0.670040 0.533827
O O6 0.839751 0.952820 0.238863
O O7 0.611999 0.653916 0.036811
#
# Coordination Sequence:
#
# PCOD9324925 Si02
#       8
#     4   4   2   4   4   4   2   4
#     4  12  29  51  79 114 154 200 251 313 377 448
#     4  11  25  45  70 102 142 190 242 301 365 439
#     4  10  24  40  66 100 136 184 234 300 368 438
#     4  12  27  47  74 106 146 194 248 307 371 442
#     4  12  29  50  78 113 152 199 254 312 377 448
#     4  10  24  43  68 100 140 184 240 299 368 438
#     4  12  26  48  76 110 148 196 248 306 370 448
#     4  12  27  48  78 112 152 198 250 308 375 446
#
# _framework density 23.579805
#
# number of rings (size 3 to 8) (size 9 to 14) (size 15 to 20)
#    0.000    0.571    0.000    6.000    0.000   21.143 
#    0.000    0.000    0.000    0.000    0.000    0.000 
#    0.000    0.000    0.000    0.000    0.000    0.000 
#
# Total GULP energy -77964.357245 kJ/mol
# GULP energy per Si atom -5568.882660 kJ/mol
# Density = 2.352614 g / cm^3
# Si number density = 23.579805 Si / 1000 Ang^3
#
#
#
# Elastic Constant Matrix: (Units=GPa)
#
#
# Indices 1 2 3 4 5 6 
#
# 1 213.4837 93.2553 110.5780 0.0000 0.0000 0.0000
# 2 93.2553 125.8010 106.6205 0.0000 0.0000 0.0000
# 3 110.5780 106.6205 211.1856 0.0000 0.0000 0.0000
# 4 0.0000 0.0000 0.0000 -282.8218 0.0000 0.0000
# 5 0.0000 0.0000 0.0000 0.0000 99.0617 0.0000
# 6 0.0000 0.0000 0.0000 0.0000 0.0000 53.1625
#
#
#
# Elastic Compliance Matrix: (Units=1/GPa)
#
#
# Indices 1 2 3 4 5 6 
#
# 1 0.007346 -0.003820 -0.001918 0.000000 0.000000 0.000000
# 2 -0.003820 0.015881 -0.006017 0.000000 0.000000 0.000000
# 3 -0.001918 -0.006017 0.008777 0.000000 0.000000 0.000000
# 4 0.000000 0.000000 0.000000 -0.003536 0.000000 0.000000
# 5 0.000000 0.000000 0.000000 0.000000 0.010095 0.000000
# 6 0.000000 0.000000 0.000000 0.000000 0.000000 0.018810
#
#
# Mechanical properties :
#
#
# Convention : Reuss Voigt Hill
#
# Bulk Modulus (GPa) = 117.73708 130.15311 123.94510
# Shear Modulus (GPa) = 59.72528 -10.11843 24.80342
#
# Velocity S-wave (km/s) = 5.03825 -2.07375 3.24681
# Velocity P-wave (km/s) = 9.15888 7.04150 8.16908
#
# Compressibility (1/GPa) = 0.00849350
#
# Stress axis : x y z
#
# Youngs Moduli (GPa) = 136.12027 62.96795 113.92949
#
# Poissons Ratio (x) = 0.24057 0.21850
# Poissons Ratio (y) = 0.52004 0.68556
# Poissons Ratio (z) = 0.26106 0.37891
#
# Static dielectric constant tensor:
#      x y z
#    x 1.822480 0.000000 0.000000 
#    y 0.000000 1.923980 0.000000 
#    z 0.000000 0.000000 1.856990 
# 
# From -- ./inp_files/39187.got.cif
#   From: 2010.05.17/outbox.cif.g08.bks.cpg/sg21_20_cif.got.tgz:39187.got - 2010.06.03 23:14:55.
