data_PCOD9324699
_publ_section_title
;
Structure prediction by ZEFSAII (Michael W. Deem and Ramdas Pophale) SiO2 
 PCOD9324699
Probable space group: C 2 2 2
;
_chemical_formula_sum "Si O2"
_cell_formula_units_Z 20
_cell_length_a 7.864416
_cell_length_b 9.762340
_cell_length_c 10.090194
_cell_angle_alpha 90.000000
_cell_angle_beta 90.000000
_cell_angle_gamma 90.000000
_cell_volume 774.675683
_symmetry_space_group_name_H-M "C 2 2 2"
_symmetry_group_IT_number 21
_symmetry_cell_setting 'orthorhombic'
loop_
_space_group_symop_operation_xyz
x,y,z
-x,-y,z
x,-y,-z
-x,y,-z
1/2+x,1/2+y,z
1/2-x,1/2-y,z
1/2+x,1/2-y,-z
1/2-x,1/2+y,-z
loop_
_atom_site_type_symbol
_atom_site_label
_atom_site_fract_x
_atom_site_fract_y
_atom_site_fract_z
Si Si1 0.948922 0.210945 0.859432
Si Si2 0.816153 0.096734 0.374859
Si Si3 0.000000 0.500000 0.217255
O O1 0.750000 0.250000 0.848192
O O2 0.036832 0.136746 0.733262
O O3 0.028742 0.362186 0.862238
O O4 0.000000 0.145948 0.000000
O O5 0.750000 0.250000 0.415976
O O6 0.667853 0.007849 0.305712
O O7 0.848143 0.000000 0.500000
#
# Coordination Sequence:
#
# PCOD9324699 Si02
#       3
#     8   8   4
#     4  11  24  46  76 113 154 203 263 326 393 466
#     4  10  23  47  78 114 156 206 259 320 394 475
#     4  10  22  44  72 106 152 198 254 326 394 470
#
# _framework density 25.817256
#
# number of rings (size 3 to 8) (size 9 to 14) (size 15 to 20)
#    0.000    1.600    0.000    4.800    0.000    3.200 
#    0.000   42.000    0.000    0.000    0.000   11.200 
#    0.000    0.000    0.000    0.000    0.000    0.000 
#
# Total GULP energy -55791.346932 kJ/mol
# GULP energy per Si atom -5579.134693 kJ/mol
# Density = 2.575849 g / cm^3
# Si number density = 25.817256 Si / 1000 Ang^3
#
#
#
# Elastic Constant Matrix: (Units=GPa)
#
#
# Indices 1 2 3 4 5 6 
#
# 1 190.8201 17.4724 115.7986 0.0000 0.0000 0.0000
# 2 17.4724 212.3652 101.0362 0.0000 0.0000 0.0000
# 3 115.7986 101.0362 267.5396 0.0000 0.0000 0.0000
# 4 0.0000 0.0000 0.0000 6.6072 0.0000 0.0000
# 5 0.0000 0.0000 0.0000 0.0000 17.9531 0.0000
# 6 0.0000 0.0000 0.0000 0.0000 0.0000 26.0343
#
#
#
# Elastic Compliance Matrix: (Units=1/GPa)
#
#
# Indices 1 2 3 4 5 6 
#
# 1 0.007313 0.001102 -0.003582 0.000000 0.000000 0.000000
# 2 0.001102 0.005906 -0.002708 0.000000 0.000000 0.000000
# 3 -0.003582 -0.002708 0.006311 0.000000 0.000000 0.000000
# 4 0.000000 0.000000 0.000000 0.151350 0.000000 0.000000
# 5 0.000000 0.000000 0.000000 0.000000 0.055701 0.000000
# 6 0.000000 0.000000 0.000000 0.000000 0.000000 0.038411
#
#
# Mechanical properties :
#
#
# Convention : Reuss Voigt Hill
#
# Bulk Modulus (GPa) = 109.21651 126.59325 117.90488
# Shear Modulus (GPa) = 17.95864 39.21344 28.58604
#
# Velocity S-wave (km/s) = 2.64030 3.90152 3.33114
# Velocity P-wave (km/s) = 7.18960 8.33286 7.78225
#
# Compressibility (1/GPa) = 0.00915613
#
# Stress axis : x y z
#
# Youngs Moduli (GPa) = 136.74112 169.30815 158.46534
#
# Poissons Ratio (x) = -0.18663 0.56756
# Poissons Ratio (y) = -0.15073 0.42907
# Poissons Ratio (z) = 0.48975 0.45843
#
# Static dielectric constant tensor:
#      x y z
#    x 2.431340 0.000000 0.000000 
#    y 0.000000 2.071060 0.000000 
#    z 0.000000 0.000000 2.168890 
# 
# From -- ./inp_files/9518.got.cif
#   From: 2010.05.17/outbox.cif.g08.bks.cpg/sg21_5_cif.got.tgz:9518.got - 2010.06.03 23:14:55.
