data_PCOD9324994
_publ_section_title
;
Structure prediction by ZEFSAII (Michael W. Deem and Ramdas Pophale) SiO2 
 PCOD9324994
Probable space group: C 2 2 2
;
_chemical_formula_sum "Si O2"
_cell_formula_units_Z 54
_cell_length_a 11.079362
_cell_length_b 21.197607
_cell_length_c 10.971829
_cell_angle_alpha 90.000000
_cell_angle_beta 90.000000
_cell_angle_gamma 90.000000
_cell_volume 2576.799449
_symmetry_space_group_name_H-M "C 2 2 2"
_symmetry_group_IT_number 21
_symmetry_cell_setting 'orthorhombic'
loop_
_space_group_symop_operation_xyz
x,y,z
-x,-y,z
x,-y,-z
-x,y,-z
1/2+x,1/2+y,z
1/2-x,1/2-y,z
1/2+x,1/2-y,-z
1/2-x,1/2+y,-z
loop_
_atom_site_type_symbol
_atom_site_label
_atom_site_fract_x
_atom_site_fract_y
_atom_site_fract_z
Si Si1 0.199084 0.967384 0.873546
Si Si2 0.435910 0.886068 0.878478
Si Si3 0.855038 0.437610 0.284597
Si Si4 0.693085 0.679923 0.675921
Si Si5 0.380609 0.237403 0.271122
Si Si6 0.477287 0.356047 0.143068
Si Si7 0.000000 0.500000 0.500000
Si Si8 0.000000 0.787136 0.500000
O O1 0.315754 0.924985 0.907921
O O2 0.095481 0.920102 0.824128
O O3 0.252926 0.017295 0.776126
O O4 0.158385 0.000000 0.000000
O O5 0.535058 0.928516 0.810176
O O6 0.398647 0.828676 0.792649
O O7 0.500000 0.861529 0.000000
O O8 0.799129 0.369971 0.313659
O O9 0.912659 0.462812 0.408656
O O10 0.750000 0.750000 0.689542
O O11 0.598981 0.658392 0.781653
O O12 0.615967 0.674888 0.549847
O O13 0.250000 0.250000 0.324958
O O14 0.398810 0.294441 0.175912
O O15 0.470279 0.245716 0.382978
O O16 0.500000 0.358995 0.000000
#
# Coordination Sequence:
#
# PCOD9324994 Si02
#       8
#     8   8   8   8   8   8   2   4
#     4  12  24  45  72 101 145 194 239 290 355 439
#     4  12  24  43  73 105 141 188 239 296 365 423
#     4  12  26  45  69 105 142 186 246 296 351 423
#     4  11  26  48  74 101 140 190 239 298 357 426
#     4  11  23  42  69 101 136 184 232 295 349 421
#     4  11  25  44  67 107 144 182 235 288 363 429
#     4  12  28  42  66 106 140 182 236 304 350 404
#     4  10  24  45  68 103 135 189 232 282 370 414
#
# _framework density 20.956230000000001
#
# number of rings (size 3 to 8) (size 9 to 14) (size 15 to 20)
#    0.000    0.593    4.444    3.556    0.000    8.593 
#    0.000    0.000    0.000    0.000    0.000    0.000 
#    0.000    0.000    0.000    0.000    0.000    0.000 
#
# Total GULP energy -150897.001714 kJ/mol
# GULP energy per Si atom -5588.777841 kJ/mol
# Density = 2.090853 g / cm^3
# Si number density = 20.956230 Si / 1000 Ang^3
#
#
#
# Elastic Constant Matrix: (Units=GPa)
#
#
# Indices 1 2 3 4 5 6 
#
# 1 96.3671 42.9414 23.3524 0.0000 0.0000 0.0000
# 2 42.9414 128.3319 30.0523 0.0000 0.0000 0.0000
# 3 23.3524 30.0523 95.3491 0.0000 0.0000 0.0000
# 4 0.0000 0.0000 0.0000 213.5577 0.0000 0.0000
# 5 0.0000 0.0000 0.0000 0.0000 27.4104 0.0000
# 6 0.0000 0.0000 0.0000 0.0000 0.0000 36.7860
#
#
#
# Elastic Compliance Matrix: (Units=1/GPa)
#
#
# Indices 1 2 3 4 5 6 
#
# 1 0.012501 -0.003742 -0.001882 0.000000 0.000000 0.000000
# 2 -0.003742 0.009533 -0.002088 0.000000 0.000000 0.000000
# 3 -0.001882 -0.002088 0.011607 0.000000 0.000000 0.000000
# 4 0.000000 0.000000 0.000000 0.004683 0.000000 0.000000
# 5 0.000000 0.000000 0.000000 0.000000 0.036482 0.000000
# 6 0.000000 0.000000 0.000000 0.000000 0.000000 0.027184
#
#
# Mechanical properties :
#
#
# Convention : Reuss Voigt Hill
#
# Bulk Modulus (GPa) = 54.89697 56.97116 55.93407
# Shear Modulus (GPa) = 40.49001 70.46429 55.47715
#
# Velocity S-wave (km/s) = 4.40036 5.80496 5.15076
# Velocity P-wave (km/s) = 7.21599 8.49558 7.88179
#
# Compressibility (1/GPa) = 0.01821594
#
# Stress axis : x y z
#
# Youngs Moduli (GPa) = 79.99635 104.89361 86.15549
#
# Poissons Ratio (x) = 0.39252 0.16216
# Poissons Ratio (y) = 0.29935 0.17992
# Poissons Ratio (z) = 0.15056 0.21905
#
# Static dielectric constant tensor:
#      x y z
#    x 1.630320 0.000000 0.000000 
#    y 0.000000 1.752690 0.000000 
#    z 0.000000 0.000000 1.745270 
# 
# From -- ./inp_files/24277.got.cif
#   From: 2010.05.17/outbox.cif.g08.bks.cpg/sg21_13_cif.got.tgz:24277.got - 2010.06.03 23:14:55.
