data_PCOD9324350
_publ_section_title
;
Structure prediction by ZEFSAII (Michael W. Deem and Ramdas Pophale) SiO2 
 PCOD9324350
Probable space group: C 2 2 2
;
_chemical_formula_sum "Si O2"
_cell_formula_units_Z 40
_cell_length_a 5.014668
_cell_length_b 19.616713
_cell_length_c 17.880198
_cell_angle_alpha 90.000000
_cell_angle_beta 90.000000
_cell_angle_gamma 90.000000
_cell_volume 1758.898374
_symmetry_space_group_name_H-M "C 2 2 2"
_symmetry_group_IT_number 21
_symmetry_cell_setting 'orthorhombic'
loop_
_space_group_symop_operation_xyz
x,y,z
-x,-y,z
x,-y,-z
-x,y,-z
1/2+x,1/2+y,z
1/2-x,1/2-y,z
1/2+x,1/2-y,-z
1/2-x,1/2+y,-z
loop_
_atom_site_type_symbol
_atom_site_label
_atom_site_fract_x
_atom_site_fract_y
_atom_site_fract_z
Si Si1 0.179199 0.065578 0.869886
Si Si2 0.500000 0.000000 0.500000
Si Si3 0.015195 0.795379 0.180902
Si Si4 0.500000 0.000000 0.000000
Si Si5 0.238128 0.085926 0.372060
Si Si6 0.000000 0.500000 0.749243
Si Si7 0.751525 0.825296 0.653109
O O1 0.008493 0.133793 0.863614
O O2 0.395107 0.059927 0.803182
O O3 0.324078 0.048848 0.947418
O O4 0.000000 0.000000 0.855717
O O5 0.325771 0.047543 0.446387
O O6 0.250000 0.750000 0.145963
O O7 0.120821 0.814154 0.264172
O O8 0.750000 0.750000 0.184462
O O9 0.455760 0.144152 0.350910
O O10 0.951069 0.119427 0.381232
O O11 0.276821 0.031734 0.304846
O O12 0.750000 0.750000 0.617706
#
# Coordination Sequence:
#
# PCOD9324350 Si02
#       7
#     8   2   8   2   8   4   8
#     4  11  23  42  72 101 139 188 234 297 347 432
#     4  10  28  44  68  96 144 188 236 294 356 416
#     4  11  24  41  70 109 143 176 228 296 363 419
#     4  10  26  42  72 100 144 182 256 282 358 410
#     4  11  23  42  65 102 137 181 232 294 349 418
#     4  10  22  36  68 104 134 176 238 290 354 406
#     4  11  22  40  68 100 138 177 227 290 352 422
#
# _framework density 22.741508
#
# number of rings (size 3 to 8) (size 9 to 14) (size 15 to 20)
#    0.000    1.200    2.000    4.500    5.600    4.000 
#    0.000    2.000    4.400    1.200    0.000    0.000 
#    0.000    0.000    0.000    0.000    0.000    0.000 
#
# Total GULP energy -111932.728609 kJ/mol
# GULP energy per Si atom -5596.636430 kJ/mol
# Density = 2.268975 g / cm^3
# Si number density = 22.741508 Si / 1000 Ang^3
#
#
#
# Elastic Constant Matrix: (Units=GPa)
#
#
# Indices 1 2 3 4 5 6 
#
# 1 78.0509 28.4128 7.1578 0.0000 0.0000 0.0000
# 2 28.4128 137.4214 30.3053 0.0000 0.0000 0.0000
# 3 7.1578 30.3053 100.5331 0.0000 0.0000 0.0000
# 4 0.0000 0.0000 0.0000 42.2138 0.0000 0.0000
# 5 0.0000 0.0000 0.0000 0.0000 54.4158 0.0000
# 6 0.0000 0.0000 0.0000 0.0000 0.0000 55.0722
#
#
#
# Elastic Compliance Matrix: (Units=1/GPa)
#
#
# Indices 1 2 3 4 5 6 
#
# 1 0.013857 -0.002836 -0.000132 0.000000 0.000000 0.000000
# 2 -0.002836 0.008375 -0.002323 0.000000 0.000000 0.000000
# 3 -0.000132 -0.002323 0.010657 0.000000 0.000000 0.000000
# 4 0.000000 0.000000 0.000000 0.023689 0.000000 0.000000
# 5 0.000000 0.000000 0.000000 0.000000 0.018377 0.000000
# 6 0.000000 0.000000 0.000000 0.000000 0.000000 0.018158
#
#
# Mechanical properties :
#
#
# Convention : Reuss Voigt Hill
#
# Bulk Modulus (GPa) = 44.82749 49.75080 47.28915
# Shear Modulus (GPa) = 44.99262 47.01566 46.00414
#
# Velocity S-wave (km/s) = 4.45279 4.55179 4.50256
# Velocity P-wave (km/s) = 6.79639 7.03912 6.91882
#
# Compressibility (1/GPa) = 0.02230774
#
# Stress axis : x y z
#
# Youngs Moduli (GPa) = 72.16790 119.39612 93.83890
#
# Poissons Ratio (x) = 0.33859 0.01236
# Poissons Ratio (y) = 0.20466 0.21797
# Poissons Ratio (z) = 0.00950 0.27734
#
# Static dielectric constant tensor:
#      x y z
#    x 1.723250 0.000000 0.000000 
#    y 0.000000 1.856940 0.000000 
#    z 0.000000 0.000000 1.856870 
# 
# From -- ./inp_files/34738.got.cif
#   From: 2010.05.17/outbox.cif.g08.bks.cpg/sg21_18_cif.got.tgz:34738.got - 2010.06.03 23:14:55.
