data_PCOD9324731
_publ_section_title
;
Structure prediction by ZEFSAII (Michael W. Deem and Ramdas Pophale) SiO2 
 PCOD9324731
Probable space group: C 2 2 2
;
_chemical_formula_sum "Si O2"
_cell_formula_units_Z 64
_cell_length_a 8.280065
_cell_length_b 28.998289
_cell_length_c 12.224040
_cell_angle_alpha 90.000000
_cell_angle_beta 90.000000
_cell_angle_gamma 90.000000
_cell_volume 2935.086347
_symmetry_space_group_name_H-M "C 2 2 2"
_symmetry_group_IT_number 21
_symmetry_cell_setting 'orthorhombic'
loop_
_space_group_symop_operation_xyz
x,y,z
-x,-y,z
x,-y,-z
-x,y,-z
1/2+x,1/2+y,z
1/2-x,1/2-y,z
1/2+x,1/2-y,-z
1/2-x,1/2+y,-z
loop_
_atom_site_type_symbol
_atom_site_label
_atom_site_fract_x
_atom_site_fract_y
_atom_site_fract_z
Si Si1 0.829951 0.106271 0.698259
Si Si2 0.323755 0.869213 0.479781
Si Si3 0.482085 0.232337 0.162324
Si Si4 0.190787 0.508636 0.627813
Si Si5 0.655905 0.144262 0.078913
Si Si6 0.329691 0.322606 0.109150
Si Si7 0.197545 0.918696 0.267107
Si Si8 0.419753 0.768923 0.395154
O O1 0.794617 0.132023 0.583213
O O2 0.732064 0.059331 0.673323
O O3 0.788379 0.142927 0.791762
O O4 0.007856 0.091368 0.736207
O O5 0.500000 0.891828 0.500000
O O6 0.246522 0.896237 0.381743
O O7 0.368518 0.818931 0.436886
O O8 0.619759 0.194782 0.133126
O O9 0.475720 0.286415 0.129562
O O10 0.328618 0.209725 0.104838
O O11 0.462313 0.230906 0.292935
O O12 0.246719 0.500000 0.500000
O O13 0.268680 0.472306 0.712171
O O14 0.000000 0.500000 0.628051
O O15 0.699137 0.106839 0.172324
O O16 0.500000 0.132432 0.000000
O O17 0.812643 0.148713 0.001660
O O18 0.500000 0.744518 0.500000
O O19 0.250000 0.750000 0.353780
#
# Coordination Sequence:
#
# PCOD9324731 Si02
#       8
#     8   8   8   8   8   8   8   8
#     4  12  26  43  73 109 150 183 241 308 378 441
#     4  11  23  41  67  95 144 191 230 289 361 445
#     4  10  22  46  67  98 134 191 243 300 345 440
#     4  11  25  45  77 111 145 191 240 290 370 471
#     4  10  24  48  72 101 143 196 257 307 367 446
#     4  10  24  45  72  99 142 188 248 302 367 418
#     4  12  25  45  71 112 146 185 243 313 373 438
#     4  11  25  38  60  92 141 182 236 284 356 433
#
# _framework density 21.805150999999999
#
# number of rings (size 3 to 8) (size 9 to 14) (size 15 to 20)
#    0.000    1.125    2.500    3.000   10.500    1.000 
#   20.250    0.625    0.000    1.500    0.000    0.000 
#    0.000    0.000    0.000    0.000    0.000    0.000 
#
# Total GULP energy -178502.890236 kJ/mol
# GULP energy per Si atom -5578.215320 kJ/mol
# Density = 2.175552 g / cm^3
# Si number density = 21.805151 Si / 1000 Ang^3
#
#
#
# Elastic Constant Matrix: (Units=GPa)
#
#
# Indices 1 2 3 4 5 6 
#
# 1 37.4791 -17.6692 -17.9473 0.0000 0.0000 0.0000
# 2 -17.6692 74.1830 13.2268 0.0000 0.0000 0.0000
# 3 -17.9473 13.2268 107.7597 0.0000 0.0000 0.0000
# 4 0.0000 0.0000 0.0000 16.3076 0.0000 0.0000
# 5 0.0000 0.0000 0.0000 0.0000 27.2009 0.0000
# 6 0.0000 0.0000 0.0000 0.0000 0.0000 6.7295
#
#
#
# Elastic Compliance Matrix: (Units=1/GPa)
#
#
# Indices 1 2 3 4 5 6 
#
# 1 0.032058 0.006833 0.004501 0.000000 0.000000 0.000000
# 2 0.006833 0.015238 -0.000732 0.000000 0.000000 0.000000
# 3 0.004501 -0.000732 0.010119 0.000000 0.000000 0.000000
# 4 0.000000 0.000000 0.000000 0.061321 0.000000 0.000000
# 5 0.000000 0.000000 0.000000 0.000000 0.036763 0.000000
# 6 0.000000 0.000000 0.000000 0.000000 0.000000 0.148599
#
#
# Mechanical properties :
#
#
# Convention : Reuss Voigt Hill
#
# Bulk Modulus (GPa) = 12.71959 19.40471 16.06215
# Shear Modulus (GPa) = 16.17583 26.16836 21.17209
#
# Velocity S-wave (km/s) = 2.72662 3.46800 3.11942
# Velocity P-wave (km/s) = 3.96971 4.99545 4.51182
#
# Compressibility (1/GPa) = 0.07861889
#
# Stress axis : x y z
#
# Youngs Moduli (GPa) = 31.19327 65.62396 98.82046
#
# Poissons Ratio (x) = -0.44843 -0.44475
# Poissons Ratio (y) = -0.21315 0.07237
# Poissons Ratio (z) = -0.14039 0.04806
#
# Static dielectric constant tensor:
#      x y z
#    x 1.862940 0.000000 0.000000 
#    y 0.000000 1.571820 0.000000 
#    z 0.000000 0.000000 1.842500 
# 
# From -- ./inp_files/23140.got.cif
#   From: 2010.05.17/outbox.cif.g08.bks.cpg/sg21_12_cif.got.tgz:23140.got - 2010.06.03 23:14:55.
