data_PCOD9324680
_publ_section_title
;
Structure prediction by ZEFSAII (Michael W. Deem and Ramdas Pophale) SiO2 
 PCOD9324680
Probable space group: C 2 2 2
;
_chemical_formula_sum "Si O2"
_cell_formula_units_Z 18
_cell_length_a 4.975631
_cell_length_b 27.345062
_cell_length_c 5.348432
_cell_angle_alpha 90.000000
_cell_angle_beta 90.000000
_cell_angle_gamma 90.000000
_cell_volume 727.701979
_symmetry_space_group_name_H-M "C 2 2 2"
_symmetry_group_IT_number 21
_symmetry_cell_setting 'orthorhombic'
loop_
_space_group_symop_operation_xyz
x,y,z
-x,-y,z
x,-y,-z
-x,y,-z
1/2+x,1/2+y,z
1/2-x,1/2-y,z
1/2+x,1/2-y,-z
1/2-x,1/2+y,-z
loop_
_atom_site_type_symbol
_atom_site_label
_atom_site_fract_x
_atom_site_fract_y
_atom_site_fract_z
Si Si1 0.500000 0.068922 0.500000
Si Si2 0.500000 0.500000 0.500000
Si Si3 0.750000 0.250000 0.683146
Si Si4 0.837680 0.142841 0.764830
O O1 0.599502 0.105426 0.713669
O O2 0.235906 0.038190 0.592077
O O3 0.500000 0.246044 0.500000
O O4 0.758997 0.198811 0.826352
O O5 0.000000 0.145173 0.500000
O O6 0.000000 0.124187 0.000000
#
# Coordination Sequence:
#
# PCOD9324680 Si02
#       4
#     4   2   4   8
#     4  11  22  50  77 114 153 202 268 325 396 466
#     4  10  24  46  84 106 156 198 266 338 398 448
#     4  10  22  44  68 114 158 208 254 308 374 468
#     4  11  25  46  78 111 159 206 254 314 387 468
#
# _framework density 24.735401
#
# number of rings (size 3 to 8) (size 9 to 14) (size 15 to 20)
#    0.000    1.333    4.444    0.000    0.000    8.889 
#    0.000    1.111    9.778    0.000    0.000    0.000 
#    0.000    0.000    0.000    0.000    0.000    0.000 
#
# Total GULP energy -50186.429038 kJ/mol
# GULP energy per Si atom -5576.269893 kJ/mol
# Density = 2.467910 g / cm^3
# Si number density = 24.735401 Si / 1000 Ang^3
#
#
#
# Elastic Constant Matrix: (Units=GPa)
#
#
# Indices 1 2 3 4 5 6 
#
# 1 215.7616 74.7585 65.6371 0.0000 0.0000 0.0000
# 2 74.7585 193.8996 36.5146 0.0000 0.0000 0.0000
# 3 65.6371 36.5146 118.9505 0.0000 0.0000 0.0000
# 4 0.0000 0.0000 0.0000 -9.2782 0.0000 0.0000
# 5 0.0000 0.0000 0.0000 0.0000 59.8543 0.0000
# 6 0.0000 0.0000 0.0000 0.0000 0.0000 39.3234
#
#
#
# Elastic Compliance Matrix: (Units=1/GPa)
#
#
# Indices 1 2 3 4 5 6 
#
# 1 0.006127 -0.001831 -0.002819 0.000000 0.000000 0.000000
# 2 -0.001831 0.006021 -0.000838 0.000000 0.000000 0.000000
# 3 -0.002819 -0.000838 0.010219 0.000000 0.000000 0.000000
# 4 0.000000 0.000000 0.000000 -0.107780 0.000000 0.000000
# 5 0.000000 0.000000 0.000000 0.000000 0.016707 0.000000
# 6 0.000000 0.000000 0.000000 0.000000 0.000000 0.025430
#
#
# Mechanical properties :
#
#
# Convention : Reuss Voigt Hill
#
# Bulk Modulus (GPa) = 87.78259 98.04802 92.91530
# Shear Modulus (GPa) = -175.42403 41.42667 -66.99868
#
# Velocity S-wave (km/s) = -8.43055 4.09686 -5.21008
# Velocity P-wave (km/s) = 7.69415 7.88060 1.20498
#
# Compressibility (1/GPa) = 0.01139178
#
# Stress axis : x y z
#
# Youngs Moduli (GPa) = 163.21912 166.08053 97.85398
#
# Poissons Ratio (x) = 0.30416 0.27581
# Poissons Ratio (y) = 0.29892 0.08198
# Poissons Ratio (z) = 0.46004 0.13914
#
# Static dielectric constant tensor:
#      x y z
#    x 1.997070 0.000000 0.000000 
#    y 0.000000 2.049010 0.000000 
#    z 0.000000 0.000000 1.914640 
# 
# From -- ./inp_files/562.got.cif
#   From: 2010.05.17/outbox.cif.g08.bks.cpg/sg21_1_cif.got.tgz:562.got - 2010.06.03 23:14:55.
