data_PCOD9324609
_publ_section_title
;
Structure prediction by ZEFSAII (Michael W. Deem and Ramdas Pophale) SiO2 
 PCOD9324609
Probable space group: C 2 2 2
;
_chemical_formula_sum "Si O2"
_cell_formula_units_Z 36
_cell_length_a 20.950923
_cell_length_b 8.485398
_cell_length_c 9.066184
_cell_angle_alpha 90.000000
_cell_angle_beta 90.000000
_cell_angle_gamma 90.000000
_cell_volume 1611.758269
_symmetry_space_group_name_H-M "C 2 2 2"
_symmetry_group_IT_number 21
_symmetry_cell_setting 'orthorhombic'
loop_
_space_group_symop_operation_xyz
x,y,z
-x,-y,z
x,-y,-z
-x,y,-z
1/2+x,1/2+y,z
1/2-x,1/2-y,z
1/2+x,1/2-y,-z
1/2-x,1/2+y,-z
loop_
_atom_site_type_symbol
_atom_site_label
_atom_site_fract_x
_atom_site_fract_y
_atom_site_fract_z
Si Si1 0.500000 0.500000 0.500000
Si Si2 0.802006 0.381077 0.137991
Si Si3 0.071499 0.492465 0.824338
Si Si4 0.500000 0.500000 0.000000
Si Si5 0.085228 0.158549 0.247535
Si Si6 0.218429 0.921128 0.652142
O O1 0.544687 0.604659 0.391123
O O2 0.750000 0.250000 0.095506
O O3 0.875831 0.352805 0.189596
O O4 0.770124 0.467942 0.274236
O O5 0.806087 0.500000 0.000000
O O6 0.099057 0.655614 0.762648
O O7 0.000000 0.500000 0.759848
O O8 0.063322 0.500000 0.000000
O O9 0.543737 0.393443 0.893689
O O10 0.155052 0.082793 0.248584
O O11 0.250000 0.750000 0.632767
O O12 0.198618 0.000000 0.500000
#
# Coordination Sequence:
#
# PCOD9324609 Si02
#       6
#     2   8   8   2   8   8
#     4  10  24  46  70 102 148 186 246 292 360 446
#     4  11  25  42  70 105 140 184 237 299 362 432
#     4  10  22  42  69  99 141 179 236 296 366 432
#     4  10  24  38  78 110 144 178 244 298 384 438
#     4  11  23  45  69 105 139 192 232 301 361 441
#     4  12  25  46  70  98 141 189 241 294 356 437
#
# _framework density 22.335854999999999
#
# number of rings (size 3 to 8) (size 9 to 14) (size 15 to 20)
#    0.000    1.111    3.333    2.667    4.667    3.556 
#    4.000    0.556    0.000    0.000    0.000    0.000 
#    0.000    0.000    0.000    0.000    0.000    0.000 
#
# Total GULP energy -100436.743614 kJ/mol
# GULP energy per Si atom -5579.819090 kJ/mol
# Density = 2.228502 g / cm^3
# Si number density = 22.335855 Si / 1000 Ang^3
#
#
#
# Elastic Constant Matrix: (Units=GPa)
#
#
# Indices 1 2 3 4 5 6 
#
# 1 191.0396 24.7251 18.2868 0.0000 0.0000 0.0000
# 2 24.7251 46.2008 7.5569 0.0000 0.0000 0.0000
# 3 18.2868 7.5569 65.2655 0.0000 0.0000 0.0000
# 4 0.0000 0.0000 0.0000 26.3981 0.0000 0.0000
# 5 0.0000 0.0000 0.0000 0.0000 25.5071 0.0000
# 6 0.0000 0.0000 0.0000 0.0000 0.0000 117.5212
#
#
#
# Elastic Compliance Matrix: (Units=1/GPa)
#
#
# Indices 1 2 3 4 5 6 
#
# 1 0.005726 -0.002856 -0.001274 0.000000 0.000000 0.000000
# 2 -0.002856 0.023487 -0.001919 0.000000 0.000000 0.000000
# 3 -0.001274 -0.001919 0.015901 0.000000 0.000000 0.000000
# 4 0.000000 0.000000 0.000000 0.037882 0.000000 0.000000
# 5 0.000000 0.000000 0.000000 0.000000 0.039205 0.000000
# 6 0.000000 0.000000 0.000000 0.000000 0.000000 0.008509
#
#
# Mechanical properties :
#
#
# Convention : Reuss Voigt Hill
#
# Bulk Modulus (GPa) = 30.28816 44.84929 37.56872
# Shear Modulus (GPa) = 32.50698 50.68108 41.59403
#
# Velocity S-wave (km/s) = 3.81907 4.76862 4.32001
# Velocity P-wave (km/s) = 5.74777 7.10230 6.46063
#
# Compressibility (1/GPa) = 0.03301620
#
# Stress axis : x y z
#
# Youngs Moduli (GPa) = 174.63946 42.57662 62.88862
#
# Poissons Ratio (x) = 0.12160 0.08010
# Poissons Ratio (y) = 0.49878 0.12070
# Poissons Ratio (z) = 0.22244 0.08172
#
# Static dielectric constant tensor:
#      x y z
#    x 1.995160 0.000000 0.000000 
#    y 0.000000 1.832620 0.000000 
#    z 0.000000 0.000000 1.818300 
# 
# From -- ./inp_files/17220.got.cif
#   From: 2010.05.17/outbox.cif.g08.bks.cpg/sg21_9_cif.got.tgz:17220.got - 2010.06.03 23:14:55.
