data_PCOD9324955
_publ_section_title
;
Structure prediction by ZEFSAII (Michael W. Deem and Ramdas Pophale) SiO2 
 PCOD9324955
Probable space group: C 2 2 2
;
_chemical_formula_sum "Si O2"
_cell_formula_units_Z 32
_cell_length_a 15.510255
_cell_length_b 7.372957
_cell_length_c 11.434705
_cell_angle_alpha 90.000000
_cell_angle_beta 90.000000
_cell_angle_gamma 90.000000
_cell_volume 1307.632193
_symmetry_space_group_name_H-M "C 2 2 2"
_symmetry_group_IT_number 21
_symmetry_cell_setting 'orthorhombic'
loop_
_space_group_symop_operation_xyz
x,y,z
-x,-y,z
x,-y,-z
-x,y,-z
1/2+x,1/2+y,z
1/2-x,1/2-y,z
1/2+x,1/2-y,-z
1/2-x,1/2+y,-z
loop_
_atom_site_type_symbol
_atom_site_label
_atom_site_fract_x
_atom_site_fract_y
_atom_site_fract_z
Si Si1 0.347746 0.706598 0.454423
Si Si2 0.479562 0.218217 0.751846
Si Si3 0.343505 0.832893 0.706731
Si Si4 0.163034 0.360559 0.895484
O O1 0.346549 0.500000 0.500000
O O2 0.250000 0.750000 0.411811
O O3 0.423931 0.723889 0.360378
O O4 0.362699 0.832718 0.568470
O O5 0.577684 0.286934 0.757494
O O6 0.422002 0.254333 0.865762
O O7 0.500000 0.000000 0.742379
O O8 0.250000 0.750000 0.717968
O O9 0.331776 0.017862 0.778206
O O10 0.250000 0.250000 0.914722
O O11 0.148361 0.500000 0.000000
#
# Coordination Sequence:
#
# PCOD9324955 Si02
#       4
#     8   8   8   8
#     4  11  26  43  71 110 152 197 240 296 361 435
#     4  10  24  42  73 102 145 190 241 289 365 432
#     4  10  24  43  68 103 146 184 238 293 356 433
#     4  11  25  47  73 101 135 186 242 307 369 437
#
# _framework density 24.471713999999999
#
# number of rings (size 3 to 8) (size 9 to 14) (size 15 to 20)
#    0.000    1.500    0.000    2.250   21.000    9.500 
#    0.000    0.000    0.000    1.500    0.000    0.000 
#    0.000    0.000    0.000    0.000    0.000    0.000 
#
# Total GULP energy -89417.400882 kJ/mol
# GULP energy per Si atom -5588.587555 kJ/mol
# Density = 2.441602 g / cm^3
# Si number density = 24.471714 Si / 1000 Ang^3
#
#
#
# Elastic Constant Matrix: (Units=GPa)
#
#
# Indices 1 2 3 4 5 6 
#
# 1 223.7536 5.5488 50.2994 0.0000 0.0000 0.0000
# 2 5.5488 48.8514 28.9992 0.0000 0.0000 0.0000
# 3 50.2994 28.9992 85.9412 0.0000 0.0000 0.0000
# 4 0.0000 0.0000 0.0000 34.0847 0.0000 0.0000
# 5 0.0000 0.0000 0.0000 0.0000 16.0609 0.0000
# 6 0.0000 0.0000 0.0000 0.0000 0.0000 11.2752
#
#
#
# Elastic Compliance Matrix: (Units=1/GPa)
#
#
# Indices 1 2 3 4 5 6 
#
# 1 0.005236 0.001531 -0.003581 0.000000 0.000000 0.000000
# 2 0.001531 0.026045 -0.009685 0.000000 0.000000 0.000000
# 3 -0.003581 -0.009685 0.017000 0.000000 0.000000 0.000000
# 4 0.000000 0.000000 0.000000 0.029339 0.000000 0.000000
# 5 0.000000 0.000000 0.000000 0.000000 0.062263 0.000000
# 6 0.000000 0.000000 0.000000 0.000000 0.000000 0.088690
#
#
# Mechanical properties :
#
#
# Convention : Reuss Voigt Hill
#
# Bulk Modulus (GPa) = 40.30334 58.69347 49.49841
# Shear Modulus (GPa) = 19.20760 30.53074 24.86917
#
# Velocity S-wave (km/s) = 2.80463 3.53596 3.19131
# Velocity P-wave (km/s) = 5.19548 6.38020 5.81807
#
# Compressibility (1/GPa) = 0.02481184
#
# Stress axis : x y z
#
# Youngs Moduli (GPa) = 190.97403 38.39453 58.82400
#
# Poissons Ratio (x) = -0.05879 0.21067
# Poissons Ratio (y) = -0.29242 0.56969
# Poissons Ratio (z) = 0.68395 0.37184
#
# Static dielectric constant tensor:
#      x y z
#    x 2.172790 0.000000 0.000000 
#    y 0.000000 2.133270 0.000000 
#    z 0.000000 0.000000 1.951760 
# 
# From -- ./inp_files/24690.got.cif
#   From: 2010.05.17/outbox.cif.g08.bks.cpg/sg21_13_cif.got.tgz:24690.got - 2010.06.03 23:14:55.
