data_PCOD9324279
_publ_section_title
;
Structure prediction by ZEFSAII (Michael W. Deem and Ramdas Pophale) SiO2 
 PCOD9324279
Probable space group: C 2 2 2
;
_chemical_formula_sum "Si O2"
_cell_formula_units_Z 48
_cell_length_a 18.237622
_cell_length_b 8.057702
_cell_length_c 14.806398
_cell_angle_alpha 90.000000
_cell_angle_beta 90.000000
_cell_angle_gamma 90.000000
_cell_volume 2175.849392
_symmetry_space_group_name_H-M "C 2 2 2"
_symmetry_group_IT_number 21
_symmetry_cell_setting 'orthorhombic'
loop_
_space_group_symop_operation_xyz
x,y,z
-x,-y,z
x,-y,-z
-x,y,-z
1/2+x,1/2+y,z
1/2-x,1/2-y,z
1/2+x,1/2-y,-z
1/2-x,1/2+y,-z
loop_
_atom_site_type_symbol
_atom_site_label
_atom_site_fract_x
_atom_site_fract_y
_atom_site_fract_z
Si Si1 0.043254 0.649457 0.756124
Si Si2 0.687768 0.029234 0.288884
Si Si3 0.744291 0.551545 0.097177
Si Si4 0.750000 0.250000 0.583521
Si Si5 0.639129 0.500000 0.500000
Si Si6 0.410676 0.667772 0.325116
Si Si7 0.080249 0.962265 0.860090
O O1 0.112627 0.574249 0.708040
O O2 0.073481 0.772737 0.830598
O O3 0.000000 0.500000 0.802737
O O4 0.986078 0.729064 0.685608
O O5 0.660600 0.211405 0.318853
O O6 0.719313 0.028348 0.186753
O O7 0.736242 0.912364 0.353139
O O8 0.750000 0.750000 0.107906
O O9 0.658006 0.504527 0.094946
O O10 0.777019 0.500000 0.000000
O O11 0.686396 0.332734 0.522600
O O12 0.593805 0.447782 0.411852
O O13 0.413732 0.560938 0.234103
O O14 0.000000 0.000000 0.900904
#
# Coordination Sequence:
#
# PCOD9324279 Si02
#       7
#     8   8   8   4   4   8   8
#     4   9  18  38  67  92 120 173 233 273 336 420
#     4  11  21  43  68  94 131 186 226 282 356 437
#     4  12  26  42  69 103 140 174 230 300 351 416
#     4  12  24  40  64  88 136 178 226 290 360 418
#     4  12  24  40  59 100 131 170 232 300 340 412
#     4  10  23  38  67  95 132 183 231 280 353 421
#     4  10  21  43  67  94 136 186 226 278 352 432
#
# _framework density 22.060351000000001
#
# number of rings (size 3 to 8) (size 9 to 14) (size 15 to 20)
#    0.000    1.333    2.500    3.000    2.333    1.667 
#    0.000   10.417    0.000   16.500    0.000    0.000 
#    0.000    0.000    0.000    0.000    0.000    0.000 
#
# Total GULP energy -133906.593602 kJ/mol
# GULP energy per Si atom -5579.441400 kJ/mol
# Density = 2.201014 g / cm^3
# Si number density = 22.060351 Si / 1000 Ang^3
#
#
#
# Elastic Constant Matrix: (Units=GPa)
#
#
# Indices 1 2 3 4 5 6 
#
# 1 85.7508 7.1136 54.2033 0.0000 0.0000 0.0000
# 2 7.1136 77.2447 33.2596 0.0000 0.0000 0.0000
# 3 54.2033 33.2596 131.1338 0.0000 0.0000 0.0000
# 4 0.0000 0.0000 0.0000 -106.7793 0.0000 0.0000
# 5 0.0000 0.0000 0.0000 0.0000 15.1527 0.0000
# 6 0.0000 0.0000 0.0000 0.0000 0.0000 14.7966
#
#
#
# Elastic Compliance Matrix: (Units=1/GPa)
#
#
# Indices 1 2 3 4 5 6 
#
# 1 0.015947 0.001538 -0.006982 0.000000 0.000000 0.000000
# 2 0.001538 0.014681 -0.004359 0.000000 0.000000 0.000000
# 3 -0.006982 -0.004359 0.011617 0.000000 0.000000 0.000000
# 4 0.000000 0.000000 0.000000 -0.009365 0.000000 0.000000
# 5 0.000000 0.000000 0.000000 0.000000 0.065995 0.000000
# 6 0.000000 0.000000 0.000000 0.000000 0.000000 0.067583
#
#
# Mechanical properties :
#
#
# Convention : Reuss Voigt Hill
#
# Bulk Modulus (GPa) = 44.17126 53.69804 48.93465
# Shear Modulus (GPa) = 25.82493 -2.06247 11.88123
#
# Velocity S-wave (km/s) = 3.42519 -0.96796 2.32325
# Velocity P-wave (km/s) = 5.97569 4.81093 5.42466
#
# Compressibility (1/GPa) = 0.02263916
#
# Stress axis : x y z
#
# Youngs Moduli (GPa) = 62.70662 68.11427 86.07898
#
# Poissons Ratio (x) = -0.10473 0.60097
# Poissons Ratio (y) = -0.09641 0.37523
# Poissons Ratio (z) = 0.43780 0.29692
#
# Static dielectric constant tensor:
#      x y z
#    x 2.062070 0.000000 0.000000 
#    y 0.000000 1.834890 0.000000 
#    z 0.000000 0.000000 1.791630 
# 
# From -- ./inp_files/32875.got.cif
#   From: 2010.05.17/outbox.cif.g08.bks.cpg/sg21_17_cif.got.tgz:32875.got - 2010.06.03 23:14:55.
