data_PCOD9324867
_publ_section_title
;
Structure prediction by ZEFSAII (Michael W. Deem and Ramdas Pophale) SiO2 
 PCOD9324867
Probable space group: C 2 2 2
;
_chemical_formula_sum "Si O2"
_cell_formula_units_Z 24
_cell_length_a 20.822826
_cell_length_b 5.417465
_cell_length_c 8.323090
_cell_angle_alpha 90.000000
_cell_angle_beta 90.000000
_cell_angle_gamma 90.000000
_cell_volume 938.902240
_symmetry_space_group_name_H-M "C 2 2 2"
_symmetry_group_IT_number 21
_symmetry_cell_setting 'orthorhombic'
loop_
_space_group_symop_operation_xyz
x,y,z
-x,-y,z
x,-y,-z
-x,y,-z
1/2+x,1/2+y,z
1/2-x,1/2-y,z
1/2+x,1/2-y,-z
1/2-x,1/2+y,-z
loop_
_atom_site_type_symbol
_atom_site_label
_atom_site_fract_x
_atom_site_fract_y
_atom_site_fract_z
Si Si1 0.676902 0.248723 0.896471
Si Si2 0.181895 0.745354 0.394741
Si Si3 0.428192 0.505582 0.694539
O O1 0.750000 0.250000 0.825166
O O2 0.617393 0.285087 0.772133
O O3 0.673734 0.500000 0.000000
O O4 0.671156 0.000000 0.000000
O O5 0.178031 0.500000 0.500000
O O6 0.250000 0.750000 0.305451
O O7 0.118498 0.770101 0.288415
O O8 0.185533 0.000000 0.500000
O O9 0.500000 0.500000 0.763119
O O10 0.436382 0.500000 0.500000
#
# Coordination Sequence:
#
# PCOD9324867 Si02
#       3
#     8   8   8
#     4  10  24  48  75 103 140 192 250 301 358 437
#     4   9  19  36  61  95 136 182 230 284 350 419
#     4  10  23  44  71 110 149 185 236 304 370 432
#
# _framework density 25.561765999999999
#
# number of rings (size 3 to 8) (size 9 to 14) (size 15 to 20)
#    0.000    2.333    0.000    0.000    0.000   20.667 
#    0.000   26.667    0.000    0.000    0.000    0.000 
#    0.000    0.000    0.000    0.000    0.000    0.000 
#
# Total GULP energy -66883.900576 kJ/mol
# GULP energy per Si atom -5573.658381 kJ/mol
# Density = 2.550359 g / cm^3
# Si number density = 25.561766 Si / 1000 Ang^3
#
#
#
# Elastic Constant Matrix: (Units=GPa)
#
#
# Indices 1 2 3 4 5 6 
#
# 1 325.7726 65.9262 65.6728 0.0000 0.0000 0.0000
# 2 65.9262 237.4101 77.1530 0.0000 0.0000 0.0000
# 3 65.6728 77.1530 86.5527 0.0000 0.0000 0.0000
# 4 0.0000 0.0000 0.0000 73.7598 0.0000 0.0000
# 5 0.0000 0.0000 0.0000 0.0000 -10.4565 0.0000
# 6 0.0000 0.0000 0.0000 0.0000 0.0000 7.1903
#
#
#
# Elastic Compliance Matrix: (Units=1/GPa)
#
#
# Indices 1 2 3 4 5 6 
#
# 1 0.003628 -0.000159 -0.002611 0.000000 0.000000 0.000000
# 2 -0.000159 0.005937 -0.005172 0.000000 0.000000 0.000000
# 3 -0.002611 -0.005172 0.018145 0.000000 0.000000 0.000000
# 4 0.000000 0.000000 0.000000 0.013558 0.000000 0.000000
# 5 0.000000 0.000000 0.000000 0.000000 -0.095634 0.000000
# 6 0.000000 0.000000 0.000000 0.000000 0.000000 0.139077
#
#
# Mechanical properties :
#
#
# Convention : Reuss Voigt Hill
#
# Bulk Modulus (GPa) = 84.55593 118.58216 101.56904
# Shear Modulus (GPa) = 47.83041 43.49761 45.66401
#
# Velocity S-wave (km/s) = 4.33039 4.12960 4.23119
# Velocity P-wave (km/s) = 7.62587 8.32041 7.98070
#
# Compressibility (1/GPa) = 0.01182649
#
# Stress axis : x y z
#
# Youngs Moduli (GPa) = 275.61915 168.43833 55.11182
#
# Poissons Ratio (x) = 0.02676 0.14391
# Poissons Ratio (y) = 0.04380 0.28501
# Poissons Ratio (z) = 0.71972 0.87109
#
# Static dielectric constant tensor:
#      x y z
#    x 2.104480 0.000000 0.000000 
#    y 0.000000 2.031790 0.000000 
#    z 0.000000 0.000000 2.451910 
# 
# From -- ./inp_files/18000.got.cif
#   From: 2010.05.17/outbox.cif.g08.bks.cpg/sg21_9_cif.got.tgz:18000.got - 2010.06.03 23:14:55.
