data_PCOD9324686
_publ_section_title
;
Structure prediction by ZEFSAII (Michael W. Deem and Ramdas Pophale) SiO2 
 PCOD9324686
Probable space group: C 2 2 2
;
_chemical_formula_sum "Si O2"
_cell_formula_units_Z 56
_cell_length_a 15.585779
_cell_length_b 13.889971
_cell_length_c 12.026254
_cell_angle_alpha 90.000000
_cell_angle_beta 90.000000
_cell_angle_gamma 90.000000
_cell_volume 2603.515844
_symmetry_space_group_name_H-M "C 2 2 2"
_symmetry_group_IT_number 21
_symmetry_cell_setting 'orthorhombic'
loop_
_space_group_symop_operation_xyz
x,y,z
-x,-y,z
x,-y,-z
-x,y,-z
1/2+x,1/2+y,z
1/2-x,1/2-y,z
1/2+x,1/2-y,-z
1/2-x,1/2+y,-z
loop_
_atom_site_type_symbol
_atom_site_label
_atom_site_fract_x
_atom_site_fract_y
_atom_site_fract_z
Si Si1 0.207436 0.846487 0.432482
Si Si2 0.617909 0.948168 0.621413
Si Si3 0.298000 0.654304 0.793506
Si Si4 0.924831 0.082874 0.611472
Si Si5 0.454404 0.240646 0.109319
Si Si6 0.947930 0.755070 0.669444
Si Si7 0.367088 0.957908 0.872036
O O1 0.250000 0.750000 0.486032
O O2 0.283495 0.913069 0.390474
O O3 0.140991 0.903285 0.509661
O O4 0.145294 0.802758 0.339606
O O5 0.559373 0.852850 0.624754
O O6 0.601854 0.000000 0.500000
O O7 0.611827 0.993312 0.748269
O O8 0.250000 0.750000 0.741538
O O9 0.358386 0.589941 0.713673
O O10 0.365661 0.703545 0.875476
O O11 0.225956 0.589041 0.848634
O O12 0.979084 0.181410 0.612130
O O13 0.000000 0.000000 0.616501
O O14 0.520912 0.258291 0.206187
O O15 0.434448 0.128041 0.115267
O O16 0.500000 0.271843 0.000000
O O17 0.365463 0.000000 0.000000
#
# Coordination Sequence:
#
# PCOD9324686 Si02
#       7
#     8   8   8   8   8   8   8
#     4  10  23  42  61  90 134 184 226 276 347 427
#     4  11  25  43  68  97 140 185 225 281 346 419
#     4   9  21  43  66  94 135 184 226 276 349 429
#     4  11  23  40  69 100 135 176 235 293 350 405
#     4  10  22  44  69  95 131 176 230 286 348 403
#     4  10  24  41  62  97 132 172 227 285 344 402
#     4  11  24  43  71 101 132 180 232 280 338 426
#
# _framework density 21.509374999999999
#
# number of rings (size 3 to 8) (size 9 to 14) (size 15 to 20)
#    0.000    1.714    0.000    2.571    4.000   10.571 
#    5.143    6.429    0.000    0.000    0.000    0.000 
#    0.000    0.000    0.000    0.000    0.000    0.000 
#
# Total GULP energy -155938.392524 kJ/mol
# GULP energy per Si atom -5569.228304 kJ/mol
# Density = 2.146042 g / cm^3
# Si number density = 21.509375 Si / 1000 Ang^3
#
#
#
# Elastic Constant Matrix: (Units=GPa)
#
#
# Indices 1 2 3 4 5 6 
#
# 1 116.0966 40.3321 49.4569 0.0000 0.0000 0.0000
# 2 40.3321 96.7936 53.1250 0.0000 0.0000 0.0000
# 3 49.4569 53.1250 143.6801 0.0000 0.0000 0.0000
# 4 0.0000 0.0000 0.0000 16.5218 0.0000 0.0000
# 5 0.0000 0.0000 0.0000 0.0000 40.2404 0.0000
# 6 0.0000 0.0000 0.0000 0.0000 0.0000 37.9334
#
#
#
# Elastic Compliance Matrix: (Units=1/GPa)
#
#
# Indices 1 2 3 4 5 6 
#
# 1 0.010779 -0.003080 -0.002571 0.000000 0.000000 0.000000
# 2 -0.003080 0.013842 -0.004058 0.000000 0.000000 0.000000
# 3 -0.002571 -0.004058 0.009345 0.000000 0.000000 0.000000
# 4 0.000000 0.000000 0.000000 0.060526 0.000000 0.000000
# 5 0.000000 0.000000 0.000000 0.000000 0.024851 0.000000
# 6 0.000000 0.000000 0.000000 0.000000 0.000000 0.026362
#
#
# Mechanical properties :
#
#
# Convention : Reuss Voigt Hill
#
# Bulk Modulus (GPa) = 68.73976 71.37758 70.05867
# Shear Modulus (GPa) = 29.41656 33.18289 31.29973
#
# Velocity S-wave (km/s) = 3.70214 3.93201 3.81880
# Velocity P-wave (km/s) = 7.09238 7.33966 7.21708
#
# Compressibility (1/GPa) = 0.01454762
#
# Stress axis : x y z
#
# Youngs Moduli (GPa) = 92.77335 72.24531 107.00502
#
# Poissons Ratio (x) = 0.22252 0.27516
# Poissons Ratio (y) = 0.28575 0.43420
# Poissons Ratio (z) = 0.23856 0.29315
#
# Static dielectric constant tensor:
#      x y z
#    x 1.763190 0.000000 0.000000 
#    y 0.000000 1.875390 0.000000 
#    z 0.000000 0.000000 1.790370 
# 
# From -- ./inp_files/25294.got.cif
#   From: 2010.05.17/outbox.cif.g08.bks.cpg/sg21_13_cif.got.tgz:25294.got - 2010.06.03 23:14:55.
