data_PCOD9324520
_publ_section_title
;
Structure prediction by ZEFSAII (Michael W. Deem and Ramdas Pophale) SiO2 
 PCOD9324520
Probable space group: C 2 2 2
;
_chemical_formula_sum "Si O2"
_cell_formula_units_Z 52
_cell_length_a 27.439168
_cell_length_b 16.380329
_cell_length_c 5.340116
_cell_angle_alpha 90.000000
_cell_angle_beta 90.000000
_cell_angle_gamma 90.000000
_cell_volume 2400.182418
_symmetry_space_group_name_H-M "C 2 2 2"
_symmetry_group_IT_number 21
_symmetry_cell_setting 'orthorhombic'
loop_
_space_group_symop_operation_xyz
x,y,z
-x,-y,z
x,-y,-z
-x,y,-z
1/2+x,1/2+y,z
1/2-x,1/2-y,z
1/2+x,1/2-y,-z
1/2-x,1/2+y,-z
loop_
_atom_site_type_symbol
_atom_site_label
_atom_site_fract_x
_atom_site_fract_y
_atom_site_fract_z
Si Si1 0.727410 0.500000 0.500000
Si Si2 0.793873 0.375602 0.222501
Si Si3 0.339441 0.298429 0.621839
Si Si4 0.554662 0.250347 0.379727
Si Si5 0.703670 0.624815 0.121979
Si Si6 0.133244 0.500000 0.000000
Si Si7 0.000000 0.672415 0.000000
Si Si8 0.438306 0.915942 0.640689
O O1 0.759374 0.421876 0.420063
O O2 0.700077 0.535525 0.256254
O O3 0.818158 0.291150 0.305277
O O4 0.833894 0.444594 0.174721
O O5 0.759580 0.363594 0.976732
O O6 0.398158 0.305727 0.590730
O O7 0.315369 0.319591 0.352905
O O8 0.325285 0.353249 0.865599
O O9 0.500000 0.268983 0.500000
O O10 0.543129 0.230691 0.089480
O O11 0.574179 0.164201 0.487389
O O12 0.100555 0.435833 0.147449
O O13 0.987246 0.612382 0.222714
O O14 0.442603 0.000000 0.500000
#
# Coordination Sequence:
#
# PCOD9324520 Si02
#       8
#     4   8   8   8   8   4   4   8
#     4  12  26  50  66 104 142 196 236 306 358 428
#     4  12  27  44  68  99 149 190 248 292 356 418
#     4  12  29  45  74 109 141 195 244 301 362 432
#     4  10  25  44  66  94 137 181 236 307 361 430
#     4  12  28  47  72 102 146 188 247 299 360 431
#     4  12  26  39  62  90 142 196 239 288 342 432
#     4  10  22  41  60  84 134 173 238 298 348 419
#     4  11  23  37  55  90 125 187 242 290 347 409
#
# _framework density 21.665019999999998
#
# number of rings (size 3 to 8) (size 9 to 14) (size 15 to 20)
#    0.000    0.615    3.077    3.231   14.000    7.385 
#    0.000    0.000    0.000    0.000    0.000    0.538 
#    4.615    0.000    0.000    0.000    0.000    0.000 
#
# Total GULP energy -145052.324895 kJ/mol
# GULP energy per Si atom -5578.935573 kJ/mol
# Density = 2.161571 g / cm^3
# Si number density = 21.665020 Si / 1000 Ang^3
#
#
#
# Elastic Constant Matrix: (Units=GPa)
#
#
# Indices 1 2 3 4 5 6 
#
# 1 99.9445 35.6277 31.7149 0.0000 0.0000 0.0000
# 2 35.6277 65.0721 26.6211 0.0000 0.0000 0.0000
# 3 31.7149 26.6211 114.9397 0.0000 0.0000 0.0000
# 4 0.0000 0.0000 0.0000 44.7092 0.0000 0.0000
# 5 0.0000 0.0000 0.0000 0.0000 3.1663 0.0000
# 6 0.0000 0.0000 0.0000 0.0000 0.0000 52.9825
#
#
#
# Elastic Compliance Matrix: (Units=1/GPa)
#
#
# Indices 1 2 3 4 5 6 
#
# 1 0.012884 -0.006186 -0.002122 0.000000 0.000000 0.000000
# 2 -0.006186 0.019946 -0.002913 0.000000 0.000000 0.000000
# 3 -0.002122 -0.002913 0.009960 0.000000 0.000000 0.000000
# 4 0.000000 0.000000 0.000000 0.022367 0.000000 0.000000
# 5 0.000000 0.000000 0.000000 0.000000 0.315831 0.000000
# 6 0.000000 0.000000 0.000000 0.000000 0.000000 0.018874
#
#
# Mechanical properties :
#
#
# Convention : Reuss Voigt Hill
#
# Bulk Modulus (GPa) = 49.14386 51.98709 50.56547
# Shear Modulus (GPa) = 11.65264 32.57110 22.11187
#
# Velocity S-wave (km/s) = 2.32169 3.88157 3.19819
# Velocity P-wave (km/s) = 5.46989 6.64355 6.08508
#
# Compressibility (1/GPa) = 0.02034842
#
# Stress axis : x y z
#
# Youngs Moduli (GPa) = 77.61463 50.13515 100.39692
#
# Poissons Ratio (x) = 0.31013 0.21308
# Poissons Ratio (y) = 0.48012 0.29244
# Poissons Ratio (z) = 0.16473 0.14604
#
# Static dielectric constant tensor:
#      x y z
#    x 1.859850 0.000000 0.000000 
#    y 0.000000 1.797990 0.000000 
#    z 0.000000 0.000000 1.871680 
# 
# From -- ./inp_files/7460.got.cif
#   From: 2010.05.17/outbox.cif.g08.bks.cpg/sg21_4_cif.got.tgz:7460.got - 2010.06.03 23:14:55.
