data_PCOD9324333
_publ_section_title
;
Structure prediction by ZEFSAII (Michael W. Deem and Ramdas Pophale) SiO2 
 PCOD9324333
Probable space group: C 2 2 2
;
_chemical_formula_sum "Si O2"
_cell_formula_units_Z 32
_cell_length_a 5.987201
_cell_length_b 29.850965
_cell_length_c 8.733812
_cell_angle_alpha 90.000000
_cell_angle_beta 90.000000
_cell_angle_gamma 90.000000
_cell_volume 1560.939436
_symmetry_space_group_name_H-M "C 2 2 2"
_symmetry_group_IT_number 21
_symmetry_cell_setting 'orthorhombic'
loop_
_space_group_symop_operation_xyz
x,y,z
-x,-y,z
x,-y,-z
-x,y,-z
1/2+x,1/2+y,z
1/2-x,1/2-y,z
1/2+x,1/2-y,-z
1/2-x,1/2+y,-z
loop_
_atom_site_type_symbol
_atom_site_label
_atom_site_fract_x
_atom_site_fract_y
_atom_site_fract_z
Si Si1 0.098192 0.622118 0.672253
Si Si2 0.500000 0.500000 0.500000
Si Si3 0.633762 0.207501 0.348792
Si Si4 0.317775 0.039128 0.753502
Si Si5 0.000000 0.000000 0.000000
Si Si6 0.000000 0.143463 0.500000
O O1 0.360024 0.617806 0.632439
O O2 0.000000 0.618027 0.500000
O O3 0.035801 0.672187 0.729903
O O4 0.962125 0.584354 0.760198
O O5 0.661720 0.530566 0.604934
O O6 0.500000 0.224526 0.500000
O O7 0.750000 0.250000 0.270245
O O8 0.830110 0.175546 0.410246
O O9 0.500000 0.000000 0.749979
O O10 0.156295 0.030907 0.895764
#
# Coordination Sequence:
#
# PCOD9324333 Si02
#       6
#     8   2   8   8   2   4
#     4   9  19  29  48  79 110 148 193 227 282 346
#     4  10  22  36  60  80 116 146 182 242 290 332
#     4   9  15  24  41  68 107 156 183 220 273 341
#     4  11  22  39  57  83 111 151 194 241 293 353
#     4  10  26  42  60  76 112 150 198 250 296 340
#     4   8  16  27  42  69 108 150 187 224 267 336
#
# _framework density 20.500477
#
# number of rings (size 3 to 8) (size 9 to 14) (size 15 to 20)
#    0.000    3.000    1.250    2.250    0.000   13.000 
#    0.000    0.000    0.000    0.000    0.000    0.000 
#    7.500    0.000    0.000    0.000    0.000    0.000 
#
# Total GULP energy -89095.563261 kJ/mol
# GULP energy per Si atom -5568.472704 kJ/mol
# Density = 2.045382 g / cm^3
# Si number density = 20.500477 Si / 1000 Ang^3
#
#
#
# Elastic Constant Matrix: (Units=GPa)
#
#
# Indices 1 2 3 4 5 6 
#
# 1 144.0668 57.5299 37.4057 0.0000 0.0000 0.0000
# 2 57.5299 140.9337 26.8958 0.0000 0.0000 0.0000
# 3 37.4057 26.8958 49.7384 0.0000 0.0000 0.0000
# 4 0.0000 0.0000 0.0000 -1.7066 0.0000 0.0000
# 5 0.0000 0.0000 0.0000 0.0000 14.8786 0.0000
# 6 0.0000 0.0000 0.0000 0.0000 0.0000 31.3605
#
#
#
# Elastic Compliance Matrix: (Units=1/GPa)
#
#
# Indices 1 2 3 4 5 6 
#
# 1 0.009531 -0.002813 -0.005646 0.000000 0.000000 0.000000
# 2 -0.002813 0.008742 -0.002612 0.000000 0.000000 0.000000
# 3 -0.005646 -0.002612 0.025764 0.000000 0.000000 0.000000
# 4 0.000000 0.000000 0.000000 -0.585972 0.000000 0.000000
# 5 0.000000 0.000000 0.000000 0.000000 0.067211 0.000000
# 6 0.000000 0.000000 0.000000 0.000000 0.000000 0.031887
#
#
# Mechanical properties :
#
#
# Convention : Reuss Voigt Hill
#
# Bulk Modulus (GPa) = 45.67380 64.26684 54.97032
# Shear Modulus (GPa) = -12.09492 23.10033 5.50271
#
# Velocity S-wave (km/s) = -2.43159 3.36045 1.64013
# Velocity P-wave (km/s) = 3.80056 6.81718 5.51897
#
# Compressibility (1/GPa) = 0.02189439
#
# Stress axis : x y z
#
# Youngs Moduli (GPa) = 104.92618 114.38752 38.81395
#
# Poissons Ratio (x) = 0.32176 0.21916
# Poissons Ratio (y) = 0.29514 0.10138
# Poissons Ratio (z) = 0.59245 0.29877
#
# Static dielectric constant tensor:
#      x y z
#    x 1.860760 0.000000 0.000000 
#    y 0.000000 1.822550 0.000000 
#    z 0.000000 0.000000 1.737830 
# 
# From -- ./inp_files/9133.got.cif
#   From: 2010.05.17/outbox.cif.g08.bks.cpg/sg21_5_cif.got.tgz:9133.got - 2010.06.03 23:14:55.
