data_PCOD9324016
_publ_section_title
;
Structure prediction by ZEFSAII (Michael W. Deem and Ramdas Pophale) SiO2 
 PCOD9324016
Probable space group: C 2 2 2
;
_chemical_formula_sum "Si O2"
_cell_formula_units_Z 58
_cell_length_a 19.123602
_cell_length_b 5.470952
_cell_length_c 27.180217
_cell_angle_alpha 90.000000
_cell_angle_beta 90.000000
_cell_angle_gamma 90.000000
_cell_volume 2843.711411
_symmetry_space_group_name_H-M "C 2 2 2"
_symmetry_group_IT_number 21
_symmetry_cell_setting 'orthorhombic'
loop_
_space_group_symop_operation_xyz
x,y,z
-x,-y,z
x,-y,-z
-x,y,-z
1/2+x,1/2+y,z
1/2-x,1/2-y,z
1/2+x,1/2-y,-z
1/2-x,1/2+y,-z
loop_
_atom_site_type_symbol
_atom_site_label
_atom_site_fract_x
_atom_site_fract_y
_atom_site_fract_z
Si Si1 0.922759 0.999021 0.677096
Si Si2 0.067687 0.670430 0.580314
Si Si3 0.500000 0.500000 0.500000
Si Si4 0.821226 0.388812 0.371757
Si Si5 0.080742 0.981397 0.867520
Si Si6 0.207820 0.999732 0.941227
Si Si7 0.919740 0.477993 0.194476
Si Si8 0.179411 0.666436 0.728314
O O1 0.932268 0.183115 0.631324
O O2 0.869515 0.104809 0.716476
O O3 0.884763 0.772107 0.651082
O O4 0.000000 0.000000 0.699755
O O5 0.141450 0.529618 0.583333
O O6 0.000000 0.500000 0.580967
O O7 0.051289 0.843621 0.534626
O O8 0.750000 0.250000 0.385724
O O9 0.801169 0.553472 0.324709
O O10 0.136049 0.994383 0.911281
O O11 0.089999 0.224022 0.834147
O O12 0.090986 0.724026 0.838439
O O13 0.000000 0.000000 0.884434
O O14 0.250000 0.250000 0.929200
O O15 0.250000 0.750000 0.929403
O O16 0.195789 0.000000 0.000000
O O17 0.866102 0.485905 0.239325
O O18 0.000000 0.500000 0.212250
O O19 0.250000 0.750000 0.754139
#
# Coordination Sequence:
#
# PCOD9324016 Si02
#       8
#     8   8   2   8   8   8   8   8
#     4  11  22  39  63  95 123 161 206 254 316 372
#     4  11  22  39  66 103 123 160 205 260 308 375
#     4  12  22  40  68 110 124 156 218 270 304 394
#     4  11  23  41  63  98 132 166 206 263 320 377
#     4  10  22  42  62  89 127 173 222 274 336 399
#     4  10  21  38  63  95 127 164 218 280 342 407
#     4  10  24  40  61  90 130 176 223 276 329 395
#     4  11  25  38  59  92 126 169 213 264 315 380
#
# _framework density 20.395879000000001
#
# number of rings (size 3 to 8) (size 9 to 14) (size 15 to 20)
#    0.000    1.379    3.448    1.034    3.862    2.483 
#    0.000    0.000    0.000    4.966   50.207    0.000 
#    0.000    0.000    0.000    0.000    0.000    0.000 
#
# Total GULP energy -161936.583834 kJ/mol
# GULP energy per Si atom -5584.020132 kJ/mol
# Density = 2.034946 g / cm^3
# Si number density = 20.395879 Si / 1000 Ang^3
#
#
#
# Elastic Constant Matrix: (Units=GPa)
#
#
# Indices 1 2 3 4 5 6 
#
# 1 158.0529 62.8663 71.2252 0.0000 0.0000 0.0000
# 2 62.8663 116.8946 36.1630 0.0000 0.0000 0.0000
# 3 71.2252 36.1630 63.8702 0.0000 0.0000 0.0000
# 4 0.0000 0.0000 0.0000 21.2797 0.0000 0.0000
# 5 0.0000 0.0000 0.0000 0.0000 -26.1099 0.0000
# 6 0.0000 0.0000 0.0000 0.0000 0.0000 11.9582
#
#
#
# Elastic Compliance Matrix: (Units=1/GPa)
#
#
# Indices 1 2 3 4 5 6 
#
# 1 0.013632 -0.003187 -0.013398 0.000000 0.000000 0.000000
# 2 -0.003187 0.011116 -0.002740 0.000000 0.000000 0.000000
# 3 -0.013398 -0.002740 0.032149 0.000000 0.000000 0.000000
# 4 0.000000 0.000000 0.000000 0.046993 0.000000 0.000000
# 5 0.000000 0.000000 0.000000 0.000000 -0.038300 0.000000
# 6 0.000000 0.000000 0.000000 0.000000 0.000000 0.083625
#
#
# Mechanical properties :
#
#
# Convention : Reuss Voigt Hill
#
# Bulk Modulus (GPa) = 54.80104 75.48077 65.14090
# Shear Modulus (GPa) = 25.78022 12.66313 19.22168
#
# Velocity S-wave (km/s) = 3.55912 2.49442 3.07323
# Velocity P-wave (km/s) = 6.61943 6.73679 6.67837
#
# Compressibility (1/GPa) = 0.01824783
#
# Stress axis : x y z
#
# Youngs Moduli (GPa) = 73.35695 89.95824 31.10544
#
# Poissons Ratio (x) = 0.28666 0.41674
# Poissons Ratio (y) = 0.23376 0.08524
# Poissons Ratio (z) = 0.98280 0.24652
#
# Static dielectric constant tensor:
#      x y z
#    x 1.708380 0.000000 0.000000 
#    y 0.000000 1.825680 0.000000 
#    z 0.000000 0.000000 1.696180 
# 
# From -- ./inp_files/39153.got.cif
#   From: 2010.05.17/outbox.cif.g08.bks.cpg/sg21_20_cif.got.tgz:39153.got - 2010.06.03 23:14:55.
