data_PCOD9324672
_publ_section_title
;
Structure prediction by ZEFSAII (Michael W. Deem and Ramdas Pophale) SiO2 
 PCOD9324672
Probable space group: C 2 2 2
;
_chemical_formula_sum "Si O2"
_cell_formula_units_Z 36
_cell_length_a 15.542406
_cell_length_b 11.097896
_cell_length_c 7.936039
_cell_angle_alpha 90.000000
_cell_angle_beta 90.000000
_cell_angle_gamma 90.000000
_cell_volume 1368.871538
_symmetry_space_group_name_H-M "C 2 2 2"
_symmetry_group_IT_number 21
_symmetry_cell_setting 'orthorhombic'
loop_
_space_group_symop_operation_xyz
x,y,z
-x,-y,z
x,-y,-z
-x,y,-z
1/2+x,1/2+y,z
1/2-x,1/2-y,z
1/2+x,1/2-y,-z
1/2-x,1/2+y,-z
loop_
_atom_site_type_symbol
_atom_site_label
_atom_site_fract_x
_atom_site_fract_y
_atom_site_fract_z
Si Si1 0.584578 0.840441 0.277102
Si Si2 0.250000 0.250000 0.884103
Si Si3 0.338450 0.500000 0.500000
Si Si4 0.500000 0.000000 0.000000
Si Si5 0.830721 0.110253 0.839140
Si Si6 0.100370 0.740667 0.378104
Si Si7 0.000000 0.000000 0.000000
O O1 0.563624 0.933861 0.131614
O O2 0.655315 0.748247 0.214942
O O3 0.492486 0.774530 0.298556
O O4 0.608408 0.858266 0.473108
O O5 0.170454 0.278434 0.763722
O O6 0.221897 0.131798 0.990268
O O7 0.295439 0.536978 0.678559
O O8 0.388271 0.624230 0.453459
O O9 0.928602 0.066695 0.883745
#
# Coordination Sequence:
#
# PCOD9324672 Si02
#       7
#     8   4   4   2   8   8   2
#     4  10  23  43  69  99 141 201 261 318 379 469
#     4  12  24  42  66 106 160 196 238 316 400 460
#     4  10  22  43  74 108 146 195 252 310 400 477
#     4  12  22  42  70 102 136 194 266 308 380 478
#     4  11  23  41  71 109 147 193 255 328 387 465
#     4  10  23  44  70 104 148 195 252 323 392 470
#     4  12  22  42  78 110 140 204 270 300 380 480
#
# _framework density 26.299036000000001
#
# number of rings (size 3 to 8) (size 9 to 14) (size 15 to 20)
#    0.000    1.333    0.000    6.000    0.000   13.778 
#    0.000   17.778    0.000    0.000    0.000    0.000 
#    0.000    0.000    0.000    0.000    0.000    0.000 
#
# Total GULP energy -100587.370252 kJ/mol
# GULP energy per Si atom -5588.187236 kJ/mol
# Density = 2.623918 g / cm^3
# Si number density = 26.299036 Si / 1000 Ang^3
#
#
#
# Elastic Constant Matrix: (Units=GPa)
#
#
# Indices 1 2 3 4 5 6 
#
# 1 116.1737 28.6295 79.1569 0.0000 0.0000 0.0000
# 2 28.6295 115.7284 87.7116 0.0000 0.0000 0.0000
# 3 79.1569 87.7116 238.9856 0.0000 0.0000 0.0000
# 4 0.0000 0.0000 0.0000 65.2445 0.0000 0.0000
# 5 0.0000 0.0000 0.0000 0.0000 50.1295 0.0000
# 6 0.0000 0.0000 0.0000 0.0000 0.0000 21.9194
#
#
#
# Elastic Compliance Matrix: (Units=1/GPa)
#
#
# Indices 1 2 3 4 5 6 
#
# 1 0.011117 0.000056 -0.003703 0.000000 0.000000 0.000000
# 2 0.000056 0.011971 -0.004412 0.000000 0.000000 0.000000
# 3 -0.003703 -0.004412 0.007030 0.000000 0.000000 0.000000
# 4 0.000000 0.000000 0.000000 0.015327 0.000000 0.000000
# 5 0.000000 0.000000 0.000000 0.000000 0.019948 0.000000
# 6 0.000000 0.000000 0.000000 0.000000 0.000000 0.045622
#
#
# Mechanical properties :
#
#
# Convention : Reuss Voigt Hill
#
# Bulk Modulus (GPa) = 71.42566 95.76486 83.59526
# Shear Modulus (GPa) = 37.93644 45.81799 41.87721
#
# Velocity S-wave (km/s) = 3.80215 4.17849 3.99475
# Velocity P-wave (km/s) = 6.81859 7.73127 7.28923
#
# Compressibility (1/GPa) = 0.01400057
#
# Stress axis : x y z
#
# Youngs Moduli (GPa) = 89.95321 83.53489 142.24496
#
# Poissons Ratio (x) = -0.00470 0.52670
# Poissons Ratio (y) = -0.00506 0.62761
# Poissons Ratio (z) = 0.33308 0.36857
#
# Static dielectric constant tensor:
#      x y z
#    x 2.054870 0.000000 0.000000 
#    y 0.000000 2.125050 0.000000 
#    z 0.000000 0.000000 2.199510 
# 
# From -- ./inp_files/14194.got.cif
#   From: 2010.05.17/outbox.cif.g08.bks.cpg/sg21_8_cif.got.tgz:14194.got - 2010.06.03 23:14:55.
