data_PCOD9324652
_publ_section_title
;
Structure prediction by ZEFSAII (Michael W. Deem and Ramdas Pophale) SiO2 
 PCOD9324652
Probable space group: C 2 2 2
;
_chemical_formula_sum "Si O2"
_cell_formula_units_Z 52
_cell_length_a 20.950636
_cell_length_b 21.137289
_cell_length_c 5.210558
_cell_angle_alpha 90.000000
_cell_angle_beta 90.000000
_cell_angle_gamma 90.000000
_cell_volume 2307.441670
_symmetry_space_group_name_H-M "C 2 2 2"
_symmetry_group_IT_number 21
_symmetry_cell_setting 'orthorhombic'
loop_
_space_group_symop_operation_xyz
x,y,z
-x,-y,z
x,-y,-z
-x,y,-z
1/2+x,1/2+y,z
1/2-x,1/2-y,z
1/2+x,1/2-y,-z
1/2-x,1/2+y,-z
loop_
_atom_site_type_symbol
_atom_site_label
_atom_site_fract_x
_atom_site_fract_y
_atom_site_fract_z
Si Si1 0.382140 0.648176 0.426895
Si Si2 0.861556 0.627688 0.680755
Si Si3 0.767829 0.561878 0.080238
Si Si4 0.252166 0.680965 0.639229
Si Si5 0.574523 0.575272 0.052473
Si Si6 0.039379 0.730465 0.258585
Si Si7 0.363432 0.000000 0.500000
O O1 0.311865 0.679920 0.447137
O O2 0.384689 0.606314 0.173778
O O3 0.429763 0.706355 0.375079
O O4 0.405288 0.605671 0.671658
O O5 0.817761 0.664117 0.472088
O O6 0.906818 0.678734 0.807993
O O7 0.898450 0.563897 0.589296
O O8 0.809142 0.596634 0.865657
O O9 0.730508 0.619110 0.200260
O O10 0.817151 0.530007 0.282424
O O11 0.728695 0.500000 0.000000
O O12 0.250000 0.750000 0.765370
O O13 0.578390 0.500000 0.000000
O O14 0.500000 0.592046 0.000000
O O15 0.000000 0.702815 0.500000
O O16 0.000000 0.743212 0.000000
#
# Coordination Sequence:
#
# PCOD9324652 Si02
#       7
#     8   8   8   8   8   8   4
#     4  12  25  45  69 105 140 181 239 289 360 422
#     4  10  22  43  68  97 138 179 235 280 369 421
#     4   9  20  40  67  97 133 185 219 283 355 433
#     4  11  24  41  65 102 142 182 230 296 352 434
#     4  11  25  48  72  99 141 189 239 295 350 415
#     4  12  27  45  72 101 138 186 241 295 352 425
#     4   8  18  40  69  92 130 176 219 280 358 422
#
# _framework density 22.535779999999999
#
# number of rings (size 3 to 8) (size 9 to 14) (size 15 to 20)
#    0.000    1.385    1.538    3.231    6.462    3.692 
#   13.846    0.385    0.000    0.000    0.000    0.000 
#    0.000    0.000    0.000    0.000    0.000    0.000 
#
# Total GULP energy -144991.593475 kJ/mol
# GULP energy per Si atom -5576.599749 kJ/mol
# Density = 2.248449 g / cm^3
# Si number density = 22.535780 Si / 1000 Ang^3
#
#
#
# Elastic Constant Matrix: (Units=GPa)
#
#
# Indices 1 2 3 4 5 6 
#
# 1 51.7711 34.4203 0.6926 0.0000 0.0000 0.0000
# 2 34.4203 194.5225 37.2895 0.0000 0.0000 0.0000
# 3 0.6926 37.2895 80.9956 0.0000 0.0000 0.0000
# 4 0.0000 0.0000 0.0000 18.6668 0.0000 0.0000
# 5 0.0000 0.0000 0.0000 0.0000 23.2055 0.0000
# 6 0.0000 0.0000 0.0000 0.0000 0.0000 41.0648
#
#
#
# Elastic Compliance Matrix: (Units=1/GPa)
#
#
# Indices 1 2 3 4 5 6 
#
# 1 0.022120 -0.004253 0.001769 0.000000 0.000000 0.000000
# 2 -0.004253 0.006456 -0.002936 0.000000 0.000000 0.000000
# 3 0.001769 -0.002936 0.013683 0.000000 0.000000 0.000000
# 4 0.000000 0.000000 0.000000 0.053571 0.000000 0.000000
# 5 0.000000 0.000000 0.000000 0.000000 0.043093 0.000000
# 6 0.000000 0.000000 0.000000 0.000000 0.000000 0.024352
#
#
# Mechanical properties :
#
#
# Convention : Reuss Voigt Hill
#
# Bulk Modulus (GPa) = 31.82832 52.45489 42.14161
# Shear Modulus (GPa) = 27.08732 33.57987 30.33360
#
# Velocity S-wave (km/s) = 3.47070 3.86433 3.67279
# Velocity P-wave (km/s) = 5.49683 6.57552 6.06023
#
# Compressibility (1/GPa) = 0.03141856
#
# Stress axis : x y z
#
# Youngs Moduli (GPa) = 45.20828 154.88984 73.08382
#
# Poissons Ratio (x) = 0.65877 -0.12928
# Poissons Ratio (y) = 0.19228 0.21457
# Poissons Ratio (z) = -0.07997 0.45476
#
# Static dielectric constant tensor:
#      x y z
#    x 1.892810 0.000000 0.000000 
#    y 0.000000 1.957860 0.000000 
#    z 0.000000 0.000000 1.937370 
# 
# From -- ./inp_files/6012.got.cif
#   From: 2010.05.17/outbox.cif.g08.bks.cpg/sg21_4_cif.got.tgz:6012.got - 2010.06.03 23:14:55.
