data_PCOD9324942
_publ_section_title
;
Structure prediction by ZEFSAII (Michael W. Deem and Ramdas Pophale) SiO2 
 PCOD9324942
Probable space group: C 2 2 2
;
_chemical_formula_sum "Si O2"
_cell_formula_units_Z 58
_cell_length_a 18.032650
_cell_length_b 24.767642
_cell_length_c 5.650721
_cell_angle_alpha 90.000000
_cell_angle_beta 90.000000
_cell_angle_gamma 90.000000
_cell_volume 2523.760158
_symmetry_space_group_name_H-M "C 2 2 2"
_symmetry_group_IT_number 21
_symmetry_cell_setting 'orthorhombic'
loop_
_space_group_symop_operation_xyz
x,y,z
-x,-y,z
x,-y,-z
-x,y,-z
1/2+x,1/2+y,z
1/2-x,1/2-y,z
1/2+x,1/2-y,-z
1/2-x,1/2+y,-z
loop_
_atom_site_type_symbol
_atom_site_label
_atom_site_fract_x
_atom_site_fract_y
_atom_site_fract_z
Si Si1 0.930415 0.337863 0.386835
Si Si2 0.890836 0.082304 0.791717
Si Si3 0.194280 0.590186 0.292578
Si Si4 0.000000 0.000000 0.000000
Si Si5 0.274326 0.078606 0.200831
Si Si6 0.361101 0.363688 0.695405
Si Si7 0.688200 0.205094 0.761254
Si Si8 0.927577 0.761920 0.886083
O O1 0.878653 0.375495 0.233380
O O2 0.869953 0.312106 0.561539
O O3 0.964741 0.288242 0.246680
O O4 0.000000 0.367587 0.500000
O O5 0.808810 0.058379 0.761523
O O6 0.899296 0.114450 0.545017
O O7 0.950563 0.036880 0.831768
O O8 0.886839 0.113084 0.047291
O O9 0.182892 0.566727 0.555952
O O10 0.272819 0.623179 0.320129
O O11 0.203297 0.556964 0.054733
O O12 0.275686 0.145871 0.175405
O O13 0.383798 0.301688 0.713793
O O14 0.750000 0.250000 0.695530
O O15 0.636651 0.235447 0.953208
O O16 0.000000 0.790324 0.000000
#
# Coordination Sequence:
#
# PCOD9324942 Si02
#       8
#     8   8   8   2   8   8   8   8
#     4  11  23  35  49  79 118 159 211 267 314 357
#     4  10  24  45  65  93 112 155 202 264 322 393
#     4   9  18  35  58  78 107 158 199 256 297 364
#     4  12  28  50  76  98 128 162 202 270 368 406
#     4   9  18  36  57  82 109 144 201 249 296 369
#     4  10  24  42  65  85 120 157 216 255 308 381
#     4  11  22  35  55  77 111 164 214 258 315 371
#     4  12  25  37  54  84 123 169 212 275 318 365
#
# _framework density 22.981579
#
# number of rings (size 3 to 8) (size 9 to 14) (size 15 to 20)
#    0.000    1.655    2.759    1.655    8.690    1.655 
#    0.000    0.000    0.000    0.000    0.000    0.000 
#    0.000    0.000    0.000  149.586    0.000    0.000 
#
# Total GULP energy -161673.295712 kJ/mol
# GULP energy per Si atom -5574.941231 kJ/mol
# Density = 2.292927 g / cm^3
# Si number density = 22.981579 Si / 1000 Ang^3
#
#
#
# Elastic Constant Matrix: (Units=GPa)
#
#
# Indices 1 2 3 4 5 6 
#
# 1 115.3824 41.2806 9.7089 0.0000 0.0000 0.0000
# 2 41.2806 55.2972 15.5716 0.0000 0.0000 0.0000
# 3 9.7089 15.5716 132.1805 0.0000 0.0000 0.0000
# 4 0.0000 0.0000 0.0000 -26.7076 0.0000 0.0000
# 5 0.0000 0.0000 0.0000 0.0000 25.8385 0.0000
# 6 0.0000 0.0000 0.0000 0.0000 0.0000 49.5307
#
#
#
# Elastic Compliance Matrix: (Units=1/GPa)
#
#
# Indices 1 2 3 4 5 6 
#
# 1 0.011829 -0.008881 0.000177 0.000000 0.000000 0.000000
# 2 -0.008881 0.025372 -0.002337 0.000000 0.000000 0.000000
# 3 0.000177 -0.002337 0.007828 0.000000 0.000000 0.000000
# 4 0.000000 0.000000 0.000000 -0.037442 0.000000 0.000000
# 5 0.000000 0.000000 0.000000 0.000000 0.038702 0.000000
# 6 0.000000 0.000000 0.000000 0.000000 0.000000 0.020189
#
#
# Mechanical properties :
#
#
# Convention : Reuss Voigt Hill
#
# Bulk Modulus (GPa) = 43.57570 48.44247 46.00908
# Shear Modulus (GPa) = 51.97131 25.48559 38.72845
#
# Velocity S-wave (km/s) = 4.76061 3.33371 4.10957
# Velocity P-wave (km/s) = 7.01571 5.99523 6.52545
#
# Compressibility (1/GPa) = 0.02294857
#
# Stress axis : x y z
#
# Youngs Moduli (GPa) = 84.53690 39.41405 127.75219
#
# Poissons Ratio (x) = 0.35002 -0.02265
# Poissons Ratio (y) = 0.75074 0.29851
# Poissons Ratio (z) = -0.01499 0.09210
#
# Static dielectric constant tensor:
#      x y z
#    x 1.915720 0.000000 0.000000 
#    y 0.000000 1.913270 0.000000 
#    z 0.000000 0.000000 1.941780 
# 
# From -- ./inp_files/5343.got.cif
#   From: 2010.05.17/outbox.cif.g08.bks.cpg/sg21_3_cif.got.tgz:5343.got - 2010.06.03 23:14:55.
