data_PCOD9324385
_publ_section_title
;
Structure prediction by ZEFSAII (Michael W. Deem and Ramdas Pophale) SiO2 
 PCOD9324385
Probable space group: C 2 2 2
;
_chemical_formula_sum "Si O2"
_cell_formula_units_Z 48
_cell_length_a 24.416015
_cell_length_b 14.600247
_cell_length_c 7.093027
_cell_angle_alpha 90.000000
_cell_angle_beta 90.000000
_cell_angle_gamma 90.000000
_cell_volume 2528.521199
_symmetry_space_group_name_H-M "C 2 2 2"
_symmetry_group_IT_number 21
_symmetry_cell_setting 'orthorhombic'
loop_
_space_group_symop_operation_xyz
x,y,z
-x,-y,z
x,-y,-z
-x,y,-z
1/2+x,1/2+y,z
1/2-x,1/2-y,z
1/2+x,1/2-y,-z
1/2-x,1/2+y,-z
loop_
_atom_site_type_symbol
_atom_site_label
_atom_site_fract_x
_atom_site_fract_y
_atom_site_fract_z
Si Si1 0.500000 0.272755 0.000000
Si Si2 0.162535 0.500000 0.000000
Si Si3 0.763624 0.558611 0.328426
Si Si4 0.189185 0.281214 0.579531
Si Si5 0.343929 0.651555 0.747938
Si Si6 0.548342 0.443550 0.803263
Si Si7 0.616785 0.196186 0.050669
O O1 0.522953 0.343386 0.843847
O O2 0.447875 0.215694 0.931423
O O3 0.200787 0.501296 0.185441
O O4 0.128178 0.593078 0.982020
O O5 0.739011 0.500000 0.500000
O O6 0.800558 0.633765 0.437120
O O7 0.715209 0.607182 0.213300
O O8 0.250000 0.250000 0.643520
O O9 0.163801 0.202769 0.449024
O O10 0.149493 0.296617 0.753861
O O11 0.391527 0.576206 0.727899
O O12 0.359859 0.726254 0.907342
O O13 0.500000 0.500000 0.704438
O O14 0.556698 0.500000 0.000000
#
# Coordination Sequence:
#
# PCOD9324385 Si02
#       7
#     4   4   8   8   8   8   8
#     4   8  19  39  62  86 114 160 202 251 297 368
#     4  12  24  35  66  90 119 166 200 260 310 366
#     4  11  23  40  56  92 129 157 205 257 311 370
#     4  10  22  38  59  89 126 157 201 253 305 375
#     4  10  22  38  63  88 125 162 203 247 308 383
#     4   8  16  37  61  85 120 157 200 251 296 355
#     4  11  22  40  65  87 121 163 206 250 319 359
#
# _framework density 18.983429000000001
#
# number of rings (size 3 to 8) (size 9 to 14) (size 15 to 20)
#    0.000    2.167    3.333    0.000    3.500    0.333 
#   12.000    3.333    0.000    1.000    0.000    0.000 
#    0.000    0.000    0.000    0.000    0.000    0.000 
#
# Total GULP energy -133778.726857 kJ/mol
# GULP energy per Si atom -5574.113619 kJ/mol
# Density = 1.894022 g / cm^3
# Si number density = 18.983429 Si / 1000 Ang^3
#
#
#
# Elastic Constant Matrix: (Units=GPa)
#
#
# Indices 1 2 3 4 5 6 
#
# 1 139.5561 56.1305 61.4227 0.0000 0.0000 0.0000
# 2 56.1305 85.1896 21.5449 0.0000 0.0000 0.0000
# 3 61.4227 21.5449 49.1776 0.0000 0.0000 0.0000
# 4 0.0000 0.0000 0.0000 18.8682 0.0000 0.0000
# 5 0.0000 0.0000 0.0000 0.0000 51.1264 0.0000
# 6 0.0000 0.0000 0.0000 0.0000 0.0000 39.9824
#
#
#
# Elastic Compliance Matrix: (Units=1/GPa)
#
#
# Indices 1 2 3 4 5 6 
#
# 1 0.019392 -0.007481 -0.020943 0.000000 0.000000 0.000000
# 2 -0.007481 0.016087 0.002295 0.000000 0.000000 0.000000
# 3 -0.020943 0.002295 0.045487 0.000000 0.000000 0.000000
# 4 0.000000 0.000000 0.000000 0.052999 0.000000 0.000000
# 5 0.000000 0.000000 0.000000 0.000000 0.019559 0.000000
# 6 0.000000 0.000000 0.000000 0.000000 0.000000 0.025011
#
#
# Mechanical properties :
#
#
# Convention : Reuss Voigt Hill
#
# Bulk Modulus (GPa) = 34.83227 61.34662 48.08945
# Shear Modulus (GPa) = 20.80192 30.98373 25.89282
#
# Velocity S-wave (km/s) = 3.31387 4.04437 3.69720
# Velocity P-wave (km/s) = 5.74725 7.36174 6.60402
#
# Compressibility (1/GPa) = 0.02870901
#
# Stress axis : x y z
#
# Youngs Moduli (GPa) = 51.56732 62.16263 21.98426
#
# Poissons Ratio (x) = 0.46501 0.46043
# Poissons Ratio (y) = 0.38575 -0.05046
# Poissons Ratio (z) = 1.08000 -0.14269
#
# Static dielectric constant tensor:
#      x y z
#    x 1.662060 0.000000 0.000000 
#    y 0.000000 1.699880 0.000000 
#    z 0.000000 0.000000 1.649980 
# 
# From -- ./inp_files/7379.got.cif
#   From: 2010.05.17/outbox.cif.g08.bks.cpg/sg21_4_cif.got.tgz:7379.got - 2010.06.03 23:14:55.
