data_PCOD9324815
_publ_section_title
;
Structure prediction by ZEFSAII (Michael W. Deem and Ramdas Pophale) SiO2 
 PCOD9324815
Probable space group: C 2 2 2
;
_chemical_formula_sum "Si O2"
_cell_formula_units_Z 26
_cell_length_a 8.135395
_cell_length_b 21.274395
_cell_length_c 6.849559
_cell_angle_alpha 90.000000
_cell_angle_beta 90.000000
_cell_angle_gamma 90.000000
_cell_volume 1185.491580
_symmetry_space_group_name_H-M "C 2 2 2"
_symmetry_group_IT_number 21
_symmetry_cell_setting 'orthorhombic'
loop_
_space_group_symop_operation_xyz
x,y,z
-x,-y,z
x,-y,-z
-x,y,-z
1/2+x,1/2+y,z
1/2-x,1/2-y,z
1/2+x,1/2-y,-z
1/2-x,1/2+y,-z
loop_
_atom_site_type_symbol
_atom_site_label
_atom_site_fract_x
_atom_site_fract_y
_atom_site_fract_z
Si Si1 0.000000 0.000000 0.000000
Si Si2 0.950376 0.646665 0.274066
Si Si3 0.273649 0.388383 0.948335
Si Si4 0.575140 0.719129 0.697819
O O1 0.125071 0.950896 0.098053
O O2 0.000000 0.638463 0.500000
O O3 0.101429 0.613821 0.163949
O O4 0.963635 0.721949 0.236021
O O5 0.781936 0.621919 0.174978
O O6 0.377067 0.331019 0.859309
O O7 0.500000 0.691065 0.500000
O O8 0.750000 0.750000 0.640382
#
# Coordination Sequence:
#
# PCOD9324815 Si02
#       4
#     2   8   8   8
#     4  12  28  42  58  88 128 168 220 262 298 374
#     4   9  20  43  71  95 122 161 209 262 324 384
#     4  10  23  42  61  89 129 170 208 258 312 368
#     4   9  19  37  65  98 128 160 203 260 324 384
#
# _framework density 21.931830999999999
#
# number of rings (size 3 to 8) (size 9 to 14) (size 15 to 20)
#    0.000    2.462    0.000    0.000    0.000   17.231 
#    0.000   37.692    0.000    0.000    0.000    0.000 
#    0.000    0.000    0.000    0.000    0.000    0.000 
#
# Total GULP energy -72494.549125 kJ/mol
# GULP energy per Si atom -5576.503779 kJ/mol
# Density = 2.188191 g / cm^3
# Si number density = 21.931831 Si / 1000 Ang^3
#
#
#
# Elastic Constant Matrix: (Units=GPa)
#
#
# Indices 1 2 3 4 5 6 
#
# 1 103.2820 54.4027 57.6763 0.0000 0.0000 0.0000
# 2 54.4027 92.7096 41.0211 0.0000 0.0000 0.0000
# 3 57.6763 41.0211 143.7706 0.0000 0.0000 0.0000
# 4 0.0000 0.0000 0.0000 -5.9133 0.0000 0.0000
# 5 0.0000 0.0000 0.0000 0.0000 41.2245 0.0000
# 6 0.0000 0.0000 0.0000 0.0000 0.0000 36.8980
#
#
#
# Elastic Compliance Matrix: (Units=1/GPa)
#
#
# Indices 1 2 3 4 5 6 
#
# 1 0.016034 -0.007511 -0.004289 0.000000 0.000000 0.000000
# 2 -0.007511 0.015863 -0.001513 0.000000 0.000000 0.000000
# 3 -0.004289 -0.001513 0.009108 0.000000 0.000000 0.000000
# 4 0.000000 0.000000 0.000000 -0.169110 0.000000 0.000000
# 5 0.000000 0.000000 0.000000 0.000000 0.024257 0.000000
# 6 0.000000 0.000000 0.000000 0.000000 0.000000 0.027102
#
#
# Mechanical properties :
#
#
# Convention : Reuss Voigt Hill
#
# Bulk Modulus (GPa) = 69.54729 71.77360 70.66044
# Shear Modulus (GPa) = -110.31005 26.88598 -41.71204
#
# Velocity S-wave (km/s) = -7.09972 3.50507 -4.36580
# Velocity P-wave (km/s) = 5.95218 7.01267 2.62193
#
# Compressibility (1/GPa) = 0.01437871
#
# Stress axis : x y z
#
# Youngs Moduli (GPa) = 62.36845 63.03872 109.79446
#
# Poissons Ratio (x) = 0.47348 0.47093
# Poissons Ratio (y) = 0.46844 0.16612
# Poissons Ratio (z) = 0.26751 0.09538
#
# Static dielectric constant tensor:
#      x y z
#    x 1.871610 0.000000 0.000000 
#    y 0.000000 1.800450 0.000000 
#    z 0.000000 0.000000 1.904350 
# 
# From -- ./inp_files/10144.got.cif
#   From: 2010.05.17/outbox.cif.g08.bks.cpg/sg21_6_cif.got.tgz:10144.got - 2010.06.03 23:14:55.
