data_PCOD9324613
_publ_section_title
;
Structure prediction by ZEFSAII (Michael W. Deem and Ramdas Pophale) SiO2 
 PCOD9324613
Probable space group: C 2 2 2
;
_chemical_formula_sum "Si O2"
_cell_formula_units_Z 52
_cell_length_a 17.911543
_cell_length_b 28.982496
_cell_length_c 5.116605
_cell_angle_alpha 90.000000
_cell_angle_beta 90.000000
_cell_angle_gamma 90.000000
_cell_volume 2656.138247
_symmetry_space_group_name_H-M "C 2 2 2"
_symmetry_group_IT_number 21
_symmetry_cell_setting 'orthorhombic'
loop_
_space_group_symop_operation_xyz
x,y,z
-x,-y,z
x,-y,-z
-x,y,-z
1/2+x,1/2+y,z
1/2-x,1/2-y,z
1/2+x,1/2-y,-z
1/2-x,1/2+y,-z
loop_
_atom_site_type_symbol
_atom_site_label
_atom_site_fract_x
_atom_site_fract_y
_atom_site_fract_z
Si Si1 0.172599 0.777299 0.174149
Si Si2 0.323098 0.661838 0.658177
Si Si3 0.000000 0.000000 0.000000
Si Si4 0.343656 0.856264 0.484298
Si Si5 0.584661 0.952093 0.388024
Si Si6 0.500000 0.000000 0.000000
Si Si7 0.588479 0.189312 0.983598
Si Si8 0.048190 0.090591 0.240260
O O1 0.250000 0.750000 0.236592
O O2 0.145482 0.803977 0.432966
O O3 0.113107 0.740246 0.071187
O O4 0.188084 0.811377 0.931200
O O5 0.243892 0.647810 0.535762
O O6 0.376025 0.618322 0.715929
O O7 0.949442 0.964018 0.165095
O O8 0.369857 0.907456 0.552649
O O9 0.369576 0.843320 0.193620
O O10 0.383591 0.822343 0.692678
O O11 0.500000 0.948736 0.500000
O O12 0.616539 0.000000 0.500000
O O13 0.562314 0.962727 0.093971
O O14 0.500000 0.182579 0.000000
O O15 0.000000 0.094420 0.500000
O O16 0.000000 0.111429 0.000000
#
# Coordination Sequence:
#
# PCOD9324613 Si02
#       8
#     8   8   2   8   8   2   8   8
#     4  12  23  45  66  90 137 181 218 283 340 401
#     4  12  24  42  71  98 132 179 224 270 349 409
#     4   8  22  44  72  96 148 168 224 296 354 416
#     4  12  24  41  64  95 132 166 215 275 318 404
#     4   9  20  36  58  84 120 164 208 255 321 367
#     4   8  18  36  58  82 106 172 192 252 306 372
#     4  12  26  41  65  96 126 174 225 265 329 387
#     4  10  22  42  71 103 132 178 225 281 350 417
#
# _framework density 19.577294999999999
#
# number of rings (size 3 to 8) (size 9 to 14) (size 15 to 20)
#    0.462    0.769    3.077    3.923    5.385    1.846 
#    0.000    2.308    0.000    0.000    0.000    0.000 
#    0.000    0.000    0.000    0.000    0.000    0.000 
#
# Total GULP energy -144937.362796 kJ/mol
# GULP energy per Si atom -5574.513954 kJ/mol
# Density = 1.953274 g / cm^3
# Si number density = 19.577295 Si / 1000 Ang^3
#
#
#
# Elastic Constant Matrix: (Units=GPa)
#
#
# Indices 1 2 3 4 5 6 
#
# 1 85.8123 31.3946 0.7221 0.0000 0.0000 0.0000
# 2 31.3946 111.2122 11.1464 0.0000 0.0000 0.0000
# 3 0.7221 11.1464 69.7884 0.0000 0.0000 0.0000
# 4 0.0000 0.0000 0.0000 -3.6156 0.0000 0.0000
# 5 0.0000 0.0000 0.0000 0.0000 22.8070 0.0000
# 6 0.0000 0.0000 0.0000 0.0000 0.0000 54.5254
#
#
#
# Elastic Compliance Matrix: (Units=1/GPa)
#
#
# Indices 1 2 3 4 5 6 
#
# 1 0.013010 -0.003719 0.000459 0.000000 0.000000 0.000000
# 2 -0.003719 0.010201 -0.001591 0.000000 0.000000 0.000000
# 3 0.000459 -0.001591 0.014578 0.000000 0.000000 0.000000
# 4 0.000000 0.000000 0.000000 -0.276581 0.000000 0.000000
# 5 0.000000 0.000000 0.000000 0.000000 0.043846 0.000000
# 6 0.000000 0.000000 0.000000 0.000000 0.000000 0.018340
#
#
# Mechanical properties :
#
#
# Convention : Reuss Voigt Hill
#
# Bulk Modulus (GPa) = 35.60111 39.25990 37.43050
# Shear Modulus (GPa) = -31.73752 29.64669 -1.04541
#
# Velocity S-wave (km/s) = -4.03071 3.89567 -0.73154
# Velocity P-wave (km/s) = 1.85411 6.35078 4.29503
#
# Compressibility (1/GPa) = 0.02808902
#
# Stress axis : x y z
#
# Youngs Moduli (GPa) = 76.86421 98.02939 68.59490
#
# Poissons Ratio (x) = 0.36454 -0.03151
# Poissons Ratio (y) = 0.28583 0.10912
# Poissons Ratio (z) = -0.03530 0.15594
#
# Static dielectric constant tensor:
#      x y z
#    x 1.654470 0.000000 0.000000 
#    y 0.000000 1.696340 0.000000 
#    z 0.000000 0.000000 1.949590 
# 
# From -- ./inp_files/5322.got.cif
#   From: 2010.05.17/outbox.cif.g08.bks.cpg/sg21_3_cif.got.tgz:5322.got - 2010.06.03 23:14:55.
