data_PCOD9324438
_publ_section_title
;
Structure prediction by ZEFSAII (Michael W. Deem and Ramdas Pophale) SiO2 
 PCOD9324438
Probable space group: C 2 2 2
;
_chemical_formula_sum "Si O2"
_cell_formula_units_Z 64
_cell_length_a 15.129137
_cell_length_b 8.438939
_cell_length_c 24.653687
_cell_angle_alpha 90.000000
_cell_angle_beta 90.000000
_cell_angle_gamma 90.000000
_cell_volume 3147.631488
_symmetry_space_group_name_H-M "C 2 2 2"
_symmetry_group_IT_number 21
_symmetry_cell_setting 'orthorhombic'
loop_
_space_group_symop_operation_xyz
x,y,z
-x,-y,z
x,-y,-z
-x,y,-z
1/2+x,1/2+y,z
1/2-x,1/2-y,z
1/2+x,1/2-y,-z
1/2-x,1/2+y,-z
loop_
_atom_site_type_symbol
_atom_site_label
_atom_site_fract_x
_atom_site_fract_y
_atom_site_fract_z
Si Si1 0.082774 0.088356 0.442026
Si Si2 0.237485 0.093661 0.604838
Si Si3 0.351586 0.705318 0.723050
Si Si4 0.003544 0.807816 0.205116
Si Si5 0.585531 0.891763 0.381343
Si Si6 0.851018 0.691116 0.004596
Si Si7 0.505155 0.190887 0.084171
Si Si8 0.339561 0.670100 0.281575
O O1 0.073028 0.276285 0.433618
O O2 0.085139 0.000000 0.500000
O O3 0.176064 0.042665 0.417491
O O4 0.000000 0.000000 0.413172
O O5 0.250000 0.250000 0.567755
O O6 0.177412 0.171173 0.653569
O O7 0.328927 0.005623 0.617265
O O8 0.250000 0.750000 0.723364
O O9 0.410452 0.759483 0.773520
O O10 0.397712 0.773574 0.669198
O O11 0.348960 0.516514 0.726300
O O12 0.020021 0.749996 0.144718
O O13 0.076981 0.758988 0.250096
O O14 0.000000 0.000000 0.203973
O O15 0.500000 0.000000 0.374044
O O16 0.750000 0.750000 0.005355
O O17 0.911681 0.740191 0.056386
O O18 0.847721 0.500000 0.000000
O O19 0.912567 0.742524 0.953734
O O20 0.500000 0.000000 0.083889
O O21 0.250000 0.750000 0.259193
#
# Coordination Sequence:
#
# PCOD9324438 Si02
#       8
#     8   8   8   8   8   8   8   8
#     4  11  25  45  70 102 133 168 210 266 328 383
#     4  11  23  42  67  98 128 172 217 267 317 383
#     4  11  22  40  61  92 128 165 218 263 317 387
#     4  10  24  38  58  90 128 174 206 270 325 378
#     4  12  25  43  71 100 131 171 220 264 322 391
#     4   9  19  37  64  88 116 165 214 266 319 386
#     4   9  20  40  58  86 126 162 214 261 323 389
#     4  10  22  39  61  89 126 166 216 259 318 386
#
# _framework density 20.332749
#
# number of rings (size 3 to 8) (size 9 to 14) (size 15 to 20)
#    0.000    1.625    2.500    1.875    5.250    4.500 
#    0.000   10.000    0.000    0.000    0.000    0.000 
#    0.000    0.000    0.000    0.000    0.000    0.000 
#
# Total GULP energy -178234.624408 kJ/mol
# GULP energy per Si atom -5569.832013 kJ/mol
# Density = 2.028647 g / cm^3
# Si number density = 20.332749 Si / 1000 Ang^3
#
#
#
# Elastic Constant Matrix: (Units=GPa)
#
#
# Indices 1 2 3 4 5 6 
#
# 1 175.4053 43.3613 56.0662 0.0000 0.0000 0.0000
# 2 43.3613 75.5498 26.5413 0.0000 0.0000 0.0000
# 3 56.0662 26.5413 78.6792 0.0000 0.0000 0.0000
# 4 0.0000 0.0000 0.0000 -27.9301 0.0000 0.0000
# 5 0.0000 0.0000 0.0000 0.0000 18.1425 0.0000
# 6 0.0000 0.0000 0.0000 0.0000 0.0000 29.9022
#
#
#
# Elastic Compliance Matrix: (Units=1/GPa)
#
#
# Indices 1 2 3 4 5 6 
#
# 1 0.007907 -0.002903 -0.004655 0.000000 0.000000 0.000000
# 2 -0.002903 0.016081 -0.003356 0.000000 0.000000 0.000000
# 3 -0.004655 -0.003356 0.017159 0.000000 0.000000 0.000000
# 4 0.000000 0.000000 0.000000 -0.035804 0.000000 0.000000
# 5 0.000000 0.000000 0.000000 0.000000 0.055119 0.000000
# 6 0.000000 0.000000 0.000000 0.000000 0.000000 0.033442
#
#
# Mechanical properties :
#
#
# Convention : Reuss Voigt Hill
#
# Bulk Modulus (GPa) = 51.76240 64.61908 58.19074
# Shear Modulus (GPa) = 40.92562 17.60061 29.26312
#
# Velocity S-wave (km/s) = 4.49128 2.94535 3.79781
# Velocity P-wave (km/s) = 7.23937 6.58912 6.92188
#
# Compressibility (1/GPa) = 0.01931904
#
# Stress axis : x y z
#
# Youngs Moduli (GPa) = 126.47786 62.18378 58.27775
#
# Poissons Ratio (x) = 0.18049 0.27128
# Poissons Ratio (y) = 0.36711 0.19561
# Poissons Ratio (z) = 0.58875 0.20872
#
# Static dielectric constant tensor:
#      x y z
#    x 1.806340 0.000000 0.000000 
#    y 0.000000 1.396290 0.000000 
#    z 0.000000 0.000000 1.801650 
# 
# From -- ./inp_files/38759.got.cif
#   From: 2010.05.17/outbox.cif.g08.bks.cpg/sg21_20_cif.got.tgz:38759.got - 2010.06.03 23:14:55.
