data_PCOD9324146
_publ_section_title
;
Structure prediction by ZEFSAII (Michael W. Deem and Ramdas Pophale) SiO2 
 PCOD9324146
Probable space group: C 2 2 2
;
_chemical_formula_sum "Si O2"
_cell_formula_units_Z 48
_cell_length_a 19.014289
_cell_length_b 14.074908
_cell_length_c 9.006379
_cell_angle_alpha 90.000000
_cell_angle_beta 90.000000
_cell_angle_gamma 90.000000
_cell_volume 2410.326491
_symmetry_space_group_name_H-M "C 2 2 2"
_symmetry_group_IT_number 21
_symmetry_cell_setting 'orthorhombic'
loop_
_space_group_symop_operation_xyz
x,y,z
-x,-y,z
x,-y,-z
-x,y,-z
1/2+x,1/2+y,z
1/2-x,1/2-y,z
1/2+x,1/2-y,-z
1/2-x,1/2+y,-z
loop_
_atom_site_type_symbol
_atom_site_label
_atom_site_fract_x
_atom_site_fract_y
_atom_site_fract_z
Si Si1 0.049774 0.246971 0.230219
Si Si2 0.688942 0.039038 0.161249
Si Si3 0.895018 0.732917 0.901931
Si Si4 0.430048 0.051600 0.341608
Si Si5 0.920378 0.888051 0.466364
Si Si6 0.300106 0.338406 0.695177
O O1 0.058293 0.335649 0.342880
O O2 0.083859 0.152245 0.299890
O O3 0.967470 0.245073 0.185383
O O4 0.088182 0.267776 0.075102
O O5 0.640062 0.132658 0.140392
O O6 0.752711 0.070494 0.267653
O O7 0.637949 0.965920 0.242658
O O8 0.710552 0.000000 0.000000
O O9 0.839472 0.810863 0.847775
O O10 0.500000 0.000000 0.275906
O O11 0.420295 0.000000 0.500000
O O12 0.858773 0.848415 0.569346
O O13 0.000000 0.854451 0.500000
O O14 0.919397 0.000000 0.500000
O O15 0.250000 0.250000 0.655980
#
# Coordination Sequence:
#
# PCOD9324146 Si02
#       6
#     8   8   8   8   8   8
#     4  11  22  39  71  97 132 171 234 290 338 405
#     4  11  22  41  63  96 144 183 217 276 355 432
#     4  10  21  40  64 100 131 176 224 281 340 410
#     4  11  24  35  62 103 140 178 221 279 349 427
#     4  11  25  46  69  93 128 179 233 289 341 396
#     4  10  24  43  66  93 135 179 219 279 352 412
#
# _framework density 19.914314000000001
#
# number of rings (size 3 to 8) (size 9 to 14) (size 15 to 20)
#    0.000    1.333    5.000    0.000    7.000    2.333 
#    0.000    2.500    0.000    0.000    0.000    0.000 
#    0.000    0.000    0.000    0.000    0.000    0.000 
#
# Total GULP energy -133885.129501 kJ/mol
# GULP energy per Si atom -5578.547063 kJ/mol
# Density = 1.986899 g / cm^3
# Si number density = 19.914314 Si / 1000 Ang^3
#
#
#
# Elastic Constant Matrix: (Units=GPa)
#
#
# Indices 1 2 3 4 5 6 
#
# 1 110.7647 27.1945 38.9394 0.0000 0.0000 0.0000
# 2 27.1945 78.8912 27.4246 0.0000 0.0000 0.0000
# 3 38.9394 27.4246 84.0990 0.0000 0.0000 0.0000
# 4 0.0000 0.0000 0.0000 22.7957 0.0000 0.0000
# 5 0.0000 0.0000 0.0000 0.0000 33.4845 0.0000
# 6 0.0000 0.0000 0.0000 0.0000 0.0000 23.2000
#
#
#
# Elastic Compliance Matrix: (Units=1/GPa)
#
#
# Indices 1 2 3 4 5 6 
#
# 1 0.011144 -0.002310 -0.004407 0.000000 0.000000 0.000000
# 2 -0.002310 0.014775 -0.003749 0.000000 0.000000 0.000000
# 3 -0.004407 -0.003749 0.015154 0.000000 0.000000 0.000000
# 4 0.000000 0.000000 0.000000 0.043868 0.000000 0.000000
# 5 0.000000 0.000000 0.000000 0.000000 0.029865 0.000000
# 6 0.000000 0.000000 0.000000 0.000000 0.000000 0.043104
#
#
# Mechanical properties :
#
#
# Convention : Reuss Voigt Hill
#
# Bulk Modulus (GPa) = 49.64600 51.20797 50.42699
# Shear Modulus (GPa) = 26.94636 27.90913 27.42775
#
# Velocity S-wave (km/s) = 3.68246 3.74767 3.71521
# Velocity P-wave (km/s) = 6.56236 6.67058 6.61670
#
# Compressibility (1/GPa) = 0.02014261
#
# Stress axis : x y z
#
# Youngs Moduli (GPa) = 89.73077 67.68202 65.99057
#
# Poissons Ratio (x) = 0.15632 0.29081
# Poissons Ratio (y) = 0.20725 0.24738
# Poissons Ratio (z) = 0.39544 0.25372
#
# Static dielectric constant tensor:
#      x y z
#    x 1.712540 0.000000 0.000000 
#    y 0.000000 1.718070 0.000000 
#    z 0.000000 0.000000 1.717720 
# 
# From -- ./inp_files/14947.got.cif
#   From: 2010.05.17/outbox.cif.g08.bks.cpg/sg21_8_cif.got.tgz:14947.got - 2010.06.03 23:14:55.
