data_PCOD9324097
_publ_section_title
;
Structure prediction by ZEFSAII (Michael W. Deem and Ramdas Pophale) SiO2 
 PCOD9324097
Probable space group: C 2 2 2
;
_chemical_formula_sum "Si O2"
_cell_formula_units_Z 48
_cell_length_a 18.094290
_cell_length_b 13.418458
_cell_length_c 7.859948
_cell_angle_alpha 90.000000
_cell_angle_beta 90.000000
_cell_angle_gamma 90.000000
_cell_volume 1908.375492
_symmetry_space_group_name_H-M "C 2 2 2"
_symmetry_group_IT_number 21
_symmetry_cell_setting 'orthorhombic'
loop_
_space_group_symop_operation_xyz
x,y,z
-x,-y,z
x,-y,-z
-x,y,-z
1/2+x,1/2+y,z
1/2-x,1/2-y,z
1/2+x,1/2-y,-z
1/2-x,1/2+y,-z
loop_
_atom_site_type_symbol
_atom_site_label
_atom_site_fract_x
_atom_site_fract_y
_atom_site_fract_z
Si Si1 0.690126 0.640224 0.246454
Si Si2 0.083013 0.746725 0.286921
Si Si3 0.284414 0.360229 0.860048
Si Si4 0.469665 0.597997 0.691518
Si Si5 0.653739 0.158405 0.631366
Si Si6 0.637773 0.038674 0.190277
O O1 0.617580 0.586717 0.309737
O O2 0.662561 0.755409 0.227140
O O3 0.757610 0.636240 0.379806
O O4 0.708855 0.607040 0.056249
O O5 0.137942 0.835773 0.227833
O O6 0.003539 0.796090 0.251660
O O7 0.111912 0.711748 0.475373
O O8 0.091173 0.640024 0.197175
O O9 0.250000 0.250000 0.862723
O O10 0.222553 0.427749 0.770820
O O11 0.500000 0.500000 0.783956
O O12 0.500000 0.597492 0.500000
O O13 0.618156 0.054375 0.688393
O O14 0.634971 0.000000 0.000000
#
# Coordination Sequence:
#
# PCOD9324097 Si02
#       6
#     8   8   8   8   8   8
#     4  11  22  43  69 101 144 188 236 298 370 433
#     4  11  25  43  68 108 145 191 244 304 366 447
#     4  10  21  39  65 103 146 180 233 307 355 433
#     4  11  26  47  70 103 148 192 238 300 370 449
#     4  11  22  41  71 106 135 185 242 303 369 428
#     4  11  22  41  69 107 143 182 244 310 377 428
#
# _framework density 25.152282
#
# number of rings (size 3 to 8) (size 9 to 14) (size 15 to 20)
#    0.000    1.167    5.000    1.500    9.333    0.667 
#    3.000    1.667    0.000    3.000    0.000    0.000 
#    0.000    0.000    0.000    0.000    0.000    0.000 
#
# Total GULP energy -133995.343439 kJ/mol
# GULP energy per Si atom -5583.139310 kJ/mol
# Density = 2.509503 g / cm^3
# Si number density = 25.152282 Si / 1000 Ang^3
#
#
#
# Elastic Constant Matrix: (Units=GPa)
#
#
# Indices 1 2 3 4 5 6 
#
# 1 92.9554 17.1182 -1.4399 0.0000 0.0000 0.0000
# 2 17.1182 159.3966 29.0500 0.0000 0.0000 0.0000
# 3 -1.4399 29.0500 68.7772 0.0000 0.0000 0.0000
# 4 0.0000 0.0000 0.0000 33.8612 0.0000 0.0000
# 5 0.0000 0.0000 0.0000 0.0000 -3.4389 0.0000
# 6 0.0000 0.0000 0.0000 0.0000 0.0000 -128.6890
#
#
#
# Elastic Compliance Matrix: (Units=1/GPa)
#
#
# Indices 1 2 3 4 5 6 
#
# 1 0.011014 -0.001327 0.000791 0.000000 0.000000 0.000000
# 2 -0.001327 0.006957 -0.002966 0.000000 0.000000 0.000000
# 3 0.000791 -0.002966 0.015809 0.000000 0.000000 0.000000
# 4 0.000000 0.000000 0.000000 0.029532 0.000000 0.000000
# 5 0.000000 0.000000 0.000000 0.000000 -0.290789 0.000000
# 6 0.000000 0.000000 0.000000 0.000000 0.000000 -0.007771
#
#
# Mechanical properties :
#
#
# Convention : Reuss Voigt Hill
#
# Bulk Modulus (GPa) = 37.34669 45.62064 41.48367
# Shear Modulus (GPa) = -22.79800 -1.22664 -12.01232
#
# Velocity S-wave (km/s) = -3.01391 -0.69910 -2.18774
# Velocity P-wave (km/s) = 1.66401 4.18635 3.18547
#
# Compressibility (1/GPa) = 0.02677613
#
# Stress axis : x y z
#
# Youngs Moduli (GPa) = 90.78949 143.74495 63.25462
#
# Poissons Ratio (x) = 0.19076 -0.05004
# Poissons Ratio (y) = 0.12048 0.18762
# Poissons Ratio (z) = -0.07183 0.42637
#
# Static dielectric constant tensor:
#      x y z
#    x 2.084390 0.000000 0.000000 
#    y 0.000000 2.247640 0.000000 
#    z 0.000000 0.000000 2.207880 
# 
# From -- ./inp_files/16411.got.cif
#   From: 2010.05.17/outbox.cif.g08.bks.cpg/sg21_9_cif.got.tgz:16411.got - 2010.06.03 23:14:55.
