data_PCOD9324491
_publ_section_title
;
Structure prediction by ZEFSAII (Michael W. Deem and Ramdas Pophale) SiO2 
 PCOD9324491
Probable space group: C 2 2 2
;
_chemical_formula_sum "Si O2"
_cell_formula_units_Z 26
_cell_length_a 25.585583
_cell_length_b 4.870031
_cell_length_c 10.484521
_cell_angle_alpha 90.000000
_cell_angle_beta 90.000000
_cell_angle_gamma 90.000000
_cell_volume 1306.398391
_symmetry_space_group_name_H-M "C 2 2 2"
_symmetry_group_IT_number 21
_symmetry_cell_setting 'orthorhombic'
loop_
_space_group_symop_operation_xyz
x,y,z
-x,-y,z
x,-y,-z
-x,y,-z
1/2+x,1/2+y,z
1/2-x,1/2-y,z
1/2+x,1/2-y,-z
1/2-x,1/2+y,-z
loop_
_atom_site_type_symbol
_atom_site_label
_atom_site_fract_x
_atom_site_fract_y
_atom_site_fract_z
Si Si1 0.289288 0.000000 0.000000
Si Si2 0.150530 0.317634 0.250683
Si Si3 0.400225 0.646934 0.370708
Si Si4 0.000000 0.000000 0.500000
Si Si5 0.750000 0.750000 0.409162
O O1 0.250000 0.250000 0.966288
O O2 0.326971 0.917852 0.883510
O O3 0.127294 0.573517 0.330284
O O4 0.201207 0.190328 0.319527
O O5 0.108267 0.074619 0.258521
O O6 0.377977 0.500000 0.500000
O O7 0.460699 0.675639 0.411795
O O8 0.763316 0.500000 0.500000
#
# Coordination Sequence:
#
# PCOD9324491 Si02
#       5
#     4   8   8   2   4
#     4  12  26  44  60  85 132 187 212 246 296 364
#     4  12  23  40  61  89 129 166 215 245 308 386
#     4  10  22  40  65  95 120 159 201 268 327 375
#     4   8  24  42  68  96 128 158 200 278 346 384
#     4  12  24  36  58  92 132 160 194 268 312 376
#
# _framework density 19.902047
#
# number of rings (size 3 to 8) (size 9 to 14) (size 15 to 20)
#    0.923    0.000    1.538    7.385    2.154    2.462 
#    0.000    0.000    0.000    5.538    0.000    0.000 
#    0.000    0.000    0.000    0.000    0.000    0.000 
#
# Total GULP energy -72552.490163 kJ/mol
# GULP energy per Si atom -5580.960782 kJ/mol
# Density = 1.985675 g / cm^3
# Si number density = 19.902047 Si / 1000 Ang^3
#
#
#
# Elastic Constant Matrix: (Units=GPa)
#
#
# Indices 1 2 3 4 5 6 
#
# 1 114.8497 14.7561 41.7180 0.0000 0.0000 0.0000
# 2 14.7561 74.5411 -5.6991 0.0000 0.0000 0.0000
# 3 41.7180 -5.6991 76.8281 0.0000 0.0000 0.0000
# 4 0.0000 0.0000 0.0000 23.4221 0.0000 0.0000
# 5 0.0000 0.0000 0.0000 0.0000 26.2573 0.0000
# 6 0.0000 0.0000 0.0000 0.0000 0.0000 16.0740
#
#
#
# Elastic Compliance Matrix: (Units=1/GPa)
#
#
# Indices 1 2 3 4 5 6 
#
# 1 0.011377 -0.002740 -0.006381 0.000000 0.000000 0.000000
# 2 -0.002740 0.014152 0.002538 0.000000 0.000000 0.000000
# 3 -0.006381 0.002538 0.016669 0.000000 0.000000 0.000000
# 4 0.000000 0.000000 0.000000 0.042695 0.000000 0.000000
# 5 0.000000 0.000000 0.000000 0.000000 0.038085 0.000000
# 6 0.000000 0.000000 0.000000 0.000000 0.000000 0.062212
#
#
# Mechanical properties :
#
#
# Convention : Reuss Voigt Hill
#
# Bulk Modulus (GPa) = 34.44569 40.86323 37.65446
# Shear Modulus (GPa) = 24.03462 27.51360 25.77411
#
# Velocity S-wave (km/s) = 3.47889 3.72217 3.60258
# Velocity P-wave (km/s) = 5.78637 6.24896 6.02211
#
# Compressibility (1/GPa) = 0.02903121
#
# Stress axis : x y z
#
# Youngs Moduli (GPa) = 87.89737 70.66219 59.99084
#
# Poissons Ratio (x) = 0.19362 0.38280
# Poissons Ratio (y) = 0.24084 -0.15223
# Poissons Ratio (z) = 0.56087 -0.17931
#
# Static dielectric constant tensor:
#      x y z
#    x 1.727760 0.000000 0.000000 
#    y 0.000000 1.745700 0.000000 
#    z 0.000000 0.000000 1.728390 
# 
# From -- ./inp_files/8687.got.cif
#   From: 2010.05.17/outbox.cif.g08.bks.cpg/sg21_5_cif.got.tgz:8687.got - 2010.06.03 23:14:55.
