data_PCOD9324103
_publ_section_title
;
Structure prediction by ZEFSAII (Michael W. Deem and Ramdas Pophale) SiO2 
 PCOD9324103
Probable space group: C 2 2 2
;
_chemical_formula_sum "Si O2"
_cell_formula_units_Z 58
_cell_length_a 7.783717
_cell_length_b 23.133943
_cell_length_c 13.137375
_cell_angle_alpha 90.000000
_cell_angle_beta 90.000000
_cell_angle_gamma 90.000000
_cell_volume 2365.621701
_symmetry_space_group_name_H-M "C 2 2 2"
_symmetry_group_IT_number 21
_symmetry_cell_setting 'orthorhombic'
loop_
_space_group_symop_operation_xyz
x,y,z
-x,-y,z
x,-y,-z
-x,y,-z
1/2+x,1/2+y,z
1/2-x,1/2-y,z
1/2+x,1/2-y,-z
1/2-x,1/2+y,-z
loop_
_atom_site_type_symbol
_atom_site_label
_atom_site_fract_x
_atom_site_fract_y
_atom_site_fract_z
Si Si1 0.656855 0.435133 0.303952
Si Si2 0.000000 0.000000 0.500000
Si Si3 0.023889 0.872532 0.886914
Si Si4 0.434851 0.129722 0.113743
Si Si5 0.500203 0.877769 0.387737
Si Si6 0.949751 0.245093 0.825879
Si Si7 0.138452 0.539576 0.742168
Si Si8 0.454228 0.255482 0.607022
O O1 0.588890 0.456680 0.415599
O O2 0.553947 0.402792 0.213263
O O3 0.821001 0.394239 0.332453
O O4 0.707165 0.496296 0.249339
O O5 0.229175 0.869394 0.876449
O O6 0.959316 0.805499 0.889193
O O7 0.000000 0.898962 0.000000
O O8 0.511262 0.188384 0.164168
O O9 0.465979 0.066866 0.163672
O O10 0.500000 0.130406 0.000000
O O11 0.500000 0.902649 0.500000
O O12 0.660542 0.904994 0.328033
O O13 0.525431 0.809720 0.396136
O O14 0.750000 0.250000 0.855169
O O15 0.966771 0.221700 0.710828
O O16 0.000000 0.500000 0.683225
O O17 0.500000 0.285029 0.500000
O O18 0.250000 0.250000 0.616293
#
# Coordination Sequence:
#
# PCOD9324103 Si02
#       8
#     8   2   8   8   8   8   8   8
#     4  11  24  44  69 105 144 190 241 305 379 443
#     4  12  24  44  68  96 140 188 236 288 382 440
#     4  11  26  45  68 103 147 189 241 301 374 437
#     4  11  24  42  69  98 132 184 244 296 362 435
#     4  10  21  39  66 100 136 185 240 301 361 444
#     4  10  22  44  68  98 138 184 236 300 364 439
#     4  10  22  41  67  94 132 171 234 294 355 434
#     4  11  22  38  62  98 139 183 236 294 365 440
#
# _framework density 24.517868
#
# number of rings (size 3 to 8) (size 9 to 14) (size 15 to 20)
#    0.000    1.379    1.379    3.310    3.862    3.310 
#    7.448    2.414    0.000    0.000    0.000    0.000 
#    0.000    0.000    0.000    0.000    0.000    0.000 
#
# Total GULP energy -161598.047374 kJ/mol
# GULP energy per Si atom -5572.346461 kJ/mol
# Density = 2.446206 g / cm^3
# Si number density = 24.517868 Si / 1000 Ang^3
#
#
#
# Elastic Constant Matrix: (Units=GPa)
#
#
# Indices 1 2 3 4 5 6 
#
# 1 60.5376 16.8517 27.7696 0.0000 0.0000 0.0000
# 2 16.8517 97.2588 52.3221 0.0000 0.0000 0.0000
# 3 27.7696 52.3221 188.0496 0.0000 0.0000 0.0000
# 4 0.0000 0.0000 0.0000 30.4566 0.0000 0.0000
# 5 0.0000 0.0000 0.0000 0.0000 37.8256 0.0000
# 6 0.0000 0.0000 0.0000 0.0000 0.0000 18.6797
#
#
#
# Elastic Compliance Matrix: (Units=1/GPa)
#
#
# Indices 1 2 3 4 5 6 
#
# 1 0.018041 -0.001991 -0.002110 0.000000 0.000000 0.000000
# 2 -0.001991 0.012311 -0.003132 0.000000 0.000000 0.000000
# 3 -0.002110 -0.003132 0.006501 0.000000 0.000000 0.000000
# 4 0.000000 0.000000 0.000000 0.032834 0.000000 0.000000
# 5 0.000000 0.000000 0.000000 0.000000 0.026437 0.000000
# 6 0.000000 0.000000 0.000000 0.000000 0.000000 0.053534
#
#
# Mechanical properties :
#
#
# Convention : Reuss Voigt Hill
#
# Bulk Modulus (GPa) = 44.66658 59.97028 52.31843
# Shear Modulus (GPa) = 29.14005 33.98589 31.56297
#
# Velocity S-wave (km/s) = 3.45124 3.72717 3.59185
# Velocity P-wave (km/s) = 5.84285 6.56013 6.21185
#
# Compressibility (1/GPa) = 0.02238810
#
# Stress axis : x y z
#
# Youngs Moduli (GPa) = 55.42996 81.22546 153.83031
#
# Poissons Ratio (x) = 0.16169 0.32462
# Poissons Ratio (y) = 0.11034 0.48172
# Poissons Ratio (z) = 0.11697 0.25436
#
# Static dielectric constant tensor:
#      x y z
#    x 2.078230 0.000000 0.000000 
#    y 0.000000 2.079210 0.000000 
#    z 0.000000 0.000000 2.127790 
# 
# From -- ./inp_files/23019.got.cif
#   From: 2010.05.17/outbox.cif.g08.bks.cpg/sg21_12_cif.got.tgz:23019.got - 2010.06.03 23:14:55.
