data_PCOD9324423
_publ_section_title
;
Structure prediction by ZEFSAII (Michael W. Deem and Ramdas Pophale) SiO2 
 PCOD9324423
Probable space group: C 2 2 2
;
_chemical_formula_sum "Si O2"
_cell_formula_units_Z 32
_cell_length_a 8.491864
_cell_length_b 16.824646
_cell_length_c 12.388536
_cell_angle_alpha 90.000000
_cell_angle_beta 90.000000
_cell_angle_gamma 90.000000
_cell_volume 1769.982419
_symmetry_space_group_name_H-M "C 2 2 2"
_symmetry_group_IT_number 21
_symmetry_cell_setting 'orthorhombic'
loop_
_space_group_symop_operation_xyz
x,y,z
-x,-y,z
x,-y,-z
-x,y,-z
1/2+x,1/2+y,z
1/2-x,1/2-y,z
1/2+x,1/2-y,-z
1/2-x,1/2+y,-z
loop_
_atom_site_type_symbol
_atom_site_label
_atom_site_fract_x
_atom_site_fract_y
_atom_site_fract_z
Si Si1 0.814090 0.486806 0.875523
Si Si2 0.689957 0.338062 0.496064
Si Si3 0.199047 0.159697 0.259767
Si Si4 0.387817 0.575156 0.297422
O O1 0.770568 0.400713 0.826721
O O2 0.718120 0.547726 0.801247
O O3 0.000000 0.500000 0.866071
O O4 0.768949 0.500000 0.000000
O O5 0.500000 0.335462 0.500000
O O6 0.750000 0.250000 0.470624
O O7 0.749764 0.359826 0.615842
O O8 0.717977 0.398230 0.398349
O O9 0.250000 0.250000 0.239795
O O10 0.010695 0.143934 0.262558
O O11 0.500000 0.500000 0.327889
#
# Coordination Sequence:
#
# PCOD9324423 Si02
#       4
#     8   8   8   8
#     4  10  22  39  54  75 107 140 182 230 267 308
#     4   9  18  32  52  81 112 137 168 212 262 317
#     4   9  19  36  56  79 109 140 173 216 264 321
#     4   9  19  34  56  79 107 144 178 212 263 320
#
# _framework density 18.079276
#
# number of rings (size 3 to 8) (size 9 to 14) (size 15 to 20)
#    0.000    2.750    0.000    0.000    0.000   22.000 
#    0.000    7.500    0.000    0.000    0.000    0.000 
#    0.000    0.000    0.000    0.000    0.000    0.000 
#
# Total GULP energy -89157.172368 kJ/mol
# GULP energy per Si atom -5572.323273 kJ/mol
# Density = 1.803813 g / cm^3
# Si number density = 18.079276 Si / 1000 Ang^3
#
#
#
# Elastic Constant Matrix: (Units=GPa)
#
#
# Indices 1 2 3 4 5 6 
#
# 1 23.7400 34.1772 48.5256 0.0000 0.0000 0.0000
# 2 34.1772 96.4791 93.8819 0.0000 0.0000 0.0000
# 3 48.5256 93.8819 187.9694 0.0000 0.0000 0.0000
# 4 0.0000 0.0000 0.0000 -37.2220 0.0000 0.0000
# 5 0.0000 0.0000 0.0000 0.0000 25.0701 0.0000
# 6 0.0000 0.0000 0.0000 0.0000 0.0000 33.2243
#
#
#
# Elastic Compliance Matrix: (Units=1/GPa)
#
#
# Indices 1 2 3 4 5 6 
#
# 1 0.108460 -0.021742 -0.017140 0.000000 0.000000 0.000000
# 2 -0.021742 0.024524 -0.006636 0.000000 0.000000 0.000000
# 3 -0.017140 -0.006636 0.013059 0.000000 0.000000 0.000000
# 4 0.000000 0.000000 0.000000 -0.026866 0.000000 0.000000
# 5 0.000000 0.000000 0.000000 0.000000 0.039888 0.000000
# 6 0.000000 0.000000 0.000000 0.000000 0.000000 0.030098
#
#
# Mechanical properties :
#
#
# Convention : Reuss Voigt Hill
#
# Bulk Modulus (GPa) = 18.17971 73.48422 45.83196
# Shear Modulus (GPa) = 16.74836 12.98807 14.86821
#
# Velocity S-wave (km/s) = 3.04696 2.68320 2.87085
# Velocity P-wave (km/s) = 4.73877 7.09459 6.03279
#
# Compressibility (1/GPa) = 0.05500639
#
# Stress axis : x y z
#
# Youngs Moduli (GPa) = 9.21998 40.77618 76.57452
#
# Poissons Ratio (x) = 0.88657 1.31252
# Poissons Ratio (y) = 0.20046 0.50813
# Poissons Ratio (z) = 0.15803 0.27058
#
# Static dielectric constant tensor:
#      x y z
#    x 1.632280 0.000000 0.000000 
#    y 0.000000 1.632410 0.000000 
#    z 0.000000 0.000000 1.645760 
# 
# From -- ./inp_files/12318.got.cif
#   From: 2010.05.17/outbox.cif.g08.bks.cpg/sg21_7_cif.got.tgz:12318.got - 2010.06.03 23:14:55.
