data_PCOD9324495
_publ_section_title
;
Structure prediction by ZEFSAII (Michael W. Deem and Ramdas Pophale) SiO2 
 PCOD9324495
Probable space group: C 2 2 2
;
_chemical_formula_sum "Si O2"
_cell_formula_units_Z 48
_cell_length_a 19.574932
_cell_length_b 5.163344
_cell_length_c 22.288704
_cell_angle_alpha 90.000000
_cell_angle_beta 90.000000
_cell_angle_gamma 90.000000
_cell_volume 2252.766291
_symmetry_space_group_name_H-M "C 2 2 2"
_symmetry_group_IT_number 21
_symmetry_cell_setting 'orthorhombic'
loop_
_space_group_symop_operation_xyz
x,y,z
-x,-y,z
x,-y,-z
-x,y,-z
1/2+x,1/2+y,z
1/2-x,1/2-y,z
1/2+x,1/2-y,-z
1/2-x,1/2+y,-z
loop_
_atom_site_type_symbol
_atom_site_label
_atom_site_fract_x
_atom_site_fract_y
_atom_site_fract_z
Si Si1 0.297773 0.000000 0.500000
Si Si2 0.173940 0.614950 0.370950
Si Si3 0.000000 0.500000 0.182494
Si Si4 0.750000 0.250000 0.699383
Si Si5 0.935914 0.878217 0.716359
Si Si6 0.174315 0.007035 0.203862
Si Si7 0.250000 0.250000 0.963358
Si Si8 0.147604 0.503725 0.868619
O O1 0.250000 0.750000 0.515004
O O2 0.340163 0.919174 0.441222
O O3 0.250000 0.750000 0.368682
O O4 0.188616 0.334817 0.342411
O O5 0.116566 0.743954 0.329460
O O6 0.970195 0.292998 0.230584
O O7 0.934443 0.542144 0.138098
O O8 0.767266 0.029121 0.746915
O O9 0.891563 0.077732 0.755929
O O10 0.000000 0.000000 0.682613
O O11 0.177364 0.218586 0.151511
O O12 0.165662 0.722500 0.178696
O O13 0.187780 0.384812 0.925669
O O14 0.277427 0.500000 0.000000
#
# Coordination Sequence:
#
# PCOD9324495 Si02
#       8
#     4   8   4   4   8   8   4   8
#     4  10  22  44  62  95 127 178 246 304 352 398
#     4  11  23  38  64  95 133 181 238 302 351 414
#     4  10  22  40  65  97 144 178 220 262 366 436
#     4  12  20  35  56 100 127 166 226 284 346 426
#     4  11  22  39  60 104 142 180 218 283 358 450
#     4  11  22  36  63  96 140 171 216 265 355 419
#     4  12  26  47  70 102 139 180 244 288 324 368
#     4  11  23  42  66  98 138 186 214 280 339 410
#
# _framework density 21.307138999999999
#
# number of rings (size 3 to 8) (size 9 to 14) (size 15 to 20)
#    0.000    1.000    4.167    4.000    0.000    0.000 
#    0.000    0.417    0.000    1.500    8.667    0.000 
#    0.000    0.000    0.000    0.000    0.000    0.000 
#
# Total GULP energy -133663.417747 kJ/mol
# GULP energy per Si atom -5569.309073 kJ/mol
# Density = 2.125864 g / cm^3
# Si number density = 21.307139 Si / 1000 Ang^3
#
#
#
# Elastic Constant Matrix: (Units=GPa)
#
#
# Indices 1 2 3 4 5 6 
#
# 1 127.6183 25.0369 59.2737 0.0000 0.0000 0.0000
# 2 25.0369 85.9143 26.6708 0.0000 0.0000 0.0000
# 3 59.2737 26.6708 107.2543 0.0000 0.0000 0.0000
# 4 0.0000 0.0000 0.0000 36.1932 0.0000 0.0000
# 5 0.0000 0.0000 0.0000 0.0000 19.8560 0.0000
# 6 0.0000 0.0000 0.0000 0.0000 0.0000 34.3370
#
#
#
# Elastic Compliance Matrix: (Units=1/GPa)
#
#
# Indices 1 2 3 4 5 6 
#
# 1 0.010693 -0.001389 -0.005564 0.000000 0.000000 0.000000
# 2 -0.001389 0.012794 -0.002414 0.000000 0.000000 0.000000
# 3 -0.005564 -0.002414 0.012999 0.000000 0.000000 0.000000
# 4 0.000000 0.000000 0.000000 0.027630 0.000000 0.000000
# 5 0.000000 0.000000 0.000000 0.000000 0.050363 0.000000
# 6 0.000000 0.000000 0.000000 0.000000 0.000000 0.029123
#
#
# Mechanical properties :
#
#
# Convention : Reuss Voigt Hill
#
# Bulk Modulus (GPa) = 56.33211 60.30552 58.31882
# Shear Modulus (GPa) = 29.71766 32.06428 30.89097
#
# Velocity S-wave (km/s) = 3.73866 3.88346 3.81175
# Velocity P-wave (km/s) = 6.71806 6.96224 6.84124
#
# Compressibility (1/GPa) = 0.01775186
#
# Stress axis : x y z
#
# Youngs Moduli (GPa) = 93.52350 78.16425 76.93062
#
# Poissons Ratio (x) = 0.10855 0.42803
# Poissons Ratio (y) = 0.12988 0.18570
# Poissons Ratio (z) = 0.52035 0.18868
#
# Static dielectric constant tensor:
#      x y z
#    x 1.906440 0.000000 0.000000 
#    y 0.000000 1.883240 0.000000 
#    z 0.000000 0.000000 1.792870 
# 
# From -- ./inp_files/37817.got.cif
#   From: 2010.05.17/outbox.cif.g08.bks.cpg/sg21_19_cif.got.tgz:37817.got - 2010.06.03 23:14:55.
