data_PCOD9324771
_publ_section_title
;
Structure prediction by ZEFSAII (Michael W. Deem and Ramdas Pophale) SiO2 
 PCOD9324771
Probable space group: C 2 2 2
;
_chemical_formula_sum "Si O2"
_cell_formula_units_Z 32
_cell_length_a 15.836373
_cell_length_b 10.308910
_cell_length_c 8.219836
_cell_angle_alpha 90.000000
_cell_angle_beta 90.000000
_cell_angle_gamma 90.000000
_cell_volume 1341.935442
_symmetry_space_group_name_H-M "C 2 2 2"
_symmetry_group_IT_number 21
_symmetry_cell_setting 'orthorhombic'
loop_
_space_group_symop_operation_xyz
x,y,z
-x,-y,z
x,-y,-z
-x,y,-z
1/2+x,1/2+y,z
1/2-x,1/2-y,z
1/2+x,1/2-y,-z
1/2-x,1/2+y,-z
loop_
_atom_site_type_symbol
_atom_site_label
_atom_site_fract_x
_atom_site_fract_y
_atom_site_fract_z
Si Si1 0.333123 0.666786 0.819494
Si Si2 0.392232 0.859401 0.095555
Si Si3 0.714583 0.988149 0.682751
Si Si4 0.547755 0.172808 0.668183
O O1 0.250000 0.750000 0.770087
O O2 0.289730 0.528408 0.805659
O O3 0.408255 0.688269 0.692302
O O4 0.368124 0.739779 0.978774
O O5 0.482816 0.849645 0.183194
O O6 0.325073 0.859247 0.243042
O O7 0.382972 0.000000 0.000000
O O8 0.627590 0.075407 0.675737
O O9 0.747580 0.000000 0.500000
O O10 0.500000 0.157238 0.500000
#
# Coordination Sequence:
#
# PCOD9324771 Si02
#       4
#     8   8   8   8
#     4  10  23  39  57 100 138 170 223 274 349 413
#     4  12  22  36  66  97 137 170 224 291 343 400
#     4  11  23  41  64  98 140 177 222 288 350 414
#     4  11  22  36  62 102 131 166 227 286 349 395
#
# _framework density 23.846153999999999
#
# number of rings (size 3 to 8) (size 9 to 14) (size 15 to 20)
#    0.000    1.000    7.500    1.500    3.500    0.000 
#    4.500    0.000    0.000    0.750   19.500    0.000 
#    0.000    0.000    0.000    0.000    0.000    0.000 
#
# Total GULP energy -89174.192149 kJ/mol
# GULP energy per Si atom -5573.387009 kJ/mol
# Density = 2.379188 g / cm^3
# Si number density = 23.846154 Si / 1000 Ang^3
#
#
#
# Elastic Constant Matrix: (Units=GPa)
#
#
# Indices 1 2 3 4 5 6 
#
# 1 127.3059 46.4988 65.0829 0.0000 0.0000 0.0000
# 2 46.4988 24.3640 23.9473 0.0000 0.0000 0.0000
# 3 65.0829 23.9473 166.2093 0.0000 0.0000 0.0000
# 4 0.0000 0.0000 0.0000 16.3958 0.0000 0.0000
# 5 0.0000 0.0000 0.0000 0.0000 38.3213 0.0000
# 6 0.0000 0.0000 0.0000 0.0000 0.0000 39.7721
#
#
#
# Elastic Compliance Matrix: (Units=1/GPa)
#
#
# Indices 1 2 3 4 5 6 
#
# 1 0.027831 -0.049400 -0.003780 0.000000 0.000000 0.000000
# 2 -0.049400 0.135501 -0.000179 0.000000 0.000000 0.000000
# 3 -0.003780 -0.000179 0.007523 0.000000 0.000000 0.000000
# 4 0.000000 0.000000 0.000000 0.060991 0.000000 0.000000
# 5 0.000000 0.000000 0.000000 0.000000 0.026095 0.000000
# 6 0.000000 0.000000 0.000000 0.000000 0.000000 0.025143
#
#
# Mechanical properties :
#
#
# Convention : Reuss Voigt Hill
#
# Bulk Modulus (GPa) = 15.59210 65.43745 40.51478
# Shear Modulus (GPa) = 12.16005 31.05452 21.60728
#
# Velocity S-wave (km/s) = 2.26063 3.61264 3.01343
# Velocity P-wave (km/s) = 3.65606 6.70094 5.39765
#
# Compressibility (1/GPa) = 0.06413503
#
# Stress axis : x y z
#
# Youngs Moduli (GPa) = 35.93064 7.38003 132.93259
#
# Poissons Ratio (x) = 0.36458 0.50254
# Poissons Ratio (y) = 1.77499 0.02379
# Poissons Ratio (z) = 0.13583 0.00132
#
# Static dielectric constant tensor:
#      x y z
#    x 1.887010 0.000000 0.000000 
#    y 0.000000 2.135480 0.000000 
#    z 0.000000 0.000000 2.036550 
# 
# From -- ./inp_files/14128.got.cif
#   From: 2010.05.17/outbox.cif.g08.bks.cpg/sg21_8_cif.got.tgz:14128.got - 2010.06.03 23:14:55.
