data_PCOD9324108
_publ_section_title
;
Structure prediction by ZEFSAII (Michael W. Deem and Ramdas Pophale) SiO2 
 PCOD9324108
Probable space group: C 2 2 2
;
_chemical_formula_sum "Si O2"
_cell_formula_units_Z 64
_cell_length_a 12.605420
_cell_length_b 12.691438
_cell_length_c 19.293141
_cell_angle_alpha 90.000000
_cell_angle_beta 90.000000
_cell_angle_gamma 90.000000
_cell_volume 3086.534184
_symmetry_space_group_name_H-M "C 2 2 2"
_symmetry_group_IT_number 21
_symmetry_cell_setting 'orthorhombic'
loop_
_space_group_symop_operation_xyz
x,y,z
-x,-y,z
x,-y,-z
-x,y,-z
1/2+x,1/2+y,z
1/2-x,1/2-y,z
1/2+x,1/2-y,-z
1/2-x,1/2+y,-z
loop_
_atom_site_type_symbol
_atom_site_label
_atom_site_fract_x
_atom_site_fract_y
_atom_site_fract_z
Si Si1 0.599944 0.163876 0.043649
Si Si2 0.331615 0.385035 0.011324
Si Si3 0.293751 0.419694 0.312929
Si Si4 0.417912 0.802863 0.438538
Si Si5 0.577173 0.790444 0.317163
Si Si6 0.303791 0.421107 0.563455
Si Si7 0.480147 0.114965 0.178634
Si Si8 0.242915 0.130292 0.164060
O O1 0.611627 0.287785 0.025623
O O2 0.568224 0.144312 0.122826
O O3 0.500000 0.122766 0.000000
O O4 0.712220 0.116294 0.020643
O O5 0.323977 0.366785 0.093978
O O6 0.377611 0.500000 0.000000
O O7 0.376475 0.326086 0.329595
O O8 0.176134 0.370878 0.325594
O O9 0.313645 0.516797 0.363763
O O10 0.295840 0.438109 0.229358
O O11 0.500000 0.822006 0.500000
O O12 0.483389 0.818277 0.368603
O O13 0.376858 0.682203 0.440552
O O14 0.316226 0.877860 0.443335
O O15 0.532665 0.801866 0.239602
O O16 0.326627 0.500000 0.500000
O O17 0.363879 0.104470 0.143771
O O18 0.500000 0.000000 0.210159
O O19 0.250000 0.250000 0.192084
#
# Coordination Sequence:
#
# PCOD9324108 Si02
#       8
#     8   8   8   8   8   8   8   8
#     4  11  22  38  62  89 123 160 220 274 318 392
#     4  11  23  39  61  91 126 171 217 273 342 386
#     4  10  21  39  67  92 123 168 216 261 315 387
#     4  11  25  44  66  99 137 165 208 267 314 379
#     4  10  22  39  64  95 127 166 214 267 322 383
#     4  11  25  44  67  98 131 172 212 255 314 382
#     4  11  22  36  62  94 125 166 217 273 334 388
#     4  11  18  40  62  86 123 166 213 272 318 389
#
# _framework density 20.735230999999999
#
# number of rings (size 3 to 8) (size 9 to 14) (size 15 to 20)
#    0.000    1.250    5.000    2.250    3.500    5.250 
#    2.250    1.250    0.000    0.000    0.000    0.000 
#    0.000    0.000    0.000    0.000    0.000    0.000 
#
# Total GULP energy -178831.440063 kJ/mol
# GULP energy per Si atom -5588.482502 kJ/mol
# Density = 2.068804 g / cm^3
# Si number density = 20.735231 Si / 1000 Ang^3
#
#
#
# Elastic Constant Matrix: (Units=GPa)
#
#
# Indices 1 2 3 4 5 6 
#
# 1 49.9338 -7.8311 0.3280 0.0000 0.0000 0.0000
# 2 -7.8311 86.6424 14.2371 0.0000 0.0000 0.0000
# 3 0.3280 14.2371 108.1461 0.0000 0.0000 0.0000
# 4 0.0000 0.0000 0.0000 24.1948 0.0000 0.0000
# 5 0.0000 0.0000 0.0000 0.0000 -17.1448 0.0000
# 6 0.0000 0.0000 0.0000 0.0000 0.0000 7.6885
#
#
#
# Elastic Compliance Matrix: (Units=1/GPa)
#
#
# Indices 1 2 3 4 5 6 
#
# 1 0.020325 0.001888 -0.000310 0.000000 0.000000 0.000000
# 2 0.001888 0.011972 -0.001582 0.000000 0.000000 0.000000
# 3 -0.000310 -0.001582 0.009456 0.000000 0.000000 0.000000
# 4 0.000000 0.000000 0.000000 0.041331 0.000000 0.000000
# 5 0.000000 0.000000 0.000000 0.000000 -0.058327 0.000000
# 6 0.000000 0.000000 0.000000 0.000000 0.000000 0.130065
#
#
# Mechanical properties :
#
#
# Convention : Reuss Voigt Hill
#
# Bulk Modulus (GPa) = 23.95511 28.68782 26.32147
# Shear Modulus (GPa) = 29.63049 18.81359 24.22204
#
# Velocity S-wave (km/s) = 3.78430 3.01545 3.42154
# Velocity P-wave (km/s) = 5.53828 5.09797 5.32268
#
# Compressibility (1/GPa) = 0.04174474
#
# Stress axis : x y z
#
# Youngs Moduli (GPa) = 49.20140 83.52641 105.75369
#
# Poissons Ratio (x) = -0.15770 0.03280
# Poissons Ratio (y) = -0.09289 0.16729
# Poissons Ratio (z) = 0.01526 0.13213
#
# Static dielectric constant tensor:
#      x y z
#    x 1.762360 0.000000 0.000000 
#    y 0.000000 1.754630 0.000000 
#    z 0.000000 0.000000 1.767870 
# 
# From -- ./inp_files/36733.got.cif
#   From: 2010.05.17/outbox.cif.g08.bks.cpg/sg21_19_cif.got.tgz:36733.got - 2010.06.03 23:14:55.
