data_PCOD9324479
_publ_section_title
;
Structure prediction by ZEFSAII (Michael W. Deem and Ramdas Pophale) SiO2 
 PCOD9324479
Probable space group: C 2 2 2
;
_chemical_formula_sum "Si O2"
_cell_formula_units_Z 46
_cell_length_a 6.365010
_cell_length_b 22.972342
_cell_length_c 16.063842
_cell_angle_alpha 90.000000
_cell_angle_beta 90.000000
_cell_angle_gamma 90.000000
_cell_volume 2348.841910
_symmetry_space_group_name_H-M "C 2 2 2"
_symmetry_group_IT_number 21
_symmetry_cell_setting 'orthorhombic'
loop_
_space_group_symop_operation_xyz
x,y,z
-x,-y,z
x,-y,-z
-x,y,-z
1/2+x,1/2+y,z
1/2-x,1/2-y,z
1/2+x,1/2-y,-z
1/2-x,1/2+y,-z
loop_
_atom_site_type_symbol
_atom_site_label
_atom_site_fract_x
_atom_site_fract_y
_atom_site_fract_z
Si Si1 0.631168 0.305373 0.134860
Si Si2 0.500000 0.398109 0.000000
Si Si3 0.750000 0.250000 0.772844
Si Si4 0.816888 0.451636 0.368054
Si Si5 0.000000 0.000000 0.235095
Si Si6 0.000000 0.000000 0.500000
Si Si7 0.339308 0.054682 0.119643
Si Si8 0.028913 0.354595 0.746380
O O1 0.750000 0.250000 0.094761
O O2 0.413617 0.281736 0.167863
O O3 0.763597 0.325595 0.214948
O O4 0.589614 0.357482 0.072712
O O5 0.710222 0.430169 0.964691
O O6 0.630461 0.197919 0.726354
O O7 0.661975 0.465602 0.291796
O O8 0.658749 0.459634 0.445830
O O9 0.927292 0.392906 0.335690
O O10 0.000000 0.500000 0.375571
O O11 0.855809 0.961191 0.178182
O O12 0.449156 0.105762 0.174624
O O13 0.500000 0.000000 0.112116
#
# Coordination Sequence:
#
# PCOD9324479 Si02
#       8
#     8   4   4   8   4   2   8   8
#     4  10  24  41  60  89 121 166 235 289 351 395
#     4  12  26  41  60  82 126 180 227 300 364 386
#     4  10  22  40  64  90 122 162 248 282 328 410
#     4  11  21  40  68  98 146 171 207 263 326 408
#     4  11  20  40  62  91 118 184 220 259 326 414
#     4  10  26  36  64 112 148 166 210 246 340 428
#     4  12  25  43  59  88 124 180 236 275 347 414
#     4  11  21  42  65  88 129 171 221 282 328 394
#
# _framework density 19.584119000000001
#
# number of rings (size 3 to 8) (size 9 to 14) (size 15 to 20)
#    0.000    1.043    5.217    1.304    1.217    1.043 
#    3.130    0.000    0.000    0.000    0.000    0.000 
#  117.391    0.000    0.000    0.000    0.000    0.000 
#
# Total GULP energy -128302.616313 kJ/mol
# GULP energy per Si atom -5578.374622 kJ/mol
# Density = 1.953954 g / cm^3
# Si number density = 19.584119 Si / 1000 Ang^3
#
#
#
# Elastic Constant Matrix: (Units=GPa)
#
#
# Indices 1 2 3 4 5 6 
#
# 1 141.4059 63.6245 50.0535 0.0000 0.0000 0.0000
# 2 63.6245 117.3307 56.3376 0.0000 0.0000 0.0000
# 3 50.0535 56.3376 76.8171 0.0000 0.0000 0.0000
# 4 0.0000 0.0000 0.0000 89.3362 0.0000 0.0000
# 5 0.0000 0.0000 0.0000 0.0000 21.0487 0.0000
# 6 0.0000 0.0000 0.0000 0.0000 0.0000 44.7542
#
#
#
# Elastic Compliance Matrix: (Units=1/GPa)
#
#
# Indices 1 2 3 4 5 6 
#
# 1 0.010074 -0.003567 -0.003948 0.000000 0.000000 0.000000
# 2 -0.003567 0.014419 -0.008250 0.000000 0.000000 0.000000
# 3 -0.003948 -0.008250 0.021641 0.000000 0.000000 0.000000
# 4 0.000000 0.000000 0.000000 0.011194 0.000000 0.000000
# 5 0.000000 0.000000 0.000000 0.000000 0.047509 0.000000
# 6 0.000000 0.000000 0.000000 0.000000 0.000000 0.022344
#
#
# Mechanical properties :
#
#
# Convention : Reuss Voigt Hill
#
# Bulk Modulus (GPa) = 68.47913 75.06498 71.77206
# Shear Modulus (GPa) = 30.56596 42.06371 36.31484
#
# Velocity S-wave (km/s) = 3.95492 4.63952 4.31083
# Velocity P-wave (km/s) = 7.47648 8.19224 7.84253
#
# Compressibility (1/GPa) = 0.01460299
#
# Stress axis : x y z
#
# Youngs Moduli (GPa) = 99.26097 69.35387 46.20778
#
# Poissons Ratio (x) = 0.24740 0.18244
# Poissons Ratio (y) = 0.35409 0.38123
# Poissons Ratio (z) = 0.39191 0.57219
#
# Static dielectric constant tensor:
#      x y z
#    x 1.620530 0.000000 0.000000 
#    y 0.000000 1.766810 0.000000 
#    z 0.000000 0.000000 1.718190 
# 
# From -- ./inp_files/35064.got.cif
#   From: 2010.05.17/outbox.cif.g08.bks.cpg/sg21_18_cif.got.tgz:35064.got - 2010.06.03 23:14:55.
