data_PCOD9324953
_publ_section_title
;
Structure prediction by ZEFSAII (Michael W. Deem and Ramdas Pophale) SiO2 
 PCOD9324953
Probable space group: C 2 2 2
;
_chemical_formula_sum "Si O2"
_cell_formula_units_Z 40
_cell_length_a 17.781600
_cell_length_b 10.187775
_cell_length_c 10.079977
_cell_angle_alpha 90.000000
_cell_angle_beta 90.000000
_cell_angle_gamma 90.000000
_cell_volume 1826.037628
_symmetry_space_group_name_H-M "C 2 2 2"
_symmetry_group_IT_number 21
_symmetry_cell_setting 'orthorhombic'
loop_
_space_group_symop_operation_xyz
x,y,z
-x,-y,z
x,-y,-z
-x,y,-z
1/2+x,1/2+y,z
1/2-x,1/2-y,z
1/2+x,1/2-y,-z
1/2-x,1/2+y,-z
loop_
_atom_site_type_symbol
_atom_site_label
_atom_site_fract_x
_atom_site_fract_y
_atom_site_fract_z
Si Si1 0.660894 0.245874 0.803913
Si Si2 0.418931 0.212134 0.930729
Si Si3 0.233520 0.604002 0.395027
Si Si4 0.336578 0.465543 0.847634
Si Si5 0.584038 0.993945 0.697786
O O1 0.750000 0.250000 0.779562
O O2 0.632322 0.395583 0.793718
O O3 0.618723 0.138400 0.716859
O O4 0.643363 0.200647 0.954321
O O5 0.395330 0.345773 0.854683
O O6 0.420568 0.086466 0.836431
O O7 0.500000 0.227027 0.000000
O O8 0.264360 0.500000 0.500000
O O9 0.250000 0.750000 0.438133
O O10 0.269371 0.577340 0.249886
O O11 0.144473 0.586385 0.385057
O O12 0.313271 0.500000 0.000000
O O13 0.500000 0.000000 0.646643
#
# Coordination Sequence:
#
# PCOD9324953 Si02
#       5
#     8   8   8   8   8
#     4  11  23  35  64 102 146 186 233 297 373 446
#     4  11  23  40  62 108 152 193 233 308 381 456
#     4  12  28  50  78 107 149 200 263 315 376 448
#     4  10  24  42  71 107 147 192 245 311 377 454
#     4  12  25  44  69 104 146 195 247 305 378 451
#
# _framework density 21.905353000000002
#
# number of rings (size 3 to 8) (size 9 to 14) (size 15 to 20)
#    0.000    0.800    6.000    0.600    8.400    4.000 
#    0.000    0.000    0.000    0.000    0.000    0.000 
#    0.000    0.000    0.000    0.000    0.000    0.000 
#
# Total GULP energy -111892.074324 kJ/mol
# GULP energy per Si atom -5594.603716 kJ/mol
# Density = 2.185550 g / cm^3
# Si number density = 21.905353 Si / 1000 Ang^3
#
#
#
# Elastic Constant Matrix: (Units=GPa)
#
#
# Indices 1 2 3 4 5 6 
#
# 1 143.3035 69.1445 42.8913 0.0000 0.0000 0.0000
# 2 69.1445 178.7759 39.4587 0.0000 0.0000 0.0000
# 3 42.8913 39.4587 73.2040 0.0000 0.0000 0.0000
# 4 0.0000 0.0000 0.0000 20.1850 0.0000 0.0000
# 5 0.0000 0.0000 0.0000 0.0000 -18.2900 0.0000
# 6 0.0000 0.0000 0.0000 0.0000 0.0000 31.1218
#
#
#
# Elastic Compliance Matrix: (Units=1/GPa)
#
#
# Indices 1 2 3 4 5 6 
#
# 1 0.009549 -0.002790 -0.004091 0.000000 0.000000 0.000000
# 2 -0.002790 0.007164 -0.002227 0.000000 0.000000 0.000000
# 3 -0.004091 -0.002227 0.017258 0.000000 0.000000 0.000000
# 4 0.000000 0.000000 0.000000 0.049542 0.000000 0.000000
# 5 0.000000 0.000000 0.000000 0.000000 -0.054675 0.000000
# 6 0.000000 0.000000 0.000000 0.000000 0.000000 0.032132
#
#
# Mechanical properties :
#
#
# Convention : Reuss Voigt Hill
#
# Bulk Modulus (GPa) = 63.47218 77.58585 70.52902
# Shear Modulus (GPa) = 59.21554 22.85595 41.03575
#
# Velocity S-wave (km/s) = 5.20491 3.23367 4.33288
# Velocity P-wave (km/s) = 8.07218 7.03120 7.56960
#
# Compressibility (1/GPa) = 0.01575493
#
# Stress axis : x y z
#
# Youngs Moduli (GPa) = 104.72391 139.58120 57.94535
#
# Poissons Ratio (x) = 0.38947 0.23704
# Poissons Ratio (y) = 0.29221 0.12904
# Poissons Ratio (z) = 0.42841 0.31083
#
# Static dielectric constant tensor:
#      x y z
#    x 1.773950 0.000000 0.000000 
#    y 0.000000 1.813900 0.000000 
#    z 0.000000 0.000000 1.857670 
# 
# From -- ./inp_files/25842.got.cif
#   From: 2010.05.17/outbox.cif.g08.bks.cpg/sg21_13_cif.got.tgz:25842.got - 2010.06.03 23:14:55.
