data_PCOD9324408
_publ_section_title
;
Structure prediction by ZEFSAII (Michael W. Deem and Ramdas Pophale) SiO2 
 PCOD9324408
Probable space group: C 2 2 2
;
_chemical_formula_sum "Si O2"
_cell_formula_units_Z 32
_cell_length_a 8.086633
_cell_length_b 12.705257
_cell_length_c 13.993971
_cell_angle_alpha 90.000000
_cell_angle_beta 90.000000
_cell_angle_gamma 90.000000
_cell_volume 1437.779071
_symmetry_space_group_name_H-M "C 2 2 2"
_symmetry_group_IT_number 21
_symmetry_cell_setting 'orthorhombic'
loop_
_space_group_symop_operation_xyz
x,y,z
-x,-y,z
x,-y,-z
-x,y,-z
1/2+x,1/2+y,z
1/2-x,1/2-y,z
1/2+x,1/2-y,-z
1/2-x,1/2+y,-z
loop_
_atom_site_type_symbol
_atom_site_label
_atom_site_fract_x
_atom_site_fract_y
_atom_site_fract_z
Si Si1 0.252287 0.375812 0.629895
Si Si2 0.500000 0.500000 0.500000
Si Si3 0.500000 0.000000 0.860205
Si Si4 0.500000 0.000000 0.500000
Si Si5 0.557655 0.217879 0.893414
Si Si6 0.845873 0.077047 0.155218
O O1 0.250000 0.250000 0.633025
O O2 0.400209 0.422327 0.567726
O O3 0.280981 0.419644 0.736118
O O4 0.099074 0.424556 0.572358
O O5 0.454568 0.882740 0.823084
O O6 0.683985 0.966273 0.899840
O O7 0.750000 0.250000 0.895394
O O8 0.427897 0.309677 0.867246
O O9 0.500000 0.185698 0.000000
O O10 0.000000 0.000000 0.141680
#
# Coordination Sequence:
#
# PCOD9324408 Si02
#       6
#     8   2   4   2   8   8
#     4  11  22  42  66  97 135 177 223 284 344 419
#     4  10  22  38  64  92 130 166 222 274 348 408
#     4  12  24  46  70 100 142 188 236 300 358 412
#     4  10  24  42  68 106 132 184 230 280 358 418
#     4  12  26  46  71 104 142 189 246 300 359 425
#     4  12  25  46  72 105 143 190 237 294 361 425
#
# _framework density 22.256549
#
# number of rings (size 3 to 8) (size 9 to 14) (size 15 to 20)
#    0.000    0.500    3.750    5.625    0.000    0.500 
#    0.000    1.250    0.000    0.000    0.000    0.000 
#    0.000    0.000    0.000    0.000    0.000    0.000 
#
# Total GULP energy -89137.105795 kJ/mol
# GULP energy per Si atom -5571.069112 kJ/mol
# Density = 2.220589 g / cm^3
# Si number density = 22.256549 Si / 1000 Ang^3
#
#
#
# Elastic Constant Matrix: (Units=GPa)
#
#
# Indices 1 2 3 4 5 6 
#
# 1 204.3123 65.2700 39.8115 0.0000 0.0000 0.0000
# 2 65.2700 163.6733 16.5104 0.0000 0.0000 0.0000
# 3 39.8115 16.5104 111.4669 0.0000 0.0000 0.0000
# 4 0.0000 0.0000 0.0000 34.6591 0.0000 0.0000
# 5 0.0000 0.0000 0.0000 0.0000 35.3640 0.0000
# 6 0.0000 0.0000 0.0000 0.0000 0.0000 54.6190
#
#
#
# Elastic Compliance Matrix: (Units=1/GPa)
#
#
# Indices 1 2 3 4 5 6 
#
# 1 0.005944 -0.002189 -0.001799 0.000000 0.000000 0.000000
# 2 -0.002189 0.007009 -0.000256 0.000000 0.000000 0.000000
# 3 -0.001799 -0.000256 0.009652 0.000000 0.000000 0.000000
# 4 0.000000 0.000000 0.000000 0.028852 0.000000 0.000000
# 5 0.000000 0.000000 0.000000 0.000000 0.028277 0.000000
# 6 0.000000 0.000000 0.000000 0.000000 0.000000 0.018309
#
#
# Mechanical properties :
#
#
# Convention : Reuss Voigt Hill
#
# Bulk Modulus (GPa) = 70.84016 80.29293 75.56654
# Shear Modulus (GPa) = 44.94922 48.78578 46.86750
#
# Velocity S-wave (km/s) = 4.49887 4.68693 4.59386
# Velocity P-wave (km/s) = 7.67362 8.08976 7.88443
#
# Compressibility (1/GPa) = 0.01411629
#
# Stress axis : x y z
#
# Youngs Moduli (GPa) = 168.22863 142.68331 103.60867
#
# Poissons Ratio (x) = 0.31234 0.18637
# Poissons Ratio (y) = 0.36826 0.02655
# Poissons Ratio (z) = 0.30261 0.03657
#
# Static dielectric constant tensor:
#      x y z
#    x 2.001800 0.000000 0.000000 
#    y 0.000000 1.853560 0.000000 
#    z 0.000000 0.000000 1.837890 
# 
# From -- ./inp_files/29981.got.cif
#   From: 2010.05.17/outbox.cif.g08.bks.cpg/sg21_15_cif.got.tgz:29981.got - 2010.06.03 23:14:55.
