data_PCOD9324405
_publ_section_title
;
Structure prediction by ZEFSAII (Michael W. Deem and Ramdas Pophale) SiO2 
 PCOD9324405
Probable space group: C 2 2 2
;
_chemical_formula_sum "Si O2"
_cell_formula_units_Z 38
_cell_length_a 5.199497
_cell_length_b 19.712443
_cell_length_c 17.986169
_cell_angle_alpha 90.000000
_cell_angle_beta 90.000000
_cell_angle_gamma 90.000000
_cell_volume 1843.488583
_symmetry_space_group_name_H-M "C 2 2 2"
_symmetry_group_IT_number 21
_symmetry_cell_setting 'orthorhombic'
loop_
_space_group_symop_operation_xyz
x,y,z
-x,-y,z
x,-y,-z
-x,y,-z
1/2+x,1/2+y,z
1/2-x,1/2-y,z
1/2+x,1/2-y,-z
1/2-x,1/2+y,-z
loop_
_atom_site_type_symbol
_atom_site_label
_atom_site_fract_x
_atom_site_fract_y
_atom_site_fract_z
Si Si1 0.250000 0.750000 0.549051
Si Si2 0.738070 0.955417 0.707629
Si Si3 0.936875 0.184832 0.332094
Si Si4 0.000000 0.500000 0.000000
Si Si5 0.179540 0.065267 0.873853
Si Si6 0.011040 0.793685 0.838508
O O1 0.500000 0.767937 0.500000
O O2 0.348350 0.691529 0.604822
O O3 0.786260 0.885739 0.664223
O O4 0.679108 0.933320 0.793653
O O5 0.500000 0.000000 0.681020
O O6 0.000000 0.000000 0.706294
O O7 0.750000 0.250000 0.339495
O O8 0.053508 0.188659 0.248957
O O9 0.151680 0.549550 0.055054
O O10 0.026672 0.135202 0.879431
O O11 0.000000 0.000000 0.868990
O O12 0.750000 0.750000 0.843176
O O13 0.250000 0.750000 0.865597
#
# Coordination Sequence:
#
# PCOD9324405 Si02
#       6
#     4   8   8   2   8   8
#     4  12  24  38  60  98 134 174 218 266 324 402
#     4  10  22  38  63  99 130 161 213 278 329 373
#     4  10  22  38  65  98 129 166 216 267 325 380
#     4  12  22  40  64  90 128 176 232 254 350 392
#     4  10  23  38  64  90 127 169 216 268 325 403
#     4  10  22  39  67  95 128 159 214 279 331 369
#
# _framework density 20.613094
#
# number of rings (size 3 to 8) (size 9 to 14) (size 15 to 20)
#    0.000    1.684    3.158    0.316    5.895    5.053 
#    0.000    0.000    4.632    0.632    5.474    0.000 
#    0.000    0.000    0.000    0.000    0.000    0.000 
#
# Total GULP energy -106151.186580 kJ/mol
# GULP energy per Si atom -5586.904557 kJ/mol
# Density = 2.056618 g / cm^3
# Si number density = 20.613094 Si / 1000 Ang^3
#
#
#
# Elastic Constant Matrix: (Units=GPa)
#
#
# Indices 1 2 3 4 5 6 
#
# 1 129.6624 83.4054 55.8499 0.0000 0.0000 0.0000
# 2 83.4054 187.0051 54.3651 0.0000 0.0000 0.0000
# 3 55.8499 54.3651 93.1375 0.0000 0.0000 0.0000
# 4 0.0000 0.0000 0.0000 0.5365 0.0000 0.0000
# 5 0.0000 0.0000 0.0000 0.0000 6.2095 0.0000
# 6 0.0000 0.0000 0.0000 0.0000 0.0000 43.3508
#
#
#
# Elastic Compliance Matrix: (Units=1/GPa)
#
#
# Indices 1 2 3 4 5 6 
#
# 1 0.012571 -0.004113 -0.005137 0.000000 0.000000 0.000000
# 2 -0.004113 0.007786 -0.002078 0.000000 0.000000 0.000000
# 3 -0.005137 -0.002078 0.015031 0.000000 0.000000 0.000000
# 4 0.000000 0.000000 0.000000 1.863955 0.000000 0.000000
# 5 0.000000 0.000000 0.000000 0.000000 0.161045 0.000000
# 6 0.000000 0.000000 0.000000 0.000000 0.000000 0.023068
#
#
# Mechanical properties :
#
#
# Convention : Reuss Voigt Hill
#
# Bulk Modulus (GPa) = 78.55475 88.56065 83.55770
# Shear Modulus (GPa) = 2.36927 24.43166 13.40046
#
# Velocity S-wave (km/s) = 1.07326 3.44648 2.55246
# Velocity P-wave (km/s) = 6.30299 7.67426 7.02218
#
# Compressibility (1/GPa) = 0.01272997
#
# Stress axis : x y z
#
# Youngs Moduli (GPa) = 79.54828 128.43245 66.53136
#
# Poissons Ratio (x) = 0.52828 0.34179
# Poissons Ratio (y) = 0.32720 0.13828
# Poissons Ratio (z) = 0.40866 0.26693
#
# Static dielectric constant tensor:
#      x y z
#    x 1.791110 0.000000 0.000000 
#    y 0.000000 1.719960 0.000000 
#    z 0.000000 0.000000 1.772040 
# 
# From -- ./inp_files/34690.got.cif
#   From: 2010.05.17/outbox.cif.g08.bks.cpg/sg21_18_cif.got.tgz:34690.got - 2010.06.03 23:14:55.
