data_PCOD9324501
_publ_section_title
;
Structure prediction by ZEFSAII (Michael W. Deem and Ramdas Pophale) SiO2 
 PCOD9324501
Probable space group: C 2 2 2
;
_chemical_formula_sum "Si O2"
_cell_formula_units_Z 32
_cell_length_a 7.871225
_cell_length_b 12.060802
_cell_length_c 13.917989
_cell_angle_alpha 90.000000
_cell_angle_beta 90.000000
_cell_angle_gamma 90.000000
_cell_volume 1321.280433
_symmetry_space_group_name_H-M "C 2 2 2"
_symmetry_group_IT_number 21
_symmetry_cell_setting 'orthorhombic'
loop_
_space_group_symop_operation_xyz
x,y,z
-x,-y,z
x,-y,-z
-x,y,-z
1/2+x,1/2+y,z
1/2-x,1/2-y,z
1/2+x,1/2-y,-z
1/2-x,1/2+y,-z
loop_
_atom_site_type_symbol
_atom_site_label
_atom_site_fract_x
_atom_site_fract_y
_atom_site_fract_z
Si Si1 0.446301 0.371570 0.126896
Si Si2 0.952138 0.732945 0.709716
Si Si3 0.256844 0.000000 0.500000
Si Si4 0.000000 0.198351 0.500000
Si Si5 0.000000 0.500000 0.320179
Si Si6 0.250000 0.750000 0.014901
O O1 0.500000 0.500000 0.120548
O O2 0.444468 0.328775 0.235789
O O3 0.592478 0.286658 0.083399
O O4 0.277695 0.349421 0.063598
O O5 0.750000 0.750000 0.717998
O O6 0.997809 0.733745 0.597255
O O7 0.996639 0.609737 0.743447
O O8 0.155430 0.114047 0.500605
O O9 0.347459 0.998403 0.396745
#
# Coordination Sequence:
#
# PCOD9324501 Si02
#       6
#     8   8   4   4   4   4
#     4  11  26  49  78 112 150 188 244 305 369 446
#     4  12  26  45  69 109 153 193 252 303 362 441
#     4  10  22  40  66  96 136 200 254 302 346 422
#     4  11  24  41  68 100 146 203 243 294 370 418
#     4  11  24  42  64  99 144 190 250 305 354 417
#     4  10  22  50  76 108 138 186 234 302 378 432
#
# _framework density 24.218928999999999
#
# number of rings (size 3 to 8) (size 9 to 14) (size 15 to 20)
#    0.000    1.000    3.750    3.000    3.500    4.000 
#    4.500    5.000    0.000    0.000    0.000    0.000 
#    0.000    0.000    0.000    0.000    0.000    0.000 
#
# Total GULP energy -89281.698901 kJ/mol
# GULP energy per Si atom -5580.106181 kJ/mol
# Density = 2.416381 g / cm^3
# Si number density = 24.218929 Si / 1000 Ang^3
#
#
#
# Elastic Constant Matrix: (Units=GPa)
#
#
# Indices 1 2 3 4 5 6 
#
# 1 60.5327 33.6762 8.6457 0.0000 0.0000 0.0000
# 2 33.6762 189.6552 26.4365 0.0000 0.0000 0.0000
# 3 8.6457 26.4365 107.0785 0.0000 0.0000 0.0000
# 4 0.0000 0.0000 0.0000 28.7413 0.0000 0.0000
# 5 0.0000 0.0000 0.0000 0.0000 13.3320 0.0000
# 6 0.0000 0.0000 0.0000 0.0000 0.0000 49.6196
#
#
#
# Elastic Compliance Matrix: (Units=1/GPa)
#
#
# Indices 1 2 3 4 5 6 
#
# 1 0.018382 -0.003166 -0.000703 0.000000 0.000000 0.000000
# 2 -0.003166 0.006006 -0.001227 0.000000 0.000000 0.000000
# 3 -0.000703 -0.001227 0.009699 0.000000 0.000000 0.000000
# 4 0.000000 0.000000 0.000000 0.034793 0.000000 0.000000
# 5 0.000000 0.000000 0.000000 0.000000 0.075007 0.000000
# 6 0.000000 0.000000 0.000000 0.000000 0.000000 0.020153
#
#
# Mechanical properties :
#
#
# Convention : Reuss Voigt Hill
#
# Bulk Modulus (GPa) = 41.85003 54.97592 48.41297
# Shear Modulus (GPa) = 27.44290 37.57246 32.50768
#
# Velocity S-wave (km/s) = 3.36983 3.94301 3.66764
# Velocity P-wave (km/s) = 5.69723 6.59383 6.16186
#
# Compressibility (1/GPa) = 0.02389485
#
# Stress axis : x y z
#
# Youngs Moduli (GPa) = 54.40199 166.50124 103.10723
#
# Poissons Ratio (x) = 0.52715 0.07243
# Poissons Ratio (y) = 0.17224 0.12653
# Poissons Ratio (z) = 0.03822 0.20433
#
# Static dielectric constant tensor:
#      x y z
#    x 2.053850 0.000000 0.000000 
#    y 0.000000 1.913570 0.000000 
#    z 0.000000 0.000000 1.999710 
# 
# From -- ./inp_files/29967.got.cif
#   From: 2010.05.17/outbox.cif.g08.bks.cpg/sg21_15_cif.got.tgz:29967.got - 2010.06.03 23:14:55.
