data_PCOD9324801
_publ_section_title
;
Structure prediction by ZEFSAII (Michael W. Deem and Ramdas Pophale) SiO2 
 PCOD9324801
Probable space group: C 2 2 2
;
_chemical_formula_sum "Si O2"
_cell_formula_units_Z 26
_cell_length_a 5.148933
_cell_length_b 13.494568
_cell_length_c 15.411682
_cell_angle_alpha 90.000000
_cell_angle_beta 90.000000
_cell_angle_gamma 90.000000
_cell_volume 1070.844144
_symmetry_space_group_name_H-M "C 2 2 2"
_symmetry_group_IT_number 21
_symmetry_cell_setting 'orthorhombic'
loop_
_space_group_symop_operation_xyz
x,y,z
-x,-y,z
x,-y,-z
-x,y,-z
1/2+x,1/2+y,z
1/2-x,1/2-y,z
1/2+x,1/2-y,-z
1/2-x,1/2+y,-z
loop_
_atom_site_type_symbol
_atom_site_label
_atom_site_fract_x
_atom_site_fract_y
_atom_site_fract_z
Si Si1 0.779284 0.868097 0.140013
Si Si2 0.500000 0.000000 0.000000
Si Si3 0.780580 0.631005 0.750577
Si Si4 0.251257 0.370120 0.555868
O O1 0.750000 0.750000 0.121237
O O2 0.568727 0.889465 0.215427
O O3 0.062758 0.893489 0.177564
O O4 0.682688 0.930310 0.058465
O O5 0.750000 0.750000 0.744162
O O6 0.741135 0.590182 0.653999
O O7 0.500000 0.396003 0.500000
O O8 0.250000 0.250000 0.563085
O O9 0.000000 0.395808 0.500000
#
# Coordination Sequence:
#
# PCOD9324801 Si02
#       4
#     8   2   8   8
#     4  10  23  41  63  91 128 169 215 273 332 396
#     4  12  28  46  72 100 126 174 232 282 344 404
#     4   9  18  35  56  85 128 171 208 261 328 383
#     4   9  15  24  46  82 121 161 208 255 302 373
#
# _framework density 24.279909
#
# number of rings (size 3 to 8) (size 9 to 14) (size 15 to 20)
#    0.000    2.462    0.000    1.846    0.000   14.769 
#    0.000    0.000    0.000    0.000    0.000   16.154 
#    0.000    0.000    0.000    0.000    0.000    6.154 
#
# Total GULP energy -72833.973566 kJ/mol
# GULP energy per Si atom -5602.613351 kJ/mol
# Density = 2.422465 g / cm^3
# Si number density = 24.279909 Si / 1000 Ang^3
#
#
#
# Elastic Constant Matrix: (Units=GPa)
#
#
# Indices 1 2 3 4 5 6 
#
# 1 148.5806 -3.3020 55.2327 0.0000 0.0000 0.0000
# 2 -3.3020 120.2789 37.7997 0.0000 0.0000 0.0000
# 3 55.2327 37.7997 181.6924 0.0000 0.0000 0.0000
# 4 0.0000 0.0000 0.0000 -22.3681 0.0000 0.0000
# 5 0.0000 0.0000 0.0000 0.0000 57.5998 0.0000
# 6 0.0000 0.0000 0.0000 0.0000 0.0000 38.5728
#
#
#
# Elastic Compliance Matrix: (Units=1/GPa)
#
#
# Indices 1 2 3 4 5 6 
#
# 1 0.007702 0.001013 -0.002552 0.000000 0.000000 0.000000
# 2 0.001013 0.009029 -0.002186 0.000000 0.000000 0.000000
# 3 -0.002552 -0.002186 0.006734 0.000000 0.000000 0.000000
# 4 0.000000 0.000000 0.000000 -0.044706 0.000000 0.000000
# 5 0.000000 0.000000 0.000000 0.000000 0.017361 0.000000
# 6 0.000000 0.000000 0.000000 0.000000 0.000000 0.025925
#
#
# Mechanical properties :
#
#
# Convention : Reuss Voigt Hill
#
# Bulk Modulus (GPa) = 62.44198 70.00141 66.22169
# Shear Modulus (GPa) = 143.54147 38.81568 91.17857
#
# Velocity S-wave (km/s) = 7.69726 4.00268 6.13471
# Velocity P-wave (km/s) = 10.23574 7.08911 8.80415
#
# Compressibility (1/GPa) = 0.01601487
#
# Stress axis : x y z
#
# Youngs Moduli (GPa) = 129.84380 110.75460 148.48940
#
# Poissons Ratio (x) = -0.11224 0.37895
# Poissons Ratio (y) = -0.13159 0.32467
# Poissons Ratio (z) = 0.33137 0.24216
#
# Static dielectric constant tensor:
#      x y z
#    x 3.418060 0.000000 0.000000 
#    y 0.000000 2.010330 0.000000 
#    z 0.000000 0.000000 1.857510 
# 
# From -- ./inp_files/28459.got.cif
#   From: 2010.05.17/outbox.cif.g08.bks.cpg/sg21_15_cif.got.tgz:28459.got - 2010.06.03 23:14:55.
