data_PCOD9324837
_publ_section_title
;
Structure prediction by ZEFSAII (Michael W. Deem and Ramdas Pophale) SiO2 
 PCOD9324837
Probable space group: C 2 2 2
;
_chemical_formula_sum "Si O2"
_cell_formula_units_Z 42
_cell_length_a 23.611498
_cell_length_b 10.194280
_cell_length_c 8.952043
_cell_angle_alpha 90.000000
_cell_angle_beta 90.000000
_cell_angle_gamma 90.000000
_cell_volume 2154.776640
_symmetry_space_group_name_H-M "C 2 2 2"
_symmetry_group_IT_number 21
_symmetry_cell_setting 'orthorhombic'
loop_
_space_group_symop_operation_xyz
x,y,z
-x,-y,z
x,-y,-z
-x,y,-z
1/2+x,1/2+y,z
1/2-x,1/2-y,z
1/2+x,1/2-y,-z
1/2-x,1/2+y,-z
loop_
_atom_site_type_symbol
_atom_site_label
_atom_site_fract_x
_atom_site_fract_y
_atom_site_fract_z
Si Si1 0.726465 0.600787 0.138695
Si Si2 0.114650 0.768954 0.819933
Si Si3 0.502475 0.655890 0.669434
Si Si4 0.000000 0.500000 0.000000
Si Si5 0.909226 0.686936 0.847198
Si Si6 0.668617 0.987596 0.322696
O O1 0.750000 0.750000 0.102862
O O2 0.663316 0.622631 0.201570
O O3 0.768764 0.539230 0.260037
O O4 0.726635 0.500000 0.000000
O O5 0.052324 0.802739 0.764169
O O6 0.133487 0.638565 0.733320
O O7 0.113896 0.741876 0.997026
O O8 0.500000 0.500000 0.662998
O O9 0.500000 0.708877 0.500000
O O10 0.559283 0.705078 0.748694
O O11 0.958776 0.413957 0.102993
O O12 0.860778 0.611433 0.756990
O O13 0.667322 0.000000 0.500000
#
# Coordination Sequence:
#
# PCOD9324837 Si02
#       6
#     8   8   8   2   8   8
#     4  10  23  43  66  95 130 168 223 280 319 387
#     4  11  22  41  64  94 129 166 219 271 320 382
#     4  11  25  42  60  94 135 172 209 255 329 397
#     4  12  20  36  64 100 124 148 214 282 314 372
#     4  12  21  39  70  95 128 166 219 272 319 387
#     4  11  22  41  66  96 128 168 213 272 335 385
#
# _framework density 19.491579000000002
#
# number of rings (size 3 to 8) (size 9 to 14) (size 15 to 20)
#    0.000    0.952    3.810    3.429    2.667    0.762 
#    3.429   10.476    0.000    0.000    0.000    0.000 
#    0.000    0.000    0.000    0.000    0.000    0.000 
#
# Total GULP energy -117356.972942 kJ/mol
# GULP energy per Si atom -5588.427283 kJ/mol
# Density = 1.944722 g / cm^3
# Si number density = 19.491579 Si / 1000 Ang^3
#
#
#
# Elastic Constant Matrix: (Units=GPa)
#
#
# Indices 1 2 3 4 5 6 
#
# 1 124.3456 42.1328 62.1472 0.0000 0.0000 0.0000
# 2 42.1328 67.6867 55.3302 0.0000 0.0000 0.0000
# 3 62.1472 55.3302 167.1581 0.0000 0.0000 0.0000
# 4 0.0000 0.0000 0.0000 24.9966 0.0000 0.0000
# 5 0.0000 0.0000 0.0000 0.0000 8.5976 0.0000
# 6 0.0000 0.0000 0.0000 0.0000 0.0000 33.1863
#
#
#
# Elastic Compliance Matrix: (Units=1/GPa)
#
#
# Indices 1 2 3 4 5 6 
#
# 1 0.010890 -0.004756 -0.002475 0.000000 0.000000 0.000000
# 2 -0.004756 0.022331 -0.005624 0.000000 0.000000 0.000000
# 3 -0.002475 -0.005624 0.008764 0.000000 0.000000 0.000000
# 4 0.000000 0.000000 0.000000 0.040005 0.000000 0.000000
# 5 0.000000 0.000000 0.000000 0.000000 0.116311 0.000000
# 6 0.000000 0.000000 0.000000 0.000000 0.000000 0.030133
#
#
# Mechanical properties :
#
#
# Convention : Reuss Voigt Hill
#
# Bulk Modulus (GPa) = 61.43589 75.37898 68.40743
# Shear Modulus (GPa) = 19.26268 26.66146 22.96207
#
# Velocity S-wave (km/s) = 3.14707 3.70245 3.43600
# Velocity P-wave (km/s) = 6.69276 7.55209 7.13537
#
# Compressibility (1/GPa) = 0.01627713
#
# Stress axis : x y z
#
# Youngs Moduli (GPa) = 91.82368 44.78000 114.10536
#
# Poissons Ratio (x) = 0.21298 0.28237
# Poissons Ratio (y) = 0.43672 0.64168
# Poissons Ratio (z) = 0.22723 0.25182
#
# Static dielectric constant tensor:
#      x y z
#    x 1.676480 0.000000 0.000000 
#    y 0.000000 1.695290 0.000000 
#    z 0.000000 0.000000 1.659800 
# 
# From -- ./inp_files/18415.got.cif
#   From: 2010.05.17/outbox.cif.g08.bks.cpg/sg21_10_cif.got.tgz:18415.got - 2010.06.03 23:14:55.
