data_PCOD9324570
_publ_section_title
;
Structure prediction by ZEFSAII (Michael W. Deem and Ramdas Pophale) SiO2 
 PCOD9324570
Probable space group: C 2 2 2
;
_chemical_formula_sum "Si O2"
_cell_formula_units_Z 40
_cell_length_a 7.754791
_cell_length_b 17.186051
_cell_length_c 13.042923
_cell_angle_alpha 90.000000
_cell_angle_beta 90.000000
_cell_angle_gamma 90.000000
_cell_volume 1738.285567
_symmetry_space_group_name_H-M "C 2 2 2"
_symmetry_group_IT_number 21
_symmetry_cell_setting 'orthorhombic'
loop_
_space_group_symop_operation_xyz
x,y,z
-x,-y,z
x,-y,-z
-x,y,-z
1/2+x,1/2+y,z
1/2-x,1/2-y,z
1/2+x,1/2-y,-z
1/2-x,1/2+y,-z
loop_
_atom_site_type_symbol
_atom_site_label
_atom_site_fract_x
_atom_site_fract_y
_atom_site_fract_z
Si Si1 0.715219 0.843056 0.907010
Si Si2 0.225261 0.657950 0.432205
Si Si3 0.355445 0.096664 0.348428
Si Si4 0.807679 0.338428 0.870584
Si Si5 0.165016 0.052004 0.721111
O O1 0.750000 0.750000 0.893485
O O2 0.510554 0.848926 0.890151
O O3 0.791965 0.900672 0.823300
O O4 0.770789 0.868780 0.021913
O O5 0.250000 0.750000 0.438610
O O6 0.229175 0.619657 0.543801
O O7 0.369139 0.617653 0.363550
O O8 0.045862 0.635036 0.372037
O O9 0.278923 0.131452 0.243538
O O10 0.314164 0.005591 0.324966
O O11 0.750000 0.250000 0.869609
O O12 0.000000 0.000000 0.737645
#
# Coordination Sequence:
#
# PCOD9324570 Si02
#       5
#     8   8   8   8   8
#     4  10  23  45  69 104 145 186 239 293 354 424
#     4  11  25  47  74 100 142 188 242 303 352 425
#     4  11  25  44  70 104 143 185 237 295 369 421
#     4  10  22  41  74 104 139 185 238 294 356 427
#     4  12  27  44  70 104 148 191 232 296 360 424
#
# _framework density 23.01118
#
# number of rings (size 3 to 8) (size 9 to 14) (size 15 to 20)
#    0.000    1.200    2.000    2.400    2.800    7.200 
#    0.000    3.000    0.000    0.000    0.000    0.000 
#    0.000    0.000    0.000    0.000    0.000    0.000 
#
# Total GULP energy -111575.155444 kJ/mol
# GULP energy per Si atom -5578.757772 kJ/mol
# Density = 2.295881 g / cm^3
# Si number density = 23.011180 Si / 1000 Ang^3
#
#
#
# Elastic Constant Matrix: (Units=GPa)
#
#
# Indices 1 2 3 4 5 6 
#
# 1 65.7548 14.0636 35.6317 0.0000 0.0000 0.0000
# 2 14.0636 104.0448 108.1261 0.0000 0.0000 0.0000
# 3 35.6317 108.1261 258.6554 0.0000 0.0000 0.0000
# 4 0.0000 0.0000 0.0000 121.0133 0.0000 0.0000
# 5 0.0000 0.0000 0.0000 0.0000 3.9212 0.0000
# 6 0.0000 0.0000 0.0000 0.0000 0.0000 36.5831
#
#
#
# Elastic Compliance Matrix: (Units=1/GPa)
#
#
# Indices 1 2 3 4 5 6 
#
# 1 0.016438 0.000232 -0.002362 0.000000 0.000000 0.000000
# 2 0.000232 0.016997 -0.007137 0.000000 0.000000 0.000000
# 3 -0.002362 -0.007137 0.007175 0.000000 0.000000 0.000000
# 4 0.000000 0.000000 0.000000 0.008264 0.000000 0.000000
# 5 0.000000 0.000000 0.000000 0.000000 0.255026 0.000000
# 6 0.000000 0.000000 0.000000 0.000000 0.000000 0.027335
#
#
# Mechanical properties :
#
#
# Convention : Reuss Voigt Hill
#
# Bulk Modulus (GPa) = 45.29586 82.67753 63.98669
# Shear Modulus (GPa) = 14.00059 50.34575 32.17317
#
# Velocity S-wave (km/s) = 2.46930 4.68255 3.74325
# Velocity P-wave (km/s) = 5.27797 8.07728 6.82273
#
# Compressibility (1/GPa) = 0.02207708
#
# Stress axis : x y z
#
# Youngs Moduli (GPa) = 60.83452 58.83324 139.37053
#
# Poissons Ratio (x) = -0.01367 0.32913
# Poissons Ratio (y) = -0.01413 0.99474
# Poissons Ratio (z) = 0.14366 0.41991
#
# Static dielectric constant tensor:
#      x y z
#    x 1.901220 0.000000 0.000000 
#    y 0.000000 1.859360 0.000000 
#    z 0.000000 0.000000 1.884890 
# 
# From -- ./inp_files/22279.got.cif
#   From: 2010.05.17/outbox.cif.g08.bks.cpg/sg21_12_cif.got.tgz:22279.got - 2010.06.03 23:14:55.
