data_PCOD9324387
_publ_section_title
;
Structure prediction by ZEFSAII (Michael W. Deem and Ramdas Pophale) SiO2 
 PCOD9324387
Probable space group: C 2 2 2
;
_chemical_formula_sum "Si O2"
_cell_formula_units_Z 44
_cell_length_a 28.144664
_cell_length_b 8.267022
_cell_length_c 9.398757
_cell_angle_alpha 90.000000
_cell_angle_beta 90.000000
_cell_angle_gamma 90.000000
_cell_volume 2186.832819
_symmetry_space_group_name_H-M "C 2 2 2"
_symmetry_group_IT_number 21
_symmetry_cell_setting 'orthorhombic'
loop_
_space_group_symop_operation_xyz
x,y,z
-x,-y,z
x,-y,-z
-x,y,-z
1/2+x,1/2+y,z
1/2-x,1/2-y,z
1/2+x,1/2-y,-z
1/2-x,1/2+y,-z
loop_
_atom_site_type_symbol
_atom_site_label
_atom_site_fract_x
_atom_site_fract_y
_atom_site_fract_z
Si Si1 0.363311 0.500000 0.500000
Si Si2 0.946178 0.754620 0.504560
Si Si3 0.750000 0.250000 0.762168
Si Si4 0.447274 0.009893 0.743193
Si Si5 0.121729 0.500000 0.000000
Si Si6 0.322330 0.326722 0.989567
Si Si7 0.723711 0.590694 0.695486
O O1 0.400839 0.360590 0.462988
O O2 0.327053 0.440499 0.621589
O O3 0.938636 0.680154 0.662432
O O4 0.947653 0.615570 0.386373
O O5 0.000000 0.824541 0.500000
O O6 0.752953 0.422122 0.681550
O O7 0.705360 0.281713 0.865696
O O8 0.500000 0.000000 0.806716
O O9 0.409918 0.964947 0.862200
O O10 0.150259 0.338182 0.958663
O O11 0.286383 0.369853 0.861345
O O12 0.349714 0.500000 0.000000
O O13 0.750000 0.750000 0.636988
#
# Coordination Sequence:
#
# PCOD9324387 Si02
#       7
#     4   8   4   8   4   8   8
#     4  12  25  38  62  96 120 160 209 262 312 354
#     4   9  20  42  64  87 123 166 209 252 304 386
#     4  10  22  42  64  80 120 170 200 246 310 362
#     4   9  20  39  62  90 123 160 200 247 315 378
#     4  12  21  34  66  94 122 154 200 262 313 342
#     4  10  22  38  60  86 117 160 207 243 295 374
#     4  11  24  42  59  88 127 158 211 251 306 365
#
# _framework density 20.120422999999999
#
# number of rings (size 3 to 8) (size 9 to 14) (size 15 to 20)
#    0.000    1.818    0.909    3.818    7.636    0.000 
#    3.273    0.000    0.000    1.091    0.000    0.000 
#    0.000    0.000    0.000    0.000    0.000    0.000 
#
# Total GULP energy -122548.178736 kJ/mol
# GULP energy per Si atom -5570.371761 kJ/mol
# Density = 2.007463 g / cm^3
# Si number density = 20.120423 Si / 1000 Ang^3
#
#
#
# Elastic Constant Matrix: (Units=GPa)
#
#
# Indices 1 2 3 4 5 6 
#
# 1 77.7819 66.7978 5.0961 0.0000 0.0000 0.0000
# 2 66.7978 165.3500 22.4902 0.0000 0.0000 0.0000
# 3 5.0961 22.4902 41.2561 0.0000 0.0000 0.0000
# 4 0.0000 0.0000 0.0000 15.4664 0.0000 0.0000
# 5 0.0000 0.0000 0.0000 0.0000 17.9000 0.0000
# 6 0.0000 0.0000 0.0000 0.0000 0.0000 43.7507
#
#
#
# Elastic Compliance Matrix: (Units=1/GPa)
#
#
# Indices 1 2 3 4 5 6 
#
# 1 0.019849 -0.008301 0.002073 0.000000 0.000000 0.000000
# 2 -0.008301 0.010003 -0.004428 0.000000 0.000000 0.000000
# 3 0.002073 -0.004428 0.026397 0.000000 0.000000 0.000000
# 4 0.000000 0.000000 0.000000 0.064656 0.000000 0.000000
# 5 0.000000 0.000000 0.000000 0.000000 0.055866 0.000000
# 6 0.000000 0.000000 0.000000 0.000000 0.000000 0.022857
#
#
# Mechanical properties :
#
#
# Convention : Reuss Voigt Hill
#
# Bulk Modulus (GPa) = 28.62186 52.57291 40.59738
# Shear Modulus (GPa) = 21.49757 28.09034 24.79396
#
# Velocity S-wave (km/s) = 3.27225 3.74051 3.51419
# Velocity P-wave (km/s) = 5.34163 6.69635 6.05698
#
# Compressibility (1/GPa) = 0.03493833
#
# Stress axis : x y z
#
# Youngs Moduli (GPa) = 50.38030 99.96714 37.88371
#
# Poissons Ratio (x) = 0.82978 -0.07854
# Poissons Ratio (y) = 0.41818 0.16774
# Poissons Ratio (z) = -0.10445 0.44264
#
# Static dielectric constant tensor:
#      x y z
#    x 1.707090 0.000000 0.000000 
#    y 0.000000 1.834310 0.000000 
#    z 0.000000 0.000000 1.712850 
# 
# From -- ./inp_files/19600.got.cif
#   From: 2010.05.17/outbox.cif.g08.bks.cpg/sg21_10_cif.got.tgz:19600.got - 2010.06.03 23:14:55.
