data_PCOD9324249
_publ_section_title
;
Structure prediction by ZEFSAII (Michael W. Deem and Ramdas Pophale) SiO2 
 PCOD9324249
Probable space group: C 2 2 2
;
_chemical_formula_sum "Si O2"
_cell_formula_units_Z 34
_cell_length_a 6.809476
_cell_length_b 14.313785
_cell_length_c 16.051616
_cell_angle_alpha 90.000000
_cell_angle_beta 90.000000
_cell_angle_gamma 90.000000
_cell_volume 1564.540986
_symmetry_space_group_name_H-M "C 2 2 2"
_symmetry_group_IT_number 21
_symmetry_cell_setting 'orthorhombic'
loop_
_space_group_symop_operation_xyz
x,y,z
-x,-y,z
x,-y,-z
-x,y,-z
1/2+x,1/2+y,z
1/2-x,1/2-y,z
1/2+x,1/2-y,-z
1/2-x,1/2+y,-z
loop_
_atom_site_type_symbol
_atom_site_label
_atom_site_fract_x
_atom_site_fract_y
_atom_site_fract_z
Si Si1 0.500000 0.500000 0.000000
Si Si2 0.813855 0.651186 0.949633
Si Si3 0.049642 0.306620 0.215560
Si Si4 0.204985 0.051701 0.581859
Si Si5 0.750000 0.750000 0.638908
Si Si6 0.500000 0.000000 0.276807
O O1 0.642774 0.572729 0.949804
O O2 0.750000 0.750000 0.991796
O O3 0.900788 0.685571 0.861539
O O4 0.000000 0.612737 0.000000
O O5 0.250000 0.250000 0.201900
O O6 0.096430 0.415771 0.227789
O O7 0.933318 0.268804 0.297525
O O8 0.194940 0.163279 0.579307
O O9 0.286128 0.000000 0.500000
O O10 0.334037 0.037650 0.662761
O O11 0.000000 0.000000 0.595004
#
# Coordination Sequence:
#
# PCOD9324249 Si02
#       6
#     2   8   8   8   4   4
#     4  12  30  48  72 104 144 184 236 296 360 424
#     4  12  26  47  71 102 141 184 239 295 357 429
#     4  11  24  42  69 100 135 184 231 292 352 421
#     4  10  21  42  64  96 133 179 229 288 345 422
#     4  10  22  44  64 100 138 178 234 286 362 414
#     4  10  23  40  63  98 138 174 230 286 351 422
#
# _framework density 21.731611999999998
#
# number of rings (size 3 to 8) (size 9 to 14) (size 15 to 20)
#    0.000    1.176    2.353    2.824    3.294    0.000 
#   27.529    0.000    0.000    0.000    0.000    0.000 
#    0.000    0.000    0.000    0.000    0.000    0.000 
#
# Total GULP energy -94793.187178 kJ/mol
# GULP energy per Si atom -5576.069834 kJ/mol
# Density = 2.168215 g / cm^3
# Si number density = 21.731612 Si / 1000 Ang^3
#
#
#
# Elastic Constant Matrix: (Units=GPa)
#
#
# Indices 1 2 3 4 5 6 
#
# 1 123.3091 82.5112 29.5585 0.0000 0.0000 0.0000
# 2 82.5112 204.1566 52.5439 0.0000 0.0000 0.0000
# 3 29.5585 52.5439 75.4106 0.0000 0.0000 0.0000
# 4 0.0000 0.0000 0.0000 14.7835 0.0000 0.0000
# 5 0.0000 0.0000 0.0000 0.0000 27.3973 0.0000
# 6 0.0000 0.0000 0.0000 0.0000 0.0000 50.6494
#
#
#
# Elastic Compliance Matrix: (Units=1/GPa)
#
#
# Indices 1 2 3 4 5 6 
#
# 1 0.011256 -0.004160 -0.001514 0.000000 0.000000 0.000000
# 2 -0.004160 0.007506 -0.003599 0.000000 0.000000 0.000000
# 3 -0.001514 -0.003599 0.016362 0.000000 0.000000 0.000000
# 4 0.000000 0.000000 0.000000 0.067643 0.000000 0.000000
# 5 0.000000 0.000000 0.000000 0.000000 0.036500 0.000000
# 6 0.000000 0.000000 0.000000 0.000000 0.000000 0.019744
#
#
# Mechanical properties :
#
#
# Convention : Reuss Voigt Hill
#
# Bulk Modulus (GPa) = 60.31954 81.34485 70.83219
# Shear Modulus (GPa) = 27.31025 34.45021 30.88023
#
# Velocity S-wave (km/s) = 3.54885 3.98585 3.77368
# Velocity P-wave (km/s) = 6.67902 7.66130 7.18696
#
# Compressibility (1/GPa) = 0.01657838
#
# Stress axis : x y z
#
# Youngs Moduli (GPa) = 88.84246 133.23262 61.11744
#
# Poissons Ratio (x) = 0.55419 0.09251
# Poissons Ratio (y) = 0.36955 0.21998
# Poissons Ratio (z) = 0.13448 0.47955
#
# Static dielectric constant tensor:
#      x y z
#    x 1.778240 0.000000 0.000000 
#    y 0.000000 1.890080 0.000000 
#    z 0.000000 0.000000 1.881170 
# 
# From -- ./inp_files/34547.got.cif
#   From: 2010.05.17/outbox.cif.g08.bks.cpg/sg21_18_cif.got.tgz:34547.got - 2010.06.03 23:14:55.
