data_PCOD9324770
_publ_section_title
;
Structure prediction by ZEFSAII (Michael W. Deem and Ramdas Pophale) SiO2 
 PCOD9324770
Probable space group: C 2 2 2
;
_chemical_formula_sum "Si O2"
_cell_formula_units_Z 64
_cell_length_a 15.128524
_cell_length_b 12.223770
_cell_length_c 15.952303
_cell_angle_alpha 90.000000
_cell_angle_beta 90.000000
_cell_angle_gamma 90.000000
_cell_volume 2950.021073
_symmetry_space_group_name_H-M "C 2 2 2"
_symmetry_group_IT_number 21
_symmetry_cell_setting 'orthorhombic'
loop_
_space_group_symop_operation_xyz
x,y,z
-x,-y,z
x,-y,-z
-x,y,-z
1/2+x,1/2+y,z
1/2-x,1/2-y,z
1/2+x,1/2-y,-z
1/2-x,1/2+y,-z
loop_
_atom_site_type_symbol
_atom_site_label
_atom_site_fract_x
_atom_site_fract_y
_atom_site_fract_z
Si Si1 0.929964 0.840368 0.844208
Si Si2 0.350113 0.265688 0.011618
Si Si3 0.604455 0.014215 0.273871
Si Si4 0.102503 0.460314 0.087756
Si Si5 0.869397 0.917507 0.156516
Si Si6 0.739988 0.629503 0.316833
Si Si7 0.402405 0.530300 0.402437
Si Si8 0.645244 0.755472 0.678322
O O1 0.898880 0.767536 0.767923
O O2 0.030844 0.874898 0.830397
O O3 0.872776 0.951722 0.839865
O O4 0.913910 0.780383 0.932359
O O5 0.250000 0.250000 0.980832
O O6 0.382836 0.170098 0.075793
O O7 0.346585 0.376450 0.064589
O O8 0.622574 0.118126 0.332891
O O9 0.500000 0.000000 0.270862
O O10 0.635940 0.011725 0.175253
O O11 0.661722 0.917123 0.311809
O O12 0.000000 0.500000 0.085722
O O13 0.143928 0.500000 0.000000
O O14 0.803734 0.865771 0.224202
O O15 0.750000 0.750000 0.354222
O O16 0.673964 0.544255 0.361711
O O17 0.500000 0.500000 0.367615
O O18 0.402653 0.500000 0.500000
O O19 0.385819 0.658217 0.382900
O O20 0.750000 0.750000 0.684721
#
# Coordination Sequence:
#
# PCOD9324770 Si02
#       8
#     8   8   8   8   8   8   8   8
#     4  11  24  39  66  94 129 186 243 300 360 412
#     4  12  25  38  58  88 132 182 235 302 360 410
#     4  11  25  42  69 108 145 194 242 291 358 423
#     4  10  23  39  56  87 129 187 240 289 344 410
#     4  11  23  41  64  94 131 180 244 301 355 424
#     4  12  25  46  73 109 145 186 237 295 362 439
#     4  11  26  50  80 111 141 186 235 289 364 440
#     4  12  23  44  73 104 146 184 236 294 350 431
#
# _framework density 21.694759000000001
#
# number of rings (size 3 to 8) (size 9 to 14) (size 15 to 20)
#    0.000    0.750    2.500    4.500   10.500    3.500 
#    0.000    0.000    0.000    0.375    0.000    0.000 
#    0.000    0.000    0.000    0.000    0.000    0.000 
#
# Total GULP energy -178825.963333 kJ/mol
# GULP energy per Si atom -5588.311354 kJ/mol
# Density = 2.164538 g / cm^3
# Si number density = 21.694759 Si / 1000 Ang^3
#
#
#
# Elastic Constant Matrix: (Units=GPa)
#
#
# Indices 1 2 3 4 5 6 
#
# 1 101.2750 11.7728 5.4782 0.0000 0.0000 0.0000
# 2 11.7728 98.7229 7.1473 0.0000 0.0000 0.0000
# 3 5.4782 7.1473 59.4438 0.0000 0.0000 0.0000
# 4 0.0000 0.0000 0.0000 19.7563 0.0000 0.0000
# 5 0.0000 0.0000 0.0000 0.0000 83.6275 0.0000
# 6 0.0000 0.0000 0.0000 0.0000 0.0000 32.7191
#
#
#
# Elastic Compliance Matrix: (Units=1/GPa)
#
#
# Indices 1 2 3 4 5 6 
#
# 1 0.010049 -0.001141 -0.000789 0.000000 0.000000 0.000000
# 2 -0.001141 0.010348 -0.001139 0.000000 0.000000 0.000000
# 3 -0.000789 -0.001139 0.017032 0.000000 0.000000 0.000000
# 4 0.000000 0.000000 0.000000 0.050617 0.000000 0.000000
# 5 0.000000 0.000000 0.000000 0.000000 0.011958 0.000000
# 6 0.000000 0.000000 0.000000 0.000000 0.000000 0.030563
#
#
# Mechanical properties :
#
#
# Convention : Reuss Voigt Hill
#
# Bulk Modulus (GPa) = 31.95787 34.24870 33.10329
# Shear Modulus (GPa) = 33.98210 42.89013 38.43612
#
# Velocity S-wave (km/s) = 3.96204 4.45115 4.21370
# Velocity P-wave (km/s) = 5.97436 6.49907 6.24223
#
# Compressibility (1/GPa) = 0.03129119
#
# Stress axis : x y z
#
# Youngs Moduli (GPa) = 99.50793 96.63770 58.71212
#
# Poissons Ratio (x) = 0.11029 0.04632
# Poissons Ratio (y) = 0.11357 0.06687
# Poissons Ratio (z) = 0.07850 0.11007
#
# Static dielectric constant tensor:
#      x y z
#    x 1.798000 0.000000 0.000000 
#    y 0.000000 1.882500 0.000000 
#    z 0.000000 0.000000 1.793000 
# 
# From -- ./inp_files/36738.got.cif
#   From: 2010.05.17/outbox.cif.g08.bks.cpg/sg21_19_cif.got.tgz:36738.got - 2010.06.03 23:14:55.
