data_PCOD9324236
_publ_section_title
;
Structure prediction by ZEFSAII (Michael W. Deem and Ramdas Pophale) SiO2 
 PCOD9324236
Probable space group: C 2 2 2
;
_chemical_formula_sum "Si O2"
_cell_formula_units_Z 34
_cell_length_a 11.057107
_cell_length_b 20.772808
_cell_length_c 7.787496
_cell_angle_alpha 90.000000
_cell_angle_beta 90.000000
_cell_angle_gamma 90.000000
_cell_volume 1788.687846
_symmetry_space_group_name_H-M "C 2 2 2"
_symmetry_group_IT_number 21
_symmetry_cell_setting 'orthorhombic'
loop_
_space_group_symop_operation_xyz
x,y,z
-x,-y,z
x,-y,-z
-x,y,-z
1/2+x,1/2+y,z
1/2-x,1/2-y,z
1/2+x,1/2-y,-z
1/2-x,1/2+y,-z
loop_
_atom_site_type_symbol
_atom_site_label
_atom_site_fract_x
_atom_site_fract_y
_atom_site_fract_z
Si Si1 0.802173 0.500000 0.500000
Si Si2 0.594098 0.837816 0.847867
Si Si3 0.381266 0.723832 0.381412
Si Si4 0.000000 0.000000 0.000000
Si Si5 0.500000 0.098323 0.500000
Si Si6 0.674026 0.588180 0.774093
O O1 0.892479 0.554085 0.427894
O O2 0.726992 0.535165 0.644743
O O3 0.609811 0.762920 0.798659
O O4 0.549276 0.863759 0.662656
O O5 0.716880 0.877683 0.880121
O O6 0.500000 0.846808 0.000000
O O7 0.500000 0.734929 0.500000
O O8 0.250000 0.750000 0.454312
O O9 0.374949 0.648289 0.337653
O O10 0.080973 0.951195 0.111725
#
# Coordination Sequence:
#
# PCOD9324236 Si02
#       6
#     4   8   8   2   4   8
#     4   9  20  39  64  88 124 163 205 258 310 386
#     4  10  21  41  70  95 125 160 210 273 323 367
#     4  10  22  44  67  96 126 166 221 270 319 384
#     4  12  28  42  54  92 136 170 216 252 312 398
#     4   9  18  38  64 100 122 153 210 256 326 381
#     4  10  25  42  61  91 131 167 212 257 316 391
#
# _framework density 19.008348000000002
#
# number of rings (size 3 to 8) (size 9 to 14) (size 15 to 20)
#    0.000    2.118    1.176    0.000    8.235    0.000 
#    4.235    0.000    0.000    0.000    0.000    0.000 
#    0.000    0.000    0.000    0.000    0.000    0.000 
#
# Total GULP energy -94684.392158 kJ/mol
# GULP energy per Si atom -5569.670127 kJ/mol
# Density = 1.896508 g / cm^3
# Si number density = 19.008348 Si / 1000 Ang^3
#
#
#
# Elastic Constant Matrix: (Units=GPa)
#
#
# Indices 1 2 3 4 5 6 
#
# 1 151.8378 65.9809 65.3708 0.0000 0.0000 0.0000
# 2 65.9809 127.2387 49.8741 0.0000 0.0000 0.0000
# 3 65.3708 49.8741 56.5919 0.0000 0.0000 0.0000
# 4 0.0000 0.0000 0.0000 8.4655 0.0000 0.0000
# 5 0.0000 0.0000 0.0000 0.0000 40.0159 0.0000
# 6 0.0000 0.0000 0.0000 0.0000 0.0000 90.9126
#
#
#
# Elastic Compliance Matrix: (Units=1/GPa)
#
#
# Indices 1 2 3 4 5 6 
#
# 1 0.013248 -0.001331 -0.014129 0.000000 0.000000 0.000000
# 2 -0.001331 0.012141 -0.009162 0.000000 0.000000 0.000000
# 3 -0.014129 -0.009162 0.042066 0.000000 0.000000 0.000000
# 4 0.000000 0.000000 0.000000 0.118127 0.000000 0.000000
# 5 0.000000 0.000000 0.000000 0.000000 0.024990 0.000000
# 6 0.000000 0.000000 0.000000 0.000000 0.000000 0.011000
#
#
# Mechanical properties :
#
#
# Convention : Reuss Voigt Hill
#
# Bulk Modulus (GPa) = 54.91701 77.56888 66.24294
# Shear Modulus (GPa) = 18.05801 38.17496 28.11649
#
# Velocity S-wave (km/s) = 3.08556 4.48630 3.85016
# Velocity P-wave (km/s) = 6.45352 8.22996 7.39527
#
# Compressibility (1/GPa) = 0.01820929
#
# Stress axis : x y z
#
# Youngs Moduli (GPa) = 75.48504 82.36705 23.77230
#
# Poissons Ratio (x) = 0.10966 0.33589
# Poissons Ratio (y) = 0.10050 0.21779
# Poissons Ratio (z) = 1.06656 0.75462
#
# Static dielectric constant tensor:
#      x y z
#    x 1.738860 0.000000 0.000000 
#    y 0.000000 1.721540 0.000000 
#    z 0.000000 0.000000 1.541460 
# 
# From -- ./inp_files/10618.got.cif
#   From: 2010.05.17/outbox.cif.g08.bks.cpg/sg21_6_cif.got.tgz:10618.got - 2010.06.03 23:14:55.
