data_PCOD9324806
_publ_section_title
;
Structure prediction by ZEFSAII (Michael W. Deem and Ramdas Pophale) SiO2 
 PCOD9324806
Probable space group: C 2 2 2
;
_chemical_formula_sum "Si O2"
_cell_formula_units_Z 48
_cell_length_a 28.369208
_cell_length_b 10.187904
_cell_length_c 8.781899
_cell_angle_alpha 90.000000
_cell_angle_beta 90.000000
_cell_angle_gamma 90.000000
_cell_volume 2538.168754
_symmetry_space_group_name_H-M "C 2 2 2"
_symmetry_group_IT_number 21
_symmetry_cell_setting 'orthorhombic'
loop_
_space_group_symop_operation_xyz
x,y,z
-x,-y,z
x,-y,-z
-x,y,-z
1/2+x,1/2+y,z
1/2-x,1/2-y,z
1/2+x,1/2-y,-z
1/2-x,1/2+y,-z
loop_
_atom_site_type_symbol
_atom_site_label
_atom_site_fract_x
_atom_site_fract_y
_atom_site_fract_z
Si Si1 0.356847 0.021961 0.181565
Si Si2 0.894067 0.749962 0.688290
Si Si3 0.088677 0.763199 0.674308
Si Si4 0.748071 0.094777 0.854681
Si Si5 0.159547 0.006240 0.318178
Si Si6 0.993460 0.843310 0.820870
O O1 0.388896 0.140822 0.238667
O O2 0.302689 0.060208 0.217374
O O3 0.374373 0.889718 0.261081
O O4 0.360019 0.000000 0.000000
O O5 0.903651 0.750547 0.506882
O O6 0.855814 0.861185 0.731600
O O7 0.942791 0.791640 0.768026
O O8 0.034589 0.777953 0.721289
O O9 0.117473 0.893584 0.722638
O O10 0.750000 0.250000 0.892712
O O11 0.792058 0.059188 0.749044
O O12 0.752345 0.000000 0.000000
O O13 0.163237 0.000000 0.500000
O O14 0.000000 0.000000 0.799552
O O15 0.000000 0.815152 0.000000
#
# Coordination Sequence:
#
# PCOD9324806 Si02
#       6
#     8   8   8   8   8   8
#     4  11  25  43  63  94 131 168 213 267 324 379
#     4  11  24  41  66  97 126 170 215 265 321 380
#     4  11  22  43  66  93 130 168 214 266 321 380
#     4  11  25  43  66  95 129 169 215 266 322 384
#     4  10  23  41  65  93 126 167 214 262 316 381
#     4  11  23  39  65  98 130 168 214 264 319 386
#
# _framework density 18.911273000000001
#
# number of rings (size 3 to 8) (size 9 to 14) (size 15 to 20)
#    0.000    1.167    3.333    2.000    4.667    4.000 
#    0.000    3.333    0.000    0.000    0.000    0.000 
#    0.000    0.000    0.000    0.000    0.000    0.000 
#
# Total GULP energy -134137.151335 kJ/mol
# GULP energy per Si atom -5589.047972 kJ/mol
# Density = 1.886823 g / cm^3
# Si number density = 18.911273 Si / 1000 Ang^3
#
#
#
# Elastic Constant Matrix: (Units=GPa)
#
#
# Indices 1 2 3 4 5 6 
#
# 1 112.9782 47.2763 30.5087 0.0000 0.0000 0.0000
# 2 47.2763 128.5668 30.1808 0.0000 0.0000 0.0000
# 3 30.5087 30.1808 47.6569 0.0000 0.0000 0.0000
# 4 0.0000 0.0000 0.0000 23.4895 0.0000 0.0000
# 5 0.0000 0.0000 0.0000 0.0000 39.4158 0.0000
# 6 0.0000 0.0000 0.0000 0.0000 0.0000 32.8067
#
#
#
# Elastic Compliance Matrix: (Units=1/GPa)
#
#
# Indices 1 2 3 4 5 6 
#
# 1 0.011586 -0.002959 -0.005543 0.000000 0.000000 0.000000
# 2 -0.002959 0.009892 -0.004370 0.000000 0.000000 0.000000
# 3 -0.005543 -0.004370 0.027300 0.000000 0.000000 0.000000
# 4 0.000000 0.000000 0.000000 0.042572 0.000000 0.000000
# 5 0.000000 0.000000 0.000000 0.000000 0.025371 0.000000
# 6 0.000000 0.000000 0.000000 0.000000 0.000000 0.030482
#
#
# Mechanical properties :
#
#
# Convention : Reuss Voigt Hill
#
# Bulk Modulus (GPa) = 43.41644 56.12594 49.77119
# Shear Modulus (GPa) = 27.68158 31.22481 29.45320
#
# Velocity S-wave (km/s) = 3.83006 4.06781 3.95072
# Velocity P-wave (km/s) = 6.52434 7.19762 6.86923
#
# Compressibility (1/GPa) = 0.02303275
#
# Stress axis : x y z
#
# Youngs Moduli (GPa) = 86.30738 101.09049 36.63066
#
# Poissons Ratio (x) = 0.29916 0.20305
# Poissons Ratio (y) = 0.25541 0.16008
# Poissons Ratio (z) = 0.47842 0.44178
#
# Static dielectric constant tensor:
#      x y z
#    x 1.637130 0.000000 0.000000 
#    y 0.000000 1.634110 0.000000 
#    z 0.000000 0.000000 1.643650 
# 
# From -- ./inp_files/11513.got.cif
#   From: 2010.05.17/outbox.cif.g08.bks.cpg/sg21_6_cif.got.tgz:11513.got - 2010.06.03 23:14:55.
