data_PCOD9324586
_publ_section_title
;
Structure prediction by ZEFSAII (Michael W. Deem and Ramdas Pophale) SiO2 
 PCOD9324586
Probable space group: C 2 2 2
;
_chemical_formula_sum "Si O2"
_cell_formula_units_Z 30
_cell_length_a 7.432059
_cell_length_b 17.758739
_cell_length_c 10.063819
_cell_angle_alpha 90.000000
_cell_angle_beta 90.000000
_cell_angle_gamma 90.000000
_cell_volume 1328.263047
_symmetry_space_group_name_H-M "C 2 2 2"
_symmetry_group_IT_number 21
_symmetry_cell_setting 'orthorhombic'
loop_
_space_group_symop_operation_xyz
x,y,z
-x,-y,z
x,-y,-z
-x,y,-z
1/2+x,1/2+y,z
1/2-x,1/2-y,z
1/2+x,1/2-y,-z
1/2-x,1/2+y,-z
loop_
_atom_site_type_symbol
_atom_site_label
_atom_site_fract_x
_atom_site_fract_y
_atom_site_fract_z
Si Si1 0.000000 0.500000 0.000000
Si Si2 0.421103 0.884967 0.786731
Si Si3 0.577599 0.583923 0.357524
Si Si4 0.750000 0.750000 0.067279
Si Si5 0.198039 0.830170 0.198459
O O1 0.887793 0.554659 0.096221
O O2 0.290632 0.906789 0.665878
O O3 0.379859 0.800647 0.842013
O O4 0.635857 0.885038 0.766583
O O5 0.500000 0.500000 0.338184
O O6 0.500000 0.608276 0.500000
O O7 0.486474 0.636743 0.248603
O O8 0.813556 0.811475 0.957831
O O9 0.250000 0.750000 0.263207
#
# Coordination Sequence:
#
# PCOD9324586 Si02
#       5
#     2   8   8   4   8
#     4  12  20  40  66 114 132 172 236 278 366 420
#     4  12  23  41  70  99 143 177 221 297 349 418
#     4  11  27  47  65  97 141 191 242 281 337 416
#     4  10  22  42  66 100 142 162 216 288 360 418
#     4  10  22  44  66 102 134 176 227 282 357 415
#
# _framework density 22.585885999999999
#
# number of rings (size 3 to 8) (size 9 to 14) (size 15 to 20)
#    0.800    0.267    2.667    3.200    3.733    1.067 
#    7.200    2.667    0.000    0.000    0.000    0.000 
#    0.000    0.000    0.000    0.000    0.000    0.000 
#
# Total GULP energy -83691.175209 kJ/mol
# GULP energy per Si atom -5579.411681 kJ/mol
# Density = 2.253448 g / cm^3
# Si number density = 22.585886 Si / 1000 Ang^3
#
#
#
# Elastic Constant Matrix: (Units=GPa)
#
#
# Indices 1 2 3 4 5 6 
#
# 1 103.7305 4.2865 13.2539 0.0000 0.0000 0.0000
# 2 4.2865 73.6889 8.5447 0.0000 0.0000 0.0000
# 3 13.2539 8.5447 65.7222 0.0000 0.0000 0.0000
# 4 0.0000 0.0000 0.0000 18.7460 0.0000 0.0000
# 5 0.0000 0.0000 0.0000 0.0000 32.9435 0.0000
# 6 0.0000 0.0000 0.0000 0.0000 0.0000 35.3517
#
#
#
# Elastic Compliance Matrix: (Units=1/GPa)
#
#
# Indices 1 2 3 4 5 6 
#
# 1 0.009904 -0.000350 -0.001952 0.000000 0.000000 0.000000
# 2 -0.000350 0.013791 -0.001722 0.000000 0.000000 0.000000
# 3 -0.001952 -0.001722 0.015833 0.000000 0.000000 0.000000
# 4 0.000000 0.000000 0.000000 0.053345 0.000000 0.000000
# 5 0.000000 0.000000 0.000000 0.000000 0.030355 0.000000
# 6 0.000000 0.000000 0.000000 0.000000 0.000000 0.028287
#
#
# Mechanical properties :
#
#
# Convention : Reuss Voigt Hill
#
# Bulk Modulus (GPa) = 31.76636 32.81241 32.28939
# Shear Modulus (GPa) = 29.40205 31.87869 30.64037
#
# Velocity S-wave (km/s) = 3.61195 3.76099 3.68722
# Velocity P-wave (km/s) = 5.61160 5.78096 5.69691
#
# Compressibility (1/GPa) = 0.03147984
#
# Stress axis : x y z
#
# Youngs Moduli (GPa) = 100.96714 72.51297 63.15873
#
# Poissons Ratio (x) = 0.02536 0.12328
# Poissons Ratio (y) = 0.03532 0.10879
# Poissons Ratio (z) = 0.19707 0.12490
#
# Static dielectric constant tensor:
#      x y z
#    x 1.928380 0.000000 0.000000 
#    y 0.000000 1.859320 0.000000 
#    z 0.000000 0.000000 1.835360 
# 
# From -- ./inp_files/22126.got.cif
#   From: 2010.05.17/outbox.cif.g08.bks.cpg/sg21_12_cif.got.tgz:22126.got - 2010.06.03 23:14:55.
