data_PCOD9324287
_publ_section_title
;
Structure prediction by ZEFSAII (Michael W. Deem and Ramdas Pophale) SiO2 
 PCOD9324287
Probable space group: C 2 2 2
;
_chemical_formula_sum "Si O2"
_cell_formula_units_Z 22
_cell_length_a 7.262406
_cell_length_b 14.798259
_cell_length_c 8.418785
_cell_angle_alpha 90.000000
_cell_angle_beta 90.000000
_cell_angle_gamma 90.000000
_cell_volume 904.774948
_symmetry_space_group_name_H-M "C 2 2 2"
_symmetry_group_IT_number 21
_symmetry_cell_setting 'orthorhombic'
loop_
_space_group_symop_operation_xyz
x,y,z
-x,-y,z
x,-y,-z
-x,y,-z
1/2+x,1/2+y,z
1/2-x,1/2-y,z
1/2+x,1/2-y,-z
1/2-x,1/2+y,-z
loop_
_atom_site_type_symbol
_atom_site_label
_atom_site_fract_x
_atom_site_fract_y
_atom_site_fract_z
Si Si1 0.840290 0.574241 0.190752
Si Si2 0.750000 0.250000 0.265455
Si Si3 0.000000 0.632458 0.500000
Si Si4 0.500000 0.500000 0.000000
Si Si5 0.500000 0.757943 0.000000
O O1 0.859109 0.583785 0.380442
O O2 0.885333 0.670115 0.107151
O O3 0.000000 0.500000 0.156939
O O4 0.646682 0.545267 0.120736
O O5 0.629144 0.188107 0.379104
O O6 0.612728 0.295349 0.135399
#
# Coordination Sequence:
#
# PCOD9324287 Si02
#       5
#     8   4   4   2   4
#     4  11  22  45  69 106 139 181 227 307 345 409
#     4  10  24  42  68 100 132 196 218 284 348 406
#     4  10  25  46  68  96 157 172 232 294 352 416
#     4  12  22  38  82 102 126 186 250 256 378 412
#     4  10  21  43  70  94 144 170 240 286 330 418
#
# _framework density 24.315439999999999
#
# number of rings (size 3 to 8) (size 9 to 14) (size 15 to 20)
#    0.000    1.455    3.636    0.545    0.000   10.182 
#    0.000    1.818    0.000    0.000    0.000    0.000 
#    0.000    0.000    0.000    0.000    0.000    0.000 
#
# Total GULP energy -61348.632040 kJ/mol
# GULP energy per Si atom -5577.148367 kJ/mol
# Density = 2.426010 g / cm^3
# Si number density = 24.315440 Si / 1000 Ang^3
#
#
#
# Elastic Constant Matrix: (Units=GPa)
#
#
# Indices 1 2 3 4 5 6 
#
# 1 185.8360 55.6123 106.5738 0.0000 0.0000 0.0000
# 2 55.6123 59.5296 52.9516 0.0000 0.0000 0.0000
# 3 106.5738 52.9516 278.2146 0.0000 0.0000 0.0000
# 4 0.0000 0.0000 0.0000 33.6190 0.0000 0.0000
# 5 0.0000 0.0000 0.0000 0.0000 70.8496 0.0000
# 6 0.0000 0.0000 0.0000 0.0000 0.0000 26.6101
#
#
#
# Elastic Compliance Matrix: (Units=1/GPa)
#
#
# Indices 1 2 3 4 5 6 
#
# 1 0.008349 -0.005965 -0.002063 0.000000 0.000000 0.000000
# 2 -0.005965 0.024483 -0.002375 0.000000 0.000000 0.000000
# 3 -0.002063 -0.002375 0.004837 0.000000 0.000000 0.000000
# 4 0.000000 0.000000 0.000000 0.029745 0.000000 0.000000
# 5 0.000000 0.000000 0.000000 0.000000 0.014114 0.000000
# 6 0.000000 0.000000 0.000000 0.000000 0.000000 0.037580
#
#
# Mechanical properties :
#
#
# Convention : Reuss Voigt Hill
#
# Bulk Modulus (GPa) = 59.29942 105.98394 82.64168
# Shear Modulus (GPa) = 34.35610 46.77856 40.56733
#
# Velocity S-wave (km/s) = 3.76298 4.39090 4.08901
# Velocity P-wave (km/s) = 6.58183 8.32997 7.50696
#
# Compressibility (1/GPa) = 0.01686357
#
# Stress axis : x y z
#
# Youngs Moduli (GPa) = 119.77263 40.84461 206.75581
#
# Poissons Ratio (x) = 0.24363 0.42654
# Poissons Ratio (y) = 0.71441 0.49103
# Poissons Ratio (z) = 0.24709 0.09700
#
# Static dielectric constant tensor:
#      x y z
#    x 2.020600 0.000000 0.000000 
#    y 0.000000 2.068870 0.000000 
#    z 0.000000 0.000000 1.906720 
# 
# From -- ./inp_files/9848.got.cif
#   From: 2010.05.17/outbox.cif.g08.bks.cpg/sg21_5_cif.got.tgz:9848.got - 2010.06.03 23:14:55.
