data_PCOD9324892
_publ_section_title
;
Structure prediction by ZEFSAII (Michael W. Deem and Ramdas Pophale) SiO2 
 PCOD9324892
Probable space group: C 2 2 2
;
_chemical_formula_sum "Si O2"
_cell_formula_units_Z 22
_cell_length_a 4.994993
_cell_length_b 31.451403
_cell_length_c 6.044361
_cell_angle_alpha 90.000000
_cell_angle_beta 90.000000
_cell_angle_gamma 90.000000
_cell_volume 949.566320
_symmetry_space_group_name_H-M "C 2 2 2"
_symmetry_group_IT_number 21
_symmetry_cell_setting 'orthorhombic'
loop_
_space_group_symop_operation_xyz
x,y,z
-x,-y,z
x,-y,-z
-x,y,-z
1/2+x,1/2+y,z
1/2-x,1/2-y,z
1/2+x,1/2-y,-z
1/2-x,1/2+y,-z
loop_
_atom_site_type_symbol
_atom_site_label
_atom_site_fract_x
_atom_site_fract_y
_atom_site_fract_z
Si Si1 0.500000 0.776147 0.500000
Si Si2 0.751521 0.063674 0.164204
Si Si3 0.248856 0.658310 0.160623
Si Si4 0.000000 0.000000 0.500000
O O1 0.250000 0.750000 0.607430
O O2 0.331772 0.805439 0.331747
O O3 0.765162 0.111295 0.266773
O O4 0.807855 0.029142 0.350042
O O5 0.500000 0.057613 0.000000
O O6 0.000000 0.061358 0.000000
O O7 0.500000 0.666922 0.000000
O O8 0.000000 0.654575 0.000000
#
# Coordination Sequence:
#
# PCOD9324892 Si02
#       4
#     4   8   8   2
#     4  12  26  43  72 109 136 173 236 289 344 422
#     4  10  25  46  69 103 140 184 239 281 338 421
#     4  10  23  46  71  97 140 187 226 280 347 413
#     4  12  26  44  76 104 144 186 226 300 352 380
#
# _framework density 23.168469000000002
#
# number of rings (size 3 to 8) (size 9 to 14) (size 15 to 20)
#    0.000    1.455    0.000    2.727    0.000   18.909 
#    0.000    3.636    0.000    0.000    0.000    0.000 
#    0.000    0.000    0.000    0.000    0.000    0.000 
#
# Total GULP energy -61503.125967 kJ/mol
# GULP energy per Si atom -5591.193270 kJ/mol
# Density = 2.311574 g / cm^3
# Si number density = 23.168469 Si / 1000 Ang^3
#
#
#
# Elastic Constant Matrix: (Units=GPa)
#
#
# Indices 1 2 3 4 5 6 
#
# 1 212.0400 70.9902 46.2937 0.0000 0.0000 0.0000
# 2 70.9902 158.0782 81.1877 0.0000 0.0000 0.0000
# 3 46.2937 81.1877 62.7763 0.0000 0.0000 0.0000
# 4 0.0000 0.0000 0.0000 49.7821 0.0000 0.0000
# 5 0.0000 0.0000 0.0000 0.0000 35.8975 0.0000
# 6 0.0000 0.0000 0.0000 0.0000 0.0000 66.2673
#
#
#
# Elastic Compliance Matrix: (Units=1/GPa)
#
#
# Indices 1 2 3 4 5 6 
#
# 1 0.005696 -0.001193 -0.002657 0.000000 0.000000 0.000000
# 2 -0.001193 0.019090 -0.023808 0.000000 0.000000 0.000000
# 3 -0.002657 -0.023808 0.048680 0.000000 0.000000 0.000000
# 4 0.000000 0.000000 0.000000 0.020088 0.000000 0.000000
# 5 0.000000 0.000000 0.000000 0.000000 0.027857 0.000000
# 6 0.000000 0.000000 0.000000 0.000000 0.000000 0.015090
#
#
# Mechanical properties :
#
#
# Convention : Reuss Voigt Hill
#
# Bulk Modulus (GPa) = 55.10249 92.20418 73.65333
# Shear Modulus (GPa) = 25.26945 46.01758 35.64352
#
# Velocity S-wave (km/s) = 3.30613 4.46153 3.92656
# Velocity P-wave (km/s) = 6.19750 8.15009 7.23993
#
# Compressibility (1/GPa) = 0.01814800
#
# Stress axis : x y z
#
# Youngs Moduli (GPa) = 175.57196 52.38442 20.54224
#
# Poissons Ratio (x) = 0.06250 0.05458
# Poissons Ratio (y) = 0.20948 0.48908
# Poissons Ratio (z) = 0.46652 1.24719
#
# Static dielectric constant tensor:
#      x y z
#    x 1.818980 0.000000 0.000000 
#    y 0.000000 2.060510 0.000000 
#    z 0.000000 0.000000 1.744900 
# 
# From -- ./inp_files/774.got.cif
#   From: 2010.05.17/outbox.cif.g08.bks.cpg/sg21_1_cif.got.tgz:774.got - 2010.06.03 23:14:55.
