data_PCOD9324514
_publ_section_title
;
Structure prediction by ZEFSAII (Michael W. Deem and Ramdas Pophale) SiO2 
 PCOD9324514
Probable space group: C 2 2 2
;
_chemical_formula_sum "Si O2"
_cell_formula_units_Z 30
_cell_length_a 23.392558
_cell_length_b 11.363947
_cell_length_c 4.905487
_cell_angle_alpha 90.000000
_cell_angle_beta 90.000000
_cell_angle_gamma 90.000000
_cell_volume 1304.034387
_symmetry_space_group_name_H-M "C 2 2 2"
_symmetry_group_IT_number 21
_symmetry_cell_setting 'orthorhombic'
loop_
_space_group_symop_operation_xyz
x,y,z
-x,-y,z
x,-y,-z
-x,y,-z
1/2+x,1/2+y,z
1/2-x,1/2-y,z
1/2+x,1/2-y,-z
1/2-x,1/2+y,-z
loop_
_atom_site_type_symbol
_atom_site_label
_atom_site_fract_x
_atom_site_fract_y
_atom_site_fract_z
Si Si1 0.717684 0.500000 0.500000
Si Si2 0.876346 0.751581 0.933632
Si Si3 0.250000 0.750000 0.289882
Si Si4 0.440258 0.175586 0.432438
Si Si5 0.134847 0.000000 0.000000
Si Si6 0.500000 0.000000 0.000000
O O1 0.750447 0.377335 0.441393
O O2 0.677081 0.530539 0.246964
O O3 0.809121 0.749665 0.877015
O O4 0.908946 0.665158 0.724043
O O5 0.891665 0.730153 0.245129
O O6 0.897937 0.885704 0.893128
O O7 0.500000 0.240975 0.500000
O O8 0.463763 0.075740 0.222657
#
# Coordination Sequence:
#
# PCOD9324514 Si02
#       6
#     4   8   4   8   4   2
#     4  10  22  40  68  98 158 196 244 310 376 462
#     4  11  24  43  73 102 147 194 248 311 378 462
#     4  10  24  44  70 114 148 196 260 308 388 468
#     4  12  25  45  71 103 140 198 242 305 384 440
#     4  10  22  44  66 102 144 197 225 320 390 424
#     4  12  26  48  76 102 162 186 250 336 380 438
#
# _framework density 23.00553
#
# number of rings (size 3 to 8) (size 9 to 14) (size 15 to 20)
#    0.000    1.067    2.667    3.600    0.000   11.733 
#    0.000    5.333    0.000    0.000    0.000    0.000 
#    0.000    0.000    0.000    0.000    0.000    0.000 
#
# Total GULP energy -83510.814974 kJ/mol
# GULP energy per Si atom -5567.387665 kJ/mol
# Density = 2.295317 g / cm^3
# Si number density = 23.005530 Si / 1000 Ang^3
#
#
#
# Elastic Constant Matrix: (Units=GPa)
#
#
# Indices 1 2 3 4 5 6 
#
# 1 85.7151 14.8109 35.2428 0.0000 0.0000 0.0000
# 2 14.8109 132.3456 26.1256 0.0000 0.0000 0.0000
# 3 35.2428 26.1256 150.7037 0.0000 0.0000 0.0000
# 4 0.0000 0.0000 0.0000 31.7094 0.0000 0.0000
# 5 0.0000 0.0000 0.0000 0.0000 57.4577 0.0000
# 6 0.0000 0.0000 0.0000 0.0000 0.0000 29.0081
#
#
#
# Elastic Compliance Matrix: (Units=1/GPa)
#
#
# Indices 1 2 3 4 5 6 
#
# 1 0.013007 -0.000885 -0.002888 0.000000 0.000000 0.000000
# 2 -0.000885 0.007884 -0.001160 0.000000 0.000000 0.000000
# 3 -0.002888 -0.001160 0.007512 0.000000 0.000000 0.000000
# 4 0.000000 0.000000 0.000000 0.031536 0.000000 0.000000
# 5 0.000000 0.000000 0.000000 0.000000 0.017404 0.000000
# 6 0.000000 0.000000 0.000000 0.000000 0.000000 0.034473
#
#
# Mechanical properties :
#
#
# Convention : Reuss Voigt Hill
#
# Bulk Modulus (GPa) = 53.94830 57.90255 55.92543
# Shear Modulus (GPa) = 39.10456 43.14072 41.12264
#
# Velocity S-wave (km/s) = 4.12732 4.33509 4.23248
# Velocity P-wave (km/s) = 6.79810 7.09091 6.94605
#
# Compressibility (1/GPa) = 0.01853627
#
# Stress axis : x y z
#
# Youngs Moduli (GPa) = 76.88107 126.83929 133.12012
#
# Poissons Ratio (x) = 0.11231 0.38449
# Poissons Ratio (y) = 0.06808 0.15438
# Poissons Ratio (z) = 0.22205 0.14709
#
# Static dielectric constant tensor:
#      x y z
#    x 1.831540 0.000000 0.000000 
#    y 0.000000 2.012940 0.000000 
#    z 0.000000 0.000000 1.777810 
# 
# From -- ./inp_files/5637.got.cif
#   From: 2010.05.17/outbox.cif.g08.bks.cpg/sg21_3_cif.got.tgz:5637.got - 2010.06.03 23:14:55.
