data_PCOD9324836
_publ_section_title
;
Structure prediction by ZEFSAII (Michael W. Deem and Ramdas Pophale) SiO2 
 PCOD9324836
Probable space group: C 2 2 2
;
_chemical_formula_sum "Si O2"
_cell_formula_units_Z 24
_cell_length_a 12.601249
_cell_length_b 17.367098
_cell_length_c 5.235634
_cell_angle_alpha 90.000000
_cell_angle_beta 90.000000
_cell_angle_gamma 90.000000
_cell_volume 1145.803455
_symmetry_space_group_name_H-M "C 2 2 2"
_symmetry_group_IT_number 21
_symmetry_cell_setting 'orthorhombic'
loop_
_space_group_symop_operation_xyz
x,y,z
-x,-y,z
x,-y,-z
-x,y,-z
1/2+x,1/2+y,z
1/2-x,1/2-y,z
1/2+x,1/2-y,-z
1/2-x,1/2+y,-z
loop_
_atom_site_type_symbol
_atom_site_label
_atom_site_fract_x
_atom_site_fract_y
_atom_site_fract_z
Si Si1 0.000000 0.000000 0.500000
Si Si2 0.250000 0.250000 0.073285
Si Si3 0.500000 0.000000 0.000000
Si Si4 0.316264 0.603025 0.678030
Si Si5 0.317311 0.101667 0.836343
O O1 0.075392 0.943693 0.662159
O O2 0.321336 0.306444 0.248383
O O3 0.321305 0.193364 0.899690
O O4 0.573023 0.943598 0.830420
O O5 0.254348 0.592525 0.412835
O O6 0.243194 0.573915 0.908015
#
# Coordination Sequence:
#
# PCOD9324836 Si02
#       5
#     2   4   2   8   8
#     4  12  24  42  72  96 124 172 220 254 328 372
#     4   8  22  48  62  88 140 162 206 272 314 364
#     4  12  24  42  72  96 124 172 220 254 328 372
#     4  10  23  43  66  94 130 166 210 268 310 380
#     4  10  23  43  66  94 130 166 210 268 310 380
#
# _framework density 20.946000999999999
#
# number of rings (size 3 to 8) (size 9 to 14) (size 15 to 20)
#    2.000    0.000    0.000    3.000    0.000    5.333 
#   12.000    0.000    0.000    0.000    0.000    0.000 
#    0.000    0.000    0.000    0.000    0.000    0.000 
#
# Total GULP energy -66847.588210 kJ/mol
# GULP energy per Si atom -5570.632351 kJ/mol
# Density = 2.089833 g / cm^3
# Si number density = 20.946001 Si / 1000 Ang^3
#
#
#
# Elastic Constant Matrix: (Units=GPa)
#
#
# Indices 1 2 3 4 5 6 
#
# 1 103.8812 76.4222 46.7998 0.0000 0.0000 0.0000
# 2 76.4222 163.7740 31.4501 0.0000 0.0000 0.0000
# 3 46.7998 31.4501 137.3264 0.0000 0.0000 0.0000
# 4 0.0000 0.0000 0.0000 24.1178 0.0000 0.0000
# 5 0.0000 0.0000 0.0000 0.0000 29.5165 0.0000
# 6 0.0000 0.0000 0.0000 0.0000 0.0000 33.9254
#
#
#
# Elastic Compliance Matrix: (Units=1/GPa)
#
#
# Indices 1 2 3 4 5 6 
#
# 1 0.016567 -0.006952 -0.004054 0.000000 0.000000 0.000000
# 2 -0.006952 0.009304 0.000238 0.000000 0.000000 0.000000
# 3 -0.004054 0.000238 0.008609 0.000000 0.000000 0.000000
# 4 0.000000 0.000000 0.000000 0.041463 0.000000 0.000000
# 5 0.000000 0.000000 0.000000 0.000000 0.033879 0.000000
# 6 0.000000 0.000000 0.000000 0.000000 0.000000 0.029476
#
#
# Mechanical properties :
#
#
# Convention : Reuss Voigt Hill
#
# Bulk Modulus (GPa) = 77.24950 79.36954 78.30952
# Shear Modulus (GPa) = 30.27553 34.19926 32.23739
#
# Velocity S-wave (km/s) = 3.80598 4.04509 3.92736
# Velocity P-wave (km/s) = 7.50162 7.73251 7.61794
#
# Compressibility (1/GPa) = 0.01294507
#
# Stress axis : x y z
#
# Youngs Moduli (GPa) = 60.35979 107.47621 116.16000
#
# Poissons Ratio (x) = 0.74722 0.47089
# Poissons Ratio (y) = 0.41964 -0.02770
# Poissons Ratio (z) = 0.24469 -0.02563
#
# Static dielectric constant tensor:
#      x y z
#    x 1.741110 0.000000 0.000000 
#    y 0.000000 1.870030 0.000000 
#    z 0.000000 0.000000 1.704240 
# 
# From -- ./inp_files/2226.got.cif
#   From: 2010.05.17/outbox.cif.g08.bks.cpg/sg21_2_cif.got.tgz:2226.got - 2010.06.03 23:14:55.
