data_PCOD9324088
_publ_section_title
;
Structure prediction by ZEFSAII (Michael W. Deem and Ramdas Pophale) SiO2 
 PCOD9324088
Probable space group: C 2 2 2
;
_chemical_formula_sum "Si O2"
_cell_formula_units_Z 26
_cell_length_a 19.152011
_cell_length_b 9.057329
_cell_length_c 7.609005
_cell_angle_alpha 90.000000
_cell_angle_beta 90.000000
_cell_angle_gamma 90.000000
_cell_volume 1319.904153
_symmetry_space_group_name_H-M "C 2 2 2"
_symmetry_group_IT_number 21
_symmetry_cell_setting 'orthorhombic'
loop_
_space_group_symop_operation_xyz
x,y,z
-x,-y,z
x,-y,-z
-x,y,-z
1/2+x,1/2+y,z
1/2-x,1/2-y,z
1/2+x,1/2-y,-z
1/2-x,1/2+y,-z
loop_
_atom_site_type_symbol
_atom_site_label
_atom_site_fract_x
_atom_site_fract_y
_atom_site_fract_z
Si Si1 0.675460 0.187259 0.304285
Si Si2 0.500000 0.000000 0.500000
Si Si3 0.370885 0.856437 0.684795
Si Si4 0.417791 0.324310 0.987183
O O1 0.750000 0.250000 0.249373
O O2 0.663917 0.213964 0.512160
O O3 0.668098 0.011040 0.276743
O O4 0.614988 0.264065 0.192267
O O5 0.448442 0.903709 0.619879
O O6 0.377529 0.754067 0.852638
O O7 0.410207 0.500000 0.000000
O O8 0.500000 0.288245 0.000000
#
# Coordination Sequence:
#
# PCOD9324088 Si02
#       4
#     8   2   8   8
#     4  10  23  40  61  89 117 157 207 250 300 358
#     4   8  16  36  66  90 108 154 208 244 298 360
#     4  10  21  39  64  87 119 158 200 251 301 356
#     4  11  24  39  60  92 126 161 201 248 300 354
#
# _framework density 19.698399999999999
#
# number of rings (size 3 to 8) (size 9 to 14) (size 15 to 20)
#    0.000    2.154    0.000    4.615    0.000   11.077 
#    0.000    3.077    0.000    0.000    0.000    0.000 
#    0.000    0.000    0.000    0.000    0.000    0.000 
#
# Total GULP energy -72635.368190 kJ/mol
# GULP energy per Si atom -5587.336015 kJ/mol
# Density = 1.965357 g / cm^3
# Si number density = 19.698400 Si / 1000 Ang^3
#
#
#
# Elastic Constant Matrix: (Units=GPa)
#
#
# Indices 1 2 3 4 5 6 
#
# 1 115.8275 48.1263 31.8644 0.0000 0.0000 0.0000
# 2 48.1263 77.1115 68.2750 0.0000 0.0000 0.0000
# 3 31.8644 68.2750 98.6102 0.0000 0.0000 0.0000
# 4 0.0000 0.0000 0.0000 22.9827 0.0000 0.0000
# 5 0.0000 0.0000 0.0000 0.0000 16.1867 0.0000
# 6 0.0000 0.0000 0.0000 0.0000 0.0000 -19.3666
#
#
#
# Elastic Compliance Matrix: (Units=1/GPa)
#
#
# Indices 1 2 3 4 5 6 
#
# 1 0.012082 -0.010554 0.003403 0.000000 0.000000 0.000000
# 2 -0.010554 0.042731 -0.026175 0.000000 0.000000 0.000000
# 3 0.003403 -0.026175 0.027164 0.000000 0.000000 0.000000
# 4 0.000000 0.000000 0.000000 0.043511 0.000000 0.000000
# 5 0.000000 0.000000 0.000000 0.000000 0.061779 0.000000
# 6 0.000000 0.000000 0.000000 0.000000 0.000000 -0.051635
#
#
# Mechanical properties :
#
#
# Convention : Reuss Voigt Hill
#
# Bulk Modulus (GPa) = 65.25182 65.34229 65.29705
# Shear Modulus (GPa) = 24.10878 13.51280 18.81079
#
# Velocity S-wave (km/s) = 3.50222 2.62197 3.09356
# Velocity P-wave (km/s) = 7.03927 6.51227 6.78090
#
# Compressibility (1/GPa) = 0.01532524
#
# Stress axis : x y z
#
# Youngs Moduli (GPa) = 82.76441 23.40230 36.81280
#
# Poissons Ratio (x) = 0.24698 -0.12527
# Poissons Ratio (y) = 0.87348 0.96359
# Poissons Ratio (z) = -0.28164 0.61256
#
# Static dielectric constant tensor:
#      x y z
#    x 1.703640 0.000000 0.000000 
#    y 0.000000 1.673060 0.000000 
#    z 0.000000 0.000000 1.685000 
# 
# From -- ./inp_files/15862.got.cif
#   From: 2010.05.17/outbox.cif.g08.bks.cpg/sg21_8_cif.got.tgz:15862.got - 2010.06.03 23:14:55.
