data_PCOD9324207
_publ_section_title
;
Structure prediction by ZEFSAII (Michael W. Deem and Ramdas Pophale) SiO2 
 PCOD9324207
Probable space group: C 2 2 2
;
_chemical_formula_sum "Si O2"
_cell_formula_units_Z 40
_cell_length_a 12.257733
_cell_length_b 8.365537
_cell_length_c 17.695928
_cell_angle_alpha 90.000000
_cell_angle_beta 90.000000
_cell_angle_gamma 90.000000
_cell_volume 1814.585032
_symmetry_space_group_name_H-M "C 2 2 2"
_symmetry_group_IT_number 21
_symmetry_cell_setting 'orthorhombic'
loop_
_space_group_symop_operation_xyz
x,y,z
-x,-y,z
x,-y,-z
-x,y,-z
1/2+x,1/2+y,z
1/2-x,1/2-y,z
1/2+x,1/2-y,-z
1/2-x,1/2+y,-z
loop_
_atom_site_type_symbol
_atom_site_label
_atom_site_fract_x
_atom_site_fract_y
_atom_site_fract_z
Si Si1 0.686790 0.390626 0.298899
Si Si2 0.127717 0.812427 0.792402
Si Si3 0.496340 0.183953 0.343388
Si Si4 0.377256 0.682919 0.971854
Si Si5 0.676688 0.609686 0.431947
O O1 0.750000 0.250000 0.255036
O O2 0.626921 0.507892 0.240918
O O3 0.609466 0.275598 0.346962
O O4 0.734142 0.510586 0.363155
O O5 0.250000 0.750000 0.777299
O O6 0.047137 0.703803 0.742774
O O7 0.110935 0.808614 0.881271
O O8 0.419318 0.295053 0.392471
O O9 0.500000 0.000000 0.365298
O O10 0.250000 0.750000 0.988878
O O11 0.373335 0.500000 0.000000
O O12 0.500000 0.746491 0.000000
O O13 0.641867 0.500000 0.500000
O O14 0.750000 0.750000 0.464513
#
# Coordination Sequence:
#
# PCOD9324207 Si02
#       5
#     8   8   8   8   8
#     4  11  22  38  65  95 125 168 220 271 332 395
#     4  10  21  41  63  94 130 174 222 282 334 406
#     4  11  23  40  64  96 128 167 220 274 325 399
#     4  10  24  44  68  99 145 187 235 292 362 431
#     4  11  23  41  63  90 129 166 212 267 334 396
#
# _framework density 22.043607999999999
#
# number of rings (size 3 to 8) (size 9 to 14) (size 15 to 20)
#    0.000    1.400    0.000    7.800    5.600    2.800 
#    7.200    1.000    0.000    0.000    0.000    0.000 
#    0.000    0.000    0.000    0.000    0.000    0.000 
#
# Total GULP energy -111413.269572 kJ/mol
# GULP energy per Si atom -5570.663479 kJ/mol
# Density = 2.199344 g / cm^3
# Si number density = 22.043608 Si / 1000 Ang^3
#
#
#
# Elastic Constant Matrix: (Units=GPa)
#
#
# Indices 1 2 3 4 5 6 
#
# 1 70.6978 36.2387 15.4375 0.0000 0.0000 0.0000
# 2 36.2387 121.8011 29.7874 0.0000 0.0000 0.0000
# 3 15.4375 29.7874 96.9387 0.0000 0.0000 0.0000
# 4 0.0000 0.0000 0.0000 21.4136 0.0000 0.0000
# 5 0.0000 0.0000 0.0000 0.0000 -3.1770 0.0000
# 6 0.0000 0.0000 0.0000 0.0000 0.0000 38.2307
#
#
#
# Elastic Compliance Matrix: (Units=1/GPa)
#
#
# Indices 1 2 3 4 5 6 
#
# 1 0.016825 -0.004704 -0.001234 0.000000 0.000000 0.000000
# 2 -0.004704 0.010192 -0.002383 0.000000 0.000000 0.000000
# 3 -0.001234 -0.002383 0.011244 0.000000 0.000000 0.000000
# 4 0.000000 0.000000 0.000000 0.046699 0.000000 0.000000
# 5 0.000000 0.000000 0.000000 0.000000 -0.314759 0.000000
# 6 0.000000 0.000000 0.000000 0.000000 0.000000 0.026157
#
#
# Mechanical properties :
#
#
# Convention : Reuss Voigt Hill
#
# Bulk Modulus (GPa) = 46.25239 50.26276 48.25758
# Shear Modulus (GPa) = -27.80990 25.15839 -1.32576
#
# Velocity S-wave (km/s) = -3.55573 3.38198 -0.77636
# Velocity P-wave (km/s) = 2.04208 6.17263 4.59736
#
# Compressibility (1/GPa) = 0.02162051
#
# Stress axis : x y z
#
# Youngs Moduli (GPa) = 59.43376 98.11190 88.93237
#
# Poissons Ratio (x) = 0.46154 0.10974
# Poissons Ratio (y) = 0.27959 0.21191
# Poissons Ratio (z) = 0.07334 0.23378
#
# Static dielectric constant tensor:
#      x y z
#    x 0.404330 0.000000 0.000000 
#    y 0.000000 1.868680 0.000000 
#    z 0.000000 0.000000 1.786400 
# 
# From -- ./inp_files/35457.got.cif
#   From: 2010.05.17/outbox.cif.g08.bks.cpg/sg21_18_cif.got.tgz:35457.got - 2010.06.03 23:14:55.
