data_PCOD9324074
_publ_section_title
;
Structure prediction by ZEFSAII (Michael W. Deem and Ramdas Pophale) SiO2 
 PCOD9324074
Probable space group: C 2 2 2
;
_chemical_formula_sum "Si O2"
_cell_formula_units_Z 48
_cell_length_a 11.160610
_cell_length_b 15.025728
_cell_length_c 13.589380
_cell_angle_alpha 90.000000
_cell_angle_beta 90.000000
_cell_angle_gamma 90.000000
_cell_volume 2278.888612
_symmetry_space_group_name_H-M "C 2 2 2"
_symmetry_group_IT_number 21
_symmetry_cell_setting 'orthorhombic'
loop_
_space_group_symop_operation_xyz
x,y,z
-x,-y,z
x,-y,-z
-x,y,-z
1/2+x,1/2+y,z
1/2-x,1/2-y,z
1/2+x,1/2-y,-z
1/2-x,1/2+y,-z
loop_
_atom_site_type_symbol
_atom_site_label
_atom_site_fract_x
_atom_site_fract_y
_atom_site_fract_z
Si Si1 0.624481 0.203238 0.288775
Si Si2 0.312083 0.660712 0.741768
Si Si3 0.042180 0.129710 0.609188
Si Si4 0.618532 0.551394 0.900634
Si Si5 0.241552 0.471232 0.709877
Si Si6 0.515338 0.267124 0.895567
O O1 0.750000 0.250000 0.255605
O O2 0.589328 0.268952 0.377784
O O3 0.641191 0.100662 0.317410
O O4 0.533303 0.212918 0.197994
O O5 0.250000 0.750000 0.703648
O O6 0.431396 0.631295 0.684294
O O7 0.225853 0.576962 0.718925
O O8 0.361750 0.687348 0.852000
O O9 0.144415 0.061255 0.644578
O O10 0.000000 0.111161 0.500000
O O11 0.500000 0.500000 0.861250
O O12 0.721097 0.551098 0.821535
O O13 0.575226 0.651094 0.915130
O O14 0.649748 0.500000 0.000000
O O15 0.500000 0.216881 0.000000
#
# Coordination Sequence:
#
# PCOD9324074 Si02
#       6
#     8   8   8   8   8   8
#     4   9  19  34  59  84 115 151 190 243 290 358
#     4  11  23  37  56  85 118 148 193 250 297 345
#     4  10  21  39  63  88 115 148 190 246 299 353
#     4  11  16  27  54  84 111 146 193 245 285 335
#     4  11  19  38  59  84 115 153 200 239 302 352
#     4  11  19  34  53  80 118 154 194 242 296 345
#
# _framework density 21.062898000000001
#
# number of rings (size 3 to 8) (size 9 to 14) (size 15 to 20)
#    0.000    1.500    8.333    0.500    0.000    4.000 
#    3.000    3.333    0.000    2.000    0.000    0.000 
#    0.000    0.000    0.000    0.000    0.000    0.000 
#
# Total GULP energy -133652.199948 kJ/mol
# GULP energy per Si atom -5568.841665 kJ/mol
# Density = 2.101496 g / cm^3
# Si number density = 21.062898 Si / 1000 Ang^3
#
#
#
# Elastic Constant Matrix: (Units=GPa)
#
#
# Indices 1 2 3 4 5 6 
#
# 1 11.2977 24.6407 12.3195 0.0000 0.0000 0.0000
# 2 24.6407 149.7839 26.2439 0.0000 0.0000 0.0000
# 3 12.3195 26.2439 99.6637 0.0000 0.0000 0.0000
# 4 0.0000 0.0000 0.0000 15.0135 0.0000 0.0000
# 5 0.0000 0.0000 0.0000 0.0000 3.5668 0.0000
# 6 0.0000 0.0000 0.0000 0.0000 0.0000 21.8351
#
#
#
# Elastic Compliance Matrix: (Units=1/GPa)
#
#
# Indices 1 2 3 4 5 6 
#
# 1 0.152195 -0.022793 -0.012811 0.000000 0.000000 0.000000
# 2 -0.022793 0.010413 0.000076 0.000000 0.000000 0.000000
# 3 -0.012811 0.000076 0.011597 0.000000 0.000000 0.000000
# 4 0.000000 0.000000 0.000000 0.066607 0.000000 0.000000
# 5 0.000000 0.000000 0.000000 0.000000 0.280364 0.000000
# 6 0.000000 0.000000 0.000000 0.000000 0.000000 0.045798
#
#
# Mechanical properties :
#
#
# Convention : Reuss Voigt Hill
#
# Bulk Modulus (GPa) = 9.69476 43.01706 26.35591
# Shear Modulus (GPa) = 7.43592 21.25251 14.34421
#
# Velocity S-wave (km/s) = 1.88096 3.17993 2.61246
# Velocity P-wave (km/s) = 3.05452 5.82667 4.65189
#
# Compressibility (1/GPa) = 0.10314851
#
# Stress axis : x y z
#
# Youngs Moduli (GPa) = 6.57052 96.03708 86.22593
#
# Poissons Ratio (x) = 2.18894 1.10464
# Poissons Ratio (y) = 0.14976 -0.00651
# Poissons Ratio (z) = 0.08418 -0.00725
#
# Static dielectric constant tensor:
#      x y z
#    x 1.844160 0.000000 0.000000 
#    y 0.000000 1.835640 0.000000 
#    z 0.000000 0.000000 1.777030 
# 
# From -- ./inp_files/31512.got.cif
#   From: 2010.05.17/outbox.cif.g08.bks.cpg/sg21_16_cif.got.tgz:31512.got - 2010.06.03 23:14:55.
