data_PCOD9324464
_publ_section_title
;
Structure prediction by ZEFSAII (Michael W. Deem and Ramdas Pophale) SiO2 
 PCOD9324464
Probable space group: C 2 2 2
;
_chemical_formula_sum "Si O2"
_cell_formula_units_Z 40
_cell_length_a 9.795582
_cell_length_b 15.709440
_cell_length_c 12.514727
_cell_angle_alpha 90.000000
_cell_angle_beta 90.000000
_cell_angle_gamma 90.000000
_cell_volume 1925.805083
_symmetry_space_group_name_H-M "C 2 2 2"
_symmetry_group_IT_number 21
_symmetry_cell_setting 'orthorhombic'
loop_
_space_group_symop_operation_xyz
x,y,z
-x,-y,z
x,-y,-z
-x,y,-z
1/2+x,1/2+y,z
1/2-x,1/2-y,z
1/2+x,1/2-y,-z
1/2-x,1/2+y,-z
loop_
_atom_site_type_symbol
_atom_site_label
_atom_site_fract_x
_atom_site_fract_y
_atom_site_fract_z
Si Si1 0.932910 0.324711 0.601886
Si Si2 0.311070 0.109394 0.711115
Si Si3 0.314160 0.549354 0.612529
Si Si4 0.104525 0.723495 0.089143
Si Si5 0.520225 0.329229 0.276667
O O1 0.795125 0.376028 0.587213
O O2 0.929926 0.251210 0.688458
O O3 0.000000 0.279251 0.500000
O O4 0.057126 0.386219 0.635829
O O5 0.362107 0.150683 0.822358
O O6 0.176609 0.165260 0.680394
O O7 0.255110 0.014456 0.698176
O O8 0.339349 0.500000 0.500000
O O9 0.442880 0.591234 0.672059
O O10 0.250000 0.750000 0.041434
O O11 0.045534 0.806893 0.152180
O O12 0.000000 0.694752 0.000000
#
# Coordination Sequence:
#
# PCOD9324464 Si02
#       5
#     8   8   8   8   8
#     4  11  22  38  57  83 128 174 214 250 303 364
#     4  10  22  40  62  91 128 162 209 265 316 371
#     4  12  24  38  59  94 137 177 206 255 314 377
#     4   9  20  42  71  95 122 161 212 273 327 378
#     4  10  24  40  62  93 123 167 216 264 301 387
#
# _framework density 20.770534000000001
#
# number of rings (size 3 to 8) (size 9 to 14) (size 15 to 20)
#    0.000    1.600    2.000    3.600    2.800    5.600 
#    0.000    0.000    0.000   38.400    0.000    0.000 
#    0.000    0.000    0.000    0.000    0.000    0.000 
#
# Total GULP energy -111394.100529 kJ/mol
# GULP energy per Si atom -5569.705026 kJ/mol
# Density = 2.072326 g / cm^3
# Si number density = 20.770534 Si / 1000 Ang^3
#
#
#
# Elastic Constant Matrix: (Units=GPa)
#
#
# Indices 1 2 3 4 5 6 
#
# 1 118.8283 29.0010 57.7122 0.0000 0.0000 0.0000
# 2 29.0010 74.3745 22.0861 0.0000 0.0000 0.0000
# 3 57.7122 22.0861 71.8195 0.0000 0.0000 0.0000
# 4 0.0000 0.0000 0.0000 16.6595 0.0000 0.0000
# 5 0.0000 0.0000 0.0000 0.0000 36.1273 0.0000
# 6 0.0000 0.0000 0.0000 0.0000 0.0000 45.5640
#
#
#
# Elastic Compliance Matrix: (Units=1/GPa)
#
#
# Indices 1 2 3 4 5 6 
#
# 1 0.014169 -0.002359 -0.010660 0.000000 0.000000 0.000000
# 2 -0.002359 0.015190 -0.002775 0.000000 0.000000 0.000000
# 3 -0.010660 -0.002775 0.023343 0.000000 0.000000 0.000000
# 4 0.000000 0.000000 0.000000 0.060026 0.000000 0.000000
# 5 0.000000 0.000000 0.000000 0.000000 0.027680 0.000000
# 6 0.000000 0.000000 0.000000 0.000000 0.000000 0.021947
#
#
# Mechanical properties :
#
#
# Convention : Reuss Voigt Hill
#
# Bulk Modulus (GPa) = 47.36545 53.62455 50.49500
# Shear Modulus (GPa) = 24.87797 30.08502 27.48150
#
# Velocity S-wave (km/s) = 3.46461 3.80998 3.64139
# Velocity P-wave (km/s) = 6.23365 6.72519 6.48408
#
# Compressibility (1/GPa) = 0.02111244
#
# Stress axis : x y z
#
# Youngs Moduli (GPa) = 70.57857 65.83473 42.83880
#
# Poissons Ratio (x) = 0.15532 0.45666
# Poissons Ratio (y) = 0.16651 0.11889
# Poissons Ratio (z) = 0.75237 0.18271
#
# Static dielectric constant tensor:
#      x y z
#    x 1.764580 0.000000 0.000000 
#    y 0.000000 1.807480 0.000000 
#    z 0.000000 0.000000 1.796400 
# 
# From -- ./inp_files/30193.got.cif
#   From: 2010.05.17/outbox.cif.g08.bks.cpg/sg21_16_cif.got.tgz:30193.got - 2010.06.03 23:14:55.
