data_PCOD9324875
_publ_section_title
;
Structure prediction by ZEFSAII (Michael W. Deem and Ramdas Pophale) SiO2 
 PCOD9324875
Probable space group: C 2 2 2
;
_chemical_formula_sum "Si O2"
_cell_formula_units_Z 64
_cell_length_a 14.615094
_cell_length_b 20.207465
_cell_length_c 9.751153
_cell_angle_alpha 90.000000
_cell_angle_beta 90.000000
_cell_angle_gamma 90.000000
_cell_volume 2879.847025
_symmetry_space_group_name_H-M "C 2 2 2"
_symmetry_group_IT_number 21
_symmetry_cell_setting 'orthorhombic'
loop_
_space_group_symop_operation_xyz
x,y,z
-x,-y,z
x,-y,-z
-x,y,-z
1/2+x,1/2+y,z
1/2-x,1/2-y,z
1/2+x,1/2-y,-z
1/2-x,1/2+y,-z
loop_
_atom_site_type_symbol
_atom_site_label
_atom_site_fract_x
_atom_site_fract_y
_atom_site_fract_z
Si Si1 0.810326 0.599177 0.062712
Si Si2 0.597638 0.573794 0.058326
Si Si3 0.776876 0.822206 0.519519
Si Si4 0.603694 0.019632 0.187886
Si Si5 0.079625 0.843959 0.706997
Si Si6 0.601839 0.729761 0.741834
Si Si7 0.356866 0.755077 0.948584
Si Si8 0.908213 0.628731 0.588287
O O1 0.700502 0.603157 0.035140
O O2 0.833474 0.545927 0.181237
O O3 0.854510 0.567683 0.927205
O O4 0.863008 0.667607 0.090636
O O5 0.582247 0.585120 0.219273
O O6 0.603184 0.500000 0.000000
O O7 0.500000 0.601688 0.000000
O O8 0.750000 0.750000 0.463375
O O9 0.858989 0.845789 0.426082
O O10 0.810247 0.807639 0.675928
O O11 0.687044 0.865869 0.507542
O O12 0.597545 0.062244 0.324438
O O13 0.500000 0.000000 0.153520
O O14 0.980172 0.814706 0.684973
O O15 0.117727 0.791982 0.822358
O O16 0.597126 0.736571 0.906175
O O17 0.593900 0.803702 0.679796
O O18 0.250000 0.750000 0.980170
O O19 0.000000 0.630138 0.500000
#
# Coordination Sequence:
#
# PCOD9324875 Si02
#       8
#     8   8   8   8   8   8   8   8
#     4  11  23  44  68 100 143 185 224 293 363 412
#     4  11  24  44  66 101 138 181 227 289 353 421
#     4  10  23  45  67 102 145 185 228 290 356 428
#     4  11  25  43  67  97 139 186 237 286 348 428
#     4  12  25  40  69 111 140 179 233 296 356 409
#     4  11  23  42  69 104 150 184 235 289 362 422
#     4  12  23  37  70 111 140 178 235 291 349 425
#     4  11  24  44  70  98 138 195 239 287 355 436
#
# _framework density 22.223402
#
# number of rings (size 3 to 8) (size 9 to 14) (size 15 to 20)
#    0.000    0.875    3.750    5.250    1.750    2.250 
#    0.000    0.000    0.000    0.000    0.000    0.000 
#    0.000    0.000    0.000    0.000    0.000    0.000 
#
# Total GULP energy -178667.284454 kJ/mol
# GULP energy per Si atom -5583.352639 kJ/mol
# Density = 2.217282 g / cm^3
# Si number density = 22.223402 Si / 1000 Ang^3
#
#
#
# Elastic Constant Matrix: (Units=GPa)
#
#
# Indices 1 2 3 4 5 6 
#
# 1 160.2310 23.5078 39.6593 0.0000 0.0000 0.0000
# 2 23.5078 102.0395 33.1402 0.0000 0.0000 0.0000
# 3 39.6593 33.1402 89.1926 0.0000 0.0000 0.0000
# 4 0.0000 0.0000 0.0000 -15.5965 0.0000 0.0000
# 5 0.0000 0.0000 0.0000 0.0000 27.9517 0.0000
# 6 0.0000 0.0000 0.0000 0.0000 0.0000 13.5092
#
#
#
# Elastic Compliance Matrix: (Units=1/GPa)
#
#
# Indices 1 2 3 4 5 6 
#
# 1 0.007055 -0.000690 -0.002881 0.000000 0.000000 0.000000
# 2 -0.000690 0.011212 -0.003859 0.000000 0.000000 0.000000
# 3 -0.002881 -0.003859 0.013927 0.000000 0.000000 0.000000
# 4 0.000000 0.000000 0.000000 -0.064117 0.000000 0.000000
# 5 0.000000 0.000000 0.000000 0.000000 0.035776 0.000000
# 6 0.000000 0.000000 0.000000 0.000000 0.000000 0.074024
#
#
# Mechanical properties :
#
#
# Convention : Reuss Voigt Hill
#
# Bulk Modulus (GPa) = 57.68867 60.45308 59.07088
# Shear Modulus (GPa) = 50.75361 22.18325 36.46843
#
# Velocity S-wave (km/s) = 4.78409 3.16285 4.05531
# Velocity P-wave (km/s) = 7.51875 6.37178 6.96890
#
# Compressibility (1/GPa) = 0.01733443
#
# Stress axis : x y z
#
# Youngs Moduli (GPa) = 141.73895 89.18632 71.80490
#
# Poissons Ratio (x) = 0.06152 0.20686
# Poissons Ratio (y) = 0.09776 0.27712
# Poissons Ratio (z) = 0.40832 0.34421
#
# Static dielectric constant tensor:
#      x y z
#    x 1.863570 0.000000 0.000000 
#    y 0.000000 1.870340 0.000000 
#    z 0.000000 0.000000 1.849220 
# 
# From -- ./inp_files/15478.got.cif
#   From: 2010.05.17/outbox.cif.g08.bks.cpg/sg21_8_cif.got.tgz:15478.got - 2010.06.03 23:14:55.
