data_PCOD9324320
_publ_section_title
;
Structure prediction by ZEFSAII (Michael W. Deem and Ramdas Pophale) SiO2 
 PCOD9324320
Probable space group: C 2 2 2
;
_chemical_formula_sum "Si O2"
_cell_formula_units_Z 32
_cell_length_a 32.002657
_cell_length_b 5.136276
_cell_length_c 8.901530
_cell_angle_alpha 90.000000
_cell_angle_beta 90.000000
_cell_angle_gamma 90.000000
_cell_volume 1463.184357
_symmetry_space_group_name_H-M "C 2 2 2"
_symmetry_group_IT_number 21
_symmetry_cell_setting 'orthorhombic'
loop_
_space_group_symop_operation_xyz
x,y,z
-x,-y,z
x,-y,-z
-x,y,-z
1/2+x,1/2+y,z
1/2-x,1/2-y,z
1/2+x,1/2-y,-z
1/2-x,1/2+y,-z
loop_
_atom_site_type_symbol
_atom_site_label
_atom_site_fract_x
_atom_site_fract_y
_atom_site_fract_z
Si Si1 0.181507 0.008129 0.820511
Si Si2 0.459427 0.828521 0.747964
Si Si3 0.872494 0.511783 0.178260
Si Si4 0.000000 0.000000 0.500000
Si Si5 0.250000 0.750000 0.601671
Si Si6 0.000000 0.000000 0.000000
O O1 0.161883 0.291052 0.784944
O O2 0.145224 0.798457 0.794175
O O3 0.217791 0.901039 0.712519
O O4 0.193107 0.000000 0.000000
O O5 0.417552 0.996504 0.745805
O O6 0.468126 0.659564 0.602624
O O7 0.467257 0.654835 0.895257
O O8 0.500000 0.000000 0.754440
O O9 0.879404 0.500000 0.000000
O O10 0.234318 0.500000 0.500000
#
# Coordination Sequence:
#
# PCOD9324320 Si02
#       6
#     8   8   8   2   4   2
#     4  10  24  45  73 110 138 186 234 296 360 437
#     4  11  23  41  64  97 136 190 239 295 352 421
#     4  10  22  40  71 105 139 172 238 303 355 412
#     4  10  26  42  60  92 136 202 250 282 350 434
#     4  12  26  48  76 108 152 188 236 292 370 456
#     4  10  22  34  68 100 132 186 238 298 366 402
#
# _framework density 21.87011
#
# number of rings (size 3 to 8) (size 9 to 14) (size 15 to 20)
#    0.000    1.500    0.000    3.750   12.250    4.000 
#    2.250    2.500    0.000    0.000    0.000    0.000 
#    0.000    0.000    0.000    0.000    0.000    0.000 
#
# Total GULP energy -89261.151247 kJ/mol
# GULP energy per Si atom -5578.821953 kJ/mol
# Density = 2.182033 g / cm^3
# Si number density = 21.870110 Si / 1000 Ang^3
#
#
#
# Elastic Constant Matrix: (Units=GPa)
#
#
# Indices 1 2 3 4 5 6 
#
# 1 100.5808 17.8765 57.0940 0.0000 0.0000 0.0000
# 2 17.8765 104.0639 52.5967 0.0000 0.0000 0.0000
# 3 57.0940 52.5967 98.6957 0.0000 0.0000 0.0000
# 4 0.0000 0.0000 0.0000 103.5253 0.0000 0.0000
# 5 0.0000 0.0000 0.0000 0.0000 21.0719 0.0000
# 6 0.0000 0.0000 0.0000 0.0000 0.0000 36.4344
#
#
#
# Elastic Compliance Matrix: (Units=1/GPa)
#
#
# Indices 1 2 3 4 5 6 
#
# 1 0.015272 0.002521 -0.010178 0.000000 0.000000 0.000000
# 2 0.002521 0.013568 -0.008689 0.000000 0.000000 0.000000
# 3 -0.010178 -0.008689 0.020650 0.000000 0.000000 0.000000
# 4 0.000000 0.000000 0.000000 0.009659 0.000000 0.000000
# 5 0.000000 0.000000 0.000000 0.000000 0.047457 0.000000
# 6 0.000000 0.000000 0.000000 0.000000 0.000000 0.027447
#
#
# Mechanical properties :
#
#
# Convention : Reuss Voigt Hill
#
# Bulk Modulus (GPa) = 59.53037 62.05275 60.79156
# Shear Modulus (GPa) = 29.01184 43.92452 36.46818
#
# Velocity S-wave (km/s) = 3.64614 4.48641 4.08792
# Velocity P-wave (km/s) = 6.70856 7.43452 7.08085
#
# Compressibility (1/GPa) = 0.01679815
#
# Stress axis : x y z
#
# Youngs Moduli (GPa) = 65.48130 73.70272 48.42571
#
# Poissons Ratio (x) = -0.18578 0.49286
# Poissons Ratio (y) = -0.16506 0.42076
# Poissons Ratio (z) = 0.66645 0.64039
#
# Static dielectric constant tensor:
#      x y z
#    x 1.711070 0.000000 0.000000 
#    y 0.000000 1.813300 0.000000 
#    z 0.000000 0.000000 1.798010 
# 
# From -- ./inp_files/9261.got.cif
#   From: 2010.05.17/outbox.cif.g08.bks.cpg/sg21_5_cif.got.tgz:9261.got - 2010.06.03 23:14:55.
