data_PCOD9324234
_publ_section_title
;
Structure prediction by ZEFSAII (Michael W. Deem and Ramdas Pophale) SiO2 
 PCOD9324234
Probable space group: C 2 2 2
;
_chemical_formula_sum "Si O2"
_cell_formula_units_Z 56
_cell_length_a 15.976453
_cell_length_b 10.586197
_cell_length_c 15.746353
_cell_angle_alpha 90.000000
_cell_angle_beta 90.000000
_cell_angle_gamma 90.000000
_cell_volume 2663.178775
_symmetry_space_group_name_H-M "C 2 2 2"
_symmetry_group_IT_number 21
_symmetry_cell_setting 'orthorhombic'
loop_
_space_group_symop_operation_xyz
x,y,z
-x,-y,z
x,-y,-z
-x,y,-z
1/2+x,1/2+y,z
1/2-x,1/2-y,z
1/2+x,1/2-y,-z
1/2-x,1/2+y,-z
loop_
_atom_site_type_symbol
_atom_site_label
_atom_site_fract_x
_atom_site_fract_y
_atom_site_fract_z
Si Si1 0.149415 0.220697 0.658291
Si Si2 0.842468 0.033913 0.186335
Si Si3 0.206404 0.380446 0.938492
Si Si4 0.500794 0.145989 0.747842
Si Si5 0.345214 0.702846 0.702966
Si Si6 0.817872 0.138489 0.519687
Si Si7 0.452702 0.284115 0.912461
O O1 0.250000 0.250000 0.658267
O O2 0.140900 0.113270 0.729001
O O3 0.082218 0.323077 0.691798
O O4 0.128229 0.176071 0.562946
O O5 0.752716 0.074931 0.147697
O O6 0.905815 0.087254 0.115484
O O7 0.851796 0.891795 0.217038
O O8 0.250000 0.250000 0.970495
O O9 0.114118 0.329662 0.923328
O O10 0.211369 0.500000 0.000000
O O11 0.587167 0.185743 0.703190
O O12 0.502060 0.233880 0.831291
O O13 0.500000 0.000000 0.770526
O O14 0.250000 0.750000 0.705558
O O15 0.358845 0.633479 0.612387
O O16 0.750000 0.250000 0.525429
O O17 0.780731 0.000000 0.500000
O O18 0.500000 0.300660 0.000000
#
# Coordination Sequence:
#
# PCOD9324234 Si02
#       7
#     8   8   8   8   8   8   8
#     4  10  21  41  73  98 136 186 230 285 351 426
#     4  10  21  43  67  94 136 177 234 279 354 422
#     4  10  23  41  65  97 131 175 230 283 355 420
#     4  11  27  45  68 103 139 184 241 292 363 428
#     4  11  26  42  69 108 143 185 236 298 356 423
#     4  10  21  41  70 108 144 190 235 293 360 422
#     4  10  24  43  68  98 132 182 230 296 354 424
#
# _framework density 21.027502999999999
#
# number of rings (size 3 to 8) (size 9 to 14) (size 15 to 20)
#    0.000    1.714    1.429    2.143    6.000    6.857 
#    0.000    5.000    0.000    0.000    0.000    0.000 
#    0.000    0.000    0.000    0.000    0.000    0.000 
#
# Total GULP energy -156142.565908 kJ/mol
# GULP energy per Si atom -5576.520211 kJ/mol
# Density = 2.097964 g / cm^3
# Si number density = 21.027503 Si / 1000 Ang^3
#
#
#
# Elastic Constant Matrix: (Units=GPa)
#
#
# Indices 1 2 3 4 5 6 
#
# 1 93.3624 26.0143 43.2609 0.0000 0.0000 0.0000
# 2 26.0143 76.2717 39.6988 0.0000 0.0000 0.0000
# 3 43.2609 39.6988 132.9058 0.0000 0.0000 0.0000
# 4 0.0000 0.0000 0.0000 22.9384 0.0000 0.0000
# 5 0.0000 0.0000 0.0000 0.0000 44.1880 0.0000
# 6 0.0000 0.0000 0.0000 0.0000 0.0000 17.4837
#
#
#
# Elastic Compliance Matrix: (Units=1/GPa)
#
#
# Indices 1 2 3 4 5 6 
#
# 1 0.013051 -0.002653 -0.003456 0.000000 0.000000 0.000000
# 2 -0.002653 0.016064 -0.003935 0.000000 0.000000 0.000000
# 3 -0.003456 -0.003935 0.009824 0.000000 0.000000 0.000000
# 4 0.000000 0.000000 0.000000 0.043595 0.000000 0.000000
# 5 0.000000 0.000000 0.000000 0.000000 0.022631 0.000000
# 6 0.000000 0.000000 0.000000 0.000000 0.000000 0.057196
#
#
# Mechanical properties :
#
#
# Convention : Reuss Voigt Hill
#
# Bulk Modulus (GPa) = 53.04256 57.83200 55.43728
# Shear Modulus (GPa) = 26.49250 29.82638 28.15944
#
# Velocity S-wave (km/s) = 3.55335 3.77031 3.66344
# Velocity P-wave (km/s) = 6.48962 6.82029 6.65701
#
# Compressibility (1/GPa) = 0.01885279
#
# Stress axis : x y z
#
# Youngs Moduli (GPa) = 76.61984 62.25163 101.78806
#
# Poissons Ratio (x) = 0.16514 0.35177
# Poissons Ratio (y) = 0.20325 0.40051
# Poissons Ratio (z) = 0.26479 0.24495
#
# Static dielectric constant tensor:
#      x y z
#    x 1.826770 0.000000 0.000000 
#    y 0.000000 1.744890 0.000000 
#    z 0.000000 0.000000 1.774460 
# 
# From -- ./inp_files/32310.got.cif
#   From: 2010.05.17/outbox.cif.g08.bks.cpg/sg21_17_cif.got.tgz:32310.got - 2010.06.03 23:14:55.
