data_PCOD9324300
_publ_section_title
;
Structure prediction by ZEFSAII (Michael W. Deem and Ramdas Pophale) SiO2 
 PCOD9324300
Probable space group: C 2 2 2
;
_chemical_formula_sum "Si O2"
_cell_formula_units_Z 58
_cell_length_a 26.740609
_cell_length_b 11.080455
_cell_length_c 8.524131
_cell_angle_alpha 90.000000
_cell_angle_beta 90.000000
_cell_angle_gamma 90.000000
_cell_volume 2525.683945
_symmetry_space_group_name_H-M "C 2 2 2"
_symmetry_group_IT_number 21
_symmetry_cell_setting 'orthorhombic'
loop_
_space_group_symop_operation_xyz
x,y,z
-x,-y,z
x,-y,-z
-x,y,-z
1/2+x,1/2+y,z
1/2-x,1/2-y,z
1/2+x,1/2-y,-z
1/2-x,1/2+y,-z
loop_
_atom_site_type_symbol
_atom_site_label
_atom_site_fract_x
_atom_site_fract_y
_atom_site_fract_z
Si Si1 0.091758 0.978842 0.302274
Si Si2 0.000000 0.000000 0.500000
Si Si3 0.890268 0.649067 0.162173
Si Si4 0.871878 0.250311 0.507519
Si Si5 0.931747 0.569808 0.661496
Si Si6 0.273011 0.127008 0.086992
Si Si7 0.451890 0.726694 0.106103
Si Si8 0.802166 0.094039 0.634205
O O1 0.107648 0.869028 0.421052
O O2 0.071569 0.900099 0.158785
O O3 0.144254 0.050163 0.286657
O O4 0.042021 0.044629 0.372841
O O5 0.897594 0.719601 0.326711
O O6 0.918211 0.524534 0.203916
O O7 0.831262 0.639410 0.130196
O O8 0.913131 0.709633 0.010157
O O9 0.881636 0.362613 0.396271
O O10 0.815593 0.218914 0.548821
O O11 0.948682 0.500000 0.500000
O O12 0.961774 0.681036 0.744908
O O13 0.250000 0.250000 0.009313
O O14 0.239339 0.110894 0.239623
O O15 0.267224 0.000000 0.000000
O O16 0.500000 0.708920 0.000000
O O17 0.789010 0.000000 0.500000
#
# Coordination Sequence:
#
# PCOD9324300 Si02
#       8
#     8   2   8   8   8   8   8   8
#     4  10  23  40  69 101 133 185 231 298 362 447
#     4  12  20  40  74  92 142 168 242 288 380 438
#     4  11  23  43  66  95 145 181 239 302 356 443
#     4   9  18  40  65  94 130 178 232 295 356 424
#     4   9  20  40  67  93 129 182 232 291 356 419
#     4  12  27  46  70 105 144 199 242 300 381 445
#     4  11  25  42  66 102 140 184 236 296 365 437
#     4  10  21  44  68 101 136 180 241 304 363 433
#
# _framework density 22.964075999999999
#
# number of rings (size 3 to 8) (size 9 to 14) (size 15 to 20)
#    0.000    1.655    3.448    1.241    3.862    2.759 
#    2.483    3.793    0.000    0.000    0.000    0.000 
#    0.000    0.000    0.000    0.000    0.000    0.000 
#
# Total GULP energy -161562.099993 kJ/mol
# GULP energy per Si atom -5571.106896 kJ/mol
# Density = 2.291181 g / cm^3
# Si number density = 22.964076 Si / 1000 Ang^3
#
#
#
# Elastic Constant Matrix: (Units=GPa)
#
#
# Indices 1 2 3 4 5 6 
#
# 1 126.0010 15.7538 31.3895 0.0000 0.0000 0.0000
# 2 15.7538 76.0160 18.1573 0.0000 0.0000 0.0000
# 3 31.3895 18.1573 85.3038 0.0000 0.0000 0.0000
# 4 0.0000 0.0000 0.0000 39.4688 0.0000 0.0000
# 5 0.0000 0.0000 0.0000 0.0000 35.7436 0.0000
# 6 0.0000 0.0000 0.0000 0.0000 0.0000 13.4508
#
#
#
# Elastic Compliance Matrix: (Units=1/GPa)
#
#
# Indices 1 2 3 4 5 6 
#
# 1 0.008825 -0.001110 -0.003011 0.000000 0.000000 0.000000
# 2 -0.001110 0.013999 -0.002571 0.000000 0.000000 0.000000
# 3 -0.003011 -0.002571 0.013378 0.000000 0.000000 0.000000
# 4 0.000000 0.000000 0.000000 0.025336 0.000000 0.000000
# 5 0.000000 0.000000 0.000000 0.000000 0.027977 0.000000
# 6 0.000000 0.000000 0.000000 0.000000 0.000000 0.074345
#
#
# Mechanical properties :
#
#
# Convention : Reuss Voigt Hill
#
# Bulk Modulus (GPa) = 43.82510 46.43576 45.13043
# Shear Modulus (GPa) = 27.04863 32.53399 29.79131
#
# Velocity S-wave (km/s) = 3.43573 3.76804 3.60571
# Velocity P-wave (km/s) = 5.90463 6.26065 6.08524
#
# Compressibility (1/GPa) = 0.02281797
#
# Stress axis : x y z
#
# Youngs Moduli (GPa) = 113.30971 71.43194 74.74833
#
# Poissons Ratio (x) = 0.07927 0.22509
# Poissons Ratio (y) = 0.12574 0.19221
# Poissons Ratio (z) = 0.34121 0.18369
#
# Static dielectric constant tensor:
#      x y z
#    x 1.838270 0.000000 0.000000 
#    y 0.000000 1.970780 0.000000 
#    z 0.000000 0.000000 1.920430 
# 
# From -- ./inp_files/19166.got.cif
#   From: 2010.05.17/outbox.cif.g08.bks.cpg/sg21_10_cif.got.tgz:19166.got - 2010.06.03 23:14:55.
