data_PCOD9324480
_publ_section_title
;
Structure prediction by ZEFSAII (Michael W. Deem and Ramdas Pophale) SiO2 
 PCOD9324480
Probable space group: C 2 2 2
;
_chemical_formula_sum "Si O2"
_cell_formula_units_Z 44
_cell_length_a 27.794156
_cell_length_b 5.082358
_cell_length_c 14.023160
_cell_angle_alpha 90.000000
_cell_angle_beta 90.000000
_cell_angle_gamma 90.000000
_cell_volume 1980.909494
_symmetry_space_group_name_H-M "C 2 2 2"
_symmetry_group_IT_number 21
_symmetry_cell_setting 'orthorhombic'
loop_
_space_group_symop_operation_xyz
x,y,z
-x,-y,z
x,-y,-z
-x,y,-z
1/2+x,1/2+y,z
1/2-x,1/2-y,z
1/2+x,1/2-y,-z
1/2-x,1/2+y,-z
loop_
_atom_site_type_symbol
_atom_site_label
_atom_site_fract_x
_atom_site_fract_y
_atom_site_fract_z
Si Si1 0.898926 0.151949 0.301806
Si Si2 0.598719 0.848484 0.165918
Si Si3 0.500000 0.500000 0.310593
Si Si4 0.000000 0.500000 0.829847
Si Si5 0.202548 0.932888 0.389302
Si Si6 0.750000 0.750000 0.244977
Si Si7 0.669626 0.000000 0.000000
Si Si8 0.750000 0.750000 0.890956
O O1 0.900924 0.435999 0.250947
O O2 0.850498 0.166874 0.363702
O O3 0.896724 0.936739 0.215320
O O4 0.947500 0.052160 0.357851
O O5 0.639219 0.891632 0.087939
O O6 0.548361 0.929019 0.114931
O O7 0.500210 0.249351 0.240989
O O8 0.250000 0.750000 0.369755
O O9 0.205252 0.000000 0.500000
O O10 0.207675 0.184678 0.319337
O O11 0.752793 0.501854 0.176622
O O12 0.703853 0.224863 0.042611
#
# Coordination Sequence:
#
# PCOD9324480 Si02
#       8
#     8   8   4   4   8   4   4   4
#     4  10  22  41  65  93 126 172 212 262 328 394
#     4  10  22  40  64  92 125 167 213 265 323 383
#     4   8  16  36  63  89 122 162 216 256 310 397
#     4   8  16  35  62  90 119 158 210 262 319 380
#     4  12  26  43  68 101 133 168 219 281 335 404
#     4  12  25  47  66  86 124 178 224 257 339 396
#     4  12  26  43  58  92 128 165 224 270 318 372
#     4  12  27  43  64  86 126 180 220 273 313 394
#
# _framework density 22.212019000000002
#
# number of rings (size 3 to 8) (size 9 to 14) (size 15 to 20)
#    0.000    1.455    1.818    2.727    2.545    4.000 
#    0.000    0.455    0.000    6.545    0.000    7.636 
#    0.000    0.000    0.000    0.000    0.000    0.000 
#
# Total GULP energy -122648.602104 kJ/mol
# GULP energy per Si atom -5574.936459 kJ/mol
# Density = 2.216146 g / cm^3
# Si number density = 22.212019 Si / 1000 Ang^3
#
#
#
# Elastic Constant Matrix: (Units=GPa)
#
#
# Indices 1 2 3 4 5 6 
#
# 1 164.4657 8.7966 45.3091 0.0000 0.0000 0.0000
# 2 8.7966 131.9264 26.7994 0.0000 0.0000 0.0000
# 3 45.3091 26.7994 72.0348 0.0000 0.0000 0.0000
# 4 0.0000 0.0000 0.0000 5.9642 0.0000 0.0000
# 5 0.0000 0.0000 0.0000 0.0000 7.0475 0.0000
# 6 0.0000 0.0000 0.0000 0.0000 0.0000 26.7729
#
#
#
# Elastic Compliance Matrix: (Units=1/GPa)
#
#
# Indices 1 2 3 4 5 6 
#
# 1 0.007384 0.000488 -0.004826 0.000000 0.000000 0.000000
# 2 0.000488 0.008232 -0.003369 0.000000 0.000000 0.000000
# 3 -0.004826 -0.003369 0.018171 0.000000 0.000000 0.000000
# 4 0.000000 0.000000 0.000000 0.167668 0.000000 0.000000
# 5 0.000000 0.000000 0.000000 0.000000 0.141894 0.000000
# 6 0.000000 0.000000 0.000000 0.000000 0.000000 0.037351
#
#
# Mechanical properties :
#
#
# Convention : Reuss Voigt Hill
#
# Bulk Modulus (GPa) = 54.43037 58.91524 56.67280
# Shear Modulus (GPa) = 12.43044 27.12505 19.77774
#
# Velocity S-wave (km/s) = 2.36821 3.49834 2.98721
# Velocity P-wave (km/s) = 5.66004 6.54977 6.12109
#
# Compressibility (1/GPa) = 0.01837210
#
# Stress axis : x y z
#
# Youngs Moduli (GPa) = 135.43411 121.47831 55.03244
#
# Poissons Ratio (x) = -0.05928 0.26557
# Poissons Ratio (y) = -0.06609 0.18543
# Poissons Ratio (z) = 0.65358 0.40932
#
# Static dielectric constant tensor:
#      x y z
#    x 2.022200 0.000000 0.000000 
#    y 0.000000 1.808960 0.000000 
#    z 0.000000 0.000000 1.774400 
# 
# From -- ./inp_files/33971.got.cif
#   From: 2010.05.17/outbox.cif.g08.bks.cpg/sg21_17_cif.got.tgz:33971.got - 2010.06.03 23:14:55.
