data_PCOD9324474
_publ_section_title
;
Structure prediction by ZEFSAII (Michael W. Deem and Ramdas Pophale) SiO2 
 PCOD9324474
Probable space group: C 2 2 2
;
_chemical_formula_sum "Si O2"
_cell_formula_units_Z 48
_cell_length_a 13.476876
_cell_length_b 29.004328
_cell_length_c 6.843882
_cell_angle_alpha 90.000000
_cell_angle_beta 90.000000
_cell_angle_gamma 90.000000
_cell_volume 2675.189513
_symmetry_space_group_name_H-M "C 2 2 2"
_symmetry_group_IT_number 21
_symmetry_cell_setting 'orthorhombic'
loop_
_space_group_symop_operation_xyz
x,y,z
-x,-y,z
x,-y,-z
-x,y,-z
1/2+x,1/2+y,z
1/2-x,1/2-y,z
1/2+x,1/2-y,-z
1/2-x,1/2+y,-z
loop_
_atom_site_type_symbol
_atom_site_label
_atom_site_fract_x
_atom_site_fract_y
_atom_site_fract_z
Si Si1 0.903446 0.391134 0.109310
Si Si2 0.380635 0.054063 0.529496
Si Si3 0.000000 0.768352 0.500000
Si Si4 0.750000 0.250000 0.074673
Si Si5 0.404878 0.315283 0.136616
Si Si6 0.720352 0.869199 0.268146
Si Si7 0.356117 0.810400 0.371870
O O1 0.857144 0.429804 0.249086
O O2 0.921127 0.349640 0.263892
O O3 0.840453 0.370575 0.932675
O O4 0.000000 0.409533 0.000000
O O5 0.500000 0.063302 0.500000
O O6 0.312635 0.084269 0.383150
O O7 0.365526 0.000000 0.500000
O O8 0.950187 0.798724 0.337987
O O9 0.919989 0.734354 0.591366
O O10 0.723627 0.207184 0.215925
O O11 0.660457 0.271916 0.947657
O O12 0.330497 0.356937 0.192967
O O13 0.500000 0.325820 0.000000
O O14 0.688080 0.830296 0.426916
#
# Coordination Sequence:
#
# PCOD9324474 Si02
#       7
#     8   8   4   4   8   8   8
#     4  11  21  36  60  89 127 167 199 246 312 383
#     4  10  22  40  63  97 129 159 199 249 325 400
#     4  12  24  38  60  82 120 170 216 266 298 356
#     4  12  22  42  56  86 126 164 220 270 306 366
#     4  12  26  41  60  87 121 170 222 269 317 365
#     4  11  23  41  60  89 127 166 209 257 316 383
#     4  11  23  35  58  85 123 167 211 255 304 359
#
# _framework density 17.942654000000001
#
# number of rings (size 3 to 8) (size 9 to 14) (size 15 to 20)
#    0.000    0.833    5.000    3.000    4.667    0.667 
#    0.000    0.000    0.000    0.000    0.000    8.750 
#    0.000    0.000    0.000    0.000    0.000    0.000 
#
# Total GULP energy -133822.015306 kJ/mol
# GULP energy per Si atom -5575.917304 kJ/mol
# Density = 1.790182 g / cm^3
# Si number density = 17.942654 Si / 1000 Ang^3
#
#
#
# Elastic Constant Matrix: (Units=GPa)
#
#
# Indices 1 2 3 4 5 6 
#
# 1 92.5257 34.6285 47.6460 0.0000 0.0000 0.0000
# 2 34.6285 83.6620 35.4981 0.0000 0.0000 0.0000
# 3 47.6460 35.4981 127.4656 0.0000 0.0000 0.0000
# 4 0.0000 0.0000 0.0000 40.6041 0.0000 0.0000
# 5 0.0000 0.0000 0.0000 0.0000 14.9589 0.0000
# 6 0.0000 0.0000 0.0000 0.0000 0.0000 -2.3057
#
#
#
# Elastic Compliance Matrix: (Units=1/GPa)
#
#
# Indices 1 2 3 4 5 6 
#
# 1 0.014592 -0.004225 -0.004278 0.000000 0.000000 0.000000
# 2 -0.004225 0.014778 -0.002536 0.000000 0.000000 0.000000
# 3 -0.004278 -0.002536 0.010151 0.000000 0.000000 0.000000
# 4 0.000000 0.000000 0.000000 0.024628 0.000000 0.000000
# 5 0.000000 0.000000 0.000000 0.000000 0.066850 0.000000
# 6 0.000000 0.000000 0.000000 0.000000 0.000000 -0.433705
#
#
# Mechanical properties :
#
#
# Convention : Reuss Voigt Hill
#
# Bulk Modulus (GPa) = 57.33097 59.91094 58.62096
# Shear Modulus (GPa) = -18.19404 23.04351 2.42473
#
# Velocity S-wave (km/s) = -3.18781 3.58758 1.16375
# Velocity P-wave (km/s) = 4.29793 7.11503 5.87775
#
# Compressibility (1/GPa) = 0.01744258
#
# Stress axis : x y z
#
# Youngs Moduli (GPa) = 68.53189 67.66996 98.51611
#
# Poissons Ratio (x) = 0.28588 0.42143
# Poissons Ratio (y) = 0.28952 0.24987
# Poissons Ratio (z) = 0.29317 0.17163
#
# Static dielectric constant tensor:
#      x y z
#    x 1.536150 0.000000 0.000000 
#    y 0.000000 1.629360 0.000000 
#    z 0.000000 0.000000 1.709630 
# 
# From -- ./inp_files/4270.got.cif
#   From: 2010.05.17/outbox.cif.g08.bks.cpg/sg21_3_cif.got.tgz:4270.got - 2010.06.03 23:14:55.
