data_PCOD9324342
_publ_section_title
;
Structure prediction by ZEFSAII (Michael W. Deem and Ramdas Pophale) SiO2 
 PCOD9324342
Probable space group: C 2 2 2
;
_chemical_formula_sum "Si O2"
_cell_formula_units_Z 34
_cell_length_a 20.222611
_cell_length_b 7.384718
_cell_length_c 9.187646
_cell_angle_alpha 90.000000
_cell_angle_beta 90.000000
_cell_angle_gamma 90.000000
_cell_volume 1372.067246
_symmetry_space_group_name_H-M "C 2 2 2"
_symmetry_group_IT_number 21
_symmetry_cell_setting 'orthorhombic'
loop_
_space_group_symop_operation_xyz
x,y,z
-x,-y,z
x,-y,-z
-x,y,-z
1/2+x,1/2+y,z
1/2-x,1/2-y,z
1/2+x,1/2-y,-z
1/2-x,1/2+y,-z
loop_
_atom_site_type_symbol
_atom_site_label
_atom_site_fract_x
_atom_site_fract_y
_atom_site_fract_z
Si Si1 0.000000 0.000000 0.500000
Si Si2 0.000000 0.718187 0.000000
Si Si3 0.373764 0.207650 0.187530
Si Si4 0.750000 0.250000 0.022235
Si Si5 0.084463 0.110575 0.749130
Si Si6 0.201178 0.386479 0.705748
O O1 0.958173 0.126571 0.395348
O O2 0.042533 0.837214 0.110663
O O3 0.941433 0.633079 0.107557
O O4 0.392639 0.403096 0.248764
O O5 0.337217 0.078109 0.307637
O O6 0.317570 0.246031 0.066656
O O7 0.742870 0.089081 0.143735
O O8 0.142162 0.252506 0.740243
O O9 0.250000 0.250000 0.612852
#
# Coordination Sequence:
#
# PCOD9324342 Si02
#       6
#     2   4   8   4   8   8
#     4  12  28  50  66  96 148 200 240 302 354 426
#     4  12  23  41  72 109 141 186 247 309 372 425
#     4  12  22  39  67 106 141 182 228 301 364 431
#     4  10  22  36  62 112 146 170 220 302 376 432
#     4  12  25  44  69  96 145 186 237 303 361 421
#     4  10  24  39  65 106 138 177 230 292 362 443
#
# _framework density 24.780125000000002
#
# number of rings (size 3 to 8) (size 9 to 14) (size 15 to 20)
#    0.706    0.000    4.706    3.529    3.294    1.882 
#    0.000    2.353    7.765    0.000    0.000    0.000 
#    0.000    0.000    0.000    0.000    0.000    0.000 
#
# Total GULP energy -94694.229613 kJ/mol
# GULP energy per Si atom -5570.248801 kJ/mol
# Density = 2.472372 g / cm^3
# Si number density = 24.780125 Si / 1000 Ang^3
#
#
#
# Elastic Constant Matrix: (Units=GPa)
#
#
# Indices 1 2 3 4 5 6 
#
# 1 151.4748 33.8087 19.3607 0.0000 0.0000 0.0000
# 2 33.8087 133.9794 7.0361 0.0000 0.0000 0.0000
# 3 19.3607 7.0361 57.5729 0.0000 0.0000 0.0000
# 4 0.0000 0.0000 0.0000 5.2174 0.0000 0.0000
# 5 0.0000 0.0000 0.0000 0.0000 -34.6807 0.0000
# 6 0.0000 0.0000 0.0000 0.0000 0.0000 32.3818
#
#
#
# Elastic Compliance Matrix: (Units=1/GPa)
#
#
# Indices 1 2 3 4 5 6 
#
# 1 0.007271 -0.001717 -0.002235 0.000000 0.000000 0.000000
# 2 -0.001717 0.007918 -0.000390 0.000000 0.000000 0.000000
# 3 -0.002235 -0.000390 0.018169 0.000000 0.000000 0.000000
# 4 0.000000 0.000000 0.000000 0.191667 0.000000 0.000000
# 5 0.000000 0.000000 0.000000 0.000000 -0.028834 0.000000
# 6 0.000000 0.000000 0.000000 0.000000 0.000000 0.030882
#
#
# Mechanical properties :
#
#
# Convention : Reuss Voigt Hill
#
# Bulk Modulus (GPa) = 40.53209 51.49313 46.01261
# Shear Modulus (GPa) = 20.49343 19.43847 19.96595
#
# Velocity S-wave (km/s) = 2.87890 2.80382 2.84161
# Velocity P-wave (km/s) = 5.23860 5.59527 5.41987
#
# Compressibility (1/GPa) = 0.02467181
#
# Stress axis : x y z
#
# Youngs Moduli (GPa) = 137.53746 126.29964 55.04000
#
# Poissons Ratio (x) = 0.21690 0.12302
# Poissons Ratio (y) = 0.23620 0.02147
# Poissons Ratio (z) = 0.30742 0.04927
#
# Static dielectric constant tensor:
#      x y z
#    x 1.945340 0.000000 0.000000 
#    y 0.000000 3.108420 0.000000 
#    z 0.000000 0.000000 2.003630 
# 
# From -- ./inp_files/14719.got.cif
#   From: 2010.05.17/outbox.cif.g08.bks.cpg/sg21_8_cif.got.tgz:14719.got - 2010.06.03 23:14:55.
