data_PCOD9324789
_publ_section_title
;
Structure prediction by ZEFSAII (Michael W. Deem and Ramdas Pophale) SiO2 
 PCOD9324789
Probable space group: C 2 2 2
;
_chemical_formula_sum "Si O2"
_cell_formula_units_Z 56
_cell_length_a 13.889051
_cell_length_b 14.622741
_cell_length_c 12.315141
_cell_angle_alpha 90.000000
_cell_angle_beta 90.000000
_cell_angle_gamma 90.000000
_cell_volume 2501.155821
_symmetry_space_group_name_H-M "C 2 2 2"
_symmetry_group_IT_number 21
_symmetry_cell_setting 'orthorhombic'
loop_
_space_group_symop_operation_xyz
x,y,z
-x,-y,z
x,-y,-z
-x,y,-z
1/2+x,1/2+y,z
1/2-x,1/2-y,z
1/2+x,1/2-y,-z
1/2-x,1/2+y,-z
loop_
_atom_site_type_symbol
_atom_site_label
_atom_site_fract_x
_atom_site_fract_y
_atom_site_fract_z
Si Si1 0.132510 0.895853 0.511960
Si Si2 0.677955 0.868611 0.007900
Si Si3 0.854455 0.796704 0.720630
Si Si4 0.888076 0.496891 0.184231
Si Si5 0.033113 0.723404 0.618928
Si Si6 0.109931 0.162156 0.962659
Si Si7 0.338642 0.055819 0.398000
O O1 0.141729 0.853460 0.391582
O O2 0.076441 0.824661 0.591040
O O3 0.238218 0.906449 0.559973
O O4 0.096902 0.000000 0.500000
O O5 0.793736 0.885015 0.010775
O O6 0.638039 0.766419 0.994403
O O7 0.637594 0.919257 0.901806
O O8 0.636377 0.912539 0.116096
O O9 0.750000 0.750000 0.731452
O O10 0.879506 0.847559 0.832393
O O11 0.943756 0.727788 0.699988
O O12 0.829175 0.489313 0.295287
O O13 0.000000 0.500000 0.212837
O O14 0.106822 0.644402 0.647765
O O15 0.000000 0.692495 0.500000
O O16 0.000000 0.140642 0.000000
O O17 0.381608 0.000000 0.500000
#
# Coordination Sequence:
#
# PCOD9324789 Si02
#       7
#     8   8   8   8   8   8   8
#     4  10  23  44  69  99 142 191 237 283 351 426
#     4  10  23  46  68  99 135 179 237 286 360 424
#     4  11  23  42  69 100 141 189 227 292 358 415
#     4  11  25  42  70  97 142 183 230 295 355 424
#     4  10  23  40  64  97 139 182 238 282 341 423
#     4  11  24  41  73 101 131 178 238 295 352 427
#     4  11  26  40  68 108 145 182 234 288 359 419
#
# _framework density 22.389648000000001
#
# number of rings (size 3 to 8) (size 9 to 14) (size 15 to 20)
#    0.000    1.429    1.429    3.857   10.000    4.857 
#    2.571    1.429    6.286    0.000    0.000    0.000 
#    0.000    0.000    0.000    0.000    0.000    0.000 
#
# Total GULP energy -156360.638784 kJ/mol
# GULP energy per Si atom -5584.308528 kJ/mol
# Density = 2.233869 g / cm^3
# Si number density = 22.389648 Si / 1000 Ang^3
#
#
#
# Elastic Constant Matrix: (Units=GPa)
#
#
# Indices 1 2 3 4 5 6 
#
# 1 155.2249 24.8881 28.1006 0.0000 0.0000 0.0000
# 2 24.8881 78.1782 14.3326 0.0000 0.0000 0.0000
# 3 28.1006 14.3326 121.1579 0.0000 0.0000 0.0000
# 4 0.0000 0.0000 0.0000 3.5253 0.0000 0.0000
# 5 0.0000 0.0000 0.0000 0.0000 24.8414 0.0000
# 6 0.0000 0.0000 0.0000 0.0000 0.0000 11.3092
#
#
#
# Elastic Compliance Matrix: (Units=1/GPa)
#
#
# Indices 1 2 3 4 5 6 
#
# 1 0.007011 -0.001977 -0.001392 0.000000 0.000000 0.000000
# 2 -0.001977 0.013632 -0.001154 0.000000 0.000000 0.000000
# 3 -0.001392 -0.001154 0.008713 0.000000 0.000000 0.000000
# 4 0.000000 0.000000 0.000000 0.283662 0.000000 0.000000
# 5 0.000000 0.000000 0.000000 0.000000 0.040255 0.000000
# 6 0.000000 0.000000 0.000000 0.000000 0.000000 0.088424
#
#
# Mechanical properties :
#
#
# Convention : Reuss Voigt Hill
#
# Bulk Modulus (GPa) = 49.23658 54.35596 51.79627
# Shear Modulus (GPa) = 10.92863 27.08450 19.00656
#
# Velocity S-wave (km/s) = 2.21172 3.48183 2.91675
# Velocity P-wave (km/s) = 5.34423 6.36350 5.87601
#
# Compressibility (1/GPa) = 0.02031010
#
# Stress axis : x y z
#
# Youngs Moduli (GPa) = 142.62757 73.35578 114.76905
#
# Poissons Ratio (x) = 0.14501 0.15979
# Poissons Ratio (y) = 0.28194 0.13246
# Poissons Ratio (z) = 0.19858 0.08466
#
# Static dielectric constant tensor:
#      x y z
#    x 1.885070 0.000000 0.000000 
#    y 0.000000 1.941530 0.000000 
#    z 0.000000 0.000000 1.839700 
# 
# From -- ./inp_files/25277.got.cif
#   From: 2010.05.17/outbox.cif.g08.bks.cpg/sg21_13_cif.got.tgz:25277.got - 2010.06.03 23:14:55.
