data_PCOD9324556
_publ_section_title
;
Structure prediction by ZEFSAII (Michael W. Deem and Ramdas Pophale) SiO2 
 PCOD9324556
Probable space group: C 2 2 2
;
_chemical_formula_sum "Si O2"
_cell_formula_units_Z 24
_cell_length_a 5.215389
_cell_length_b 23.904079
_cell_length_c 8.256641
_cell_angle_alpha 90.000000
_cell_angle_beta 90.000000
_cell_angle_gamma 90.000000
_cell_volume 1029.347760
_symmetry_space_group_name_H-M "C 2 2 2"
_symmetry_group_IT_number 21
_symmetry_cell_setting 'orthorhombic'
loop_
_space_group_symop_operation_xyz
x,y,z
-x,-y,z
x,-y,-z
-x,y,-z
1/2+x,1/2+y,z
1/2-x,1/2-y,z
1/2+x,1/2-y,-z
1/2-x,1/2+y,-z
loop_
_atom_site_type_symbol
_atom_site_label
_atom_site_fract_x
_atom_site_fract_y
_atom_site_fract_z
Si Si1 0.003766 0.787431 0.694395
Si Si2 0.760443 0.562661 0.430105
Si Si3 0.734149 0.391304 0.901100
O O1 0.750000 0.750000 0.735609
O O2 0.000000 0.797996 0.500000
O O3 0.250000 0.750000 0.723110
O O4 0.079767 0.840671 0.807075
O O5 0.762666 0.500000 0.500000
O O6 0.500000 0.586192 0.500000
O O7 0.798089 0.565298 0.240600
O O8 0.000000 0.596339 0.500000
O O9 0.500000 0.417167 0.000000
O O10 0.000000 0.377926 0.000000
#
# Coordination Sequence:
#
# PCOD9324556 Si02
#       3
#     8   8   8
#     4  10  22  41  66  94 129 179 231 271 321 404
#     4  10  22  44  69  94 130 182 230 274 334 412
#     4  12  25  41  66 102 139 175 224 289 353 401
#
# _framework density 23.315736999999999
#
# number of rings (size 3 to 8) (size 9 to 14) (size 15 to 20)
#    0.000    1.333    0.000    5.000    0.000    6.667 
#    0.000   20.000    0.000    0.000    0.000    0.000 
#    0.000    0.000    0.000    0.000    0.000    0.000 
#
# Total GULP energy -66826.477793 kJ/mol
# GULP energy per Si atom -5568.873149 kJ/mol
# Density = 2.326267 g / cm^3
# Si number density = 23.315737 Si / 1000 Ang^3
#
#
#
# Elastic Constant Matrix: (Units=GPa)
#
#
# Indices 1 2 3 4 5 6 
#
# 1 244.7808 22.2715 63.0974 0.0000 0.0000 0.0000
# 2 22.2715 82.7975 27.4192 0.0000 0.0000 0.0000
# 3 63.0974 27.4192 144.4376 0.0000 0.0000 0.0000
# 4 0.0000 0.0000 0.0000 4.3295 0.0000 0.0000
# 5 0.0000 0.0000 0.0000 0.0000 237.0472 0.0000
# 6 0.0000 0.0000 0.0000 0.0000 0.0000 -136.7855
#
#
#
# Elastic Compliance Matrix: (Units=1/GPa)
#
#
# Indices 1 2 3 4 5 6 
#
# 1 0.004633 -0.000615 -0.001907 0.000000 0.000000 0.000000
# 2 -0.000615 0.012969 -0.002194 0.000000 0.000000 0.000000
# 3 -0.001907 -0.002194 0.008173 0.000000 0.000000 0.000000
# 4 0.000000 0.000000 0.000000 0.230975 0.000000 0.000000
# 5 0.000000 0.000000 0.000000 0.000000 0.004219 0.000000
# 6 0.000000 0.000000 0.000000 0.000000 0.000000 -0.007311
#
#
# Mechanical properties :
#
#
# Convention : Reuss Voigt Hill
#
# Bulk Modulus (GPa) = 61.18249 77.51023 69.34636
# Shear Modulus (GPa) = 18.61941 44.86676 31.74308
#
# Velocity S-wave (km/s) = 2.82898 4.39146 3.69378
# Velocity P-wave (km/s) = 6.08018 7.68304 6.92812
#
# Compressibility (1/GPa) = 0.01634455
#
# Stress axis : x y z
#
# Youngs Moduli (GPa) = 215.85127 77.10460 122.35469
#
# Poissons Ratio (x) = 0.04739 0.23335
# Poissons Ratio (y) = 0.13266 0.26839
# Poissons Ratio (z) = 0.41166 0.16913
#
# Static dielectric constant tensor:
#      x y z
#    x 1.936630 0.000000 0.000000 
#    y 0.000000 -1.212430 0.000000 
#    z 0.000000 0.000000 2.091040 
# 
# From -- ./inp_files/8605.got.cif
#   From: 2010.05.17/outbox.cif.g08.bks.cpg/sg21_5_cif.got.tgz:8605.got - 2010.06.03 23:14:55.
