data_PCOD9324834
_publ_section_title
;
Structure prediction by ZEFSAII (Michael W. Deem and Ramdas Pophale) SiO2 
 PCOD9324834
Probable space group: C 2 2 2
;
_chemical_formula_sum "Si O2"
_cell_formula_units_Z 58
_cell_length_a 14.674862
_cell_length_b 23.360512
_cell_length_c 9.200667
_cell_angle_alpha 90.000000
_cell_angle_beta 90.000000
_cell_angle_gamma 90.000000
_cell_volume 3154.101722
_symmetry_space_group_name_H-M "C 2 2 2"
_symmetry_group_IT_number 21
_symmetry_cell_setting 'orthorhombic'
loop_
_space_group_symop_operation_xyz
x,y,z
-x,-y,z
x,-y,-z
-x,y,-z
1/2+x,1/2+y,z
1/2-x,1/2-y,z
1/2+x,1/2-y,-z
1/2-x,1/2+y,-z
loop_
_atom_site_type_symbol
_atom_site_label
_atom_site_fract_x
_atom_site_fract_y
_atom_site_fract_z
Si Si1 0.500000 0.000000 0.000000
Si Si2 0.109685 0.296489 0.838813
Si Si3 0.892541 0.300907 0.826806
Si Si4 0.887832 0.160981 0.156809
Si Si5 0.263914 0.887187 0.656393
Si Si6 0.674627 0.992165 0.156684
Si Si7 0.221336 0.608258 0.313637
Si Si8 0.101799 0.834324 0.817097
O O1 0.426880 0.970568 0.893007
O O2 0.129747 0.229057 0.819776
O O3 0.163798 0.336089 0.730129
O O4 0.001857 0.307733 0.819794
O O5 0.134796 0.312440 0.005316
O O6 0.835404 0.340356 0.719163
O O7 0.878558 0.233382 0.800587
O O8 0.821019 0.121053 0.247448
O O9 0.994204 0.154001 0.195781
O O10 0.874357 0.150596 0.984458
O O11 0.282113 0.945520 0.741725
O O12 0.274640 0.896807 0.486039
O O13 0.163991 0.866204 0.702160
O O14 0.675970 0.053061 0.237052
O O15 0.722468 0.000000 0.000000
#
# Coordination Sequence:
#
# PCOD9324834 Si02
#       8
#     2   8   8   8   8   8   8   8
#     4   8  24  44  70  84  98 152 202 248 268 314
#     4   9  19  35  58  84 114 152 198 239 278 331
#     4   9  19  35  58  84 114 152 198 239 278 331
#     4   9  19  38  61  85 111 151 200 242 277 326
#     4  12  24  36  55  86 122 152 183 233 295 350
#     4  10  23  43  64  82 106 144 199 235 274 326
#     4  12  24  36  55  86 122 152 183 233 295 350
#     4   9  19  38  61  85 111 151 200 242 277 326
#
# _framework density 18.388753999999999
#
# number of rings (size 3 to 8) (size 9 to 14) (size 15 to 20)
#    0.414    1.655    0.000    5.379    1.931    5.517 
#    0.000    4.138    0.000    4.138    0.000    0.000 
#    0.000    0.000    0.000    0.000    0.000    0.000 
#
# Total GULP energy -161792.061110 kJ/mol
# GULP energy per Si atom -5579.036590 kJ/mol
# Density = 1.834690 g / cm^3
# Si number density = 18.388754 Si / 1000 Ang^3
#
#
#
# Elastic Constant Matrix: (Units=GPa)
#
#
# Indices 1 2 3 4 5 6 
#
# 1 55.9004 27.7990 41.8314 0.0000 0.0000 0.0000
# 2 27.7990 42.1077 47.2804 0.0000 0.0000 0.0000
# 3 41.8314 47.2804 129.5520 0.0000 0.0000 0.0000
# 4 0.0000 0.0000 0.0000 78.4417 0.0000 0.0000
# 5 0.0000 0.0000 0.0000 0.0000 -21.5584 0.0000
# 6 0.0000 0.0000 0.0000 0.0000 0.0000 -3.4759
#
#
#
# Elastic Compliance Matrix: (Units=1/GPa)
#
#
# Indices 1 2 3 4 5 6 
#
# 1 0.027721 -0.013979 -0.003849 0.000000 0.000000 0.000000
# 2 -0.013979 0.047286 -0.012744 0.000000 0.000000 0.000000
# 3 -0.003849 -0.012744 0.013613 0.000000 0.000000 0.000000
# 4 0.000000 0.000000 0.000000 0.012748 0.000000 0.000000
# 5 0.000000 0.000000 0.000000 0.000000 -0.046386 0.000000
# 6 0.000000 0.000000 0.000000 0.000000 0.000000 -0.287692
#
#
# Mechanical properties :
#
#
# Convention : Reuss Voigt Hill
#
# Bulk Modulus (GPa) = 36.39483 51.26462 43.82972
# Shear Modulus (GPa) = -30.78690 18.05812 -6.36439
#
# Velocity S-wave (km/s) = -4.09617 3.13712 -1.86240
# Velocity P-wave (km/s) = 1.59267 6.40787 4.38886
#
# Compressibility (1/GPa) = 0.02747643
#
# Stress axis : x y z
#
# Youngs Moduli (GPa) = 36.07358 21.14775 73.46130
#
# Poissons Ratio (x) = 0.29562 0.28277
# Poissons Ratio (y) = 0.50427 0.93616
# Poissons Ratio (z) = 0.13886 0.26950
#
# Static dielectric constant tensor:
#      x y z
#    x 1.655420 0.000000 0.000000 
#    y 0.000000 1.621090 0.000000 
#    z 0.000000 0.000000 1.610360 
# 
# From -- ./inp_files/15445.got.cif
#   From: 2010.05.17/outbox.cif.g08.bks.cpg/sg21_8_cif.got.tgz:15445.got - 2010.06.03 23:14:55.
