data_PCOD9324334
_publ_section_title
;
Structure prediction by ZEFSAII (Michael W. Deem and Ramdas Pophale) SiO2 
 PCOD9324334
Probable space group: C 2 2 2
;
_chemical_formula_sum "Si O2"
_cell_formula_units_Z 46
_cell_length_a 11.356131
_cell_length_b 23.156389
_cell_length_c 8.553414
_cell_angle_alpha 90.000000
_cell_angle_beta 90.000000
_cell_angle_gamma 90.000000
_cell_volume 2249.265508
_symmetry_space_group_name_H-M "C 2 2 2"
_symmetry_group_IT_number 21
_symmetry_cell_setting 'orthorhombic'
loop_
_space_group_symop_operation_xyz
x,y,z
-x,-y,z
x,-y,-z
-x,y,-z
1/2+x,1/2+y,z
1/2-x,1/2-y,z
1/2+x,1/2-y,-z
1/2-x,1/2+y,-z
loop_
_atom_site_type_symbol
_atom_site_label
_atom_site_fract_x
_atom_site_fract_y
_atom_site_fract_z
Si Si1 0.925422 0.603947 0.298757
Si Si2 0.285246 0.317150 0.423557
Si Si3 0.786572 0.432039 0.982937
Si Si4 0.396110 0.347275 0.127362
Si Si5 0.500000 0.000000 0.500000
Si Si6 0.179481 0.652057 0.263040
Si Si7 0.250000 0.750000 0.049158
O O1 0.822985 0.646990 0.349470
O O2 0.924997 0.543406 0.392240
O O3 0.051578 0.633689 0.324858
O O4 0.897996 0.588774 0.119214
O O5 0.250000 0.250000 0.419739
O O6 0.397669 0.331817 0.312960
O O7 0.277150 0.336919 0.604139
O O8 0.784737 0.399572 0.148023
O O9 0.787354 0.500000 0.000000
O O10 0.673350 0.407499 0.891003
O O11 0.500000 0.349543 0.000000
O O12 0.317538 0.295051 0.058401
O O13 0.169536 0.710381 0.160801
#
# Coordination Sequence:
#
# PCOD9324334 Si02
#       7
#     8   8   8   8   2   8   4
#     4  11  23  37  62  95 131 175 214 273 339 405
#     4  11  22  40  60  93 134 172 217 277 337 397
#     4  10  23  41  62  91 127 171 219 280 331 402
#     4  10  23  41  63  91 123 177 224 271 341 404
#     4  12  20  36  62  96 132 170 230 270 340 412
#     4  11  21  39  59  95 129 169 218 267 338 404
#     4  10  22  36  60  88 126 164 218 276 320 414
#
# _framework density 20.451122000000002
#
# number of rings (size 3 to 8) (size 9 to 14) (size 15 to 20)
#    0.000    1.391    3.478    1.565    2.435    1.043 
#    0.000    3.478    0.000    0.000    0.000    4.870 
#    0.000    0.000    0.000    0.000    0.000    0.000 
#
# Total GULP energy -128280.127079 kJ/mol
# GULP energy per Si atom -5577.396830 kJ/mol
# Density = 2.040457 g / cm^3
# Si number density = 20.451122 Si / 1000 Ang^3
#
#
#
# Elastic Constant Matrix: (Units=GPa)
#
#
# Indices 1 2 3 4 5 6 
#
# 1 38.7689 15.3514 15.8597 0.0000 0.0000 0.0000
# 2 15.3514 138.5019 41.1319 0.0000 0.0000 0.0000
# 3 15.8597 41.1319 133.4748 0.0000 0.0000 0.0000
# 4 0.0000 0.0000 0.0000 24.7551 0.0000 0.0000
# 5 0.0000 0.0000 0.0000 0.0000 28.5096 0.0000
# 6 0.0000 0.0000 0.0000 0.0000 0.0000 17.4275
#
#
#
# Elastic Compliance Matrix: (Units=1/GPa)
#
#
# Indices 1 2 3 4 5 6 
#
# 1 0.027767 -0.002309 -0.002588 0.000000 0.000000 0.000000
# 2 -0.002309 0.008139 -0.002234 0.000000 0.000000 0.000000
# 3 -0.002588 -0.002234 0.008488 0.000000 0.000000 0.000000
# 4 0.000000 0.000000 0.000000 0.040396 0.000000 0.000000
# 5 0.000000 0.000000 0.000000 0.000000 0.035076 0.000000
# 6 0.000000 0.000000 0.000000 0.000000 0.000000 0.057381
#
#
# Mechanical properties :
#
#
# Convention : Reuss Voigt Hill
#
# Bulk Modulus (GPa) = 33.18654 50.60350 41.89502
# Shear Modulus (GPa) = 24.80746 30.03194 27.41970
#
# Velocity S-wave (km/s) = 3.48661 3.83622 3.66559
# Velocity P-wave (km/s) = 5.69834 6.66480 6.20043
#
# Compressibility (1/GPa) = 0.03013269
#
# Stress axis : x y z
#
# Youngs Moduli (GPa) = 36.01423 122.85797 117.81434
#
# Poissons Ratio (x) = 0.28370 0.30487
# Poissons Ratio (y) = 0.08316 0.26319
# Poissons Ratio (z) = 0.09319 0.27445
#
# Static dielectric constant tensor:
#      x y z
#    x 1.757020 0.000000 0.000000 
#    y 0.000000 1.682360 0.000000 
#    z 0.000000 0.000000 1.842690 
# 
# From -- ./inp_files/13377.got.cif
#   From: 2010.05.17/outbox.cif.g08.bks.cpg/sg21_7_cif.got.tgz:13377.got - 2010.06.03 23:14:55.
