data_PCOD9324431
_publ_section_title
;
Structure prediction by ZEFSAII (Michael W. Deem and Ramdas Pophale) SiO2 
 PCOD9324431
Probable space group: C 2 2 2
;
_chemical_formula_sum "Si O2"
_cell_formula_units_Z 40
_cell_length_a 5.132655
_cell_length_b 17.223348
_cell_length_c 22.597570
_cell_angle_alpha 90.000000
_cell_angle_beta 90.000000
_cell_angle_gamma 90.000000
_cell_volume 1997.659157
_symmetry_space_group_name_H-M "C 2 2 2"
_symmetry_group_IT_number 21
_symmetry_cell_setting 'orthorhombic'
loop_
_space_group_symop_operation_xyz
x,y,z
-x,-y,z
x,-y,-z
-x,y,-z
1/2+x,1/2+y,z
1/2-x,1/2-y,z
1/2+x,1/2-y,-z
1/2-x,1/2+y,-z
loop_
_atom_site_type_symbol
_atom_site_label
_atom_site_fract_x
_atom_site_fract_y
_atom_site_fract_z
Si Si1 0.653164 0.660303 0.829935
Si Si2 0.751172 0.448281 0.646828
Si Si3 0.249616 0.155006 0.963106
Si Si4 0.377835 0.082905 0.217924
Si Si5 0.249729 0.843254 0.537134
O O1 0.750000 0.750000 0.833319
O O2 0.729656 0.628901 0.895274
O O3 0.356205 0.630062 0.816539
O O4 0.853059 0.629890 0.780973
O O5 0.500000 0.500000 0.636630
O O6 0.769759 0.428409 0.716266
O O7 0.747096 0.375934 0.603080
O O8 0.000000 0.500000 0.632188
O O9 0.250000 0.250000 0.962376
O O10 0.500000 0.129935 0.000000
O O11 0.000000 0.129983 0.000000
O O12 0.500000 0.000000 0.195330
O O13 0.500000 0.869067 0.500000
O O14 0.250000 0.750000 0.539491
O O15 0.000000 0.869352 0.500000
#
# Coordination Sequence:
#
# PCOD9324431 Si02
#       5
#     8   8   8   8   8
#     4  11  22  37  62  92 117 152 206 252 295 362
#     4  11  23  40  61  85 113 153 203 241 280 347
#     4   9  17  31  53  83 117 148 185 242 301 349
#     4  11  23  41  59  84 123 162 196 244 308 360
#     4  10  22  39  59  87 121 152 184 233 297 348
#
# _framework density 20.023437000000001
#
# number of rings (size 3 to 8) (size 9 to 14) (size 15 to 20)
#    0.000    1.600    0.000    6.000    0.000    7.200 
#    0.000    2.000    0.000    9.000    0.000    0.000 
#    0.000    0.000    0.000    0.000    0.000    0.000 
#
# Total GULP energy -111410.892294 kJ/mol
# GULP energy per Si atom -5570.544615 kJ/mol
# Density = 1.997786 g / cm^3
# Si number density = 20.023437 Si / 1000 Ang^3
#
#
#
# Elastic Constant Matrix: (Units=GPa)
#
#
# Indices 1 2 3 4 5 6 
#
# 1 169.4096 26.1635 31.8999 0.0000 0.0000 0.0000
# 2 26.1635 40.3908 24.0518 0.0000 0.0000 0.0000
# 3 31.8999 24.0518 62.0812 0.0000 0.0000 0.0000
# 4 0.0000 0.0000 0.0000 4.0943 0.0000 0.0000
# 5 0.0000 0.0000 0.0000 0.0000 35.3011 0.0000
# 6 0.0000 0.0000 0.0000 0.0000 0.0000 -0.4870
#
#
#
# Elastic Compliance Matrix: (Units=1/GPa)
#
#
# Indices 1 2 3 4 5 6 
#
# 1 0.006808 -0.003025 -0.002326 0.000000 0.000000 0.000000
# 2 -0.003025 0.033527 -0.011435 0.000000 0.000000 0.000000
# 3 -0.002326 -0.011435 0.021734 0.000000 0.000000 0.000000
# 4 0.000000 0.000000 0.000000 0.244240 0.000000 0.000000
# 5 0.000000 0.000000 0.000000 0.000000 0.028328 0.000000
# 6 0.000000 0.000000 0.000000 0.000000 0.000000 -2.053385
#
#
# Mechanical properties :
#
#
# Convention : Reuss Voigt Hill
#
# Bulk Modulus (GPa) = 35.09232 48.45691 41.77461
# Shear Modulus (GPa) = -2.98387 20.43277 8.72445
#
# Velocity S-wave (km/s) = -1.22206 3.19790 2.08964
# Velocity P-wave (km/s) = 3.94619 6.15533 5.17013
#
# Compressibility (1/GPa) = 0.02849626
#
# Stress axis : x y z
#
# Youngs Moduli (GPa) = 146.88509 29.82709 46.01187
#
# Poissons Ratio (x) = 0.09022 0.10704
# Poissons Ratio (y) = 0.44427 0.52614
# Poissons Ratio (z) = 0.34172 0.34107
#
# Static dielectric constant tensor:
#      x y z
#    x 1.678800 0.000000 0.000000 
#    y 0.000000 1.830580 0.000000 
#    z 0.000000 0.000000 1.745460 
# 
# From -- ./inp_files/34641.got.cif
#   From: 2010.05.17/outbox.cif.g08.bks.cpg/sg21_18_cif.got.tgz:34641.got - 2010.06.03 23:14:55.
