data_PCOD9324749
_publ_section_title
;
Structure prediction by ZEFSAII (Michael W. Deem and Ramdas Pophale) SiO2 
 PCOD9324749
Probable space group: C 2 2 2
;
_chemical_formula_sum "Si O2"
_cell_formula_units_Z 40
_cell_length_a 6.410493
_cell_length_b 20.004833
_cell_length_c 14.981331
_cell_angle_alpha 90.000000
_cell_angle_beta 90.000000
_cell_angle_gamma 90.000000
_cell_volume 1921.218500
_symmetry_space_group_name_H-M "C 2 2 2"
_symmetry_group_IT_number 21
_symmetry_cell_setting 'orthorhombic'
loop_
_space_group_symop_operation_xyz
x,y,z
-x,-y,z
x,-y,-z
-x,y,-z
1/2+x,1/2+y,z
1/2-x,1/2-y,z
1/2+x,1/2-y,-z
1/2-x,1/2+y,-z
loop_
_atom_site_type_symbol
_atom_site_label
_atom_site_fract_x
_atom_site_fract_y
_atom_site_fract_z
Si Si1 0.000000 0.500000 0.701755
Si Si2 0.000000 0.500000 0.000000
Si Si3 0.500000 0.796581 0.500000
Si Si4 0.691893 0.451496 0.855570
Si Si5 0.287098 0.898008 0.601326
Si Si6 0.250000 0.250000 0.666639
Si Si7 0.892672 0.816283 0.233969
Si Si8 0.500000 0.500000 0.500000
O O1 0.192879 0.516278 0.767669
O O2 0.003057 0.564516 0.636558
O O3 0.856386 0.455996 0.935382
O O4 0.311177 0.845758 0.521958
O O5 0.565428 0.765329 0.594381
O O6 0.500000 0.500000 0.875382
O O7 0.621357 0.375204 0.839173
O O8 0.205727 0.854338 0.681935
O O9 0.139294 0.955245 0.565055
O O10 0.372031 0.298806 0.734805
O O11 0.750000 0.750000 0.215318
#
# Coordination Sequence:
#
# PCOD9324749 Si02
#       8
#     4   2   4   8   8   4   8   2
#     4   9  22  36  58  93 124 162 218 281 334 400
#     4  10  22  48  76 116 144 154 204 266 340 430
#     4  12  22  36  56  82 124 192 236 296 348 368
#     4  10  23  41  77 104 134 170 212 269 344 414
#     4  11  22  37  56  84 127 168 240 294 349 392
#     4  12  24  38  58  84 134 184 248 284 330 394
#     4  11  24  43  62  96 130 181 233 277 342 415
#     4  12  24  36  56  88 124 178 236 312 360 384
#
# _framework density 20.820119999999999
#
# number of rings (size 3 to 8) (size 9 to 14) (size 15 to 20)
#    0.000    1.200    2.000    3.900    8.400    1.600 
#    0.000    0.000    4.400    0.000    0.000    0.000 
#    0.000    0.000    0.000    0.000    0.000    0.000 
#
# Total GULP energy -111419.559791 kJ/mol
# GULP energy per Si atom -5570.977990 kJ/mol
# Density = 2.077273 g / cm^3
# Si number density = 20.820120 Si / 1000 Ang^3
#
#
#
# Elastic Constant Matrix: (Units=GPa)
#
#
# Indices 1 2 3 4 5 6 
#
# 1 83.8545 58.8268 31.1978 0.0000 0.0000 0.0000
# 2 58.8268 130.9843 50.3045 0.0000 0.0000 0.0000
# 3 31.1978 50.3045 88.5849 0.0000 0.0000 0.0000
# 4 0.0000 0.0000 0.0000 13.0995 0.0000 0.0000
# 5 0.0000 0.0000 0.0000 0.0000 20.7019 0.0000
# 6 0.0000 0.0000 0.0000 0.0000 0.0000 27.9631
#
#
#
# Elastic Compliance Matrix: (Units=1/GPa)
#
#
# Indices 1 2 3 4 5 6 
#
# 1 0.017741 -0.007121 -0.002204 0.000000 0.000000 0.000000
# 2 -0.007121 0.012622 -0.004660 0.000000 0.000000 0.000000
# 3 -0.002204 -0.004660 0.014711 0.000000 0.000000 0.000000
# 4 0.000000 0.000000 0.000000 0.076339 0.000000 0.000000
# 5 0.000000 0.000000 0.000000 0.000000 0.048305 0.000000
# 6 0.000000 0.000000 0.000000 0.000000 0.000000 0.035761
#
#
# Mechanical properties :
#
#
# Convention : Reuss Voigt Hill
#
# Bulk Modulus (GPa) = 58.46568 64.89799 61.68184
# Shear Modulus (GPa) = 20.90720 23.22586 22.06653
#
# Velocity S-wave (km/s) = 3.17232 3.34361 3.25909
# Velocity P-wave (km/s) = 6.44674 6.79299 6.62213
#
# Compressibility (1/GPa) = 0.01710405
#
# Stress axis : x y z
#
# Youngs Moduli (GPa) = 56.36540 79.22403 67.97616
#
# Poissons Ratio (x) = 0.56419 0.14983
# Poissons Ratio (y) = 0.40140 0.31676
# Poissons Ratio (z) = 0.12424 0.36917
#
# Static dielectric constant tensor:
#      x y z
#    x 1.875020 0.000000 0.000000 
#    y 0.000000 1.793650 0.000000 
#    z 0.000000 0.000000 1.746140 
# 
# From -- ./inp_files/34936.got.cif
#   From: 2010.05.17/outbox.cif.g08.bks.cpg/sg21_18_cif.got.tgz:34936.got - 2010.06.03 23:14:55.
