data_PCOD9324486
_publ_section_title
;
Structure prediction by ZEFSAII (Michael W. Deem and Ramdas Pophale) SiO2 
 PCOD9324486
Probable space group: C 2 2 2
;
_chemical_formula_sum "Si O2"
_cell_formula_units_Z 52
_cell_length_a 17.454870
_cell_length_b 17.644789
_cell_length_c 8.140434
_cell_angle_alpha 90.000000
_cell_angle_beta 90.000000
_cell_angle_gamma 90.000000
_cell_volume 2507.151902
_symmetry_space_group_name_H-M "C 2 2 2"
_symmetry_group_IT_number 21
_symmetry_cell_setting 'orthorhombic'
loop_
_space_group_symop_operation_xyz
x,y,z
-x,-y,z
x,-y,-z
-x,y,-z
1/2+x,1/2+y,z
1/2-x,1/2-y,z
1/2+x,1/2-y,-z
1/2-x,1/2+y,-z
loop_
_atom_site_type_symbol
_atom_site_label
_atom_site_fract_x
_atom_site_fract_y
_atom_site_fract_z
Si Si1 0.696542 0.678490 0.019108
Si Si2 0.031972 0.781004 0.835973
Si Si3 0.286683 0.598072 0.317139
Si Si4 0.500000 0.189543 0.500000
Si Si5 0.461972 0.579890 0.328426
Si Si6 0.143901 0.410253 0.467199
Si Si7 0.702323 0.043976 0.850674
O O1 0.750000 0.750000 0.051055
O O2 0.699052 0.661839 0.822315
O O3 0.617360 0.694617 0.112364
O O4 0.734227 0.601964 0.086834
O O5 0.022053 0.736151 0.664825
O O6 0.982139 0.857124 0.805435
O O7 0.000000 0.740244 0.000000
O O8 0.372077 0.574869 0.365805
O O9 0.225342 0.618352 0.458591
O O10 0.246518 0.523270 0.242726
O O11 0.425864 0.137821 0.536647
O O12 0.500000 0.500000 0.280974
O O13 0.500000 0.603157 0.500000
O O14 0.133170 0.500000 0.500000
O O15 0.148499 0.409030 0.270146
O O16 0.662004 0.000000 0.000000
#
# Coordination Sequence:
#
# PCOD9324486 Si02
#       7
#     8   8   8   4   8   8   8
#     4  11  23  40  64  93 135 176 230 271 343 418
#     4  12  26  45  64  98 143 180 231 287 340 421
#     4  10  22  40  64  98 131 173 217 283 344 410
#     4  12  27  48  69  98 138 190 236 294 359 410
#     4  11  24  40  67  97 136 174 224 273 343 417
#     4  10  23  43  74  95 133 173 235 294 357 415
#     4   9  20  40  67 100 130 165 224 284 343 418
#
# _framework density 20.740665
#
# number of rings (size 3 to 8) (size 9 to 14) (size 15 to 20)
#    0.000    1.385    2.308    2.077   10.769    0.308 
#    2.769    0.769    0.000    0.000    0.000    0.000 
#    0.000    0.000    0.000    0.000    0.000    0.000 
#
# Total GULP energy -144996.846607 kJ/mol
# GULP energy per Si atom -5576.801793 kJ/mol
# Density = 2.069346 g / cm^3
# Si number density = 20.740665 Si / 1000 Ang^3
#
#
#
# Elastic Constant Matrix: (Units=GPa)
#
#
# Indices 1 2 3 4 5 6 
#
# 1 100.6108 41.9673 27.1673 0.0000 0.0000 0.0000
# 2 41.9673 60.3846 36.1041 0.0000 0.0000 0.0000
# 3 27.1673 36.1041 109.6568 0.0000 0.0000 0.0000
# 4 0.0000 0.0000 0.0000 24.1128 0.0000 0.0000
# 5 0.0000 0.0000 0.0000 0.0000 26.8602 0.0000
# 6 0.0000 0.0000 0.0000 0.0000 0.0000 46.5788
#
#
#
# Elastic Compliance Matrix: (Units=1/GPa)
#
#
# Indices 1 2 3 4 5 6 
#
# 1 0.014007 -0.009537 -0.000330 0.000000 0.000000 0.000000
# 2 -0.009537 0.027114 -0.006564 0.000000 0.000000 0.000000
# 3 -0.000330 -0.006564 0.011362 0.000000 0.000000 0.000000
# 4 0.000000 0.000000 0.000000 0.041472 0.000000 0.000000
# 5 0.000000 0.000000 0.000000 0.000000 0.037230 0.000000
# 6 0.000000 0.000000 0.000000 0.000000 0.000000 0.021469
#
#
# Mechanical properties :
#
#
# Convention : Reuss Voigt Hill
#
# Bulk Modulus (GPa) = 50.96938 53.45888 52.21413
# Shear Modulus (GPa) = 26.03403 30.53792 28.28598
#
# Velocity S-wave (km/s) = 3.54675 3.84131 3.69696
# Velocity P-wave (km/s) = 6.43432 6.74574 6.59187
#
# Compressibility (1/GPa) = 0.01961962
#
# Stress axis : x y z
#
# Youngs Moduli (GPa) = 71.39463 36.88167 88.00977
#
# Poissons Ratio (x) = 0.35175 0.02904
# Poissons Ratio (y) = 0.68091 0.57772
# Poissons Ratio (z) = 0.02356 0.24210
#
# Static dielectric constant tensor:
#      x y z
#    x 1.764280 0.000000 0.000000 
#    y 0.000000 1.727360 0.000000 
#    z 0.000000 0.000000 1.778150 
# 
# From -- ./inp_files/16652.got.cif
#   From: 2010.05.17/outbox.cif.g08.bks.cpg/sg21_9_cif.got.tgz:16652.got - 2010.06.03 23:14:55.
