data_PCOD9324982
_publ_section_title
;
Structure prediction by ZEFSAII (Michael W. Deem and Ramdas Pophale) SiO2 
 PCOD9324982
Probable space group: C 2 2 2
;
_chemical_formula_sum "Si O2"
_cell_formula_units_Z 30
_cell_length_a 10.666597
_cell_length_b 16.966143
_cell_length_c 8.013820
_cell_angle_alpha 90.000000
_cell_angle_beta 90.000000
_cell_angle_gamma 90.000000
_cell_volume 1450.269100
_symmetry_space_group_name_H-M "C 2 2 2"
_symmetry_group_IT_number 21
_symmetry_cell_setting 'orthorhombic'
loop_
_space_group_symop_operation_xyz
x,y,z
-x,-y,z
x,-y,-z
-x,y,-z
1/2+x,1/2+y,z
1/2-x,1/2-y,z
1/2+x,1/2-y,-z
1/2-x,1/2+y,-z
loop_
_atom_site_type_symbol
_atom_site_label
_atom_site_fract_x
_atom_site_fract_y
_atom_site_fract_z
Si Si1 0.250000 0.750000 0.600208
Si Si2 0.500000 0.000000 0.500000
Si Si3 0.555531 0.579142 0.811009
Si Si4 0.003791 0.252271 0.199282
Si Si5 0.807704 0.622858 0.663259
O O1 0.134621 0.725566 0.717893
O O2 0.262281 0.671866 0.484096
O O3 0.405566 0.057060 0.601099
O O4 0.500000 0.500000 0.731095
O O5 0.512022 0.662555 0.741196
O O6 0.705346 0.584365 0.786983
O O7 0.500000 0.579153 0.000000
O O8 0.892576 0.308869 0.255961
O O9 0.000000 0.253499 0.000000
#
# Coordination Sequence:
#
# PCOD9324982 Si02
#       5
#     4   2   8   8   8
#     4  12  24  44  74 100 138 186 244 290 358 434
#     4  12  28  48  68 112 146 184 242 310 372 412
#     4  10  24  44  72 103 143 186 240 298 354 424
#     4  11  25  44  73 101 138 192 236 291 355 436
#     4  12  25  49  72 105 145 187 245 295 363 437
#
# _framework density 20.685817
#
# number of rings (size 3 to 8) (size 9 to 14) (size 15 to 20)
#    0.000    0.800    5.333    0.000   11.200    0.000 
#    4.800    0.000    0.000    0.000    0.000    0.000 
#    0.000    0.000    0.000    0.000    0.000    0.000 
#
# Total GULP energy -83630.836666 kJ/mol
# GULP energy per Si atom -5575.389111 kJ/mol
# Density = 2.063873 g / cm^3
# Si number density = 20.685817 Si / 1000 Ang^3
#
#
#
# Elastic Constant Matrix: (Units=GPa)
#
#
# Indices 1 2 3 4 5 6 
#
# 1 157.6539 52.0283 72.3608 0.0000 0.0000 0.0000
# 2 52.0283 153.9833 37.7168 0.0000 0.0000 0.0000
# 3 72.3608 37.7168 94.8056 0.0000 0.0000 0.0000
# 4 0.0000 0.0000 0.0000 9.5343 0.0000 0.0000
# 5 0.0000 0.0000 0.0000 0.0000 30.7450 0.0000
# 6 0.0000 0.0000 0.0000 0.0000 0.0000 48.0350
#
#
#
# Elastic Compliance Matrix: (Units=1/GPa)
#
#
# Indices 1 2 3 4 5 6 
#
# 1 0.010148 -0.001697 -0.007071 0.000000 0.000000 0.000000
# 2 -0.001697 0.007479 -0.001680 0.000000 0.000000 0.000000
# 3 -0.007071 -0.001680 0.016613 0.000000 0.000000 0.000000
# 4 0.000000 0.000000 0.000000 0.104885 0.000000 0.000000
# 5 0.000000 0.000000 0.000000 0.000000 0.032526 0.000000
# 6 0.000000 0.000000 0.000000 0.000000 0.000000 0.020818
#
#
# Mechanical properties :
#
#
# Convention : Reuss Voigt Hill
#
# Bulk Modulus (GPa) = 74.93545 81.18381 78.05963
# Shear Modulus (GPa) = 22.95545 33.95200 28.45372
#
# Velocity S-wave (km/s) = 3.33486 4.05571 3.71282
# Velocity P-wave (km/s) = 7.15070 7.82707 7.49652
#
# Compressibility (1/GPa) = 0.01334482
#
# Stress axis : x y z
#
# Youngs Moduli (GPa) = 98.53778 133.70485 60.19371
#
# Poissons Ratio (x) = 0.22691 0.42561
# Poissons Ratio (y) = 0.16723 0.10113
# Poissons Ratio (z) = 0.69673 0.22464
#
# Static dielectric constant tensor:
#      x y z
#    x 1.788080 0.000000 0.000000 
#    y 0.000000 1.748180 0.000000 
#    z 0.000000 0.000000 1.847130 
# 
# From -- ./inp_files/10468.got.cif
#   From: 2010.05.17/outbox.cif.g08.bks.cpg/sg21_6_cif.got.tgz:10468.got - 2010.06.03 23:14:55.
