data_PCOD9324308
_publ_section_title
;
Structure prediction by ZEFSAII (Michael W. Deem and Ramdas Pophale) SiO2 
 PCOD9324308
Probable space group: C 2 2 2
;
_chemical_formula_sum "Si O2"
_cell_formula_units_Z 56
_cell_length_a 31.950626
_cell_length_b 13.755555
_cell_length_c 5.663798
_cell_angle_alpha 90.000000
_cell_angle_beta 90.000000
_cell_angle_gamma 90.000000
_cell_volume 2489.231253
_symmetry_space_group_name_H-M "C 2 2 2"
_symmetry_group_IT_number 21
_symmetry_cell_setting 'orthorhombic'
loop_
_space_group_symop_operation_xyz
x,y,z
-x,-y,z
x,-y,-z
-x,y,-z
1/2+x,1/2+y,z
1/2-x,1/2-y,z
1/2+x,1/2-y,-z
1/2-x,1/2+y,-z
loop_
_atom_site_type_symbol
_atom_site_label
_atom_site_fract_x
_atom_site_fract_y
_atom_site_fract_z
Si Si1 0.577326 0.099509 0.892445
Si Si2 0.128525 0.733425 0.248947
Si Si3 0.247551 0.950492 0.745163
Si Si4 0.324983 0.676016 0.861849
Si Si5 0.475858 0.729191 0.749475
Si Si6 0.660482 0.885879 0.359669
Si Si7 0.402226 0.604815 0.609455
O O1 0.545590 0.163918 0.740772
O O2 0.618193 0.069026 0.741514
O O3 0.595334 0.178077 0.082278
O O4 0.559819 0.000000 0.000000
O O5 0.153345 0.644485 0.370908
O O6 0.104429 0.807722 0.420316
O O7 0.163563 0.803481 0.131731
O O8 0.220771 0.853347 0.781918
O O9 0.296954 0.937595 0.708181
O O10 0.232478 0.000000 0.500000
O O11 0.240204 0.000000 0.000000
O O12 0.335926 0.780010 0.755424
O O13 0.359221 0.601646 0.758972
O O14 0.500000 0.714244 0.500000
O O15 0.440362 0.645712 0.762587
O O16 0.500000 0.726440 0.000000
O O17 0.410594 0.500000 0.500000
#
# Coordination Sequence:
#
# PCOD9324308 Si02
#       7
#     8   8   8   8   8   8   8
#     4  11  24  46  76 108 145 197 250 302 379 455
#     4  10  21  44  75 105 146 194 251 312 360 454
#     4  12  29  44  65 110 154 194 260 317 364 443
#     4  10  23  44  71 101 146 199 247 309 378 436
#     4  12  27  52  76 110 160 191 247 320 382 457
#     4  10  23  44  71 101 146 199 247 309 378 436
#     4  11  24  46  76 108 145 197 250 302 379 455
#
# _framework density 22.496907
#
# number of rings (size 3 to 8) (size 9 to 14) (size 15 to 20)
#    0.000    1.143    4.286    2.143   12.000    0.571 
#    0.000    4.286    0.000    0.000    0.000    0.000 
#    0.000    0.000    0.000    0.000    0.000    0.000 
#
# Total GULP energy -156257.254153 kJ/mol
# GULP energy per Si atom -5580.616220 kJ/mol
# Density = 2.244570 g / cm^3
# Si number density = 22.496907 Si / 1000 Ang^3
#
#
#
# Elastic Constant Matrix: (Units=GPa)
#
#
# Indices 1 2 3 4 5 6 
#
# 1 55.7624 9.6724 22.8821 0.0000 0.0000 0.0000
# 2 9.6724 96.5641 19.5644 0.0000 0.0000 0.0000
# 3 22.8821 19.5644 94.7350 0.0000 0.0000 0.0000
# 4 0.0000 0.0000 0.0000 24.5051 0.0000 0.0000
# 5 0.0000 0.0000 0.0000 0.0000 20.6294 0.0000
# 6 0.0000 0.0000 0.0000 0.0000 0.0000 5.6370
#
#
#
# Elastic Compliance Matrix: (Units=1/GPa)
#
#
# Indices 1 2 3 4 5 6 
#
# 1 0.020012 -0.001070 -0.004613 0.000000 0.000000 0.000000
# 2 -0.001070 0.010865 -0.001985 0.000000 0.000000 0.000000
# 3 -0.004613 -0.001985 0.012080 0.000000 0.000000 0.000000
# 4 0.000000 0.000000 0.000000 0.040808 0.000000 0.000000
# 5 0.000000 0.000000 0.000000 0.000000 0.048474 0.000000
# 6 0.000000 0.000000 0.000000 0.000000 0.000000 0.177398
#
#
# Mechanical properties :
#
#
# Convention : Reuss Voigt Hill
#
# Bulk Modulus (GPa) = 36.20457 39.03326 37.61891
# Shear Modulus (GPa) = 14.96198 23.15048 19.05623
#
# Velocity S-wave (km/s) = 2.58169 3.21136 2.91359
# Velocity P-wave (km/s) = 5.00149 5.58020 5.29875
#
# Compressibility (1/GPa) = 0.02762082
#
# Stress axis : x y z
#
# Youngs Moduli (GPa) = 49.97099 92.03660 82.78209
#
# Poissons Ratio (x) = 0.09847 0.38184
# Poissons Ratio (y) = 0.05347 0.16436
# Poissons Ratio (z) = 0.23050 0.18273
#
# Static dielectric constant tensor:
#      x y z
#    x 1.838310 0.000000 0.000000 
#    y 0.000000 1.828840 0.000000 
#    z 0.000000 0.000000 2.015420 
# 
# From -- ./inp_files/8033.got.cif
#   From: 2010.05.17/outbox.cif.g08.bks.cpg/sg21_5_cif.got.tgz:8033.got - 2010.06.03 23:14:55.
