data_PCOD9324698
_publ_section_title
;
Structure prediction by ZEFSAII (Michael W. Deem and Ramdas Pophale) SiO2 
 PCOD9324698
Probable space group: C 2 2 2
;
_chemical_formula_sum "Si O2"
_cell_formula_units_Z 22
_cell_length_a 5.532592
_cell_length_b 31.747544
_cell_length_c 5.210382
_cell_angle_alpha 90.000000
_cell_angle_beta 90.000000
_cell_angle_gamma 90.000000
_cell_volume 915.183840
_symmetry_space_group_name_H-M "C 2 2 2"
_symmetry_group_IT_number 21
_symmetry_cell_setting 'orthorhombic'
loop_
_space_group_symop_operation_xyz
x,y,z
-x,-y,z
x,-y,-z
-x,y,-z
1/2+x,1/2+y,z
1/2-x,1/2-y,z
1/2+x,1/2-y,-z
1/2-x,1/2+y,-z
loop_
_atom_site_type_symbol
_atom_site_label
_atom_site_fract_x
_atom_site_fract_y
_atom_site_fract_z
Si Si1 0.169802 0.432195 0.749704
Si Si2 0.333041 0.158625 0.753291
Si Si3 0.500000 0.500000 0.000000
Si Si4 0.250000 0.750000 0.348649
O O1 0.301696 0.386297 0.736481
O O2 0.000000 0.437761 0.500000
O O3 0.347720 0.469987 0.812112
O O4 0.000000 0.431197 0.000000
O O5 0.500000 0.158677 0.500000
O O6 0.209396 0.204264 0.780088
O O7 0.500000 0.156347 0.000000
O O8 0.500000 0.755387 0.500000
#
# Coordination Sequence:
#
# PCOD9324698 Si02
#       4
#     8   8   2   4
#     4  10  24  47  70 100 146 182 243 305 362 440
#     4   9  20  43  67  98 137 185 228 293 360 429
#     4  12  26  46  76 108 132 210 242 306 384 438
#     4  10  22  44  72 106 144 190 238 294 366 442
#
# _framework density 24.038886999999999
#
# number of rings (size 3 to 8) (size 9 to 14) (size 15 to 20)
#    0.000    2.182    0.000    0.545    0.000   11.636 
#   36.000    0.000    0.000    0.000    0.000    0.000 
#    0.000    0.000    0.000    0.000    0.000    0.000 
#
# Total GULP energy -61385.997918 kJ/mol
# GULP energy per Si atom -5580.545265 kJ/mol
# Density = 2.398417 g / cm^3
# Si number density = 24.038887 Si / 1000 Ang^3
#
#
#
# Elastic Constant Matrix: (Units=GPa)
#
#
# Indices 1 2 3 4 5 6 
#
# 1 76.0667 74.4545 37.9174 0.0000 0.0000 0.0000
# 2 74.4545 327.1707 44.7701 0.0000 0.0000 0.0000
# 3 37.9174 44.7701 171.3351 0.0000 0.0000 0.0000
# 4 0.0000 0.0000 0.0000 32.1523 0.0000 0.0000
# 5 0.0000 0.0000 0.0000 0.0000 36.0505 0.0000
# 6 0.0000 0.0000 0.0000 0.0000 0.0000 20.2052
#
#
#
# Elastic Compliance Matrix: (Units=1/GPa)
#
#
# Indices 1 2 3 4 5 6 
#
# 1 0.018359 -0.003756 -0.003081 0.000000 0.000000 0.000000
# 2 -0.003756 0.003938 -0.000198 0.000000 0.000000 0.000000
# 3 -0.003081 -0.000198 0.006570 0.000000 0.000000 0.000000
# 4 0.000000 0.000000 0.000000 0.031102 0.000000 0.000000
# 5 0.000000 0.000000 0.000000 0.000000 0.027739 0.000000
# 6 0.000000 0.000000 0.000000 0.000000 0.000000 0.049492
#
#
# Mechanical properties :
#
#
# Convention : Reuss Voigt Hill
#
# Bulk Modulus (GPa) = 67.58362 98.76184 83.17273
# Shear Modulus (GPa) = 32.00945 45.51031 38.75988
#
# Velocity S-wave (km/s) = 3.65303 4.35581 4.01980
# Velocity P-wave (km/s) = 6.77998 8.15296 7.49796
#
# Compressibility (1/GPa) = 0.01479649
#
# Stress axis : x y z
#
# Youngs Moduli (GPa) = 54.46895 253.90966 152.20367
#
# Poissons Ratio (x) = 0.95377 0.46900
# Poissons Ratio (y) = 0.20460 0.03011
# Poissons Ratio (z) = 0.16784 0.05023
#
# Static dielectric constant tensor:
#      x y z
#    x 2.148910 0.000000 0.000000 
#    y 0.000000 2.088160 0.000000 
#    z 0.000000 0.000000 1.793150 
# 
# From -- ./inp_files/781.got.cif
#   From: 2010.05.17/outbox.cif.g08.bks.cpg/sg21_1_cif.got.tgz:781.got - 2010.06.03 23:14:55.
