data_PCOD9324938
_publ_section_title
;
Structure prediction by ZEFSAII (Michael W. Deem and Ramdas Pophale) SiO2 
 PCOD9324938
Probable space group: C 2 2 2
;
_chemical_formula_sum "Si O2"
_cell_formula_units_Z 28
_cell_length_a 18.095427
_cell_length_b 5.556412
_cell_length_c 12.689551
_cell_angle_alpha 90.000000
_cell_angle_beta 90.000000
_cell_angle_gamma 90.000000
_cell_volume 1275.879125
_symmetry_space_group_name_H-M "C 2 2 2"
_symmetry_group_IT_number 21
_symmetry_cell_setting 'orthorhombic'
loop_
_space_group_symop_operation_xyz
x,y,z
-x,-y,z
x,-y,-z
-x,y,-z
1/2+x,1/2+y,z
1/2-x,1/2-y,z
1/2+x,1/2-y,-z
1/2-x,1/2+y,-z
loop_
_atom_site_type_symbol
_atom_site_label
_atom_site_fract_x
_atom_site_fract_y
_atom_site_fract_z
Si Si1 0.403442 0.627349 0.887239
Si Si2 0.000000 0.500000 0.229756
Si Si3 0.081104 0.875309 0.325422
Si Si4 0.202145 0.000000 0.500000
Si Si5 0.750000 0.750000 0.061004
O O1 0.394062 0.443065 0.792294
O O2 0.328558 0.782180 0.884454
O O3 0.469349 0.796361 0.847829
O O4 0.414824 0.500000 0.000000
O O5 0.062608 0.594955 0.309781
O O6 0.145357 0.949844 0.403740
O O7 0.000000 0.000000 0.348583
O O8 0.250000 0.750000 0.513616
O O9 0.739318 0.500000 0.000000
#
# Coordination Sequence:
#
# PCOD9324938 Si02
#       5
#     8   4   8   4   4
#     4  10  24  43  67 108 148 196 249 298 378 444
#     4  10  24  43  77 106 152 198 253 321 360 464
#     4  10  25  48  74 108 147 197 249 314 381 455
#     4  12  31  52  81 114 148 198 256 328 389 462
#     4  10  24  42  60  94 140 196 234 290 356 432
#
# _framework density 21.945650000000001
#
# number of rings (size 3 to 8) (size 9 to 14) (size 15 to 20)
#    0.000    1.714    0.000    0.429   18.000    6.286 
#    2.571    0.000    0.000    0.000    0.000    0.000 
#    0.000    0.000    0.000    0.000    0.000    0.000 
#
# Total GULP energy -77994.759879 kJ/mol
# GULP energy per Si atom -5571.054277 kJ/mol
# Density = 2.189570 g / cm^3
# Si number density = 21.945650 Si / 1000 Ang^3
#
#
#
# Elastic Constant Matrix: (Units=GPa)
#
#
# Indices 1 2 3 4 5 6 
#
# 1 135.5712 38.1689 71.0893 0.0000 0.0000 0.0000
# 2 38.1689 101.7969 54.6032 0.0000 0.0000 0.0000
# 3 71.0893 54.6032 146.6108 0.0000 0.0000 0.0000
# 4 0.0000 0.0000 0.0000 20.6942 0.0000 0.0000
# 5 0.0000 0.0000 0.0000 0.0000 -0.4568 0.0000
# 6 0.0000 0.0000 0.0000 0.0000 0.0000 30.9492
#
#
#
# Elastic Compliance Matrix: (Units=1/GPa)
#
#
# Indices 1 2 3 4 5 6 
#
# 1 0.010058 -0.001444 -0.004339 0.000000 0.000000 0.000000
# 2 -0.001444 0.012483 -0.003949 0.000000 0.000000 0.000000
# 3 -0.004339 -0.003949 0.010396 0.000000 0.000000 0.000000
# 4 0.000000 0.000000 0.000000 0.048323 0.000000 0.000000
# 5 0.000000 0.000000 0.000000 0.000000 -2.188925 0.000000
# 6 0.000000 0.000000 0.000000 0.000000 0.000000 0.032311
#
#
# Mechanical properties :
#
#
# Convention : Reuss Voigt Hill
#
# Bulk Modulus (GPa) = 74.22525 79.07798 76.65162
# Shear Modulus (GPa) = -2.43736 24.91181 11.23723
#
# Velocity S-wave (km/s) = -1.05501 3.37287 2.26530
# Velocity P-wave (km/s) = 5.69312 7.16101 6.46884
#
# Compressibility (1/GPa) = 0.01347250
#
# Stress axis : x y z
#
# Youngs Moduli (GPa) = 99.42269 80.10834 96.19410
#
# Poissons Ratio (x) = 0.11565 0.41742
# Poissons Ratio (y) = 0.14354 0.37988
# Poissons Ratio (z) = 0.43143 0.31636
#
# Static dielectric constant tensor:
#      x y z
#    x 1.988080 0.000000 0.000000 
#    y 0.000000 1.936800 0.000000 
#    z 0.000000 0.000000 1.780950 
# 
# From -- ./inp_files/20565.got.cif
#   From: 2010.05.17/outbox.cif.g08.bks.cpg/sg21_11_cif.got.tgz:20565.got - 2010.06.03 23:14:55.
