data_PCOD9324866
_publ_section_title
;
Structure prediction by ZEFSAII (Michael W. Deem and Ramdas Pophale) SiO2 
 PCOD9324866
Probable space group: C 2 2 2
;
_chemical_formula_sum "Si O2"
_cell_formula_units_Z 30
_cell_length_a 18.692811
_cell_length_b 4.975134
_cell_length_c 15.301274
_cell_angle_alpha 90.000000
_cell_angle_beta 90.000000
_cell_angle_gamma 90.000000
_cell_volume 1423.006846
_symmetry_space_group_name_H-M "C 2 2 2"
_symmetry_group_IT_number 21
_symmetry_cell_setting 'orthorhombic'
loop_
_space_group_symop_operation_xyz
x,y,z
-x,-y,z
x,-y,-z
-x,y,-z
1/2+x,1/2+y,z
1/2-x,1/2-y,z
1/2+x,1/2-y,-z
1/2-x,1/2+y,-z
loop_
_atom_site_type_symbol
_atom_site_label
_atom_site_fract_x
_atom_site_fract_y
_atom_site_fract_z
Si Si1 0.000000 0.500000 0.000000
Si Si2 0.250000 0.250000 0.053935
Si Si3 0.109939 0.359199 0.145641
Si Si4 0.699505 0.496759 0.395926
Si Si5 0.079449 0.122024 0.740634
O O1 0.946973 0.648361 0.066833
O O2 0.188811 0.403256 0.108486
O O3 0.283733 0.500000 0.000000
O O4 0.085842 0.577106 0.219486
O O5 0.113046 0.065348 0.185681
O O6 0.685704 0.500000 0.500000
O O7 0.750000 0.250000 0.374606
O O8 0.626532 0.442671 0.344456
O O9 0.750000 0.750000 0.373098
O O10 0.000000 0.000000 0.728605
#
# Coordination Sequence:
#
# PCOD9324866 Si02
#       5
#     2   4   8   8   8
#     4  12  24  50  64  90 138 184 220 282 336 410
#     4  12  26  44  64  98 130 174 240 282 344 404
#     4  12  27  42  68  95 134 177 225 282 338 394
#     4  10  23  44  70 100 134 175 218 270 342 409
#     4  12  25  44  65 102 132 172 227 276 335 401
#
# _framework density 21.082118999999999
#
# number of rings (size 3 to 8) (size 9 to 14) (size 15 to 20)
#    0.000    0.533    4.000    3.200    5.600    1.600 
#    0.000    0.000    0.000    8.000    0.000    0.000 
#    0.000    0.000    0.000    0.000    0.000    0.000 
#
# Total GULP energy -83736.779556 kJ/mol
# GULP energy per Si atom -5582.451970 kJ/mol
# Density = 2.103414 g / cm^3
# Si number density = 21.082119 Si / 1000 Ang^3
#
#
#
# Elastic Constant Matrix: (Units=GPa)
#
#
# Indices 1 2 3 4 5 6 
#
# 1 124.5923 11.0628 41.8447 0.0000 0.0000 0.0000
# 2 11.0628 103.6333 11.1040 0.0000 0.0000 0.0000
# 3 41.8447 11.1040 49.8624 0.0000 0.0000 0.0000
# 4 0.0000 0.0000 0.0000 18.7064 0.0000 0.0000
# 5 0.0000 0.0000 0.0000 0.0000 72.9313 0.0000
# 6 0.0000 0.0000 0.0000 0.0000 0.0000 28.9561
#
#
#
# Elastic Compliance Matrix: (Units=1/GPa)
#
#
# Indices 1 2 3 4 5 6 
#
# 1 0.011180 -0.000193 -0.009339 0.000000 0.000000 0.000000
# 2 -0.000193 0.009889 -0.002040 0.000000 0.000000 0.000000
# 3 -0.009339 -0.002040 0.028347 0.000000 0.000000 0.000000
# 4 0.000000 0.000000 0.000000 0.053458 0.000000 0.000000
# 5 0.000000 0.000000 0.000000 0.000000 0.013712 0.000000
# 6 0.000000 0.000000 0.000000 0.000000 0.000000 0.034535
#
#
# Mechanical properties :
#
#
# Convention : Reuss Voigt Hill
#
# Bulk Modulus (GPa) = 38.06507 45.12346 41.59426
# Shear Modulus (GPa) = 27.31919 38.39053 32.85486
#
# Velocity S-wave (km/s) = 3.60369 4.27195 3.95197
# Velocity P-wave (km/s) = 5.95065 6.76630 6.37154
#
# Compressibility (1/GPa) = 0.02627081
#
# Stress axis : x y z
#
# Youngs Moduli (GPa) = 89.44609 101.12652 35.27698
#
# Poissons Ratio (x) = 0.01949 0.32946
# Poissons Ratio (y) = 0.01724 0.07198
# Poissons Ratio (z) = 0.83536 0.20633
#
# Static dielectric constant tensor:
#      x y z
#    x 2.707420 0.000000 0.000000 
#    y 0.000000 1.713710 0.000000 
#    z 0.000000 0.000000 1.768700 
# 
# From -- ./inp_files/28663.got.cif
#   From: 2010.05.17/outbox.cif.g08.bks.cpg/sg21_15_cif.got.tgz:28663.got - 2010.06.03 23:14:55.
