data_PCOD9324849
_publ_section_title
;
Structure prediction by ZEFSAII (Michael W. Deem and Ramdas Pophale) SiO2 
 PCOD9324849
Probable space group: C 2 2 2
;
_chemical_formula_sum "Si O2"
_cell_formula_units_Z 58
_cell_length_a 17.839213
_cell_length_b 14.512984
_cell_length_c 10.795602
_cell_angle_alpha 90.000000
_cell_angle_beta 90.000000
_cell_angle_gamma 90.000000
_cell_volume 2794.983656
_symmetry_space_group_name_H-M "C 2 2 2"
_symmetry_group_IT_number 21
_symmetry_cell_setting 'orthorhombic'
loop_
_space_group_symop_operation_xyz
x,y,z
-x,-y,z
x,-y,-z
-x,y,-z
1/2+x,1/2+y,z
1/2-x,1/2-y,z
1/2+x,1/2-y,-z
1/2-x,1/2+y,-z
loop_
_atom_site_type_symbol
_atom_site_label
_atom_site_fract_x
_atom_site_fract_y
_atom_site_fract_z
Si Si1 0.458236 0.701910 0.131306
Si Si2 0.066045 0.641286 0.809090
Si Si3 0.673724 0.609742 0.290385
Si Si4 0.589073 0.273120 0.509505
Si Si5 0.164129 0.404435 0.423865
Si Si6 0.430548 0.559540 0.329430
Si Si7 0.331182 0.283272 0.045292
Si Si8 0.000000 0.500000 0.000000
O O1 0.492933 0.791264 0.199739
O O2 0.465611 0.611052 0.211343
O O3 0.500000 0.694801 0.000000
O O4 0.373827 0.705818 0.083742
O O5 0.099627 0.600161 0.683018
O O6 0.127538 0.704948 0.874651
O O7 0.047361 0.563439 0.908402
O O8 0.619385 0.683192 0.361096
O O9 0.755627 0.612750 0.355588
O O10 0.636828 0.510212 0.306992
O O11 0.674057 0.633817 0.144654
O O12 0.500000 0.251493 0.500000
O O13 0.639531 0.182489 0.490814
O O14 0.597913 0.357635 0.415156
O O15 0.165538 0.500000 0.500000
O O16 0.500000 0.500000 0.378480
O O17 0.250000 0.250000 0.015926
#
# Coordination Sequence:
#
# PCOD9324849 Si02
#       8
#     8   8   8   8   8   8   8   2
#     4  10  23  43  70 102 140 180 234 291 366 421
#     4  11  22  45  70  99 138 192 236 306 356 428
#     4  12  24  44  73 102 147 189 233 298 370 437
#     4  12  24  42  71  99 140 186 237 298 359 423
#     4  12  27  48  70 105 144 193 248 299 365 446
#     4  12  24  41  68 109 141 178 233 298 359 431
#     4  11  20  44  74  98 139 189 233 286 373 435
#     4  12  24  44  78 100 142 184 258 306 348 440
#
# _framework density 20.751463000000001
#
# number of rings (size 3 to 8) (size 9 to 14) (size 15 to 20)
#    0.000    0.552    6.207    4.138    0.000    4.414 
#    2.483    1.379    0.000    0.000    0.000    0.000 
#    0.000    0.000    0.000    0.000    0.000    0.000 
#
# Total GULP energy -161949.488054 kJ/mol
# GULP energy per Si atom -5584.465105 kJ/mol
# Density = 2.070423 g / cm^3
# Si number density = 20.751463 Si / 1000 Ang^3
#
#
#
# Elastic Constant Matrix: (Units=GPa)
#
#
# Indices 1 2 3 4 5 6 
#
# 1 133.3556 66.4212 45.5552 0.0000 0.0000 0.0000
# 2 66.4212 135.9551 39.6564 0.0000 0.0000 0.0000
# 3 45.5552 39.6564 84.2238 0.0000 0.0000 0.0000
# 4 0.0000 0.0000 0.0000 214.0613 0.0000 0.0000
# 5 0.0000 0.0000 0.0000 0.0000 98.8556 0.0000
# 6 0.0000 0.0000 0.0000 0.0000 0.0000 31.5244
#
#
#
# Elastic Compliance Matrix: (Units=1/GPa)
#
#
# Indices 1 2 3 4 5 6 
#
# 1 0.010932 -0.004192 -0.003939 0.000000 0.000000 0.000000
# 2 -0.004192 0.010134 -0.002504 0.000000 0.000000 0.000000
# 3 -0.003939 -0.002504 0.015183 0.000000 0.000000 0.000000
# 4 0.000000 0.000000 0.000000 0.004672 0.000000 0.000000
# 5 0.000000 0.000000 0.000000 0.000000 0.010116 0.000000
# 6 0.000000 0.000000 0.000000 0.000000 0.000000 0.031721
#
#
# Mechanical properties :
#
#
# Convention : Reuss Voigt Hill
#
# Bulk Modulus (GPa) = 66.76360 72.97778 69.87069
# Shear Modulus (GPa) = 45.86257 82.34839 64.10548
#
# Velocity S-wave (km/s) = 4.70626 6.30629 5.56409
# Velocity P-wave (km/s) = 7.85968 9.39519 8.66153
#
# Compressibility (1/GPa) = 0.01497822
#
# Stress axis : x y z
#
# Youngs Moduli (GPa) = 91.47139 98.67989 65.86366
#
# Poissons Ratio (x) = 0.41366 0.25946
# Poissons Ratio (y) = 0.38345 0.16493
# Poissons Ratio (z) = 0.36034 0.24710
#
# Static dielectric constant tensor:
#      x y z
#    x 1.512960 0.000000 0.000000 
#    y 0.000000 1.745660 0.000000 
#    z 0.000000 0.000000 1.823950 
# 
# From -- ./inp_files/26198.got.cif
#   From: 2010.05.17/outbox.cif.g08.bks.cpg/sg21_14_cif.got.tgz:26198.got - 2010.06.03 23:14:55.
