data_PCOD9324566
_publ_section_title
;
Structure prediction by ZEFSAII (Michael W. Deem and Ramdas Pophale) SiO2 
 PCOD9324566
Probable space group: C 2 2 2
;
_chemical_formula_sum "Si O2"
_cell_formula_units_Z 40
_cell_length_a 13.409290
_cell_length_b 9.126260
_cell_length_c 15.875098
_cell_angle_alpha 90.000000
_cell_angle_beta 90.000000
_cell_angle_gamma 90.000000
_cell_volume 1942.741581
_symmetry_space_group_name_H-M "C 2 2 2"
_symmetry_group_IT_number 21
_symmetry_cell_setting 'orthorhombic'
loop_
_space_group_symop_operation_xyz
x,y,z
-x,-y,z
x,-y,-z
-x,y,-z
1/2+x,1/2+y,z
1/2-x,1/2-y,z
1/2+x,1/2-y,-z
1/2-x,1/2+y,-z
loop_
_atom_site_type_symbol
_atom_site_label
_atom_site_fract_x
_atom_site_fract_y
_atom_site_fract_z
Si Si1 0.702166 0.413669 0.912646
Si Si2 0.250000 0.750000 0.634297
Si Si3 0.705919 0.978720 0.752569
Si Si4 0.616854 0.168715 0.492014
Si Si5 0.500000 0.500000 0.806512
Si Si6 0.108118 0.780697 0.304928
O O1 0.750000 0.250000 0.923952
O O2 0.781473 0.486849 0.849580
O O3 0.594291 0.443760 0.864474
O O4 0.696138 0.500000 0.000000
O O5 0.282060 0.880176 0.694993
O O6 0.340219 0.734137 0.567952
O O7 0.799376 0.878110 0.726367
O O8 0.610380 0.882702 0.732187
O O9 0.500000 0.152718 0.500000
O O10 0.627404 0.252286 0.403534
O O11 0.659037 0.000000 0.500000
O O12 0.519569 0.632849 0.740415
#
# Coordination Sequence:
#
# PCOD9324566 Si02
#       6
#     8   4   8   8   4   8
#     4  11  25  45  75 105 136 179 226 293 361 433
#     4  12  22  42  64  90 140 182 228 286 338 410
#     4  10  22  41  69  96 131 178 229 276 355 416
#     4  11  25  39  61  97 134 180 234 288 334 401
#     4  10  25  46  75 100 142 180 238 293 359 434
#     4  10  22  42  65  96 133 184 225 286 339 409
#
# _framework density 20.589461
#
# number of rings (size 3 to 8) (size 9 to 14) (size 15 to 20)
#    0.000    1.400    3.000    1.500   11.200    0.000 
#    0.000    0.000    0.000    0.000    0.000    0.000 
#    0.000    0.000    0.000    0.000    0.000    0.000 
#
# Total GULP energy -111334.446681 kJ/mol
# GULP energy per Si atom -5566.722334 kJ/mol
# Density = 2.054260 g / cm^3
# Si number density = 20.589461 Si / 1000 Ang^3
#
#
#
# Elastic Constant Matrix: (Units=GPa)
#
#
# Indices 1 2 3 4 5 6 
#
# 1 40.4729 30.3316 19.6286 0.0000 0.0000 0.0000
# 2 30.3316 135.6456 75.7830 0.0000 0.0000 0.0000
# 3 19.6286 75.7830 174.5142 0.0000 0.0000 0.0000
# 4 0.0000 0.0000 0.0000 47.7551 0.0000 0.0000
# 5 0.0000 0.0000 0.0000 0.0000 14.9318 0.0000
# 6 0.0000 0.0000 0.0000 0.0000 0.0000 33.7682
#
#
#
# Elastic Compliance Matrix: (Units=1/GPa)
#
#
# Indices 1 2 3 4 5 6 
#
# 1 0.029730 -0.006311 -0.000603 0.000000 0.000000 0.000000
# 2 -0.006311 0.011073 -0.004099 0.000000 0.000000 0.000000
# 3 -0.000603 -0.004099 0.007578 0.000000 0.000000 0.000000
# 4 0.000000 0.000000 0.000000 0.020940 0.000000 0.000000
# 5 0.000000 0.000000 0.000000 0.000000 0.066971 0.000000
# 6 0.000000 0.000000 0.000000 0.000000 0.000000 0.029614
#
#
# Mechanical properties :
#
#
# Convention : Reuss Voigt Hill
#
# Bulk Modulus (GPa) = 37.94311 66.90211 52.42261
# Shear Modulus (GPa) = 25.41722 34.28366 29.85044
#
# Velocity S-wave (km/s) = 3.51732 4.08500 3.81174
# Velocity P-wave (km/s) = 5.91302 7.40362 6.69990
#
# Compressibility (1/GPa) = 0.02635525
#
# Stress axis : x y z
#
# Youngs Moduli (GPa) = 33.63606 90.30812 131.96182
#
# Poissons Ratio (x) = 0.56991 0.07963
# Poissons Ratio (y) = 0.21227 0.54088
# Poissons Ratio (z) = 0.02030 0.37015
#
# Static dielectric constant tensor:
#      x y z
#    x 1.835830 0.000000 0.000000 
#    y 0.000000 1.820740 0.000000 
#    z 0.000000 0.000000 1.728980 
# 
# From -- ./inp_files/32138.got.cif
#   From: 2010.05.17/outbox.cif.g08.bks.cpg/sg21_17_cif.got.tgz:32138.got - 2010.06.03 23:14:55.
