data_PCOD9324591
_publ_section_title
;
Structure prediction by ZEFSAII (Michael W. Deem and Ramdas Pophale) SiO2 
 PCOD9324591
Probable space group: C 2 2 2
;
_chemical_formula_sum "Si O2"
_cell_formula_units_Z 48
_cell_length_a 16.253436
_cell_length_b 10.484419
_cell_length_c 13.351466
_cell_angle_alpha 90.000000
_cell_angle_beta 90.000000
_cell_angle_gamma 90.000000
_cell_volume 2275.194391
_symmetry_space_group_name_H-M "C 2 2 2"
_symmetry_group_IT_number 21
_symmetry_cell_setting 'orthorhombic'
loop_
_space_group_symop_operation_xyz
x,y,z
-x,-y,z
x,-y,-z
-x,y,-z
1/2+x,1/2+y,z
1/2-x,1/2-y,z
1/2+x,1/2-y,-z
1/2-x,1/2+y,-z
loop_
_atom_site_type_symbol
_atom_site_label
_atom_site_fract_x
_atom_site_fract_y
_atom_site_fract_z
Si Si1 0.312522 0.132346 0.449115
Si Si2 0.096630 0.518373 0.740199
Si Si3 0.847185 0.728255 0.648394
Si Si4 0.814692 0.862038 0.965215
Si Si5 0.060290 0.696194 0.908943
Si Si6 0.943802 0.877414 0.788040
O O1 0.250000 0.250000 0.431537
O O2 0.358806 0.099332 0.346730
O O3 0.371996 0.178532 0.538928
O O4 0.276745 0.000000 0.500000
O O5 0.137707 0.380505 0.730915
O O6 0.103067 0.581714 0.849285
O O7 0.000000 0.500000 0.718092
O O8 0.750000 0.750000 0.644152
O O9 0.900024 0.846574 0.683986
O O10 0.750000 0.750000 0.943574
O O11 0.871819 0.889486 0.869692
O O12 0.875512 0.798933 0.047942
O O13 0.781100 0.000000 0.000000
O O14 0.003094 0.764844 0.826723
O O15 0.000000 0.657520 0.000000
O O16 0.000000 0.000000 0.784453
#
# Coordination Sequence:
#
# PCOD9324591 Si02
#       6
#     8   8   8   8   8   8
#     4   9  21  43  68  96 138 178 216 275 339 397
#     4  11  22  43  68 100 128 173 223 273 331 396
#     4  10  22  42  66  97 132 175 217 271 339 396
#     4  11  24  42  65  96 130 177 223 275 334 401
#     4  10  23  42  66  96 132 169 220 276 333 393
#     4  11  21  42  67  91 129 178 217 267 338 401
#
# _framework density 21.097100000000001
#
# number of rings (size 3 to 8) (size 9 to 14) (size 15 to 20)
#    0.000    1.667    3.333    0.500    0.000    6.667 
#    9.000    0.000    0.000    1.000    0.000    0.000 
#    0.000    0.000    0.000    0.000    0.000    0.000 
#
# Total GULP energy -134009.770753 kJ/mol
# GULP energy per Si atom -5583.740448 kJ/mol
# Density = 2.104908 g / cm^3
# Si number density = 21.097100 Si / 1000 Ang^3
#
#
#
# Elastic Constant Matrix: (Units=GPa)
#
#
# Indices 1 2 3 4 5 6 
#
# 1 74.7077 54.0811 31.8985 0.0000 0.0000 0.0000
# 2 54.0811 120.6299 49.8940 0.0000 0.0000 0.0000
# 3 31.8985 49.8940 83.1692 0.0000 0.0000 0.0000
# 4 0.0000 0.0000 0.0000 21.6124 0.0000 0.0000
# 5 0.0000 0.0000 0.0000 0.0000 22.2043 0.0000
# 6 0.0000 0.0000 0.0000 0.0000 0.0000 47.7403
#
#
#
# Elastic Compliance Matrix: (Units=1/GPa)
#
#
# Indices 1 2 3 4 5 6 
#
# 1 0.020404 -0.007861 -0.003110 0.000000 0.000000 0.000000
# 2 -0.007861 0.014055 -0.005416 0.000000 0.000000 0.000000
# 3 -0.003110 -0.005416 0.016466 0.000000 0.000000 0.000000
# 4 0.000000 0.000000 0.000000 0.046270 0.000000 0.000000
# 5 0.000000 0.000000 0.000000 0.000000 0.045036 0.000000
# 6 0.000000 0.000000 0.000000 0.000000 0.000000 0.020947
#
#
# Mechanical properties :
#
#
# Convention : Reuss Voigt Hill
#
# Bulk Modulus (GPa) = 55.09757 61.13933 58.11845
# Shear Modulus (GPa) = 24.75228 27.82029 26.28629
#
# Velocity S-wave (km/s) = 3.42900 3.63530 3.53366
# Velocity P-wave (km/s) = 6.46918 6.83106 6.65258
#
# Compressibility (1/GPa) = 0.01814962
#
# Stress axis : x y z
#
# Youngs Moduli (GPa) = 49.00957 71.15141 60.73272
#
# Poissons Ratio (x) = 0.55936 0.18885
# Poissons Ratio (y) = 0.38529 0.32894
# Poissons Ratio (z) = 0.15240 0.38538
#
# Static dielectric constant tensor:
#      x y z
#    x 1.753850 0.000000 0.000000 
#    y 0.000000 1.881180 0.000000 
#    z 0.000000 0.000000 1.762910 
# 
# From -- ./inp_files/32238.got.cif
#   From: 2010.05.17/outbox.cif.g08.bks.cpg/sg21_17_cif.got.tgz:32238.got - 2010.06.03 23:14:55.
