data_PCOD9324628
_publ_section_title
;
Structure prediction by ZEFSAII (Michael W. Deem and Ramdas Pophale) SiO2 
 PCOD9324628
Probable space group: C 2 2 2
;
_chemical_formula_sum "Si O2"
_cell_formula_units_Z 30
_cell_length_a 13.104318
_cell_length_b 5.400859
_cell_length_c 16.877495
_cell_angle_alpha 90.000000
_cell_angle_beta 90.000000
_cell_angle_gamma 90.000000
_cell_volume 1194.497516
_symmetry_space_group_name_H-M "C 2 2 2"
_symmetry_group_IT_number 21
_symmetry_cell_setting 'orthorhombic'
loop_
_space_group_symop_operation_xyz
x,y,z
-x,-y,z
x,-y,-z
-x,y,-z
1/2+x,1/2+y,z
1/2-x,1/2-y,z
1/2+x,1/2-y,-z
1/2-x,1/2+y,-z
loop_
_atom_site_type_symbol
_atom_site_label
_atom_site_fract_x
_atom_site_fract_y
_atom_site_fract_z
Si Si1 0.872777 0.247477 0.047638
Si Si2 0.363219 0.368458 0.778306
Si Si3 0.901800 0.353544 0.381207
Si Si4 0.500000 0.500000 0.500000
Si Si5 0.750000 0.750000 0.316421
O O1 0.750000 0.250000 0.053529
O O2 0.910726 0.199697 0.137194
O O3 0.897932 0.500000 0.000000
O O4 0.897180 0.000000 0.000000
O O5 0.250000 0.250000 0.780041
O O6 0.421971 0.244383 0.706881
O O7 0.335696 0.640665 0.744166
O O8 0.803389 0.534136 0.369643
O O9 0.000000 0.500000 0.408080
O O10 0.916060 0.128823 0.441471
#
# Coordination Sequence:
#
# PCOD9324628 Si02
#       5
#     8   8   8   2   4
#     4   9  18  29  53  96 144 189 238 300 358 433
#     4   9  20  36  65 100 141 189 242 297 367 442
#     4  11  24  45  78 102 146 190 251 305 385 461
#     4  12  26  48  76 110 142 200 248 328 394 476
#     4  10  22  42  76 110 140 196 256 304 370 480
#
# _framework density 25.115164
#
# number of rings (size 3 to 8) (size 9 to 14) (size 15 to 20)
#    0.000    2.133    0.000    2.000   13.067    0.000 
#    0.000    0.000  132.000    0.800    0.000    0.000 
#    0.000    0.000    0.000    0.000    0.000    0.000 
#
# Total GULP energy -83597.341224 kJ/mol
# GULP energy per Si atom -5573.156082 kJ/mol
# Density = 2.505800 g / cm^3
# Si number density = 25.115164 Si / 1000 Ang^3
#
#
#
# Elastic Constant Matrix: (Units=GPa)
#
#
# Indices 1 2 3 4 5 6 
#
# 1 90.6809 28.1602 44.6436 0.0000 0.0000 0.0000
# 2 28.1602 152.9105 100.8899 0.0000 0.0000 0.0000
# 3 44.6436 100.8899 248.1896 0.0000 0.0000 0.0000
# 4 0.0000 0.0000 0.0000 -1.6226 0.0000 0.0000
# 5 0.0000 0.0000 0.0000 0.0000 44.1142 0.0000
# 6 0.0000 0.0000 0.0000 0.0000 0.0000 162.1525
#
#
#
# Elastic Compliance Matrix: (Units=1/GPa)
#
#
# Indices 1 2 3 4 5 6 
#
# 1 0.012232 -0.001094 -0.001755 0.000000 0.000000 0.000000
# 2 -0.001094 0.009035 -0.003476 0.000000 0.000000 0.000000
# 3 -0.001755 -0.003476 0.005758 0.000000 0.000000 0.000000
# 4 0.000000 0.000000 0.000000 -0.616310 0.000000 0.000000
# 5 0.000000 0.000000 0.000000 0.000000 0.022668 0.000000
# 6 0.000000 0.000000 0.000000 0.000000 0.000000 0.006167
#
#
# Mechanical properties :
#
#
# Convention : Reuss Voigt Hill
#
# Bulk Modulus (GPa) = 69.57419 93.24093 81.40756
# Shear Modulus (GPa) = -9.20796 62.13465 26.46334
#
# Velocity S-wave (km/s) = -1.91683 4.97932 3.24957
# Velocity P-wave (km/s) = 4.78155 8.38237 6.82376
#
# Compressibility (1/GPa) = 0.01437315
#
# Stress axis : x y z
#
# Youngs Moduli (GPa) = 81.75464 110.68553 173.67712
#
# Poissons Ratio (x) = 0.12114 0.30486
# Poissons Ratio (y) = 0.08948 0.60365
# Poissons Ratio (z) = 0.14350 0.38471
#
# Static dielectric constant tensor:
#      x y z
#    x 2.048450 0.000000 0.000000 
#    y 0.000000 2.162740 0.000000 
#    z 0.000000 0.000000 1.876170 
# 
# From -- ./inp_files/32560.got.cif
#   From: 2010.05.17/outbox.cif.g08.bks.cpg/sg21_17_cif.got.tgz:32560.got - 2010.06.03 23:14:55.
