data_PCOD9324183
_publ_section_title
;
Structure prediction by ZEFSAII (Michael W. Deem and Ramdas Pophale) SiO2 
 PCOD9324183
Probable space group: C 2 2 2
;
_chemical_formula_sum "Si O2"
_cell_formula_units_Z 38
_cell_length_a 14.505553
_cell_length_b 13.350681
_cell_length_c 9.378337
_cell_angle_alpha 90.000000
_cell_angle_beta 90.000000
_cell_angle_gamma 90.000000
_cell_volume 1816.199467
_symmetry_space_group_name_H-M "C 2 2 2"
_symmetry_group_IT_number 21
_symmetry_cell_setting 'orthorhombic'
loop_
_space_group_symop_operation_xyz
x,y,z
-x,-y,z
x,-y,-z
-x,y,-z
1/2+x,1/2+y,z
1/2-x,1/2-y,z
1/2+x,1/2-y,-z
1/2-x,1/2+y,-z
loop_
_atom_site_type_symbol
_atom_site_label
_atom_site_fract_x
_atom_site_fract_y
_atom_site_fract_z
Si Si1 0.299020 0.007854 0.840005
Si Si2 0.250000 0.750000 0.584677
Si Si3 0.170161 0.103925 0.642595
Si Si4 0.895879 0.298643 0.821896
Si Si5 0.500000 0.500000 0.500000
Si Si6 0.612674 0.775107 0.855508
O O1 0.221688 0.011639 0.718862
O O2 0.349715 0.114016 0.826041
O O3 0.369903 0.916417 0.826107
O O4 0.259054 0.000000 0.000000
O O5 0.230566 0.844645 0.481722
O O6 0.162176 0.742075 0.689429
O O7 0.156902 0.189485 0.760881
O O8 0.070485 0.068488 0.589295
O O9 0.004454 0.279769 0.818280
O O10 0.868364 0.255168 0.977097
#
# Coordination Sequence:
#
# PCOD9324183 Si02
#       6
#     8   4   8   8   2   8
#     4  10  21  40  69  96 127 169 225 279 330 396
#     4  12  24  40  70  94 138 182 222 268 348 408
#     4  12  24  46  66  95 134 182 218 275 340 400
#     4  10  23  38  67  99 130 169 227 273 336 396
#     4  12  28  44  66  96 148 172 226 280 344 400
#     4  10  21  43  67  96 131 174 221 282 330 396
#
# _framework density 20.922812
#
# number of rings (size 3 to 8) (size 9 to 14) (size 15 to 20)
#    0.000    1.263    2.105    3.158    5.895    2.526 
#    3.789    0.000    4.632    0.000    0.000    0.000 
#    0.000    0.000    0.000    0.000    0.000    0.000 
#
# Total GULP energy -106200.736825 kJ/mol
# GULP energy per Si atom -5589.512464 kJ/mol
# Density = 2.087519 g / cm^3
# Si number density = 20.922812 Si / 1000 Ang^3
#
#
#
# Elastic Constant Matrix: (Units=GPa)
#
#
# Indices 1 2 3 4 5 6 
#
# 1 108.5140 11.2807 59.8959 0.0000 0.0000 0.0000
# 2 11.2807 73.8069 52.6487 0.0000 0.0000 0.0000
# 3 59.8959 52.6487 131.4795 0.0000 0.0000 0.0000
# 4 0.0000 0.0000 0.0000 45.8514 0.0000 0.0000
# 5 0.0000 0.0000 0.0000 0.0000 36.1308 0.0000
# 6 0.0000 0.0000 0.0000 0.0000 0.0000 35.4876
#
#
#
# Elastic Compliance Matrix: (Units=1/GPa)
#
#
# Indices 1 2 3 4 5 6 
#
# 1 0.012793 0.003082 -0.007062 0.000000 0.000000 0.000000
# 2 0.003082 0.019709 -0.009296 0.000000 0.000000 0.000000
# 3 -0.007062 -0.009296 0.014546 0.000000 0.000000 0.000000
# 4 0.000000 0.000000 0.000000 0.021810 0.000000 0.000000
# 5 0.000000 0.000000 0.000000 0.000000 0.027677 0.000000
# 6 0.000000 0.000000 0.000000 0.000000 0.000000 0.028179
#
#
# Mechanical properties :
#
#
# Convention : Reuss Voigt Hill
#
# Bulk Modulus (GPa) = 48.79157 62.38343 55.58750
# Shear Modulus (GPa) = 31.62606 36.15898 33.89252
#
# Velocity S-wave (km/s) = 3.89209 4.16168 4.02914
# Velocity P-wave (km/s) = 6.60063 7.27829 6.94773
#
# Compressibility (1/GPa) = 0.02049534
#
# Stress axis : x y z
#
# Youngs Moduli (GPa) = 78.16742 50.73790 68.74969
#
# Poissons Ratio (x) = -0.15639 0.48552
# Poissons Ratio (y) = -0.24094 0.63912
# Poissons Ratio (z) = 0.55203 0.47168
#
# Static dielectric constant tensor:
#      x y z
#    x 1.743010 0.000000 0.000000 
#    y 0.000000 1.737980 0.000000 
#    z 0.000000 0.000000 1.773920 
# 
# From -- ./inp_files/14438.got.cif
#   From: 2010.05.17/outbox.cif.g08.bks.cpg/sg21_8_cif.got.tgz:14438.got - 2010.06.03 23:14:55.
