data_PCOD9324415
_publ_section_title
;
Structure prediction by ZEFSAII (Michael W. Deem and Ramdas Pophale) SiO2 
 PCOD9324415
Probable space group: C 2 2 2
;
_chemical_formula_sum "Si O2"
_cell_formula_units_Z 42
_cell_length_a 20.305208
_cell_length_b 16.965523
_cell_length_c 6.030475
_cell_angle_alpha 90.000000
_cell_angle_beta 90.000000
_cell_angle_gamma 90.000000
_cell_volume 2077.429126
_symmetry_space_group_name_H-M "C 2 2 2"
_symmetry_group_IT_number 21
_symmetry_cell_setting 'orthorhombic'
loop_
_space_group_symop_operation_xyz
x,y,z
-x,-y,z
x,-y,-z
-x,y,-z
1/2+x,1/2+y,z
1/2-x,1/2-y,z
1/2+x,1/2-y,-z
1/2-x,1/2+y,-z
loop_
_atom_site_type_symbol
_atom_site_label
_atom_site_fract_x
_atom_site_fract_y
_atom_site_fract_z
Si Si1 0.928958 0.422584 0.387023
Si Si2 0.500000 0.000000 0.000000
Si Si3 0.676070 0.640644 0.228093
Si Si4 0.630545 0.500000 0.500000
Si Si5 0.433953 0.612951 0.142308
Si Si6 0.626916 0.248762 0.385236
Si Si7 0.750000 0.250000 0.052453
O O1 0.897244 0.500000 0.500000
O O2 0.950833 0.445715 0.140907
O O3 0.892033 0.341436 0.413119
O O4 0.000000 0.412396 0.500000
O O5 0.676813 0.564749 0.384446
O O6 0.648487 0.710236 0.385696
O O7 0.740390 0.674231 0.106576
O O8 0.624263 0.618260 0.037289
O O9 0.584824 0.454854 0.319782
O O10 0.430038 0.695494 0.278608
O O11 0.500000 0.601984 0.000000
O O12 0.687090 0.249288 0.211394
#
# Coordination Sequence:
#
# PCOD9324415 Si02
#       7
#     8   2   8   4   8   8   4
#     4   9  20  35  61  93 126 159 198 257 323 374
#     4   8  18  36  56  86 132 160 188 252 322 378
#     4  10  22  40  65  86 125 167 211 265 318 376
#     4  10  22  41  62  92 132 166 212 261 318 392
#     4  10  23  37  62 100 126 171 204 257 325 384
#     4  10  22  38  66  90 125 163 217 262 313 386
#     4  10  22  42  64  86 118 172 218 262 316 372
#
# _framework density 20.217296999999999
#
# number of rings (size 3 to 8) (size 9 to 14) (size 15 to 20)
#    0.000    2.476    0.000    1.143    4.000    9.143 
#    0.000    0.000   67.048    0.000    0.000    0.000 
#    0.000    0.000    0.000    0.000    0.000    0.000 
#
# Total GULP energy -117145.888174 kJ/mol
# GULP energy per Si atom -5578.375627 kJ/mol
# Density = 2.017128 g / cm^3
# Si number density = 20.217297 Si / 1000 Ang^3
#
#
#
# Elastic Constant Matrix: (Units=GPa)
#
#
# Indices 1 2 3 4 5 6 
#
# 1 49.4319 36.9615 30.1721 0.0000 0.0000 0.0000
# 2 36.9615 182.7745 66.9101 0.0000 0.0000 0.0000
# 3 30.1721 66.9101 122.6782 0.0000 0.0000 0.0000
# 4 0.0000 0.0000 0.0000 57.0966 0.0000 0.0000
# 5 0.0000 0.0000 0.0000 0.0000 10.8741 0.0000
# 6 0.0000 0.0000 0.0000 0.0000 0.0000 21.6670
#
#
#
# Elastic Compliance Matrix: (Units=1/GPa)
#
#
# Indices 1 2 3 4 5 6 
#
# 1 0.025551 -0.003582 -0.004331 0.000000 0.000000 0.000000
# 2 -0.003582 0.007338 -0.003121 0.000000 0.000000 0.000000
# 3 -0.004331 -0.003121 0.010919 0.000000 0.000000 0.000000
# 4 0.000000 0.000000 0.000000 0.017514 0.000000 0.000000
# 5 0.000000 0.000000 0.000000 0.000000 0.091962 0.000000
# 6 0.000000 0.000000 0.000000 0.000000 0.000000 0.046153
#
#
# Mechanical properties :
#
#
# Convention : Reuss Voigt Hill
#
# Bulk Modulus (GPa) = 45.99643 69.21911 57.60777
# Shear Modulus (GPa) = 21.85767 32.65026 27.25397
#
# Velocity S-wave (km/s) = 3.29163 4.02302 3.67557
# Velocity P-wave (km/s) = 6.10302 7.47606 6.82416
#
# Compressibility (1/GPa) = 0.02174082
#
# Stress axis : x y z
#
# Youngs Moduli (GPa) = 39.13682 136.27251 91.58347
#
# Poissons Ratio (x) = 0.48809 0.39662
# Poissons Ratio (y) = 0.14018 0.28587
# Poissons Ratio (z) = 0.16949 0.42537
#
# Static dielectric constant tensor:
#      x y z
#    x 1.695730 0.000000 0.000000 
#    y 0.000000 1.822750 0.000000 
#    z 0.000000 0.000000 0.634030 
# 
# From -- ./inp_files/5851.got.cif
#   From: 2010.05.17/outbox.cif.g08.bks.cpg/sg21_3_cif.got.tgz:5851.got - 2010.06.03 23:14:55.
