data_PCOD9324063
_publ_section_title
;
Structure prediction by ZEFSAII (Michael W. Deem and Ramdas Pophale) SiO2 
 PCOD9324063
Probable space group: C 2 2 2
;
_chemical_formula_sum "Si O2"
_cell_formula_units_Z 24
_cell_length_a 7.061750
_cell_length_b 8.250858
_cell_length_c 17.130640
_cell_angle_alpha 90.000000
_cell_angle_beta 90.000000
_cell_angle_gamma 90.000000
_cell_volume 998.125245
_symmetry_space_group_name_H-M "C 2 2 2"
_symmetry_group_IT_number 21
_symmetry_cell_setting 'orthorhombic'
loop_
_space_group_symop_operation_xyz
x,y,z
-x,-y,z
x,-y,-z
-x,y,-z
1/2+x,1/2+y,z
1/2-x,1/2-y,z
1/2+x,1/2-y,-z
1/2-x,1/2+y,-z
loop_
_atom_site_type_symbol
_atom_site_label
_atom_site_fract_x
_atom_site_fract_y
_atom_site_fract_z
Si Si1 0.219117 0.440278 0.416949
Si Si2 0.280256 0.942990 0.250800
Si Si3 0.719841 0.943127 0.916843
O O1 0.296665 0.500000 0.500000
O O2 0.250000 0.250000 0.416651
O O3 0.297475 0.501017 0.334128
O O4 0.000000 0.500000 0.416989
O O5 0.250000 0.750000 0.249492
O O6 0.206316 0.008164 0.167000
O O7 0.500000 0.000000 0.251497
O O8 0.750000 0.750000 0.915864
O O9 0.500000 0.000000 0.917464
O O10 0.798188 0.000000 0.000000
#
# Coordination Sequence:
#
# PCOD9324063 Si02
#       3
#     8   8   8
#     4  10  21  39  61  87 118 154 194 240 290 346
#     4   9  18  35  57  84 115 151 192 238 288 343
#     4   9  18  34  57  83 115 151 192 238 288 343
#
# _framework density 24.045076999999999
#
# number of rings (size 3 to 8) (size 9 to 14) (size 15 to 20)
#    0.000    2.667    0.000    1.000    0.000    1.333 
#    0.000   26.667    0.000   36.000    0.000    0.000 
#    0.000    0.000    0.000    0.000    0.000    0.000 
#
# Total GULP energy -66897.754612 kJ/mol
# GULP energy per Si atom -5574.812884 kJ/mol
# Density = 2.399035 g / cm^3
# Si number density = 24.045077 Si / 1000 Ang^3
#
#
#
# Elastic Constant Matrix: (Units=GPa)
#
#
# Indices 1 2 3 4 5 6 
#
# 1 181.1330 36.5256 17.5280 0.0000 0.0000 0.0000
# 2 36.5256 140.9636 67.1712 0.0000 0.0000 0.0000
# 3 17.5280 67.1712 389.5413 0.0000 0.0000 0.0000
# 4 0.0000 0.0000 0.0000 52.4225 0.0000 0.0000
# 5 0.0000 0.0000 0.0000 0.0000 -69.3308 0.0000
# 6 0.0000 0.0000 0.0000 0.0000 0.0000 39.8709
#
#
#
# Elastic Compliance Matrix: (Units=1/GPa)
#
#
# Indices 1 2 3 4 5 6 
#
# 1 0.005825 -0.001508 -0.000002 0.000000 0.000000 0.000000
# 2 -0.001508 0.008120 -0.001332 0.000000 0.000000 0.000000
# 3 -0.000002 -0.001332 0.002797 0.000000 0.000000 0.000000
# 4 0.000000 0.000000 0.000000 0.019076 0.000000 0.000000
# 5 0.000000 0.000000 0.000000 0.000000 -0.014424 0.000000
# 6 0.000000 0.000000 0.000000 0.000000 0.000000 0.025081
#
#
# Mechanical properties :
#
#
# Convention : Reuss Voigt Hill
#
# Bulk Modulus (GPa) = 90.44493 106.00973 98.22733
# Shear Modulus (GPa) = 89.53217 43.95338 66.74277
#
# Velocity S-wave (km/s) = 6.10868 4.28010 5.27424
# Velocity P-wave (km/s) = 9.35153 8.28307 8.83347
#
# Compressibility (1/GPa) = 0.01105645
#
# Stress axis : x y z
#
# Youngs Moduli (GPa) = 171.66863 123.15679 357.53312
#
# Poissons Ratio (x) = 0.18577 0.00072
# Poissons Ratio (y) = 0.25895 0.47633
# Poissons Ratio (z) = 0.00034 0.16408
#
# Static dielectric constant tensor:
#      x y z
#    x 1.506820 0.000000 0.000000 
#    y 0.000000 1.848640 0.000000 
#    z 0.000000 0.000000 2.088460 
# 
# From -- ./inp_files/35339.got.cif
#   From: 2010.05.17/outbox.cif.g08.bks.cpg/sg21_18_cif.got.tgz:35339.got - 2010.06.03 23:14:55.
