data_PCOD9324432
_publ_section_title
;
Structure prediction by ZEFSAII (Michael W. Deem and Ramdas Pophale) SiO2 
 PCOD9324432
Probable space group: C 2 2 2
;
_chemical_formula_sum "Si O2"
_cell_formula_units_Z 40
_cell_length_a 10.980104
_cell_length_b 9.071509
_cell_length_c 18.729972
_cell_angle_alpha 90.000000
_cell_angle_beta 90.000000
_cell_angle_gamma 90.000000
_cell_volume 1865.619694
_symmetry_space_group_name_H-M "C 2 2 2"
_symmetry_group_IT_number 21
_symmetry_cell_setting 'orthorhombic'
loop_
_space_group_symop_operation_xyz
x,y,z
-x,-y,z
x,-y,-z
-x,y,-z
1/2+x,1/2+y,z
1/2-x,1/2-y,z
1/2+x,1/2-y,-z
1/2-x,1/2+y,-z
loop_
_atom_site_type_symbol
_atom_site_label
_atom_site_fract_x
_atom_site_fract_y
_atom_site_fract_z
Si Si1 0.657439 0.612691 0.564164
Si Si2 0.491926 0.240101 0.677220
Si Si3 0.299514 0.030600 0.306819
Si Si4 0.850076 0.880780 0.799415
Si Si5 0.624591 0.657571 0.963941
O O1 0.641003 0.500000 0.500000
O O2 0.750000 0.750000 0.547694
O O3 0.540203 0.687778 0.601167
O O4 0.712713 0.515558 0.628656
O O5 0.626628 0.178997 0.682162
O O6 0.455369 0.343738 0.742960
O O7 0.400148 0.101389 0.688018
O O8 0.226484 0.017117 0.232631
O O9 0.750000 0.750000 0.795285
O O10 0.895122 0.875428 0.880000
O O11 0.750000 0.750000 0.971755
O O12 0.644553 0.500000 0.000000
O O13 0.500000 0.721104 0.000000
#
# Coordination Sequence:
#
# PCOD9324432 Si02
#       5
#     8   8   8   8   8
#     4   9  17  30  50  76 112 153 192 243 305 364
#     4   8  14  27  50  81 112 146 198 252 296 351
#     4   8  14  27  50  81 109 144 199 253 298 351
#     4   8  15  29  52  81 114 153 199 250 297 353
#     4  10  22  39  59  89 129 168 207 254 312 378
#
# _framework density 21.440598000000001
#
# number of rings (size 3 to 8) (size 9 to 14) (size 15 to 20)
#    0.000    3.400    0.000    2.400    0.000    2.000 
#    0.000   12.000    0.000   16.800    0.000   22.400 
#    0.000    0.000    0.000    0.000    0.000    0.000 
#
# Total GULP energy -111618.653955 kJ/mol
# GULP energy per Si atom -5580.932698 kJ/mol
# Density = 2.139180 g / cm^3
# Si number density = 21.440598 Si / 1000 Ang^3
#
#
#
# Elastic Constant Matrix: (Units=GPa)
#
#
# Indices 1 2 3 4 5 6 
#
# 1 139.6741 59.3738 59.1950 0.0000 0.0000 0.0000
# 2 59.3738 89.3402 56.0817 0.0000 0.0000 0.0000
# 3 59.1950 56.0817 151.8495 0.0000 0.0000 0.0000
# 4 0.0000 0.0000 0.0000 28.9158 0.0000 0.0000
# 5 0.0000 0.0000 0.0000 0.0000 -124.5922 0.0000
# 6 0.0000 0.0000 0.0000 0.0000 0.0000 49.6123
#
#
#
# Elastic Compliance Matrix: (Units=1/GPa)
#
#
# Indices 1 2 3 4 5 6 
#
# 1 0.010406 -0.005688 -0.001956 0.000000 0.000000 0.000000
# 2 -0.005688 0.017680 -0.004312 0.000000 0.000000 0.000000
# 3 -0.001956 -0.004312 0.008941 0.000000 0.000000 0.000000
# 4 0.000000 0.000000 0.000000 0.034583 0.000000 0.000000
# 5 0.000000 0.000000 0.000000 0.000000 -0.008026 0.000000
# 6 0.000000 0.000000 0.000000 0.000000 0.000000 0.020156
#
#
# Mechanical properties :
#
#
# Convention : Reuss Voigt Hill
#
# Bulk Modulus (GPa) = 76.25140 81.12942 78.69041
# Shear Modulus (GPa) = 44.63284 4.53476 24.58380
#
# Velocity S-wave (km/s) = 4.56751 1.45589 3.38982
# Velocity P-wave (km/s) = 7.96602 6.38337 7.21820
#
# Compressibility (1/GPa) = 0.01311451
#
# Stress axis : x y z
#
# Youngs Moduli (GPa) = 96.09463 56.55976 111.84896
#
# Poissons Ratio (x) = 0.32172 0.21877
# Poissons Ratio (y) = 0.54660 0.48234
# Poissons Ratio (z) = 0.18796 0.24391
#
# Static dielectric constant tensor:
#      x y z
#    x 1.835930 0.000000 0.000000 
#    y 0.000000 1.854510 0.000000 
#    z 0.000000 0.000000 1.750910 
# 
# From -- ./inp_files/36041.got.cif
#   From: 2010.05.17/outbox.cif.g08.bks.cpg/sg21_19_cif.got.tgz:36041.got - 2010.06.03 23:14:55.
