data_PCOD9324518
_publ_section_title
;
Structure prediction by ZEFSAII (Michael W. Deem and Ramdas Pophale) SiO2 
 PCOD9324518
Probable space group: C 2 2 2
;
_chemical_formula_sum "Si O2"
_cell_formula_units_Z 28
_cell_length_a 5.402853
_cell_length_b 17.412000
_cell_length_c 13.862036
_cell_angle_alpha 90.000000
_cell_angle_beta 90.000000
_cell_angle_gamma 90.000000
_cell_volume 1304.063779
_symmetry_space_group_name_H-M "C 2 2 2"
_symmetry_group_IT_number 21
_symmetry_cell_setting 'orthorhombic'
loop_
_space_group_symop_operation_xyz
x,y,z
-x,-y,z
x,-y,-z
-x,y,-z
1/2+x,1/2+y,z
1/2-x,1/2-y,z
1/2+x,1/2-y,-z
1/2-x,1/2+y,-z
loop_
_atom_site_type_symbol
_atom_site_label
_atom_site_fract_x
_atom_site_fract_y
_atom_site_fract_z
Si Si1 0.249686 0.549386 0.135288
Si Si2 0.390624 0.167622 0.708936
Si Si3 0.500000 0.801262 0.500000
Si Si4 0.750000 0.250000 0.837909
Si Si5 0.500000 0.656329 0.000000
O O1 0.500000 0.500000 0.137063
O O2 0.245270 0.602251 0.231095
O O3 0.000000 0.500000 0.133079
O O4 0.280964 0.602830 0.040407
O O5 0.250000 0.250000 0.709510
O O6 0.450786 0.151704 0.597703
O O7 0.635541 0.185307 0.770314
O O8 0.250000 0.750000 0.516137
O O9 0.561137 0.290119 0.910114
#
# Coordination Sequence:
#
# PCOD9324518 Si02
#       5
#     8   8   4   4   4
#     4  12  28  46  67  99 145 188 227 278 340 408
#     4  11  23  45  71 101 134 175 230 289 340 405
#     4  10  22  40  75 106 131 166 226 290 346 398
#     4  12  22  42  68 104 134 174 234 302 326 398
#     4  12  25  42  68 100 137 190 232 280 335 404
#
# _framework density 21.471342
#
# number of rings (size 3 to 8) (size 9 to 14) (size 15 to 20)
#    0.000    0.571    4.286    3.857    0.000    6.857 
#    0.000    0.714    0.000    5.143    0.000    0.000 
#    0.000    0.000    0.000    0.000    0.000    0.000 
#
# Total GULP energy -78309.140450 kJ/mol
# GULP energy per Si atom -5593.510032 kJ/mol
# Density = 2.142247 g / cm^3
# Si number density = 21.471342 Si / 1000 Ang^3
#
#
#
# Elastic Constant Matrix: (Units=GPa)
#
#
# Indices 1 2 3 4 5 6 
#
# 1 104.0207 31.6717 23.0744 0.0000 0.0000 0.0000
# 2 31.6717 66.3509 33.4044 0.0000 0.0000 0.0000
# 3 23.0744 33.4044 175.1891 0.0000 0.0000 0.0000
# 4 0.0000 0.0000 0.0000 26.5637 0.0000 0.0000
# 5 0.0000 0.0000 0.0000 0.0000 35.0132 0.0000
# 6 0.0000 0.0000 0.0000 0.0000 0.0000 32.3876
#
#
#
# Elastic Compliance Matrix: (Units=1/GPa)
#
#
# Indices 1 2 3 4 5 6 
#
# 1 0.011289 -0.005133 -0.000508 0.000000 0.000000 0.000000
# 2 -0.005133 0.019006 -0.002948 0.000000 0.000000 0.000000
# 3 -0.000508 -0.002948 0.006337 0.000000 0.000000 0.000000
# 4 0.000000 0.000000 0.000000 0.037645 0.000000 0.000000
# 5 0.000000 0.000000 0.000000 0.000000 0.028561 0.000000
# 6 0.000000 0.000000 0.000000 0.000000 0.000000 0.030876
#
#
# Mechanical properties :
#
#
# Convention : Reuss Voigt Hill
#
# Bulk Modulus (GPa) = 51.40331 57.98463 54.69397
# Shear Modulus (GPa) = 31.77105 35.95361 33.86233
#
# Velocity S-wave (km/s) = 3.85085 4.09650 3.97557
# Velocity P-wave (km/s) = 6.61547 7.03131 6.82656
#
# Compressibility (1/GPa) = 0.01945400
#
# Stress axis : x y z
#
# Youngs Moduli (GPa) = 88.58176 52.61622 157.80000
#
# Poissons Ratio (x) = 0.27007 0.08019
# Poissons Ratio (y) = 0.45467 0.46517
# Poissons Ratio (z) = 0.04502 0.15510
#
# Static dielectric constant tensor:
#      x y z
#    x 1.841080 0.000000 0.000000 
#    y 0.000000 1.812140 0.000000 
#    z 0.000000 0.000000 1.750140 
# 
# From -- ./inp_files/20500.got.cif
#   From: 2010.05.17/outbox.cif.g08.bks.cpg/sg21_11_cif.got.tgz:20500.got - 2010.06.03 23:14:55.
