data_PCOD9324725
_publ_section_title
;
Structure prediction by ZEFSAII (Michael W. Deem and Ramdas Pophale) SiO2 
 PCOD9324725
Probable space group: C 2 2 2
;
_chemical_formula_sum "Si O2"
_cell_formula_units_Z 30
_cell_length_a 5.757720
_cell_length_b 19.444820
_cell_length_c 12.248506
_cell_angle_alpha 90.000000
_cell_angle_beta 90.000000
_cell_angle_gamma 90.000000
_cell_volume 1371.316140
_symmetry_space_group_name_H-M "C 2 2 2"
_symmetry_group_IT_number 21
_symmetry_cell_setting 'orthorhombic'
loop_
_space_group_symop_operation_xyz
x,y,z
-x,-y,z
x,-y,-z
-x,y,-z
1/2+x,1/2+y,z
1/2-x,1/2-y,z
1/2+x,1/2-y,-z
1/2-x,1/2+y,-z
loop_
_atom_site_type_symbol
_atom_site_label
_atom_site_fract_x
_atom_site_fract_y
_atom_site_fract_z
Si Si1 0.363582 0.398931 0.611879
Si Si2 0.706270 0.598653 0.178229
Si Si3 0.750000 0.250000 0.799798
Si Si4 0.000000 0.000000 0.000000
Si Si5 0.250000 0.750000 0.327564
Si Si6 0.500000 0.000000 0.312660
O O1 0.500000 0.402957 0.500000
O O2 0.514989 0.401660 0.723996
O O3 0.248147 0.322959 0.610340
O O4 0.198951 0.464758 0.618033
O O5 0.745361 0.676666 0.140560
O O6 0.923216 0.563288 0.236639
O O7 0.641237 0.549757 0.079317
O O8 0.501531 0.249185 0.734928
#
# Coordination Sequence:
#
# PCOD9324725 Si02
#       6
#     8   8   4   2   4   4
#     4  11  25  44  74 107 153 194 246 306 378 454
#     4  11  25  45  71 106 146 193 251 314 373 448
#     4  10  22  47  75 106 150 196 253 313 374 456
#     4  12  24  50  70 104 150 198 256 324 380 434
#     4  10  22  45  73 110 150 198 249 305 374 464
#     4  12  22  48  70 110 140 199 243 308 376 452
#
# _framework density 21.876791999999998
#
# number of rings (size 3 to 8) (size 9 to 14) (size 15 to 20)
#    0.000    1.067    5.333    0.000    0.000    9.067 
#    0.000    8.000    0.000    0.000    0.000    0.000 
#    0.000    0.000    0.000    0.000    0.000    0.000 
#
# Total GULP energy -83721.004900 kJ/mol
# GULP energy per Si atom -5581.400327 kJ/mol
# Density = 2.182700 g / cm^3
# Si number density = 21.876792 Si / 1000 Ang^3
#
#
#
# Elastic Constant Matrix: (Units=GPa)
#
#
# Indices 1 2 3 4 5 6 
#
# 1 71.5738 22.9276 23.2996 0.0000 0.0000 0.0000
# 2 22.9276 203.7837 50.7444 0.0000 0.0000 0.0000
# 3 23.2996 50.7444 99.0845 0.0000 0.0000 0.0000
# 4 0.0000 0.0000 0.0000 27.5647 0.0000 0.0000
# 5 0.0000 0.0000 0.0000 0.0000 -17.3058 0.0000
# 6 0.0000 0.0000 0.0000 0.0000 0.0000 40.5804
#
#
#
# Elastic Compliance Matrix: (Units=1/GPa)
#
#
# Indices 1 2 3 4 5 6 
#
# 1 0.015287 -0.000945 -0.003111 0.000000 0.000000 0.000000
# 2 -0.000945 0.005683 -0.002688 0.000000 0.000000 0.000000
# 3 -0.003111 -0.002688 0.012201 0.000000 0.000000 0.000000
# 4 0.000000 0.000000 0.000000 0.036278 0.000000 0.000000
# 5 0.000000 0.000000 0.000000 0.000000 -0.057784 0.000000
# 6 0.000000 0.000000 0.000000 0.000000 0.000000 0.024642
#
#
# Mechanical properties :
#
#
# Convention : Reuss Voigt Hill
#
# Bulk Modulus (GPa) = 50.80691 63.15389 56.98040
# Shear Modulus (GPa) = 88.72178 28.66588 58.69383
#
# Velocity S-wave (km/s) = 6.37521 3.62378 5.18532
# Velocity P-wave (km/s) = 8.80145 6.81467 7.87100
#
# Compressibility (1/GPa) = 0.01968236
#
# Stress axis : x y z
#
# Youngs Moduli (GPa) = 65.41493 175.96675 81.96379
#
# Poissons Ratio (x) = 0.16635 0.25495
# Poissons Ratio (y) = 0.06184 0.22033
# Poissons Ratio (z) = 0.20348 0.47302
#
# Static dielectric constant tensor:
#      x y z
#    x 2.006690 0.000000 0.000000 
#    y 0.000000 1.799020 0.000000 
#    z 0.000000 0.000000 1.844320 
# 
# From -- ./inp_files/20738.got.cif
#   From: 2010.05.17/outbox.cif.g08.bks.cpg/sg21_11_cif.got.tgz:20738.got - 2010.06.03 23:14:55.
