data_PCOD9324580
_publ_section_title
;
Structure prediction by ZEFSAII (Michael W. Deem and Ramdas Pophale) SiO2 
 PCOD9324580
Probable space group: C 2 2 2
;
_chemical_formula_sum "Si O2"
_cell_formula_units_Z 56
_cell_length_a 16.701159
_cell_length_b 5.199763
_cell_length_c 30.958079
_cell_angle_alpha 90.000000
_cell_angle_beta 90.000000
_cell_angle_gamma 90.000000
_cell_volume 2688.463621
_symmetry_space_group_name_H-M "C 2 2 2"
_symmetry_group_IT_number 21
_symmetry_cell_setting 'orthorhombic'
loop_
_space_group_symop_operation_xyz
x,y,z
-x,-y,z
x,-y,-z
-x,y,-z
1/2+x,1/2+y,z
1/2-x,1/2-y,z
1/2+x,1/2-y,-z
1/2-x,1/2+y,-z
loop_
_atom_site_type_symbol
_atom_site_label
_atom_site_fract_x
_atom_site_fract_y
_atom_site_fract_z
Si Si1 0.804382 0.000000 0.500000
Si Si2 0.943599 0.249811 0.115776
Si Si3 0.557577 0.750370 0.440404
Si Si4 0.653759 0.249105 0.027745
Si Si5 0.915112 0.860368 0.791342
Si Si6 0.802680 0.000681 0.719945
Si Si7 0.000000 0.500000 0.273846
Si Si8 0.420486 0.659962 0.654217
O O1 0.750000 0.750000 0.516360
O O2 0.865785 0.841984 0.468481
O O3 0.888191 0.260886 0.073919
O O4 0.893861 0.227662 0.160625
O O5 0.000000 0.500000 0.118999
O O6 0.000000 0.000000 0.111315
O O7 0.500000 0.500000 0.442814
O O8 0.592715 0.792612 0.391741
O O9 0.500000 0.000000 0.450592
O O10 0.750000 0.250000 0.033208
O O11 0.631300 0.500000 0.000000
O O12 0.631201 0.000000 0.000000
O O13 0.853477 0.028353 0.764156
O O14 0.938242 0.639903 0.757625
O O15 0.000000 0.000000 0.796625
O O16 0.750000 0.750000 0.725457
O O17 0.750000 0.250000 0.713850
O O18 0.854407 0.979429 0.675964
O O19 0.944766 0.659578 0.306177
O O20 0.500000 0.500000 0.646510
#
# Coordination Sequence:
#
# PCOD9324580 Si02
#       8
#     4   8   8   8   8   8   4   8
#     4  12  27  48  73 104 150 192 216 284 377 418
#     4  11  24  39  63  97 122 160 214 275 323 371
#     4  11  25  45  75 107 134 178 243 288 323 411
#     4  10  22  42  64  87 123 168 206 254 326 399
#     4  11  23  40  64  89 129 178 222 265 322 403
#     4  12  26  39  60  95 137 176 220 275 332 389
#     4  12  16  40  72  88 130 174 226 260 322 388
#     4  11  23  40  69  98 129 180 228 275 330 387
#
# _framework density 20.829740999999999
#
# number of rings (size 3 to 8) (size 9 to 14) (size 15 to 20)
#    0.000    0.857    4.286    2.786    0.000    4.000 
#    0.000    2.143    0.000    0.000    0.000    0.000 
#    0.000    0.000    0.000    0.000    0.000    0.000 
#
# Total GULP energy -156182.923066 kJ/mol
# GULP energy per Si atom -5577.961538 kJ/mol
# Density = 2.078233 g / cm^3
# Si number density = 20.829741 Si / 1000 Ang^3
#
#
#
# Elastic Constant Matrix: (Units=GPa)
#
#
# Indices 1 2 3 4 5 6 
#
# 1 71.9192 25.3634 52.3093 0.0000 0.0000 0.0000
# 2 25.3634 119.6503 40.3154 0.0000 0.0000 0.0000
# 3 52.3093 40.3154 183.7847 0.0000 0.0000 0.0000
# 4 0.0000 0.0000 0.0000 18.2569 0.0000 0.0000
# 5 0.0000 0.0000 0.0000 0.0000 -55.3366 0.0000
# 6 0.0000 0.0000 0.0000 0.0000 0.0000 27.8363
#
#
#
# Elastic Compliance Matrix: (Units=1/GPa)
#
#
# Indices 1 2 3 4 5 6 
#
# 1 0.018086 -0.002267 -0.004651 0.000000 0.000000 0.000000
# 2 -0.002267 0.009309 -0.001397 0.000000 0.000000 0.000000
# 3 -0.004651 -0.001397 0.007071 0.000000 0.000000 0.000000
# 4 0.000000 0.000000 0.000000 0.054774 0.000000 0.000000
# 5 0.000000 0.000000 0.000000 0.000000 -0.018071 0.000000
# 6 0.000000 0.000000 0.000000 0.000000 0.000000 0.035924
#
#
# Mechanical properties :
#
#
# Convention : Reuss Voigt Hill
#
# Bulk Modulus (GPa) = 56.06026 67.92562 61.99294
# Shear Modulus (GPa) = 38.55997 15.30903 26.93450
#
# Velocity S-wave (km/s) = 4.30722 2.71396 3.59984
# Velocity P-wave (km/s) = 7.19084 6.51931 6.86330
#
# Compressibility (1/GPa) = 0.01783795
#
# Stress axis : x y z
#
# Youngs Moduli (GPa) = 55.28991 107.42426 141.41873
#
# Poissons Ratio (x) = 0.24353 0.65767
# Poissons Ratio (y) = 0.12534 0.19753
# Poissons Ratio (z) = 0.25713 0.15005
#
# Static dielectric constant tensor:
#      x y z
#    x 1.831240 0.000000 0.000000 
#    y 0.000000 1.779050 0.000000 
#    z 0.000000 0.000000 1.827230 
# 
# From -- ./inp_files/39644.got.cif
#   From: 2010.05.17/outbox.cif.g08.bks.cpg/sg21_20_cif.got.tgz:39644.got - 2010.06.03 23:14:55.
