data_PCOD9324457
_publ_section_title
;
Structure prediction by ZEFSAII (Michael W. Deem and Ramdas Pophale) SiO2 
 PCOD9324457
Probable space group: C 2 2 2
;
_chemical_formula_sum "Si O2"
_cell_formula_units_Z 64
_cell_length_a 25.524358
_cell_length_b 12.421430
_cell_length_c 11.222049
_cell_angle_alpha 90.000000
_cell_angle_beta 90.000000
_cell_angle_gamma 90.000000
_cell_volume 3557.939707
_symmetry_space_group_name_H-M "C 2 2 2"
_symmetry_group_IT_number 21
_symmetry_cell_setting 'orthorhombic'
loop_
_space_group_symop_operation_xyz
x,y,z
-x,-y,z
x,-y,-z
-x,y,-z
1/2+x,1/2+y,z
1/2-x,1/2-y,z
1/2+x,1/2-y,-z
1/2-x,1/2+y,-z
loop_
_atom_site_type_symbol
_atom_site_label
_atom_site_fract_x
_atom_site_fract_y
_atom_site_fract_z
Si Si1 0.865092 0.118244 0.960329
Si Si2 0.784910 0.971647 0.211174
Si Si3 0.691899 0.302396 0.594286
Si Si4 0.806317 0.806810 0.683654
Si Si5 0.499135 0.871136 0.855543
Si Si6 0.386985 0.199218 0.838675
Si Si7 0.326956 0.019998 0.128348
Si Si8 0.109659 0.282073 0.226189
O O1 0.807053 0.091523 0.905088
O O2 0.892578 0.169403 0.844551
O O3 0.873181 0.211429 0.059669
O O4 0.884710 0.000000 0.000000
O O5 0.804711 0.907147 0.324813
O O6 0.806875 0.090781 0.228789
O O7 0.722360 0.981792 0.215369
O O8 0.750000 0.250000 0.609165
O O9 0.686221 0.329465 0.455756
O O10 0.643562 0.234463 0.652637
O O11 0.750000 0.750000 0.698708
O O12 0.852854 0.730930 0.725439
O O13 0.551699 0.811009 0.815120
O O14 0.448798 0.828251 0.783605
O O15 0.500000 0.000000 0.839201
O O16 0.500000 0.853188 0.000000
O O17 0.367813 0.078100 0.867898
O O18 0.356045 0.132106 0.149685
O O19 0.301642 0.000000 0.000000
#
# Coordination Sequence:
#
# PCOD9324457 Si02
#       8
#     8   8   8   8   8   8   8   8
#     4  11  22  37  56  87 128 157 194 246 312 368
#     4  11  22  36  58  88 123 164 204 247 308 370
#     4  10  22  40  61  85 121 166 212 252 302 360
#     4  11  23  39  60  86 123 165 207 258 300 361
#     4  11  21  38  65  92 123 159 197 249 309 373
#     4  12  23  39  59  93 126 161 205 249 314 367
#     4  12  21  34  58  93 127 161 199 251 308 375
#     4  11  22  40  61  90 121 161 204 250 305 365
#
# _framework density 17.987938
#
# number of rings (size 3 to 8) (size 9 to 14) (size 15 to 20)
#    0.000    0.875    7.500    0.750    0.000    0.000 
#    2.250    2.500    0.000    0.750    0.000    1.750 
#    0.000    0.000    0.000    0.000    0.000    0.000 
#
# Total GULP energy -178158.768114 kJ/mol
# GULP energy per Si atom -5567.461504 kJ/mol
# Density = 1.794700 g / cm^3
# Si number density = 17.987938 Si / 1000 Ang^3
#
#
#
# Elastic Constant Matrix: (Units=GPa)
#
#
# Indices 1 2 3 4 5 6 
#
# 1 124.8290 23.8710 33.5753 0.0000 0.0000 0.0000
# 2 23.8710 72.7532 7.1655 0.0000 0.0000 0.0000
# 3 33.5753 7.1655 42.8525 0.0000 0.0000 0.0000
# 4 0.0000 0.0000 0.0000 8.1016 0.0000 0.0000
# 5 0.0000 0.0000 0.0000 0.0000 8.0063 0.0000
# 6 0.0000 0.0000 0.0000 0.0000 0.0000 27.0285
#
#
#
# Elastic Compliance Matrix: (Units=1/GPa)
#
#
# Indices 1 2 3 4 5 6 
#
# 1 0.010654 -0.002718 -0.007893 0.000000 0.000000 0.000000
# 2 -0.002718 0.014669 -0.000323 0.000000 0.000000 0.000000
# 3 -0.007893 -0.000323 0.029574 0.000000 0.000000 0.000000
# 4 0.000000 0.000000 0.000000 0.123432 0.000000 0.000000
# 5 0.000000 0.000000 0.000000 0.000000 0.124901 0.000000
# 6 0.000000 0.000000 0.000000 0.000000 0.000000 0.036998
#
#
# Mechanical properties :
#
#
# Convention : Reuss Voigt Hill
#
# Bulk Modulus (GPa) = 30.27700 41.07313 35.67507
# Shear Modulus (GPa) = 13.40103 20.34881 16.87492
#
# Velocity S-wave (km/s) = 2.73243 3.36705 3.06620
# Velocity P-wave (km/s) = 5.17912 6.16436 5.69309
#
# Compressibility (1/GPa) = 0.03302838
#
# Stress axis : x y z
#
# Youngs Moduli (GPa) = 93.86429 68.17198 33.81356
#
# Poissons Ratio (x) = 0.18531 0.26688
# Poissons Ratio (y) = 0.25514 0.01092
# Poissons Ratio (z) = 0.74085 0.02202
#
# Static dielectric constant tensor:
#      x y z
#    x 1.622200 0.000000 0.000000 
#    y 0.000000 1.636590 0.000000 
#    z 0.000000 0.000000 1.629160 
# 
# From -- ./inp_files/24413.got.cif
#   From: 2010.05.17/outbox.cif.g08.bks.cpg/sg21_13_cif.got.tgz:24413.got - 2010.06.03 23:14:55.
