data_PCOD9324842
_publ_section_title
;
Structure prediction by ZEFSAII (Michael W. Deem and Ramdas Pophale) SiO2 
 PCOD9324842
Probable space group: C 2 2 2
;
_chemical_formula_sum "Si O2"
_cell_formula_units_Z 30
_cell_length_a 9.077554
_cell_length_b 17.664592
_cell_length_c 8.622386
_cell_angle_alpha 90.000000
_cell_angle_beta 90.000000
_cell_angle_gamma 90.000000
_cell_volume 1382.610699
_symmetry_space_group_name_H-M "C 2 2 2"
_symmetry_group_IT_number 21
_symmetry_cell_setting 'orthorhombic'
loop_
_space_group_symop_operation_xyz
x,y,z
-x,-y,z
x,-y,-z
-x,y,-z
1/2+x,1/2+y,z
1/2-x,1/2-y,z
1/2+x,1/2-y,-z
1/2-x,1/2+y,-z
loop_
_atom_site_type_symbol
_atom_site_label
_atom_site_fract_x
_atom_site_fract_y
_atom_site_fract_z
Si Si1 0.415949 0.800160 0.145504
Si Si2 0.250000 0.250000 0.577190
Si Si3 0.174970 0.911008 0.977355
Si Si4 0.000000 0.500000 0.500000
Si Si5 0.823196 0.622770 0.326119
O O1 0.378883 0.747452 0.293556
O O2 0.540359 0.851506 0.220271
O O3 0.500000 0.762599 0.000000
O O4 0.279330 0.852326 0.079241
O O5 0.220877 0.319925 0.463338
O O6 0.196881 0.889532 0.797657
O O7 0.000000 0.907615 0.000000
O O8 0.221911 0.000000 0.000000
O O9 0.111699 0.451242 0.400775
#
# Coordination Sequence:
#
# PCOD9324842 Si02
#       5
#     8   4   8   2   8
#     4  10  23  43  68 101 137 196 240 300 361 451
#     4  12  24  42  66 114 138 178 234 322 372 416
#     4  10  23  43  68 102 145 196 247 302 370 436
#     4  12  20  44  78 110 132 194 250 302 348 448
#     4  11  24  42  76 103 147 185 250 301 368 432
#
# _framework density 21.698081999999999
#
# number of rings (size 3 to 8) (size 9 to 14) (size 15 to 20)
#    0.000    1.333    2.667    1.600    0.000   13.333 
#    0.000    0.000    0.000    0.000    0.000    0.000 
#    0.000    0.000    0.000    0.000    0.000    0.000 
#
# Total GULP energy -83573.723772 kJ/mol
# GULP energy per Si atom -5571.581585 kJ/mol
# Density = 2.164870 g / cm^3
# Si number density = 21.698082 Si / 1000 Ang^3
#
#
#
# Elastic Constant Matrix: (Units=GPa)
#
#
# Indices 1 2 3 4 5 6 
#
# 1 125.9357 36.3065 73.6202 0.0000 0.0000 0.0000
# 2 36.3065 87.2846 74.1587 0.0000 0.0000 0.0000
# 3 73.6202 74.1587 211.3329 0.0000 0.0000 0.0000
# 4 0.0000 0.0000 0.0000 145.0570 0.0000 0.0000
# 5 0.0000 0.0000 0.0000 0.0000 48.5095 0.0000
# 6 0.0000 0.0000 0.0000 0.0000 0.0000 66.5932
#
#
#
# Elastic Compliance Matrix: (Units=1/GPa)
#
#
# Indices 1 2 3 4 5 6 
#
# 1 0.010152 -0.001736 -0.002928 0.000000 0.000000 0.000000
# 2 -0.001736 0.016620 -0.005228 0.000000 0.000000 0.000000
# 3 -0.002928 -0.005228 0.007586 0.000000 0.000000 0.000000
# 4 0.000000 0.000000 0.000000 0.006894 0.000000 0.000000
# 5 0.000000 0.000000 0.000000 0.000000 0.020615 0.000000
# 6 0.000000 0.000000 0.000000 0.000000 0.000000 0.015017
#
#
# Mechanical properties :
#
#
# Convention : Reuss Voigt Hill
#
# Bulk Modulus (GPa) = 68.60065 88.08045 78.34055
# Shear Modulus (GPa) = 49.24936 68.06313 58.65625
#
# Velocity S-wave (km/s) = 4.76936 5.60681 5.20496
# Velocity P-wave (km/s) = 7.87488 9.08829 8.50325
#
# Compressibility (1/GPa) = 0.01457712
#
# Stress axis : x y z
#
# Youngs Moduli (GPa) = 98.49908 60.16803 131.81885
#
# Poissons Ratio (x) = 0.10442 0.38592
# Poissons Ratio (y) = 0.17095 0.68909
# Poissons Ratio (z) = 0.28837 0.31453
#
# Static dielectric constant tensor:
#      x y z
#    x 1.874720 0.000000 0.000000 
#    y 0.000000 1.792690 0.000000 
#    z 0.000000 0.000000 1.715500 
# 
# From -- ./inp_files/10492.got.cif
#   From: 2010.05.17/outbox.cif.g08.bks.cpg/sg21_6_cif.got.tgz:10492.got - 2010.06.03 23:14:55.
