data_PCOD9324275
_publ_section_title
;
Structure prediction by ZEFSAII (Michael W. Deem and Ramdas Pophale) SiO2 
 PCOD9324275
Probable space group: C 2 2 2
;
_chemical_formula_sum "Si O2"
_cell_formula_units_Z 60
_cell_length_a 11.721941
_cell_length_b 20.769498
_cell_length_c 11.479102
_cell_angle_alpha 90.000000
_cell_angle_beta 90.000000
_cell_angle_gamma 90.000000
_cell_volume 2794.688744
_symmetry_space_group_name_H-M "C 2 2 2"
_symmetry_group_IT_number 21
_symmetry_cell_setting 'orthorhombic'
loop_
_space_group_symop_operation_xyz
x,y,z
-x,-y,z
x,-y,-z
-x,y,-z
1/2+x,1/2+y,z
1/2-x,1/2-y,z
1/2+x,1/2-y,-z
1/2-x,1/2+y,-z
loop_
_atom_site_type_symbol
_atom_site_label
_atom_site_fract_x
_atom_site_fract_y
_atom_site_fract_z
Si Si1 0.691253 0.959157 0.391192
Si Si2 0.108525 0.046064 0.714902
Si Si3 0.171644 0.685862 0.244549
Si Si4 0.085181 0.657371 0.735980
Si Si5 0.175093 0.861790 0.449118
Si Si6 0.250000 0.750000 0.590599
Si Si7 0.203621 0.322729 0.026442
Si Si8 0.367413 0.571007 0.027223
O O1 0.605564 0.915311 0.314188
O O2 0.774243 0.908227 0.453872
O O3 0.640167 0.000000 0.500000
O O4 0.779863 0.004639 0.321234
O O5 0.077031 0.098969 0.616859
O O6 0.137227 0.081025 0.835125
O O7 0.000000 0.000000 0.733245
O O8 0.250000 0.750000 0.243809
O O9 0.232876 0.644255 0.344303
O O10 0.040182 0.686216 0.283432
O O11 0.166256 0.666740 0.107686
O O12 0.175262 0.702941 0.669603
O O13 0.113336 0.662243 0.873201
O O14 0.167130 0.792334 0.507697
O O15 0.250000 0.250000 0.037933
O O16 0.305307 0.373705 0.043397
O O17 0.319920 0.500000 0.000000
O O18 0.500000 0.571015 0.000000
#
# Coordination Sequence:
#
# PCOD9324275 Si02
#       8
#     8   8   8   8   8   4   8   8
#     4   9  22  41  68  99 138 184 237 289 349 422
#     4  11  21  42  66 103 141 181 235 293 354 415
#     4  11  24  44  68  98 138 184 229 292 356 426
#     4  11  23  45  70  99 144 178 242 292 354 431
#     4  10  21  43  64  98 139 179 235 279 357 414
#     4  10  22  44  64 106 132 186 230 290 354 422
#     4  11  24  44  69 103 143 186 241 294 363 434
#     4  11  22  39  71 105 141 185 227 291 364 430
#
# _framework density 21.469296
#
# number of rings (size 3 to 8) (size 9 to 14) (size 15 to 20)
#    0.000    1.467    4.000    1.200    0.000    6.667 
#    7.200    4.667    0.000    0.800    0.000    0.000 
#    0.000    0.000    0.000    0.000    0.000    0.000 
#
# Total GULP energy -167335.147696 kJ/mol
# GULP energy per Si atom -5577.838257 kJ/mol
# Density = 2.142043 g / cm^3
# Si number density = 21.469296 Si / 1000 Ang^3
#
#
#
# Elastic Constant Matrix: (Units=GPa)
#
#
# Indices 1 2 3 4 5 6 
#
# 1 88.8037 29.0287 16.7058 0.0000 0.0000 0.0000
# 2 29.0287 102.7025 13.4771 0.0000 0.0000 0.0000
# 3 16.7058 13.4771 95.8924 0.0000 0.0000 0.0000
# 4 0.0000 0.0000 0.0000 45.6883 0.0000 0.0000
# 5 0.0000 0.0000 0.0000 0.0000 -105.8723 0.0000
# 6 0.0000 0.0000 0.0000 0.0000 0.0000 20.6961
#
#
#
# Elastic Compliance Matrix: (Units=1/GPa)
#
#
# Indices 1 2 3 4 5 6 
#
# 1 0.012685 -0.003357 -0.001738 0.000000 0.000000 0.000000
# 2 -0.003357 0.010808 -0.000934 0.000000 0.000000 0.000000
# 3 -0.001738 -0.000934 0.010862 0.000000 0.000000 0.000000
# 4 0.000000 0.000000 0.000000 0.021887 0.000000 0.000000
# 5 0.000000 0.000000 0.000000 0.000000 -0.009445 0.000000
# 6 0.000000 0.000000 0.000000 0.000000 0.000000 0.048318
#
#
# Mechanical properties :
#
#
# Convention : Reuss Voigt Hill
#
# Bulk Modulus (GPa) = 44.84937 45.09129 44.97033
# Shear Modulus (GPa) = 43.62697 7.31489 25.47093
#
# Velocity S-wave (km/s) = 4.51273 1.84785 3.44814
# Velocity P-wave (km/s) = 6.93458 5.05974 6.06998
#
# Compressibility (1/GPa) = 0.02229686
#
# Stress axis : x y z
#
# Youngs Moduli (GPa) = 78.83179 92.52060 92.06027
#
# Poissons Ratio (x) = 0.31063 0.16001
# Poissons Ratio (y) = 0.26467 0.08600
# Poissons Ratio (z) = 0.13702 0.08643
#
# Static dielectric constant tensor:
#      x y z
#    x 1.712480 0.000000 0.000000 
#    y 0.000000 2.555770 0.000000 
#    z 0.000000 0.000000 1.802680 
# 
# From -- ./inp_files/24287.got.cif
#   From: 2010.05.17/outbox.cif.g08.bks.cpg/sg21_13_cif.got.tgz:24287.got - 2010.06.03 23:14:55.
