data_PCOD9324327
_publ_section_title
;
Structure prediction by ZEFSAII (Michael W. Deem and Ramdas Pophale) SiO2 
 PCOD9324327
Probable space group: C 2 2 2
;
_chemical_formula_sum "Si O2"
_cell_formula_units_Z 38
_cell_length_a 6.015144
_cell_length_b 27.776117
_cell_length_c 11.076884
_cell_angle_alpha 90.000000
_cell_angle_beta 90.000000
_cell_angle_gamma 90.000000
_cell_volume 1850.696353
_symmetry_space_group_name_H-M "C 2 2 2"
_symmetry_group_IT_number 21
_symmetry_cell_setting 'orthorhombic'
loop_
_space_group_symop_operation_xyz
x,y,z
-x,-y,z
x,-y,-z
-x,y,-z
1/2+x,1/2+y,z
1/2-x,1/2-y,z
1/2+x,1/2-y,-z
1/2-x,1/2+y,-z
loop_
_atom_site_type_symbol
_atom_site_label
_atom_site_fract_x
_atom_site_fract_y
_atom_site_fract_z
Si Si1 0.151455 0.370707 0.322459
Si Si2 0.000000 0.830137 0.500000
Si Si3 0.034100 0.893143 0.141705
Si Si4 0.828099 0.456672 0.305625
Si Si5 0.266935 0.196849 0.732799
Si Si6 0.500000 0.500000 0.500000
O O1 0.317507 0.361692 0.431701
O O2 0.299354 0.389133 0.210761
O O3 0.972685 0.411430 0.347754
O O4 0.015503 0.321889 0.294580
O O5 0.126372 0.802303 0.392708
O O6 0.178995 0.937310 0.194665
O O7 0.160766 0.844200 0.182282
O O8 0.000000 0.896334 0.000000
O O9 0.660367 0.470801 0.411482
O O10 0.000000 0.500000 0.279290
O O11 0.250000 0.250000 0.785974
#
# Coordination Sequence:
#
# PCOD9324327 Si02
#       6
#     8   4   8   8   8   2
#     4  10  23  42  63  93 133 174 215 270 335 391
#     4  10  22  35  64  93 134 168 209 266 331 404
#     4  10  24  47  66  92 132 177 228 279 324 391
#     4  11  25  42  66  97 133 174 220 270 335 396
#     4  10  23  39  62  98 129 173 220 272 337 394
#     4  12  26  42  66 102 136 164 218 274 326 414
#
# _framework density 20.532813999999998
#
# number of rings (size 3 to 8) (size 9 to 14) (size 15 to 20)
#    0.000    1.684    0.000    2.211    2.947   26.105 
#    3.789    7.895    0.000    0.000    0.000    0.000 
#    0.000    0.000    0.000    0.000    0.000    0.000 
#
# Total GULP energy -106265.757670 kJ/mol
# GULP energy per Si atom -5592.934614 kJ/mol
# Density = 2.048608 g / cm^3
# Si number density = 20.532814 Si / 1000 Ang^3
#
#
#
# Elastic Constant Matrix: (Units=GPa)
#
#
# Indices 1 2 3 4 5 6 
#
# 1 147.3397 62.0895 62.5338 0.0000 0.0000 0.0000
# 2 62.0895 124.4848 53.7591 0.0000 0.0000 0.0000
# 3 62.5338 53.7591 140.0760 0.0000 0.0000 0.0000
# 4 0.0000 0.0000 0.0000 12.8908 0.0000 0.0000
# 5 0.0000 0.0000 0.0000 0.0000 4.8919 0.0000
# 6 0.0000 0.0000 0.0000 0.0000 0.0000 24.9768
#
#
#
# Elastic Compliance Matrix: (Units=1/GPa)
#
#
# Indices 1 2 3 4 5 6 
#
# 1 0.009483 -0.003478 -0.002899 0.000000 0.000000 0.000000
# 2 -0.003478 0.010905 -0.002632 0.000000 0.000000 0.000000
# 3 -0.002899 -0.002632 0.009443 0.000000 0.000000 0.000000
# 4 0.000000 0.000000 0.000000 0.077575 0.000000 0.000000
# 5 0.000000 0.000000 0.000000 0.000000 0.204421 0.000000
# 6 0.000000 0.000000 0.000000 0.000000 0.000000 0.040037
#
#
# Mechanical properties :
#
#
# Convention : Reuss Voigt Hill
#
# Bulk Modulus (GPa) = 84.65382 85.40726 85.03054
# Shear Modulus (GPa) = 13.37544 24.11975 18.74760
#
# Velocity S-wave (km/s) = 2.55506 3.43110 3.02496
# Velocity P-wave (km/s) = 7.07266 7.57512 7.32819
#
# Compressibility (1/GPa) = 0.01181282
#
# Stress axis : x y z
#
# Youngs Moduli (GPa) = 105.45262 91.70403 105.89554
#
# Poissons Ratio (x) = 0.31895 0.30695
# Poissons Ratio (y) = 0.36677 0.27875
# Poissons Ratio (z) = 0.30567 0.24140
#
# Static dielectric constant tensor:
#      x y z
#    x 1.795630 0.000000 0.000000 
#    y 0.000000 1.754810 0.000000 
#    z 0.000000 0.000000 1.695680 
# 
# From -- ./inp_files/21223.got.cif
#   From: 2010.05.17/outbox.cif.g08.bks.cpg/sg21_11_cif.got.tgz:21223.got - 2010.06.03 23:14:55.
