data_PCOD9324158
_publ_section_title
;
Structure prediction by ZEFSAII (Michael W. Deem and Ramdas Pophale) SiO2 
 PCOD9324158
Probable space group: C 2 2 2
;
_chemical_formula_sum "Si O2"
_cell_formula_units_Z 40
_cell_length_a 14.230002
_cell_length_b 10.123787
_cell_length_c 13.275926
_cell_angle_alpha 90.000000
_cell_angle_beta 90.000000
_cell_angle_gamma 90.000000
_cell_volume 1912.549936
_symmetry_space_group_name_H-M "C 2 2 2"
_symmetry_group_IT_number 21
_symmetry_cell_setting 'orthorhombic'
loop_
_space_group_symop_operation_xyz
x,y,z
-x,-y,z
x,-y,-z
-x,y,-z
1/2+x,1/2+y,z
1/2-x,1/2-y,z
1/2+x,1/2-y,-z
1/2-x,1/2+y,-z
loop_
_atom_site_type_symbol
_atom_site_label
_atom_site_fract_x
_atom_site_fract_y
_atom_site_fract_z
Si Si1 0.387207 0.509765 0.213446
Si Si2 0.387816 0.010932 0.736490
Si Si3 0.383676 0.773039 0.877483
Si Si4 0.610884 0.770724 0.898077
Si Si5 0.263868 0.591591 0.406239
O O1 0.500000 0.500000 0.231548
O O2 0.358877 0.369461 0.166575
O O3 0.367569 0.621152 0.130350
O O4 0.335407 0.558521 0.314467
O O5 0.358668 0.130632 0.810408
O O6 0.335766 0.035750 0.632880
O O7 0.500000 0.000000 0.724776
O O8 0.356782 0.880451 0.795263
O O9 0.497164 0.779754 0.891401
O O10 0.351893 0.803299 0.991153
O O11 0.293054 0.500000 0.500000
O O12 0.250000 0.750000 0.424181
#
# Coordination Sequence:
#
# PCOD9324158 Si02
#       5
#     8   8   8   8   8
#     4  10  21  40  65  94 129 167 207 254 309 372
#     4  10  21  40  65  94 129 167 207 254 309 372
#     4   9  18  31  63  96 133 167 206 240 302 374
#     4   9  16  35  59  96 133 173 200 244 300 370
#     4  12  28  48  67  89 122 162 213 275 327 372
#
# _framework density 20.914484999999999
#
# number of rings (size 3 to 8) (size 9 to 14) (size 15 to 20)
#    0.000    2.000    2.000    1.200    2.800    5.600 
#    0.000    8.000    0.000    0.000    0.000    0.000 
#    0.000    0.000    0.000    0.000    0.000    0.000 
#
# Total GULP energy -111682.444318 kJ/mol
# GULP energy per Si atom -5584.122216 kJ/mol
# Density = 2.086688 g / cm^3
# Si number density = 20.914485 Si / 1000 Ang^3
#
#
#
# Elastic Constant Matrix: (Units=GPa)
#
#
# Indices 1 2 3 4 5 6 
#
# 1 76.9255 -19.4333 -6.7829 0.0000 0.0000 0.0000
# 2 -19.4333 100.6388 2.3704 0.0000 0.0000 0.0000
# 3 -6.7829 2.3704 70.8241 0.0000 0.0000 0.0000
# 4 0.0000 0.0000 0.0000 71.3134 0.0000 0.0000
# 5 0.0000 0.0000 0.0000 0.0000 -38.0894 0.0000
# 6 0.0000 0.0000 0.0000 0.0000 0.0000 7.8533
#
#
#
# Elastic Compliance Matrix: (Units=1/GPa)
#
#
# Indices 1 2 3 4 5 6 
#
# 1 0.013773 0.002631 0.001231 0.000000 0.000000 0.000000
# 2 0.002631 0.010447 -0.000098 0.000000 0.000000 0.000000
# 3 0.001231 -0.000098 0.014241 0.000000 0.000000 0.000000
# 4 0.000000 0.000000 0.000000 0.014023 0.000000 0.000000
# 5 0.000000 0.000000 0.000000 0.000000 -0.026254 0.000000
# 6 0.000000 0.000000 0.000000 0.000000 0.000000 0.127336
#
#
# Mechanical properties :
#
#
# Convention : Reuss Voigt Hill
#
# Bulk Modulus (GPa) = 21.74498 22.29964 22.02231
# Shear Modulus (GPa) = 30.98546 26.36439 28.67493
#
# Velocity S-wave (km/s) = 3.85324 3.55432 3.70679
# Velocity P-wave (km/s) = 5.49693 5.24687 5.37336
#
# Compressibility (1/GPa) = 0.04598763
#
# Stress axis : x y z
#
# Youngs Moduli (GPa) = 72.60758 95.72332 70.22149
#
# Poissons Ratio (x) = -0.25180 -0.08644
# Poissons Ratio (y) = -0.19099 0.00686
# Poissons Ratio (z) = -0.08938 0.00935
#
# Static dielectric constant tensor:
#      x y z
#    x 1.782780 0.000000 0.000000 
#    y 0.000000 1.730100 0.000000 
#    z 0.000000 0.000000 1.701180 
# 
# From -- ./inp_files/22284.got.cif
#   From: 2010.05.17/outbox.cif.g08.bks.cpg/sg21_12_cif.got.tgz:22284.got - 2010.06.03 23:14:55.
