data_PCOD9324526
_publ_section_title
;
Structure prediction by ZEFSAII (Michael W. Deem and Ramdas Pophale) SiO2 
 PCOD9324526
Probable space group: C 2 2 2
;
_chemical_formula_sum "Si O2"
_cell_formula_units_Z 54
_cell_length_a 13.764570
_cell_length_b 11.949488
_cell_length_c 15.559527
_cell_angle_alpha 90.000000
_cell_angle_beta 90.000000
_cell_angle_gamma 90.000000
_cell_volume 2559.224218
_symmetry_space_group_name_H-M "C 2 2 2"
_symmetry_group_IT_number 21
_symmetry_cell_setting 'orthorhombic'
loop_
_space_group_symop_operation_xyz
x,y,z
-x,-y,z
x,-y,-z
-x,y,-z
1/2+x,1/2+y,z
1/2-x,1/2-y,z
1/2+x,1/2-y,-z
1/2-x,1/2+y,-z
loop_
_atom_site_type_symbol
_atom_site_label
_atom_site_fract_x
_atom_site_fract_y
_atom_site_fract_z
Si Si1 0.641918 0.555165 0.091225
Si Si2 0.023359 0.198619 0.639248
Si Si3 0.864532 0.277858 0.518865
Si Si4 0.006765 0.378363 0.782325
Si Si5 0.000000 0.000000 0.242133
Si Si6 0.699737 0.129123 0.110096
Si Si7 0.901658 0.298082 0.948198
Si Si8 0.000000 0.500000 0.500000
O O1 0.571447 0.557202 0.173507
O O2 0.728286 0.473910 0.119782
O O3 0.656289 0.684959 0.070777
O O4 0.608020 0.500000 0.000000
O O5 0.928971 0.193830 0.577807
O O6 0.048113 0.088718 0.693565
O O7 0.109319 0.244680 0.579361
O O8 0.993756 0.286745 0.711362
O O9 0.750000 0.250000 0.534290
O O10 0.918240 0.402291 0.531799
O O11 0.112963 0.370296 0.823051
O O12 0.000000 0.500000 0.742189
O O13 0.933436 0.360436 0.861882
O O14 0.750000 0.250000 0.117508
O O15 0.653873 0.125281 0.015205
O O16 0.000000 0.263012 0.000000
#
# Coordination Sequence:
#
# PCOD9324526 Si02
#       8
#     8   8   8   8   4   8   8   2
#     4  12  23  38  63  92 135 183 232 290 342 405
#     4  10  24  44  70 105 140 184 234 304 365 454
#     4  10  24  47  77 108 142 196 243 291 394 467
#     4  11  25  43  66  93 139 180 227 289 358 411
#     4  12  23  43  68 100 142 178 230 299 361 414
#     4  11  24  39  60  93 129 181 241 283 335 417
#     4  10  22  41  62  88 126 184 235 279 352 409
#     4   8  20  44  80 108 156 188 230 308 362 450
#
# _framework density 21.100142999999999
#
# number of rings (size 3 to 8) (size 9 to 14) (size 15 to 20)
#    0.000    1.481    2.963    2.000    6.222    6.222 
#    2.667    0.741    0.000    0.000    0.000    0.000 
#    0.000    0.000    0.000    0.000    0.000    0.000 
#
# Total GULP energy -150495.147387 kJ/mol
# GULP energy per Si atom -5573.894348 kJ/mol
# Density = 2.105212 g / cm^3
# Si number density = 21.100143 Si / 1000 Ang^3
#
#
#
# Elastic Constant Matrix: (Units=GPa)
#
#
# Indices 1 2 3 4 5 6 
#
# 1 89.7889 2.5732 -2.3281 0.0000 0.0000 0.0000
# 2 2.5732 87.6868 -2.1295 0.0000 0.0000 0.0000
# 3 -2.3281 -2.1295 72.1977 0.0000 0.0000 0.0000
# 4 0.0000 0.0000 0.0000 26.1461 0.0000 0.0000
# 5 0.0000 0.0000 0.0000 0.0000 15.7179 0.0000
# 6 0.0000 0.0000 0.0000 0.0000 0.0000 28.4562
#
#
#
# Elastic Compliance Matrix: (Units=1/GPa)
#
#
# Indices 1 2 3 4 5 6 
#
# 1 0.011155 -0.000319 0.000350 0.000000 0.000000 0.000000
# 2 -0.000319 0.011422 0.000327 0.000000 0.000000 0.000000
# 3 0.000350 0.000327 0.013872 0.000000 0.000000 0.000000
# 4 0.000000 0.000000 0.000000 0.038247 0.000000 0.000000
# 5 0.000000 0.000000 0.000000 0.000000 0.063622 0.000000
# 6 0.000000 0.000000 0.000000 0.000000 0.000000 0.035142
#
#
# Mechanical properties :
#
#
# Convention : Reuss Voigt Hill
#
# Bulk Modulus (GPa) = 26.90713 27.32274 27.11493
# Shear Modulus (GPa) = 27.00793 30.83457 28.92125
#
# Velocity S-wave (km/s) = 3.58157 3.82690 3.70627
# Velocity P-wave (km/s) = 5.46657 5.70123 5.58513
#
# Compressibility (1/GPa) = 0.03716487
#
# Stress axis : x y z
#
# Youngs Moduli (GPa) = 89.64220 87.55407 72.08881
#
# Poissons Ratio (x) = 0.02792 -0.02525
# Poissons Ratio (y) = 0.02858 -0.02354
# Poissons Ratio (z) = -0.03140 -0.02860
#
# Static dielectric constant tensor:
#      x y z
#    x 1.817250 0.000000 0.000000 
#    y 0.000000 1.785370 0.000000 
#    z 0.000000 0.000000 1.741850 
# 
# From -- ./inp_files/32366.got.cif
#   From: 2010.05.17/outbox.cif.g08.bks.cpg/sg21_17_cif.got.tgz:32366.got - 2010.06.03 23:14:55.
