data_PCOD9324112
_publ_section_title
;
Structure prediction by ZEFSAII (Michael W. Deem and Ramdas Pophale) SiO2 
 PCOD9324112
Probable space group: C 2 2 2
;
_chemical_formula_sum "Si O2"
_cell_formula_units_Z 48
_cell_length_a 18.354694
_cell_length_b 8.902539
_cell_length_c 14.410532
_cell_angle_alpha 90.000000
_cell_angle_beta 90.000000
_cell_angle_gamma 90.000000
_cell_volume 2354.729624
_symmetry_space_group_name_H-M "C 2 2 2"
_symmetry_group_IT_number 21
_symmetry_cell_setting 'orthorhombic'
loop_
_space_group_symop_operation_xyz
x,y,z
-x,-y,z
x,-y,-z
-x,y,-z
1/2+x,1/2+y,z
1/2-x,1/2-y,z
1/2+x,1/2-y,-z
1/2-x,1/2+y,-z
loop_
_atom_site_type_symbol
_atom_site_label
_atom_site_fract_x
_atom_site_fract_y
_atom_site_fract_z
Si Si1 0.130271 0.859399 0.152078
Si Si2 0.148452 0.519296 0.391585
Si Si3 0.977324 0.355213 0.260783
Si Si4 0.827578 0.325422 0.970843
Si Si5 0.750000 0.250000 0.682375
Si Si6 0.388257 0.312112 0.202928
Si Si7 0.250000 0.250000 0.714284
O O1 0.075910 0.752266 0.206470
O O2 0.143610 0.781042 0.053602
O O3 0.203695 0.850924 0.213914
O O4 0.098891 0.027277 0.154768
O O5 0.133841 0.500000 0.500000
O O6 0.071489 0.561737 0.340734
O O7 0.199646 0.374230 0.368460
O O8 0.198528 0.654383 0.353070
O O9 0.000000 0.500000 0.201532
O O10 0.049233 0.250798 0.271807
O O11 0.750000 0.250000 0.947255
O O12 0.820363 0.500000 0.000000
O O13 0.876042 0.307236 0.879235
O O14 0.687769 0.327816 0.743462
#
# Coordination Sequence:
#
# PCOD9324112 Si02
#       7
#     8   8   8   8   4   8   4
#     4  11  23  41  68  96 140 186 232 293 352 417
#     4  11  24  44  72 103 137 178 233 296 361 430
#     4  11  24  43  67  97 136 185 228 286 362 422
#     4  12  25  38  65 103 141 185 246 294 338 414
#     4  12  23  41  72 100 132 178 228 287 345 426
#     4  12  24  43  65 100 141 184 238 281 352 418
#     4  10  21  39  68 100 136 172 234 293 357 414
#
# _framework density 20.384505999999998
#
# number of rings (size 3 to 8) (size 9 to 14) (size 15 to 20)
#    0.000    0.667    5.000    3.500    2.333    1.000 
#    0.000    3.333    0.000    0.000    4.333    0.000 
#    0.000    0.000    0.000    0.000    0.000    0.000 
#
# Total GULP energy -133672.605152 kJ/mol
# GULP energy per Si atom -5569.691881 kJ/mol
# Density = 2.033811 g / cm^3
# Si number density = 20.384506 Si / 1000 Ang^3
#
#
#
# Elastic Constant Matrix: (Units=GPa)
#
#
# Indices 1 2 3 4 5 6 
#
# 1 138.0894 47.7948 53.8091 0.0000 0.0000 0.0000
# 2 47.7948 134.5789 33.6626 0.0000 0.0000 0.0000
# 3 53.8091 33.6626 98.3354 0.0000 0.0000 0.0000
# 4 0.0000 0.0000 0.0000 14.8427 0.0000 0.0000
# 5 0.0000 0.0000 0.0000 0.0000 -36.4424 0.0000
# 6 0.0000 0.0000 0.0000 0.0000 0.0000 28.9035
#
#
#
# Elastic Compliance Matrix: (Units=1/GPa)
#
#
# Indices 1 2 3 4 5 6 
#
# 1 0.009839 -0.002349 -0.004580 0.000000 0.000000 0.000000
# 2 -0.002349 0.008687 -0.001689 0.000000 0.000000 0.000000
# 3 -0.004580 -0.001689 0.013253 0.000000 0.000000 0.000000
# 4 0.000000 0.000000 0.000000 0.067373 0.000000 0.000000
# 5 0.000000 0.000000 0.000000 0.000000 -0.027441 0.000000
# 6 0.000000 0.000000 0.000000 0.000000 0.000000 0.034598
#
#
# Mechanical properties :
#
#
# Convention : Reuss Voigt Hill
#
# Bulk Modulus (GPa) = 68.75116 71.28187 70.01651
# Shear Modulus (GPa) = 38.94275 17.17659 28.05967
#
# Velocity S-wave (km/s) = 4.37556 2.90596 3.71417
# Velocity P-wave (km/s) = 7.70245 6.80471 7.26746
#
# Compressibility (1/GPa) = 0.01454521
#
# Stress axis : x y z
#
# Youngs Moduli (GPa) = 101.63312 115.11328 75.45179
#
# Poissons Ratio (x) = 0.27037 0.34557
# Poissons Ratio (y) = 0.23871 0.12741
# Poissons Ratio (z) = 0.46548 0.19438
#
# Static dielectric constant tensor:
#      x y z
#    x 1.975420 0.000000 0.000000 
#    y 0.000000 1.764630 0.000000 
#    z 0.000000 0.000000 1.709800 
# 
# From -- ./inp_files/32868.got.cif
#   From: 2010.05.17/outbox.cif.g08.bks.cpg/sg21_17_cif.got.tgz:32868.got - 2010.06.03 23:14:55.
