data_PCOD9324403
_publ_section_title
;
Structure prediction by ZEFSAII (Michael W. Deem and Ramdas Pophale) SiO2 
 PCOD9324403
Probable space group: C 2 2 2
;
_chemical_formula_sum "Si O2"
_cell_formula_units_Z 48
_cell_length_a 14.973633
_cell_length_b 17.109130
_cell_length_c 9.031616
_cell_angle_alpha 90.000000
_cell_angle_beta 90.000000
_cell_angle_gamma 90.000000
_cell_volume 2313.772073
_symmetry_space_group_name_H-M "C 2 2 2"
_symmetry_group_IT_number 21
_symmetry_cell_setting 'orthorhombic'
loop_
_space_group_symop_operation_xyz
x,y,z
-x,-y,z
x,-y,-z
-x,y,-z
1/2+x,1/2+y,z
1/2-x,1/2-y,z
1/2+x,1/2-y,-z
1/2-x,1/2+y,-z
loop_
_atom_site_type_symbol
_atom_site_label
_atom_site_fract_x
_atom_site_fract_y
_atom_site_fract_z
Si Si1 0.090045 0.390392 0.414397
Si Si2 0.341299 0.201702 0.694143
Si Si3 0.017017 0.723455 0.835776
Si Si4 0.224350 0.427966 0.907141
Si Si5 0.186229 0.824846 0.837696
Si Si6 0.769775 0.967173 0.345875
O O1 0.139472 0.333492 0.532454
O O2 0.060453 0.341242 0.271341
O O3 0.162295 0.454160 0.363651
O O4 0.000000 0.415543 0.500000
O O5 0.250000 0.250000 0.698784
O O6 0.426146 0.249227 0.754382
O O7 0.335729 0.129027 0.808676
O O8 0.087211 0.792955 0.855810
O O9 0.000000 0.691687 0.000000
O O10 0.285353 0.472118 0.786328
O O11 0.181727 0.500000 0.000000
O O12 0.277089 0.373651 0.022386
O O13 0.250000 0.750000 0.818735
O O14 0.193173 0.883274 0.699804
O O15 0.803732 0.000000 0.500000
#
# Coordination Sequence:
#
# PCOD9324403 Si02
#       6
#     8   8   8   8   8   8
#     4  10  23  40  61  99 139 177 222 278 352 434
#     4  11  23  41  67  98 138 175 232 294 352 415
#     4  11  23  40  66 103 132 177 238 285 343 406
#     4  10  22  38  63  97 136 184 224 278 352 418
#     4  11  22  41  69  95 139 184 236 282 335 419
#     4  11  22  41  67 101 137 188 224 281 358 416
#
# _framework density 20.745345
#
# number of rings (size 3 to 8) (size 9 to 14) (size 15 to 20)
#    0.000    1.333    3.333    2.500    4.667    0.333 
#    0.000    0.000    7.333   23.500    8.667    0.000 
#    0.000    0.000    0.000    0.000    0.000    0.000 
#
# Total GULP energy -134104.855651 kJ/mol
# GULP energy per Si atom -5587.702319 kJ/mol
# Density = 2.069813 g / cm^3
# Si number density = 20.745345 Si / 1000 Ang^3
#
#
#
# Elastic Constant Matrix: (Units=GPa)
#
#
# Indices 1 2 3 4 5 6 
#
# 1 85.0452 37.0444 26.8381 0.0000 0.0000 0.0000
# 2 37.0444 110.0228 63.2507 0.0000 0.0000 0.0000
# 3 26.8381 63.2507 161.4057 0.0000 0.0000 0.0000
# 4 0.0000 0.0000 0.0000 27.9910 0.0000 0.0000
# 5 0.0000 0.0000 0.0000 0.0000 27.7776 0.0000
# 6 0.0000 0.0000 0.0000 0.0000 0.0000 22.5954
#
#
#
# Elastic Compliance Matrix: (Units=1/GPa)
#
#
# Indices 1 2 3 4 5 6 
#
# 1 0.013826 -0.004303 -0.000613 0.000000 0.000000 0.000000
# 2 -0.004303 0.013071 -0.004407 0.000000 0.000000 0.000000
# 3 -0.000613 -0.004407 0.008024 0.000000 0.000000 0.000000
# 4 0.000000 0.000000 0.000000 0.035726 0.000000 0.000000
# 5 0.000000 0.000000 0.000000 0.000000 0.036000 0.000000
# 6 0.000000 0.000000 0.000000 0.000000 0.000000 0.044257
#
#
# Mechanical properties :
#
#
# Convention : Reuss Voigt Hill
#
# Bulk Modulus (GPa) = 61.43745 67.86000 64.64873
# Shear Modulus (GPa) = 28.57551 30.96218 29.76884
#
# Velocity S-wave (km/s) = 3.71542 3.86746 3.79220
# Velocity P-wave (km/s) = 6.93434 7.26120 7.09965
#
# Compressibility (1/GPa) = 0.01627672
#
# Stress axis : x y z
#
# Youngs Moduli (GPa) = 72.32680 76.50394 124.62059
#
# Poissons Ratio (x) = 0.32919 0.07636
# Poissons Ratio (y) = 0.31122 0.54918
# Poissons Ratio (z) = 0.04432 0.33714
#
# Static dielectric constant tensor:
#      x y z
#    x 1.752770 0.000000 0.000000 
#    y 0.000000 1.785680 0.000000 
#    z 0.000000 0.000000 1.766440 
# 
# From -- ./inp_files/14985.got.cif
#   From: 2010.05.17/outbox.cif.g08.bks.cpg/sg21_8_cif.got.tgz:14985.got - 2010.06.03 23:14:55.
