data_PCOD9324561
_publ_section_title
;
Structure prediction by ZEFSAII (Michael W. Deem and Ramdas Pophale) SiO2 
 PCOD9324561
Probable space group: C 2 2 2
;
_chemical_formula_sum "Si O2"
_cell_formula_units_Z 34
_cell_length_a 5.787557
_cell_length_b 18.518075
_cell_length_c 13.882264
_cell_angle_alpha 90.000000
_cell_angle_beta 90.000000
_cell_angle_gamma 90.000000
_cell_volume 1487.823517
_symmetry_space_group_name_H-M "C 2 2 2"
_symmetry_group_IT_number 21
_symmetry_cell_setting 'orthorhombic'
loop_
_space_group_symop_operation_xyz
x,y,z
-x,-y,z
x,-y,-z
-x,y,-z
1/2+x,1/2+y,z
1/2-x,1/2-y,z
1/2+x,1/2-y,-z
1/2-x,1/2+y,-z
loop_
_atom_site_type_symbol
_atom_site_label
_atom_site_fract_x
_atom_site_fract_y
_atom_site_fract_z
Si Si1 0.998234 0.769128 0.891587
Si Si2 0.821936 0.901146 0.662115
Si Si3 0.500000 0.500000 0.500000
Si Si4 0.103176 0.922063 0.842197
Si Si5 0.000000 0.500000 0.204013
Si Si6 0.250000 0.250000 0.560288
O O1 0.750000 0.750000 0.845925
O O2 0.250000 0.750000 0.846410
O O3 0.000387 0.855374 0.896649
O O4 0.000000 0.737207 0.000000
O O5 0.753220 0.821766 0.627015
O O6 0.853999 0.947933 0.567104
O O7 0.052854 0.902782 0.729151
O O8 0.654298 0.948830 0.728484
O O9 0.369107 0.939542 0.857410
O O10 0.000000 0.000000 0.864990
O O11 0.500000 0.250589 0.500000
#
# Coordination Sequence:
#
# PCOD9324561 Si02
#       6
#     8   8   2   8   4   4
#     4  10  24  45  71 103 139 181 223 272 341 410
#     4  11  25  42  63  92 130 174 227 278 344 393
#     4  12  20  46  60  88 128 186 218 292 326 408
#     4  10  23  42  66 100 132 174 228 277 338 402
#     4  10  22  41  68  95 128 176 232 274 341 413
#     4  12  30  44  60  94 130 166 226 284 336 404
#
# _framework density 22.852173000000001
#
# number of rings (size 3 to 8) (size 9 to 14) (size 15 to 20)
#    0.000    1.412    4.706    0.000   14.824    0.471 
#    0.000    0.000    0.000    0.000    0.000    0.000 
#    0.000    0.000    0.000    0.000    0.000    0.000 
#
# Total GULP energy -94684.259148 kJ/mol
# GULP energy per Si atom -5569.662303 kJ/mol
# Density = 2.280016 g / cm^3
# Si number density = 22.852173 Si / 1000 Ang^3
#
#
#
# Elastic Constant Matrix: (Units=GPa)
#
#
# Indices 1 2 3 4 5 6 
#
# 1 132.7245 43.8536 9.3216 0.0000 0.0000 0.0000
# 2 43.8536 169.7580 14.1758 0.0000 0.0000 0.0000
# 3 9.3216 14.1758 41.8365 0.0000 0.0000 0.0000
# 4 0.0000 0.0000 0.0000 -5.0651 0.0000 0.0000
# 5 0.0000 0.0000 0.0000 0.0000 -7.3731 0.0000
# 6 0.0000 0.0000 0.0000 0.0000 0.0000 37.9686
#
#
#
# Elastic Compliance Matrix: (Units=1/GPa)
#
#
# Indices 1 2 3 4 5 6 
#
# 1 0.008291 -0.002046 -0.001154 0.000000 0.000000 0.000000
# 2 -0.002046 0.006567 -0.001769 0.000000 0.000000 0.000000
# 3 -0.001154 -0.001769 0.024759 0.000000 0.000000 0.000000
# 4 0.000000 0.000000 0.000000 -0.197428 0.000000 0.000000
# 5 0.000000 0.000000 0.000000 0.000000 -0.135627 0.000000
# 6 0.000000 0.000000 0.000000 0.000000 0.000000 0.026338
#
#
# Mechanical properties :
#
#
# Convention : Reuss Voigt Hill
#
# Bulk Modulus (GPa) = 33.69363 53.22455 43.45909
# Shear Modulus (GPa) = -20.22089 23.57061 1.67486
#
# Velocity S-wave (km/s) = -2.97788 3.21509 0.85703
# Velocity P-wave (km/s) = 1.71828 6.09292 4.47639
#
# Compressibility (1/GPa) = 0.02967920
#
# Stress axis : x y z
#
# Youngs Moduli (GPa) = 120.60784 152.27867 40.38890
#
# Poissons Ratio (x) = 0.31149 0.04662
# Poissons Ratio (y) = 0.24670 0.07146
# Poissons Ratio (z) = 0.13922 0.26944
#
# Static dielectric constant tensor:
#      x y z
#    x 2.249410 0.000000 0.000000 
#    y 0.000000 1.819640 0.000000 
#    z 0.000000 0.000000 1.859230 
# 
# From -- ./inp_files/28784.got.cif
#   From: 2010.05.17/outbox.cif.g08.bks.cpg/sg21_15_cif.got.tgz:28784.got - 2010.06.03 23:14:55.
