data_PCOD9324293
_publ_section_title
;
Structure prediction by ZEFSAII (Michael W. Deem and Ramdas Pophale) SiO2 
 PCOD9324293
Probable space group: C 2 2 2
;
_chemical_formula_sum "Si O2"
_cell_formula_units_Z 64
_cell_length_a 17.584958
_cell_length_b 11.822276
_cell_length_c 15.350879
_cell_angle_alpha 90.000000
_cell_angle_beta 90.000000
_cell_angle_gamma 90.000000
_cell_volume 3191.359122
_symmetry_space_group_name_H-M "C 2 2 2"
_symmetry_group_IT_number 21
_symmetry_cell_setting 'orthorhombic'
loop_
_space_group_symop_operation_xyz
x,y,z
-x,-y,z
x,-y,-z
-x,y,-z
1/2+x,1/2+y,z
1/2-x,1/2-y,z
1/2+x,1/2-y,-z
1/2-x,1/2+y,-z
loop_
_atom_site_type_symbol
_atom_site_label
_atom_site_fract_x
_atom_site_fract_y
_atom_site_fract_z
Si Si1 0.132173 0.888528 0.125163
Si Si2 0.181898 0.927914 0.750839
Si Si3 0.076627 0.754276 0.971792
Si Si4 0.587263 0.538236 0.597577
Si Si5 0.296198 0.889957 0.054596
Si Si6 0.422325 0.750471 0.295824
Si Si7 0.413590 0.776730 0.772134
Si Si8 0.647343 0.976309 0.768660
O O1 0.217160 0.852767 0.097555
O O2 0.105831 0.814534 0.207986
O O3 0.141724 0.013940 0.164180
O O4 0.082966 0.860047 0.039383
O O5 0.162072 0.795274 0.750370
O O6 0.140054 0.975623 0.666419
O O7 0.267384 0.976343 0.750669
O O8 0.068179 0.765215 0.869441
O O9 0.154386 0.686625 0.990161
O O10 0.000000 0.689853 0.000000
O O11 0.500000 0.500000 0.613494
O O12 0.605931 0.500000 0.500000
O O13 0.596148 0.670890 0.621731
O O14 0.350170 0.924214 0.134471
O O15 0.274042 0.000000 0.000000
O O16 0.513514 0.753164 0.287425
O O17 0.383849 0.874622 0.291884
O O18 0.402099 0.910745 0.769312
#
# Coordination Sequence:
#
# PCOD9324293 Si02
#       8
#     8   8   8   8   8   8   8   8
#     4  10  23  36  56  83 123 166 226 281 336 373
#     4  10  24  40  64  94 131 169 217 274 333 405
#     4  12  23  35  54  84 125 173 231 286 327 364
#     4  10  21  43  77 102 122 156 205 262 337 421
#     4  11  22  37  52  83 119 176 230 274 317 384
#     4  11  22  42  67  95 129 167 219 282 334 410
#     4  12  23  39  59  92 132 180 233 275 325 390
#     4  11  23  39  62  91 129 182 222 269 336 390
#
# _framework density 20.054151999999998
#
# number of rings (size 3 to 8) (size 9 to 14) (size 15 to 20)
#    0.000    1.125    5.000    1.125    5.250    2.750 
#    0.000    0.625    5.500    0.000    0.000    0.000 
#    0.000    0.000    0.000    0.000    0.000    0.000 
#
# Total GULP energy -178443.322971 kJ/mol
# GULP energy per Si atom -5576.353843 kJ/mol
# Density = 2.000851 g / cm^3
# Si number density = 20.054152 Si / 1000 Ang^3
#
#
#
# Elastic Constant Matrix: (Units=GPa)
#
#
# Indices 1 2 3 4 5 6 
#
# 1 54.9350 11.1715 11.7999 0.0000 0.0000 0.0000
# 2 11.1715 98.2307 18.8701 0.0000 0.0000 0.0000
# 3 11.7999 18.8701 84.1866 0.0000 0.0000 0.0000
# 4 0.0000 0.0000 0.0000 10.0012 0.0000 0.0000
# 5 0.0000 0.0000 0.0000 0.0000 20.5242 0.0000
# 6 0.0000 0.0000 0.0000 0.0000 0.0000 27.8073
#
#
#
# Elastic Compliance Matrix: (Units=1/GPa)
#
#
# Indices 1 2 3 4 5 6 
#
# 1 0.019045 -0.001728 -0.002282 0.000000 0.000000 0.000000
# 2 -0.001728 0.010795 -0.002177 0.000000 0.000000 0.000000
# 3 -0.002282 -0.002177 0.012686 0.000000 0.000000 0.000000
# 4 0.000000 0.000000 0.000000 0.099988 0.000000 0.000000
# 5 0.000000 0.000000 0.000000 0.000000 0.048723 0.000000
# 6 0.000000 0.000000 0.000000 0.000000 0.000000 0.035962
#
#
# Mechanical properties :
#
#
# Convention : Reuss Voigt Hill
#
# Bulk Modulus (GPa) = 33.16566 35.67059 34.41812
# Shear Modulus (GPa) = 20.03012 24.70059 22.36536
#
# Velocity S-wave (km/s) = 3.16381 3.51336 3.34316
# Velocity P-wave (km/s) = 5.46994 5.85525 5.66587
#
# Compressibility (1/GPa) = 0.03015167
#
# Stress axis : x y z
#
# Youngs Moduli (GPa) = 52.50769 92.63653 78.82500
#
# Poissons Ratio (x) = 0.16003 0.17989
# Poissons Ratio (y) = 0.09071 0.17164
# Poissons Ratio (z) = 0.11983 0.20172
#
# Static dielectric constant tensor:
#      x y z
#    x 1.752170 0.000000 0.000000 
#    y 0.000000 1.802880 0.000000 
#    z 0.000000 0.000000 1.674800 
# 
# From -- ./inp_files/32974.got.cif
#   From: 2010.05.17/outbox.cif.g08.bks.cpg/sg21_17_cif.got.tgz:32974.got - 2010.06.03 23:14:55.
