data_PCOD9324853
_publ_section_title
;
Structure prediction by ZEFSAII (Michael W. Deem and Ramdas Pophale) SiO2 
 PCOD9324853
Probable space group: C 2 2 2
;
_chemical_formula_sum "Si O2"
_cell_formula_units_Z 54
_cell_length_a 13.231060
_cell_length_b 14.604656
_cell_length_c 13.684126
_cell_angle_alpha 90.000000
_cell_angle_beta 90.000000
_cell_angle_gamma 90.000000
_cell_volume 2644.253180
_symmetry_space_group_name_H-M "C 2 2 2"
_symmetry_group_IT_number 21
_symmetry_cell_setting 'orthorhombic'
loop_
_space_group_symop_operation_xyz
x,y,z
-x,-y,z
x,-y,-z
-x,y,-z
1/2+x,1/2+y,z
1/2-x,1/2-y,z
1/2+x,1/2-y,-z
1/2-x,1/2+y,-z
loop_
_atom_site_type_symbol
_atom_site_label
_atom_site_fract_x
_atom_site_fract_y
_atom_site_fract_z
Si Si1 0.098871 0.727813 0.442991
Si Si2 0.500000 0.000000 0.000000
Si Si3 0.250000 0.750000 0.927180
Si Si4 0.711430 0.405342 0.442709
Si Si5 0.079195 0.302062 0.780485
Si Si6 0.596852 0.358185 0.064671
Si Si7 0.383955 0.101964 0.166454
Si Si8 0.262298 0.560807 0.217600
O O1 0.182555 0.648759 0.453839
O O2 0.134116 0.827653 0.479348
O O3 0.085911 0.739566 0.326870
O O4 0.000000 0.699501 0.500000
O O5 0.427666 0.060473 0.066413
O O6 0.324921 0.806903 0.859650
O O7 0.316337 0.681863 0.993713
O O8 0.707758 0.500000 0.500000
O O9 0.698078 0.426323 0.327446
O O10 0.064761 0.225934 0.863683
O O11 0.183079 0.356122 0.801768
O O12 0.985956 0.372887 0.776491
O O13 0.650408 0.432224 0.135839
O O14 0.500000 0.385974 0.000000
O O15 0.306258 0.029795 0.211544
#
# Coordination Sequence:
#
# PCOD9324853 Si02
#       8
#     8   2   4   8   8   8   8   8
#     4  10  23  43  71  98 131 172 224 286 344 414
#     4  12  20  40  64  96 120 170 228 256 328 408
#     4  12  24  38  60  94 130 174 218 278 316 378
#     4  10  23  44  69 101 130 176 223 278 357 420
#     4  11  20  41  69  99 129 172 226 273 342 403
#     4  12  22  40  69  94 134 183 227 269 332 403
#     4  12  24  39  64  98 130 173 224 277 331 393
#     4  11  22  42  68  97 136 172 221 288 340 403
#
# _framework density 20.421645999999999
#
# number of rings (size 3 to 8) (size 9 to 14) (size 15 to 20)
#    0.000    0.889    5.926    1.778    2.074    0.593 
#    2.667    1.481    3.259    0.000    0.000    0.000 
#    0.000    0.000    0.000    0.000    0.000    0.000 
#
# Total GULP energy -150917.220165 kJ/mol
# GULP energy per Si atom -5589.526673 kJ/mol
# Density = 2.037517 g / cm^3
# Si number density = 20.421646 Si / 1000 Ang^3
#
#
#
# Elastic Constant Matrix: (Units=GPa)
#
#
# Indices 1 2 3 4 5 6 
#
# 1 80.6402 4.3690 30.3978 0.0000 0.0000 0.0000
# 2 4.3690 71.5867 24.7798 0.0000 0.0000 0.0000
# 3 30.3978 24.7798 46.9726 0.0000 0.0000 0.0000
# 4 0.0000 0.0000 0.0000 13.0836 0.0000 0.0000
# 5 0.0000 0.0000 0.0000 0.0000 52.2642 0.0000
# 6 0.0000 0.0000 0.0000 0.0000 0.0000 27.7666
#
#
#
# Elastic Compliance Matrix: (Units=1/GPa)
#
#
# Indices 1 2 3 4 5 6 
#
# 1 0.017053 0.003400 -0.012829 0.000000 0.000000 0.000000
# 2 0.003400 0.017768 -0.011573 0.000000 0.000000 0.000000
# 3 -0.012829 -0.011573 0.035697 0.000000 0.000000 0.000000
# 4 0.000000 0.000000 0.000000 0.076431 0.000000 0.000000
# 5 0.000000 0.000000 0.000000 0.000000 0.019134 0.000000
# 6 0.000000 0.000000 0.000000 0.000000 0.000000 0.036015
#
#
# Mechanical properties :
#
#
# Convention : Reuss Voigt Hill
#
# Bulk Modulus (GPa) = 35.07293 35.36586 35.21939
# Shear Modulus (GPa) = 19.71568 27.93309 23.82438
#
# Velocity S-wave (km/s) = 3.11051 3.70241 3.41929
# Velocity P-wave (km/s) = 5.48744 5.96930 5.73344
#
# Compressibility (1/GPa) = 0.02851202
#
# Stress axis : x y z
#
# Youngs Moduli (GPa) = 58.64230 56.28181 28.01382
#
# Poissons Ratio (x) = -0.19136 0.35939
# Poissons Ratio (y) = -0.19939 0.32422
# Poissons Ratio (z) = 0.75232 0.65138
#
# Static dielectric constant tensor:
#      x y z
#    x 1.751340 0.000000 0.000000 
#    y 0.000000 1.652970 0.000000 
#    z 0.000000 0.000000 1.722690 
# 
# From -- ./inp_files/31653.got.cif
#   From: 2010.05.17/outbox.cif.g08.bks.cpg/sg21_16_cif.got.tgz:31653.got - 2010.06.03 23:14:55.
