data_PCOD9324735
_publ_section_title
;
Structure prediction by ZEFSAII (Michael W. Deem and Ramdas Pophale) SiO2 
 PCOD9324735
Probable space group: C 2 2 2
;
_chemical_formula_sum "Si O2"
_cell_formula_units_Z 48
_cell_length_a 24.396105
_cell_length_b 8.908742
_cell_length_c 10.502676
_cell_angle_alpha 90.000000
_cell_angle_beta 90.000000
_cell_angle_gamma 90.000000
_cell_volume 2282.636953
_symmetry_space_group_name_H-M "C 2 2 2"
_symmetry_group_IT_number 21
_symmetry_cell_setting 'orthorhombic'
loop_
_space_group_symop_operation_xyz
x,y,z
-x,-y,z
x,-y,-z
-x,y,-z
1/2+x,1/2+y,z
1/2-x,1/2-y,z
1/2+x,1/2-y,-z
1/2-x,1/2+y,-z
loop_
_atom_site_type_symbol
_atom_site_label
_atom_site_fract_x
_atom_site_fract_y
_atom_site_fract_z
Si Si1 0.209864 0.111078 0.881572
Si Si2 0.103863 0.591520 0.373760
Si Si3 0.980719 0.166655 0.303225
Si Si4 0.264709 0.921176 0.372057
Si Si5 0.449073 0.891702 0.831004
Si Si6 0.411036 0.331986 0.945841
O O1 0.250000 0.250000 0.902618
O O2 0.232468 0.027977 0.754974
O O3 0.148288 0.178256 0.877363
O O4 0.211977 0.000000 0.000000
O O5 0.086751 0.500000 0.500000
O O6 0.068535 0.746968 0.376607
O O7 0.169542 0.584750 0.370132
O O8 0.089417 0.508391 0.241656
O O9 0.958056 0.163372 0.158951
O O10 0.031641 0.278082 0.281561
O O11 0.000000 0.000000 0.343145
O O12 0.250000 0.750000 0.383077
O O13 0.245723 0.000000 0.500000
O O14 0.500000 0.000000 0.867018
O O15 0.423259 0.793945 0.946212
O O16 0.411189 0.500000 0.000000
#
# Coordination Sequence:
#
# PCOD9324735 Si02
#       6
#     8   8   8   8   8   8
#     4  10  23  40  63  96 134 170 214 286 336 399
#     4  10  24  46  66  95 136 172 235 285 326 404
#     4  11  21  38  67  93 131 179 216 275 336 404
#     4  10  22  46  69  95 130 178 222 283 337 411
#     4  10  23  39  66 100 129 181 225 268 342 397
#     4  11  22  40  63  96 142 166 217 275 338 405
#
# _framework density 21.028312
#
# number of rings (size 3 to 8) (size 9 to 14) (size 15 to 20)
#    0.000    1.667    1.667    2.500    2.333    8.333 
#    9.000    1.667    0.000    0.000    0.000    0.000 
#    0.000    0.000    0.000    0.000    0.000    0.000 
#
# Total GULP energy -133842.047294 kJ/mol
# GULP energy per Si atom -5576.751971 kJ/mol
# Density = 2.098045 g / cm^3
# Si number density = 21.028312 Si / 1000 Ang^3
#
#
#
# Elastic Constant Matrix: (Units=GPa)
#
#
# Indices 1 2 3 4 5 6 
#
# 1 87.9741 27.9639 40.0932 0.0000 0.0000 0.0000
# 2 27.9639 99.2707 45.7803 0.0000 0.0000 0.0000
# 3 40.0932 45.7803 132.9395 0.0000 0.0000 0.0000
# 4 0.0000 0.0000 0.0000 42.1889 0.0000 0.0000
# 5 0.0000 0.0000 0.0000 0.0000 17.7815 0.0000
# 6 0.0000 0.0000 0.0000 0.0000 0.0000 100.9966
#
#
#
# Elastic Compliance Matrix: (Units=1/GPa)
#
#
# Indices 1 2 3 4 5 6 
#
# 1 0.013609 -0.002307 -0.003310 0.000000 0.000000 0.000000
# 2 -0.002307 0.012366 -0.003563 0.000000 0.000000 0.000000
# 3 -0.003310 -0.003563 0.009747 0.000000 0.000000 0.000000
# 4 0.000000 0.000000 0.000000 0.023703 0.000000 0.000000
# 5 0.000000 0.000000 0.000000 0.000000 0.056238 0.000000
# 6 0.000000 0.000000 0.000000 0.000000 0.000000 0.009901
#
#
# Mechanical properties :
#
#
# Convention : Reuss Voigt Hill
#
# Bulk Modulus (GPa) = 57.59348 60.87325 59.23337
# Shear Modulus (GPa) = 33.39748 45.94986 39.67367
#
# Velocity S-wave (km/s) = 3.98957 4.67962 4.34830
# Velocity P-wave (km/s) = 6.97640 7.62952 7.31026
#
# Compressibility (1/GPa) = 0.01736308
#
# Stress axis : x y z
#
# Youngs Moduli (GPa) = 73.48229 80.86412 102.59228
#
# Poissons Ratio (x) = 0.18657 0.33955
# Poissons Ratio (y) = 0.16953 0.36552
# Poissons Ratio (z) = 0.24321 0.28810
#
# Static dielectric constant tensor:
#      x y z
#    x 1.704730 0.000000 0.000000 
#    y 0.000000 1.696620 0.000000 
#    z 0.000000 0.000000 1.139360 
# 
# From -- ./inp_files/27356.got.cif
#   From: 2010.05.17/outbox.cif.g08.bks.cpg/sg21_14_cif.got.tgz:27356.got - 2010.06.03 23:14:55.
