data_PCOD9324993
_publ_section_title
;
Structure prediction by ZEFSAII (Michael W. Deem and Ramdas Pophale) SiO2 
 PCOD9324993
Probable space group: C 2 2 2
;
_chemical_formula_sum "Si O2"
_cell_formula_units_Z 30
_cell_length_a 11.782221
_cell_length_b 19.305125
_cell_length_c 6.236618
_cell_angle_alpha 90.000000
_cell_angle_beta 90.000000
_cell_angle_gamma 90.000000
_cell_volume 1418.563974
_symmetry_space_group_name_H-M "C 2 2 2"
_symmetry_group_IT_number 21
_symmetry_cell_setting 'orthorhombic'
loop_
_space_group_symop_operation_xyz
x,y,z
-x,-y,z
x,-y,-z
-x,y,-z
1/2+x,1/2+y,z
1/2-x,1/2-y,z
1/2+x,1/2-y,-z
1/2-x,1/2+y,-z
loop_
_atom_site_type_symbol
_atom_site_label
_atom_site_fract_x
_atom_site_fract_y
_atom_site_fract_z
Si Si1 0.500000 0.378400 0.500000
Si Si2 0.201398 0.826428 0.222857
Si Si3 0.500000 0.000000 0.000000
Si Si4 0.383628 0.928921 0.383096
Si Si5 0.123694 0.070152 0.106199
O O1 0.579873 0.332993 0.343278
O O2 0.412117 0.423518 0.354571
O O3 0.250000 0.750000 0.201674
O O4 0.289375 0.871322 0.363402
O O5 0.189982 0.864751 0.992302
O O6 0.576315 0.047588 0.149589
O O7 0.500000 0.906210 0.500000
O O8 0.344834 0.000000 0.500000
O O9 0.000000 0.073114 0.000000
O O10 0.174082 0.000000 0.000000
#
# Coordination Sequence:
#
# PCOD9324993 Si02
#       5
#     4   8   2   8   8
#     4  10  24  45  66  96 139 174 220 272 349 402
#     4  11  25  40  64  99 134 175 222 279 335 398
#     4   8  18  40  60  90 118 168 220 288 312 372
#     4   9  21  40  65  94 125 172 228 266 325 389
#     4   9  21  40  65  95 128 170 220 276 327 400
#
# _framework density 21.148149
#
# number of rings (size 3 to 8) (size 9 to 14) (size 15 to 20)
#    0.000    2.667    0.000    0.000    7.467   10.667 
#    7.200    0.000    0.000    0.000    0.000    0.000 
#    0.000    0.000    0.000    0.000    0.000    0.000 
#
# Total GULP energy -83645.185843 kJ/mol
# GULP energy per Si atom -5576.345723 kJ/mol
# Density = 2.110001 g / cm^3
# Si number density = 21.148149 Si / 1000 Ang^3
#
#
#
# Elastic Constant Matrix: (Units=GPa)
#
#
# Indices 1 2 3 4 5 6 
#
# 1 103.9817 59.3992 28.3441 0.0000 0.0000 0.0000
# 2 59.3992 159.3463 53.6110 0.0000 0.0000 0.0000
# 3 28.3441 53.6110 116.7812 0.0000 0.0000 0.0000
# 4 0.0000 0.0000 0.0000 15.0105 0.0000 0.0000
# 5 0.0000 0.0000 0.0000 0.0000 -1.5052 0.0000
# 6 0.0000 0.0000 0.0000 0.0000 0.0000 37.4642
#
#
#
# Elastic Compliance Matrix: (Units=1/GPa)
#
#
# Indices 1 2 3 4 5 6 
#
# 1 0.012326 -0.004244 -0.001043 0.000000 0.000000 0.000000
# 2 -0.004244 0.008883 -0.003048 0.000000 0.000000 0.000000
# 3 -0.001043 -0.003048 0.010216 0.000000 0.000000 0.000000
# 4 0.000000 0.000000 0.000000 0.066620 0.000000 0.000000
# 5 0.000000 0.000000 0.000000 0.000000 -0.664372 0.000000
# 6 0.000000 0.000000 0.000000 0.000000 0.000000 0.026692
#
#
# Mechanical properties :
#
#
# Convention : Reuss Voigt Hill
#
# Bulk Modulus (GPa) = 67.77752 73.64641 70.71197
# Shear Modulus (GPa) = -9.65162 26.11092 8.22965
#
# Velocity S-wave (km/s) = -2.13863 3.51759 1.97481
# Velocity P-wave (km/s) = 5.10100 7.16921 6.22165
#
# Compressibility (1/GPa) = 0.01475415
#
# Stress axis : x y z
#
# Youngs Moduli (GPa) = 81.13190 112.57514 97.89027
#
# Poissons Ratio (x) = 0.47772 0.10215
# Poissons Ratio (y) = 0.34428 0.29837
# Poissons Ratio (z) = 0.08466 0.34313
#
# Static dielectric constant tensor:
#      x y z
#    x 1.788010 0.000000 0.000000 
#    y 0.000000 1.764570 0.000000 
#    z 0.000000 0.000000 1.815250 
# 
# From -- ./inp_files/2426.got.cif
#   From: 2010.05.17/outbox.cif.g08.bks.cpg/sg21_2_cif.got.tgz:2426.got - 2010.06.03 23:14:55.
