data_PCOD9324001
_publ_section_title
;
Structure prediction by ZEFSAII (Michael W. Deem and Ramdas Pophale) SiO2 
 PCOD9324001
Probable space group: C 2 2 2
;
_chemical_formula_sum "Si O2"
_cell_formula_units_Z 64
_cell_length_a 21.341948
_cell_length_b 8.649778
_cell_length_c 17.615238
_cell_angle_alpha 90.000000
_cell_angle_beta 90.000000
_cell_angle_gamma 90.000000
_cell_volume 3251.827758
_symmetry_space_group_name_H-M "C 2 2 2"
_symmetry_group_IT_number 21
_symmetry_cell_setting 'orthorhombic'
loop_
_space_group_symop_operation_xyz
x,y,z
-x,-y,z
x,-y,-z
-x,y,-z
1/2+x,1/2+y,z
1/2-x,1/2-y,z
1/2+x,1/2-y,-z
1/2-x,1/2+y,-z
loop_
_atom_site_type_symbol
_atom_site_label
_atom_site_fract_x
_atom_site_fract_y
_atom_site_fract_z
Si Si1 0.795336 0.889700 0.202191
Si Si2 0.143104 0.203606 0.827717
Si Si3 0.689131 0.163597 0.460915
Si Si4 0.527921 0.666957 0.714798
Si Si5 0.075422 0.531033 0.085857
Si Si6 0.595213 0.163029 0.764302
Si Si7 0.939907 0.170148 0.462529
Si Si8 0.693011 0.935961 0.710374
O O1 0.750000 0.750000 0.168835
O O2 0.858224 0.808483 0.232161
O O3 0.752705 0.957783 0.270205
O O4 0.820700 0.041606 0.155753
O O5 0.089044 0.178132 0.765663
O O6 0.105440 0.302087 0.891663
O O7 0.187736 0.321304 0.782048
O O8 0.750000 0.250000 0.490930
O O9 0.625716 0.252237 0.478011
O O10 0.685919 0.000000 0.500000
O O11 0.696238 0.144338 0.370246
O O12 0.500000 0.500000 0.731032
O O13 0.474266 0.790574 0.738008
O O14 0.546727 0.670008 0.626955
O O15 0.096845 0.413534 0.151925
O O16 0.000000 0.500000 0.086679
O O17 0.096349 0.500000 0.000000
O O18 0.629623 0.038429 0.711274
O O19 0.000000 0.250970 0.500000
O O20 0.936863 0.000000 0.500000
#
# Coordination Sequence:
#
# PCOD9324001 Si02
#       8
#     8   8   8   8   8   8   8   8
#     4  10  21  38  62  92 125 162 216 271 320 382
#     4  11  20  38  66  93 129 166 214 273 322 390
#     4  12  27  44  61  87 123 167 223 275 338 407
#     4  12  21  36  66  94 126 166 217 268 325 392
#     4  10  21  39  63  97 140 175 209 264 343 410
#     4  10  22  38  63  98 127 163 217 269 322 394
#     4  11  25  45  63  88 130 178 211 267 343 402
#     4  10  23  40  64  89 120 166 218 273 327 384
#
# _framework density 19.681239000000001
#
# number of rings (size 3 to 8) (size 9 to 14) (size 15 to 20)
#    0.000    1.250    5.000    1.500    1.750    1.750 
#    0.000    0.625    0.000   24.750    0.000    0.000 
#    0.000    0.000    0.000    0.000    0.000    0.000 
#
# Total GULP energy -178428.609337 kJ/mol
# GULP energy per Si atom -5575.894042 kJ/mol
# Density = 1.963644 g / cm^3
# Si number density = 19.681239 Si / 1000 Ang^3
#
#
#
# Elastic Constant Matrix: (Units=GPa)
#
#
# Indices 1 2 3 4 5 6 
#
# 1 134.4447 58.7731 41.5037 0.0000 0.0000 0.0000
# 2 58.7731 113.9204 30.1126 0.0000 0.0000 0.0000
# 3 41.5037 30.1126 80.2954 0.0000 0.0000 0.0000
# 4 0.0000 0.0000 0.0000 13.6423 0.0000 0.0000
# 5 0.0000 0.0000 0.0000 0.0000 15.5209 0.0000
# 6 0.0000 0.0000 0.0000 0.0000 0.0000 54.2813
#
#
#
# Elastic Compliance Matrix: (Units=1/GPa)
#
#
# Indices 1 2 3 4 5 6 
#
# 1 0.010548 -0.004441 -0.003787 0.000000 0.000000 0.000000
# 2 -0.004441 0.011614 -0.002060 0.000000 0.000000 0.000000
# 3 -0.003787 -0.002060 0.015184 0.000000 0.000000 0.000000
# 4 0.000000 0.000000 0.000000 0.073301 0.000000 0.000000
# 5 0.000000 0.000000 0.000000 0.000000 0.064429 0.000000
# 6 0.000000 0.000000 0.000000 0.000000 0.000000 0.018423
#
#
# Mechanical properties :
#
#
# Convention : Reuss Voigt Hill
#
# Bulk Modulus (GPa) = 59.62870 65.49327 62.56098
# Shear Modulus (GPa) = 22.76190 29.90696 26.33443
#
# Velocity S-wave (km/s) = 3.40447 3.90239 3.66190
# Velocity P-wave (km/s) = 6.76881 7.32490 7.05234
#
# Compressibility (1/GPa) = 0.01677045
#
# Stress axis : x y z
#
# Youngs Moduli (GPa) = 94.80033 86.10453 65.85927
#
# Poissons Ratio (x) = 0.38240 0.24940
# Poissons Ratio (y) = 0.42102 0.13566
# Poissons Ratio (z) = 0.35900 0.17736
#
# Static dielectric constant tensor:
#      x y z
#    x 1.747690 0.000000 0.000000 
#    y 0.000000 1.749760 0.000000 
#    z 0.000000 0.000000 1.651680 
# 
# From -- ./inp_files/37051.got.cif
#   From: 2010.05.17/outbox.cif.g08.bks.cpg/sg21_19_cif.got.tgz:37051.got - 2010.06.03 23:14:55.
