data_PCOD9324318
_publ_section_title
;
Structure prediction by ZEFSAII (Michael W. Deem and Ramdas Pophale) SiO2 
 PCOD9324318
Probable space group: C 2 2 2
;
_chemical_formula_sum "Si O2"
_cell_formula_units_Z 32
_cell_length_a 5.230158
_cell_length_b 23.989315
_cell_length_c 12.722909
_cell_angle_alpha 90.000000
_cell_angle_beta 90.000000
_cell_angle_gamma 90.000000
_cell_volume 1596.316773
_symmetry_space_group_name_H-M "C 2 2 2"
_symmetry_group_IT_number 21
_symmetry_cell_setting 'orthorhombic'
loop_
_space_group_symop_operation_xyz
x,y,z
-x,-y,z
x,-y,-z
-x,y,-z
1/2+x,1/2+y,z
1/2-x,1/2-y,z
1/2+x,1/2-y,-z
1/2-x,1/2+y,-z
loop_
_atom_site_type_symbol
_atom_site_label
_atom_site_fract_x
_atom_site_fract_y
_atom_site_fract_z
Si Si1 0.252669 0.061961 0.952619
Si Si2 0.574377 0.102064 0.260467
Si Si3 0.951188 0.935006 0.374952
Si Si4 0.999306 0.286157 0.873458
O O1 0.313175 0.060718 0.830298
O O2 0.500000 0.089847 0.000000
O O3 0.000000 0.090313 0.000000
O O4 0.244880 0.000000 0.000000
O O5 0.326980 0.081252 0.326365
O O6 0.508007 0.158085 0.196850
O O7 0.826803 0.105348 0.331300
O O8 0.000000 0.932843 0.500000
O O9 0.000000 0.000000 0.345722
O O10 0.750000 0.250000 0.848034
O O11 0.250000 0.250000 0.849088
O O12 0.000000 0.294695 0.000000
#
# Coordination Sequence:
#
# PCOD9324318 Si02
#       4
#     8   8   8   8
#     4  10  22  34  52  89 133 161 195 252 309 383
#     4  12  23  40  70  91 126 178 214 264 335 378
#     4  11  26  44  64  93 129 172 224 271 324 393
#     4  10  22  41  65  95 131 167 213 259 314 397
#
# _framework density 20.046146
#
# number of rings (size 3 to 8) (size 9 to 14) (size 15 to 20)
#    0.000    1.250    0.000    5.250   10.500    5.000 
#    0.000    0.000    0.000   15.000    0.000    0.000 
#    0.000    0.000    0.000    0.000    0.000    0.000 
#
# Total GULP energy -89164.056541 kJ/mol
# GULP energy per Si atom -5572.753534 kJ/mol
# Density = 2.000052 g / cm^3
# Si number density = 20.046146 Si / 1000 Ang^3
#
#
#
# Elastic Constant Matrix: (Units=GPa)
#
#
# Indices 1 2 3 4 5 6 
#
# 1 206.8335 33.9993 59.4425 0.0000 0.0000 0.0000
# 2 33.9993 100.8924 39.4861 0.0000 0.0000 0.0000
# 3 59.4425 39.4861 122.1376 0.0000 0.0000 0.0000
# 4 0.0000 0.0000 0.0000 28.0099 0.0000 0.0000
# 5 0.0000 0.0000 0.0000 0.0000 49.7004 0.0000
# 6 0.0000 0.0000 0.0000 0.0000 0.0000 3.0540
#
#
#
# Elastic Compliance Matrix: (Units=1/GPa)
#
#
# Indices 1 2 3 4 5 6 
#
# 1 0.005700 -0.000956 -0.002465 0.000000 0.000000 0.000000
# 2 -0.000956 0.011508 -0.003255 0.000000 0.000000 0.000000
# 3 -0.002465 -0.003255 0.010440 0.000000 0.000000 0.000000
# 4 0.000000 0.000000 0.000000 0.035702 0.000000 0.000000
# 5 0.000000 0.000000 0.000000 0.000000 0.020121 0.000000
# 6 0.000000 0.000000 0.000000 0.000000 0.000000 0.327442
#
#
# Mechanical properties :
#
#
# Convention : Reuss Voigt Hill
#
# Bulk Modulus (GPa) = 69.95461 77.30215 73.62838
# Shear Modulus (GPa) = 11.65420 35.94856 23.80138
#
# Velocity S-wave (km/s) = 2.41377 4.23932 3.44950
# Velocity P-wave (km/s) = 6.53766 7.91254 7.25773
#
# Compressibility (1/GPa) = 0.01429498
#
# Stress axis : x y z
#
# Youngs Moduli (GPa) = 175.42432 86.89859 95.78931
#
# Poissons Ratio (x) = 0.08309 0.23614
# Poissons Ratio (y) = 0.16774 0.31179
# Poissons Ratio (z) = 0.43246 0.28285
#
# Static dielectric constant tensor:
#      x y z
#    x 1.771730 0.000000 0.000000 
#    y 0.000000 1.477300 0.000000 
#    z 0.000000 0.000000 1.890050 
# 
# From -- ./inp_files/20646.got.cif
#   From: 2010.05.17/outbox.cif.g08.bks.cpg/sg21_11_cif.got.tgz:20646.got - 2010.06.03 23:14:55.
