data_PCOD9324805
_publ_section_title
;
Structure prediction by ZEFSAII (Michael W. Deem and Ramdas Pophale) SiO2 
 PCOD9324805
Probable space group: C 2 2 2
;
_chemical_formula_sum "Si O2"
_cell_formula_units_Z 40
_cell_length_a 9.257748
_cell_length_b 15.126636
_cell_length_c 12.373327
_cell_angle_alpha 90.000000
_cell_angle_beta 90.000000
_cell_angle_gamma 90.000000
_cell_volume 1732.743195
_symmetry_space_group_name_H-M "C 2 2 2"
_symmetry_group_IT_number 21
_symmetry_cell_setting 'orthorhombic'
loop_
_space_group_symop_operation_xyz
x,y,z
-x,-y,z
x,-y,-z
-x,y,-z
1/2+x,1/2+y,z
1/2-x,1/2-y,z
1/2+x,1/2-y,-z
1/2-x,1/2+y,-z
loop_
_atom_site_type_symbol
_atom_site_label
_atom_site_fract_x
_atom_site_fract_y
_atom_site_fract_z
Si Si1 0.647481 0.881688 0.954570
Si Si2 0.810071 0.850388 0.174684
Si Si3 0.917658 0.237864 0.206388
Si Si4 0.374161 0.823494 0.414166
Si Si5 0.828889 0.518191 0.734079
O O1 0.758129 0.873314 0.052764
O O2 0.586718 0.790619 0.904613
O O3 0.702934 0.933287 0.849106
O O4 0.500000 0.919385 0.000000
O O5 0.750000 0.750000 0.191859
O O6 0.982716 0.845525 0.187634
O O7 0.028868 0.714670 0.314380
O O8 0.749089 0.924084 0.255994
O O9 0.750000 0.250000 0.233794
O O10 0.500000 0.844332 0.500000
O O11 0.250000 0.750000 0.448405
O O12 0.300657 0.912789 0.363797
O O13 0.000000 0.500000 0.732208
#
# Coordination Sequence:
#
# PCOD9324805 Si02
#       5
#     8   8   8   8   8
#     4  11  20  37  64 103 151 199 255 305 371 441
#     4  12  22  37  70 106 142 204 250 302 382 455
#     4  10  23  41  65 104 149 193 255 311 369 457
#     4  10  24  50  78 105 142 188 245 323 394 462
#     4  11  23  41  70 110 152 193 253 319 373 462
#
# _framework density 23.084783999999999
#
# number of rings (size 3 to 8) (size 9 to 14) (size 15 to 20)
#    0.000    1.200    4.000    2.400    0.000    3.600 
#    0.000    9.000    0.000   18.000    0.000    0.000 
#    0.000    0.000    0.000    0.000    0.000    0.000 
#
# Total GULP energy -111360.015390 kJ/mol
# GULP energy per Si atom -5568.000769 kJ/mol
# Density = 2.303224 g / cm^3
# Si number density = 23.084784 Si / 1000 Ang^3
#
#
#
# Elastic Constant Matrix: (Units=GPa)
#
#
# Indices 1 2 3 4 5 6 
#
# 1 125.8069 61.7905 42.7913 0.0000 0.0000 0.0000
# 2 61.7905 138.0112 34.3606 0.0000 0.0000 0.0000
# 3 42.7913 34.3606 104.6252 0.0000 0.0000 0.0000
# 4 0.0000 0.0000 0.0000 42.5607 0.0000 0.0000
# 5 0.0000 0.0000 0.0000 0.0000 29.0949 0.0000
# 6 0.0000 0.0000 0.0000 0.0000 0.0000-6130.8182
#
#
#
# Elastic Compliance Matrix: (Units=1/GPa)
#
#
# Indices 1 2 3 4 5 6 
#
# 1 0.011071 -0.004171 -0.003158 0.000000 0.000000 0.000000
# 2 -0.004171 0.009462 -0.001402 0.000000 0.000000 0.000000
# 3 -0.003158 -0.001402 0.011310 0.000000 0.000000 0.000000
# 4 0.000000 0.000000 0.000000 0.023496 0.000000 0.000000
# 5 0.000000 0.000000 0.000000 0.000000 0.034370 0.000000
# 6 0.000000 0.000000 0.000000 0.000000 0.000000 -0.000163
#
#
# Mechanical properties :
#
#
# Convention : Reuss Voigt Hill
#
# Bulk Modulus (GPa) = 69.53150 71.81422 70.67286
# Shear Modulus (GPa) = 44.72193 -1196.53246 -575.90526
#
# Velocity S-wave (km/s) = 4.40624 -22.79136 -15.81188
# Velocity P-wave (km/s) = 7.48813 25.71805 17.39750
#
# Compressibility (1/GPa) = 0.01438197
#
# Stress axis : x y z
#
# Youngs Moduli (GPa) = 90.32317 105.68585 88.41663
#
# Poissons Ratio (x) = 0.44076 0.27926
# Poissons Ratio (y) = 0.37669 0.12394
# Poissons Ratio (z) = 0.28528 0.14815
#
# Static dielectric constant tensor:
#      x y z
#    x 1.971940 0.000000 0.000000 
#    y 0.000000 2.111720 0.000000 
#    z 0.000000 0.000000 19.127700 
# 
# From -- ./inp_files/30212.got.cif
#   From: 2010.05.17/outbox.cif.g08.bks.cpg/sg21_16_cif.got.tgz:30212.got - 2010.06.03 23:14:55.
