data_PCOD9324494
_publ_section_title
;
Structure prediction by ZEFSAII (Michael W. Deem and Ramdas Pophale) SiO2 
 PCOD9324494
Probable space group: C 2 2 2
;
_chemical_formula_sum "Si O2"
_cell_formula_units_Z 58
_cell_length_a 9.428727
_cell_length_b 17.418743
_cell_length_c 16.931650
_cell_angle_alpha 90.000000
_cell_angle_beta 90.000000
_cell_angle_gamma 90.000000
_cell_volume 2780.796162
_symmetry_space_group_name_H-M "C 2 2 2"
_symmetry_group_IT_number 21
_symmetry_cell_setting 'orthorhombic'
loop_
_space_group_symop_operation_xyz
x,y,z
-x,-y,z
x,-y,-z
-x,y,-z
1/2+x,1/2+y,z
1/2-x,1/2-y,z
1/2+x,1/2-y,-z
1/2-x,1/2+y,-z
loop_
_atom_site_type_symbol
_atom_site_label
_atom_site_fract_x
_atom_site_fract_y
_atom_site_fract_z
Si Si1 0.500000 0.000000 0.000000
Si Si2 0.233909 0.412777 0.911400
Si Si3 0.164342 0.584691 0.721026
Si Si4 0.671940 0.667723 0.416340
Si Si5 0.369573 0.304846 0.042605
Si Si6 0.610755 0.443134 0.849470
Si Si7 0.335877 0.670415 0.405153
Si Si8 0.844493 0.598246 0.734159
O O1 0.413557 0.055177 0.942758
O O2 0.326263 0.491337 0.906860
O O3 0.215394 0.384243 0.821512
O O4 0.289286 0.351876 0.973846
O O5 0.246848 0.613714 0.644496
O O6 0.268354 0.593771 0.795354
O O7 0.148422 0.493068 0.722202
O O8 0.009396 0.623574 0.727490
O O9 0.750000 0.750000 0.413506
O O10 0.505625 0.677875 0.394692
O O11 0.681777 0.636868 0.506296
O O12 0.250000 0.250000 0.079303
O O13 0.436890 0.369477 0.100362
O O14 0.500000 0.262129 0.000000
O O15 0.500000 0.500000 0.803821
O O16 0.250000 0.750000 0.407943
O O17 0.260457 0.627539 0.333341
#
# Coordination Sequence:
#
# PCOD9324494 Si02
#       8
#     2   8   8   8   8   8   8   8
#     4  12  20  36  70  92 120 170 224 284 312 408
#     4  11  23  39  67  92 126 174 224 269 334 410
#     4  10  23  39  64  96 128 164 218 276 320 393
#     4  10  22  40  65  97 127 175 224 265 330 401
#     4  12  27  42  62  95 132 172 222 282 345 401
#     4  11  22  43  69  93 127 177 228 273 343 419
#     4  10  22  41  66  91 131 178 218 267 330 407
#     4  10  23  41  61  97 131 168 215 270 336 384
#
# _framework density 20.857336
#
# number of rings (size 3 to 8) (size 9 to 14) (size 15 to 20)
#    0.000    1.379    2.759    2.483    4.828    3.310 
#    0.000    2.759    0.000    0.000    0.000    0.000 
#    0.000    0.000    0.000    0.000    0.000    0.000 
#
# Total GULP energy -161726.014363 kJ/mol
# GULP energy per Si atom -5576.759116 kJ/mol
# Density = 2.080986 g / cm^3
# Si number density = 20.857336 Si / 1000 Ang^3
#
#
#
# Elastic Constant Matrix: (Units=GPa)
#
#
# Indices 1 2 3 4 5 6 
#
# 1 92.1380 -0.5988 19.3737 0.0000 0.0000 0.0000
# 2 -0.5988 17.4989 13.1070 0.0000 0.0000 0.0000
# 3 19.3737 13.1070 82.3353 0.0000 0.0000 0.0000
# 4 0.0000 0.0000 0.0000 -5.2170 0.0000 0.0000
# 5 0.0000 0.0000 0.0000 0.0000 41.3290 0.0000
# 6 0.0000 0.0000 0.0000 0.0000 0.0000 37.7735
#
#
#
# Elastic Compliance Matrix: (Units=1/GPa)
#
#
# Indices 1 2 3 4 5 6 
#
# 1 0.011534 0.002756 -0.003153 0.000000 0.000000 0.000000
# 2 0.002756 0.065541 -0.011082 0.000000 0.000000 0.000000
# 3 -0.003153 -0.011082 0.014651 0.000000 0.000000 0.000000
# 4 0.000000 0.000000 0.000000 -0.191680 0.000000 0.000000
# 5 0.000000 0.000000 0.000000 0.000000 0.024196 0.000000
# 6 0.000000 0.000000 0.000000 0.000000 0.000000 0.026474
#
#
# Mechanical properties :
#
#
# Convention : Reuss Voigt Hill
#
# Bulk Modulus (GPa) = 14.54132 28.41511 21.47822
# Shear Modulus (GPa) = -1469.41683 25.44980 -721.98352
#
# Velocity S-wave (km/s) = -26.57137 3.49690 -18.62538
# Velocity P-wave (km/s) = 30.56790 5.47335 21.26546
#
# Compressibility (1/GPa) = 0.06876956
#
# Stress axis : x y z
#
# Youngs Moduli (GPa) = 86.69927 15.25756 68.25256
#
# Poissons Ratio (x) = -0.04205 0.21518
# Poissons Ratio (y) = -0.23896 0.75638
# Poissons Ratio (z) = 0.27334 0.16909
#
# Static dielectric constant tensor:
#      x y z
#    x 1.879750 0.000000 0.000000 
#    y 0.000000 1.718000 0.000000 
#    z 0.000000 0.000000 1.979880 
# 
# From -- ./inp_files/35821.got.cif
#   From: 2010.05.17/outbox.cif.g08.bks.cpg/sg21_18_cif.got.tgz:35821.got - 2010.06.03 23:14:55.
