data_PCOD9324242
_publ_section_title
;
Structure prediction by ZEFSAII (Michael W. Deem and Ramdas Pophale) SiO2 
 PCOD9324242
Probable space group: C 2 2 2
;
_chemical_formula_sum "Si O2"
_cell_formula_units_Z 60
_cell_length_a 27.823558
_cell_length_b 17.154045
_cell_length_c 5.208975
_cell_angle_alpha 90.000000
_cell_angle_beta 90.000000
_cell_angle_gamma 90.000000
_cell_volume 2486.173790
_symmetry_space_group_name_H-M "C 2 2 2"
_symmetry_group_IT_number 21
_symmetry_cell_setting 'orthorhombic'
loop_
_space_group_symop_operation_xyz
x,y,z
-x,-y,z
x,-y,-z
-x,y,-z
1/2+x,1/2+y,z
1/2-x,1/2-y,z
1/2+x,1/2-y,-z
1/2-x,1/2+y,-z
loop_
_atom_site_type_symbol
_atom_site_label
_atom_site_fract_x
_atom_site_fract_y
_atom_site_fract_z
Si Si1 0.731444 0.143439 0.563200
Si Si2 0.889636 0.880128 0.102102
Si Si3 0.362199 0.209063 0.274106
Si Si4 0.665708 0.000000 0.500000
Si Si5 0.546823 0.796832 0.643850
Si Si6 0.282211 0.590185 0.041015
Si Si7 0.401501 0.918239 0.082032
Si Si8 0.449765 0.385980 0.618604
O O1 0.689459 0.208878 0.580967
O O2 0.761813 0.127781 0.304181
O O3 0.701498 0.064476 0.602840
O O4 0.764344 0.145529 0.812175
O O5 0.877310 0.786680 0.117398
O O6 0.910306 0.896020 0.389542
O O7 0.839455 0.912631 0.997505
O O8 0.928257 0.910341 0.892422
O O9 0.404522 0.198534 0.479268
O O10 0.365956 0.133055 0.093866
O O11 0.631965 0.952060 0.691871
O O12 0.500000 0.825494 0.500000
O O13 0.557368 0.855067 0.871836
O O14 0.540253 0.705367 0.686273
O O15 0.266104 0.500000 0.000000
O O16 0.424261 0.000000 0.000000
O O17 0.500000 0.415113 0.500000
#
# Coordination Sequence:
#
# PCOD9324242 Si02
#       8
#     8   8   8   4   8   8   8   8
#     4  12  24  41  68  92 128 178 234 268 321 415
#     4  11  24  44  68 102 142 168 218 289 337 389
#     4  11  24  40  63  91 127 173 222 282 330 385
#     4  12  22  36  61  86 114 174 223 268 310 394
#     4  10  22  39  58  89 126 169 225 279 336 384
#     4  12  26  44  70 101 133 178 221 274 350 408
#     4  12  21  37  60  86 121 169 226 267 338 380
#     4  10  21  41  73 101 132 179 223 260 328 421
#
# _framework density 24.133469999999999
#
# number of rings (size 3 to 8) (size 9 to 14) (size 15 to 20)
#    0.000    0.800    5.333    2.000    0.000    1.067 
#    0.000    7.667    0.000    2.400    0.000    0.000 
#    0.000    0.000    0.000    0.000    0.000    0.000 
#
# Total GULP energy -167400.367405 kJ/mol
# GULP energy per Si atom -5580.012247 kJ/mol
# Density = 2.407854 g / cm^3
# Si number density = 24.133470 Si / 1000 Ang^3
#
#
#
# Elastic Constant Matrix: (Units=GPa)
#
#
# Indices 1 2 3 4 5 6 
#
# 1 106.0070 9.2337 31.5095 0.0000 0.0000 0.0000
# 2 9.2337 108.5517 26.6611 0.0000 0.0000 0.0000
# 3 31.5095 26.6611 99.2162 0.0000 0.0000 0.0000
# 4 0.0000 0.0000 0.0000 11.7930 0.0000 0.0000
# 5 0.0000 0.0000 0.0000 0.0000 30.9811 0.0000
# 6 0.0000 0.0000 0.0000 0.0000 0.0000 11.4264
#
#
#
# Elastic Compliance Matrix: (Units=1/GPa)
#
#
# Indices 1 2 3 4 5 6 
#
# 1 0.010417 -0.000079 -0.003287 0.000000 0.000000 0.000000
# 2 -0.000079 0.009864 -0.002626 0.000000 0.000000 0.000000
# 3 -0.003287 -0.002626 0.011828 0.000000 0.000000 0.000000
# 4 0.000000 0.000000 0.000000 0.084796 0.000000 0.000000
# 5 0.000000 0.000000 0.000000 0.000000 0.032278 0.000000
# 6 0.000000 0.000000 0.000000 0.000000 0.000000 0.087516
#
#
# Mechanical properties :
#
#
# Convention : Reuss Voigt Hill
#
# Bulk Modulus (GPa) = 49.68573 49.84264 49.76418
# Shear Modulus (GPa) = 19.57776 27.26480 23.42128
#
# Velocity S-wave (km/s) = 2.85130 3.36482 3.11865
# Velocity P-wave (km/s) = 5.61003 5.98279 5.79941
#
# Compressibility (1/GPa) = 0.02012650
#
# Stress axis : x y z
#
# Youngs Moduli (GPa) = 95.99428 101.38125 84.54164
#
# Poissons Ratio (x) = 0.00799 0.27791
# Poissons Ratio (y) = 0.00756 0.22197
# Poissons Ratio (z) = 0.31555 0.26618
#
# Static dielectric constant tensor:
#      x y z
#    x 2.007280 0.000000 0.000000 
#    y 0.000000 1.997620 0.000000 
#    z 0.000000 0.000000 2.028730 
# 
# From -- ./inp_files/6835.got.cif
#   From: 2010.05.17/outbox.cif.g08.bks.cpg/sg21_4_cif.got.tgz:6835.got - 2010.06.03 23:14:55.
