data_PCOD9324978
_publ_section_title
;
Structure prediction by ZEFSAII (Michael W. Deem and Ramdas Pophale) SiO2 
 PCOD9324978
Probable space group: C 2 2 2
;
_chemical_formula_sum "Si O2"
_cell_formula_units_Z 46
_cell_length_a 22.942266
_cell_length_b 10.850992
_cell_length_c 8.647473
_cell_angle_alpha 90.000000
_cell_angle_beta 90.000000
_cell_angle_gamma 90.000000
_cell_volume 2152.756795
_symmetry_space_group_name_H-M "C 2 2 2"
_symmetry_group_IT_number 21
_symmetry_cell_setting 'orthorhombic'
loop_
_space_group_symop_operation_xyz
x,y,z
-x,-y,z
x,-y,-z
-x,y,-z
1/2+x,1/2+y,z
1/2-x,1/2-y,z
1/2+x,1/2-y,-z
1/2-x,1/2+y,-z
loop_
_atom_site_type_symbol
_atom_site_label
_atom_site_fract_x
_atom_site_fract_y
_atom_site_fract_z
Si Si1 0.395851 0.108457 0.899086
Si Si2 0.500000 0.500000 0.000000
Si Si3 0.271018 0.011355 0.821882
Si Si4 0.750000 0.250000 0.371952
Si Si5 0.185491 0.880530 0.609531
Si Si6 0.911329 0.196550 0.851893
Si Si7 0.495477 0.853204 0.327070
O O1 0.340400 0.034644 0.831365
O O2 0.435881 0.165578 0.766341
O O3 0.380960 0.224186 0.010566
O O4 0.426732 0.000000 0.000000
O O5 0.455623 0.590525 0.909330
O O6 0.249624 0.133980 0.738399
O O7 0.243726 0.906387 0.713165
O O8 0.251266 0.000000 0.000000
O O9 0.803853 0.230705 0.489391
O O10 0.134941 0.856712 0.731591
O O11 0.175350 0.000000 0.500000
O O12 0.952272 0.295054 0.767713
O O13 0.500000 0.802081 0.500000
O O14 0.500000 0.000000 0.335817
#
# Coordination Sequence:
#
# PCOD9324978 Si02
#       7
#     8   2   8   4   8   8   8
#     4  11  23  44  73 101 140 182 239 306 351 420
#     4  12  28  44  68 108 140 192 242 294 342 428
#     4  10  25  43  68 105 133 186 242 293 354 434
#     4  10  24  44  70  98 144 184 234 298 366 424
#     4  10  26  47  68 102 146 188 234 296 361 440
#     4  12  26  45  73 100 142 192 235 298 351 434
#     4  11  24  43  70 106 138 179 237 296 367 420
#
# _framework density 21.36795
#
# number of rings (size 3 to 8) (size 9 to 14) (size 15 to 20)
#    0.000    1.217    3.478    0.000   10.957    2.783 
#    6.261    0.000    0.000    0.000    0.000    0.000 
#    0.000    0.000    0.000    0.000    0.000    0.000 
#
# Total GULP energy -128334.561593 kJ/mol
# GULP energy per Si atom -5579.763548 kJ/mol
# Density = 2.131932 g / cm^3
# Si number density = 21.367950 Si / 1000 Ang^3
#
#
#
# Elastic Constant Matrix: (Units=GPa)
#
#
# Indices 1 2 3 4 5 6 
#
# 1 111.6199 28.3991 68.6351 0.0000 0.0000 0.0000
# 2 28.3991 77.6034 53.1730 0.0000 0.0000 0.0000
# 3 68.6351 53.1730 153.9048 0.0000 0.0000 0.0000
# 4 0.0000 0.0000 0.0000 29.6741 0.0000 0.0000
# 5 0.0000 0.0000 0.0000 0.0000 43.6942 0.0000
# 6 0.0000 0.0000 0.0000 0.0000 0.0000 24.5242
#
#
#
# Elastic Compliance Matrix: (Units=1/GPa)
#
#
# Indices 1 2 3 4 5 6 
#
# 1 0.012401 -0.000981 -0.005191 0.000000 0.000000 0.000000
# 2 -0.000981 0.016960 -0.005422 0.000000 0.000000 0.000000
# 3 -0.005191 -0.005422 0.010686 0.000000 0.000000 0.000000
# 4 0.000000 0.000000 0.000000 0.033699 0.000000 0.000000
# 5 0.000000 0.000000 0.000000 0.000000 0.022886 0.000000
# 6 0.000000 0.000000 0.000000 0.000000 0.000000 0.040776
#
#
# Mechanical properties :
#
#
# Convention : Reuss Voigt Hill
#
# Bulk Modulus (GPa) = 59.31918 71.50473 65.41195
# Shear Modulus (GPa) = 30.08120 32.43990 31.26055
#
# Velocity S-wave (km/s) = 3.75610 3.90058 3.82902
# Velocity P-wave (km/s) = 6.82877 7.33636 7.08711
#
# Compressibility (1/GPa) = 0.01685796
#
# Stress axis : x y z
#
# Youngs Moduli (GPa) = 80.64078 58.96150 93.58125
#
# Poissons Ratio (x) = 0.05785 0.48580
# Poissons Ratio (y) = 0.07911 0.50741
# Poissons Ratio (z) = 0.41863 0.31970
#
# Static dielectric constant tensor:
#      x y z
#    x 1.792960 0.000000 0.000000 
#    y 0.000000 1.797690 0.000000 
#    z 0.000000 0.000000 1.866230 
# 
# From -- ./inp_files/18496.got.cif
#   From: 2010.05.17/outbox.cif.g08.bks.cpg/sg21_10_cif.got.tgz:18496.got - 2010.06.03 23:14:55.
