data_PCOD9324069
_publ_section_title
;
Structure prediction by ZEFSAII (Michael W. Deem and Ramdas Pophale) SiO2 
 PCOD9324069
Probable space group: C 2 2 2
;
_chemical_formula_sum "Si O2"
_cell_formula_units_Z 40
_cell_length_a 24.049857
_cell_length_b 7.867821
_cell_length_c 9.364252
_cell_angle_alpha 90.000000
_cell_angle_beta 90.000000
_cell_angle_gamma 90.000000
_cell_volume 1771.903482
_symmetry_space_group_name_H-M "C 2 2 2"
_symmetry_group_IT_number 21
_symmetry_cell_setting 'orthorhombic'
loop_
_space_group_symop_operation_xyz
x,y,z
-x,-y,z
x,-y,-z
-x,y,-z
1/2+x,1/2+y,z
1/2-x,1/2-y,z
1/2+x,1/2-y,-z
1/2-x,1/2+y,-z
loop_
_atom_site_type_symbol
_atom_site_label
_atom_site_fract_x
_atom_site_fract_y
_atom_site_fract_z
Si Si1 0.809378 0.464426 0.153455
Si Si2 0.282061 0.435084 0.343931
Si Si3 0.617772 0.698011 0.186711
Si Si4 0.077366 0.321611 0.912238
Si Si5 0.493517 0.704709 0.663763
O O1 0.763775 0.444630 0.272139
O O2 0.843709 0.637367 0.173313
O O3 0.859610 0.332426 0.147334
O O4 0.780859 0.500000 0.000000
O O5 0.296444 0.500000 0.500000
O O6 0.250000 0.250000 0.350239
O O7 0.337605 0.433761 0.247075
O O8 0.570131 0.738394 0.298689
O O9 0.583779 0.683333 0.038518
O O10 0.034429 0.284528 0.784675
O O11 0.065470 0.500000 0.000000
O O12 0.500000 0.500000 0.670475
O O13 0.500000 0.761626 0.500000
#
# Coordination Sequence:
#
# PCOD9324069 Si02
#       5
#     8   8   8   8   8
#     4   8  18  39  62  92 119 153 218 271 311 375
#     4  10  21  39  62  90 129 168 209 266 325 387
#     4   9  20  39  62  87 126 168 209 265 321 384
#     4   9  20  42  70  94 125 167 227 273 316 391
#     4  11  25  41  61  95 136 170 212 270 336 399
#
# _framework density 22.574593
#
# number of rings (size 3 to 8) (size 9 to 14) (size 15 to 20)
#    0.000    3.000    0.000    0.600    2.800   11.200 
#    3.600   10.000    0.000    0.000    0.000    0.000 
#    0.000    0.000    0.000    0.000    0.000    0.000 
#
# Total GULP energy -111483.081586 kJ/mol
# GULP energy per Si atom -5574.154079 kJ/mol
# Density = 2.252321 g / cm^3
# Si number density = 22.574593 Si / 1000 Ang^3
#
#
#
# Elastic Constant Matrix: (Units=GPa)
#
#
# Indices 1 2 3 4 5 6 
#
# 1 116.6174 11.2375 89.1295 0.0000 0.0000 0.0000
# 2 11.2375 71.0374 43.7656 0.0000 0.0000 0.0000
# 3 89.1295 43.7656 131.8126 0.0000 0.0000 0.0000
# 4 0.0000 0.0000 0.0000 27.7133 0.0000 0.0000
# 5 0.0000 0.0000 0.0000 0.0000 65.0980 0.0000
# 6 0.0000 0.0000 0.0000 0.0000 0.0000 4.7976
#
#
#
# Elastic Compliance Matrix: (Units=1/GPa)
#
#
# Indices 1 2 3 4 5 6 
#
# 1 0.019847 0.006447 -0.015561 0.000000 0.000000 0.000000
# 2 0.006447 0.019792 -0.010931 0.000000 0.000000 0.000000
# 3 -0.015561 -0.010931 0.021738 0.000000 0.000000 0.000000
# 4 0.000000 0.000000 0.000000 0.036084 0.000000 0.000000
# 5 0.000000 0.000000 0.000000 0.000000 0.015361 0.000000
# 6 0.000000 0.000000 0.000000 0.000000 0.000000 0.208436
#
#
# Mechanical properties :
#
#
# Convention : Reuss Voigt Hill
#
# Bulk Modulus (GPa) = 46.97619 67.52584 57.25102
# Shear Modulus (GPa) = 13.57067 31.21078 22.39073
#
# Velocity S-wave (km/s) = 2.45449 3.72232 3.15279
# Velocity P-wave (km/s) = 5.37468 6.96071 6.21847
#
# Compressibility (1/GPa) = 0.02128738
#
# Stress axis : x y z
#
# Youngs Moduli (GPa) = 50.38649 50.52640 46.00298
#
# Poissons Ratio (x) = -0.32575 0.71583
# Poissons Ratio (y) = -0.32485 0.50285
# Poissons Ratio (z) = 0.78404 0.55230
#
# Static dielectric constant tensor:
#      x y z
#    x 1.848340 0.000000 0.000000 
#    y 0.000000 1.911880 0.000000 
#    z 0.000000 0.000000 1.884210 
# 
# From -- ./inp_files/18235.got.cif
#   From: 2010.05.17/outbox.cif.g08.bks.cpg/sg21_10_cif.got.tgz:18235.got - 2010.06.03 23:14:55.
