data_PCOD9324390
_publ_section_title
;
Structure prediction by ZEFSAII (Michael W. Deem and Ramdas Pophale) SiO2 
 PCOD9324390
Probable space group: C 2 2 2
;
_chemical_formula_sum "Si O2"
_cell_formula_units_Z 64
_cell_length_a 14.978618
_cell_length_b 25.200362
_cell_length_c 8.484859
_cell_angle_alpha 90.000000
_cell_angle_beta 90.000000
_cell_angle_gamma 90.000000
_cell_volume 3202.750843
_symmetry_space_group_name_H-M "C 2 2 2"
_symmetry_group_IT_number 21
_symmetry_cell_setting 'orthorhombic'
loop_
_space_group_symop_operation_xyz
x,y,z
-x,-y,z
x,-y,-z
-x,y,-z
1/2+x,1/2+y,z
1/2-x,1/2-y,z
1/2+x,1/2-y,-z
1/2-x,1/2+y,-z
loop_
_atom_site_type_symbol
_atom_site_label
_atom_site_fract_x
_atom_site_fract_y
_atom_site_fract_z
Si Si1 0.849590 0.110608 0.802749
Si Si2 0.718052 0.502764 0.813040
Si Si3 0.514153 0.669607 0.686742
Si Si4 0.812499 0.121424 0.175787
Si Si5 0.291761 0.808574 0.653706
Si Si6 0.093072 0.477968 0.676257
Si Si7 0.974068 0.714772 0.181947
Si Si8 0.629908 0.145674 0.328878
O O1 0.950395 0.124596 0.758601
O O2 0.784236 0.152001 0.716576
O O3 0.826129 0.050806 0.750101
O O4 0.833957 0.118304 0.990081
O O5 0.684453 0.560680 0.759354
O O6 0.822904 0.502431 0.775574
O O7 0.704628 0.500000 0.000000
O O8 0.500000 0.672498 0.500000
O O9 0.615205 0.656714 0.734271
O O10 0.483373 0.724535 0.763999
O O11 0.713461 0.143693 0.207989
O O12 0.250000 0.750000 0.629632
O O13 0.374408 0.804109 0.775545
O O14 0.331518 0.832482 0.492830
O O15 0.103228 0.500000 0.500000
O O16 0.095290 0.414611 0.663208
O O17 0.000000 0.500000 0.741000
O O18 0.047840 0.681690 0.276854
O O19 0.000000 0.709758 0.000000
#
# Coordination Sequence:
#
# PCOD9324390 Si02
#       8
#     8   8   8   8   8   8   8   8
#     4  11  22  42  68  94 130 172 211 269 319 381
#     4   9  21  41  64  92 125 166 212 263 320 379
#     4  12  25  43  64  95 129 168 216 268 322 383
#     4  10  23  43  66  96 130 167 218 261 324 380
#     4  12  25  42  66  99 131 171 215 262 327 384
#     4  10  22  38  61  95 126 169 210 258 321 378
#     4  12  27  45  66  95 128 168 219 267 322 387
#     4  11  25  43  66  97 132 172 214 266 319 384
#
# _framework density 19.982821000000001
#
# number of rings (size 3 to 8) (size 9 to 14) (size 15 to 20)
#    0.000    1.125    1.250    4.500    7.000    1.750 
#    0.000    2.500    0.000    0.000    0.000    0.000 
#    0.000    0.000    0.000    0.000    0.000    0.000 
#
# Total GULP energy -178952.792224 kJ/mol
# GULP energy per Si atom -5592.274757 kJ/mol
# Density = 1.993734 g / cm^3
# Si number density = 19.982821 Si / 1000 Ang^3
#
#
#
# Elastic Constant Matrix: (Units=GPa)
#
#
# Indices 1 2 3 4 5 6 
#
# 1 70.4249 13.8143 -3.4761 0.0000 0.0000 0.0000
# 2 13.8143 60.9876 -15.8372 0.0000 0.0000 0.0000
# 3 -3.4761 -15.8372 50.1698 0.0000 0.0000 0.0000
# 4 0.0000 0.0000 0.0000 11.8208 0.0000 0.0000
# 5 0.0000 0.0000 0.0000 0.0000 35.0357 0.0000
# 6 0.0000 0.0000 0.0000 0.0000 0.0000 39.0350
#
#
#
# Elastic Compliance Matrix: (Units=1/GPa)
#
#
# Indices 1 2 3 4 5 6 
#
# 1 0.014860 -0.003375 -0.000036 0.000000 0.000000 0.000000
# 2 -0.003375 0.018628 0.005646 0.000000 0.000000 0.000000
# 3 -0.000036 0.005646 0.021712 0.000000 0.000000 0.000000
# 4 0.000000 0.000000 0.000000 0.084597 0.000000 0.000000
# 5 0.000000 0.000000 0.000000 0.000000 0.028542 0.000000
# 6 0.000000 0.000000 0.000000 0.000000 0.000000 0.025618
#
#
# Mechanical properties :
#
#
# Convention : Reuss Voigt Hill
#
# Bulk Modulus (GPa) = 16.75883 18.95381 17.85632
# Shear Modulus (GPa) = 23.88049 29.65040 26.76544
#
# Velocity S-wave (km/s) = 3.46070 3.85618 3.66378
# Velocity P-wave (km/s) = 4.93694 5.41595 5.18199
#
# Compressibility (1/GPa) = 0.05967005
#
# Stress axis : x y z
#
# Youngs Moduli (GPa) = 67.29558 53.68395 46.05705
#
# Poissons Ratio (x) = 0.18119 0.00165
# Poissons Ratio (y) = 0.22714 -0.26005
# Poissons Ratio (z) = 0.00241 -0.30312
#
# Static dielectric constant tensor:
#      x y z
#    x 1.697150 0.000000 0.000000 
#    y 0.000000 1.690700 0.000000 
#    z 0.000000 0.000000 1.684970 
# 
# From -- ./inp_files/15497.got.cif
#   From: 2010.05.17/outbox.cif.g08.bks.cpg/sg21_8_cif.got.tgz:15497.got - 2010.06.03 23:14:55.
