data_PCOD9324899
_publ_section_title
;
Structure prediction by ZEFSAII (Michael W. Deem and Ramdas Pophale) SiO2 
 PCOD9324899
Probable space group: C 2 2 2
;
_chemical_formula_sum "Si O2"
_cell_formula_units_Z 18
_cell_length_a 7.289524
_cell_length_b 7.442891
_cell_length_c 12.667864
_cell_angle_alpha 90.000000
_cell_angle_beta 90.000000
_cell_angle_gamma 90.000000
_cell_volume 687.296641
_symmetry_space_group_name_H-M "C 2 2 2"
_symmetry_group_IT_number 21
_symmetry_cell_setting 'orthorhombic'
loop_
_space_group_symop_operation_xyz
x,y,z
-x,-y,z
x,-y,-z
-x,y,-z
1/2+x,1/2+y,z
1/2-x,1/2-y,z
1/2+x,1/2-y,-z
1/2-x,1/2+y,-z
loop_
_atom_site_type_symbol
_atom_site_label
_atom_site_fract_x
_atom_site_fract_y
_atom_site_fract_z
Si Si1 0.461204 0.288094 0.882625
Si Si2 0.500000 0.500000 0.500000
Si Si3 0.970819 0.297943 0.346404
O O1 0.500000 0.500000 0.883060
O O2 0.250000 0.250000 0.869527
O O3 0.541943 0.209900 0.774798
O O4 0.500000 0.215722 0.000000
O O5 0.572970 0.646636 0.415354
O O6 0.750000 0.250000 0.353023
O O7 0.000000 0.500000 0.383704
#
# Coordination Sequence:
#
# PCOD9324899 Si02
#       3
#     8   2   8
#     4  10  23  47  74 110 150 194 242 306 372 443
#     4  12  26  48  72 106 148 200 246 312 356 446
#     4  11  27  47  74 107 149 195 249 305 370 438
#
# _framework density 26.189565000000002
#
# number of rings (size 3 to 8) (size 9 to 14) (size 15 to 20)
#    0.000    1.333    2.222    0.667    6.222   15.111 
#    0.000    0.000    0.000    0.000    0.000    0.000 
#    0.000    0.000    0.000    0.000    0.000    0.000 
#
# Total GULP energy -50256.860696 kJ/mol
# GULP energy per Si atom -5584.095633 kJ/mol
# Density = 2.612996 g / cm^3
# Si number density = 26.189565 Si / 1000 Ang^3
#
#
#
# Elastic Constant Matrix: (Units=GPa)
#
#
# Indices 1 2 3 4 5 6 
#
# 1 124.1901 40.2037 -3.3912 0.0000 0.0000 0.0000
# 2 40.2037 256.6383 74.2488 0.0000 0.0000 0.0000
# 3 -3.3912 74.2488 281.7060 0.0000 0.0000 0.0000
# 4 0.0000 0.0000 0.0000 344.7299 0.0000 0.0000
# 5 0.0000 0.0000 0.0000 0.0000 -10.0266 0.0000
# 6 0.0000 0.0000 0.0000 0.0000 0.0000 46.3368
#
#
#
# Elastic Compliance Matrix: (Units=1/GPa)
#
#
# Indices 1 2 3 4 5 6 
#
# 1 0.008545 -0.001481 0.000493 0.000000 0.000000 0.000000
# 2 -0.001481 0.004475 -0.001197 0.000000 0.000000 0.000000
# 3 0.000493 -0.001197 0.003871 0.000000 0.000000 0.000000
# 4 0.000000 0.000000 0.000000 0.002901 0.000000 0.000000
# 5 0.000000 0.000000 0.000000 0.000000 -0.099735 0.000000
# 6 0.000000 0.000000 0.000000 0.000000 0.000000 0.021581
#
#
# Mechanical properties :
#
#
# Convention : Reuss Voigt Hill
#
# Bulk Modulus (GPa) = 79.86718 98.29521 89.08119
# Shear Modulus (GPa) = -100.36771 112.97288 6.30258
#
# Velocity S-wave (km/s) = -6.19732 6.57497 1.55298
# Velocity P-wave (km/s) = 4.54390 9.75982 6.10766
#
# Compressibility (1/GPa) = 0.01252079
#
# Stress axis : x y z
#
# Youngs Moduli (GPa) = 117.02469 223.46396 258.31050
#
# Poissons Ratio (x) = 0.33103 -0.12743
# Poissons Ratio (y) = 0.17336 0.30928
# Poissons Ratio (z) = -0.05773 0.26755
#
# Static dielectric constant tensor:
#      x y z
#    x 2.142430 0.000000 0.000000 
#    y 0.000000 1.929750 0.000000 
#    z 0.000000 0.000000 2.250650 
# 
# From -- ./inp_files/21485.got.cif
#   From: 2010.05.17/outbox.cif.g08.bks.cpg/sg21_11_cif.got.tgz:21485.got - 2010.06.03 23:14:55.
