data_PCOD9324135
_publ_section_title
;
Structure prediction by ZEFSAII (Michael W. Deem and Ramdas Pophale) SiO2 
 PCOD9324135
Probable space group: C 2 2 2
;
_chemical_formula_sum "Si O2"
_cell_formula_units_Z 40
_cell_length_a 5.541676
_cell_length_b 19.342887
_cell_length_c 16.662582
_cell_angle_alpha 90.000000
_cell_angle_beta 90.000000
_cell_angle_gamma 90.000000
_cell_volume 1786.095701
_symmetry_space_group_name_H-M "C 2 2 2"
_symmetry_group_IT_number 21
_symmetry_cell_setting 'orthorhombic'
loop_
_space_group_symop_operation_xyz
x,y,z
-x,-y,z
x,-y,-z
-x,y,-z
1/2+x,1/2+y,z
1/2-x,1/2-y,z
1/2+x,1/2-y,-z
1/2-x,1/2+y,-z
loop_
_atom_site_type_symbol
_atom_site_label
_atom_site_fract_x
_atom_site_fract_y
_atom_site_fract_z
Si Si1 0.112483 0.181009 0.412945
Si Si2 0.995066 0.206163 0.913995
Si Si3 0.655461 0.329212 0.250088
Si Si4 0.745843 0.965343 0.385570
Si Si5 0.742769 0.019232 0.205555
O O1 0.250000 0.250000 0.388150
O O2 0.272468 0.112930 0.414801
O O3 0.000000 0.192871 0.500000
O O4 0.932541 0.162839 0.340882
O O5 0.750000 0.250000 0.917399
O O6 0.250000 0.250000 0.912536
O O7 0.979667 0.169834 0.827533
O O8 0.000000 0.167041 0.000000
O O9 0.750000 0.250000 0.249785
O O10 0.793178 0.400482 0.231258
O O11 0.500000 0.000000 0.412188
O O12 0.750081 0.974408 0.288527
O O13 0.000000 0.000000 0.411750
O O14 0.500000 0.000000 0.159082
O O15 0.000000 0.000000 0.166831
#
# Coordination Sequence:
#
# PCOD9324135 Si02
#       5
#     8   8   8   8   8
#     4  12  27  44  63  99 138 175 221 283 334 391
#     4   9  19  37  62  98 134 168 217 273 327 393
#     4  11  23  40  68  99 131 177 221 273 339 389
#     4  10  22  45  68  90 121 174 221 270 317 387
#     4  10  21  40  62  95 127 168 218 270 312 391
#
# _framework density 22.395216000000001
#
# number of rings (size 3 to 8) (size 9 to 14) (size 15 to 20)
#    0.000    1.600    4.000    1.200    5.600    5.200 
#    0.000    2.000    0.000    0.600    0.000    2.800 
#    0.000    0.000    0.000    0.000    0.000    0.000 
#
# Total GULP energy -111350.971665 kJ/mol
# GULP energy per Si atom -5567.548583 kJ/mol
# Density = 2.234424 g / cm^3
# Si number density = 22.395216 Si / 1000 Ang^3
#
#
#
# Elastic Constant Matrix: (Units=GPa)
#
#
# Indices 1 2 3 4 5 6 
#
# 1 151.5476 44.7582 -3.2218 0.0000 0.0000 0.0000
# 2 44.7582 133.6173 -33.5032 0.0000 0.0000 0.0000
# 3 -3.2218 -33.5032 104.4502 0.0000 0.0000 0.0000
# 4 0.0000 0.0000 0.0000 -7.5558 0.0000 0.0000
# 5 0.0000 0.0000 0.0000 0.0000 14.0901 0.0000
# 6 0.0000 0.0000 0.0000 0.0000 0.0000 32.1175
#
#
#
# Elastic Compliance Matrix: (Units=1/GPa)
#
#
# Indices 1 2 3 4 5 6 
#
# 1 0.007359 -0.002619 -0.000613 0.000000 0.000000 0.000000
# 2 -0.002619 0.009071 0.002829 0.000000 0.000000 0.000000
# 3 -0.000613 0.002829 0.010462 0.000000 0.000000 0.000000
# 4 0.000000 0.000000 0.000000 -0.132349 0.000000 0.000000
# 5 0.000000 0.000000 0.000000 0.000000 0.070972 0.000000
# 6 0.000000 0.000000 0.000000 0.000000 0.000000 0.031136
#
#
# Mechanical properties :
#
#
# Convention : Reuss Voigt Hill
#
# Bulk Modulus (GPa) = 38.33520 45.07571 41.70545
# Shear Modulus (GPa) = 812.81117 33.16917 422.99017
#
# Velocity S-wave (km/s) = 19.07164 3.85266 13.75810
# Velocity P-wave (km/s) = 22.40814 6.32153 16.46339
#
# Compressibility (1/GPa) = 0.02608569
#
# Stress axis : x y z
#
# Youngs Moduli (GPa) = 135.88837 110.24702 95.58081
#
# Poissons Ratio (x) = 0.28871 0.05859
# Poissons Ratio (y) = 0.35586 -0.27037
# Poissons Ratio (z) = 0.08330 -0.31185
#
# Static dielectric constant tensor:
#      x y z
#    x 1.964590 0.000000 0.000000 
#    y 0.000000 1.861800 0.000000 
#    z 0.000000 0.000000 1.850020 
# 
# From -- ./inp_files/34664.got.cif
#   From: 2010.05.17/outbox.cif.g08.bks.cpg/sg21_18_cif.got.tgz:34664.got - 2010.06.03 23:14:55.
