data_PCOD9324143
_publ_section_title
;
Structure prediction by ZEFSAII (Michael W. Deem and Ramdas Pophale) SiO2 
 PCOD9324143
Probable space group: C 2 2 2
;
_chemical_formula_sum "Si O2"
_cell_formula_units_Z 34
_cell_length_a 14.820209
_cell_length_b 20.933056
_cell_length_c 5.080859
_cell_angle_alpha 90.000000
_cell_angle_beta 90.000000
_cell_angle_gamma 90.000000
_cell_volume 1576.246395
_symmetry_space_group_name_H-M "C 2 2 2"
_symmetry_group_IT_number 21
_symmetry_cell_setting 'orthorhombic'
loop_
_space_group_symop_operation_xyz
x,y,z
-x,-y,z
x,-y,-z
-x,y,-z
1/2+x,1/2+y,z
1/2-x,1/2-y,z
1/2+x,1/2-y,-z
1/2-x,1/2+y,-z
loop_
_atom_site_type_symbol
_atom_site_label
_atom_site_fract_x
_atom_site_fract_y
_atom_site_fract_z
Si Si1 0.771961 0.431758 0.628971
Si Si2 0.608725 0.737587 0.003226
Si Si3 0.500000 0.500000 0.000000
Si Si4 0.843080 0.093625 0.139093
Si Si5 0.391255 0.185910 0.500117
O O1 0.797155 0.500000 0.500000
O O2 0.694776 0.407202 0.431939
O O3 0.851731 0.381151 0.594655
O O4 0.729109 0.431687 0.920746
O O5 0.636403 0.665989 0.940145
O O6 0.639679 0.788999 0.784800
O O7 0.500000 0.738730 0.000000
O O8 0.637956 0.761201 0.288304
O O9 0.430995 0.451795 0.856916
O O10 0.500000 0.182313 0.500000
#
# Coordination Sequence:
#
# PCOD9324143 Si02
#       5
#     8   8   2   8   8
#     4  12  25  42  61  95 125 161 211 258 303 367
#     4  10  21  40  63  93 121 165 208 252 302 370
#     4  12  24  46  64  98 126 178 186 250 308 382
#     4  12  25  41  67  91 129 165 204 250 306 372
#     4  10  23  42  65  89 125 161 208 259 311 359
#
# _framework density 21.570231
#
# number of rings (size 3 to 8) (size 9 to 14) (size 15 to 20)
#    0.000    0.941    3.529    2.824    0.000    8.000 
#    0.000    0.000    0.000    7.059    0.000    0.000 
#    0.000    0.000    0.000    0.000    0.000    0.000 
#
# Total GULP energy -95063.376792 kJ/mol
# GULP energy per Si atom -5591.963341 kJ/mol
# Density = 2.152114 g / cm^3
# Si number density = 21.570231 Si / 1000 Ang^3
#
#
#
# Elastic Constant Matrix: (Units=GPa)
#
#
# Indices 1 2 3 4 5 6 
#
# 1 60.5656 22.0192 8.6274 0.0000 0.0000 0.0000
# 2 22.0192 120.2747 -10.7644 0.0000 0.0000 0.0000
# 3 8.6274 -10.7644 68.5942 0.0000 0.0000 0.0000
# 4 0.0000 0.0000 0.0000 31.8042 0.0000 0.0000
# 5 0.0000 0.0000 0.0000 0.0000 10.7987 0.0000
# 6 0.0000 0.0000 0.0000 0.0000 0.0000 40.7548
#
#
#
# Elastic Compliance Matrix: (Units=1/GPa)
#
#
# Indices 1 2 3 4 5 6 
#
# 1 0.018224 -0.003592 -0.002856 0.000000 0.000000 0.000000
# 2 -0.003592 0.009141 0.001886 0.000000 0.000000 0.000000
# 3 -0.002856 0.001886 0.015234 0.000000 0.000000 0.000000
# 4 0.000000 0.000000 0.000000 0.031442 0.000000 0.000000
# 5 0.000000 0.000000 0.000000 0.000000 0.092604 0.000000
# 6 0.000000 0.000000 0.000000 0.000000 0.000000 0.024537
#
#
# Mechanical properties :
#
#
# Convention : Reuss Voigt Hill
#
# Bulk Modulus (GPa) = 29.87286 32.13323 31.00305
# Shear Modulus (GPa) = 23.64488 31.97503 27.80995
#
# Velocity S-wave (km/s) = 3.31445 3.85433 3.59454
# Velocity P-wave (km/s) = 5.34104 5.89383 5.62423
#
# Compressibility (1/GPa) = 0.03347520
#
# Stress axis : x y z
#
# Youngs Moduli (GPa) = 54.87366 109.40090 65.64406
#
# Poissons Ratio (x) = 0.39295 0.18746
# Poissons Ratio (y) = 0.19710 -0.12382
# Poissons Ratio (z) = 0.15671 -0.20635
#
# Static dielectric constant tensor:
#      x y z
#    x 1.860520 0.000000 0.000000 
#    y 0.000000 1.772530 0.000000 
#    z 0.000000 0.000000 1.753640 
# 
# From -- ./inp_files/3541.got.cif
#   From: 2010.05.17/outbox.cif.g08.bks.cpg/sg21_2_cif.got.tgz:3541.got - 2010.06.03 23:14:55.
