data_PCOD9324134
_publ_section_title
;
Structure prediction by ZEFSAII (Michael W. Deem and Ramdas Pophale) SiO2 
 PCOD9324134
Probable space group: C 2 2 2
;
_chemical_formula_sum "Si O2"
_cell_formula_units_Z 48
_cell_length_a 14.763605
_cell_length_b 11.453851
_cell_length_c 13.753103
_cell_angle_alpha 90.000000
_cell_angle_beta 90.000000
_cell_angle_gamma 90.000000
_cell_volume 2325.651531
_symmetry_space_group_name_H-M "C 2 2 2"
_symmetry_group_IT_number 21
_symmetry_cell_setting 'orthorhombic'
loop_
_space_group_symop_operation_xyz
x,y,z
-x,-y,z
x,-y,-z
-x,y,-z
1/2+x,1/2+y,z
1/2-x,1/2-y,z
1/2+x,1/2-y,-z
1/2-x,1/2+y,-z
loop_
_atom_site_type_symbol
_atom_site_label
_atom_site_fract_x
_atom_site_fract_y
_atom_site_fract_z
Si Si1 0.095837 0.206813 0.479622
Si Si2 0.991375 0.139509 0.888697
Si Si3 0.793936 0.047255 0.385327
Si Si4 0.653738 0.685687 0.274248
Si Si5 0.407950 0.924915 0.373647
Si Si6 0.843835 0.243120 0.226627
O O1 0.171236 0.112766 0.515157
O O2 0.105054 0.244890 0.367777
O O3 0.092122 0.320825 0.546979
O O4 0.000000 0.145188 0.500000
O O5 0.904970 0.178926 0.823749
O O6 0.078319 0.184511 0.832982
O O7 0.000000 0.000000 0.889022
O O8 0.000000 0.180710 0.000000
O O9 0.688435 0.013323 0.392000
O O10 0.812604 0.157826 0.314011
O O11 0.838552 0.943681 0.321926
O O12 0.750000 0.750000 0.260145
O O13 0.387983 0.859985 0.271378
O O14 0.500000 0.000000 0.376490
O O15 0.750000 0.250000 0.167654
#
# Coordination Sequence:
#
# PCOD9324134 Si02
#       6
#     8   8   8   8   8   8
#     4  11  24  39  61  95 137 187 228 254 319 395
#     4  11  24  44  70  95 123 164 221 287 347 402
#     4  10  21  40  62  93 136 176 219 267 315 391
#     4  12  25  39  65  99 133 172 226 279 331 400
#     4  10  22  40  64  95 136 183 219 263 320 389
#     4   9  19  40  68  93 124 172 216 262 337 402
#
# _framework density 20.639377
#
# number of rings (size 3 to 8) (size 9 to 14) (size 15 to 20)
#    0.000    1.500    1.667    5.000    4.667    1.667 
#    0.000    0.000    0.000    0.500    0.000    0.000 
#    0.000    0.000    0.000    0.000    0.000    0.000 
#
# Total GULP energy -133826.402412 kJ/mol
# GULP energy per Si atom -5576.100101 kJ/mol
# Density = 2.059240 g / cm^3
# Si number density = 20.639377 Si / 1000 Ang^3
#
#
#
# Elastic Constant Matrix: (Units=GPa)
#
#
# Indices 1 2 3 4 5 6 
#
# 1 148.7874 34.4561 75.4164 0.0000 0.0000 0.0000
# 2 34.4561 75.0086 24.5426 0.0000 0.0000 0.0000
# 3 75.4164 24.5426 129.3718 0.0000 0.0000 0.0000
# 4 0.0000 0.0000 0.0000 21.1912 0.0000 0.0000
# 5 0.0000 0.0000 0.0000 0.0000 -58.3050 0.0000
# 6 0.0000 0.0000 0.0000 0.0000 0.0000 42.2542
#
#
#
# Elastic Compliance Matrix: (Units=1/GPa)
#
#
# Indices 1 2 3 4 5 6 
#
# 1 0.010096 -0.002891 -0.005337 0.000000 0.000000 0.000000
# 2 -0.002891 0.015042 -0.001168 0.000000 0.000000 0.000000
# 3 -0.005337 -0.001168 0.011062 0.000000 0.000000 0.000000
# 4 0.000000 0.000000 0.000000 0.047189 0.000000 0.000000
# 5 0.000000 0.000000 0.000000 0.000000 -0.017151 0.000000
# 6 0.000000 0.000000 0.000000 0.000000 0.000000 0.023666
#
#
# Mechanical properties :
#
#
# Convention : Reuss Voigt Hill
#
# Bulk Modulus (GPa) = 57.44563 69.11088 63.27826
# Shear Modulus (GPa) = 43.66842 15.61159 29.64001
#
# Velocity S-wave (km/s) = 4.60475 2.75325 3.79369
# Velocity P-wave (km/s) = 7.49434 6.60794 7.06505
#
# Compressibility (1/GPa) = 0.01740777
#
# Stress axis : x y z
#
# Youngs Moduli (GPa) = 99.05315 66.47971 90.39788
#
# Poissons Ratio (x) = 0.19222 0.48242
# Poissons Ratio (y) = 0.28640 0.10559
# Poissons Ratio (z) = 0.52861 0.07765
#
# Static dielectric constant tensor:
#      x y z
#    x 1.808180 0.000000 0.000000 
#    y 0.000000 1.835170 0.000000 
#    z 0.000000 0.000000 1.773460 
# 
# From -- ./inp_files/32269.got.cif
#   From: 2010.05.17/outbox.cif.g08.bks.cpg/sg21_17_cif.got.tgz:32269.got - 2010.06.03 23:14:55.
