data_PCOD9324098
_publ_section_title
;
Structure prediction by ZEFSAII (Michael W. Deem and Ramdas Pophale) SiO2 
 PCOD9324098
Probable space group: C 2 2 2
;
_chemical_formula_sum "Si O2"
_cell_formula_units_Z 48
_cell_length_a 16.824555
_cell_length_b 8.321872
_cell_length_c 15.076759
_cell_angle_alpha 90.000000
_cell_angle_beta 90.000000
_cell_angle_gamma 90.000000
_cell_volume 2110.924063
_symmetry_space_group_name_H-M "C 2 2 2"
_symmetry_group_IT_number 21
_symmetry_cell_setting 'orthorhombic'
loop_
_space_group_symop_operation_xyz
x,y,z
-x,-y,z
x,-y,-z
-x,y,-z
1/2+x,1/2+y,z
1/2-x,1/2-y,z
1/2+x,1/2-y,-z
1/2-x,1/2+y,-z
loop_
_atom_site_type_symbol
_atom_site_label
_atom_site_fract_x
_atom_site_fract_y
_atom_site_fract_z
Si Si1 0.965778 0.832229 0.690988
Si Si2 0.154189 0.766233 0.953207
Si Si3 0.423094 0.901247 0.789248
Si Si4 0.320870 0.624601 0.422318
Si Si5 0.741533 0.053356 0.741035
Si Si6 0.137091 0.102632 0.865343
O O1 0.898395 0.786754 0.619183
O O2 0.921621 0.860207 0.785469
O O3 0.042145 0.728552 0.719653
O O4 0.000000 0.000000 0.658018
O O5 0.250000 0.750000 0.947990
O O6 0.115322 0.648238 0.882806
O O7 0.120539 0.934760 0.915166
O O8 0.136175 0.764273 0.057858
O O9 0.351079 0.986049 0.739005
O O10 0.500000 0.000000 0.810689
O O11 0.341014 0.500000 0.500000
O O12 0.250000 0.750000 0.445635
O O13 0.286663 0.510381 0.344336
O O14 0.750000 0.250000 0.750737
O O15 0.779459 0.947445 0.820189
#
# Coordination Sequence:
#
# PCOD9324098 Si02
#       6
#     8   8   8   8   8   8
#     4  11  23  44  67  95 134 175 215 260 342 407
#     4  11  21  40  62  90 127 177 240 272 320 380
#     4  12  23  39  64 100 134 171 218 285 344 378
#     4  11  25  45  72 104 132 170 219 268 323 404
#     4  11  20  44  72  95 130 177 222 272 336 398
#     4  10  21  39  65  85 124 184 231 264 313 402
#
# _framework density 22.738855999999998
#
# number of rings (size 3 to 8) (size 9 to 14) (size 15 to 20)
#    0.000    1.000    5.000    2.500    0.000    5.000 
#    0.000    2.500    0.000    3.500    0.000    0.000 
#    0.000    0.000    0.000    0.000    0.000    0.000 
#
# Total GULP energy -133967.948282 kJ/mol
# GULP energy per Si atom -5581.997845 kJ/mol
# Density = 2.268710 g / cm^3
# Si number density = 22.738856 Si / 1000 Ang^3
#
#
#
# Elastic Constant Matrix: (Units=GPa)
#
#
# Indices 1 2 3 4 5 6 
#
# 1 95.2888 -0.7516 14.7610 0.0000 0.0000 0.0000
# 2 -0.7516 45.9508 10.0221 0.0000 0.0000 0.0000
# 3 14.7610 10.0221 103.7346 0.0000 0.0000 0.0000
# 4 0.0000 0.0000 0.0000 69.7445 0.0000 0.0000
# 5 0.0000 0.0000 0.0000 0.0000 17.3863 0.0000
# 6 0.0000 0.0000 0.0000 0.0000 0.0000 27.9304
#
#
#
# Elastic Compliance Matrix: (Units=1/GPa)
#
#
# Indices 1 2 3 4 5 6 
#
# 1 0.010743 0.000520 -0.001579 0.000000 0.000000 0.000000
# 2 0.000520 0.022256 -0.002224 0.000000 0.000000 0.000000
# 3 -0.001579 -0.002224 0.010080 0.000000 0.000000 0.000000
# 4 0.000000 0.000000 0.000000 0.014338 0.000000 0.000000
# 5 0.000000 0.000000 0.000000 0.000000 0.057517 0.000000
# 6 0.000000 0.000000 0.000000 0.000000 0.000000 0.035803
#
#
# Mechanical properties :
#
#
# Convention : Reuss Voigt Hill
#
# Bulk Modulus (GPa) = 27.38786 32.55970 29.97378
# Shear Modulus (GPa) = 29.50309 37.74174 33.62241
#
# Velocity S-wave (km/s) = 3.60596 4.07847 3.84947
# Velocity P-wave (km/s) = 5.42290 6.04389 5.74180
#
# Compressibility (1/GPa) = 0.03651253
#
# Stress axis : x y z
#
# Youngs Moduli (GPa) = 93.08299 44.93162 99.21075
#
# Poissons Ratio (x) = -0.02337 0.15665
# Poissons Ratio (y) = -0.04841 0.22067
# Poissons Ratio (z) = 0.14697 0.09994
#
# Static dielectric constant tensor:
#      x y z
#    x 1.217380 0.000000 0.000000 
#    y 0.000000 1.950310 0.000000 
#    z 0.000000 0.000000 1.865030 
# 
# From -- ./inp_files/32812.got.cif
#   From: 2010.05.17/outbox.cif.g08.bks.cpg/sg21_17_cif.got.tgz:32812.got - 2010.06.03 23:14:55.
