data_PCOD9324512
_publ_section_title
;
Structure prediction by ZEFSAII (Michael W. Deem and Ramdas Pophale) SiO2 
 PCOD9324512
Probable space group: C 2 2 2
;
_chemical_formula_sum "Si O2"
_cell_formula_units_Z 40
_cell_length_a 14.619094
_cell_length_b 10.136594
_cell_length_c 11.784193
_cell_angle_alpha 90.000000
_cell_angle_beta 90.000000
_cell_angle_gamma 90.000000
_cell_volume 1746.273877
_symmetry_space_group_name_H-M "C 2 2 2"
_symmetry_group_IT_number 21
_symmetry_cell_setting 'orthorhombic'
loop_
_space_group_symop_operation_xyz
x,y,z
-x,-y,z
x,-y,-z
-x,y,-z
1/2+x,1/2+y,z
1/2-x,1/2-y,z
1/2+x,1/2-y,-z
1/2-x,1/2+y,-z
loop_
_atom_site_type_symbol
_atom_site_label
_atom_site_fract_x
_atom_site_fract_y
_atom_site_fract_z
Si Si1 0.481660 0.701409 0.868703
Si Si2 0.615631 0.070717 0.762069
Si Si3 0.711789 0.611004 0.096283
Si Si4 0.140383 0.269810 0.718688
Si Si5 0.166957 0.346132 0.469457
O O1 0.444714 0.850554 0.851090
O O2 0.388819 0.620237 0.850541
O O3 0.570159 0.679813 0.789881
O O4 0.500000 0.679016 0.000000
O O5 0.719692 0.089213 0.800524
O O6 0.601342 0.135135 0.638382
O O7 0.609360 0.915520 0.755501
O O8 0.750000 0.750000 0.044851
O O9 0.717373 0.500000 0.000000
O O10 0.250000 0.250000 0.739244
O O11 0.128666 0.276161 0.582520
O O12 0.193677 0.500000 0.500000
O O13 0.250000 0.250000 0.435675
#
# Coordination Sequence:
#
# PCOD9324512 Si02
#       5
#     8   8   8   8   8
#     4  11  25  40  59  96 131 171 224 268 332 399
#     4  10  22  40  68  90 130 174 220 275 339 406
#     4  10  24  43  68  98 132 181 221 277 339 401
#     4  10  23  39  64  95 131 175 220 280 337 401
#     4   9  18  38  64  96 126 167 223 278 341 404
#
# _framework density 22.905916000000001
#
# number of rings (size 3 to 8) (size 9 to 14) (size 15 to 20)
#    0.000    2.000    0.000    2.400    8.400    2.000 
#    0.000    3.000    0.000    0.000    0.000    1.400 
#    0.000    0.000    0.000    0.000    0.000    0.000 
#
# Total GULP energy -111588.443056 kJ/mol
# GULP energy per Si atom -5579.422153 kJ/mol
# Density = 2.285378 g / cm^3
# Si number density = 22.905916 Si / 1000 Ang^3
#
#
#
# Elastic Constant Matrix: (Units=GPa)
#
#
# Indices 1 2 3 4 5 6 
#
# 1 147.4097 -0.9142 60.9526 0.0000 0.0000 0.0000
# 2 -0.9142 74.2333 14.2390 0.0000 0.0000 0.0000
# 3 60.9526 14.2390 83.4333 0.0000 0.0000 0.0000
# 4 0.0000 0.0000 0.0000 18.9850 0.0000 0.0000
# 5 0.0000 0.0000 0.0000 0.0000 126.3282 0.0000
# 6 0.0000 0.0000 0.0000 0.0000 0.0000 21.2739
#
#
#
# Elastic Compliance Matrix: (Units=1/GPa)
#
#
# Indices 1 2 3 4 5 6 
#
# 1 0.009891 0.001559 -0.007492 0.000000 0.000000 0.000000
# 2 0.001559 0.014173 -0.003558 0.000000 0.000000 0.000000
# 3 -0.007492 -0.003558 0.018066 0.000000 0.000000 0.000000
# 4 0.000000 0.000000 0.000000 0.052673 0.000000 0.000000
# 5 0.000000 0.000000 0.000000 0.000000 0.007916 0.000000
# 6 0.000000 0.000000 0.000000 0.000000 0.000000 0.047006
#
#
# Mechanical properties :
#
#
# Convention : Reuss Voigt Hill
#
# Bulk Modulus (GPa) = 43.19949 50.40344 46.80146
# Shear Modulus (GPa) = 28.34087 48.70402 38.52245
#
# Velocity S-wave (km/s) = 3.52131 4.61615 4.10539
# Velocity P-wave (km/s) = 5.95258 7.10381 6.55352
#
# Compressibility (1/GPa) = 0.02314842
#
# Stress axis : x y z
#
# Youngs Moduli (GPa) = 101.09691 70.55842 55.35150
#
# Poissons Ratio (x) = -0.11000 0.41471
# Poissons Ratio (y) = -0.15761 0.19692
# Poissons Ratio (z) = 0.75745 0.25102
#
# Static dielectric constant tensor:
#      x y z
#    x 1.963020 0.000000 0.000000 
#    y 0.000000 1.755150 0.000000 
#    z 0.000000 0.000000 1.861560 
# 
# From -- ./inp_files/24985.got.cif
#   From: 2010.05.17/outbox.cif.g08.bks.cpg/sg21_13_cif.got.tgz:24985.got - 2010.06.03 23:14:55.
