data_PCOD9324614
_publ_section_title
;
Structure prediction by ZEFSAII (Michael W. Deem and Ramdas Pophale) SiO2 
 PCOD9324614
Probable space group: C 2 2 2
;
_chemical_formula_sum "Si O2"
_cell_formula_units_Z 24
_cell_length_a 18.672659
_cell_length_b 5.395912
_cell_length_c 10.909320
_cell_angle_alpha 90.000000
_cell_angle_beta 90.000000
_cell_angle_gamma 90.000000
_cell_volume 1099.179716
_symmetry_space_group_name_H-M "C 2 2 2"
_symmetry_group_IT_number 21
_symmetry_cell_setting 'orthorhombic'
loop_
_space_group_symop_operation_xyz
x,y,z
-x,-y,z
x,-y,-z
-x,y,-z
1/2+x,1/2+y,z
1/2-x,1/2-y,z
1/2+x,1/2-y,-z
1/2-x,1/2+y,-z
loop_
_atom_site_type_symbol
_atom_site_label
_atom_site_fract_x
_atom_site_fract_y
_atom_site_fract_z
Si Si1 0.529532 0.252136 0.640416
Si Si2 0.702178 0.000000 0.000000
Si Si3 0.674644 0.100039 0.734156
Si Si4 0.250000 0.750000 0.422746
O O1 0.500000 0.500000 0.699436
O O2 0.500000 0.251939 0.500000
O O3 0.614388 0.239173 0.656732
O O4 0.500000 0.000000 0.697484
O O5 0.750000 0.250000 0.022549
O O6 0.658452 0.054260 0.876327
O O7 0.750000 0.250000 0.734376
O O8 0.686462 0.838484 0.665810
O O9 0.263797 0.500000 0.500000
#
# Coordination Sequence:
#
# PCOD9324614 Si02
#       4
#     8   4   8   4
#     4  10  25  42  64  97 144 185 229 284 362 432
#     4  10  22  42  71 108 137 180 248 312 358 416
#     4  11  25  45  74 104 144 191 249 301 363 430
#     4  12  26  36  64 110 146 180 240 294 372 426
#
# _framework density 21.834465000000002
#
# number of rings (size 3 to 8) (size 9 to 14) (size 15 to 20)
#    0.000    1.333    3.333    0.000    9.333    2.667 
#    0.000    0.833    0.000    2.000    0.000    0.000 
#    0.000    0.000    0.000    0.000    0.000    0.000 
#
# Total GULP energy -66954.482511 kJ/mol
# GULP energy per Si atom -5579.540209 kJ/mol
# Density = 2.178477 g / cm^3
# Si number density = 21.834465 Si / 1000 Ang^3
#
#
#
# Elastic Constant Matrix: (Units=GPa)
#
#
# Indices 1 2 3 4 5 6 
#
# 1 121.9025 42.9568 36.9960 0.0000 0.0000 0.0000
# 2 42.9568 176.9382 21.3017 0.0000 0.0000 0.0000
# 3 36.9960 21.3017 145.8370 0.0000 0.0000 0.0000
# 4 0.0000 0.0000 0.0000 11.9644 0.0000 0.0000
# 5 0.0000 0.0000 0.0000 0.0000 21.0026 0.0000
# 6 0.0000 0.0000 0.0000 0.0000 0.0000 41.1415
#
#
#
# Elastic Compliance Matrix: (Units=1/GPa)
#
#
# Indices 1 2 3 4 5 6 
#
# 1 0.009578 -0.002069 -0.002128 0.000000 0.000000 0.000000
# 2 -0.002069 0.006200 -0.000381 0.000000 0.000000 0.000000
# 3 -0.002128 -0.000381 0.007452 0.000000 0.000000 0.000000
# 4 0.000000 0.000000 0.000000 0.083582 0.000000 0.000000
# 5 0.000000 0.000000 0.000000 0.000000 0.047613 0.000000
# 6 0.000000 0.000000 0.000000 0.000000 0.000000 0.024306
#
#
# Mechanical properties :
#
#
# Convention : Reuss Voigt Hill
#
# Bulk Modulus (GPa) = 71.04578 71.90964 71.47771
# Shear Modulus (GPa) = 25.96349 37.71657 31.84003
#
# Velocity S-wave (km/s) = 3.45208 4.16069 3.82284
# Velocity P-wave (km/s) = 6.96406 7.48915 7.23137
#
# Compressibility (1/GPa) = 0.01407543
#
# Stress axis : x y z
#
# Youngs Moduli (GPa) = 104.40453 161.29337 134.18694
#
# Poissons Ratio (x) = 0.33375 0.28549
# Poissons Ratio (y) = 0.21604 0.05108
# Poissons Ratio (z) = 0.22213 0.06140
#
# Static dielectric constant tensor:
#      x y z
#    x 1.901790 0.000000 0.000000 
#    y 0.000000 2.040200 0.000000 
#    z 0.000000 0.000000 1.824870 
# 
# From -- ./inp_files/20400.got.cif
#   From: 2010.05.17/outbox.cif.g08.bks.cpg/sg21_11_cif.got.tgz:20400.got - 2010.06.03 23:14:55.
