data_PCOD9324017
_publ_section_title
;
Structure prediction by ZEFSAII (Michael W. Deem and Ramdas Pophale) SiO2 
 PCOD9324017
Probable space group: C 2 2 2
;
_chemical_formula_sum "Si O2"
_cell_formula_units_Z 64
_cell_length_a 6.422015
_cell_length_b 26.723877
_cell_length_c 17.928295
_cell_angle_alpha 90.000000
_cell_angle_beta 90.000000
_cell_angle_gamma 90.000000
_cell_volume 3076.874407
_symmetry_space_group_name_H-M "C 2 2 2"
_symmetry_group_IT_number 21
_symmetry_cell_setting 'orthorhombic'
loop_
_space_group_symop_operation_xyz
x,y,z
-x,-y,z
x,-y,-z
-x,y,-z
1/2+x,1/2+y,z
1/2-x,1/2-y,z
1/2+x,1/2-y,-z
1/2-x,1/2+y,-z
loop_
_atom_site_type_symbol
_atom_site_label
_atom_site_fract_x
_atom_site_fract_y
_atom_site_fract_z
Si Si1 0.964141 0.890531 0.836947
Si Si2 0.558280 0.943566 0.366307
Si Si3 0.726024 0.361858 0.321193
Si Si4 0.099728 0.701402 0.658370
Si Si5 0.656336 0.952596 0.193079
Si Si6 0.428587 0.125058 0.915531
Si Si7 0.691604 0.807937 0.172543
Si Si8 0.352059 0.630802 0.570248
O O1 0.822042 0.877584 0.764058
O O2 0.809509 0.890412 0.906163
O O3 0.098857 0.941252 0.825280
O O4 0.117867 0.843764 0.848275
O O5 0.363074 0.905710 0.359712
O O6 0.646120 0.942941 0.281713
O O7 0.730458 0.921213 0.421630
O O8 0.500000 0.000000 0.385228
O O9 0.503985 0.360870 0.359970
O O10 0.849804 0.309582 0.336499
O O11 0.250000 0.750000 0.656911
O O12 0.150045 0.679251 0.740634
O O13 0.174504 0.671744 0.585130
O O14 0.550457 0.912977 0.138171
O O15 0.500000 0.000000 0.183145
O O16 0.494561 0.178046 0.878744
O O17 0.500000 0.122678 0.000000
O O18 0.750000 0.750000 0.167057
O O19 0.500000 0.635585 0.500000
#
# Coordination Sequence:
#
# PCOD9324017 Si02
#       8
#     8   8   8   8   8   8   8   8
#     4  11  19  39  67  89 125 170 210 260 334 381
#     4  10  21  39  63  94 126 163 214 266 312 385
#     4  11  19  39  66  87 122 168 210 262 323 381
#     4  10  21  39  62  92 125 165 223 274 318 392
#     4  10  21  38  63  96 128 162 217 269 313 389
#     4  11  23  40  60  93 131 171 208 269 326 389
#     4  10  21  39  61  91 123 161 223 270 313 388
#     4  11  23  41  61  93 130 169 209 268 332 391
#
# _framework density 20.800329000000001
#
# number of rings (size 3 to 8) (size 9 to 14) (size 15 to 20)
#    0.000    1.500    5.000    1.500    0.000    6.250 
#    4.500    1.875    0.000    3.000    0.000    0.000 
#    0.000    0.000    0.000    0.000    0.000    0.000 
#
# Total GULP energy -178143.596468 kJ/mol
# GULP energy per Si atom -5566.987390 kJ/mol
# Density = 2.075299 g / cm^3
# Si number density = 20.800329 Si / 1000 Ang^3
#
#
#
# Elastic Constant Matrix: (Units=GPa)
#
#
# Indices 1 2 3 4 5 6 
#
# 1 79.2083 21.6854 0.9275 0.0000 0.0000 0.0000
# 2 21.6854 84.1059 5.7913 0.0000 0.0000 0.0000
# 3 0.9275 5.7913 58.3933 0.0000 0.0000 0.0000
# 4 0.0000 0.0000 0.0000 9.2017 0.0000 0.0000
# 5 0.0000 0.0000 0.0000 0.0000 23.6587 0.0000
# 6 0.0000 0.0000 0.0000 0.0000 0.0000 33.6274
#
#
#
# Elastic Compliance Matrix: (Units=1/GPa)
#
#
# Indices 1 2 3 4 5 6 
#
# 1 0.013585 -0.003512 0.000132 0.000000 0.000000 0.000000
# 2 -0.003512 0.012879 -0.001222 0.000000 0.000000 0.000000
# 3 0.000132 -0.001222 0.017244 0.000000 0.000000 0.000000
# 4 0.000000 0.000000 0.000000 0.108676 0.000000 0.000000
# 5 0.000000 0.000000 0.000000 0.000000 0.042268 0.000000
# 6 0.000000 0.000000 0.000000 0.000000 0.000000 0.029738
#
#
# Mechanical properties :
#
#
# Convention : Reuss Voigt Hill
#
# Bulk Modulus (GPa) = 28.97978 30.94623 29.96300
# Shear Modulus (GPa) = 20.40039 26.18444 23.29242
#
# Velocity S-wave (km/s) = 3.13513 3.55187 3.34999
# Velocity P-wave (km/s) = 5.20269 5.63304 5.42213
#
# Compressibility (1/GPa) = 0.03450682
#
# Stress axis : x y z
#
# Youngs Moduli (GPa) = 73.61150 77.64377 57.99022
#
# Poissons Ratio (x) = 0.27267 -0.00768
# Poissons Ratio (y) = 0.25851 0.07084
# Poissons Ratio (z) = -0.00975 0.09485
#
# Static dielectric constant tensor:
#      x y z
#    x 1.852550 0.000000 0.000000 
#    y 0.000000 1.809950 0.000000 
#    z 0.000000 0.000000 1.725960 
# 
# From -- ./inp_files/35262.got.cif
#   From: 2010.05.17/outbox.cif.g08.bks.cpg/sg21_18_cif.got.tgz:35262.got - 2010.06.03 23:14:55.
