data_PCOD9324625
_publ_section_title
;
Structure prediction by ZEFSAII (Michael W. Deem and Ramdas Pophale) SiO2 
 PCOD9324625
Probable space group: C 2 2 2
;
_chemical_formula_sum "Si O2"
_cell_formula_units_Z 34
_cell_length_a 5.687334
_cell_length_b 26.847127
_cell_length_c 8.968336
_cell_angle_alpha 90.000000
_cell_angle_beta 90.000000
_cell_angle_gamma 90.000000
_cell_volume 1369.362473
_symmetry_space_group_name_H-M "C 2 2 2"
_symmetry_group_IT_number 21
_symmetry_cell_setting 'orthorhombic'
loop_
_space_group_symop_operation_xyz
x,y,z
-x,-y,z
x,-y,-z
-x,y,-z
1/2+x,1/2+y,z
1/2-x,1/2-y,z
1/2+x,1/2-y,-z
1/2-x,1/2+y,-z
loop_
_atom_site_type_symbol
_atom_site_label
_atom_site_fract_x
_atom_site_fract_y
_atom_site_fract_z
Si Si1 0.125450 0.642822 0.147684
Si Si2 0.485423 0.678958 0.668919
Si Si3 0.250000 0.750000 0.902182
Si Si4 0.762058 0.074208 0.712402
Si Si5 0.000000 0.930381 0.000000
Si Si6 0.500000 0.000000 0.500000
O O1 0.261562 0.681811 0.250155
O O2 0.314449 0.606282 0.074363
O O3 0.962626 0.606554 0.240480
O O4 0.000000 0.663105 0.000000
O O5 0.500000 0.698457 0.500000
O O6 0.297238 0.704989 0.779994
O O7 0.430662 0.619316 0.660075
O O8 0.500000 0.744360 0.000000
O O9 0.672807 0.034571 0.595674
O O10 0.863868 0.046575 0.859763
#
# Coordination Sequence:
#
# PCOD9324625 Si02
#       6
#     8   8   4   8   4   2
#     4   9  19  39  74 107 146 206 261 314 395 476
#     4  11  26  49  77 114 158 209 259 340 410 477
#     4  12  34  54  84 126 164 214 282 340 412 510
#     4  10  22  42  74 105 154 205 262 322 398 480
#     4   8  18  38  67 104 138 202 252 324 374 473
#     4  12  24  44  68 116 156 208 260 328 402 478
#
# _framework density 24.829070999999999
#
# number of rings (size 3 to 8) (size 9 to 14) (size 15 to 20)
#    0.000    1.882    0.000    1.412   13.176    0.941 
#    2.118   21.176    0.000    2.824    0.000    0.000 
#    0.000    0.000    0.000    0.000    0.000    0.000 
#
# Total GULP energy -94843.693119 kJ/mol
# GULP energy per Si atom -5579.040772 kJ/mol
# Density = 2.477256 g / cm^3
# Si number density = 24.829071 Si / 1000 Ang^3
#
#
#
# Elastic Constant Matrix: (Units=GPa)
#
#
# Indices 1 2 3 4 5 6 
#
# 1 110.8964 17.8034 82.8823 0.0000 0.0000 0.0000
# 2 17.8034 110.9450 72.6094 0.0000 0.0000 0.0000
# 3 82.8823 72.6094 228.1877 0.0000 0.0000 0.0000
# 4 0.0000 0.0000 0.0000 -34.0328 0.0000 0.0000
# 5 0.0000 0.0000 0.0000 0.0000 47.9105 0.0000
# 6 0.0000 0.0000 0.0000 0.0000 0.0000 9.3556
#
#
#
# Elastic Compliance Matrix: (Units=1/GPa)
#
#
# Indices 1 2 3 4 5 6 
#
# 1 0.012507 0.001220 -0.004931 0.000000 0.000000 0.000000
# 2 0.001220 0.011503 -0.004104 0.000000 0.000000 0.000000
# 3 -0.004931 -0.004104 0.007479 0.000000 0.000000 0.000000
# 4 0.000000 0.000000 0.000000 -0.029383 0.000000 0.000000
# 5 0.000000 0.000000 0.000000 0.000000 0.020872 0.000000
# 6 0.000000 0.000000 0.000000 0.000000 0.000000 0.106888
#
#
# Mechanical properties :
#
#
# Convention : Reuss Voigt Hill
#
# Bulk Modulus (GPa) = 63.04940 88.51326 75.78133
# Shear Modulus (GPa) = 33.16056 23.09562 28.12809
#
# Velocity S-wave (km/s) = 3.65849 3.05320 3.36946
# Velocity P-wave (km/s) = 6.57986 6.93944 6.76204
#
# Compressibility (1/GPa) = 0.01586058
#
# Stress axis : x y z
#
# Youngs Moduli (GPa) = 79.95587 86.93166 133.70504
#
# Poissons Ratio (x) = -0.10607 0.65930
# Poissons Ratio (y) = -0.09756 0.54866
# Poissons Ratio (z) = 0.39426 0.35673
#
# Static dielectric constant tensor:
#      x y z
#    x 1.593920 0.000000 0.000000 
#    y 0.000000 1.965100 0.000000 
#    z 0.000000 0.000000 2.007550 
# 
# From -- ./inp_files/9263.got.cif
#   From: 2010.05.17/outbox.cif.g08.bks.cpg/sg21_5_cif.got.tgz:9263.got - 2010.06.03 23:14:55.
