data_PCOD9324092
_publ_section_title
;
Structure prediction by ZEFSAII (Michael W. Deem and Ramdas Pophale) SiO2 
 PCOD9324092
Probable space group: C 2 2 2
;
_chemical_formula_sum "Si O2"
_cell_formula_units_Z 48
_cell_length_a 8.241831
_cell_length_b 18.323394
_cell_length_c 14.746272
_cell_angle_alpha 90.000000
_cell_angle_beta 90.000000
_cell_angle_gamma 90.000000
_cell_volume 2226.957175
_symmetry_space_group_name_H-M "C 2 2 2"
_symmetry_group_IT_number 21
_symmetry_cell_setting 'orthorhombic'
loop_
_space_group_symop_operation_xyz
x,y,z
-x,-y,z
x,-y,-z
-x,y,-z
1/2+x,1/2+y,z
1/2-x,1/2-y,z
1/2+x,1/2-y,-z
1/2-x,1/2+y,-z
loop_
_atom_site_type_symbol
_atom_site_label
_atom_site_fract_x
_atom_site_fract_y
_atom_site_fract_z
Si Si1 0.806562 0.330981 0.015045
Si Si2 0.862470 0.105423 0.628457
Si Si3 0.174907 0.681732 0.471040
Si Si4 0.276956 0.163560 0.188095
Si Si5 0.731060 0.555208 0.639566
Si Si6 0.099476 0.573314 0.171372
O O1 0.750000 0.250000 0.042572
O O2 0.792766 0.392300 0.091453
O O3 0.731186 0.351439 0.917263
O O4 0.000000 0.325326 0.000000
O O5 0.787987 0.162242 0.557286
O O6 0.822319 0.126275 0.731663
O O7 0.054284 0.091060 0.622634
O O8 0.778803 0.027691 0.607851
O O9 0.250000 0.750000 0.417543
O O10 0.151713 0.608504 0.414169
O O11 0.000000 0.706758 0.500000
O O12 0.250000 0.250000 0.198970
O O13 0.461525 0.133490 0.197020
O O14 0.788733 0.555479 0.743082
O O15 0.000000 0.500000 0.144701
#
# Coordination Sequence:
#
# PCOD9324092 Si02
#       6
#     8   8   8   8   8   8
#     4   9  21  38  62  95 129 172 218 280 336 399
#     4  11  23  44  64  94 134 172 216 275 336 399
#     4  12  26  43  68  97 130 171 222 275 334 404
#     4  10  21  39  64  93 128 171 221 273 337 397
#     4  11  25  41  65  94 131 173 220 271 336 400
#     4  11  22  41  66  98 130 176 231 273 338 409
#
# _framework density 21.554075999999998
#
# number of rings (size 3 to 8) (size 9 to 14) (size 15 to 20)
#    0.000    1.333    1.667    3.500    0.000   11.000 
#    0.000    0.000    0.000    2.000    0.000    0.000 
#    0.000    0.000    0.000    0.000    0.000    0.000 
#
# Total GULP energy -134080.833107 kJ/mol
# GULP energy per Si atom -5586.701379 kJ/mol
# Density = 2.150502 g / cm^3
# Si number density = 21.554076 Si / 1000 Ang^3
#
#
#
# Elastic Constant Matrix: (Units=GPa)
#
#
# Indices 1 2 3 4 5 6 
#
# 1 13.5183 19.0176 1.3983 0.0000 0.0000 0.0000
# 2 19.0176 98.8994 33.8137 0.0000 0.0000 0.0000
# 3 1.3983 33.8137 84.4648 0.0000 0.0000 0.0000
# 4 0.0000 0.0000 0.0000 41.2691 0.0000 0.0000
# 5 0.0000 0.0000 0.0000 0.0000 26.9733 0.0000
# 6 0.0000 0.0000 0.0000 0.0000 0.0000 37.8698
#
#
#
# Elastic Compliance Matrix: (Units=1/GPa)
#
#
# Indices 1 2 3 4 5 6 
#
# 1 0.105218 -0.022751 0.007366 0.000000 0.000000 0.000000
# 2 -0.022751 0.016634 -0.006283 0.000000 0.000000 0.000000
# 3 0.007366 -0.006283 0.014232 0.000000 0.000000 0.000000
# 4 0.000000 0.000000 0.000000 0.024231 0.000000 0.000000
# 5 0.000000 0.000000 0.000000 0.000000 0.037074 0.000000
# 6 0.000000 0.000000 0.000000 0.000000 0.000000 0.026406
#
#
# Mechanical properties :
#
#
# Convention : Reuss Voigt Hill
#
# Bulk Modulus (GPa) = 10.78170 33.92686 22.35428
# Shear Modulus (GPa) = 16.77583 30.73264 23.75424
#
# Velocity S-wave (km/s) = 2.79285 3.78012 3.32336
# Velocity P-wave (km/s) = 3.92595 5.90144 5.01199
#
# Compressibility (1/GPa) = 0.09274972
#
# Stress axis : x y z
#
# Youngs Moduli (GPa) = 9.50405 60.11720 70.26233
#
# Poissons Ratio (x) = 1.36774 -0.51756
# Poissons Ratio (y) = 0.21623 0.44142
# Poissons Ratio (z) = -0.07001 0.37769
#
# Static dielectric constant tensor:
#      x y z
#    x 1.775340 0.000000 0.000000 
#    y 0.000000 1.770480 0.000000 
#    z 0.000000 0.000000 1.805700 
# 
# From -- ./inp_files/30460.got.cif
#   From: 2010.05.17/outbox.cif.g08.bks.cpg/sg21_16_cif.got.tgz:30460.got - 2010.06.03 23:14:55.
