data_PCOD9324188
_publ_section_title
;
Structure prediction by ZEFSAII (Michael W. Deem and Ramdas Pophale) SiO2 
 PCOD9324188
Probable space group: C 2 2 2
;
_chemical_formula_sum "Si O2"
_cell_formula_units_Z 64
_cell_length_a 18.138080
_cell_length_b 12.292752
_cell_length_c 13.407144
_cell_angle_alpha 90.000000
_cell_angle_beta 90.000000
_cell_angle_gamma 90.000000
_cell_volume 2989.349593
_symmetry_space_group_name_H-M "C 2 2 2"
_symmetry_group_IT_number 21
_symmetry_cell_setting 'orthorhombic'
loop_
_space_group_symop_operation_xyz
x,y,z
-x,-y,z
x,-y,-z
-x,y,-z
1/2+x,1/2+y,z
1/2-x,1/2-y,z
1/2+x,1/2-y,-z
1/2-x,1/2+y,-z
loop_
_atom_site_type_symbol
_atom_site_label
_atom_site_fract_x
_atom_site_fract_y
_atom_site_fract_z
Si Si1 0.168076 0.706739 0.867129
Si Si2 0.828341 0.685158 0.907963
Si Si3 0.930994 0.767447 0.759781
Si Si4 0.811807 0.501680 0.735915
Si Si5 0.913396 0.856374 0.277416
Si Si6 0.433312 0.085821 0.604656
Si Si7 0.659335 0.733582 0.474938
Si Si8 0.842881 0.070347 0.352314
O O1 0.250000 0.750000 0.873282
O O2 0.170432 0.611302 0.787182
O O3 0.120955 0.807584 0.824658
O O4 0.153342 0.659077 0.977198
O O5 0.750000 0.750000 0.905784
O O6 0.901118 0.748832 0.869725
O O7 0.819940 0.589767 0.825643
O O8 0.953630 0.659197 0.700331
O O9 0.859003 0.819011 0.708225
O O10 0.000388 0.841646 0.739072
O O11 0.866427 0.515210 0.644098
O O12 0.733725 0.520181 0.683603
O O13 0.875426 0.786661 0.366548
O O14 0.897827 0.978279 0.313431
O O15 0.394160 0.172781 0.526818
O O16 0.500000 0.000000 0.589191
O O17 0.750000 0.750000 0.473541
O O18 0.651329 0.619639 0.536832
#
# Coordination Sequence:
#
# PCOD9324188 Si02
#       8
#     8   8   8   8   8   8   8   8
#     4  11  23  39  62  98 138 176 220 293 354 417
#     4  10  21  40  70  96 128 175 232 281 345 432
#     4  10  23  42  68  95 133 178 229 285 350 419
#     4  11  20  40  68  99 134 175 230 286 349 422
#     4  12  25  44  63  97 143 178 228 293 357 413
#     4  10  22  42  69 100 136 175 233 291 350 409
#     4  11  24  44  71 101 139 190 243 286 349 438
#     4  11  22  41  70  98 129 185 235 284 340 430
#
# _framework density 21.40934
#
# number of rings (size 3 to 8) (size 9 to 14) (size 15 to 20)
#    0.000    1.250    3.750    2.250    0.000    2.500 
#    0.000    8.750    0.000    3.750    0.000    0.000 
#    0.000    0.000    0.000    0.000    0.000    0.000 
#
# Total GULP energy -178211.079553 kJ/mol
# GULP energy per Si atom -5569.096236 kJ/mol
# Density = 2.136061 g / cm^3
# Si number density = 21.409340 Si / 1000 Ang^3
#
#
#
# Elastic Constant Matrix: (Units=GPa)
#
#
# Indices 1 2 3 4 5 6 
#
# 1 117.7553 35.3289 24.6317 0.0000 0.0000 0.0000
# 2 35.3289 95.3269 30.4840 0.0000 0.0000 0.0000
# 3 24.6317 30.4840 83.9176 0.0000 0.0000 0.0000
# 4 0.0000 0.0000 0.0000 26.7533 0.0000 0.0000
# 5 0.0000 0.0000 0.0000 0.0000 -25.4898 0.0000
# 6 0.0000 0.0000 0.0000 0.0000 0.0000 26.6730
#
#
#
# Elastic Compliance Matrix: (Units=1/GPa)
#
#
# Indices 1 2 3 4 5 6 
#
# 1 0.009779 -0.003062 -0.001758 0.000000 0.000000 0.000000
# 2 -0.003062 0.012828 -0.003761 0.000000 0.000000 0.000000
# 3 -0.001758 -0.003761 0.013799 0.000000 0.000000 0.000000
# 4 0.000000 0.000000 0.000000 0.037379 0.000000 0.000000
# 5 0.000000 0.000000 0.000000 0.000000 -0.039231 0.000000
# 6 0.000000 0.000000 0.000000 0.000000 0.000000 0.037491
#
#
# Mechanical properties :
#
#
# Convention : Reuss Voigt Hill
#
# Bulk Modulus (GPa) = 51.96655 53.09879 52.53267
# Shear Modulus (GPa) = 52.29071 19.35766 35.82419
#
# Velocity S-wave (km/s) = 4.94745 3.01020 4.09503
# Velocity P-wave (km/s) = 7.54731 6.07761 6.85198
#
# Compressibility (1/GPa) = 0.01924315
#
# Stress axis : x y z
#
# Youngs Moduli (GPa) = 102.26497 77.95632 72.47052
#
# Poissons Ratio (x) = 0.23869 0.12740
# Poissons Ratio (y) = 0.31312 0.27257
# Poissons Ratio (z) = 0.17978 0.29320
#
# Static dielectric constant tensor:
#      x y z
#    x 1.751670 0.000000 0.000000 
#    y 0.000000 1.834780 0.000000 
#    z 0.000000 0.000000 1.851240 
# 
# From -- ./inp_files/32993.got.cif
#   From: 2010.05.17/outbox.cif.g08.bks.cpg/sg21_17_cif.got.tgz:32993.got - 2010.06.03 23:14:55.
