data_PCOD9324850
_publ_section_title
;
Structure prediction by ZEFSAII (Michael W. Deem and Ramdas Pophale) SiO2 
 PCOD9324850
Probable space group: C 2 2 2
;
_chemical_formula_sum "Si O2"
_cell_formula_units_Z 40
_cell_length_a 10.143919
_cell_length_b 14.484439
_cell_length_c 10.675905
_cell_angle_alpha 90.000000
_cell_angle_beta 90.000000
_cell_angle_gamma 90.000000
_cell_volume 1568.599789
_symmetry_space_group_name_H-M "C 2 2 2"
_symmetry_group_IT_number 21
_symmetry_cell_setting 'orthorhombic'
loop_
_space_group_symop_operation_xyz
x,y,z
-x,-y,z
x,-y,-z
-x,y,-z
1/2+x,1/2+y,z
1/2-x,1/2-y,z
1/2+x,1/2-y,-z
1/2-x,1/2+y,-z
loop_
_atom_site_type_symbol
_atom_site_label
_atom_site_fract_x
_atom_site_fract_y
_atom_site_fract_z
Si Si1 0.631313 0.938784 0.790169
Si Si2 0.984041 0.893566 0.686738
Si Si3 0.264298 0.140109 0.536165
Si Si4 0.782848 0.619454 0.265712
Si Si5 0.018751 0.264854 0.863801
O O1 0.653045 0.891076 0.656250
O O2 0.614896 0.853077 0.881456
O O3 0.500000 0.000000 0.792128
O O4 0.732246 0.022364 0.806986
O O5 0.883330 0.895814 0.569293
O O6 0.133716 0.854236 0.694481
O O7 0.921198 0.815237 0.776854
O O8 0.000000 0.000000 0.723387
O O9 0.250000 0.250000 0.526865
O O10 0.331541 0.103935 0.408958
O O11 0.884418 0.686405 0.193137
O O12 0.000000 0.222822 0.000000
#
# Coordination Sequence:
#
# PCOD9324850 Si02
#       5
#     8   8   8   8   8
#     4  10  23  43  70 103 140 188 248 302 365 426
#     4  12  25  45  69 110 149 193 237 299 378 443
#     4  12  23  43  71 104 155 189 234 295 373 447
#     4  11  25  44  70 111 142 189 239 302 368 441
#     4  11  26  51  73 101 141 198 257 308 352 431
#
# _framework density 25.500451000000002
#
# number of rings (size 3 to 8) (size 9 to 14) (size 15 to 20)
#    0.000    0.800    4.000    3.000    0.000   10.400 
#    7.200    2.000    0.000    0.000    0.000    0.000 
#    0.000    0.000    0.000    0.000    0.000    0.000 
#
# Total GULP energy -111486.476870 kJ/mol
# GULP energy per Si atom -5574.323844 kJ/mol
# Density = 2.544241 g / cm^3
# Si number density = 25.500451 Si / 1000 Ang^3
#
#
#
# Elastic Constant Matrix: (Units=GPa)
#
#
# Indices 1 2 3 4 5 6 
#
# 1 101.3974 -5.4835 6.9742 0.0000 0.0000 0.0000
# 2 -5.4835 190.1880 15.2967 0.0000 0.0000 0.0000
# 3 6.9742 15.2967 63.4513 0.0000 0.0000 0.0000
# 4 0.0000 0.0000 0.0000 16.7411 0.0000 0.0000
# 5 0.0000 0.0000 0.0000 0.0000 14.6420 0.0000
# 6 0.0000 0.0000 0.0000 0.0000 0.0000 20.6535
#
#
#
# Elastic Compliance Matrix: (Units=1/GPa)
#
#
# Indices 1 2 3 4 5 6 
#
# 1 0.009965 0.000383 -0.001188 0.000000 0.000000 0.000000
# 2 0.000383 0.005377 -0.001338 0.000000 0.000000 0.000000
# 3 -0.001188 -0.001338 0.016213 0.000000 0.000000 0.000000
# 4 0.000000 0.000000 0.000000 0.059733 0.000000 0.000000
# 5 0.000000 0.000000 0.000000 0.000000 0.068297 0.000000
# 6 0.000000 0.000000 0.000000 0.000000 0.000000 0.048418
#
#
# Mechanical properties :
#
#
# Convention : Reuss Voigt Hill
#
# Bulk Modulus (GPa) = 36.67239 43.17908 39.92573
# Shear Modulus (GPa) = 22.58578 32.95725 27.77151
#
# Velocity S-wave (km/s) = 2.97930 3.59892 3.30367
# Velocity P-wave (km/s) = 5.12321 5.85142 5.49938
#
# Compressibility (1/GPa) = 0.02726847
#
# Stress axis : x y z
#
# Youngs Moduli (GPa) = 100.35558 185.99014 61.67790
#
# Poissons Ratio (x) = -0.07120 0.07324
# Poissons Ratio (y) = -0.03842 0.08254
# Poissons Ratio (z) = 0.11918 0.24890
#
# Static dielectric constant tensor:
#      x y z
#    x 2.259110 0.000000 0.000000 
#    y 0.000000 2.026900 0.000000 
#    z 0.000000 0.000000 2.168050 
# 
# From -- ./inp_files/23766.got.cif
#   From: 2010.05.17/outbox.cif.g08.bks.cpg/sg21_12_cif.got.tgz:23766.got - 2010.06.03 23:14:55.
