data_PCOD9324845
_publ_section_title
;
Structure prediction by ZEFSAII (Michael W. Deem and Ramdas Pophale) SiO2 
 PCOD9324845
Probable space group: C 2 2 2
;
_chemical_formula_sum "Si O2"
_cell_formula_units_Z 24
_cell_length_a 5.263784
_cell_length_b 18.657277
_cell_length_c 10.589112
_cell_angle_alpha 90.000000
_cell_angle_beta 90.000000
_cell_angle_gamma 90.000000
_cell_volume 1039.934200
_symmetry_space_group_name_H-M "C 2 2 2"
_symmetry_group_IT_number 21
_symmetry_cell_setting 'orthorhombic'
loop_
_space_group_symop_operation_xyz
x,y,z
-x,-y,z
x,-y,-z
-x,y,-z
1/2+x,1/2+y,z
1/2-x,1/2-y,z
1/2+x,1/2-y,-z
1/2-x,1/2+y,-z
loop_
_atom_site_type_symbol
_atom_site_label
_atom_site_fract_x
_atom_site_fract_y
_atom_site_fract_z
Si Si1 0.936854 0.154588 0.129158
Si Si2 0.159345 0.825772 0.610376
Si Si3 0.926621 0.417874 0.796687
O O1 0.655635 0.123852 0.136295
O O2 0.998739 0.192555 0.262060
O O3 0.155834 0.092713 0.133476
O O4 0.000000 0.195858 0.000000
O O5 0.250000 0.750000 0.559205
O O6 0.375940 0.877941 0.663533
O O7 0.000000 0.862202 0.500000
O O8 0.000000 0.500000 0.784114
#
# Coordination Sequence:
#
# PCOD9324845 Si02
#       3
#     8   8   8
#     4  10  23  43  69 105 137 179 229 288 352 421
#     4  10  26  44  71  97 137 189 236 288 350 417
#     4  10  23  43  70 103 137 179 229 287 349 416
#
# _framework density 23.078382999999999
#
# number of rings (size 3 to 8) (size 9 to 14) (size 15 to 20)
#    2.000    0.000    0.000    2.000    4.667    4.000 
#    6.000    5.000    0.000    0.000    0.000    0.000 
#    0.000    0.000    0.000    0.000    0.000    0.000 
#
# Total GULP energy -66907.152019 kJ/mol
# GULP energy per Si atom -5575.596002 kJ/mol
# Density = 2.302586 g / cm^3
# Si number density = 23.078383 Si / 1000 Ang^3
#
#
#
# Elastic Constant Matrix: (Units=GPa)
#
#
# Indices 1 2 3 4 5 6 
#
# 1 145.8585 23.1149 47.0118 0.0000 0.0000 0.0000
# 2 23.1149 43.8596 0.6769 0.0000 0.0000 0.0000
# 3 47.0118 0.6769 126.9101 0.0000 0.0000 0.0000
# 4 0.0000 0.0000 0.0000 0.1816 0.0000 0.0000
# 5 0.0000 0.0000 0.0000 0.0000 47.0798 0.0000
# 6 0.0000 0.0000 0.0000 0.0000 0.0000 35.2412
#
#
#
# Elastic Compliance Matrix: (Units=1/GPa)
#
#
# Indices 1 2 3 4 5 6 
#
# 1 0.008582 -0.004474 -0.003155 0.000000 0.000000 0.000000
# 2 -0.004474 0.025135 0.001523 0.000000 0.000000 0.000000
# 3 -0.003155 0.001523 0.009040 0.000000 0.000000 0.000000
# 4 0.000000 0.000000 0.000000 5.505964 0.000000 0.000000
# 5 0.000000 0.000000 0.000000 0.000000 0.021241 0.000000
# 6 0.000000 0.000000 0.000000 0.000000 0.000000 0.028376
#
#
# Mechanical properties :
#
#
# Convention : Reuss Voigt Hill
#
# Bulk Modulus (GPa) = 32.73895 50.91505 41.82700
# Shear Modulus (GPa) = 0.88956 32.88882 16.88919
#
# Velocity S-wave (km/s) = 0.62152 3.77913 2.70815
# Velocity P-wave (km/s) = 3.83821 6.41500 5.28602
#
# Compressibility (1/GPa) = 0.03054466
#
# Stress axis : x y z
#
# Youngs Moduli (GPa) = 116.52351 39.78591 110.61639
#
# Poissons Ratio (x) = 0.17801 0.34901
# Poissons Ratio (y) = 0.52135 -0.16851
# Poissons Ratio (z) = 0.36765 -0.06061
#
# Static dielectric constant tensor:
#      x y z
#    x 1.922770 0.000000 0.000000 
#    y 0.000000 1.794050 0.000000 
#    z 0.000000 0.000000 1.925570 
# 
# From -- ./inp_files/8601.got.cif
#   From: 2010.05.17/outbox.cif.g08.bks.cpg/sg21_5_cif.got.tgz:8601.got - 2010.06.03 23:14:55.
