data_PCOD9324890
_publ_section_title
;
Structure prediction by ZEFSAII (Michael W. Deem and Ramdas Pophale) SiO2 
 PCOD9324890
Probable space group: C 2 2 2
;
_chemical_formula_sum "Si O2"
_cell_formula_units_Z 38
_cell_length_a 10.038514
_cell_length_b 30.480596
_cell_length_c 5.322969
_cell_angle_alpha 90.000000
_cell_angle_beta 90.000000
_cell_angle_gamma 90.000000
_cell_volume 1628.721467
_symmetry_space_group_name_H-M "C 2 2 2"
_symmetry_group_IT_number 21
_symmetry_cell_setting 'orthorhombic'
loop_
_space_group_symop_operation_xyz
x,y,z
-x,-y,z
x,-y,-z
-x,y,-z
1/2+x,1/2+y,z
1/2-x,1/2-y,z
1/2+x,1/2-y,-z
1/2-x,1/2+y,-z
loop_
_atom_site_type_symbol
_atom_site_label
_atom_site_fract_x
_atom_site_fract_y
_atom_site_fract_z
Si Si1 0.000000 0.669016 0.500000
Si Si2 0.755969 0.203509 0.799658
Si Si3 0.702211 0.044613 0.123995
Si Si4 0.858830 0.126471 0.134497
Si Si5 0.500000 0.110893 0.000000
Si Si6 0.000000 0.500000 0.500000
Si Si7 0.000000 0.813902 0.500000
O O1 0.132187 0.695319 0.603736
O O2 0.969151 0.639037 0.747993
O O3 0.750000 0.250000 0.949254
O O4 0.904541 0.210953 0.686859
O O5 0.770107 0.158796 0.959509
O O6 0.809110 0.079019 0.217969
O O7 0.597050 0.028912 0.329369
O O8 0.620050 0.076886 0.939030
O O9 0.753745 0.000000 0.000000
O O10 0.891356 0.155409 0.372446
O O11 0.000000 0.120299 0.000000
#
# Coordination Sequence:
#
# PCOD9324890 Si02
#       7
#     4   8   8   8   4   2   4
#     4  12  26  44  77 112 152 200 248 319 380 462
#     4  11  24  45  73 108 146 195 253 317 386 461
#     4  12  24  42  67 106 141 191 243 312 383 461
#     4  10  24  47  71  98 143 198 249 312 378 461
#     4  12  23  44  70 108 152 188 242 304 387 446
#     4  12  24  40  68 110 148 190 252 318 386 458
#     4  10  23  46  70 100 142 194 250 308 381 450
#
# _framework density 23.331181999999998
#
# number of rings (size 3 to 8) (size 9 to 14) (size 15 to 20)
#    0.000    0.842    4.211    2.526    0.000    4.632 
#    5.684    0.000    0.000    1.263    0.000    0.000 
#    0.000    0.000    0.000    0.000    0.000    0.000 
#
# Total GULP energy -105873.453640 kJ/mol
# GULP energy per Si atom -5572.287034 kJ/mol
# Density = 2.327808 g / cm^3
# Si number density = 23.331182 Si / 1000 Ang^3
#
#
#
# Elastic Constant Matrix: (Units=GPa)
#
#
# Indices 1 2 3 4 5 6 
#
# 1 80.9424 58.3376 21.9529 0.0000 0.0000 0.0000
# 2 58.3376 191.7027 49.8584 0.0000 0.0000 0.0000
# 3 21.9529 49.8584 83.4348 0.0000 0.0000 0.0000
# 4 0.0000 0.0000 0.0000 -2.8056 0.0000 0.0000
# 5 0.0000 0.0000 0.0000 0.0000 34.7862 0.0000
# 6 0.0000 0.0000 0.0000 0.0000 0.0000 21.2421
#
#
#
# Elastic Compliance Matrix: (Units=1/GPa)
#
#
# Indices 1 2 3 4 5 6 
#
# 1 0.015990 -0.004466 -0.001539 0.000000 0.000000 0.000000
# 2 -0.004466 0.007424 -0.003261 0.000000 0.000000 0.000000
# 3 -0.001539 -0.003261 0.014339 0.000000 0.000000 0.000000
# 4 0.000000 0.000000 0.000000 -0.356434 0.000000 0.000000
# 5 0.000000 0.000000 0.000000 0.000000 0.028747 0.000000
# 6 0.000000 0.000000 0.000000 0.000000 0.000000 0.047076
#
#
# Mechanical properties :
#
#
# Convention : Reuss Voigt Hill
#
# Bulk Modulus (GPa) = 52.02427 68.48641 60.25534
# Shear Modulus (GPa) = -22.94426 25.70662 1.38118
#
# Velocity S-wave (km/s) = -3.13935 3.32296 0.77024
# Velocity P-wave (km/s) = 3.03412 6.64383 5.16461
#
# Compressibility (1/GPa) = 0.01922180
#
# Stress axis : x y z
#
# Youngs Moduli (GPa) = 62.53718 134.70544 69.73995
#
# Poissons Ratio (x) = 0.60159 0.10730
# Poissons Ratio (y) = 0.27929 0.22743
# Poissons Ratio (z) = 0.09622 0.43929
#
# Static dielectric constant tensor:
#      x y z
#    x 1.900110 0.000000 0.000000 
#    y 0.000000 1.884020 0.000000 
#    z 0.000000 0.000000 1.952450 
# 
# From -- ./inp_files/2921.got.cif
#   From: 2010.05.17/outbox.cif.g08.bks.cpg/sg21_2_cif.got.tgz:2921.got - 2010.06.03 23:14:55.
