data_PCOD9324217
_publ_section_title
;
Structure prediction by ZEFSAII (Michael W. Deem and Ramdas Pophale) SiO2 
 PCOD9324217
Probable space group: C 2 2 2
;
_chemical_formula_sum "Si O2"
_cell_formula_units_Z 58
_cell_length_a 6.170005
_cell_length_b 27.602287
_cell_length_c 16.480515
_cell_angle_alpha 90.000000
_cell_angle_beta 90.000000
_cell_angle_gamma 90.000000
_cell_volume 2806.734688
_symmetry_space_group_name_H-M "C 2 2 2"
_symmetry_group_IT_number 21
_symmetry_cell_setting 'orthorhombic'
loop_
_space_group_symop_operation_xyz
x,y,z
-x,-y,z
x,-y,-z
-x,y,-z
1/2+x,1/2+y,z
1/2-x,1/2-y,z
1/2+x,1/2-y,-z
1/2-x,1/2+y,-z
loop_
_atom_site_type_symbol
_atom_site_label
_atom_site_fract_x
_atom_site_fract_y
_atom_site_fract_z
Si Si1 0.843156 0.460014 0.809381
Si Si2 0.999519 0.238431 0.408979
Si Si3 0.000000 0.500000 0.500000
Si Si4 0.153424 0.630046 0.214371
Si Si5 0.014058 0.857453 0.664980
Si Si6 0.043644 0.889941 0.905845
Si Si7 0.726738 0.807386 0.184906
Si Si8 0.810766 0.963553 0.367172
O O1 0.657789 0.437120 0.865863
O O2 0.758820 0.480477 0.723570
O O3 0.000000 0.500000 0.848471
O O4 0.985203 0.413496 0.786061
O O5 0.250000 0.250000 0.376225
O O6 0.002064 0.180478 0.406567
O O7 0.000000 0.259168 0.500000
O O8 0.750000 0.250000 0.374688
O O9 0.864044 0.532436 0.437662
O O10 0.279333 0.631655 0.298340
O O11 0.323934 0.619686 0.143422
O O12 0.022770 0.679245 0.200208
O O13 0.139313 0.829322 0.738427
O O14 0.119327 0.908225 0.643980
O O15 0.190238 0.842001 0.888338
O O16 0.000000 0.896622 0.000000
O O17 0.750000 0.750000 0.174034
O O18 0.000000 0.000000 0.392090
#
# Coordination Sequence:
#
# PCOD9324217 Si02
#       8
#     8   8   2   8   8   8   8   8
#     4  11  22  41  71  94 129 186 226 279 357 428
#     4  10  24  44  62  95 137 180 227 291 365 432
#     4  12  30  44  68  98 136 182 242 316 356 454
#     4  10  21  41  66  95 129 178 220 282 343 419
#     4  11  23  39  69  96 127 178 227 292 345 427
#     4  10  23  43  64  99 142 175 226 290 348 432
#     4  10  22  40  64 103 133 177 237 277 351 426
#     4  12  25  46  67  97 135 174 236 294 367 424
#
# _framework density 20.664583
#
# number of rings (size 3 to 8) (size 9 to 14) (size 15 to 20)
#    0.000    1.379    4.828    1.448    3.862    4.966 
#    6.207    2.069    0.000    0.000    0.000    0.000 
#    0.000    0.000    0.000    0.000    0.000    0.000 
#
# Total GULP energy -161690.151074 kJ/mol
# GULP energy per Si atom -5575.522451 kJ/mol
# Density = 2.061755 g / cm^3
# Si number density = 20.664583 Si / 1000 Ang^3
#
#
#
# Elastic Constant Matrix: (Units=GPa)
#
#
# Indices 1 2 3 4 5 6 
#
# 1 116.7423 32.5816 34.1061 0.0000 0.0000 0.0000
# 2 32.5816 94.2534 22.9549 0.0000 0.0000 0.0000
# 3 34.1061 22.9549 99.1788 0.0000 0.0000 0.0000
# 4 0.0000 0.0000 0.0000 20.7640 0.0000 0.0000
# 5 0.0000 0.0000 0.0000 0.0000 121.3240 0.0000
# 6 0.0000 0.0000 0.0000 0.0000 0.0000 33.3313
#
#
#
# Elastic Compliance Matrix: (Units=1/GPa)
#
#
# Indices 1 2 3 4 5 6 
#
# 1 0.010187 -0.002828 -0.002849 0.000000 0.000000 0.000000
# 2 -0.002828 0.012028 -0.001812 0.000000 0.000000 0.000000
# 3 -0.002849 -0.001812 0.011482 0.000000 0.000000 0.000000
# 4 0.000000 0.000000 0.000000 0.048160 0.000000 0.000000
# 5 0.000000 0.000000 0.000000 0.000000 0.008242 0.000000
# 6 0.000000 0.000000 0.000000 0.000000 0.000000 0.030002
#
#
# Mechanical properties :
#
#
# Convention : Reuss Voigt Hill
#
# Bulk Modulus (GPa) = 53.41514 54.38441 53.89977
# Shear Modulus (GPa) = 35.38105 49.78600 42.58353
#
# Velocity S-wave (km/s) = 4.14231 4.91373 4.54442
# Velocity P-wave (km/s) = 6.98449 7.65296 7.32635
#
# Compressibility (1/GPa) = 0.01872128
#
# Stress axis : x y z
#
# Youngs Moduli (GPa) = 98.16095 83.13665 87.09486
#
# Poissons Ratio (x) = 0.23509 0.24812
# Poissons Ratio (y) = 0.27758 0.15778
# Poissons Ratio (z) = 0.27964 0.15061
#
# Static dielectric constant tensor:
#      x y z
#    x 1.829220 0.000000 0.000000 
#    y 0.000000 1.231230 0.000000 
#    z 0.000000 0.000000 1.767830 
# 
# From -- ./inp_files/35185.got.cif
#   From: 2010.05.17/outbox.cif.g08.bks.cpg/sg21_18_cif.got.tgz:35185.got - 2010.06.03 23:14:55.
