data_PCOD9324195
_publ_section_title
;
Structure prediction by ZEFSAII (Michael W. Deem and Ramdas Pophale) SiO2 
 PCOD9324195
Probable space group: C 2 2 2
;
_chemical_formula_sum "Si O2"
_cell_formula_units_Z 36
_cell_length_a 15.314713
_cell_length_b 7.165322
_cell_length_c 15.998354
_cell_angle_alpha 90.000000
_cell_angle_beta 90.000000
_cell_angle_gamma 90.000000
_cell_volume 1755.576976
_symmetry_space_group_name_H-M "C 2 2 2"
_symmetry_group_IT_number 21
_symmetry_cell_setting 'orthorhombic'
loop_
_space_group_symop_operation_xyz
x,y,z
-x,-y,z
x,-y,-z
-x,y,-z
1/2+x,1/2+y,z
1/2-x,1/2-y,z
1/2+x,1/2-y,-z
1/2-x,1/2+y,-z
loop_
_atom_site_type_symbol
_atom_site_label
_atom_site_fract_x
_atom_site_fract_y
_atom_site_fract_z
Si Si1 0.248843 0.525066 0.761571
Si Si2 0.177923 0.417090 0.407898
Si Si3 0.000000 0.500000 0.322030
Si Si4 0.837604 0.637261 0.926420
Si Si5 0.567281 0.667022 0.797740
O O1 0.250000 0.750000 0.762324
O O2 0.213664 0.466386 0.671031
O O3 0.191362 0.467573 0.841130
O O4 0.341023 0.425892 0.772037
O O5 0.176944 0.500000 0.500000
O O6 0.250000 0.250000 0.412516
O O7 0.076267 0.401642 0.377992
O O8 0.036929 0.664079 0.262039
O O9 0.750000 0.750000 0.952843
O O10 0.915962 0.763538 0.892487
O O11 0.862218 0.500000 0.000000
O O12 0.500000 0.500000 0.793749
#
# Coordination Sequence:
#
# PCOD9324195 Si02
#       5
#     8   8   4   8   8
#     4  10  21  43  72  98 135 183 236 291 358 435
#     4  11  25  43  72 104 144 194 242 299 368 441
#     4  12  25  48  71 106 150 188 241 316 365 440
#     4  10  21  40  72  98 134 182 234 293 352 438
#     4  11  24  42  75 102 139 190 237 298 370 432
#
# _framework density 20.506079
#
# number of rings (size 3 to 8) (size 9 to 14) (size 15 to 20)
#    0.000    1.333    2.222    3.667    3.111    0.000 
#    0.000    0.556   14.667    0.000    0.000    0.000 
#    0.000    0.000    0.000    0.000    0.000    0.000 
#
# Total GULP energy -100345.740235 kJ/mol
# GULP energy per Si atom -5574.763346 kJ/mol
# Density = 2.045941 g / cm^3
# Si number density = 20.506079 Si / 1000 Ang^3
#
#
#
# Elastic Constant Matrix: (Units=GPa)
#
#
# Indices 1 2 3 4 5 6 
#
# 1 113.7997 52.4846 70.2337 0.0000 0.0000 0.0000
# 2 52.4846 123.1072 51.8216 0.0000 0.0000 0.0000
# 3 70.2337 51.8216 143.8091 0.0000 0.0000 0.0000
# 4 0.0000 0.0000 0.0000 28.8002 0.0000 0.0000
# 5 0.0000 0.0000 0.0000 0.0000 17.0861 0.0000
# 6 0.0000 0.0000 0.0000 0.0000 0.0000 31.9924
#
#
#
# Elastic Compliance Matrix: (Units=1/GPa)
#
#
# Indices 1 2 3 4 5 6 
#
# 1 0.013807 -0.003593 -0.005448 0.000000 0.000000 0.000000
# 2 -0.003593 0.010510 -0.002033 0.000000 0.000000 0.000000
# 3 -0.005448 -0.002033 0.010347 0.000000 0.000000 0.000000
# 4 0.000000 0.000000 0.000000 0.034722 0.000000 0.000000
# 5 0.000000 0.000000 0.000000 0.000000 0.058527 0.000000
# 6 0.000000 0.000000 0.000000 0.000000 0.000000 0.031257
#
#
# Mechanical properties :
#
#
# Convention : Reuss Voigt Hill
#
# Bulk Modulus (GPa) = 79.89476 81.08842 80.49159
# Shear Modulus (GPa) = 26.95545 29.32081 28.13813
#
# Velocity S-wave (km/s) = 3.62955 3.78545 3.70832
# Velocity P-wave (km/s) = 7.52402 7.66392 7.59429
#
# Compressibility (1/GPa) = 0.01251647
#
# Stress axis : x y z
#
# Youngs Moduli (GPa) = 72.42713 95.14342 96.64596
#
# Poissons Ratio (x) = 0.34184 0.52656
# Poissons Ratio (y) = 0.26022 0.19646
# Poissons Ratio (z) = 0.39461 0.19340
#
# Static dielectric constant tensor:
#      x y z
#    x 1.820580 0.000000 0.000000 
#    y 0.000000 1.803470 0.000000 
#    z 0.000000 0.000000 1.698710 
# 
# From -- ./inp_files/32018.got.cif
#   From: 2010.05.17/outbox.cif.g08.bks.cpg/sg21_17_cif.got.tgz:32018.got - 2010.06.03 23:14:55.
