data_PCOD9324381
_publ_section_title
;
Structure prediction by ZEFSAII (Michael W. Deem and Ramdas Pophale) SiO2 
 PCOD9324381
Probable space group: C 2 2 2
;
_chemical_formula_sum "Si O2"
_cell_formula_units_Z 58
_cell_length_a 27.879205
_cell_length_b 9.368099
_cell_length_c 11.106874
_cell_angle_alpha 90.000000
_cell_angle_beta 90.000000
_cell_angle_gamma 90.000000
_cell_volume 2900.839511
_symmetry_space_group_name_H-M "C 2 2 2"
_symmetry_group_IT_number 21
_symmetry_cell_setting 'orthorhombic'
loop_
_space_group_symop_operation_xyz
x,y,z
-x,-y,z
x,-y,-z
-x,y,-z
1/2+x,1/2+y,z
1/2-x,1/2-y,z
1/2+x,1/2-y,-z
1/2-x,1/2+y,-z
loop_
_atom_site_type_symbol
_atom_site_label
_atom_site_fract_x
_atom_site_fract_y
_atom_site_fract_z
Si Si1 0.851310 0.144757 0.928981
Si Si2 0.551856 0.269103 0.063239
Si Si3 0.882718 0.448284 0.205563
Si Si4 0.387168 0.260718 0.293984
Si Si5 0.000000 0.500000 0.500000
Si Si6 0.449201 0.467730 0.700324
Si Si7 0.787198 0.363109 0.068523
Si Si8 0.588305 0.796025 0.562629
O O1 0.848053 0.150638 0.784015
O O2 0.905920 0.180010 0.973140
O O3 0.815415 0.264930 0.973920
O O4 0.840714 0.000000 0.000000
O O5 0.575836 0.130181 0.127421
O O6 0.547045 0.385986 0.171052
O O7 0.500000 0.249197 0.000000
O O8 0.894022 0.613946 0.222102
O O9 0.830487 0.422489 0.149672
O O10 0.881803 0.377103 0.336477
O O11 0.429065 0.374766 0.286571
O O12 0.386098 0.215738 0.433604
O O13 0.961717 0.611915 0.558692
O O14 0.500000 0.500000 0.644904
O O15 0.420704 0.361882 0.613637
O O16 0.750000 0.250000 0.126187
O O17 0.765517 0.500000 0.000000
#
# Coordination Sequence:
#
# PCOD9324381 Si02
#       8
#     8   8   8   8   2   8   8   8
#     4  11  22  39  62  93 132 168 214 268 330 400
#     4  10  22  38  57  86 128 174 220 267 333 388
#     4  10  23  44  64  94 130 171 223 280 337 410
#     4  12  21  40  65  86 127 179 224 281 334 395
#     4  12  20  36  62  84 134 180 246 284 316 390
#     4  11  23  37  56  84 127 176 237 289 317 378
#     4  11  23  44  73 104 129 160 208 273 349 429
#     4  11  24  40  60  93 128 183 236 282 328 381
#
# _framework density 19.994212000000001
#
# number of rings (size 3 to 8) (size 9 to 14) (size 15 to 20)
#    0.000    1.103    4.138    2.483    0.000    1.655 
#    0.000    2.759    0.000    0.828    3.586    0.000 
#    0.000    0.000    0.000    0.000    0.000    0.000 
#
# Total GULP energy -161641.963827 kJ/mol
# GULP energy per Si atom -5573.860822 kJ/mol
# Density = 1.994870 g / cm^3
# Si number density = 19.994212 Si / 1000 Ang^3
#
#
#
# Elastic Constant Matrix: (Units=GPa)
#
#
# Indices 1 2 3 4 5 6 
#
# 1 76.8070 48.6265 29.7335 0.0000 0.0000 0.0000
# 2 48.6265 155.3476 44.9278 0.0000 0.0000 0.0000
# 3 29.7335 44.9278 118.4345 0.0000 0.0000 0.0000
# 4 0.0000 0.0000 0.0000 -14.5593 0.0000 0.0000
# 5 0.0000 0.0000 0.0000 0.0000 3.4540 0.0000
# 6 0.0000 0.0000 0.0000 0.0000 0.0000 16.5146
#
#
#
# Elastic Compliance Matrix: (Units=1/GPa)
#
#
# Indices 1 2 3 4 5 6 
#
# 1 0.016876 -0.004557 -0.002508 0.000000 0.000000 0.000000
# 2 -0.004557 0.008461 -0.002066 0.000000 0.000000 0.000000
# 3 -0.002508 -0.002066 0.009857 0.000000 0.000000 0.000000
# 4 0.000000 0.000000 0.000000 -0.068685 0.000000 0.000000
# 5 0.000000 0.000000 0.000000 0.000000 0.289520 0.000000
# 6 0.000000 0.000000 0.000000 0.000000 0.000000 0.060553
#
#
# Mechanical properties :
#
#
# Convention : Reuss Voigt Hill
#
# Bulk Modulus (GPa) = 59.05956 66.35164 62.70560
# Shear Modulus (GPa) = 14.68487 16.23528 15.46008
#
# Velocity S-wave (km/s) = 2.71302 2.85265 2.78371
# Velocity P-wave (km/s) = 6.27825 6.64136 6.46236
#
# Compressibility (1/GPa) = 0.01693206
#
# Stress axis : x y z
#
# Youngs Moduli (GPa) = 59.25717 118.18953 101.45379
#
# Poissons Ratio (x) = 0.53859 0.25445
# Poissons Ratio (y) = 0.27004 0.20956
# Poissons Ratio (z) = 0.14862 0.24413
#
# Static dielectric constant tensor:
#      x y z
#    x 1.757250 0.000000 0.000000 
#    y 0.000000 1.706840 0.000000 
#    z 0.000000 0.000000 1.785250 
# 
# From -- ./inp_files/28068.got.cif
#   From: 2010.05.17/outbox.cif.g08.bks.cpg/sg21_15_cif.got.tgz:28068.got - 2010.06.03 23:14:55.
