data_PCOD9324604
_publ_section_title
;
Structure prediction by ZEFSAII (Michael W. Deem and Ramdas Pophale) SiO2 
 PCOD9324604
Probable space group: C 2 2 2
;
_chemical_formula_sum "Si O2"
_cell_formula_units_Z 34
_cell_length_a 19.544460
_cell_length_b 10.032355
_cell_length_c 7.751559
_cell_angle_alpha 90.000000
_cell_angle_beta 90.000000
_cell_angle_gamma 90.000000
_cell_volume 1519.902132
_symmetry_space_group_name_H-M "C 2 2 2"
_symmetry_group_IT_number 21
_symmetry_cell_setting 'orthorhombic'
loop_
_space_group_symop_operation_xyz
x,y,z
-x,-y,z
x,-y,-z
-x,y,-z
1/2+x,1/2+y,z
1/2-x,1/2-y,z
1/2+x,1/2-y,-z
1/2-x,1/2+y,-z
loop_
_atom_site_type_symbol
_atom_site_label
_atom_site_fract_x
_atom_site_fract_y
_atom_site_fract_z
Si Si1 0.500000 0.000000 0.500000
Si Si2 0.666729 0.737026 0.250907
Si Si3 0.112641 0.315057 0.627656
Si Si4 0.578060 0.479826 0.292718
Si Si5 0.699244 0.130130 0.074779
O O1 0.544959 0.901434 0.614419
O O2 0.750000 0.750000 0.261718
O O3 0.638061 0.789777 0.432968
O O4 0.632316 0.590580 0.229319
O O5 0.649212 0.822043 0.079704
O O6 0.101614 0.173227 0.722491
O O7 0.165154 0.397058 0.743074
O O8 0.500000 0.500000 0.227307
O O9 0.574860 0.500000 0.500000
O O10 0.750000 0.250000 0.105567
O O11 0.734891 0.000000 0.000000
#
# Coordination Sequence:
#
# PCOD9324604 Si02
#       5
#     2   8   8   8   8
#     4  12  24  44  68 100 140 186 238 286 334 432
#     4  10  22  42  69 103 138 171 240 288 345 425
#     4  11  23  43  69  92 140 186 225 283 356 398
#     4   9  19  39  67  98 133 181 232 283 340 422
#     4  11  26  43  66  99 139 175 229 289 346 410
#
# _framework density 22.369861
#
# number of rings (size 3 to 8) (size 9 to 14) (size 15 to 20)
#    0.000    1.647    0.000    4.941    6.588    0.000 
#   14.824   12.353    0.000    0.000    0.000    0.000 
#    0.000    0.000    0.000    0.000    0.000    0.000 
#
# Total GULP energy -94911.214044 kJ/mol
# GULP energy per Si atom -5583.012591 kJ/mol
# Density = 2.231895 g / cm^3
# Si number density = 22.369861 Si / 1000 Ang^3
#
#
#
# Elastic Constant Matrix: (Units=GPa)
#
#
# Indices 1 2 3 4 5 6 
#
# 1 98.1487 43.3711 16.4445 0.0000 0.0000 0.0000
# 2 43.3711 117.2593 11.8457 0.0000 0.0000 0.0000
# 3 16.4445 11.8457 89.3825 0.0000 0.0000 0.0000
# 4 0.0000 0.0000 0.0000 28.9271 0.0000 0.0000
# 5 0.0000 0.0000 0.0000 0.0000 -75.2835 0.0000
# 6 0.0000 0.0000 0.0000 0.0000 0.0000 35.4429
#
#
#
# Elastic Compliance Matrix: (Units=1/GPa)
#
#
# Indices 1 2 3 4 5 6 
#
# 1 0.012429 -0.004425 -0.001700 0.000000 0.000000 0.000000
# 2 -0.004425 0.010220 -0.000540 0.000000 0.000000 0.000000
# 3 -0.001700 -0.000540 0.011572 0.000000 0.000000 0.000000
# 4 0.000000 0.000000 0.000000 0.034570 0.000000 0.000000
# 5 0.000000 0.000000 0.000000 0.000000 -0.013283 0.000000
# 6 0.000000 0.000000 0.000000 0.000000 0.000000 0.028214
#
#
# Mechanical properties :
#
#
# Convention : Reuss Voigt Hill
#
# Bulk Modulus (GPa) = 47.87156 49.79035 48.83095
# Shear Modulus (GPa) = 48.06932 13.35925 30.71428
#
# Velocity S-wave (km/s) = 4.64059 2.44642 3.70945
# Velocity P-wave (km/s) = 7.08237 5.50328 6.34216
#
# Compressibility (1/GPa) = 0.02088923
#
# Stress axis : x y z
#
# Youngs Moduli (GPa) = 80.45677 97.85194 86.41355
#
# Poissons Ratio (x) = 0.43304 0.14692
# Poissons Ratio (y) = 0.35605 0.04668
# Poissons Ratio (z) = 0.13679 0.05286
#
# Static dielectric constant tensor:
#      x y z
#    x 1.837580 0.000000 0.000000 
#    y 0.000000 1.892700 0.000000 
#    z 0.000000 0.000000 1.819200 
# 
# From -- ./inp_files/17193.got.cif
#   From: 2010.05.17/outbox.cif.g08.bks.cpg/sg21_9_cif.got.tgz:17193.got - 2010.06.03 23:14:55.
