data_PCOD9324181
_publ_section_title
;
Structure prediction by ZEFSAII (Michael W. Deem and Ramdas Pophale) SiO2 
 PCOD9324181
Probable space group: C 2 2 2
;
_chemical_formula_sum "Si O2"
_cell_formula_units_Z 34
_cell_length_a 8.618603
_cell_length_b 23.659952
_cell_length_c 7.853190
_cell_angle_alpha 90.000000
_cell_angle_beta 90.000000
_cell_angle_gamma 90.000000
_cell_volume 1601.388997
_symmetry_space_group_name_H-M "C 2 2 2"
_symmetry_group_IT_number 21
_symmetry_cell_setting 'orthorhombic'
loop_
_space_group_symop_operation_xyz
x,y,z
-x,-y,z
x,-y,-z
-x,y,-z
1/2+x,1/2+y,z
1/2-x,1/2-y,z
1/2+x,1/2-y,-z
1/2-x,1/2+y,-z
loop_
_atom_site_type_symbol
_atom_site_label
_atom_site_fract_x
_atom_site_fract_y
_atom_site_fract_z
Si Si1 0.500000 0.500000 0.500000
Si Si2 0.159601 0.345959 0.602416
Si Si3 0.505953 0.063726 0.797623
Si Si4 0.000000 0.167033 0.000000
Si Si5 0.750000 0.250000 0.150080
Si Si6 0.842506 0.896035 0.314531
O O1 0.404894 0.456029 0.382757
O O2 0.163038 0.292705 0.724851
O O3 0.305872 0.354962 0.476639
O O4 0.000000 0.341709 0.500000
O O5 0.135930 0.401674 0.717422
O O6 0.669708 0.092201 0.754388
O O7 0.500000 0.000000 0.730768
O O8 0.500000 0.062900 0.000000
O O9 0.949647 0.130316 0.834261
O O10 0.141218 0.209084 0.958178
#
# Coordination Sequence:
#
# PCOD9324181 Si02
#       6
#     2   8   8   4   4   8
#     4  12  24  42  74  96 144 182 220 290 366 430
#     4  10  24  42  69  97 136 180 240 289 355 427
#     4  10  21  40  69 101 137 180 229 290 354 432
#     4  12  30  45  70 100 147 184 250 296 360 416
#     4  12  28  44  70  96 138 192 240 302 354 412
#     4  11  25  44  67 104 140 181 235 290 359 433
#
# _framework density 21.231566000000001
#
# number of rings (size 3 to 8) (size 9 to 14) (size 15 to 20)
#    0.000    1.176    0.000    4.235   11.529    7.529 
#    0.000    0.000    0.000    0.000    0.000    0.000 
#    0.000    0.000    0.000    0.000    0.000    0.000 
#
# Total GULP energy -94985.004179 kJ/mol
# GULP energy per Si atom -5587.353187 kJ/mol
# Density = 2.118324 g / cm^3
# Si number density = 21.231566 Si / 1000 Ang^3
#
#
#
# Elastic Constant Matrix: (Units=GPa)
#
#
# Indices 1 2 3 4 5 6 
#
# 1 72.8160 27.5412 42.1769 0.0000 0.0000 0.0000
# 2 27.5412 122.8855 54.3064 0.0000 0.0000 0.0000
# 3 42.1769 54.3064 113.3557 0.0000 0.0000 0.0000
# 4 0.0000 0.0000 0.0000 -18.8750 0.0000 0.0000
# 5 0.0000 0.0000 0.0000 0.0000 139.8184 0.0000
# 6 0.0000 0.0000 0.0000 0.0000 0.0000 43.2418
#
#
#
# Elastic Compliance Matrix: (Units=1/GPa)
#
#
# Indices 1 2 3 4 5 6 
#
# 1 0.017678 -0.001339 -0.005936 0.000000 0.000000 0.000000
# 2 -0.001339 0.010425 -0.004496 0.000000 0.000000 0.000000
# 3 -0.005936 -0.004496 0.013185 0.000000 0.000000 0.000000
# 4 0.000000 0.000000 0.000000 -0.052980 0.000000 0.000000
# 5 0.000000 0.000000 0.000000 0.000000 0.007152 0.000000
# 6 0.000000 0.000000 0.000000 0.000000 0.000000 0.023126
#
#
# Mechanical properties :
#
#
# Convention : Reuss Voigt Hill
#
# Bulk Modulus (GPa) = 56.35355 61.90068 59.12711
# Shear Modulus (GPa) = 104.07561 45.17255 74.62408
#
# Velocity S-wave (km/s) = 7.00897 4.61761 5.93498
# Velocity P-wave (km/s) = 9.59692 7.59263 8.65300
#
# Compressibility (1/GPa) = 0.01774511
#
# Stress axis : x y z
#
# Youngs Moduli (GPa) = 56.56755 95.92650 75.84641
#
# Poissons Ratio (x) = 0.12841 0.45024
# Poissons Ratio (y) = 0.07572 0.34102
# Poissons Ratio (z) = 0.33580 0.43130
#
# Static dielectric constant tensor:
#      x y z
#    x 1.769130 0.000000 0.000000 
#    y 0.000000 1.157020 0.000000 
#    z 0.000000 0.000000 1.819860 
# 
# From -- ./inp_files/10624.got.cif
#   From: 2010.05.17/outbox.cif.g08.bks.cpg/sg21_6_cif.got.tgz:10624.got - 2010.06.03 23:14:55.
