data_PCOD9324210
_publ_section_title
;
Structure prediction by ZEFSAII (Michael W. Deem and Ramdas Pophale) SiO2 
 PCOD9324210
Probable space group: C 2 2 2
;
_chemical_formula_sum "Si O2"
_cell_formula_units_Z 64
_cell_length_a 14.038554
_cell_length_b 23.514940
_cell_length_c 9.865630
_cell_angle_alpha 90.000000
_cell_angle_beta 90.000000
_cell_angle_gamma 90.000000
_cell_volume 3256.799896
_symmetry_space_group_name_H-M "C 2 2 2"
_symmetry_group_IT_number 21
_symmetry_cell_setting 'orthorhombic'
loop_
_space_group_symop_operation_xyz
x,y,z
-x,-y,z
x,-y,-z
-x,y,-z
1/2+x,1/2+y,z
1/2-x,1/2-y,z
1/2+x,1/2-y,-z
1/2-x,1/2+y,-z
loop_
_atom_site_type_symbol
_atom_site_label
_atom_site_fract_x
_atom_site_fract_y
_atom_site_fract_z
Si Si1 0.363187 0.350151 0.720235
Si Si2 0.229078 0.957686 0.875000
Si Si3 0.266113 0.317315 0.461300
Si Si4 0.394398 0.482402 0.657122
Si Si5 0.437664 0.711179 0.715652
Si Si6 0.045396 0.439421 0.147226
Si Si7 0.436089 0.156707 0.365621
Si Si8 0.108572 0.853056 0.973722
O O1 0.281370 0.330910 0.618373
O O2 0.383187 0.415670 0.685105
O O3 0.458239 0.314242 0.691494
O O4 0.345843 0.341636 0.879806
O O5 0.341542 0.947792 0.868510
O O6 0.172256 0.900020 0.902189
O O7 0.186718 0.985753 0.740803
O O8 0.208850 0.000000 0.000000
O O9 0.250000 0.250000 0.447333
O O10 0.364109 0.323991 0.378587
O O11 0.175956 0.350632 0.402193
O O12 0.500000 0.500000 0.705683
O O13 0.387807 0.500000 0.500000
O O14 0.441565 0.777975 0.684897
O O15 0.405259 0.699104 0.870253
O O16 0.031168 0.388767 0.254127
O O17 0.000000 0.500000 0.191114
O O18 0.000000 0.426260 0.000000
O O19 0.500000 0.151474 0.500000
O O20 0.000000 0.874423 0.000000
#
# Coordination Sequence:
#
# PCOD9324210 Si02
#       8
#     8   8   8   8   8   8   8   8
#     4  11  22  38  61  94 132 164 207 258 310 392
#     4  12  23  44  66  89 132 177 217 271 329 389
#     4  10  22  40  63  91 125 164 209 261 324 389
#     4  11  26  38  60 103 138 170 207 251 325 412
#     4  10  21  41  65  94 131 171 204 258 333 397
#     4  11  26  49  68  92 123 173 232 291 339 379
#     4  11  25  44  68  95 124 171 225 281 344 397
#     4  10  22  37  64 100 132 168 204 251 321 407
#
# _framework density 19.651192999999999
#
# number of rings (size 3 to 8) (size 9 to 14) (size 15 to 20)
#    0.000    1.250    2.500    4.125    7.000    3.750 
#    0.000    3.125    0.000    0.000    0.000    0.000 
#    0.000    0.000    0.000    0.000    0.000    0.000 
#
# Total GULP energy -178808.196295 kJ/mol
# GULP energy per Si atom -5587.756134 kJ/mol
# Density = 1.960647 g / cm^3
# Si number density = 19.651193 Si / 1000 Ang^3
#
#
#
# Elastic Constant Matrix: (Units=GPa)
#
#
# Indices 1 2 3 4 5 6 
#
# 1 74.1920 41.6900 41.4934 0.0000 0.0000 0.0000
# 2 41.6900 82.3538 62.9141 0.0000 0.0000 0.0000
# 3 41.4934 62.9141 127.6007 0.0000 0.0000 0.0000
# 4 0.0000 0.0000 0.0000 -9.2527 0.0000 0.0000
# 5 0.0000 0.0000 0.0000 0.0000 27.5719 0.0000
# 6 0.0000 0.0000 0.0000 0.0000 0.0000 -26.5790
#
#
#
# Elastic Compliance Matrix: (Units=1/GPa)
#
#
# Indices 1 2 3 4 5 6 
#
# 1 0.019261 -0.007966 -0.002336 0.000000 0.000000 0.000000
# 2 -0.007966 0.022775 -0.008639 0.000000 0.000000 0.000000
# 3 -0.002336 -0.008639 0.012856 0.000000 0.000000 0.000000
# 4 0.000000 0.000000 0.000000 -0.108077 0.000000 0.000000
# 5 0.000000 0.000000 0.000000 0.000000 0.036269 0.000000
# 6 0.000000 0.000000 0.000000 0.000000 0.000000 -0.037624
#
#
# Mechanical properties :
#
#
# Convention : Reuss Voigt Hill
#
# Bulk Modulus (GPa) = 58.78665 64.03797 61.41231
# Shear Modulus (GPa) = -455.06457 7.55131 -223.75663
#
# Velocity S-wave (km/s) = -15.23396 1.96240 -10.68229
# Velocity P-wave (km/s) = 16.71681 6.14758 10.99224
#
# Compressibility (1/GPa) = 0.01701067
#
# Stress axis : x y z
#
# Youngs Moduli (GPa) = 51.91777 43.90731 77.78544
#
# Poissons Ratio (x) = 0.34978 0.18167
# Poissons Ratio (y) = 0.41360 0.67198
# Poissons Ratio (z) = 0.12126 0.37931
#
# Static dielectric constant tensor:
#      x y z
#    x 1.685690 0.000000 0.000000 
#    y 0.000000 1.666810 0.000000 
#    z 0.000000 0.000000 1.705890 
# 
# From -- ./inp_files/15474.got.cif
#   From: 2010.05.17/outbox.cif.g08.bks.cpg/sg21_8_cif.got.tgz:15474.got - 2010.06.03 23:14:55.
