data_PCOD9324130
_publ_section_title
;
Structure prediction by ZEFSAII (Michael W. Deem and Ramdas Pophale) SiO2 
 PCOD9324130
Probable space group: C 2 2 2
;
_chemical_formula_sum "Si O2"
_cell_formula_units_Z 64
_cell_length_a 10.955984
_cell_length_b 28.617413
_cell_length_c 9.426812
_cell_angle_alpha 90.000000
_cell_angle_beta 90.000000
_cell_angle_gamma 90.000000
_cell_volume 2955.606456
_symmetry_space_group_name_H-M "C 2 2 2"
_symmetry_group_IT_number 21
_symmetry_cell_setting 'orthorhombic'
loop_
_space_group_symop_operation_xyz
x,y,z
-x,-y,z
x,-y,-z
-x,y,-z
1/2+x,1/2+y,z
1/2-x,1/2-y,z
1/2+x,1/2-y,-z
1/2-x,1/2+y,-z
loop_
_atom_site_type_symbol
_atom_site_label
_atom_site_fract_x
_atom_site_fract_y
_atom_site_fract_z
Si Si1 0.552167 0.713441 0.855496
Si Si2 0.703653 0.195491 0.565584
Si Si3 0.745044 0.545590 0.182373
Si Si4 0.055518 0.306392 0.710020
Si Si5 0.152560 0.139838 0.216427
Si Si6 0.775249 0.656187 0.925689
Si Si7 0.218933 0.442036 0.852763
Si Si8 0.987272 0.444193 0.656174
O O1 0.549377 0.750918 0.733408
O O2 0.466444 0.668868 0.827775
O O3 0.688872 0.698315 0.882687
O O4 0.500000 0.735716 0.000000
O O5 0.750000 0.250000 0.579715
O O6 0.578744 0.183924 0.651386
O O7 0.661735 0.184863 0.405375
O O8 0.803208 0.161359 0.635145
O O9 0.639655 0.583689 0.207300
O O10 0.721398 0.490168 0.204909
O O11 0.853668 0.563139 0.282598
O O12 0.795597 0.549232 0.021423
O O13 0.095411 0.332314 0.854373
O O14 0.254978 0.150863 0.094170
O O15 0.720696 0.608821 0.854915
O O16 0.093854 0.433582 0.767379
O O17 0.000000 0.500000 0.642094
O O18 0.000000 0.422610 0.500000
#
# Coordination Sequence:
#
# PCOD9324130 Si02
#       8
#     8   8   8   8   8   8   8   8
#     4  10  21  40  62  85 117 154 196 244 294 349
#     4  11  23  40  59  85 117 149 192 240 290 349
#     4   9  18  34  55  77 110 153 190 230 290 346
#     4  11  24  39  61  84 115 153 189 239 297 346
#     4  10  22  38  60  85 116 153 197 238 287 349
#     4  10  22  37  59  88 115 151 198 238 286 349
#     4   9  18  34  53  79 113 148 189 238 283 341
#     4   9  17  29  48  74 106 142 181 232 287 333
#
# _framework density 21.653763999999999
#
# number of rings (size 3 to 8) (size 9 to 14) (size 15 to 20)
#    0.000    2.125    1.250    1.500    3.500    2.500 
#    0.000    0.625    0.000    3.750    0.000    0.000 
#    0.000    6.000    0.000    0.000    0.000    0.000 
#
# Total GULP energy -178341.955014 kJ/mol
# GULP energy per Si atom -5573.186094 kJ/mol
# Density = 2.160448 g / cm^3
# Si number density = 21.653764 Si / 1000 Ang^3
#
#
#
# Elastic Constant Matrix: (Units=GPa)
#
#
# Indices 1 2 3 4 5 6 
#
# 1 18.2871 11.3464 16.4354 0.0000 0.0000 0.0000
# 2 11.3464 108.7659 19.6216 0.0000 0.0000 0.0000
# 3 16.4354 19.6216 49.4811 0.0000 0.0000 0.0000
# 4 0.0000 0.0000 0.0000 12.8166 0.0000 0.0000
# 5 0.0000 0.0000 0.0000 0.0000 17.3250 0.0000
# 6 0.0000 0.0000 0.0000 0.0000 0.0000 18.9229
#
#
#
# Elastic Compliance Matrix: (Units=1/GPa)
#
#
# Indices 1 2 3 4 5 6 
#
# 1 0.079384 -0.003796 -0.024862 0.000000 0.000000 0.000000
# 2 -0.003796 0.010084 -0.002738 0.000000 0.000000 0.000000
# 3 -0.024862 -0.002738 0.029554 0.000000 0.000000 0.000000
# 4 0.000000 0.000000 0.000000 0.078024 0.000000 0.000000
# 5 0.000000 0.000000 0.000000 0.000000 0.057720 0.000000
# 6 0.000000 0.000000 0.000000 0.000000 0.000000 0.052846
#
#
# Mechanical properties :
#
#
# Convention : Reuss Voigt Hill
#
# Bulk Modulus (GPa) = 17.78459 30.14899 23.96679
# Shear Modulus (GPa) = 12.84862 18.42160 15.63511
#
# Velocity S-wave (km/s) = 2.43855 2.91990 2.69001
# Velocity P-wave (km/s) = 4.01992 5.03202 4.55417
#
# Compressibility (1/GPa) = 0.05622847
#
# Stress axis : x y z
#
# Youngs Moduli (GPa) = 12.59707 99.16714 33.83676
#
# Poissons Ratio (x) = 0.37644 0.84126
# Poissons Ratio (y) = 0.04782 0.09264
# Poissons Ratio (z) = 0.31319 0.27151
#
# Static dielectric constant tensor:
#      x y z
#    x 1.755510 0.000000 0.000000 
#    y 0.000000 1.837020 0.000000 
#    z 0.000000 0.000000 1.858630 
# 
# From -- ./inp_files/13673.got.cif
#   From: 2010.05.17/outbox.cif.g08.bks.cpg/sg21_7_cif.got.tgz:13673.got - 2010.06.03 23:14:55.
