data_PCOD9324081
_publ_section_title
;
Structure prediction by ZEFSAII (Michael W. Deem and Ramdas Pophale) SiO2 
 PCOD9324081
Probable space group: C 2 2 2
;
_chemical_formula_sum "Si O2"
_cell_formula_units_Z 38
_cell_length_a 15.229531
_cell_length_b 5.215608
_cell_length_c 21.493672
_cell_angle_alpha 90.000000
_cell_angle_beta 90.000000
_cell_angle_gamma 90.000000
_cell_volume 1707.269529
_symmetry_space_group_name_H-M "C 2 2 2"
_symmetry_group_IT_number 21
_symmetry_cell_setting 'orthorhombic'
loop_
_space_group_symop_operation_xyz
x,y,z
-x,-y,z
x,-y,-z
-x,y,-z
1/2+x,1/2+y,z
1/2-x,1/2-y,z
1/2+x,1/2-y,-z
1/2-x,1/2+y,-z
loop_
_atom_site_type_symbol
_atom_site_label
_atom_site_fract_x
_atom_site_fract_y
_atom_site_fract_z
Si Si1 0.250000 0.750000 0.457483
Si Si2 0.897473 0.994133 0.734856
Si Si3 0.500000 0.500000 0.500000
Si Si4 0.105399 0.497622 0.200419
Si Si5 0.418827 0.809039 0.389324
Si Si6 0.811285 0.501573 0.068319
O O1 0.277921 0.500000 0.500000
O O2 0.321953 0.888166 0.411909
O O3 0.856887 0.762836 0.773712
O O4 0.901514 0.903367 0.663623
O O5 0.861022 0.266595 0.755822
O O6 0.000000 0.000000 0.753657
O O7 0.450843 0.683940 0.452926
O O8 0.128028 0.473606 0.128320
O O9 0.000000 0.500000 0.206961
O O10 0.500000 0.000000 0.369575
O O11 0.750000 0.250000 0.073762
O O12 0.750000 0.750000 0.068681
O O13 0.855735 0.500000 0.000000
#
# Coordination Sequence:
#
# PCOD9324081 Si02
#       6
#     4   8   2   8   8   8
#     4  12  28  48  68 104 146 170 234 314 350 430
#     4  10  21  39  66  92 127 171 216 271 332 414
#     4  12  22  40  76  90 126 188 232 276 370 420
#     4  10  21  39  64  92 128 168 214 272 332 387
#     4  12  25  45  71 100 134 188 235 287 367 426
#     4  10  21  39  63  92 131 174 217 271 331 399
#
# _framework density 22.257763000000001
#
# number of rings (size 3 to 8) (size 9 to 14) (size 15 to 20)
#    0.000    1.263    2.105    4.737    0.000    0.421 
#    5.684    0.000    0.000    7.579    0.000    0.000 
#    0.000    0.000    0.000    0.000    0.000    0.000 
#
# Total GULP energy -105901.013340 kJ/mol
# GULP energy per Si atom -5573.737544 kJ/mol
# Density = 2.220710 g / cm^3
# Si number density = 22.257763 Si / 1000 Ang^3
#
#
#
# Elastic Constant Matrix: (Units=GPa)
#
#
# Indices 1 2 3 4 5 6 
#
# 1 62.8157 21.1053 22.0204 0.0000 0.0000 0.0000
# 2 21.1053 128.2442 59.3233 0.0000 0.0000 0.0000
# 3 22.0204 59.3233 169.3998 0.0000 0.0000 0.0000
# 4 0.0000 0.0000 0.0000 49.3481 0.0000 0.0000
# 5 0.0000 0.0000 0.0000 0.0000 84.3786 0.0000
# 6 0.0000 0.0000 0.0000 0.0000 0.0000 5.4953
#
#
#
# Elastic Compliance Matrix: (Units=1/GPa)
#
#
# Indices 1 2 3 4 5 6 
#
# 1 0.017157 -0.002138 -0.001481 0.000000 0.000000 0.000000
# 2 -0.002138 0.009571 -0.003074 0.000000 0.000000 0.000000
# 3 -0.001481 -0.003074 0.007172 0.000000 0.000000 0.000000
# 4 0.000000 0.000000 0.000000 0.020264 0.000000 0.000000
# 5 0.000000 0.000000 0.000000 0.000000 0.011851 0.000000
# 6 0.000000 0.000000 0.000000 0.000000 0.000000 0.181975
#
#
# Mechanical properties :
#
#
# Convention : Reuss Voigt Hill
#
# Bulk Modulus (GPa) = 48.74800 62.81752 55.78276
# Shear Modulus (GPa) = 18.64161 45.04511 31.84336
#
# Velocity S-wave (km/s) = 2.89716 4.50354 3.78651
# Velocity P-wave (km/s) = 5.75678 7.43818 6.65083
#
# Compressibility (1/GPa) = 0.02051366
#
# Stress axis : x y z
#
# Youngs Moduli (GPa) = 58.28399 104.47711 139.42616
#
# Poissons Ratio (x) = 0.22340 0.20656
# Poissons Ratio (y) = 0.12463 0.42859
# Poissons Ratio (z) = 0.08635 0.32116
#
# Static dielectric constant tensor:
#      x y z
#    x 1.879970 0.000000 0.000000 
#    y 0.000000 1.864390 0.000000 
#    z 0.000000 0.000000 1.808130 
# 
# From -- ./inp_files/36835.got.cif
#   From: 2010.05.17/outbox.cif.g08.bks.cpg/sg21_19_cif.got.tgz:36835.got - 2010.06.03 23:14:55.
