data_PCOD9324461
_publ_section_title
;
Structure prediction by ZEFSAII (Michael W. Deem and Ramdas Pophale) SiO2 
 PCOD9324461
Probable space group: C 2 2 2
;
_chemical_formula_sum "Si O2"
_cell_formula_units_Z 32
_cell_length_a 12.061516
_cell_length_b 11.380916
_cell_length_c 10.935099
_cell_angle_alpha 90.000000
_cell_angle_beta 90.000000
_cell_angle_gamma 90.000000
_cell_volume 1501.073073
_symmetry_space_group_name_H-M "C 2 2 2"
_symmetry_group_IT_number 21
_symmetry_cell_setting 'orthorhombic'
loop_
_space_group_symop_operation_xyz
x,y,z
-x,-y,z
x,-y,-z
-x,y,-z
1/2+x,1/2+y,z
1/2-x,1/2-y,z
1/2+x,1/2-y,-z
1/2-x,1/2+y,-z
loop_
_atom_site_type_symbol
_atom_site_label
_atom_site_fract_x
_atom_site_fract_y
_atom_site_fract_z
Si Si1 0.697952 0.000310 0.130110
Si Si2 0.973295 0.761538 0.633706
Si Si3 0.750000 0.750000 0.760338
Si Si4 0.000000 0.500000 0.690747
Si Si5 0.563476 0.377728 0.873903
O O1 0.726251 0.135910 0.158855
O O2 0.608785 0.967170 0.230902
O O3 0.807341 0.917531 0.116757
O O4 0.639996 0.000000 0.000000
O O5 0.849842 0.791174 0.675169
O O6 0.972848 0.620445 0.624112
O O7 0.000000 0.811981 0.500000
O O8 0.045638 0.800934 0.751813
O O9 0.500000 0.500000 0.850816
O O10 0.500000 0.332751 0.000000
#
# Coordination Sequence:
#
# PCOD9324461 Si02
#       5
#     8   8   4   4   8
#     4  11  21  40  63  93 129 166 210 263 319 380
#     4  11  24  43  65  92 128 169 217 257 319 375
#     4  10  22  40  62  88 128 170 204 270 318 374
#     4  10  26  40  58  94 131 172 209 256 319 380
#     4  11  21  41  68  96 124 160 211 267 316 364
#
# _framework density 21.318083000000001
#
# number of rings (size 3 to 8) (size 9 to 14) (size 15 to 20)
#    0.000    1.250    5.000    0.750    0.000    9.500 
#    0.000    2.500    0.000    0.000    0.000    0.000 
#    0.000    0.000    0.000    0.000    0.000    0.000 
#
# Total GULP energy -89169.612818 kJ/mol
# GULP energy per Si atom -5573.100801 kJ/mol
# Density = 2.126956 g / cm^3
# Si number density = 21.318083 Si / 1000 Ang^3
#
#
#
# Elastic Constant Matrix: (Units=GPa)
#
#
# Indices 1 2 3 4 5 6 
#
# 1 93.1372 -7.3627 26.4687 0.0000 0.0000 0.0000
# 2 -7.3627 40.2290 30.5994 0.0000 0.0000 0.0000
# 3 26.4687 30.5994 154.4524 0.0000 0.0000 0.0000
# 4 0.0000 0.0000 0.0000 48.0743 0.0000 0.0000
# 5 0.0000 0.0000 0.0000 0.0000 7.3933 0.0000
# 6 0.0000 0.0000 0.0000 0.0000 0.0000 -7.7419
#
#
#
# Elastic Compliance Matrix: (Units=1/GPa)
#
#
# Indices 1 2 3 4 5 6 
#
# 1 0.011912 0.004395 -0.002912 0.000000 0.000000 0.000000
# 2 0.004395 0.030890 -0.006873 0.000000 0.000000 0.000000
# 3 -0.002912 -0.006873 0.008335 0.000000 0.000000 0.000000
# 4 0.000000 0.000000 0.000000 0.020801 0.000000 0.000000
# 5 0.000000 0.000000 0.000000 0.000000 0.135259 0.000000
# 6 0.000000 0.000000 0.000000 0.000000 0.000000 -0.129167
#
#
# Mechanical properties :
#
#
# Convention : Reuss Voigt Hill
#
# Bulk Modulus (GPa) = 24.77881 43.02551 33.90216
# Shear Modulus (GPa) = 48.89417 25.41934 37.15675
#
# Velocity S-wave (km/s) = 4.79430 3.45684 4.17942
# Velocity P-wave (km/s) = 6.50352 6.01327 6.26319
#
# Compressibility (1/GPa) = 0.04035706
#
# Stress axis : x y z
#
# Youngs Moduli (GPa) = 83.94979 32.37308 119.97347
#
# Poissons Ratio (x) = -0.14228 0.34937
# Poissons Ratio (y) = -0.36897 0.82457
# Poissons Ratio (z) = 0.24447 0.22250
#
# Static dielectric constant tensor:
#      x y z
#    x 1.778070 0.000000 0.000000 
#    y 0.000000 1.902810 0.000000 
#    z 0.000000 0.000000 1.838250 
# 
# From -- ./inp_files/14144.got.cif
#   From: 2010.05.17/outbox.cif.g08.bks.cpg/sg21_8_cif.got.tgz:14144.got - 2010.06.03 23:14:55.
