data_PCOD9325484
_publ_section_title
;
Structure prediction by ZEFSAII (Michael W. Deem and Ramdas Pophale) SiO2 
 PCOD9325484
Probable space group: C 2 2 2
;
_chemical_formula_sum "Si O2"
_cell_formula_units_Z 18
_cell_length_a 7.446355
_cell_length_b 12.020983
_cell_length_c 7.131984
_cell_angle_alpha 90.000000
_cell_angle_beta 90.000000
_cell_angle_gamma 90.000000
_cell_volume 638.401767
_symmetry_space_group_name_H-M "C 2 2 2"
_symmetry_group_IT_number 21
_symmetry_cell_setting 'orthorhombic'
loop_
_space_group_symop_operation_xyz
x,y,z
-x,-y,z
x,-y,-z
-x,y,-z
1/2+x,1/2+y,z
1/2-x,1/2-y,z
1/2+x,1/2-y,-z
1/2-x,1/2+y,-z
loop_
_atom_site_type_symbol
_atom_site_label
_atom_site_fract_x
_atom_site_fract_y
_atom_site_fract_z
Si Si1 0.421251 0.674623 0.703876
Si Si2 0.749174 0.054629 0.198268
Si Si3 0.500000 0.000000 0.500000
O O1 0.500000 0.699467 0.500000
O O2 0.250000 0.750000 0.758238
O O3 0.335529 0.551730 0.698715
O O4 0.602734 0.651139 0.825571
O O5 0.594940 0.081497 0.346512
O O6 0.697032 0.000000 0.000000
#
# Coordination Sequence:
#
# PCOD9325484 Si02
#       3
#     8   8   2
#     4  11  23  44  76 112 156 209 264 327 396 478
#     4  11  24  49  80 111 158 213 264 332 406 471
#     4  12  22  46  80 110 154 214 258 314 412 474
#
# _framework density 28.195412999999999
#
# number of rings (size 3 to 8) (size 9 to 14) (size 15 to 20)
#    0.000    0.889    4.444    4.667    3.111    0.000 
#    0.000   17.778    0.000    0.000    0.000    0.000 
#    0.000    0.000    0.000    0.000    0.000    0.000 
#
# Total GULP energy -50260.765160 kJ/mol
# GULP energy per Si atom -5584.529462 kJ/mol
# Density = 2.813124 g / cm^3
# Si number density = 28.195413 Si / 1000 Ang^3
#
#
#
# Elastic Constant Matrix: (Units=GPa)
#
#
# Indices 1 2 3 4 5 6 
#
# 1 188.9804 65.0268 107.3209 0.0000 0.0000 0.0000
# 2 65.0268 114.4037 39.0411 0.0000 0.0000 0.0000
# 3 107.3209 39.0411 245.5719 0.0000 0.0000 0.0000
# 4 0.0000 0.0000 0.0000 25.9036 0.0000 0.0000
# 5 0.0000 0.0000 0.0000 0.0000 36.1502 0.0000
# 6 0.0000 0.0000 0.0000 0.0000 0.0000 45.5372
#
#
#
# Elastic Compliance Matrix: (Units=1/GPa)
#
#
# Indices 1 2 3 4 5 6 
#
# 1 0.008277 -0.003669 -0.003034 0.000000 0.000000 0.000000
# 2 -0.003669 0.010869 -0.000124 0.000000 0.000000 0.000000
# 3 -0.003034 -0.000124 0.005418 0.000000 0.000000 0.000000
# 4 0.000000 0.000000 0.000000 0.038605 0.000000 0.000000
# 5 0.000000 0.000000 0.000000 0.000000 0.027662 0.000000
# 6 0.000000 0.000000 0.000000 0.000000 0.000000 0.021960
#
#
# Mechanical properties :
#
#
# Convention : Reuss Voigt Hill
#
# Bulk Modulus (GPa) = 91.67027 107.97038 99.82032
# Shear Modulus (GPa) = 38.43711 44.02268 41.22990
#
# Velocity S-wave (km/s) = 3.69621 3.95567 3.82814
# Velocity P-wave (km/s) = 7.12734 7.69674 7.41751
#
# Compressibility (1/GPa) = 0.01090866
#
# Stress axis : x y z
#
# Youngs Moduli (GPa) = 120.81521 92.00431 184.57647
#
# Poissons Ratio (x) = 0.33759 0.55999
# Poissons Ratio (y) = 0.44331 0.02296
# Poissons Ratio (z) = 0.36655 0.01144
#
# Static dielectric constant tensor:
#      x y z
#    x 2.774470 0.000000 0.000000 
#    y 0.000000 2.139100 0.000000 
#    z 0.000000 0.000000 2.231820 
# 
# From -- ./inp_files/9552.got.cif
#   From: 2010.05.17/outbox.cif.g08.bks.cpg/sg21_5_cif.got.tgz:9552.got - 2010.06.03 23:14:55.
