data_PCOD9325643
_publ_section_title
;
Structure prediction by ZEFSAII (Michael W. Deem and Ramdas Pophale) SiO2 
 PCOD9325643
Probable space group: C 2 2 2
;
_chemical_formula_sum "Si O2"
_cell_formula_units_Z 20
_cell_length_a 12.718670
_cell_length_b 7.235078
_cell_length_c 9.460126
_cell_angle_alpha 90.000000
_cell_angle_beta 90.000000
_cell_angle_gamma 90.000000
_cell_volume 870.526182
_symmetry_space_group_name_H-M "C 2 2 2"
_symmetry_group_IT_number 21
_symmetry_cell_setting 'orthorhombic'
loop_
_space_group_symop_operation_xyz
x,y,z
-x,-y,z
x,-y,-z
-x,y,-z
1/2+x,1/2+y,z
1/2-x,1/2-y,z
1/2+x,1/2-y,-z
1/2-x,1/2+y,-z
loop_
_atom_site_type_symbol
_atom_site_label
_atom_site_fract_x
_atom_site_fract_y
_atom_site_fract_z
Si Si1 0.725919 0.540812 0.837210
Si Si2 0.405952 0.111108 0.352025
Si Si3 0.000000 0.000000 0.715610
O O1 0.750000 0.750000 0.798060
O O2 0.801274 0.416763 0.738757
O O3 0.601719 0.533401 0.811149
O O4 0.750401 0.500000 0.000000
O O5 0.452805 0.318586 0.365727
O O6 0.500000 0.000000 0.275784
O O7 0.389451 0.000000 0.500000
#
# Coordination Sequence:
#
# PCOD9325643 Si02
#       3
#     8   8   4
#     4  12  26  48  78 113 153 197 256 315 378 457
#     4  11  26  50  75 112 150 200 252 311 379 451
#     4  12  25  51  78 110 153 203 250 316 383 449
#
# _framework density 22.974609999999998
#
# number of rings (size 3 to 8) (size 9 to 14) (size 15 to 20)
#    0.000    0.400    4.000    4.200    0.000    7.200 
#    0.000    0.000    0.000    0.000    0.000    0.000 
#    0.000    0.000    0.000    0.000    0.000    0.000 
#
# Total GULP energy -55767.392959 kJ/mol
# GULP energy per Si atom -5576.739296 kJ/mol
# Density = 2.292232 g / cm^3
# Si number density = 22.974610 Si / 1000 Ang^3
#
#
#
# Elastic Constant Matrix: (Units=GPa)
#
#
# Indices 1 2 3 4 5 6 
#
# 1 219.4009 67.2634 75.0319 0.0000 0.0000 0.0000
# 2 67.2634 195.0364 55.0547 0.0000 0.0000 0.0000
# 3 75.0319 55.0547 129.0654 0.0000 0.0000 0.0000
# 4 0.0000 0.0000 0.0000 26.8536 0.0000 0.0000
# 5 0.0000 0.0000 0.0000 0.0000 -18.1634 0.0000
# 6 0.0000 0.0000 0.0000 0.0000 0.0000 12.1009
#
#
#
# Elastic Compliance Matrix: (Units=1/GPa)
#
#
# Indices 1 2 3 4 5 6 
#
# 1 0.005933 -0.001219 -0.002929 0.000000 0.000000 0.000000
# 2 -0.001219 0.006080 -0.001884 0.000000 0.000000 0.000000
# 3 -0.002929 -0.001884 0.010255 0.000000 0.000000 0.000000
# 4 0.000000 0.000000 0.000000 0.037239 0.000000 0.000000
# 5 0.000000 0.000000 0.000000 0.000000 -0.055056 0.000000
# 6 0.000000 0.000000 0.000000 0.000000 0.000000 0.082638
#
#
# Mechanical properties :
#
#
# Convention : Reuss Voigt Hill
#
# Bulk Modulus (GPa) = 98.02329 104.24476 101.13403
# Shear Modulus (GPa) = 48.75374 27.23508 37.99441
#
# Velocity S-wave (km/s) = 4.61159 3.44676 4.07105
# Velocity P-wave (km/s) = 8.43293 7.83024 8.13716
#
# Compressibility (1/GPa) = 0.01020166
#
# Stress axis : x y z
#
# Youngs Moduli (GPa) = 168.53514 164.48025 97.51559
#
# Poissons Ratio (x) = 0.20058 0.28565
# Poissons Ratio (y) = 0.20552 0.18377
# Poissons Ratio (z) = 0.49368 0.30996
#
# Static dielectric constant tensor:
#      x y z
#    x 1.814320 0.000000 0.000000 
#    y 0.000000 2.063330 0.000000 
#    z 0.000000 0.000000 1.860240 
# 
# From -- ./inp_files/11738.got.cif
#   From: 2010.05.17/outbox.cif.g08.bks.cpg/sg21_6_cif.got.tgz:11738.got - 2010.06.03 23:14:55.
