data_PCOD9325193
_publ_section_title
;
Structure prediction by ZEFSAII (Michael W. Deem and Ramdas Pophale) SiO2 
 PCOD9325193
Probable space group: C 2 2 2
;
_chemical_formula_sum "Si O2"
_cell_formula_units_Z 64
_cell_length_a 8.435454
_cell_length_b 25.282924
_cell_length_c 14.163410
_cell_angle_alpha 90.000000
_cell_angle_beta 90.000000
_cell_angle_gamma 90.000000
_cell_volume 3020.672125
_symmetry_space_group_name_H-M "C 2 2 2"
_symmetry_group_IT_number 21
_symmetry_cell_setting 'orthorhombic'
loop_
_space_group_symop_operation_xyz
x,y,z
-x,-y,z
x,-y,-z
-x,y,-z
1/2+x,1/2+y,z
1/2-x,1/2-y,z
1/2+x,1/2-y,-z
1/2-x,1/2+y,-z
loop_
_atom_site_type_symbol
_atom_site_label
_atom_site_fract_x
_atom_site_fract_y
_atom_site_fract_z
Si Si1 0.193752 0.193880 0.732158
Si Si2 0.816377 0.612060 0.882939
Si Si3 0.382074 0.099478 0.238930
Si Si4 0.824826 0.530001 0.585857
Si Si5 0.810471 0.991451 0.789887
Si Si6 0.332445 0.696618 0.748579
Si Si7 0.183876 0.807081 0.975143
Si Si8 0.088891 0.360495 0.588116
O O1 0.250000 0.250000 0.771762
O O2 0.221512 0.148123 0.808017
O O3 0.301947 0.180042 0.643188
O O4 0.009702 0.196725 0.712639
O O5 0.753552 0.552154 0.865558
O O6 0.998338 0.613812 0.847021
O O7 0.779319 0.643394 0.979748
O O8 0.254366 0.142344 0.271335
O O9 0.495701 0.105557 0.330526
O O10 0.291796 0.045895 0.209831
O O11 0.742460 0.500000 0.500000
O O12 0.733132 0.529413 0.684921
O O13 0.824318 0.589239 0.544884
O O14 0.000000 0.500000 0.597264
O O15 0.000000 0.000000 0.800954
O O16 0.250000 0.750000 0.713523
O O17 0.318065 0.696317 0.862356
O O18 0.250000 0.750000 0.009147
O O19 0.000000 0.813204 0.000000
O O20 0.000000 0.334937 0.500000
#
# Coordination Sequence:
#
# PCOD9325193 Si02
#       8
#     8   8   8   8   8   8   8   8
#     4  11  22  40  66  95 132 177 223 271 348 413
#     4  11  22  41  65  93 133 176 223 274 349 412
#     4  11  23  39  67  93 131 177 227 272 337 411
#     4  11  18  36  62  92 126 164 216 272 332 395
#     4  12  23  38  62  95 132 177 223 279 340 403
#     4  11  24  42  66 100 131 169 227 289 339 407
#     4  11  25  40  69 101 135 166 224 291 346 395
#     4  11  21  39  67  95 130 173 226 274 340 404
#
# _framework density 21.187336999999999
#
# number of rings (size 3 to 8) (size 9 to 14) (size 15 to 20)
#    0.000    0.875    6.250    3.000    3.500    0.250 
#    0.000    3.125    0.000    1.500    0.000    0.000 
#    0.000    0.000    0.000    0.000    0.000    0.000 
#
# Total GULP energy -178359.186764 kJ/mol
# GULP energy per Si atom -5573.724586 kJ/mol
# Density = 2.113911 g / cm^3
# Si number density = 21.187337 Si / 1000 Ang^3
#
#
#
# Elastic Constant Matrix: (Units=GPa)
#
#
# Indices 1 2 3 4 5 6 
#
# 1 107.4081 40.3559 11.5211 0.0000 0.0000 0.0000
# 2 40.3559 117.7430 6.4464 0.0000 0.0000 0.0000
# 3 11.5211 6.4464 62.9460 0.0000 0.0000 0.0000
# 4 0.0000 0.0000 0.0000 1.5354 0.0000 0.0000
# 5 0.0000 0.0000 0.0000 0.0000 34.1813 0.0000
# 6 0.0000 0.0000 0.0000 0.0000 0.0000 36.1325
#
#
#
# Elastic Compliance Matrix: (Units=1/GPa)
#
#
# Indices 1 2 3 4 5 6 
#
# 1 0.010847 -0.003629 -0.001614 0.000000 0.000000 0.000000
# 2 -0.003629 0.009755 -0.000335 0.000000 0.000000 0.000000
# 3 -0.001614 -0.000335 0.016216 0.000000 0.000000 0.000000
# 4 0.000000 0.000000 0.000000 0.651279 0.000000 0.000000
# 5 0.000000 0.000000 0.000000 0.000000 0.029256 0.000000
# 6 0.000000 0.000000 0.000000 0.000000 0.000000 0.027676
#
#
# Mechanical properties :
#
#
# Convention : Reuss Voigt Hill
#
# Bulk Modulus (GPa) = 38.96663 44.97155 41.96909
# Shear Modulus (GPa) = 6.53818 29.68809 18.11313
#
# Velocity S-wave (km/s) = 1.75858 3.74735 2.92705
# Velocity P-wave (km/s) = 4.74919 6.32418 5.59241
#
# Compressibility (1/GPa) = 0.02566299
#
# Stress axis : x y z
#
# Youngs Moduli (GPa) = 92.19112 102.50767 61.66645
#
# Poissons Ratio (x) = 0.37204 0.09951
# Poissons Ratio (y) = 0.33460 0.02064
# Poissons Ratio (z) = 0.14876 0.03432
#
# Static dielectric constant tensor:
#      x y z
#    x 2.205180 0.000000 0.000000 
#    y 0.000000 1.785690 0.000000 
#    z 0.000000 0.000000 1.755080 
# 
# From -- ./inp_files/30909.got.cif
#   From: 2010.05.17/outbox.cif.g08.bks.cpg/sg21_16_cif.got.tgz:30909.got - 2010.06.03 23:14:55.
