data_PCOD9325978
_publ_section_title
;
Structure prediction by ZEFSAII (Michael W. Deem and Ramdas Pophale) SiO2 
 PCOD9325978
Probable space group: F 2 2 2
;
_chemical_formula_sum "Si O2"
_cell_formula_units_Z 116
_cell_length_a 15.225365
_cell_length_b 27.125532
_cell_length_c 15.094319
_cell_angle_alpha 90.000000
_cell_angle_beta 90.000000
_cell_angle_gamma 90.000000
_cell_volume 6233.895264
_symmetry_space_group_name_H-M "F 2 2 2"
_symmetry_group_IT_number 22
_symmetry_cell_setting 'orthorhombic'
loop_
_space_group_symop_operation_xyz
x,y,z
-x,-y,z
x,-y,-z
-x,y,-z
x,1/2+y,1/2+z
-x,1/2-y,1/2+z
x,1/2-y,1/2-z
-x,1/2+y,1/2-z
1/2+x,y,1/2+z
1/2-x,-y,1/2+z
1/2+x,-y,1/2-z
1/2-x,y,1/2-z
1/2+x,1/2+y,z
1/2-x,1/2-y,z
1/2+x,1/2-y,-z
1/2-x,1/2+y,-z
loop_
_atom_site_type_symbol
_atom_site_label
_atom_site_fract_x
_atom_site_fract_y
_atom_site_fract_z
Si Si1 0.796650 0.303864 0.913016
Si Si2 0.175304 0.169787 0.621500
Si Si3 0.750000 0.250000 0.250000
Si Si4 0.127507 0.641950 0.602420
Si Si5 0.498395 0.056044 0.392125
Si Si6 0.520168 0.780883 0.659796
Si Si7 0.857370 0.866526 0.889210
Si Si8 0.006036 0.680047 0.903107
O O1 0.750000 0.250000 0.901868
O O2 0.726641 0.343024 0.875593
O O3 0.893525 0.314009 0.872243
O O4 0.812674 0.313060 0.018533
O O5 0.195907 0.215279 0.684674
O O6 0.254654 0.131174 0.632651
O O7 0.075779 0.153797 0.644911
O O8 0.085637 0.590025 0.632024
O O9 0.126977 0.641356 0.494776
O O10 0.062734 0.684680 0.637217
O O11 0.500000 0.054350 0.500000
O O12 0.584180 0.086794 0.363669
O O13 0.500000 0.000000 0.359972
O O14 0.509756 0.750000 0.750000
O O15 0.602098 0.817372 0.653829
O O16 0.526837 0.736661 0.590223
O O17 0.000000 0.656879 0.000000
#
# Coordination Sequence:
#
# PCOD9325978 Si02
#       8
#    16  16   4  16  16  16  16  16
#     4  10  17  32  46  60  84 134 181 192 219 286
#     4  10  21  28  41  64  91 130 163 199 235 280
#     4  12  20  28  44  64 106 128 162 208 240 280
#     4   9  17  31  47  65  95 131 164 194 241 295
#     4   8  14  27  49  75  96 115 149 208 261 298
#     4  11  20  26  39  64  95 128 159 193 231 271
#     4   9  18  30  45  65  97 129 160 189 247 305
#     4  10  20  31  43  56  84 131 174 192 217 280
#
# _framework density 18.607948
#
# number of rings (size 3 to 8) (size 9 to 14) (size 15 to 20)
#    0.000    2.345    2.069    2.897    7.724    0.000 
#    0.000    1.379    0.000    0.000    0.000    0.966 
#    8.276    7.724    0.000    0.000    0.000   68.414 
#
# Total GULP energy -161519.402031 kJ/mol
# GULP energy per Si atom -5569.634553 kJ/mol
# Density = 1.856560 g / cm^3
# Si number density = 18.607948 Si / 1000 Ang^3
#
#
#
# Elastic Constant Matrix: (Units=GPa)
#
#
# Indices 1 2 3 4 5 6 
#
# 1 199.1851 61.9556 7.4660 0.0000 0.0000 0.0000
# 2 61.9556 101.3895 5.2618 0.0000 0.0000 0.0000
# 3 7.4660 5.2618 35.7745 0.0000 0.0000 0.0000
# 4 0.0000 0.0000 0.0000 10.6377 0.0000 0.0000
# 5 0.0000 0.0000 0.0000 0.0000 14.9051 0.0000
# 6 0.0000 0.0000 0.0000 0.0000 0.0000 14.1002
#
#
#
# Elastic Compliance Matrix: (Units=1/GPa)
#
#
# Indices 1 2 3 4 5 6 
#
# 1 0.006218 -0.003761 -0.000745 0.000000 0.000000 0.000000
# 2 -0.003761 0.012214 -0.001011 0.000000 0.000000 0.000000
# 3 -0.000745 -0.001011 0.028257 0.000000 0.000000 0.000000
# 4 0.000000 0.000000 0.000000 0.094005 0.000000 0.000000
# 5 0.000000 0.000000 0.000000 0.000000 0.067091 0.000000
# 6 0.000000 0.000000 0.000000 0.000000 0.000000 0.070921
#
#
# Mechanical properties :
#
#
# Convention : Reuss Voigt Hill
#
# Bulk Modulus (GPa) = 28.04679 53.96844 41.00761
# Shear Modulus (GPa) = 16.57686 25.37300 20.97493
#
# Velocity S-wave (km/s) = 2.98795 3.69664 3.36103
# Velocity P-wave (km/s) = 5.19702 6.87649 6.09488
#
# Compressibility (1/GPa) = 0.03565471
#
# Stress axis : x y z
#
# Youngs Moduli (GPa) = 160.81728 81.87511 35.38948
#
# Poissons Ratio (x) = 0.30794 0.02635
# Poissons Ratio (y) = 0.60485 0.03580
# Poissons Ratio (z) = 0.11973 0.08282
#
# Static dielectric constant tensor:
#      x y z
#    x 1.768540 0.000000 0.000000 
#    y 0.000000 1.608000 0.000000 
#    z 0.000000 0.000000 1.725560 
# 
# From -- ./inp_files/37428.got.cif
#   From: 2010.05.17/outbox.cif.g08.bks.cpg/sg22_19_cif.got.tgz:37428.got - 2010.06.03 23:40:54.
