data_PCOD9325684
_publ_section_title
;
Structure prediction by ZEFSAII (Michael W. Deem and Ramdas Pophale) SiO2 
 PCOD9325684
Probable space group: C 2 2 2
;
_chemical_formula_sum "Si O2"
_cell_formula_units_Z 40
_cell_length_a 7.563070
_cell_length_b 25.722116
_cell_length_c 8.137583
_cell_angle_alpha 90.000000
_cell_angle_beta 90.000000
_cell_angle_gamma 90.000000
_cell_volume 1583.070455
_symmetry_space_group_name_H-M "C 2 2 2"
_symmetry_group_IT_number 21
_symmetry_cell_setting 'orthorhombic'
loop_
_space_group_symop_operation_xyz
x,y,z
-x,-y,z
x,-y,-z
-x,y,-z
1/2+x,1/2+y,z
1/2-x,1/2-y,z
1/2+x,1/2-y,-z
1/2-x,1/2+y,-z
loop_
_atom_site_type_symbol
_atom_site_label
_atom_site_fract_x
_atom_site_fract_y
_atom_site_fract_z
Si Si1 0.785346 0.500591 0.194405
Si Si2 0.918055 0.785180 0.173032
Si Si3 0.351017 0.206240 0.612065
Si Si4 0.274009 0.113645 0.191275
Si Si5 0.201604 0.388236 0.799285
O O1 0.721521 0.556451 0.257301
O O2 0.734541 0.444357 0.264351
O O3 0.000000 0.500000 0.203328
O O4 0.740784 0.500000 0.000000
O O5 0.750000 0.750000 0.130298
O O6 0.837030 0.837520 0.255879
O O7 0.052134 0.744777 0.259809
O O8 0.000000 0.801257 0.000000
O O9 0.500000 0.181299 0.500000
O O10 0.250000 0.250000 0.506119
O O11 0.237765 0.161703 0.697764
O O12 0.486935 0.116831 0.212272
O O13 0.254421 0.113825 0.992217
#
# Coordination Sequence:
#
# PCOD9325684 Si02
#       5
#     8   8   8   8   8
#     4   7  12  24  49  83 113 141 179 232 286 333
#     4  12  22  35  57  88 124 161 201 246 298 359
#     4  12  26  41  57  82 116 162 205 252 305 360
#     4   9  16  29  56  88 117 145 187 240 292 343
#     4   9  16  32  55  84 116 149 189 240 286 348
#
# _framework density 25.267355999999999
#
# number of rings (size 3 to 8) (size 9 to 14) (size 15 to 20)
#    0.000    2.200    2.000    6.000    0.000    0.000 
#    0.000    0.000    0.000   19.200    0.000    1.400 
#    0.000    0.000    0.000    0.000    0.000    0.000 
#
# Total GULP energy -111678.954284 kJ/mol
# GULP energy per Si atom -5583.947714 kJ/mol
# Density = 2.520985 g / cm^3
# Si number density = 25.267356 Si / 1000 Ang^3
#
#
#
# Elastic Constant Matrix: (Units=GPa)
#
#
# Indices 1 2 3 4 5 6 
#
# 1 72.9392 38.9601 -1.8787 0.0000 0.0000 0.0000
# 2 38.9601 262.5610 32.3851 0.0000 0.0000 0.0000
# 3 -1.8787 32.3851 40.6797 0.0000 0.0000 0.0000
# 4 0.0000 0.0000 0.0000 16.2368 0.0000 0.0000
# 5 0.0000 0.0000 0.0000 0.0000 15.9212 0.0000
# 6 0.0000 0.0000 0.0000 0.0000 0.0000 23.8284
#
#
#
# Elastic Compliance Matrix: (Units=1/GPa)
#
#
# Indices 1 2 3 4 5 6 
#
# 1 0.015165 -0.002591 0.002763 0.000000 0.000000 0.000000
# 2 -0.002591 0.004666 -0.003834 0.000000 0.000000 0.000000
# 3 0.002763 -0.003834 0.027762 0.000000 0.000000 0.000000
# 4 0.000000 0.000000 0.000000 0.061589 0.000000 0.000000
# 5 0.000000 0.000000 0.000000 0.000000 0.062809 0.000000
# 6 0.000000 0.000000 0.000000 0.000000 0.000000 0.041967
#
#
# Mechanical properties :
#
#
# Convention : Reuss Voigt Hill
#
# Bulk Modulus (GPa) = 24.83291 57.23478 41.03384
# Shear Modulus (GPa) = 21.30324 31.64483 26.47403
#
# Velocity S-wave (km/s) = 2.90679 3.54277 3.24042
# Velocity P-wave (km/s) = 4.59514 6.27979 5.50232
#
# Compressibility (1/GPa) = 0.04026915
#
# Stress axis : x y z
#
# Youngs Moduli (GPa) = 65.94025 214.31376 36.01997
#
# Poissons Ratio (x) = 0.55531 -0.09953
# Poissons Ratio (y) = 0.17086 0.13811
# Poissons Ratio (z) = -0.18220 0.82175
#
# Static dielectric constant tensor:
#      x y z
#    x 2.126180 0.000000 0.000000 
#    y 0.000000 2.051540 0.000000 
#    z 0.000000 0.000000 1.958330 
# 
# From -- ./inp_files/10916.got.cif
#   From: 2010.05.17/outbox.cif.g08.bks.cpg/sg21_6_cif.got.tgz:10916.got - 2010.06.03 23:14:55.
