data_PCOD9325931
_publ_section_title
;
Structure prediction by ZEFSAII (Michael W. Deem and Ramdas Pophale) SiO2 
 PCOD9325931
Probable space group: F 2 2 2
;
_chemical_formula_sum "Si O2"
_cell_formula_units_Z 104
_cell_length_a 23.448019
_cell_length_b 8.135615
_cell_length_c 29.850504
_cell_angle_alpha 90.000000
_cell_angle_beta 90.000000
_cell_angle_gamma 90.000000
_cell_volume 5694.403190
_symmetry_space_group_name_H-M "F 2 2 2"
_symmetry_group_IT_number 22
_symmetry_cell_setting 'orthorhombic'
loop_
_space_group_symop_operation_xyz
x,y,z
-x,-y,z
x,-y,-z
-x,y,-z
x,1/2+y,1/2+z
-x,1/2-y,1/2+z
x,1/2-y,1/2-z
-x,1/2+y,1/2-z
1/2+x,y,1/2+z
1/2-x,-y,1/2+z
1/2+x,-y,1/2-z
1/2-x,y,1/2-z
1/2+x,1/2+y,z
1/2-x,1/2-y,z
1/2+x,1/2-y,-z
1/2-x,1/2+y,-z
loop_
_atom_site_type_symbol
_atom_site_label
_atom_site_fract_x
_atom_site_fract_y
_atom_site_fract_z
Si Si1 0.540535 0.763682 0.158106
Si Si2 0.897918 0.288660 0.059421
Si Si3 0.583641 0.897681 0.431630
Si Si4 0.089795 0.613191 0.158234
Si Si5 0.408316 0.250000 0.750000
Si Si6 0.000000 0.280049 0.000000
Si Si7 0.500000 0.000000 0.274571
Si Si8 0.313274 0.809571 0.514759
O O1 0.560575 0.664815 0.115050
O O2 0.475244 0.822161 0.151922
O O3 0.534856 0.633614 0.197490
O O4 0.581498 0.918617 0.166467
O O5 0.884674 0.361169 0.108355
O O6 0.911477 0.094245 0.066414
O O7 0.954319 0.363354 0.034591
O O8 0.845153 0.291779 0.024762
O O9 0.540925 0.830961 0.469371
O O10 0.644040 0.813775 0.443250
O O11 0.117735 0.717657 0.199961
O O12 0.451480 0.096878 0.750741
O O13 0.250000 0.750000 0.523617
O O14 0.311015 0.000000 0.500000
#
# Coordination Sequence:
#
# PCOD9325931 Si02
#       8
#    16  16  16  16   8   8   8  16
#     4  10  19  29  44  68  97 128 162 198 239 291
#     4  10  18  31  49  71  95 129 167 201 242 298
#     4  10  17  29  48  70  93 130 165 197 240 294
#     4  10  20  30  43  69 100 127 164 198 244 293
#     4  10  18  30  46  64  91 134 163 200 238 286
#     4  10  17  26  49  70  93 125 164 195 246 287
#     4  10  18  30  46  63  94 131 170 196 238 288
#     4   9  20  34  50  70  95 131 171 205 245 293
#
# _framework density 18.263548
#
# number of rings (size 3 to 8) (size 9 to 14) (size 15 to 20)
#    0.000    2.154    1.538    6.000    0.000    1.231 
#    0.000    3.077    0.000    0.000    0.000    0.538 
#    0.000    0.000    0.000   27.846    0.000    0.000 
#
# Total GULP energy -144914.150804 kJ/mol
# GULP energy per Si atom -5573.621185 kJ/mol
# Density = 1.822198 g / cm^3
# Si number density = 18.263548 Si / 1000 Ang^3
#
#
#
# Elastic Constant Matrix: (Units=GPa)
#
#
# Indices 1 2 3 4 5 6 
#
# 1 72.1962 9.5856 17.4641 0.0000 0.0000 0.0001
# 2 9.5856 43.6154 14.0317 0.0000 0.0000 0.0006
# 3 17.4641 14.0317 95.2172 0.0000 0.0000 -0.0001
# 4 0.0000 0.0000 0.0000 23.6136 0.0000 0.0000
# 5 0.0000 0.0000 0.0000 0.0000 12.1362 0.0000
# 6 0.0001 0.0006 -0.0001 0.0000 0.0000 19.1376
#
#
#
# Elastic Compliance Matrix: (Units=1/GPa)
#
#
# Indices 1 2 3 4 5 6 
#
# 1 0.014747 -0.002489 -0.002338 0.000000 0.000000 0.000000
# 2 -0.002489 0.024489 -0.003152 0.000000 0.000000 -0.000001
# 3 -0.002338 -0.003152 0.011396 0.000000 0.000000 0.000000
# 4 0.000000 0.000000 0.000000 0.042348 0.000000 0.000000
# 5 0.000000 0.000000 0.000000 0.000000 0.082398 0.000000
# 6 0.000000 -0.000001 0.000000 0.000000 0.000000 0.052253
#
#
# Mechanical properties :
#
#
# Convention : Reuss Voigt Hill
#
# Bulk Modulus (GPa) = 28.84074 32.57685 30.70879
# Shear Modulus (GPa) = 19.59649 22.30731 20.95190
#
# Velocity S-wave (km/s) = 3.27920 3.49866 3.39071
# Velocity P-wave (km/s) = 5.49210 5.84779 5.67274
#
# Compressibility (1/GPa) = 0.03467317
#
# Stress axis : x y z
#
# Youngs Moduli (GPa) = 67.80968 40.83500 87.75261
#
# Poissons Ratio (x) = 0.10163 0.20517
# Poissons Ratio (y) = 0.16877 0.27662
# Poissons Ratio (z) = 0.15854 0.12872
#
# Static dielectric constant tensor:
#      x y z
#    x 1.610040 0.000000 0.000000 
#    y 0.000000 1.709160 0.000000 
#    z 0.000000 0.000000 1.715790 
# 
# From -- ./inp_files/57172.got.cif
#   From: 2010.05.17/outbox.cif.g08.bks.cpg/sg22_29_cif.got.tgz:57172.got - 2010.06.03 23:40:54.
