data_PCOD9325197
_publ_section_title
;
Structure prediction by ZEFSAII (Michael W. Deem and Ramdas Pophale) SiO2 
 PCOD9325197
Probable space group: C 2 2 2
;
_chemical_formula_sum "Si O2"
_cell_formula_units_Z 40
_cell_length_a 14.169707
_cell_length_b 18.129258
_cell_length_c 9.173156
_cell_angle_alpha 90.000000
_cell_angle_beta 90.000000
_cell_angle_gamma 90.000000
_cell_volume 2356.457866
_symmetry_space_group_name_H-M "C 2 2 2"
_symmetry_group_IT_number 21
_symmetry_cell_setting 'orthorhombic'
loop_
_space_group_symop_operation_xyz
x,y,z
-x,-y,z
x,-y,-z
-x,y,-z
1/2+x,1/2+y,z
1/2-x,1/2-y,z
1/2+x,1/2-y,-z
1/2-x,1/2+y,-z
loop_
_atom_site_type_symbol
_atom_site_label
_atom_site_fract_x
_atom_site_fract_y
_atom_site_fract_z
Si Si1 0.399130 0.326161 0.575622
Si Si2 0.346232 0.210594 0.354290
Si Si3 0.402585 0.461697 0.156958
Si Si4 0.255314 0.432717 0.407263
Si Si5 0.986627 0.200375 0.839777
O O1 0.500000 0.344434 0.500000
O O2 0.367233 0.246804 0.512375
O O3 0.325163 0.384658 0.512147
O O4 0.420692 0.321909 0.746659
O O5 0.250000 0.250000 0.301397
O O6 0.324067 0.124763 0.356932
O O7 0.430136 0.240655 0.255749
O O8 0.500000 0.500000 0.211725
O O9 0.318802 0.463382 0.273987
O O10 0.427474 0.375246 0.140714
O O11 0.382614 0.500000 0.000000
O O12 0.216739 0.500000 0.500000
O O13 0.000000 0.230607 0.000000
#
# Coordination Sequence:
#
# PCOD9325197 Si02
#       5
#     8   8   8   8   8
#     4   9  17  32  54  76 102 140 188 218 265 330
#     4   9  18  36  52  74 110 147 184 223 270 326
#     4  11  20  29  47  81 121 139 172 209 280 344
#     4  11  21  32  54  79 113 145 178 232 277 318
#     4  11  19  33  54  80 110 146 183 224 269 336
#
# _framework density 16.974630000000001
#
# number of rings (size 3 to 8) (size 9 to 14) (size 15 to 20)
#    0.000    1.800    8.000    1.200    0.000    0.000 
#    0.000    5.000    0.000    5.400    0.000    1.400 
#    0.000    0.000    0.000    0.000    0.000    0.000 
#
# Total GULP energy -111431.266066 kJ/mol
# GULP energy per Si atom -5571.563303 kJ/mol
# Density = 1.693600 g / cm^3
# Si number density = 16.974630 Si / 1000 Ang^3
#
#
#
# Elastic Constant Matrix: (Units=GPa)
#
#
# Indices 1 2 3 4 5 6 
#
# 1 25.6134 23.7926 15.3154 0.0000 0.0000 0.0000
# 2 23.7926 111.9032 35.7708 0.0000 0.0000 0.0000
# 3 15.3154 35.7708 112.3684 0.0000 0.0000 0.0000
# 4 0.0000 0.0000 0.0000 14.5691 0.0000 0.0000
# 5 0.0000 0.0000 0.0000 0.0000 11.2693 0.0000
# 6 0.0000 0.0000 0.0000 0.0000 0.0000 31.6852
#
#
#
# Elastic Compliance Matrix: (Units=1/GPa)
#
#
# Indices 1 2 3 4 5 6 
#
# 1 0.050086 -0.009426 -0.003826 0.000000 0.000000 0.000000
# 2 -0.009426 0.011723 -0.002447 0.000000 0.000000 0.000000
# 3 -0.003826 -0.002447 0.010200 0.000000 0.000000 0.000000
# 4 0.000000 0.000000 0.000000 0.068638 0.000000 0.000000
# 5 0.000000 0.000000 0.000000 0.000000 0.088737 0.000000
# 6 0.000000 0.000000 0.000000 0.000000 0.000000 0.031560
#
#
# Mechanical properties :
#
#
# Convention : Reuss Voigt Hill
#
# Bulk Modulus (GPa) = 24.62433 44.40473 34.51453
# Shear Modulus (GPa) = 16.34636 23.17180 19.75908
#
# Velocity S-wave (km/s) = 3.10657 3.69871 3.41550
# Velocity P-wave (km/s) = 5.23505 6.66760 5.99427
#
# Compressibility (1/GPa) = 0.04061025
#
# Stress axis : x y z
#
# Youngs Moduli (GPa) = 19.96571 85.30484 98.04205
#
# Poissons Ratio (x) = 0.80410 0.37509
# Poissons Ratio (y) = 0.18820 0.23991
# Poissons Ratio (z) = 0.07639 0.20874
#
# Static dielectric constant tensor:
#      x y z
#    x 1.585220 0.000000 0.000000 
#    y 0.000000 1.595760 0.000000 
#    z 0.000000 0.000000 1.628040 
# 
# From -- ./inp_files/14739.got.cif
#   From: 2010.05.17/outbox.cif.g08.bks.cpg/sg21_8_cif.got.tgz:14739.got - 2010.06.03 23:14:55.
