data_PCOD9325437
_publ_section_title
;
Structure prediction by ZEFSAII (Michael W. Deem and Ramdas Pophale) SiO2 
 PCOD9325437
Probable space group: C 2 2 2
;
_chemical_formula_sum "Si O2"
_cell_formula_units_Z 48
_cell_length_a 27.908448
_cell_length_b 9.410087
_cell_length_c 7.774970
_cell_angle_alpha 90.000000
_cell_angle_beta 90.000000
_cell_angle_gamma 90.000000
_cell_volume 2041.869803
_symmetry_space_group_name_H-M "C 2 2 2"
_symmetry_group_IT_number 21
_symmetry_cell_setting 'orthorhombic'
loop_
_space_group_symop_operation_xyz
x,y,z
-x,-y,z
x,-y,-z
-x,y,-z
1/2+x,1/2+y,z
1/2-x,1/2-y,z
1/2+x,1/2-y,-z
1/2-x,1/2+y,-z
loop_
_atom_site_type_symbol
_atom_site_label
_atom_site_fract_x
_atom_site_fract_y
_atom_site_fract_z
Si Si1 0.230485 0.095880 0.858588
Si Si2 0.953085 0.564140 0.691025
Si Si3 0.622021 0.641607 0.916041
Si Si4 0.620035 0.160769 0.775608
Si Si5 0.921701 0.159261 0.448727
Si Si6 0.721852 0.110774 0.628110
O O1 0.250000 0.250000 0.820764
O O2 0.178847 0.128518 0.932959
O O3 0.236017 0.990331 0.701030
O O4 0.257807 0.000000 0.000000
O O5 0.952232 0.500000 0.500000
O O6 0.904830 0.494388 0.766541
O O7 0.957350 0.731687 0.651153
O O8 0.000000 0.500000 0.780412
O O9 0.615181 0.644812 0.710811
O O10 0.599694 0.500000 0.000000
O O11 0.606818 0.768137 0.042113
O O12 0.599550 0.259138 0.616652
O O13 0.677413 0.155424 0.749001
O O14 0.937440 0.000000 0.500000
O O15 0.750000 0.250000 0.568206
O O16 0.696469 0.000000 0.500000
#
# Coordination Sequence:
#
# PCOD9325437 Si02
#       6
#     8   8   8   8   8   8
#     4  11  24  41  59  90 131 182 235 290 351 418
#     4   9  21  45  73 107 144 182 233 295 358 435
#     4  11  23  41  67  98 140 180 232 294 349 414
#     4  11  24  45  68 102 140 183 241 291 357 430
#     4  11  23  41  75 103 136 186 232 286 358 424
#     4  12  26  41  62  95 138 189 246 300 356 424
#
# _framework density 23.507864999999999
#
# number of rings (size 3 to 8) (size 9 to 14) (size 15 to 20)
#    0.000    1.167    1.667    5.500    7.000    0.667 
#    0.000    8.333    0.000    1.000    0.000    0.000 
#    0.000    0.000    0.000    0.000    0.000    0.000 
#
# Total GULP energy -133666.990837 kJ/mol
# GULP energy per Si atom -5569.457952 kJ/mol
# Density = 2.345436 g / cm^3
# Si number density = 23.507865 Si / 1000 Ang^3
#
#
#
# Elastic Constant Matrix: (Units=GPa)
#
#
# Indices 1 2 3 4 5 6 
#
# 1 61.5195 33.8491 0.1617 0.0000 0.0000 0.0000
# 2 33.8491 205.2818 53.1135 0.0000 0.0000 0.0000
# 3 0.1617 53.1135 104.5213 0.0000 0.0000 0.0000
# 4 0.0000 0.0000 0.0000 39.9643 0.0000 0.0000
# 5 0.0000 0.0000 0.0000 0.0000 -128.1870 0.0000
# 6 0.0000 0.0000 0.0000 0.0000 0.0000 23.8078
#
#
#
# Elastic Compliance Matrix: (Units=1/GPa)
#
#
# Indices 1 2 3 4 5 6 
#
# 1 0.018141 -0.003436 0.001718 0.000000 0.000000 0.000000
# 2 -0.003436 0.006259 -0.003175 0.000000 0.000000 0.000000
# 3 0.001718 -0.003175 0.011178 0.000000 0.000000 0.000000
# 4 0.000000 0.000000 0.000000 0.025022 0.000000 0.000000
# 5 0.000000 0.000000 0.000000 0.000000 -0.007801 0.000000
# 6 0.000000 0.000000 0.000000 0.000000 0.000000 0.042003
#
#
# Mechanical properties :
#
#
# Convention : Reuss Voigt Hill
#
# Bulk Modulus (GPa) = 38.77169 60.61900 49.69535
# Shear Modulus (GPa) = 44.17463 6.06359 25.11911
#
# Velocity S-wave (km/s) = 4.33961 1.60779 3.27240
# Velocity P-wave (km/s) = 6.45279 5.41196 5.95516
#
# Compressibility (1/GPa) = 0.02579201
#
# Stress axis : x y z
#
# Youngs Moduli (GPa) = 55.12409 159.75756 89.45802
#
# Poissons Ratio (x) = 0.54888 -0.15367
# Poissons Ratio (y) = 0.18939 0.28407
# Poissons Ratio (z) = -0.09469 0.50731
#
# Static dielectric constant tensor:
#      x y z
#    x 1.933730 0.000000 0.000000 
#    y 0.000000 1.802700 0.000000 
#    z 0.000000 0.000000 1.830820 
# 
# From -- ./inp_files/19652.got.cif
#   From: 2010.05.17/outbox.cif.g08.bks.cpg/sg21_10_cif.got.tgz:19652.got - 2010.06.03 23:14:55.
