data_PCOD9325181
_publ_section_title
;
Structure prediction by ZEFSAII (Michael W. Deem and Ramdas Pophale) SiO2 
 PCOD9325181
Probable space group: C 2 2 2
;
_chemical_formula_sum "Si O2"
_cell_formula_units_Z 28
_cell_length_a 16.684798
_cell_length_b 11.293188
_cell_length_c 6.772735
_cell_angle_alpha 90.000000
_cell_angle_beta 90.000000
_cell_angle_gamma 90.000000
_cell_volume 1276.149616
_symmetry_space_group_name_H-M "C 2 2 2"
_symmetry_group_IT_number 21
_symmetry_cell_setting 'orthorhombic'
loop_
_space_group_symop_operation_xyz
x,y,z
-x,-y,z
x,-y,-z
-x,y,-z
1/2+x,1/2+y,z
1/2-x,1/2-y,z
1/2+x,1/2-y,-z
1/2-x,1/2+y,-z
loop_
_atom_site_type_symbol
_atom_site_label
_atom_site_fract_x
_atom_site_fract_y
_atom_site_fract_z
Si Si1 0.864188 0.380970 0.237759
Si Si2 0.735908 0.000000 0.500000
Si Si3 0.363789 0.317132 0.424503
Si Si4 0.750000 0.750000 0.067231
Si Si5 0.500000 0.500000 0.500000
Si Si6 0.000000 0.500000 0.000000
O O1 0.823225 0.501734 0.316372
O O2 0.878749 0.292827 0.426012
O O3 0.945794 0.415834 0.134465
O O4 0.800938 0.331162 0.081388
O O5 0.793937 0.109036 0.465656
O O6 0.319980 0.294306 0.216546
O O7 0.438998 0.406330 0.396358
#
# Coordination Sequence:
#
# PCOD9325181 Si02
#       6
#     8   4   8   4   2   2
#     4  12  26  48  71 112 143 188 252 301 361 441
#     4  11  20  48  74 103 140 192 240 297 364 422
#     4  11  24  47  72 105 146 191 237 310 351 438
#     4  12  22  48  78  96 142 192 246 294 350 438
#     4  10  28  44  70 104 152 192 224 290 398 402
#     4  12  32  42  76 110 150 194 236 310 388 422
#
# _framework density 21.941001
#
# number of rings (size 3 to 8) (size 9 to 14) (size 15 to 20)
#    0.000    0.571    5.714    1.714    4.000    0.571 
#    0.000    1.429    0.000    0.000    0.000    0.000 
#    0.000    0.000    0.000    0.000    0.000    0.000 
#
# Total GULP energy -78015.226542 kJ/mol
# GULP energy per Si atom -5572.516182 kJ/mol
# Density = 2.189106 g / cm^3
# Si number density = 21.941001 Si / 1000 Ang^3
#
#
#
# Elastic Constant Matrix: (Units=GPa)
#
#
# Indices 1 2 3 4 5 6 
#
# 1 160.0175 62.8644 75.3490 0.0000 0.0000 0.0000
# 2 62.8644 100.6220 57.3553 0.0000 0.0000 0.0000
# 3 75.3490 57.3553 125.9074 0.0000 0.0000 0.0000
# 4 0.0000 0.0000 0.0000 30.5442 0.0000 0.0000
# 5 0.0000 0.0000 0.0000 0.0000 -32.2311 0.0000
# 6 0.0000 0.0000 0.0000 0.0000 0.0000 49.3250
#
#
#
# Elastic Compliance Matrix: (Units=1/GPa)
#
#
# Indices 1 2 3 4 5 6 
#
# 1 0.009616 -0.003684 -0.004077 0.000000 0.000000 0.000000
# 2 -0.003684 0.014835 -0.004553 0.000000 0.000000 0.000000
# 3 -0.004077 -0.004553 0.012456 0.000000 0.000000 0.000000
# 4 0.000000 0.000000 0.000000 0.032739 0.000000 0.000000
# 5 0.000000 0.000000 0.000000 0.000000 -0.031026 0.000000
# 6 0.000000 0.000000 0.000000 0.000000 0.000000 0.020274
#
#
# Mechanical properties :
#
#
# Convention : Reuss Voigt Hill
#
# Bulk Modulus (GPa) = 81.43487 86.40938 83.92212
# Shear Modulus (GPa) = 57.06730 22.25951 39.66340
#
# Velocity S-wave (km/s) = 5.10548 3.18860 4.25635
# Velocity P-wave (km/s) = 8.48236 7.28178 7.90490
#
# Compressibility (1/GPa) = 0.01227975
#
# Stress axis : x y z
#
# Youngs Moduli (GPa) = 103.99074 67.40705 80.28197
#
# Poissons Ratio (x) = 0.24834 0.32727
# Poissons Ratio (y) = 0.38312 0.36554
# Poissons Ratio (z) = 0.42392 0.30692
#
# Static dielectric constant tensor:
#      x y z
#    x 1.800620 0.000000 0.000000 
#    y 0.000000 1.913180 0.000000 
#    z 0.000000 0.000000 1.820950 
# 
# From -- ./inp_files/4588.got.cif
#   From: 2010.05.17/outbox.cif.g08.bks.cpg/sg21_3_cif.got.tgz:4588.got - 2010.06.03 23:14:55.
