data_PCOD9325841
_publ_section_title
;
Structure prediction by ZEFSAII (Michael W. Deem and Ramdas Pophale) SiO2 
 PCOD9325841
Probable space group: C 2 2 2
;
_chemical_formula_sum "Si O2"
_cell_formula_units_Z 24
_cell_length_a 18.000000
_cell_length_b 9.000000
_cell_length_c 15.000000
_cell_angle_alpha 90.000000
_cell_angle_beta 90.000000
_cell_angle_gamma 90.000000
_cell_volume 2430.000000
_symmetry_space_group_name_H-M "C 2 2 2"
_symmetry_group_IT_number 21
_symmetry_cell_setting 'orthorhombic'
loop_
_space_group_symop_operation_xyz
x,y,z
-x,-y,z
x,-y,-z
-x,y,-z
1/2+x,1/2+y,z
1/2-x,1/2-y,z
1/2+x,1/2-y,-z
1/2-x,1/2+y,-z
loop_
_atom_site_type_symbol
_atom_site_label
_atom_site_fract_x
_atom_site_fract_y
_atom_site_fract_z
Si Si1 0.166140 0.809258 0.841551
Si Si2 0.911958 0.327577 0.009493
Si Si3 0.925718 0.408721 0.707430
Si Si4 0.516399 0.661957 0.602666
Si Si5 0.831696 0.697701 0.651079
Si Si6 0.175559 0.170671 0.847145
O O1 0.250000 0.750000 0.834840
O O2 0.129730 0.768341 0.935455
O O3 0.117531 0.704363 0.774077
O O4 0.171012 0.991079 0.837913
O O5 0.887024 0.500000 0.000000
O O6 0.891741 0.244815 0.100202
O O7 0.000000 0.326686 0.000000
O O8 0.865910 0.527843 0.664342
O O9 0.000000 0.500000 0.743878
O O10 0.965122 0.294288 0.639870
O O11 0.500000 0.500000 0.646284
O O12 0.500000 0.648766 0.500000
O O13 0.601825 0.710268 0.607866
O O14 0.750000 0.750000 0.612889
O O15 0.828172 0.760428 0.750136
O O16 0.250000 0.250000 0.888284
#
# Coordination Sequence:
#
# PCOD9325841 Si02
#       6
#     8   8   8   8   8   8
#     4  12  24  40  64  90 124 166 211 257 315 371
#     4  11  25  40  60  85 124 165 212 262 312 370
#     4  10  23  40  67  94 128 165 210 252 316 371
#     4  10  22  42  65  94 129 166 205 253 309 373
#     4  10  21  40  65  92 127 163 209 258 309 368
#     4  11  23  41  62  88 124 161 210 263 310 364
#
# _framework density 9.8765429999999999
#
# number of rings (size 3 to 8) (size 9 to 14) (size 15 to 20)
#    0.000    1.333    0.000    6.000    7.000    4.333 
#    0.000    4.167    0.000    0.000    0.000    0.000 
#    0.000    0.000    0.000    0.000    0.000    0.000 
#
# Total GULP energy -133629.062615 kJ/mol
# GULP energy per Si atom -5567.877609 kJ/mol
# Density = 0.985406 g / cm^3
# Si number density = 9.876543 Si / 1000 Ang^3
#
#
#
# Elastic Constant Matrix: (Units=GPa)
#
#
# Indices 1 2 3 4 5 6 
#
# 1 140.3402 68.6452 39.4405 0.0000 0.0000 0.0000
# 2 68.6452 190.9966 19.0236 0.0000 0.0000 0.0000
# 3 39.4405 19.0236 44.6203 0.0000 0.0000 0.0000
# 4 0.0000 0.0000 0.0000 23.2585 0.0000 0.0000
# 5 0.0000 0.0000 0.0000 0.0000 52.2815 0.0000
# 6 0.0000 0.0000 0.0000 0.0000 0.0000-1284.3372
#
#
#
# Elastic Compliance Matrix: (Units=1/GPa)
#
#
# Indices 1 2 3 4 5 6 
#
# 1 0.011014 -0.003122 -0.008405 0.000000 0.000000 0.000000
# 2 -0.003122 0.006353 0.000051 0.000000 0.000000 0.000000
# 3 -0.008405 0.000051 0.029819 0.000000 0.000000 0.000000
# 4 0.000000 0.000000 0.000000 0.042995 0.000000 0.000000
# 5 0.000000 0.000000 0.000000 0.000000 0.019127 0.000000
# 6 0.000000 0.000000 0.000000 0.000000 0.000000 -0.000779
#
#
# Mechanical properties :
#
#
# Convention : Reuss Voigt Hill
#
# Bulk Modulus (GPa) = 41.26349 70.01952 55.64151
# Shear Modulus (GPa) = 35.82705 -225.16960 -94.67127
#
# Velocity S-wave (km/s) = 4.26343 -10.68829 -6.93047
# Velocity P-wave (km/s) = 6.72092 10.80718 5.98433
#
# Compressibility (1/GPa) = 0.02423450
#
# Stress axis : x y z
#
# Youngs Moduli (GPa) = 90.78952 157.41776 33.53571
#
# Poissons Ratio (x) = 0.49138 0.28187
# Poissons Ratio (y) = 0.28340 -0.00170
# Poissons Ratio (z) = 0.76309 -0.00800
#
# Static dielectric constant tensor:
#      x y z
#    x 1.848020 0.000000 0.000000 
#    y 0.000000 1.730870 0.000000 
#    z 0.000000 0.000000 1.832990 
# 
# From -- ./inp_files/32837.got.cif
#   From: 2010.05.17/outbox.ucp.g08.bks.cvg/sg21_17_cif.got.tgz:32837.got - 2010.06.11 15:15:05.
