data_PCOD9325903
_publ_section_title
;
Structure prediction by ZEFSAII (Michael W. Deem and Ramdas Pophale) SiO2 
 PCOD9325903
Probable space group: F 2 2 2
;
_chemical_formula_sum "Si O2"
_cell_formula_units_Z 88
_cell_length_a 30.353032
_cell_length_b 5.839613
_cell_length_c 26.412336
_cell_angle_alpha 90.000000
_cell_angle_beta 90.000000
_cell_angle_gamma 90.000000
_cell_volume 4681.585506
_symmetry_space_group_name_H-M "F 2 2 2"
_symmetry_group_IT_number 22
_symmetry_cell_setting 'orthorhombic'
loop_
_space_group_symop_operation_xyz
x,y,z
-x,-y,z
x,-y,-z
-x,y,-z
x,1/2+y,1/2+z
-x,1/2-y,1/2+z
x,1/2-y,1/2-z
-x,1/2+y,1/2-z
1/2+x,y,1/2+z
1/2-x,-y,1/2+z
1/2+x,-y,1/2-z
1/2-x,y,1/2-z
1/2+x,1/2+y,z
1/2-x,1/2-y,z
1/2+x,1/2-y,-z
1/2-x,1/2+y,-z
loop_
_atom_site_type_symbol
_atom_site_label
_atom_site_fract_x
_atom_site_fract_y
_atom_site_fract_z
Si Si1 0.088712 0.811583 0.583715
Si Si2 0.096899 0.500000 0.500000
Si Si3 0.750000 0.750000 0.528871
Si Si4 0.949616 0.548118 0.824919
Si Si5 0.884956 0.435909 0.333734
Si Si6 0.344676 0.694751 0.423852
Si Si7 0.610351 0.750000 0.250000
O O1 0.070818 0.682251 0.534390
O O2 0.101223 0.622159 0.624923
O O3 0.058477 0.984490 0.615731
O O4 0.133134 0.946720 0.568648
O O5 0.127740 0.639663 0.461194
O O6 0.755018 0.500000 0.500000
O O7 0.705796 0.714519 0.561328
O O8 0.929260 0.800184 0.817902
O O9 0.920049 0.389860 0.788859
O O10 0.000000 0.500000 0.812727
O O11 0.854088 0.264545 0.365451
O O12 0.865162 0.565262 0.285258
#
# Coordination Sequence:
#
# PCOD9325903 Si02
#       7
#    16   8   8  16  16  16   8
#     4   9  19  33  53  76 107 157 196 239 292 363
#     4  10  16  32  54  73 106 152 198 232 281 358
#     4  12  24  36  60 100 133 161 206 270 328 374
#     4  10  21  34  54  81 116 142 191 253 315 363
#     4   9  20  36  53  80 112 156 193 244 301 383
#     4  10  20  35  55  84 120 156 198 246 310 366
#     4  10  20  32  56  84 109 148 192 241 312 370
#
# _framework density 18.797049000000001
#
# number of rings (size 3 to 8) (size 9 to 14) (size 15 to 20)
#    0.000    2.182    0.909    2.182    5.091    2.182 
#    0.000    0.000    0.000   31.636    0.000   36.909 
#    0.000    0.000    0.000    0.000    0.000    0.000 
#
# Total GULP energy -122485.500356 kJ/mol
# GULP energy per Si atom -5567.522743 kJ/mol
# Density = 1.875427 g / cm^3
# Si number density = 18.797049 Si / 1000 Ang^3
#
#
#
# Elastic Constant Matrix: (Units=GPa)
#
#
# Indices 1 2 3 4 5 6 
#
# 1 27.8673 14.0612 4.7962 0.0005 0.0004 0.0007
# 2 14.0612 95.8904 31.0548 0.0024 0.0041 0.0007
# 3 4.7962 31.0548 101.5778 0.0003 0.0004 -0.0007
# 4 0.0005 0.0024 0.0003 48.8287 0.0012 -0.0007
# 5 0.0004 0.0041 0.0004 0.0012 10.2222 0.0026
# 6 0.0007 0.0007 -0.0007 -0.0007 0.0026 2.4449
#
#
#
# Elastic Compliance Matrix: (Units=1/GPa)
#
#
# Indices 1 2 3 4 5 6 
#
# 1 0.038753 -0.005649 -0.000103 0.000000 0.000001 -0.000009
# 2 -0.005649 0.012398 -0.003524 -0.000001 -0.000005 -0.000003
# 3 -0.000103 -0.003524 0.010927 0.000000 0.000001 0.000004
# 4 0.000000 -0.000001 0.000000 0.020480 -0.000002 0.000006
# 5 0.000001 -0.000005 0.000001 -0.000002 0.097826 -0.000103
# 6 -0.000009 -0.000003 0.000004 0.000006 -0.000103 0.409007
#
#
# Mechanical properties :
#
#
# Convention : Reuss Voigt Hill
#
# Bulk Modulus (GPa) = 22.97469 36.12889 29.55179
# Shear Modulus (GPa) = 8.03276 23.99405 16.01341
#
# Velocity S-wave (km/s) = 2.06947 3.57666 2.92192
# Velocity P-wave (km/s) = 4.23784 6.02652 5.20952
#
# Compressibility (1/GPa) = 0.04352616
#
# Stress axis : x y z
#
# Youngs Moduli (GPa) = 25.80474 80.65719 91.51822
#
# Poissons Ratio (x) = 0.45566 0.00939
# Poissons Ratio (y) = 0.14578 0.32248
# Poissons Ratio (z) = 0.00265 0.28421
#
# Static dielectric constant tensor:
#      x y z
#    x 1.611190 0.000000 0.000000 
#    y 0.000000 1.754730 0.000000 
#    z 0.000000 0.000000 1.709220 
# 
# From -- ./inp_files/5772.got.cif
#   From: 2010.05.17/outbox.cif.g08.bks.cpg/sg22_3_cif.got.tgz:5772.got - 2010.06.03 23:40:54.
