data_PCOD9325025
_publ_section_title
;
Structure prediction by ZEFSAII (Michael W. Deem and Ramdas Pophale) SiO2 
 PCOD9325025
Probable space group: C 2 2 2
;
_chemical_formula_sum "Si O2"
_cell_formula_units_Z 14
_cell_length_a 6.452329
_cell_length_b 20.469812
_cell_length_c 4.616327
_cell_angle_alpha 90.000000
_cell_angle_beta 90.000000
_cell_angle_gamma 90.000000
_cell_volume 609.715060
_symmetry_space_group_name_H-M "C 2 2 2"
_symmetry_group_IT_number 21
_symmetry_cell_setting 'orthorhombic'
loop_
_space_group_symop_operation_xyz
x,y,z
-x,-y,z
x,-y,-z
-x,y,-z
1/2+x,1/2+y,z
1/2-x,1/2-y,z
1/2+x,1/2-y,-z
1/2-x,1/2+y,-z
loop_
_atom_site_type_symbol
_atom_site_label
_atom_site_fract_x
_atom_site_fract_y
_atom_site_fract_z
Si Si1 0.000000 0.592449 0.500000
Si Si2 0.000000 0.500000 0.000000
Si Si3 0.648518 0.684060 0.237481
O O1 0.901170 0.548987 0.761038
O O2 0.824377 0.636468 0.354725
O O3 0.500000 0.704655 0.500000
O O4 0.750000 0.750000 0.112070
O O5 0.500000 0.652400 0.000000
#
# Coordination Sequence:
#
# PCOD9325025 Si02
#       3
#     4   2   8
#     4  11  24  48  70 104 144 187 244 288 350 429
#     4  10  24  46  74  94 144 204 228 288 350 410
#     4  12  25  42  71 111 146 181 230 298 366 421
#
# _framework density 22.961544
#
# number of rings (size 3 to 8) (size 9 to 14) (size 15 to 20)
#    0.000    0.571    2.857    5.143    4.000    0.000 
#    0.000   21.429    0.000    0.000    0.000    0.000 
#    0.000    0.000    0.000    0.000    0.000    0.000 
#
# Total GULP energy -39085.060683 kJ/mol
# GULP energy per Si atom -5583.580098 kJ/mol
# Density = 2.290928 g / cm^3
# Si number density = 22.961544 Si / 1000 Ang^3
#
#
#
# Elastic Constant Matrix: (Units=GPa)
#
#
# Indices 1 2 3 4 5 6 
#
# 1 125.9126 58.2876 57.7868 0.0000 0.0000 0.0000
# 2 58.2876 119.6897 52.6802 0.0000 0.0000 0.0000
# 3 57.7868 52.6802 147.7045 0.0000 0.0000 0.0000
# 4 0.0000 0.0000 0.0000 12.5317 0.0000 0.0000
# 5 0.0000 0.0000 0.0000 0.0000 58.8049 0.0000
# 6 0.0000 0.0000 0.0000 0.0000 0.0000 -0.6787
#
#
#
# Elastic Compliance Matrix: (Units=1/GPa)
#
#
# Indices 1 2 3 4 5 6 
#
# 1 0.011206 -0.004185 -0.002892 0.000000 0.000000 0.000000
# 2 -0.004185 0.011473 -0.002455 0.000000 0.000000 0.000000
# 3 -0.002892 -0.002455 0.008777 0.000000 0.000000 0.000000
# 4 0.000000 0.000000 0.000000 0.079797 0.000000 0.000000
# 5 0.000000 0.000000 0.000000 0.000000 0.017005 0.000000
# 6 0.000000 0.000000 0.000000 0.000000 0.000000 -1.473453
#
#
# Mechanical properties :
#
#
# Convention : Reuss Voigt Hill
#
# Bulk Modulus (GPa) = 80.68267 81.20178 80.94222
# Shear Modulus (GPa) = -3.78215 29.10175 12.65980
#
# Velocity S-wave (km/s) = -1.28481 3.56394 2.35063
# Velocity P-wave (km/s) = 5.74573 7.23716 6.53414
#
# Compressibility (1/GPa) = 0.01239424
#
# Stress axis : x y z
#
# Youngs Moduli (GPa) = 89.23539 87.15901 113.93140
#
# Poissons Ratio (x) = 0.36472 0.32947
# Poissons Ratio (y) = 0.37341 0.27969
# Poissons Ratio (z) = 0.25805 0.21397
#
# Static dielectric constant tensor:
#      x y z
#    x 1.858350 0.000000 0.000000 
#    y 0.000000 1.884960 0.000000 
#    z 0.000000 0.000000 1.891880 
# 
# From -- ./inp_files/3.got.cif
#   From: 2010.05.17/outbox.cif.g08.bks.cpg/sg21_1_cif.got.tgz:3.got - 2010.06.03 23:14:55.
