data_PCOD9325387
_publ_section_title
;
Structure prediction by ZEFSAII (Michael W. Deem and Ramdas Pophale) SiO2 
 PCOD9325387
Probable space group: C 2 2 2
;
_chemical_formula_sum "Si O2"
_cell_formula_units_Z 40
_cell_length_a 12.051162
_cell_length_b 19.558017
_cell_length_c 7.734604
_cell_angle_alpha 90.000000
_cell_angle_beta 90.000000
_cell_angle_gamma 90.000000
_cell_volume 1823.021654
_symmetry_space_group_name_H-M "C 2 2 2"
_symmetry_group_IT_number 21
_symmetry_cell_setting 'orthorhombic'
loop_
_space_group_symop_operation_xyz
x,y,z
-x,-y,z
x,-y,-z
-x,y,-z
1/2+x,1/2+y,z
1/2-x,1/2-y,z
1/2+x,1/2-y,-z
1/2-x,1/2+y,-z
loop_
_atom_site_type_symbol
_atom_site_label
_atom_site_fract_x
_atom_site_fract_y
_atom_site_fract_z
Si Si1 0.723819 0.922964 0.915494
Si Si2 0.697606 0.834220 0.220980
Si Si3 0.084960 0.798203 0.647811
Si Si4 0.038990 0.071823 0.799645
Si Si5 0.006765 0.418970 0.694740
O O1 0.828919 0.927530 0.789950
O O2 0.613419 0.903059 0.810466
O O3 0.755855 0.860518 0.046107
O O4 0.714866 0.000000 0.000000
O O5 0.789522 0.829841 0.373859
O O6 0.624776 0.764800 0.229859
O O7 0.606548 0.892941 0.226498
O O8 0.000000 0.771592 0.500000
O O9 0.015245 0.861018 0.721766
O O10 0.000000 0.000000 0.720669
O O11 0.000000 0.070448 0.000000
O O12 0.000000 0.500000 0.686633
O O13 0.000000 0.391296 0.500000
#
# Coordination Sequence:
#
# PCOD9325387 Si02
#       5
#     8   8   8   8   8
#     4  12  22  43  73 104 143 189 241 304 367 447
#     4  11  24  46  70  99 142 188 244 297 368 447
#     4  11  26  47  71  99 146 191 244 308 371 438
#     4  11  22  43  70 106 141 185 249 309 367 437
#     4  11  25  41  67 102 140 182 234 298 368 438
#
# _framework density 21.941593000000001
#
# number of rings (size 3 to 8) (size 9 to 14) (size 15 to 20)
#    0.000    0.800    6.000    1.200    2.800    2.000 
#    0.000    0.000    0.000    0.000    0.000    0.000 
#    0.000    0.000    0.000    0.000    0.000    0.000 
#
# Total GULP energy -111362.985693 kJ/mol
# GULP energy per Si atom -5568.149285 kJ/mol
# Density = 2.189165 g / cm^3
# Si number density = 21.941593 Si / 1000 Ang^3
#
#
#
# Elastic Constant Matrix: (Units=GPa)
#
#
# Indices 1 2 3 4 5 6 
#
# 1 154.6531 37.8866 23.4470 0.0000 0.0000 0.0000
# 2 37.8866 145.4780 31.3910 0.0000 0.0000 0.0000
# 3 23.4470 31.3910 43.3278 0.0000 0.0000 0.0000
# 4 0.0000 0.0000 0.0000 -17.8987 0.0000 0.0000
# 5 0.0000 0.0000 0.0000 0.0000 26.1169 0.0000
# 6 0.0000 0.0000 0.0000 0.0000 0.0000 25.6448
#
#
#
# Elastic Compliance Matrix: (Units=1/GPa)
#
#
# Indices 1 2 3 4 5 6 
#
# 1 0.007225 -0.001230 -0.003019 0.000000 0.000000 0.000000
# 2 -0.001230 0.008357 -0.005389 0.000000 0.000000 0.000000
# 3 -0.003019 -0.005389 0.028618 0.000000 0.000000 0.000000
# 4 0.000000 0.000000 0.000000 -0.055870 0.000000 0.000000
# 5 0.000000 0.000000 0.000000 0.000000 0.038289 0.000000
# 6 0.000000 0.000000 0.000000 0.000000 0.000000 0.038994
#
#
# Mechanical properties :
#
#
# Convention : Reuss Voigt Hill
#
# Bulk Modulus (GPa) = 40.12146 58.76756 49.44451
# Shear Modulus (GPa) = 53.64960 23.48822 38.56891
#
# Velocity S-wave (km/s) = 4.95017 3.27538 4.19716
# Velocity P-wave (km/s) = 7.14125 6.41451 6.78762
#
# Compressibility (1/GPa) = 0.02492432
#
# Stress axis : x y z
#
# Youngs Moduli (GPa) = 138.40591 119.65851 34.94340
#
# Poissons Ratio (x) = 0.14721 0.10548
# Poissons Ratio (y) = 0.17028 0.18831
# Poissons Ratio (z) = 0.41779 0.64484
#
# Static dielectric constant tensor:
#      x y z
#    x 2.744470 0.000000 0.000000 
#    y 0.000000 1.848930 0.000000 
#    z 0.000000 0.000000 2.120540 
# 
# From -- ./inp_files/12714.got.cif
#   From: 2010.05.17/outbox.cif.g08.bks.cpg/sg21_7_cif.got.tgz:12714.got - 2010.06.03 23:14:55.
