data_PCOD9325955
_publ_section_title
;
Structure prediction by ZEFSAII (Michael W. Deem and Ramdas Pophale) SiO2 
 PCOD9325955
Probable space group: F 2 2 2
;
_chemical_formula_sum "Si O2"
_cell_formula_units_Z 84
_cell_length_a 23.690564
_cell_length_b 8.800919
_cell_length_c 23.220531
_cell_angle_alpha 90.000000
_cell_angle_beta 90.000000
_cell_angle_gamma 90.000000
_cell_volume 4841.451336
_symmetry_space_group_name_H-M "F 2 2 2"
_symmetry_group_IT_number 22
_symmetry_cell_setting 'orthorhombic'
loop_
_space_group_symop_operation_xyz
x,y,z
-x,-y,z
x,-y,-z
-x,y,-z
x,1/2+y,1/2+z
-x,1/2-y,1/2+z
x,1/2-y,1/2-z
-x,1/2+y,1/2-z
1/2+x,y,1/2+z
1/2-x,-y,1/2+z
1/2+x,-y,1/2-z
1/2-x,y,1/2-z
1/2+x,1/2+y,z
1/2-x,1/2-y,z
1/2+x,1/2-y,-z
1/2-x,1/2+y,-z
loop_
_atom_site_type_symbol
_atom_site_label
_atom_site_fract_x
_atom_site_fract_y
_atom_site_fract_z
Si Si1 0.700827 0.641863 0.861746
Si Si2 0.000000 0.500000 0.091937
Si Si3 0.078098 0.749948 0.110297
Si Si4 0.300548 0.372412 0.051131
Si Si5 0.000000 0.000000 0.091091
Si Si6 0.075907 0.747962 0.528961
Si Si7 0.250000 0.250000 0.750000
O O1 0.750000 0.750000 0.887994
O O2 0.641688 0.725535 0.871638
O O3 0.701477 0.478203 0.891874
O O4 0.714359 0.646152 0.793816
O O5 0.042959 0.603018 0.128143
O O6 0.041913 0.391382 0.054856
O O7 0.041054 0.894488 0.127529
O O8 0.076486 0.746018 0.040126
O O9 0.250000 0.250000 0.047484
O O10 0.359611 0.280450 0.047809
O O11 0.299553 0.500000 0.000000
O O12 0.959647 0.894022 0.052823
#
# Coordination Sequence:
#
# PCOD9325955 Si02
#       7
#    16   8  16  16   8  16   4
#     4  10  22  42  62  85 110 168 210 265 309 369
#     4  10  23  30  50  89 130 175 188 236 297 392
#     4  11  18  32  53  79 121 154 205 235 300 369
#     4  12  24  36  57  93 132 160 200 258 323 373
#     4  10  17  30  48  75 120 161 190 226 297 382
#     4  11  19  31  48  81 125 167 193 231 297 379
#     4   8  24  44  70  80 116 168 230 250 326 356
#
# _framework density 17.350169000000001
#
# number of rings (size 3 to 8) (size 9 to 14) (size 15 to 20)
#    0.571    0.762    3.810    5.143    2.667    0.000 
#    0.000    0.476    0.000    1.143    0.000    0.000 
#    0.000    0.000    0.000    0.000    0.000    0.000 
#
# Total GULP energy -117010.038505 kJ/mol
# GULP energy per Si atom -5571.906595 kJ/mol
# Density = 1.731068 g / cm^3
# Si number density = 17.350169 Si / 1000 Ang^3
#
#
#
# Elastic Constant Matrix: (Units=GPa)
#
#
# Indices 1 2 3 4 5 6 
#
# 1 194.4370 70.8753 24.9362 0.0000 0.0000 0.0000
# 2 70.8753 112.9105 22.1362 0.0000 0.0000 0.0000
# 3 24.9362 22.1362 57.7277 0.0000 0.0000 0.0000
# 4 0.0000 0.0000 0.0000 15.6751 0.0000 0.0000
# 5 0.0000 0.0000 0.0000 0.0000 -0.1750 0.0000
# 6 0.0000 0.0000 0.0000 0.0000 0.0000 29.4139
#
#
#
# Elastic Compliance Matrix: (Units=1/GPa)
#
#
# Indices 1 2 3 4 5 6 
#
# 1 0.006772 -0.003976 -0.001401 0.000000 0.000000 0.000000
# 2 -0.003976 0.011911 -0.002850 0.000000 0.000000 0.000000
# 3 -0.001401 -0.002850 0.019020 0.000000 0.000000 0.000000
# 4 0.000000 0.000000 0.000000 0.063796 0.000000 0.000000
# 5 0.000000 0.000000 0.000000 0.000000 -5.713354 0.000000
# 6 0.000000 0.000000 0.000000 0.000000 0.000000 0.033998
#
#
# Mechanical properties :
#
#
# Convention : Reuss Voigt Hill
#
# Bulk Modulus (GPa) = 47.05793 66.77451 56.91622
# Shear Modulus (GPa) = -0.90020 25.45794 12.27887
#
# Velocity S-wave (km/s) = -0.72109 3.83469 2.66317
# Velocity P-wave (km/s) = 5.14665 7.62735 6.50632
#
# Compressibility (1/GPa) = 0.02125040
#
# Stress axis : x y z
#
# Youngs Moduli (GPa) = 147.66428 83.95381 52.57491
#
# Poissons Ratio (x) = 0.33383 0.07363
# Poissons Ratio (y) = 0.58717 0.14983
# Poissons Ratio (z) = 0.20681 0.23926
#
# Static dielectric constant tensor:
#      x y z
#    x 1.618820 0.000000 0.000000 
#    y 0.000000 1.637390 0.000000 
#    z 0.000000 0.000000 1.580780 
# 
# From -- ./inp_files/50174.got.cif
#   From: 2010.05.17/outbox.cif.g08.bks.cpg/sg22_26_cif.got.tgz:50174.got - 2010.06.03 23:40:54.
