data_PCOD9325974
_publ_section_title
;
Structure prediction by ZEFSAII (Michael W. Deem and Ramdas Pophale) SiO2 
 PCOD9325974
Probable space group: F 2 2 2
;
_chemical_formula_sum "Si O2"
_cell_formula_units_Z 128
_cell_length_a 18.588566
_cell_length_b 22.030618
_cell_length_c 17.524604
_cell_angle_alpha 90.000000
_cell_angle_beta 90.000000
_cell_angle_gamma 90.000000
_cell_volume 7176.633713
_symmetry_space_group_name_H-M "F 2 2 2"
_symmetry_group_IT_number 22
_symmetry_cell_setting 'orthorhombic'
loop_
_space_group_symop_operation_xyz
x,y,z
-x,-y,z
x,-y,-z
-x,y,-z
x,1/2+y,1/2+z
-x,1/2-y,1/2+z
x,1/2-y,1/2-z
-x,1/2+y,1/2-z
1/2+x,y,1/2+z
1/2-x,-y,1/2+z
1/2+x,-y,1/2-z
1/2-x,y,1/2-z
1/2+x,1/2+y,z
1/2-x,1/2-y,z
1/2+x,1/2-y,-z
1/2-x,1/2+y,-z
loop_
_atom_site_type_symbol
_atom_site_label
_atom_site_fract_x
_atom_site_fract_y
_atom_site_fract_z
Si Si1 0.667283 0.379864 0.398728
Si Si2 0.804902 0.859426 0.819846
Si Si3 0.556546 0.582858 0.283639
Si Si4 0.896053 0.250055 0.362162
Si Si5 0.426956 0.121964 0.042789
Si Si6 0.077131 0.733540 0.528342
Si Si7 0.391340 0.955552 0.233954
Si Si8 0.942666 0.795185 0.187037
O O1 0.751906 0.365756 0.392006
O O2 0.622712 0.321481 0.363483
O O3 0.637223 0.390888 0.483315
O O4 0.650722 0.435792 0.342601
O O5 0.750000 0.860024 0.750000
O O6 0.846088 0.795908 0.816744
O O7 0.858776 0.915186 0.802738
O O8 0.576738 0.597388 0.371543
O O9 0.473429 0.562877 0.281925
O O10 0.606057 0.527560 0.254658
O O11 0.556894 0.640709 0.228558
O O12 0.879656 0.268620 0.450243
O O13 0.977731 0.266980 0.335942
O O14 0.431829 0.195206 0.048132
O O15 0.500000 0.101003 0.000000
O O16 0.098616 0.702387 0.606630
O O17 0.000000 0.708975 0.500000
O O18 0.911215 0.750000 0.250000
#
# Coordination Sequence:
#
# PCOD9325974 Si02
#       8
#    16  16  16  16  16  16  16  16
#     4  10  20  33  51  78 117 150 173 223 280 336
#     4  10  21  34  53  79 112 146 186 218 268 342
#     4  11  20  32  53  75 111 148 183 233 281 318
#     4  10  19  31  52  81 116 144 176 220 278 340
#     4  10  17  31  49  77 114 141 179 222 282 348
#     4   8  17  29  47  77 112 142 172 223 282 331
#     4  10  21  34  46  77 109 149 188 225 267 327
#     4  11  18  29  54  81 111 142 177 228 282 331
#
# _framework density 17.835661000000002
#
# number of rings (size 3 to 8) (size 9 to 14) (size 15 to 20)
#    0.000    2.000    3.750    1.875    1.750    2.000 
#    0.000    0.000    0.000    8.250    0.000    0.000 
#    0.000    0.000    0.000    0.000    0.000    0.000 
#
# Total GULP energy -178173.291457 kJ/mol
# GULP energy per Si atom -5567.915358 kJ/mol
# Density = 1.779507 g / cm^3
# Si number density = 17.835661 Si / 1000 Ang^3
#
#
#
# Elastic Constant Matrix: (Units=GPa)
#
#
# Indices 1 2 3 4 5 6 
#
# 1 40.6223 11.5210 12.7808 0.0000 0.0000 0.0000
# 2 11.5210 82.1913 27.6750 0.0000 0.0000 0.0000
# 3 12.7808 27.6750 107.0780 0.0000 0.0000 0.0000
# 4 0.0000 0.0000 0.0000 10.5564 0.0000 0.0000
# 5 0.0000 0.0000 0.0000 0.0000 20.4330 0.0000
# 6 0.0000 0.0000 0.0000 0.0000 0.0000 17.6384
#
#
#
# Elastic Compliance Matrix: (Units=1/GPa)
#
#
# Indices 1 2 3 4 5 6 
#
# 1 0.026180 -0.002867 -0.002384 0.000000 0.000000 0.000000
# 2 -0.002867 0.013640 -0.003183 0.000000 0.000000 0.000000
# 3 -0.002384 -0.003183 0.010446 0.000000 0.000000 0.000000
# 4 0.000000 0.000000 0.000000 0.094729 0.000000 0.000000
# 5 0.000000 0.000000 0.000000 0.000000 0.048940 0.000000
# 6 0.000000 0.000000 0.000000 0.000000 0.000000 0.056694
#
#
# Mechanical properties :
#
#
# Convention : Reuss Voigt Hill
#
# Bulk Modulus (GPa) = 29.94143 37.09392 33.51767
# Shear Modulus (GPa) = 17.94478 21.58654 19.76566
#
# Velocity S-wave (km/s) = 3.17538 3.48271 3.33259
# Velocity P-wave (km/s) = 5.50162 6.08401 5.80013
#
# Compressibility (1/GPa) = 0.03339854
#
# Stress axis : x y z
#
# Youngs Moduli (GPa) = 38.19685 73.31122 95.72809
#
# Poissons Ratio (x) = 0.21019 0.22820
# Poissons Ratio (y) = 0.10951 0.30473
# Poissons Ratio (z) = 0.09105 0.23337
#
# Static dielectric constant tensor:
#      x y z
#    x 1.644970 0.000000 0.000000 
#    y 0.000000 1.623910 0.000000 
#    z 0.000000 0.000000 1.673210 
# 
# From -- ./inp_files/38352.got.cif
#   From: 2010.05.17/outbox.cif.g08.bks.cpg/sg22_20_cif.got.tgz:38352.got - 2010.06.03 23:40:54.
