data_PCOD9325294
_publ_section_title
;
Structure prediction by ZEFSAII (Michael W. Deem and Ramdas Pophale) SiO2 
 PCOD9325294
Probable space group: C 2 2 2
;
_chemical_formula_sum "Si O2"
_cell_formula_units_Z 56
_cell_length_a 27.971182
_cell_length_b 4.944591
_cell_length_c 16.999372
_cell_angle_alpha 90.000000
_cell_angle_beta 90.000000
_cell_angle_gamma 90.000000
_cell_volume 2351.116075
_symmetry_space_group_name_H-M "C 2 2 2"
_symmetry_group_IT_number 21
_symmetry_cell_setting 'orthorhombic'
loop_
_space_group_symop_operation_xyz
x,y,z
-x,-y,z
x,-y,-z
-x,y,-z
1/2+x,1/2+y,z
1/2-x,1/2-y,z
1/2+x,1/2-y,-z
1/2-x,1/2+y,-z
loop_
_atom_site_type_symbol
_atom_site_label
_atom_site_fract_x
_atom_site_fract_y
_atom_site_fract_z
Si Si1 0.684667 0.674051 0.266375
Si Si2 0.077225 0.162323 0.321499
Si Si3 0.603467 0.052249 0.909314
Si Si4 0.700257 0.160838 0.159572
Si Si5 0.197353 0.857504 0.420763
Si Si6 0.052555 0.052784 0.843715
Si Si7 0.903829 0.639246 0.584793
O O1 0.629547 0.725870 0.285815
O O2 0.684015 0.429945 0.204077
O O3 0.704157 0.559213 0.348101
O O4 0.708731 0.936339 0.227857
O O5 0.064834 0.449490 0.358053
O O6 0.051269 0.034089 0.247404
O O7 0.081412 0.944159 0.392206
O O8 0.658206 0.967374 0.891892
O O9 0.570447 0.856815 0.856094
O O10 0.590175 0.357177 0.887445
O O11 0.592690 0.000000 0.000000
O O12 0.750000 0.250000 0.119583
O O13 0.250000 0.750000 0.438435
O O14 0.154256 0.650685 0.400121
O O15 0.179310 0.000000 0.500000
O O16 0.000000 0.000000 0.877686
O O17 0.909425 0.500000 0.500000
#
# Coordination Sequence:
#
# PCOD9325294 Si02
#       7
#     8   8   8   8   8   8   8
#     4  11  22  40  63  89 131 184 235 284 334 402
#     4  11  21  40  66  91 135 175 228 286 343 408
#     4  12  26  49  74 108 148 181 224 288 354 425
#     4  12  24  42  68  99 135 184 236 279 334 402
#     4  11  24  37  54  88 137 182 240 296 354 395
#     4  12  26  47  77 109 141 183 229 282 363 437
#     4  11  22  37  61  91 128 182 234 282 351 409
#
# _framework density 23.818476
#
# number of rings (size 3 to 8) (size 9 to 14) (size 15 to 20)
#    0.000    0.571    2.857    6.857    0.000    5.143 
#    0.000    2.857    0.000    2.571    0.000    0.000 
#    0.000    0.000    0.000    0.000    0.000    0.000 
#
# Total GULP energy -156651.315380 kJ/mol
# GULP energy per Si atom -5594.689835 kJ/mol
# Density = 2.376426 g / cm^3
# Si number density = 23.818476 Si / 1000 Ang^3
#
#
#
# Elastic Constant Matrix: (Units=GPa)
#
#
# Indices 1 2 3 4 5 6 
#
# 1 69.7493 3.1288 11.5836 0.0000 0.0000 0.0000
# 2 3.1288 91.4035 9.1708 0.0000 0.0000 0.0000
# 3 11.5836 9.1708 78.8169 0.0000 0.0000 0.0000
# 4 0.0000 0.0000 0.0000 30.0251 0.0000 0.0000
# 5 0.0000 0.0000 0.0000 0.0000 5.2320 0.0000
# 6 0.0000 0.0000 0.0000 0.0000 0.0000 -0.8972
#
#
#
# Elastic Compliance Matrix: (Units=1/GPa)
#
#
# Indices 1 2 3 4 5 6 
#
# 1 0.014703 -0.000290 -0.002127 0.000000 0.000000 0.000000
# 2 -0.000290 0.011075 -0.001246 0.000000 0.000000 0.000000
# 3 -0.002127 -0.001246 0.013145 0.000000 0.000000 0.000000
# 4 0.000000 0.000000 0.000000 0.033306 0.000000 0.000000
# 5 0.000000 0.000000 0.000000 0.000000 0.191133 0.000000
# 6 0.000000 0.000000 0.000000 0.000000 0.000000 -1.114608
#
#
# Mechanical properties :
#
#
# Convention : Reuss Voigt Hill
#
# Bulk Modulus (GPa) = 31.64787 31.97069 31.80928
# Shear Modulus (GPa) = -5.99961 21.27774 7.63906
#
# Velocity S-wave (km/s) = -1.58882 2.99210 1.79281
# Velocity P-wave (km/s) = 3.15438 5.03872 4.20350
#
# Compressibility (1/GPa) = 0.03159770
#
# Stress axis : x y z
#
# Youngs Moduli (GPa) = 68.01179 90.28976 76.07310
#
# Poissons Ratio (x) = 0.02617 0.16182
# Poissons Ratio (y) = 0.01971 0.09479
# Poissons Ratio (z) = 0.14467 0.11251
#
# Static dielectric constant tensor:
#      x y z
#    x 1.946680 0.000000 0.000000 
#    y 0.000000 1.896920 0.000000 
#    z 0.000000 0.000000 1.950390 
# 
# From -- ./inp_files/34021.got.cif
#   From: 2010.05.17/outbox.cif.g08.bks.cpg/sg21_18_cif.got.tgz:34021.got - 2010.06.03 23:14:55.
