data_PCOD9325330
_publ_section_title
;
Structure prediction by ZEFSAII (Michael W. Deem and Ramdas Pophale) SiO2 
 PCOD9325330
Probable space group: C 2 2 2
;
_chemical_formula_sum "Si O2"
_cell_formula_units_Z 26
_cell_length_a 12.450244
_cell_length_b 22.392769
_cell_length_c 4.873167
_cell_angle_alpha 90.000000
_cell_angle_beta 90.000000
_cell_angle_gamma 90.000000
_cell_volume 1358.616728
_symmetry_space_group_name_H-M "C 2 2 2"
_symmetry_group_IT_number 21
_symmetry_cell_setting 'orthorhombic'
loop_
_space_group_symop_operation_xyz
x,y,z
-x,-y,z
x,-y,-z
-x,y,-z
1/2+x,1/2+y,z
1/2-x,1/2-y,z
1/2+x,1/2-y,-z
1/2-x,1/2+y,-z
loop_
_atom_site_type_symbol
_atom_site_label
_atom_site_fract_x
_atom_site_fract_y
_atom_site_fract_z
Si Si1 0.000000 0.500000 0.500000
Si Si2 0.922088 0.227601 0.750941
Si Si3 0.713242 0.156152 0.685520
Si Si4 0.390438 0.101569 0.849761
O O1 0.927539 0.541559 0.695629
O O2 0.836313 0.176418 0.673994
O O3 0.851254 0.286694 0.805606
O O4 0.000000 0.240830 0.500000
O O5 0.000000 0.211835 0.000000
O O6 0.660864 0.141195 0.392261
O O7 0.692609 0.102282 0.898214
O O8 0.500000 0.123115 0.000000
#
# Coordination Sequence:
#
# PCOD9325330 Si02
#       4
#     2   8   8   8
#     4  12  26  36  62  92 124 144 206 240 330 342
#     4  11  22  37  57  87 124 162 205 237 276 371
#     4  11  23  36  59  87 121 168 196 234 309 343
#     4  12  22  38  57  88 124 151 190 249 303 365
#
# _framework density 19.137111999999998
#
# number of rings (size 3 to 8) (size 9 to 14) (size 15 to 20)
#    0.000    0.615    3.077    6.923    0.000    4.923 
#    0.000    0.000    0.000    0.000    0.000   16.154 
#    0.000    0.000    0.000    0.000    0.000    0.000 
#
# Total GULP energy -72561.234349 kJ/mol
# GULP energy per Si atom -5581.633411 kJ/mol
# Density = 1.909355 g / cm^3
# Si number density = 19.137112 Si / 1000 Ang^3
#
#
#
# Elastic Constant Matrix: (Units=GPa)
#
#
# Indices 1 2 3 4 5 6 
#
# 1 109.7446 36.7172 40.1006 0.0000 0.0000 0.0000
# 2 36.7172 39.0058 25.7620 0.0000 0.0000 0.0000
# 3 40.1006 25.7620 128.8187 0.0000 0.0000 0.0000
# 4 0.0000 0.0000 0.0000 38.5494 0.0000 0.0000
# 5 0.0000 0.0000 0.0000 0.0000 18.7016 0.0000
# 6 0.0000 0.0000 0.0000 0.0000 0.0000 -136.4324
#
#
#
# Elastic Compliance Matrix: (Units=1/GPa)
#
#
# Indices 1 2 3 4 5 6 
#
# 1 0.013711 -0.011623 -0.001944 0.000000 0.000000 0.000000
# 2 -0.011623 0.039391 -0.004260 0.000000 0.000000 0.000000
# 3 -0.001944 -0.004260 0.009220 0.000000 0.000000 0.000000
# 4 0.000000 0.000000 0.000000 0.025941 0.000000 0.000000
# 5 0.000000 0.000000 0.000000 0.000000 0.053471 0.000000
# 6 0.000000 0.000000 0.000000 0.000000 0.000000 -0.007330
#
#
# Mechanical properties :
#
#
# Convention : Reuss Voigt Hill
#
# Bulk Modulus (GPa) = 37.49551 53.63653 45.56602
# Shear Modulus (GPa) = 27.94131 -4.17033 11.88549
#
# Velocity S-wave (km/s) = 3.82522 -1.47781 2.49483
# Velocity P-wave (km/s) = 6.25662 5.01761 5.67106
#
# Compressibility (1/GPa) = 0.02666986
#
# Stress axis : x y z
#
# Youngs Moduli (GPa) = 72.93470 25.38634 108.46227
#
# Poissons Ratio (x) = 0.29506 0.21082
# Poissons Ratio (y) = 0.84769 0.46201
# Poissons Ratio (z) = 0.14177 0.10814
#
# Static dielectric constant tensor:
#      x y z
#    x 1.675650 0.000000 0.000000 
#    y 0.000000 1.708840 0.000000 
#    z 0.000000 0.000000 2.943280 
# 
# From -- ./inp_files/2252.got.cif
#   From: 2010.05.17/outbox.cif.g08.bks.cpg/sg21_2_cif.got.tgz:2252.got - 2010.06.03 23:14:55.
