data_PCOD9325482
_publ_section_title
;
Structure prediction by ZEFSAII (Michael W. Deem and Ramdas Pophale) SiO2 
 PCOD9325482
Probable space group: C 2 2 2
;
_chemical_formula_sum "Si O2"
_cell_formula_units_Z 40
_cell_length_a 12.254930
_cell_length_b 14.824919
_cell_length_c 10.198582
_cell_angle_alpha 90.000000
_cell_angle_beta 90.000000
_cell_angle_gamma 90.000000
_cell_volume 1852.861495
_symmetry_space_group_name_H-M "C 2 2 2"
_symmetry_group_IT_number 21
_symmetry_cell_setting 'orthorhombic'
loop_
_space_group_symop_operation_xyz
x,y,z
-x,-y,z
x,-y,-z
-x,y,-z
1/2+x,1/2+y,z
1/2-x,1/2-y,z
1/2+x,1/2-y,-z
1/2-x,1/2+y,-z
loop_
_atom_site_type_symbol
_atom_site_label
_atom_site_fract_x
_atom_site_fract_y
_atom_site_fract_z
Si Si1 0.007740 0.107365 0.845380
Si Si2 0.464146 0.908550 0.147646
Si Si3 0.631952 0.108429 0.504583
Si Si4 0.367074 0.762701 0.750849
Si Si5 0.751870 0.850649 0.764788
O O1 0.124747 0.121879 0.778706
O O2 0.919820 0.162670 0.758544
O O3 0.000000 0.000000 0.847619
O O4 0.000000 0.137982 0.000000
O O5 0.530529 0.822456 0.197948
O O6 0.334414 0.906758 0.151809
O O7 0.500000 0.000000 0.221532
O O8 0.500000 0.913616 0.000000
O O9 0.500000 0.117564 0.500000
O O10 0.664553 0.174919 0.624444
O O11 0.695811 0.145852 0.377944
O O12 0.655799 0.000000 0.500000
O O13 0.250000 0.750000 0.822616
O O14 0.750000 0.750000 0.816587
#
# Coordination Sequence:
#
# PCOD9325482 Si02
#       5
#     8   8   8   8   8
#     4  11  28  48  73 110 153 203 250 307 380 449
#     4  11  25  41  69 106 137 184 244 307 375 446
#     4  11  23  44  73 105 141 188 247 307 366 438
#     4  12  26  43  72 105 147 190 246 308 371 444
#     4  12  24  45  73  98 145 189 244 308 368 446
#
# _framework density 21.588229999999999
#
# number of rings (size 3 to 8) (size 9 to 14) (size 15 to 20)
#    0.000    0.600    4.000    2.400    8.400    1.600 
#    0.000    0.000    0.000    0.000    0.000    0.000 
#    0.000    0.000    0.000    0.000    0.000    0.000 
#
# Total GULP energy -111385.135003 kJ/mol
# GULP energy per Si atom -5569.256750 kJ/mol
# Density = 2.153909 g / cm^3
# Si number density = 21.588230 Si / 1000 Ang^3
#
#
#
# Elastic Constant Matrix: (Units=GPa)
#
#
# Indices 1 2 3 4 5 6 
#
# 1 162.4543 24.8433 7.1486 0.0000 0.0000 0.0000
# 2 24.8433 111.7556 1.4931 0.0000 0.0000 0.0000
# 3 7.1486 1.4931 80.7038 0.0000 0.0000 0.0000
# 4 0.0000 0.0000 0.0000 18.9153 0.0000 0.0000
# 5 0.0000 0.0000 0.0000 0.0000 -47.2274 0.0000
# 6 0.0000 0.0000 0.0000 0.0000 0.0000 -1.5703
#
#
#
# Elastic Compliance Matrix: (Units=1/GPa)
#
#
# Indices 1 2 3 4 5 6 
#
# 1 0.006396 -0.001415 -0.000540 0.000000 0.000000 0.000000
# 2 -0.001415 0.009263 -0.000046 0.000000 0.000000 0.000000
# 3 -0.000540 -0.000046 0.012440 0.000000 0.000000 0.000000
# 4 0.000000 0.000000 0.000000 0.052867 0.000000 0.000000
# 5 0.000000 0.000000 0.000000 0.000000 -0.021174 0.000000
# 6 0.000000 0.000000 0.000000 0.000000 0.000000 -0.636820
#
#
# Mechanical properties :
#
#
# Convention : Reuss Voigt Hill
#
# Bulk Modulus (GPa) = 41.49961 46.87596 44.18779
# Shear Modulus (GPa) = -8.84965 15.45212 3.30124
#
# Velocity S-wave (km/s) = -2.02687 2.67828 1.23794
# Velocity P-wave (km/s) = 3.71314 5.59688 4.74934
#
# Compressibility (1/GPa) = 0.02409661
#
# Stress axis : x y z
#
# Youngs Moduli (GPa) = 156.35574 107.95449 80.38780
#
# Poissons Ratio (x) = 0.15271 0.04344
# Poissons Ratio (y) = 0.22117 0.00370
# Poissons Ratio (z) = 0.08449 0.00497
#
# Static dielectric constant tensor:
#      x y z
#    x 1.670590 0.000000 0.000000 
#    y 0.000000 2.638480 0.000000 
#    z 0.000000 0.000000 1.865340 
# 
# From -- ./inp_files/23799.got.cif
#   From: 2010.05.17/outbox.cif.g08.bks.cpg/sg21_12_cif.got.tgz:23799.got - 2010.06.03 23:14:55.
