data_PCOD9325711
_publ_section_title
;
Structure prediction by ZEFSAII (Michael W. Deem and Ramdas Pophale) SiO2 
 PCOD9325711
Probable space group: C 2 2 2
;
_chemical_formula_sum "Si O2"
_cell_formula_units_Z 26
_cell_length_a 16.178839
_cell_length_b 11.575513
_cell_length_c 5.444524
_cell_angle_alpha 90.000000
_cell_angle_beta 90.000000
_cell_angle_gamma 90.000000
_cell_volume 1019.641532
_symmetry_space_group_name_H-M "C 2 2 2"
_symmetry_group_IT_number 21
_symmetry_cell_setting 'orthorhombic'
loop_
_space_group_symop_operation_xyz
x,y,z
-x,-y,z
x,-y,-z
-x,y,-z
1/2+x,1/2+y,z
1/2-x,1/2-y,z
1/2+x,1/2-y,-z
1/2-x,1/2+y,-z
loop_
_atom_site_type_symbol
_atom_site_label
_atom_site_fract_x
_atom_site_fract_y
_atom_site_fract_z
Si Si1 0.366282 0.612088 0.662174
Si Si2 0.378963 0.926349 0.246980
Si Si3 0.500000 0.787371 0.500000
Si Si4 0.500000 0.500000 0.000000
Si Si5 0.750000 0.250000 0.025630
O O1 0.341885 0.500000 0.500000
O O2 0.417124 0.711777 0.524138
O O3 0.440379 0.572118 0.834278
O O4 0.297856 0.664131 0.840310
O O5 0.469827 0.869649 0.281512
O O6 0.363708 0.000000 0.500000
O O7 0.309343 0.828099 0.194629
O O8 0.375448 0.000000 0.000000
#
# Coordination Sequence:
#
# PCOD9325711 Si02
#       5
#     8   8   4   2   4
#     4  12  27  53  84 124 172 226 287 362 424 526
#     4  12  31  57  85 123 171 225 283 364 427 524
#     4  12  26  54  88 116 166 228 294 340 438 516
#     4  12  22  52  84 114 174 214 290 344 426 504
#     4  12  32  52  84 128 174 222 292 356 456 500
#
# _framework density 25.49916
#
# number of rings (size 3 to 8) (size 9 to 14) (size 15 to 20)
#    0.000    0.000    3.077    4.154    2.154   16.000 
#    0.000    0.000    0.000    0.000    0.000    0.000 
#    0.000    0.000    0.000    0.000    0.000    0.000 
#
# Total GULP energy -72804.795244 kJ/mol
# GULP energy per Si atom -5600.368865 kJ/mol
# Density = 2.544112 g / cm^3
# Si number density = 25.499160 Si / 1000 Ang^3
#
#
#
# Elastic Constant Matrix: (Units=GPa)
#
#
# Indices 1 2 3 4 5 6 
#
# 1 148.3239 87.7836 82.2997 0.0000 0.0000 0.0000
# 2 87.7836 164.3699 112.2842 0.0000 0.0000 0.0000
# 3 82.2997 112.2842 196.3932 0.0000 0.0000 0.0000
# 4 0.0000 0.0000 0.0000 57.4686 0.0000 0.0000
# 5 0.0000 0.0000 0.0000 0.0000 63.7357 0.0000
# 6 0.0000 0.0000 0.0000 0.0000 0.0000 51.7080
#
#
#
# Elastic Compliance Matrix: (Units=1/GPa)
#
#
# Indices 1 2 3 4 5 6 
#
# 1 0.010280 -0.004180 -0.001918 0.000000 0.000000 0.000000
# 2 -0.004180 0.011682 -0.004927 0.000000 0.000000 0.000000
# 3 -0.001918 -0.004927 0.008713 0.000000 0.000000 0.000000
# 4 0.000000 0.000000 0.000000 0.017401 0.000000 0.000000
# 5 0.000000 0.000000 0.000000 0.000000 0.015690 0.000000
# 6 0.000000 0.000000 0.000000 0.000000 0.000000 0.019339
#
#
# Mechanical properties :
#
#
# Convention : Reuss Voigt Hill
#
# Bulk Modulus (GPa) = 115.95406 119.31357 117.63381
# Shear Modulus (GPa) = 46.28301 49.69708 47.99005
#
# Velocity S-wave (km/s) = 4.26500 4.41950 4.34294
# Velocity P-wave (km/s) = 8.35620 8.54022 8.44871
#
# Compressibility (1/GPa) = 0.00862411
#
# Stress axis : x y z
#
# Youngs Moduli (GPa) = 97.27489 85.60025 114.77293
#
# Poissons Ratio (x) = 0.35780 0.22016
# Poissons Ratio (y) = 0.40660 0.56554
# Poissons Ratio (z) = 0.18659 0.42179
#
# Static dielectric constant tensor:
#      x y z
#    x 1.947130 0.000000 0.000000 
#    y 0.000000 2.284270 0.000000 
#    z 0.000000 0.000000 1.983980 
# 
# From -- ./inp_files/4505.got.cif
#   From: 2010.05.17/outbox.cif.g08.bks.cpg/sg21_3_cif.got.tgz:4505.got - 2010.06.03 23:14:55.
