data_PCOD9325794
_publ_section_title
;
Structure prediction by ZEFSAII (Michael W. Deem and Ramdas Pophale) SiO2 
 PCOD9325794
Probable space group: C 2 2 2
;
_chemical_formula_sum "Si O2"
_cell_formula_units_Z 20
_cell_length_a 6.004031
_cell_length_b 13.920395
_cell_length_c 10.264619
_cell_angle_alpha 90.000000
_cell_angle_beta 90.000000
_cell_angle_gamma 90.000000
_cell_volume 857.901286
_symmetry_space_group_name_H-M "C 2 2 2"
_symmetry_group_IT_number 21
_symmetry_cell_setting 'orthorhombic'
loop_
_space_group_symop_operation_xyz
x,y,z
-x,-y,z
x,-y,-z
-x,y,-z
1/2+x,1/2+y,z
1/2-x,1/2-y,z
1/2+x,1/2-y,-z
1/2-x,1/2+y,-z
loop_
_atom_site_type_symbol
_atom_site_label
_atom_site_fract_x
_atom_site_fract_y
_atom_site_fract_z
Si Si1 0.500000 0.500000 0.000000
Si Si2 0.607966 0.894800 0.126688
Si Si3 0.655295 0.144168 0.381463
Si Si4 0.500000 0.500000 0.500000
O O1 0.357852 0.573563 0.909509
O O2 0.509998 0.849703 0.256799
O O3 0.500000 0.000000 0.134705
O O4 0.500000 0.844331 0.000000
O O5 0.500000 0.117268 0.500000
O O6 0.750000 0.250000 0.399381
O O7 0.854366 0.067135 0.401525
#
# Coordination Sequence:
#
# PCOD9325794 Si02
#       4
#     2   8   8   2
#     4   8  18  42  76 112 140 194 244 314 372 448
#     4   9  20  40  72 106 141 190 243 302 379 438
#     4  12  26  47  73 113 149 202 252 300 380 448
#     4  12  26  50  80 106 164 194 234 334 356 450
#
# _framework density 23.312705000000001
#
# number of rings (size 3 to 8) (size 9 to 14) (size 15 to 20)
#    0.000    2.000    2.000    3.000    0.000   14.400 
#    0.000    2.000   22.000    0.000    0.000    0.000 
#    0.000    0.000    0.000    0.000    0.000    0.000 
#
# Total GULP energy -55705.723274 kJ/mol
# GULP energy per Si atom -5570.572327 kJ/mol
# Density = 2.325964 g / cm^3
# Si number density = 23.312705 Si / 1000 Ang^3
#
#
#
# Elastic Constant Matrix: (Units=GPa)
#
#
# Indices 1 2 3 4 5 6 
#
# 1 149.5731 52.0633 52.7047 0.0000 0.0000 0.0000
# 2 52.0633 103.2647 2.2894 0.0000 0.0000 0.0000
# 3 52.7047 2.2894 124.7217 0.0000 0.0000 0.0000
# 4 0.0000 0.0000 0.0000 28.4674 0.0000 0.0000
# 5 0.0000 0.0000 0.0000 0.0000 40.2256 0.0000
# 6 0.0000 0.0000 0.0000 0.0000 0.0000 35.8933
#
#
#
# Elastic Compliance Matrix: (Units=1/GPa)
#
#
# Indices 1 2 3 4 5 6 
#
# 1 0.009803 -0.004853 -0.004054 0.000000 0.000000 0.000000
# 2 -0.004853 0.012090 0.001829 0.000000 0.000000 0.000000
# 3 -0.004054 0.001829 0.009697 0.000000 0.000000 0.000000
# 4 0.000000 0.000000 0.000000 0.035128 0.000000 0.000000
# 5 0.000000 0.000000 0.000000 0.000000 0.024860 0.000000
# 6 0.000000 0.000000 0.000000 0.000000 0.000000 0.027860
#
#
# Mechanical properties :
#
#
# Convention : Reuss Voigt Hill
#
# Bulk Modulus (GPa) = 57.35484 65.74161 61.54822
# Shear Modulus (GPa) = 35.86675 38.95073 37.40874
#
# Velocity S-wave (km/s) = 3.92664 4.09197 4.01015
# Velocity P-wave (km/s) = 6.72412 7.11244 6.92100
#
# Compressibility (1/GPa) = 0.01743532
#
# Stress axis : x y z
#
# Youngs Moduli (GPa) = 102.00838 82.71396 103.12243
#
# Poissons Ratio (x) = 0.40138 0.41801
# Poissons Ratio (y) = 0.49501 -0.18858
# Poissons Ratio (z) = 0.41349 -0.15126
#
# Static dielectric constant tensor:
#      x y z
#    x 2.052100 0.000000 0.000000 
#    y 0.000000 1.831120 0.000000 
#    z 0.000000 0.000000 2.040290 
# 
# From -- ./inp_files/8463.got.cif
#   From: 2010.05.17/outbox.cif.g08.bks.cpg/sg21_5_cif.got.tgz:8463.got - 2010.06.03 23:14:55.
