data_PCOD9325034
_publ_section_title
;
Structure prediction by ZEFSAII (Michael W. Deem and Ramdas Pophale) SiO2 
 PCOD9325034
Probable space group: C 2 2 2
;
_chemical_formula_sum "Si O2"
_cell_formula_units_Z 48
_cell_length_a 26.922342
_cell_length_b 8.844343
_cell_length_c 9.802867
_cell_angle_alpha 90.000000
_cell_angle_beta 90.000000
_cell_angle_gamma 90.000000
_cell_volume 2334.164847
_symmetry_space_group_name_H-M "C 2 2 2"
_symmetry_group_IT_number 21
_symmetry_cell_setting 'orthorhombic'
loop_
_space_group_symop_operation_xyz
x,y,z
-x,-y,z
x,-y,-z
-x,y,-z
1/2+x,1/2+y,z
1/2-x,1/2-y,z
1/2+x,1/2-y,-z
1/2-x,1/2+y,-z
loop_
_atom_site_type_symbol
_atom_site_label
_atom_site_fract_x
_atom_site_fract_y
_atom_site_fract_z
Si Si1 0.429919 0.315979 0.270615
Si Si2 0.974444 0.659401 0.810274
Si Si3 0.092793 0.656646 0.446972
Si Si4 0.855461 0.936381 0.650549
Si Si5 0.708246 0.626401 0.893459
Si Si6 0.117718 0.323136 0.010990
O O1 0.484868 0.290826 0.211023
O O2 0.427990 0.244689 0.421545
O O3 0.404577 0.479602 0.289478
O O4 0.395538 0.222195 0.165693
O O5 0.949554 0.628392 0.663851
O O6 0.931863 0.697440 0.919004
O O7 0.000000 0.500000 0.848918
O O8 0.113987 0.500000 0.500000
O O9 0.132383 0.761282 0.371612
O O10 0.811256 0.953361 0.756484
O O11 0.845315 0.000000 0.500000
O O12 0.750000 0.750000 0.866105
O O13 0.660646 0.713767 0.956687
O O14 0.725587 0.500000 0.000000
O O15 0.131300 0.500000 0.000000
#
# Coordination Sequence:
#
# PCOD9325034 Si02
#       6
#     8   8   8   8   8   8
#     4  11  23  37  64  95 147 185 226 278 335 397
#     4  12  22  36  63  99 143 192 236 275 323 402
#     4  11  21  39  64  96 138 190 236 275 323 395
#     4  10  24  47  69  99 142 176 226 289 351 413
#     4  12  26  51  76 100 129 172 226 294 361 425
#     4  12  23  41  67 102 139 184 231 286 339 407
#
# _framework density 20.5641
#
# number of rings (size 3 to 8) (size 9 to 14) (size 15 to 20)
#    0.000    0.667    6.667    1.500    0.000    0.667 
#    0.000    4.167    0.000    0.000    0.000    0.000 
#    0.000    0.000    0.000    0.000    0.000    0.000 
#
# Total GULP energy -134202.718157 kJ/mol
# GULP energy per Si atom -5591.779923 kJ/mol
# Density = 2.051730 g / cm^3
# Si number density = 20.564100 Si / 1000 Ang^3
#
#
#
# Elastic Constant Matrix: (Units=GPa)
#
#
# Indices 1 2 3 4 5 6 
#
# 1 53.7651 8.4882 19.4748 0.0000 0.0000 0.0000
# 2 8.4882 88.4611 14.1950 0.0000 0.0000 0.0000
# 3 19.4748 14.1950 106.7573 0.0000 0.0000 0.0000
# 4 0.0000 0.0000 0.0000 31.0084 0.0000 0.0000
# 5 0.0000 0.0000 0.0000 0.0000 10.1642 0.0000
# 6 0.0000 0.0000 0.0000 0.0000 0.0000 37.9335
#
#
#
# Elastic Compliance Matrix: (Units=1/GPa)
#
#
# Indices 1 2 3 4 5 6 
#
# 1 0.020076 -0.001368 -0.003480 0.000000 0.000000 0.000000
# 2 -0.001368 0.011644 -0.001299 0.000000 0.000000 0.000000
# 3 -0.003480 -0.001299 0.010175 0.000000 0.000000 0.000000
# 4 0.000000 0.000000 0.000000 0.032249 0.000000 0.000000
# 5 0.000000 0.000000 0.000000 0.000000 0.098385 0.000000
# 6 0.000000 0.000000 0.000000 0.000000 0.000000 0.026362
#
#
# Mechanical properties :
#
#
# Convention : Reuss Voigt Hill
#
# Bulk Modulus (GPa) = 33.78300 37.03329 35.40814
# Shear Modulus (GPa) = 22.61913 29.60958 26.11436
#
# Velocity S-wave (km/s) = 3.32012 3.79868 3.56743
# Velocity P-wave (km/s) = 5.58224 6.10637 5.85018
#
# Compressibility (1/GPa) = 0.02960069
#
# Stress axis : x y z
#
# Youngs Moduli (GPa) = 49.81053 85.88070 98.28368
#
# Poissons Ratio (x) = 0.11747 0.34207
# Poissons Ratio (y) = 0.06814 0.12764
# Poissons Ratio (z) = 0.17336 0.11154
#
# Static dielectric constant tensor:
#      x y z
#    x 1.712150 0.000000 0.000000 
#    y 0.000000 1.752030 0.000000 
#    z 0.000000 0.000000 1.732880 
# 
# From -- ./inp_files/19668.got.cif
#   From: 2010.05.17/outbox.cif.g08.bks.cpg/sg21_10_cif.got.tgz:19668.got - 2010.06.03 23:14:55.
