data_PCOD9325969
_publ_section_title
;
Structure prediction by ZEFSAII (Michael W. Deem and Ramdas Pophale) SiO2 
 PCOD9325969
Probable space group: F 2 2 2
;
_chemical_formula_sum "Si O2"
_cell_formula_units_Z 88
_cell_length_a 18.786396
_cell_length_b 13.850618
_cell_length_c 13.315924
_cell_angle_alpha 90.000000
_cell_angle_beta 90.000000
_cell_angle_gamma 90.000000
_cell_volume 3464.845964
_symmetry_space_group_name_H-M "F 2 2 2"
_symmetry_group_IT_number 22
_symmetry_cell_setting 'orthorhombic'
loop_
_space_group_symop_operation_xyz
x,y,z
-x,-y,z
x,-y,-z
-x,y,-z
x,1/2+y,1/2+z
-x,1/2-y,1/2+z
x,1/2-y,1/2-z
-x,1/2+y,1/2-z
1/2+x,y,1/2+z
1/2-x,-y,1/2+z
1/2+x,-y,1/2-z
1/2-x,y,1/2-z
1/2+x,1/2+y,z
1/2-x,1/2-y,z
1/2+x,1/2-y,-z
1/2-x,1/2+y,-z
loop_
_atom_site_type_symbol
_atom_site_label
_atom_site_fract_x
_atom_site_fract_y
_atom_site_fract_z
Si Si1 0.423713 0.626933 0.545308
Si Si2 0.736863 0.110705 0.022728
Si Si3 0.442628 0.633481 0.762648
Si Si4 0.882758 0.657785 0.466056
Si Si5 0.250000 0.395494 0.750000
Si Si6 0.106135 0.139918 0.796367
O O1 0.500000 0.597923 0.500000
O O2 0.347622 0.610049 0.493622
O O3 0.415526 0.590430 0.658570
O O4 0.424523 0.742616 0.544489
O O5 0.748385 0.145230 0.136855
O O6 0.796863 0.167130 0.958527
O O7 0.759380 0.000000 0.000000
O O8 0.429185 0.750000 0.750000
O O9 0.410673 0.600021 0.869097
O O10 0.527078 0.618562 0.761337
O O11 0.895568 0.631453 0.582297
O O12 0.168375 0.429975 0.743962
O O13 0.121802 0.250000 0.750000
#
# Coordination Sequence:
#
# PCOD9325969 Si02
#       6
#    16  16  16  16   8  16
#     4  11  21  37  62  90 118 150 193 243 295 348
#     4  11  25  41  59  84 118 156 195 237 289 352
#     4   9  18  31  54  86 118 150 186 239 297 345
#     4  10  20  36  59  86 115 153 198 243 288 341
#     4  10  21  36  56  80 109 154 202 238 280 340
#     4  10  17  30  55  86 117 148 190 244 294 338
#
# _framework density 25.397953999999999
#
# number of rings (size 3 to 8) (size 9 to 14) (size 15 to 20)
#    0.000    1.818    0.000    6.818    0.000    5.455 
#    0.000    2.727    0.000   18.000    0.000    0.000 
#    0.000    0.000    0.000    0.000    0.000    0.000 
#
# Total GULP energy -122503.519785 kJ/mol
# GULP energy per Si atom -5568.341808 kJ/mol
# Density = 2.534015 g / cm^3
# Si number density = 25.397954 Si / 1000 Ang^3
#
#
#
# Elastic Constant Matrix: (Units=GPa)
#
#
# Indices 1 2 3 4 5 6 
#
# 1 182.2777 26.0104 81.2695 0.0000 0.0000 0.0000
# 2 26.0104 80.2305 29.7214 0.0000 0.0000 0.0000
# 3 81.2695 29.7214 173.4713 0.0000 0.0000 0.0000
# 4 0.0000 0.0000 0.0000 8.4195 0.0000 0.0000
# 5 0.0000 0.0000 0.0000 0.0000 43.3851 0.0000
# 6 0.0000 0.0000 0.0000 0.0000 0.0000 370.7483
#
#
#
# Elastic Compliance Matrix: (Units=1/GPa)
#
#
# Indices 1 2 3 4 5 6 
#
# 1 0.007029 -0.001131 -0.003099 0.000000 0.000000 0.000000
# 2 -0.001131 0.013491 -0.001782 0.000000 0.000000 0.000000
# 3 -0.003099 -0.001782 0.007522 0.000000 0.000000 0.000000
# 4 0.000000 0.000000 0.000000 0.118772 0.000000 0.000000
# 5 0.000000 0.000000 0.000000 0.000000 0.023049 0.000000
# 6 0.000000 0.000000 0.000000 0.000000 0.000000 0.002697
#
#
# Mechanical properties :
#
#
# Convention : Reuss Voigt Hill
#
# Bulk Modulus (GPa) = 62.42841 78.88690 70.65766
# Shear Modulus (GPa) = 26.32634 104.44245 65.38439
#
# Velocity S-wave (km/s) = 3.22305 6.41963 5.07936
# Velocity P-wave (km/s) = 6.20356 9.27775 7.89179
#
# Compressibility (1/GPa) = 0.01601835
#
# Stress axis : x y z
#
# Youngs Moduli (GPa) = 142.25965 74.12521 132.94381
#
# Poissons Ratio (x) = 0.08381 0.41206
# Poissons Ratio (y) = 0.16085 0.23686
# Poissons Ratio (z) = 0.44093 0.13207
#
# Static dielectric constant tensor:
#      x y z
#    x 1.968680 0.000000 0.000000 
#    y 0.000000 2.261180 0.000000 
#    z 0.000000 0.000000 1.971890 
# 
# From -- ./inp_files/21392.got.cif
#   From: 2010.05.17/outbox.cif.g08.bks.cpg/sg22_11_cif.got.tgz:21392.got - 2010.06.03 23:40:54.
