data_PCOD9325172
_publ_section_title
;
Structure prediction by ZEFSAII (Michael W. Deem and Ramdas Pophale) SiO2 
 PCOD9325172
Probable space group: C 2 2 2
;
_chemical_formula_sum "Si O2"
_cell_formula_units_Z 18
_cell_length_a 5.263185
_cell_length_b 26.787962
_cell_length_c 5.090912
_cell_angle_alpha 90.000000
_cell_angle_beta 90.000000
_cell_angle_gamma 90.000000
_cell_volume 717.767682
_symmetry_space_group_name_H-M "C 2 2 2"
_symmetry_group_IT_number 21
_symmetry_cell_setting 'orthorhombic'
loop_
_space_group_symop_operation_xyz
x,y,z
-x,-y,z
x,-y,-z
-x,y,-z
1/2+x,1/2+y,z
1/2-x,1/2-y,z
1/2+x,1/2-y,-z
1/2-x,1/2+y,-z
loop_
_atom_site_type_symbol
_atom_site_label
_atom_site_fract_x
_atom_site_fract_y
_atom_site_fract_z
Si Si1 0.000000 0.500000 0.500000
Si Si2 0.750000 0.750000 0.177896
Si Si3 0.820529 0.085838 0.251231
Si Si4 0.500000 0.166492 0.500000
O O1 0.168192 0.535154 0.312592
O O2 0.702964 0.797559 0.362646
O O3 0.500000 0.743751 0.000000
O O4 0.623122 0.131162 0.278780
O O5 0.000000 0.092816 0.500000
O O6 0.000000 0.084420 0.000000
#
# Coordination Sequence:
#
# PCOD9325172 Si02
#       4
#     2   4   8   4
#     4  10  26  54  80 124 164 218 282 344 422 512
#     4  12  30  50  84 118 172 228 292 348 426 500
#     4  11  28  50  84 119 168 218 277 349 425 503
#     4  11  30  49  76 126 166 223 284 351 418 510
#
# _framework density 25.077750000000002
#
# number of rings (size 3 to 8) (size 9 to 14) (size 15 to 20)
#    0.000    0.889    0.000    2.000   15.556   10.667 
#    0.000    6.667    0.000    0.000    0.000    0.000 
#    0.000    0.000    0.000    0.000    0.000    0.000 
#
# Total GULP energy -50566.614810 kJ/mol
# GULP energy per Si atom -5618.512757 kJ/mol
# Density = 2.502067 g / cm^3
# Si number density = 25.077750 Si / 1000 Ang^3
#
#
#
# Elastic Constant Matrix: (Units=GPa)
#
#
# Indices 1 2 3 4 5 6 
#
# 1 166.7317 98.9869 99.8752 0.0000 0.0000 0.0000
# 2 98.9869 219.5078 90.7093 0.0000 0.0000 0.0000
# 3 99.8752 90.7093 211.4008 0.0000 0.0000 0.0000
# 4 0.0000 0.0000 0.0000 0.0323 0.0000 0.0000
# 5 0.0000 0.0000 0.0000 0.0000 75.4370 0.0000
# 6 0.0000 0.0000 0.0000 0.0000 0.0000 133.7668
#
#
#
# Elastic Compliance Matrix: (Units=1/GPa)
#
#
# Indices 1 2 3 4 5 6 
#
# 1 0.009794 -0.003044 -0.003321 0.000000 0.000000 0.000000
# 2 -0.003044 0.006484 -0.001344 0.000000 0.000000 0.000000
# 3 -0.003321 -0.001344 0.006876 0.000000 0.000000 0.000000
# 4 0.000000 0.000000 0.000000 30.920522 0.000000 0.000000
# 5 0.000000 0.000000 0.000000 0.000000 0.013256 0.000000
# 6 0.000000 0.000000 0.000000 0.000000 0.000000 0.007476
#
#
# Mechanical properties :
#
#
# Convention : Reuss Voigt Hill
#
# Bulk Modulus (GPa) = 129.26990 130.75370 130.01180
# Shear Modulus (GPa) = 0.16138 62.38514 31.27326
#
# Velocity S-wave (km/s) = 0.25395 4.99306 3.53519
# Velocity P-wave (km/s) = 7.19344 9.24627 8.28369
#
# Compressibility (1/GPa) = 0.00773575
#
# Stress axis : x y z
#
# Youngs Moduli (GPa) = 102.09863 154.22952 145.43427
#
# Poissons Ratio (x) = 0.46954 0.48299
# Poissons Ratio (y) = 0.31083 0.19544
# Poissons Ratio (z) = 0.33907 0.20726
#
# Static dielectric constant tensor:
#      x y z
#    x 1.969170 0.000000 0.000000 
#    y 0.000000 1.980920 0.000000 
#    z 0.000000 0.000000 1.929770 
# 
# From -- ./inp_files/487.got.cif
#   From: 2010.05.17/outbox.cif.g08.bks.cpg/sg21_1_cif.got.tgz:487.got - 2010.06.03 23:14:55.
