data_PCOD9325871
_publ_section_title
;
Structure prediction by ZEFSAII (Michael W. Deem and Ramdas Pophale) SiO2 
 PCOD9325871
Probable space group: F 2 2 2
;
_chemical_formula_sum "Si O2"
_cell_formula_units_Z 108
_cell_length_a 22.031631
_cell_length_b 13.956019
_cell_length_c 18.699430
_cell_angle_alpha 90.000000
_cell_angle_beta 90.000000
_cell_angle_gamma 90.000000
_cell_volume 5749.585938
_symmetry_space_group_name_H-M "F 2 2 2"
_symmetry_group_IT_number 22
_symmetry_cell_setting 'orthorhombic'
loop_
_space_group_symop_operation_xyz
x,y,z
-x,-y,z
x,-y,-z
-x,y,-z
x,1/2+y,1/2+z
-x,1/2-y,1/2+z
x,1/2-y,1/2-z
-x,1/2+y,1/2-z
1/2+x,y,1/2+z
1/2-x,-y,1/2+z
1/2+x,-y,1/2-z
1/2-x,y,1/2-z
1/2+x,1/2+y,z
1/2-x,1/2-y,z
1/2+x,1/2-y,-z
1/2-x,1/2+y,-z
loop_
_atom_site_type_symbol
_atom_site_label
_atom_site_fract_x
_atom_site_fract_y
_atom_site_fract_z
Si Si1 0.586033 0.582719 0.613998
Si Si2 0.000000 0.000000 0.264784
Si Si3 0.782809 0.589514 0.554816
Si Si4 0.000000 0.500000 0.000000
Si Si5 0.782474 0.561340 0.326857
Si Si6 0.340338 0.893316 0.891780
Si Si7 0.839494 0.214917 0.463672
Si Si8 0.098497 0.643324 0.739211
O O1 0.547482 0.559024 0.684656
O O2 0.539329 0.565800 0.550520
O O3 0.638737 0.503466 0.598224
O O4 0.615849 0.684700 0.600502
O O5 0.956296 0.928259 0.222962
O O6 0.779973 0.500000 0.500000
O O7 0.793859 0.537929 0.631178
O O8 0.831171 0.671246 0.534370
O O9 0.721971 0.654071 0.552309
O O10 0.750000 0.544488 0.250000
O O11 0.731249 0.614910 0.374415
O O12 0.843646 0.621889 0.312068
O O13 0.375164 0.872333 0.818863
O O14 0.358065 0.828212 0.958860
O O15 0.075166 0.750000 0.750000
#
# Coordination Sequence:
#
# PCOD9325871 Si02
#       8
#    16   8  16   4  16  16  16  16
#     4  10  17  33  57  87 116 144 193 248 295 341
#     4   9  22  41  60  84 117 150 209 258 286 339
#     4  11  22  35  54  90 125 162 193 236 301 375
#     4  10  16  24  56  88 110 148 174 246 298 314
#     4  10  21  38  59  85 127 156 195 248 307 358
#     4  10  18  34  60  90 119 149 189 259 294 362
#     4  11  20  33  60  85 126 158 193 233 310 362
#     4  10  23  39  61  84 115 157 208 246 305 354
#
# _framework density 18.783961999999999
#
# number of rings (size 3 to 8) (size 9 to 14) (size 15 to 20)
#    0.000    1.778    4.444    0.000    2.074    2.667 
#    2.667    1.481    0.000    0.000    0.000    0.000 
#    0.000    0.000    0.000    0.000    0.000    0.000 
#
# Total GULP energy -150309.082851 kJ/mol
# GULP energy per Si atom -5567.003069 kJ/mol
# Density = 1.874121 g / cm^3
# Si number density = 18.783962 Si / 1000 Ang^3
#
#
#
# Elastic Constant Matrix: (Units=GPa)
#
#
# Indices 1 2 3 4 5 6 
#
# 1 80.5638 30.6594 2.0892 0.0000 0.0000 0.0000
# 2 30.6594 94.7776 6.9462 0.0000 0.0000 0.0000
# 3 2.0892 6.9462 35.1711 0.0000 0.0000 0.0000
# 4 0.0000 0.0000 0.0000 5.6350 0.0000 0.0000
# 5 0.0000 0.0000 0.0000 0.0000 31.6072 0.0000
# 6 0.0000 0.0000 0.0000 0.0000 0.0000 21.7693
#
#
#
# Elastic Compliance Matrix: (Units=1/GPa)
#
#
# Indices 1 2 3 4 5 6 
#
# 1 0.014155 -0.004584 0.000064 0.000000 0.000000 0.000000
# 2 -0.004584 0.012190 -0.002135 0.000000 0.000000 0.000000
# 3 0.000064 -0.002135 0.028850 0.000000 0.000000 0.000000
# 4 0.000000 0.000000 0.000000 0.177463 0.000000 0.000000
# 5 0.000000 0.000000 0.000000 0.000000 0.031638 0.000000
# 6 0.000000 0.000000 0.000000 0.000000 0.000000 0.045936
#
#
# Mechanical properties :
#
#
# Convention : Reuss Voigt Hill
#
# Bulk Modulus (GPa) = 23.87395 32.21134 28.04264
# Shear Modulus (GPa) = 14.81461 23.19015 19.00238
#
# Velocity S-wave (km/s) = 2.81140 3.51746 3.18406
# Velocity P-wave (km/s) = 4.82452 5.80364 5.33658
#
# Compressibility (1/GPa) = 0.04188667
#
# Stress axis : x y z
#
# Youngs Moduli (GPa) = 70.64520 82.03246 34.66168
#
# Poissons Ratio (x) = 0.37602 -0.00223
# Poissons Ratio (y) = 0.32382 0.07401
# Poissons Ratio (z) = -0.00455 0.17516
#
# Static dielectric constant tensor:
#      x y z
#    x 1.711180 0.000000 0.000000 
#    y 0.000000 1.633230 0.000000 
#    z 0.000000 0.000000 1.675420 
# 
# From -- ./inp_files/45385.got.cif
#   From: 2010.05.17/outbox.cif.g08.bks.cpg/sg22_23_cif.got.tgz:45385.got - 2010.06.03 23:40:54.
