data_PCOD9325709
_publ_section_title
;
Structure prediction by ZEFSAII (Michael W. Deem and Ramdas Pophale) SiO2 
 PCOD9325709
Probable space group: C 2 2 2
;
_chemical_formula_sum "Si O2"
_cell_formula_units_Z 22
_cell_length_a 7.670104
_cell_length_b 17.277920
_cell_length_c 6.783453
_cell_angle_alpha 90.000000
_cell_angle_beta 90.000000
_cell_angle_gamma 90.000000
_cell_volume 898.966549
_symmetry_space_group_name_H-M "C 2 2 2"
_symmetry_group_IT_number 21
_symmetry_cell_setting 'orthorhombic'
loop_
_space_group_symop_operation_xyz
x,y,z
-x,-y,z
x,-y,-z
-x,y,-z
1/2+x,1/2+y,z
1/2-x,1/2-y,z
1/2+x,1/2-y,-z
1/2-x,1/2+y,-z
loop_
_atom_site_type_symbol
_atom_site_label
_atom_site_fract_x
_atom_site_fract_y
_atom_site_fract_z
Si Si1 0.500000 0.500000 0.000000
Si Si2 0.500000 0.130677 0.000000
Si Si3 0.233621 0.460102 0.299422
Si Si4 0.750000 0.250000 0.209419
Si Si5 0.000000 0.158282 0.500000
O O1 0.349154 0.481247 0.835102
O O2 0.418965 0.078732 0.173611
O O3 0.653252 0.185908 0.078885
O O4 0.180339 0.500000 0.500000
O O5 0.366836 0.393150 0.371294
O O6 0.892036 0.210374 0.349072
#
# Coordination Sequence:
#
# PCOD9325709 Si02
#       5
#     2   4   8   4   4
#     4  12  22  52  72 118 154 202 250 308 414 448
#     4  12  28  50  80 116 160 202 268 316 386 472
#     4  12  26  50  79 117 159 204 256 328 396 462
#     4  12  26  50  78 114 150 214 260 316 382 460
#     4  12  23  50  76 112 159 202 262 320 388 462
#
# _framework density 24.472546999999999
#
# number of rings (size 3 to 8) (size 9 to 14) (size 15 to 20)
#    0.000    0.000    3.636    6.545    0.000    0.727 
#    6.545    0.000    0.000    0.000    0.000    0.000 
#    0.000    0.000    0.000    0.000    0.000    0.000 
#
# Total GULP energy -61536.630166 kJ/mol
# GULP energy per Si atom -5594.239106 kJ/mol
# Density = 2.441685 g / cm^3
# Si number density = 24.472547 Si / 1000 Ang^3
#
#
#
# Elastic Constant Matrix: (Units=GPa)
#
#
# Indices 1 2 3 4 5 6 
#
# 1 163.8234 81.3645 108.3723 0.0000 0.0000 0.0000
# 2 81.3645 135.0761 84.9164 0.0000 0.0000 0.0000
# 3 108.3723 84.9164 210.2424 0.0000 0.0000 0.0000
# 4 0.0000 0.0000 0.0000 244.2509 0.0000 0.0000
# 5 0.0000 0.0000 0.0000 0.0000 87.5956 0.0000
# 6 0.0000 0.0000 0.0000 0.0000 0.0000 45.9555
#
#
#
# Elastic Compliance Matrix: (Units=1/GPa)
#
#
# Indices 1 2 3 4 5 6 
#
# 1 0.010645 -0.003971 -0.003883 0.000000 0.000000 0.000000
# 2 -0.003971 0.011404 -0.002559 0.000000 0.000000 0.000000
# 3 -0.003883 -0.002559 0.007792 0.000000 0.000000 0.000000
# 4 0.000000 0.000000 0.000000 0.004094 0.000000 0.000000
# 5 0.000000 0.000000 0.000000 0.000000 0.011416 0.000000
# 6 0.000000 0.000000 0.000000 0.000000 0.000000 0.021760
#
#
# Mechanical properties :
#
#
# Convention : Reuss Voigt Hill
#
# Bulk Modulus (GPa) = 110.93796 117.60539 114.27167
# Shear Modulus (GPa) = 54.97930 91.19299 73.08615
#
# Velocity S-wave (km/s) = 4.74494 6.11100 5.47077
# Velocity P-wave (km/s) = 8.68616 9.89711 9.31134
#
# Compressibility (1/GPa) = 0.00901405
#
# Stress axis : x y z
#
# Youngs Moduli (GPa) = 93.93810 87.68830 128.34007
#
# Poissons Ratio (x) = 0.34821 0.49840
# Poissons Ratio (y) = 0.37303 0.32844
# Poissons Ratio (z) = 0.36480 0.22441
#
# Static dielectric constant tensor:
#      x y z
#    x 1.936320 0.000000 0.000000 
#    y 0.000000 1.949740 0.000000 
#    z 0.000000 0.000000 1.901090 
# 
# From -- ./inp_files/1038.got.cif
#   From: 2010.05.17/outbox.cif.g08.bks.cpg/sg21_1_cif.got.tgz:1038.got - 2010.06.03 23:14:55.
