data_PCOD9325533
_publ_section_title
;
Structure prediction by ZEFSAII (Michael W. Deem and Ramdas Pophale) SiO2 
 PCOD9325533
Probable space group: C 2 2 2
;
_chemical_formula_sum "Si O2"
_cell_formula_units_Z 32
_cell_length_a 5.378006
_cell_length_b 17.270584
_cell_length_c 15.463128
_cell_angle_alpha 90.000000
_cell_angle_beta 90.000000
_cell_angle_gamma 90.000000
_cell_volume 1436.235498
_symmetry_space_group_name_H-M "C 2 2 2"
_symmetry_group_IT_number 21
_symmetry_cell_setting 'orthorhombic'
loop_
_space_group_symop_operation_xyz
x,y,z
-x,-y,z
x,-y,-z
-x,y,-z
1/2+x,1/2+y,z
1/2-x,1/2-y,z
1/2+x,1/2-y,-z
1/2-x,1/2+y,-z
loop_
_atom_site_type_symbol
_atom_site_label
_atom_site_fract_x
_atom_site_fract_y
_atom_site_fract_z
Si Si1 0.750000 0.250000 0.156198
Si Si2 0.253631 0.344244 0.451941
Si Si3 0.751707 0.949800 0.103261
Si Si4 0.000000 0.668932 0.000000
Si Si5 0.636174 0.663924 0.254009
O O1 0.642880 0.317176 0.218607
O O2 0.946171 0.282372 0.085874
O O3 0.500000 0.372491 0.500000
O O4 0.250000 0.250000 0.457270
O O5 0.301401 0.361613 0.351202
O O6 0.000000 0.370389 0.500000
O O7 0.758683 0.899586 0.190010
O O8 0.500000 0.000000 0.102605
O O9 0.724159 0.887788 0.025794
O O10 0.000000 0.000000 0.099164
O O11 0.750000 0.750000 0.246158
#
# Coordination Sequence:
#
# PCOD9325533 Si02
#       5
#     4   8   8   4   8
#     4  12  24  42  70 104 140 180 250 298 350 402
#     4   9  20  35  63  99 133 166 212 278 345 407
#     4  12  28  47  67  98 139 185 233 287 349 412
#     4  12  25  44  68  98 137 190 238 298 345 410
#     4  11  24  43  70  99 135 181 229 291 343 417
#
# _framework density 22.280467000000002
#
# number of rings (size 3 to 8) (size 9 to 14) (size 15 to 20)
#    0.000    1.000    2.500    3.375    8.750    6.000 
#    0.000    0.000    0.000    4.500    0.000    0.000 
#    0.000    0.000    0.000    0.000    0.000    0.000 
#
# Total GULP energy -89363.518771 kJ/mol
# GULP energy per Si atom -5585.219923 kJ/mol
# Density = 2.222976 g / cm^3
# Si number density = 22.280467 Si / 1000 Ang^3
#
#
#
# Elastic Constant Matrix: (Units=GPa)
#
#
# Indices 1 2 3 4 5 6 
#
# 1 147.9851 34.8554 73.4820 0.0000 0.0000 0.0000
# 2 34.8554 50.5898 39.5943 0.0000 0.0000 0.0000
# 3 73.4820 39.5943 207.7800 0.0000 0.0000 0.0000
# 4 0.0000 0.0000 0.0000 21.0594 0.0000 0.0000
# 5 0.0000 0.0000 0.0000 0.0000 31.9552 0.0000
# 6 0.0000 0.0000 0.0000 0.0000 0.0000 32.9685
#
#
#
# Elastic Compliance Matrix: (Units=1/GPa)
#
#
# Indices 1 2 3 4 5 6 
#
# 1 0.008937 -0.004329 -0.002336 0.000000 0.000000 0.000000
# 2 -0.004329 0.025329 -0.003296 0.000000 0.000000 0.000000
# 3 -0.002336 -0.003296 0.006267 0.000000 0.000000 0.000000
# 4 0.000000 0.000000 0.000000 0.047485 0.000000 0.000000
# 5 0.000000 0.000000 0.000000 0.000000 0.031294 0.000000
# 6 0.000000 0.000000 0.000000 0.000000 0.000000 0.030332
#
#
# Mechanical properties :
#
#
# Convention : Reuss Voigt Hill
#
# Bulk Modulus (GPa) = 48.51634 78.02425 63.27029
# Shear Modulus (GPa) = 28.33909 34.42483 31.38196
#
# Velocity S-wave (km/s) = 3.57028 3.93500 3.75707
# Velocity P-wave (km/s) = 6.23044 7.46597 6.87601
#
# Compressibility (1/GPa) = 0.02061161
#
# Stress axis : x y z
#
# Youngs Moduli (GPa) = 111.89605 39.48041 159.57233
#
# Poissons Ratio (x) = 0.17093 0.37269
# Poissons Ratio (y) = 0.48444 0.52588
# Poissons Ratio (z) = 0.26134 0.13011
#
# Static dielectric constant tensor:
#      x y z
#    x 1.954770 0.000000 0.000000 
#    y 0.000000 1.829130 0.000000 
#    z 0.000000 0.000000 1.818010 
# 
# From -- ./inp_files/28758.got.cif
#   From: 2010.05.17/outbox.cif.g08.bks.cpg/sg21_15_cif.got.tgz:28758.got - 2010.06.03 23:14:55.
