data_PCOD9325254
_publ_section_title
;
Structure prediction by ZEFSAII (Michael W. Deem and Ramdas Pophale) SiO2 
 PCOD9325254
Probable space group: C 2 2 2
;
_chemical_formula_sum "Si O2"
_cell_formula_units_Z 52
_cell_length_a 22.724849
_cell_length_b 12.359139
_cell_length_c 9.580250
_cell_angle_alpha 90.000000
_cell_angle_beta 90.000000
_cell_angle_gamma 90.000000
_cell_volume 2690.704872
_symmetry_space_group_name_H-M "C 2 2 2"
_symmetry_group_IT_number 21
_symmetry_cell_setting 'orthorhombic'
loop_
_space_group_symop_operation_xyz
x,y,z
-x,-y,z
x,-y,-z
-x,y,-z
1/2+x,1/2+y,z
1/2-x,1/2-y,z
1/2+x,1/2-y,-z
1/2-x,1/2+y,-z
loop_
_atom_site_type_symbol
_atom_site_label
_atom_site_fract_x
_atom_site_fract_y
_atom_site_fract_z
Si Si1 0.250000 0.750000 0.406060
Si Si2 0.810316 0.081836 0.610539
Si Si3 0.434777 0.872479 0.476817
Si Si4 0.722419 0.968647 0.161945
Si Si5 0.360959 0.205879 0.274356
Si Si6 0.568243 0.869507 0.024210
Si Si7 0.857445 0.667755 0.772921
O O1 0.235104 0.848957 0.512227
O O2 0.193450 0.735750 0.304371
O O3 0.776480 0.018600 0.732948
O O4 0.849102 0.169157 0.693282
O O5 0.839703 0.000000 0.500000
O O6 0.500000 0.825642 0.500000
O O7 0.380748 0.837679 0.575257
O O8 0.414053 0.843000 0.323528
O O9 0.439056 0.000000 0.500000
O O10 0.694908 0.850869 0.198205
O O11 0.672509 0.050892 0.212048
O O12 0.734200 0.000000 0.000000
O O13 0.414688 0.169359 0.177370
O O14 0.500000 0.846055 0.000000
O O15 0.615067 0.808230 0.924019
O O16 0.575812 0.000000 0.000000
#
# Coordination Sequence:
#
# PCOD9325254 Si02
#       7
#     4   8   8   8   8   8   8
#     4  12  24  36  66  88 126 176 214 268 324 382
#     4  12  25  41  61  90 126 173 221 262 320 385
#     4  11  21  33  58  94 126 165 214 266 325 394
#     4  12  22  37  58  90 128 167 207 257 315 390
#     4  12  21  39  59  88 128 170 206 263 322 381
#     4  11  22  39  63  96 135 172 209 262 331 404
#     4  12  21  37  58  92 130 166 215 258 322 394
#
# _framework density 19.325790000000001
#
# number of rings (size 3 to 8) (size 9 to 14) (size 15 to 20)
#    0.000    0.308    9.231    0.923    0.000    3.692 
#    0.000    0.000    0.000    0.462    0.000    1.077 
#    0.000    0.000    0.000    0.000    0.000    0.000 
#
# Total GULP energy -144916.211586 kJ/mol
# GULP energy per Si atom -5573.700446 kJ/mol
# Density = 1.928180 g / cm^3
# Si number density = 19.325790 Si / 1000 Ang^3
#
#
#
# Elastic Constant Matrix: (Units=GPa)
#
#
# Indices 1 2 3 4 5 6 
#
# 1 63.5371 14.9232 8.2550 0.0000 0.0000 0.0000
# 2 14.9232 55.7032 25.5940 0.0000 0.0000 0.0000
# 3 8.2550 25.5940 80.9890 0.0000 0.0000 0.0000
# 4 0.0000 0.0000 0.0000 27.3673 0.0000 0.0000
# 5 0.0000 0.0000 0.0000 0.0000 24.8195 0.0000
# 6 0.0000 0.0000 0.0000 0.0000 0.0000 28.7717
#
#
#
# Elastic Compliance Matrix: (Units=1/GPa)
#
#
# Indices 1 2 3 4 5 6 
#
# 1 0.016804 -0.004346 -0.000339 0.000000 0.000000 0.000000
# 2 -0.004346 0.022126 -0.006549 0.000000 0.000000 0.000000
# 3 -0.000339 -0.006549 0.014452 0.000000 0.000000 0.000000
# 4 0.000000 0.000000 0.000000 0.036540 0.000000 0.000000
# 5 0.000000 0.000000 0.000000 0.000000 0.040291 0.000000
# 6 0.000000 0.000000 0.000000 0.000000 0.000000 0.034756
#
#
# Mechanical properties :
#
#
# Convention : Reuss Voigt Hill
#
# Bulk Modulus (GPa) = 32.34971 33.08595 32.71783
# Shear Modulus (GPa) = 25.28559 26.28884 25.78722
#
# Velocity S-wave (km/s) = 3.62109 3.69222 3.65683
# Velocity P-wave (km/s) = 5.85308 5.94424 5.89883
#
# Compressibility (1/GPa) = 0.03091218
#
# Stress axis : x y z
#
# Youngs Moduli (GPa) = 59.51083 45.19627 69.19646
#
# Poissons Ratio (x) = 0.19642 0.02348
# Poissons Ratio (y) = 0.25862 0.45318
# Poissons Ratio (z) = 0.02020 0.29600
#
# Static dielectric constant tensor:
#      x y z
#    x 1.713030 0.000000 0.000000 
#    y 0.000000 1.692040 0.000000 
#    z 0.000000 0.000000 1.684650 
# 
# From -- ./inp_files/17636.got.cif
#   From: 2010.05.17/outbox.cif.g08.bks.cpg/sg21_9_cif.got.tgz:17636.got - 2010.06.03 23:14:55.
