data_PCOD9325940
_publ_section_title
;
Structure prediction by ZEFSAII (Michael W. Deem and Ramdas Pophale) SiO2 
 PCOD9325940
Probable space group: F 2 2 2
;
_chemical_formula_sum "Si O2"
_cell_formula_units_Z 88
_cell_length_a 32.419708
_cell_length_b 8.294110
_cell_length_c 15.833639
_cell_angle_alpha 90.000000
_cell_angle_beta 90.000000
_cell_angle_gamma 90.000000
_cell_volume 4257.548743
_symmetry_space_group_name_H-M "F 2 2 2"
_symmetry_group_IT_number 22
_symmetry_cell_setting 'orthorhombic'
loop_
_space_group_symop_operation_xyz
x,y,z
-x,-y,z
x,-y,-z
-x,y,-z
x,1/2+y,1/2+z
-x,1/2-y,1/2+z
x,1/2-y,1/2-z
-x,1/2+y,1/2-z
1/2+x,y,1/2+z
1/2-x,-y,1/2+z
1/2+x,-y,1/2-z
1/2-x,y,1/2-z
1/2+x,1/2+y,z
1/2-x,1/2-y,z
1/2+x,1/2-y,-z
1/2-x,1/2+y,-z
loop_
_atom_site_type_symbol
_atom_site_label
_atom_site_fract_x
_atom_site_fract_y
_atom_site_fract_z
Si Si1 0.703048 0.305470 0.998025
Si Si2 0.000000 0.293680 0.000000
Si Si3 0.851510 0.821070 0.158680
Si Si4 0.350726 0.788794 0.342290
Si Si5 0.553483 0.252964 0.346799
Si Si6 0.071425 0.412429 0.419403
O O1 0.750000 0.250000 0.000458
O O2 0.677346 0.242037 0.078521
O O3 0.702435 0.500000 0.000000
O O4 0.680172 0.258991 0.911322
O O5 0.033837 0.187674 0.046120
O O6 0.971919 0.353669 0.081533
O O7 0.843127 0.750000 0.250000
O O8 0.898184 0.792142 0.128107
O O9 0.852631 0.016298 0.158292
O O10 0.333209 0.750000 0.250000
O O11 0.396859 0.711970 0.348304
O O12 0.538476 0.250000 0.250000
O O13 0.553525 0.063252 0.369582
O O14 0.093718 0.500000 0.500000
#
# Coordination Sequence:
#
# PCOD9325940 Si02
#       6
#    16   8  16  16  16  16
#     4  10  21  37  56  78 105 135 169 210 257 308
#     4  10  17  28  48  74 101 132 175 216 247 294
#     4  10  20  34  53  79 107 135 170 215 257 297
#     4   9  19  37  57  75 101 139 176 207 252 314
#     4   9  16  27  47  73  98 128 168 212 250 290
#     4   9  16  30  50  71  98 135 175 213 249 299
#
# _framework density 20.669170999999999
#
# number of rings (size 3 to 8) (size 9 to 14) (size 15 to 20)
#    0.000    2.545    0.000    6.273    0.000    2.909 
#    0.000    3.636    0.000    0.000    0.000   29.273 
#    0.000    0.000    0.000    0.000    0.000    0.000 
#
# Total GULP energy -122514.202239 kJ/mol
# GULP energy per Si atom -5568.827374 kJ/mol
# Density = 2.062213 g / cm^3
# Si number density = 20.669171 Si / 1000 Ang^3
#
#
#
# Elastic Constant Matrix: (Units=GPa)
#
#
# Indices 1 2 3 4 5 6 
#
# 1 116.0979 10.6521 78.3268 0.0000 0.0000 0.0000
# 2 10.6521 11.1221 17.8581 0.0000 0.0000 0.0000
# 3 78.3268 17.8581 207.2062 0.0000 0.0000 0.0000
# 4 0.0000 0.0000 0.0000 27.1063 0.0000 0.0000
# 5 0.0000 0.0000 0.0000 0.0000 -1.0345 0.0000
# 6 0.0000 0.0000 0.0000 0.0000 0.0000 25.3150
#
#
#
# Elastic Compliance Matrix: (Units=1/GPa)
#
#
# Indices 1 2 3 4 5 6 
#
# 1 0.011778 -0.004795 -0.004039 0.000000 0.000000 0.000000
# 2 -0.004795 0.106304 -0.007349 0.000000 0.000000 0.000000
# 3 -0.004039 -0.007349 0.006986 0.000000 0.000000 0.000000
# 4 0.000000 0.000000 0.000000 0.036892 0.000000 0.000000
# 5 0.000000 0.000000 0.000000 0.000000 -0.966697 0.000000
# 6 0.000000 0.000000 0.000000 0.000000 0.000000 0.039502
#
#
# Mechanical properties :
#
#
# Convention : Reuss Voigt Hill
#
# Bulk Modulus (GPa) = 10.78727 60.90000 35.84364
# Shear Modulus (GPa) = -7.12285 25.44998 9.16357
#
# Velocity S-wave (km/s) = -1.85839 3.51280 2.10786
# Velocity P-wave (km/s) = 0.79091 6.78094 4.82735
#
# Compressibility (1/GPa) = 0.09270183
#
# Stress axis : x y z
#
# Youngs Moduli (GPa) = 84.90093 9.40696 143.13631
#
# Poissons Ratio (x) = 0.04511 0.57815
# Poissons Ratio (y) = 0.40712 1.05193
# Poissons Ratio (z) = 0.34293 0.06913
#
# Static dielectric constant tensor:
#      x y z
#    x 1.760120 0.000000 0.000000 
#    y 0.000000 1.762580 0.000000 
#    z 0.000000 0.000000 1.830580 
# 
# From -- ./inp_files/33038.got.cif
#   From: 2010.05.17/outbox.cif.g08.bks.cpg/sg22_17_cif.got.tgz:33038.got - 2010.06.03 23:40:54.
