data_PCOD9325807
_publ_section_title
;
Structure prediction by ZEFSAII (Michael W. Deem and Ramdas Pophale) SiO2 
 PCOD9325807
Probable space group: C 2 2 2
;
_chemical_formula_sum "Si O2"
_cell_formula_units_Z 26
_cell_length_a 14.706501
_cell_length_b 4.876400
_cell_length_c 14.124842
_cell_angle_alpha 90.000000
_cell_angle_beta 90.000000
_cell_angle_gamma 90.000000
_cell_volume 1012.959957
_symmetry_space_group_name_H-M "C 2 2 2"
_symmetry_group_IT_number 21
_symmetry_cell_setting 'orthorhombic'
loop_
_space_group_symop_operation_xyz
x,y,z
-x,-y,z
x,-y,-z
-x,y,-z
1/2+x,1/2+y,z
1/2-x,1/2-y,z
1/2+x,1/2-y,-z
1/2-x,1/2+y,-z
loop_
_atom_site_type_symbol
_atom_site_label
_atom_site_fract_x
_atom_site_fract_y
_atom_site_fract_z
Si Si1 0.895293 0.991803 0.293471
Si Si2 0.847178 0.136564 0.099175
Si Si3 0.000000 0.500000 0.000000
Si Si4 0.672579 0.977982 0.599520
O O1 0.836892 0.785944 0.357870
O O2 0.880557 0.937679 0.182740
O O3 0.865874 0.302725 0.313612
O O4 0.000000 0.000000 0.319705
O O5 0.750000 0.250000 0.133622
O O6 0.931591 0.328941 0.067959
O O7 0.822947 0.000000 0.000000
O O8 0.750000 0.750000 0.566640
O O9 0.619466 0.000000 0.500000
#
# Coordination Sequence:
#
# PCOD9325807 Si02
#       4
#     8   8   2   8
#     4  12  28  48  79 116 161 212 275 344 411 499
#     4  12  28  50  81 116 166 215 279 338 419 491
#     4  12  26  52  84 116 170 224 270 356 402 510
#     4  12  27  50  79 113 158 211 273 341 414 494
#
# _framework density 25.667352999999999
#
# number of rings (size 3 to 8) (size 9 to 14) (size 15 to 20)
#    0.000    0.000    1.538    7.846    8.615    6.154 
#    0.000    0.000    0.000    0.000    0.000    0.000 
#    0.000    0.000    0.000    0.000    0.000    0.000 
#
# Total GULP energy -72463.721088 kJ/mol
# GULP energy per Si atom -5574.132391 kJ/mol
# Density = 2.560893 g / cm^3
# Si number density = 25.667353 Si / 1000 Ang^3
#
#
#
# Elastic Constant Matrix: (Units=GPa)
#
#
# Indices 1 2 3 4 5 6 
#
# 1 161.9492 24.9108 14.5740 0.0000 0.0000 0.0000
# 2 24.9108 135.3777 28.8358 0.0000 0.0000 0.0000
# 3 14.5740 28.8358 140.0714 0.0000 0.0000 0.0000
# 4 0.0000 0.0000 0.0000 58.0111 0.0000 0.0000
# 5 0.0000 0.0000 0.0000 0.0000 -29.8490 0.0000
# 6 0.0000 0.0000 0.0000 0.0000 0.0000 26.0973
#
#
#
# Elastic Compliance Matrix: (Units=1/GPa)
#
#
# Indices 1 2 3 4 5 6 
#
# 1 0.006381 -0.001080 -0.000442 0.000000 0.000000 0.000000
# 2 -0.001080 0.007908 -0.001516 0.000000 0.000000 0.000000
# 3 -0.000442 -0.001516 0.007497 0.000000 0.000000 0.000000
# 4 0.000000 0.000000 0.000000 0.017238 0.000000 0.000000
# 5 0.000000 0.000000 0.000000 0.000000 -0.033502 0.000000
# 6 0.000000 0.000000 0.000000 0.000000 0.000000 0.038318
#
#
# Mechanical properties :
#
#
# Convention : Reuss Voigt Hill
#
# Bulk Modulus (GPa) = 63.64715 63.78215 63.71465
# Shear Modulus (GPa) = 90.65826 35.45706 63.05766
#
# Velocity S-wave (km/s) = 5.94955 3.72076 4.96191
# Velocity P-wave (km/s) = 8.48805 6.58500 7.59635
#
# Compressibility (1/GPa) = 0.01571162
#
# Stress axis : x y z
#
# Youngs Moduli (GPa) = 156.72401 126.44910 133.38345
#
# Poissons Ratio (x) = 0.13657 0.05889
# Poissons Ratio (y) = 0.16927 0.20217
# Poissons Ratio (z) = 0.06920 0.19166
#
# Static dielectric constant tensor:
#      x y z
#    x 1.980500 0.000000 0.000000 
#    y 0.000000 2.061070 0.000000 
#    z 0.000000 0.000000 1.935480 
# 
# From -- ./inp_files/31867.got.cif
#   From: 2010.05.17/outbox.cif.g08.bks.cpg/sg21_16_cif.got.tgz:31867.got - 2010.06.03 23:14:55.
