data_PCOD9325885
_publ_section_title
;
Structure prediction by ZEFSAII (Michael W. Deem and Ramdas Pophale) SiO2 
 PCOD9325885
Probable space group: F 2 2 2
;
_chemical_formula_sum "Si O2"
_cell_formula_units_Z 68
_cell_length_a 21.993923
_cell_length_b 33.350587
_cell_length_c 5.076672
_cell_angle_alpha 90.000000
_cell_angle_beta 90.000000
_cell_angle_gamma 90.000000
_cell_volume 3723.790910
_symmetry_space_group_name_H-M "F 2 2 2"
_symmetry_group_IT_number 22
_symmetry_cell_setting 'orthorhombic'
loop_
_space_group_symop_operation_xyz
x,y,z
-x,-y,z
x,-y,-z
-x,y,-z
x,1/2+y,1/2+z
-x,1/2-y,1/2+z
x,1/2-y,1/2-z
-x,1/2+y,1/2-z
1/2+x,y,1/2+z
1/2-x,-y,1/2+z
1/2+x,-y,1/2-z
1/2-x,y,1/2-z
1/2+x,1/2+y,z
1/2-x,1/2-y,z
1/2+x,1/2-y,-z
1/2-x,1/2+y,-z
loop_
_atom_site_type_symbol
_atom_site_label
_atom_site_fract_x
_atom_site_fract_y
_atom_site_fract_z
Si Si1 0.073478 0.170696 0.001895
Si Si2 0.608561 0.537587 0.305378
Si Si3 0.708751 0.500000 0.000000
Si Si4 0.500000 0.000000 0.500000
Si Si5 0.574013 0.377283 0.492383
Si Si6 0.043388 0.250000 0.750000
O O1 0.093626 0.137695 0.792791
O O2 0.083419 0.214689 0.879031
O O3 0.091672 0.156441 0.291162
O O4 0.000000 0.169675 0.000000
O O5 0.618831 0.500000 0.500000
O O6 0.662945 0.534859 0.095448
O O7 0.544281 0.527855 0.168740
O O8 0.602746 0.580101 0.441200
O O9 0.750000 0.489125 0.250000
O O10 0.500000 0.381131 0.500000
O O11 0.000000 0.236279 0.500000
#
# Coordination Sequence:
#
# PCOD9325885 Si02
#       6
#    16  16   8   4  16   8
#     4   9  18  28  42  64  95 135 176 222 246 301
#     4  11  23  36  56  76 109 144 179 226 271 321
#     4  11  24  43  60  77  96 137 192 226 274 323
#     4  10  22  32  48  82 104 144 176 216 260 324
#     4  10  20  30  46  72 103 133 175 217 265 304
#     4  10  16  28  42  60  88 138 191 212 247 294
#
# _framework density 18.260959
#
# number of rings (size 3 to 8) (size 9 to 14) (size 15 to 20)
#    0.000    1.882    1.176    5.294   11.529    0.000 
#    0.000    0.000    0.000    0.000    0.000    0.000 
#    0.000    0.000    0.000   15.882    0.941    0.706 
#
# Total GULP energy -94788.282049 kJ/mol
# GULP energy per Si atom -5575.781297 kJ/mol
# Density = 1.821940 g / cm^3
# Si number density = 18.260959 Si / 1000 Ang^3
#
#
#
# Elastic Constant Matrix: (Units=GPa)
#
#
# Indices 1 2 3 4 5 6 
#
# 1 58.4883 17.6068 27.0320 0.0311 -0.2004 -0.0425
# 2 17.6068 107.9499 22.5152 0.0168 -0.0497 -0.0018
# 3 27.0320 22.5152 92.2941 0.0719 -0.0744 -0.0326
# 4 0.0311 0.0168 0.0719 30.0861 -0.0209 -0.0013
# 5 -0.2004 -0.0497 -0.0744 -0.0209 30.0681 0.0644
# 6 -0.0425 -0.0018 -0.0326 -0.0013 0.0644 -2.5669
#
#
#
# Elastic Compliance Matrix: (Units=1/GPa)
#
#
# Indices 1 2 3 4 5 6 
#
# 1 0.020248 -0.002176 -0.005400 -0.000007 0.000119 -0.000262
# 2 -0.002176 0.009994 -0.001801 0.000001 -0.000003 0.000052
# 3 -0.005400 -0.001801 0.012856 -0.000024 -0.000007 -0.000073
# 4 -0.000007 0.000001 -0.000024 0.033238 0.000023 -0.000016
# 5 0.000119 -0.000003 -0.000007 0.000023 0.033257 0.000833
# 6 -0.000262 0.000052 -0.000073 -0.000016 0.000833 -0.389550
#
#
# Mechanical properties :
#
#
# Convention : Reuss Voigt Hill
#
# Bulk Modulus (GPa) = 41.07613 43.67114 42.37364
# Shear Modulus (GPa) = -19.75591 24.28935 2.26672
#
# Velocity S-wave (km/s) = -3.29274 3.65104 1.11534
# Velocity P-wave (km/s) = 2.84369 6.46068 4.99134
#
# Compressibility (1/GPa) = 0.02434504
#
# Stress axis : x y z
#
# Youngs Moduli (GPa) = 49.38664 100.05932 77.78658
#
# Poissons Ratio (x) = 0.21776 0.42002
# Poissons Ratio (y) = 0.10748 0.14007
# Poissons Ratio (z) = 0.26667 0.18017
#
# Static dielectric constant tensor:
#      x y z
#    x 1.619260 -0.000010 -0.000030 
#    y -0.000010 1.687940 -0.000040 
#    z -0.000030 -0.000040 1.705610 
# 
# From -- ./inp_files/4006.got.cif
#   From: 2010.05.17/outbox.cif.g08.bks.cpg/sg22_3_cif.got.tgz:4006.got - 2010.06.03 23:40:54.
