data_PCOD9325706
_publ_section_title
;
Structure prediction by ZEFSAII (Michael W. Deem and Ramdas Pophale) SiO2 
 PCOD9325706
Probable space group: C 2 2 2
;
_chemical_formula_sum "Si O2"
_cell_formula_units_Z 24
_cell_length_a 12.307615
_cell_length_b 12.520556
_cell_length_c 6.277900
_cell_angle_alpha 90.000000
_cell_angle_beta 90.000000
_cell_angle_gamma 90.000000
_cell_volume 967.412982
_symmetry_space_group_name_H-M "C 2 2 2"
_symmetry_group_IT_number 21
_symmetry_cell_setting 'orthorhombic'
loop_
_space_group_symop_operation_xyz
x,y,z
-x,-y,z
x,-y,-z
-x,y,-z
1/2+x,1/2+y,z
1/2-x,1/2-y,z
1/2+x,1/2-y,-z
1/2-x,1/2+y,-z
loop_
_atom_site_type_symbol
_atom_site_label
_atom_site_fract_x
_atom_site_fract_y
_atom_site_fract_z
Si Si1 0.750000 0.250000 0.877197
Si Si2 0.896066 0.126353 0.155824
Si Si3 0.298600 0.500000 0.500000
Si Si4 0.384077 0.179890 0.500622
O O1 0.646927 0.229606 0.727101
O O2 0.786985 0.151247 0.020316
O O3 0.898168 0.226701 0.323208
O O4 0.875607 0.020775 0.297339
O O5 0.000000 0.124997 0.000000
O O6 0.216345 0.400587 0.520752
O O7 0.500000 0.123837 0.500000
#
# Coordination Sequence:
#
# PCOD9325706 Si02
#       4
#     4   8   4   8
#     4  12  22  48  80 110 162 224 268 340 422 492
#     4  12  26  50  84 118 169 225 270 351 436 486
#     4  12  25  50  81 126 158 210 298 350 392 524
#     4  12  25  48  79 116 164 217 282 343 415 513
#
# _framework density 24.808433999999998
#
# number of rings (size 3 to 8) (size 9 to 14) (size 15 to 20)
#    0.000    0.000   10.000    0.500    0.000    1.333 
#    0.000   12.500    0.000    0.000    0.000    0.000 
#    0.000    0.000    0.000    0.000    0.000    0.000 
#
# Total GULP energy -67051.735002 kJ/mol
# GULP energy per Si atom -5587.644584 kJ/mol
# Density = 2.475197 g / cm^3
# Si number density = 24.808434 Si / 1000 Ang^3
#
#
#
# Elastic Constant Matrix: (Units=GPa)
#
#
# Indices 1 2 3 4 5 6 
#
# 1 196.0907 54.4634 87.1674 0.0000 0.0000 0.0000
# 2 54.4634 111.7857 76.2362 0.0000 0.0000 0.0000
# 3 87.1674 76.2362 179.1092 0.0000 0.0000 0.0000
# 4 0.0000 0.0000 0.0000 60.8940 0.0000 0.0000
# 5 0.0000 0.0000 0.0000 0.0000 56.6447 0.0000
# 6 0.0000 0.0000 0.0000 0.0000 0.0000 30.4295
#
#
#
# Elastic Compliance Matrix: (Units=1/GPa)
#
#
# Indices 1 2 3 4 5 6 
#
# 1 0.006672 -0.001460 -0.002626 0.000000 0.000000 0.000000
# 2 -0.001460 0.012924 -0.004790 0.000000 0.000000 0.000000
# 3 -0.002626 -0.004790 0.008900 0.000000 0.000000 0.000000
# 4 0.000000 0.000000 0.000000 0.016422 0.000000 0.000000
# 5 0.000000 0.000000 0.000000 0.000000 0.017654 0.000000
# 6 0.000000 0.000000 0.000000 0.000000 0.000000 0.032863
#
#
# Mechanical properties :
#
#
# Convention : Reuss Voigt Hill
#
# Bulk Modulus (GPa) = 93.07595 102.52442 97.80018
# Shear Modulus (GPa) = 42.81946 47.53489 45.17717
#
# Velocity S-wave (km/s) = 4.15903 4.38205 4.27200
# Velocity P-wave (km/s) = 7.78862 8.18653 7.99006
#
# Compressibility (1/GPa) = 0.01074391
#
# Stress axis : x y z
#
# Youngs Moduli (GPa) = 149.86956 77.37498 112.35859
#
# Poissons Ratio (x) = 0.11298 0.29503
# Poissons Ratio (y) = 0.21883 0.53824
# Poissons Ratio (z) = 0.39353 0.37066
#
# Static dielectric constant tensor:
#      x y z
#    x 1.945930 0.000000 0.000000 
#    y 0.000000 2.055360 0.000000 
#    z 0.000000 0.000000 2.059500 
# 
# From -- ./inp_files/3258.got.cif
#   From: 2010.05.17/outbox.cif.g08.bks.cpg/sg21_2_cif.got.tgz:3258.got - 2010.06.03 23:14:55.
