data_PCOD9325221
_publ_section_title
;
Structure prediction by ZEFSAII (Michael W. Deem and Ramdas Pophale) SiO2 
 PCOD9325221
Probable space group: C 2 2 2
;
_chemical_formula_sum "Si O2"
_cell_formula_units_Z 44
_cell_length_a 16.475816
_cell_length_b 14.220994
_cell_length_c 9.026652
_cell_angle_alpha 90.000000
_cell_angle_beta 90.000000
_cell_angle_gamma 90.000000
_cell_volume 2114.966954
_symmetry_space_group_name_H-M "C 2 2 2"
_symmetry_group_IT_number 21
_symmetry_cell_setting 'orthorhombic'
loop_
_space_group_symop_operation_xyz
x,y,z
-x,-y,z
x,-y,-z
-x,y,-z
1/2+x,1/2+y,z
1/2-x,1/2-y,z
1/2+x,1/2-y,-z
1/2-x,1/2+y,-z
loop_
_atom_site_type_symbol
_atom_site_label
_atom_site_fract_x
_atom_site_fract_y
_atom_site_fract_z
Si Si1 0.629191 0.500000 0.000000
Si Si2 0.236976 0.074283 0.218289
Si Si3 0.899844 0.741301 0.766532
Si Si4 0.500000 0.661104 0.000000
Si Si5 0.797532 0.155693 0.477347
Si Si6 0.250000 0.750000 0.003941
Si Si7 0.359121 0.047419 0.646956
O O1 0.686990 0.508545 0.859845
O O2 0.574260 0.590342 0.025701
O O3 0.188852 0.103218 0.367493
O O4 0.241659 0.160187 0.103380
O O5 0.327705 0.037119 0.250170
O O6 0.869163 0.809046 0.631510
O O7 0.909419 0.634226 0.710396
O O8 0.826944 0.740117 0.887093
O O9 0.977358 0.779221 0.855340
O O10 0.750000 0.250000 0.522236
O O11 0.727948 0.094981 0.396546
O O12 0.394441 0.000000 0.500000
#
# Coordination Sequence:
#
# PCOD9325221 Si02
#       7
#     4   8   8   4   8   4   8
#     4  11  22  38  56  90 128 167 212 259 308 392
#     4  11  20  34  60  98 124 160 213 270 326 380
#     4  11  20  39  58  92 129 176 209 261 327 388
#     4  11  24  38  60  85 130 180 207 252 326 389
#     4   9  17  34  58  89 127 164 207 266 327 381
#     4  12  20  32  64  92 128 164 214 268 332 376
#     4   9  18  32  59  91 126 158 210 272 316 371
#
# _framework density 20.804106000000001
#
# number of rings (size 3 to 8) (size 9 to 14) (size 15 to 20)
#    0.000    1.636    5.455    2.182    0.000    0.000 
#    0.000    0.909    0.000    4.364    0.000    6.364 
#    0.000    0.000    0.000    0.000    0.000    0.000 
#
# Total GULP energy -122715.626106 kJ/mol
# GULP energy per Si atom -5577.983005 kJ/mol
# Density = 2.075675 g / cm^3
# Si number density = 20.804106 Si / 1000 Ang^3
#
#
#
# Elastic Constant Matrix: (Units=GPa)
#
#
# Indices 1 2 3 4 5 6 
#
# 1 38.0205 25.3518 34.7170 0.0000 0.0000 0.0000
# 2 25.3518 109.4402 54.4901 0.0000 0.0000 0.0000
# 3 34.7170 54.4901 127.9905 0.0000 0.0000 0.0000
# 4 0.0000 0.0000 0.0000 58.2398 0.0000 0.0000
# 5 0.0000 0.0000 0.0000 0.0000 21.8855 0.0000
# 6 0.0000 0.0000 0.0000 0.0000 0.0000 23.6233
#
#
#
# Elastic Compliance Matrix: (Units=1/GPa)
#
#
# Indices 1 2 3 4 5 6 
#
# 1 0.036620 -0.004489 -0.008022 0.000000 0.000000 0.000000
# 2 -0.004489 0.012146 -0.003953 0.000000 0.000000 0.000000
# 3 -0.008022 -0.003953 0.011672 0.000000 0.000000 0.000000
# 4 0.000000 0.000000 0.000000 0.017170 0.000000 0.000000
# 5 0.000000 0.000000 0.000000 0.000000 0.045692 0.000000
# 6 0.000000 0.000000 0.000000 0.000000 0.000000 0.042331
#
#
# Mechanical properties :
#
#
# Convention : Reuss Voigt Hill
#
# Bulk Modulus (GPa) = 36.35134 56.06323 46.20729
# Shear Modulus (GPa) = 24.06986 31.47587 27.77286
#
# Velocity S-wave (km/s) = 3.40513 3.89390 3.65769
# Velocity P-wave (km/s) = 5.74203 6.87192 6.33223
#
# Compressibility (1/GPa) = 0.02750930
#
# Stress axis : x y z
#
# Youngs Moduli (GPa) = 27.30776 82.33469 85.67512
#
# Poissons Ratio (x) = 0.36959 0.68727
# Poissons Ratio (y) = 0.12258 0.33869
# Poissons Ratio (z) = 0.21906 0.32549
#
# Static dielectric constant tensor:
#      x y z
#    x 1.769150 0.000000 0.000000 
#    y 0.000000 1.866160 0.000000 
#    z 0.000000 0.000000 1.786720 
# 
# From -- ./inp_files/16375.got.cif
#   From: 2010.05.17/outbox.cif.g08.bks.cpg/sg21_9_cif.got.tgz:16375.got - 2010.06.03 23:14:55.
