data_PCOD9325463
_publ_section_title
;
Structure prediction by ZEFSAII (Michael W. Deem and Ramdas Pophale) SiO2 
 PCOD9325463
Probable space group: C 2 2 2
;
_chemical_formula_sum "Si O2"
_cell_formula_units_Z 32
_cell_length_a 8.497990
_cell_length_b 12.030560
_cell_length_c 13.566093
_cell_angle_alpha 90.000000
_cell_angle_beta 90.000000
_cell_angle_gamma 90.000000
_cell_volume 1386.937367
_symmetry_space_group_name_H-M "C 2 2 2"
_symmetry_group_IT_number 21
_symmetry_cell_setting 'orthorhombic'
loop_
_space_group_symop_operation_xyz
x,y,z
-x,-y,z
x,-y,-z
-x,y,-z
1/2+x,1/2+y,z
1/2-x,1/2-y,z
1/2+x,1/2-y,-z
1/2-x,1/2+y,-z
loop_
_atom_site_type_symbol
_atom_site_label
_atom_site_fract_x
_atom_site_fract_y
_atom_site_fract_z
Si Si1 0.935774 0.220445 0.094205
Si Si2 0.684308 0.629110 0.473436
Si Si3 0.644127 0.937333 0.103995
Si Si4 0.095386 0.897235 0.737831
O O1 0.750000 0.250000 0.086278
O O2 0.067910 0.317662 0.087323
O O3 0.968247 0.176586 0.204051
O O4 0.000000 0.148759 0.000000
O O5 0.742133 0.500000 0.500000
O O6 0.500000 0.631006 0.500000
O O7 0.750000 0.750000 0.514047
O O8 0.695076 0.640694 0.354852
O O9 0.791123 0.933390 0.173652
O O10 0.500000 0.000000 0.155885
O O11 0.671547 0.000000 0.000000
O O12 0.000000 0.000000 0.696879
#
# Coordination Sequence:
#
# PCOD9325463 Si02
#       4
#     8   8   8   8
#     4  12  25  42  66 100 143 192 243 294 362 439
#     4  11  25  54  79 113 153 193 256 322 391 463
#     4  11  23  43  64 102 144 188 241 291 353 445
#     4  12  26  45  73 103 144 191 244 311 378 448
#
# _framework density 23.072420000000001
#
# number of rings (size 3 to 8) (size 9 to 14) (size 15 to 20)
#    0.000    0.500    5.000    5.250    3.500    1.500 
#    9.000    0.000    0.000    0.000    0.000    0.000 
#    0.000    0.000    0.000    0.000    0.000    0.000 
#
# Total GULP energy -89070.344272 kJ/mol
# GULP energy per Si atom -5566.896517 kJ/mol
# Density = 2.301991 g / cm^3
# Si number density = 23.072420 Si / 1000 Ang^3
#
#
#
# Elastic Constant Matrix: (Units=GPa)
#
#
# Indices 1 2 3 4 5 6 
#
# 1 99.4787 32.7109 19.2084 0.0000 0.0000 0.0000
# 2 32.7109 142.7591 31.0037 0.0000 0.0000 0.0000
# 3 19.2084 31.0037 109.2925 0.0000 0.0000 0.0000
# 4 0.0000 0.0000 0.0000 34.9340 0.0000 0.0000
# 5 0.0000 0.0000 0.0000 0.0000 13.4406 0.0000
# 6 0.0000 0.0000 0.0000 0.0000 0.0000 25.0095
#
#
#
# Elastic Compliance Matrix: (Units=1/GPa)
#
#
# Indices 1 2 3 4 5 6 
#
# 1 0.011043 -0.002247 -0.001303 0.000000 0.000000 0.000000
# 2 -0.002247 0.007922 -0.001852 0.000000 0.000000 0.000000
# 3 -0.001303 -0.001852 0.009904 0.000000 0.000000 0.000000
# 4 0.000000 0.000000 0.000000 0.028625 0.000000 0.000000
# 5 0.000000 0.000000 0.000000 0.000000 0.074402 0.000000
# 6 0.000000 0.000000 0.000000 0.000000 0.000000 0.039985
#
#
# Mechanical properties :
#
#
# Convention : Reuss Voigt Hill
#
# Bulk Modulus (GPa) = 55.36044 57.48628 56.42336
# Shear Modulus (GPa) = 26.49595 32.58396 29.53995
#
# Velocity S-wave (km/s) = 3.39245 3.76206 3.58203
# Velocity P-wave (km/s) = 6.27625 6.62122 6.45104
#
# Compressibility (1/GPa) = 0.01806344
#
# Stress axis : x y z
#
# Youngs Moduli (GPa) = 90.55486 126.23051 100.96636
#
# Poissons Ratio (x) = 0.28368 0.13159
# Poissons Ratio (y) = 0.20350 0.18702
# Poissons Ratio (z) = 0.11802 0.23382
#
# Static dielectric constant tensor:
#      x y z
#    x 1.634770 0.000000 0.000000 
#    y 0.000000 2.161920 0.000000 
#    z 0.000000 0.000000 2.097320 
# 
# From -- ./inp_files/29818.got.cif
#   From: 2010.05.17/outbox.cif.g08.bks.cpg/sg21_15_cif.got.tgz:29818.got - 2010.06.03 23:14:55.
