data_PCOD9325488
_publ_section_title
;
Structure prediction by ZEFSAII (Michael W. Deem and Ramdas Pophale) SiO2 
 PCOD9325488
Probable space group: C 2 2 2
;
_chemical_formula_sum "Si O2"
_cell_formula_units_Z 32
_cell_length_a 12.794409
_cell_length_b 13.287019
_cell_length_c 8.849891
_cell_angle_alpha 90.000000
_cell_angle_beta 90.000000
_cell_angle_gamma 90.000000
_cell_volume 1504.477536
_symmetry_space_group_name_H-M "C 2 2 2"
_symmetry_group_IT_number 21
_symmetry_cell_setting 'orthorhombic'
loop_
_space_group_symop_operation_xyz
x,y,z
-x,-y,z
x,-y,-z
-x,y,-z
1/2+x,1/2+y,z
1/2-x,1/2-y,z
1/2+x,1/2-y,-z
1/2-x,1/2+y,-z
loop_
_atom_site_type_symbol
_atom_site_label
_atom_site_fract_x
_atom_site_fract_y
_atom_site_fract_z
Si Si1 0.163571 0.661284 0.850222
Si Si2 0.795073 0.534333 0.657292
Si Si3 0.072745 0.697843 0.187298
Si Si4 0.939894 0.901516 0.655658
O O1 0.250000 0.750000 0.821631
O O2 0.203712 0.554183 0.784710
O O3 0.047820 0.670273 0.779770
O O4 0.125136 0.671179 0.025094
O O5 0.843676 0.500000 0.500000
O O6 0.855822 0.633460 0.704430
O O7 0.677364 0.566475 0.622502
O O8 0.070977 0.815673 0.219989
O O9 0.000000 0.870353 0.500000
O O10 0.000000 0.000000 0.712896
#
# Coordination Sequence:
#
# PCOD9325488 Si02
#       4
#     8   8   8   8
#     4  11  25  46  70 103 144 197 247 310 382 458
#     4  12  25  42  70 107 144 192 249 312 382 456
#     4  11  26  45  72 103 145 195 250 315 383 456
#     4  11  23  45  70 107 145 191 253 318 380 452
#
# _framework density 21.269842000000001
#
# number of rings (size 3 to 8) (size 9 to 14) (size 15 to 20)
#    0.000    0.750    2.500    5.250    3.500    3.000 
#    0.000    7.500    0.000    0.000    0.000    0.000 
#    0.000    0.000    0.000    0.000    0.000    0.000 
#
# Total GULP energy -89187.078009 kJ/mol
# GULP energy per Si atom -5574.192376 kJ/mol
# Density = 2.122143 g / cm^3
# Si number density = 21.269842 Si / 1000 Ang^3
#
#
#
# Elastic Constant Matrix: (Units=GPa)
#
#
# Indices 1 2 3 4 5 6 
#
# 1 138.9828 7.7439 19.3124 0.0000 0.0000 0.0000
# 2 7.7439 35.5493 23.3309 0.0000 0.0000 0.0000
# 3 19.3124 23.3309 57.9284 0.0000 0.0000 0.0000
# 4 0.0000 0.0000 0.0000 -10.8954 0.0000 0.0000
# 5 0.0000 0.0000 0.0000 0.0000 35.1987 0.0000
# 6 0.0000 0.0000 0.0000 0.0000 0.0000 33.1252
#
#
#
# Elastic Compliance Matrix: (Units=1/GPa)
#
#
# Indices 1 2 3 4 5 6 
#
# 1 0.007545 0.000010 -0.002519 0.000000 0.000000 0.000000
# 2 0.000010 0.038237 -0.015403 0.000000 0.000000 0.000000
# 3 -0.002519 -0.015403 0.024306 0.000000 0.000000 0.000000
# 4 0.000000 0.000000 0.000000 -0.091782 0.000000 0.000000
# 5 0.000000 0.000000 0.000000 0.000000 0.028410 0.000000
# 6 0.000000 0.000000 0.000000 0.000000 0.000000 0.030188
#
#
# Mechanical properties :
#
#
# Convention : Reuss Voigt Hill
#
# Bulk Modulus (GPa) = 29.18645 37.02610 33.10628
# Shear Modulus (GPa) = 59.41703 23.62393 41.52048
#
# Velocity S-wave (km/s) = 5.29108 3.33630 4.42303
# Velocity P-wave (km/s) = 7.14697 5.68214 6.45623
#
# Compressibility (1/GPa) = 0.03426248
#
# Stress axis : x y z
#
# Youngs Moduli (GPa) = 132.54434 26.15268 41.14155
#
# Poissons Ratio (x) = -0.00026 0.10365
# Poissons Ratio (y) = -0.00131 0.63372
# Poissons Ratio (z) = 0.33391 0.40284
#
# Static dielectric constant tensor:
#      x y z
#    x 1.772700 0.000000 0.000000 
#    y 0.000000 1.828050 0.000000 
#    z 0.000000 0.000000 1.857050 
# 
# From -- ./inp_files/12143.got.cif
#   From: 2010.05.17/outbox.cif.g08.bks.cpg/sg21_7_cif.got.tgz:12143.got - 2010.06.03 23:14:55.
