data_PCOD9325072
_publ_section_title
;
Structure prediction by ZEFSAII (Michael W. Deem and Ramdas Pophale) SiO2 
 PCOD9325072
Probable space group: C 2 2 2
;
_chemical_formula_sum "Si O2"
_cell_formula_units_Z 58
_cell_length_a 25.859690
_cell_length_b 18.257242
_cell_length_c 5.277664
_cell_angle_alpha 90.000000
_cell_angle_beta 90.000000
_cell_angle_gamma 90.000000
_cell_volume 2491.725657
_symmetry_space_group_name_H-M "C 2 2 2"
_symmetry_group_IT_number 21
_symmetry_cell_setting 'orthorhombic'
loop_
_space_group_symop_operation_xyz
x,y,z
-x,-y,z
x,-y,-z
-x,y,-z
1/2+x,1/2+y,z
1/2-x,1/2-y,z
1/2+x,1/2-y,-z
1/2-x,1/2+y,-z
loop_
_atom_site_type_symbol
_atom_site_label
_atom_site_fract_x
_atom_site_fract_y
_atom_site_fract_z
Si Si1 0.435350 0.378402 0.721300
Si Si2 0.529450 0.783010 0.748347
Si Si3 0.875542 0.843410 0.219003
Si Si4 0.000000 0.000000 0.000000
Si Si5 0.275262 0.820367 0.205474
Si Si6 0.219050 0.076718 0.432226
Si Si7 0.629924 0.809692 0.469593
Si Si8 0.328261 0.070257 0.159813
O O1 0.470607 0.305644 0.741021
O O2 0.410663 0.380511 0.441358
O O3 0.466057 0.448487 0.817513
O O4 0.392441 0.363363 0.937394
O O5 0.500000 0.810371 0.500000
O O6 0.588680 0.804852 0.696186
O O7 0.500000 0.807316 0.000000
O O8 0.818033 0.873163 0.265286
O O9 0.882540 0.756787 0.277312
O O10 0.250000 0.750000 0.080944
O O11 0.234213 0.876201 0.322820
O O12 0.312167 0.793255 0.432674
O O13 0.312847 0.865103 0.028501
O O14 0.273296 0.055203 0.297891
O O15 0.192510 0.000000 0.500000
O O16 0.632585 0.891068 0.353151
O O17 0.345090 0.000000 0.000000
#
# Coordination Sequence:
#
# PCOD9325072 Si02
#       8
#     8   8   8   2   8   8   8   8
#     4  11  27  43  65  96 138 185 244 301 356 423
#     4  11  23  45  71 103 138 179 236 315 366 424
#     4  11  26  44  67 101 138 186 248 298 353 413
#     4  12  28  46  68  94 140 202 246 294 364 426
#     4  11  23  41  64  98 138 189 233 293 346 427
#     4  11  24  41  60  94 141 188 237 288 346 418
#     4  10  25  39  69 101 139 182 243 297 365 436
#     4  11  25  41  67  99 141 191 235 293 364 443
#
# _framework density 23.277042999999999
#
# number of rings (size 3 to 8) (size 9 to 14) (size 15 to 20)
#    0.000    1.103    3.448    1.655   11.586    0.552 
#    0.000    0.000    0.000    0.000    0.000    2.897 
#    0.000    0.000    0.000    0.000    0.000    0.000 
#
# Total GULP energy -162342.785680 kJ/mol
# GULP energy per Si atom -5598.027092 kJ/mol
# Density = 2.322406 g / cm^3
# Si number density = 23.277043 Si / 1000 Ang^3
#
#
#
# Elastic Constant Matrix: (Units=GPa)
#
#
# Indices 1 2 3 4 5 6 
#
# 1 74.2111 39.5630 33.0811 0.0000 0.0000 0.0000
# 2 39.5630 119.6591 32.1436 0.0000 0.0000 0.0000
# 3 33.0811 32.1436 91.1679 0.0000 0.0000 0.0000
# 4 0.0000 0.0000 0.0000 34.7324 0.0000 0.0000
# 5 0.0000 0.0000 0.0000 0.0000 18.0468 0.0000
# 6 0.0000 0.0000 0.0000 0.0000 0.0000 30.9532
#
#
#
# Elastic Compliance Matrix: (Units=1/GPa)
#
#
# Indices 1 2 3 4 5 6 
#
# 1 0.018175 -0.004681 -0.004944 0.000000 0.000000 0.000000
# 2 -0.004681 0.010437 -0.001981 0.000000 0.000000 0.000000
# 3 -0.004944 -0.001981 0.013461 0.000000 0.000000 0.000000
# 4 0.000000 0.000000 0.000000 0.028792 0.000000 0.000000
# 5 0.000000 0.000000 0.000000 0.000000 0.055411 0.000000
# 6 0.000000 0.000000 0.000000 0.000000 0.000000 0.032307
#
#
# Mechanical properties :
#
#
# Convention : Reuss Voigt Hill
#
# Bulk Modulus (GPa) = 53.02301 54.95706 53.99004
# Shear Modulus (GPa) = 26.58405 28.76318 27.67362
#
# Velocity S-wave (km/s) = 3.38312 3.51905 3.45175
# Velocity P-wave (km/s) = 6.17165 6.33821 6.25548
#
# Compressibility (1/GPa) = 0.01885973
#
# Stress axis : x y z
#
# Youngs Moduli (GPa) = 55.02185 95.81340 74.28609
#
# Poissons Ratio (x) = 0.44849 0.36730
# Poissons Ratio (y) = 0.25755 0.14718
# Poissons Ratio (z) = 0.27205 0.18984
#
# Static dielectric constant tensor:
#      x y z
#    x 1.918750 0.000000 0.000000 
#    y 0.000000 1.877220 0.000000 
#    z 0.000000 0.000000 1.951240 
# 
# From -- ./inp_files/5329.got.cif
#   From: 2010.05.17/outbox.cif.g08.bks.cpg/sg21_3_cif.got.tgz:5329.got - 2010.06.03 23:14:55.
