data_PCOD9325610
_publ_section_title
;
Structure prediction by ZEFSAII (Michael W. Deem and Ramdas Pophale) SiO2 
 PCOD9325610
Probable space group: C 2 2 2
;
_chemical_formula_sum "Si O2"
_cell_formula_units_Z 46
_cell_length_a 19.993191
_cell_length_b 15.907067
_cell_length_c 6.990159
_cell_angle_alpha 90.000000
_cell_angle_beta 90.000000
_cell_angle_gamma 90.000000
_cell_volume 2223.101438
_symmetry_space_group_name_H-M "C 2 2 2"
_symmetry_group_IT_number 21
_symmetry_cell_setting 'orthorhombic'
loop_
_space_group_symop_operation_xyz
x,y,z
-x,-y,z
x,-y,-z
-x,y,-z
1/2+x,1/2+y,z
1/2-x,1/2-y,z
1/2+x,1/2-y,-z
1/2-x,1/2+y,-z
loop_
_atom_site_type_symbol
_atom_site_label
_atom_site_fract_x
_atom_site_fract_y
_atom_site_fract_z
Si Si1 0.072577 0.795476 0.392579
Si Si2 0.608433 0.882815 0.794963
Si Si3 0.171364 0.500000 0.500000
Si Si4 0.796686 0.620116 0.158052
Si Si5 0.000000 0.500000 0.000000
Si Si6 0.653999 0.703697 0.237196
Si Si7 0.076923 0.089725 0.954833
O O1 0.087545 0.712405 0.262336
O O2 0.130466 0.810266 0.548093
O O3 0.000000 0.788506 0.500000
O O4 0.078860 0.876775 0.258853
O O5 0.547832 0.937940 0.879965
O O6 0.629220 0.926610 0.597938
O O7 0.670503 0.894010 0.947460
O O8 0.205058 0.454419 0.315135
O O9 0.723542 0.662018 0.169405
O O10 0.844196 0.696153 0.224170
O O11 0.602506 0.661684 0.094537
O O12 0.000000 0.080850 0.000000
O O13 0.111050 0.000000 0.000000
#
# Coordination Sequence:
#
# PCOD9325610 Si02
#       7
#     8   8   4   8   2   8   8
#     4  12  26  44  76 104 142 187 241 295 369 435
#     4  12  27  44  71 107 149 194 235 295 359 441
#     4  12  24  47  70 106 147 184 242 286 344 432
#     4  11  25  47  69 103 147 187 243 286 358 428
#     4  12  28  42  72 108 152 192 238 286 372 436
#     4  11  25  47  72 103 137 193 236 295 359 430
#     4  11  25  46  71 102 138 178 233 300 365 417
#
# _framework density 20.691814000000001
#
# number of rings (size 3 to 8) (size 9 to 14) (size 15 to 20)
#    0.000    0.522    6.957    0.000    6.087    4.870 
#    0.000    0.000    0.000    0.000    0.000    0.000 
#    0.000    0.000    0.000    0.000    0.000    0.000 
#
# Total GULP energy -128157.075961 kJ/mol
# GULP energy per Si atom -5572.046781 kJ/mol
# Density = 2.064472 g / cm^3
# Si number density = 20.691814 Si / 1000 Ang^3
#
#
#
# Elastic Constant Matrix: (Units=GPa)
#
#
# Indices 1 2 3 4 5 6 
#
# 1 52.9637 32.0085 36.2511 0.0000 0.0000 0.0000
# 2 32.0085 103.6296 51.5770 0.0000 0.0000 0.0000
# 3 36.2511 51.5770 132.1795 0.0000 0.0000 0.0000
# 4 0.0000 0.0000 0.0000 44.5895 0.0000 0.0000
# 5 0.0000 0.0000 0.0000 0.0000 13.4178 0.0000
# 6 0.0000 0.0000 0.0000 0.0000 0.0000 27.0329
#
#
#
# Elastic Compliance Matrix: (Units=1/GPa)
#
#
# Indices 1 2 3 4 5 6 
#
# 1 0.025510 -0.005457 -0.004867 0.000000 0.000000 0.000000
# 2 -0.005457 0.013143 -0.003632 0.000000 0.000000 0.000000
# 3 -0.004867 -0.003632 0.010317 0.000000 0.000000 0.000000
# 4 0.000000 0.000000 0.000000 0.022427 0.000000 0.000000
# 5 0.000000 0.000000 0.000000 0.000000 0.074528 0.000000
# 6 0.000000 0.000000 0.000000 0.000000 0.000000 0.036992
#
#
# Mechanical properties :
#
#
# Convention : Reuss Voigt Hill
#
# Bulk Modulus (GPa) = 47.48625 58.71624 53.10124
# Shear Modulus (GPa) = 22.95178 28.27045 25.61111
#
# Velocity S-wave (km/s) = 3.33411 3.70031 3.52197
# Velocity P-wave (km/s) = 6.14986 6.83334 6.50059
#
# Compressibility (1/GPa) = 0.02105873
#
# Stress axis : x y z
#
# Youngs Moduli (GPa) = 39.20023 76.08694 96.92381
#
# Poissons Ratio (x) = 0.41521 0.47172
# Poissons Ratio (y) = 0.21392 0.35200
# Poissons Ratio (z) = 0.19078 0.27633
#
# Static dielectric constant tensor:
#      x y z
#    x 1.756460 0.000000 0.000000 
#    y 0.000000 1.919900 0.000000 
#    z 0.000000 0.000000 1.771690 
# 
# From -- ./inp_files/6732.got.cif
#   From: 2010.05.17/outbox.cif.g08.bks.cpg/sg21_4_cif.got.tgz:6732.got - 2010.06.03 23:14:55.
