data_PCOD9325551
_publ_section_title
;
Structure prediction by ZEFSAII (Michael W. Deem and Ramdas Pophale) SiO2 
 PCOD9325551
Probable space group: C 2 2 2
;
_chemical_formula_sum "Si O2"
_cell_formula_units_Z 34
_cell_length_a 9.521951
_cell_length_b 20.621351
_cell_length_c 8.129721
_cell_angle_alpha 90.000000
_cell_angle_beta 90.000000
_cell_angle_gamma 90.000000
_cell_volume 1596.315381
_symmetry_space_group_name_H-M "C 2 2 2"
_symmetry_group_IT_number 21
_symmetry_cell_setting 'orthorhombic'
loop_
_space_group_symop_operation_xyz
x,y,z
-x,-y,z
x,-y,-z
-x,y,-z
1/2+x,1/2+y,z
1/2-x,1/2-y,z
1/2+x,1/2-y,-z
1/2-x,1/2+y,-z
loop_
_atom_site_type_symbol
_atom_site_label
_atom_site_fract_x
_atom_site_fract_y
_atom_site_fract_z
Si Si1 0.466786 0.424248 0.818038
Si Si2 0.181247 0.833701 0.671920
Si Si3 0.679434 0.884881 0.655980
Si Si4 0.450874 0.791716 0.817957
Si Si5 0.500000 0.000000 0.500000
O O1 0.500000 0.500000 0.817764
O O2 0.576171 0.392350 0.694443
O O3 0.310355 0.405994 0.766626
O O4 0.500000 0.398377 0.000000
O O5 0.260420 0.845154 0.500725
O O6 0.303081 0.830524 0.811027
O O7 0.087721 0.769500 0.702123
O O8 0.570481 0.837560 0.745232
O O9 0.598393 0.950271 0.600967
O O10 0.500000 0.771696 0.000000
#
# Coordination Sequence:
#
# PCOD9325551 Si02
#       5
#     8   8   8   8   2
#     4  11  25  44  69 103 141 190 242 303 367 428
#     4  11  24  45  69 103 142 185 245 297 366 435
#     4  12  25  46  74 102 146 191 248 302 366 445
#     4  11  25  46  71 104 142 188 235 302 370 441
#     4  12  24  48  72 112 140 196 258 300 368 432
#
# _framework density 21.299047999999999
#
# number of rings (size 3 to 8) (size 9 to 14) (size 15 to 20)
#    0.000    0.706    2.353    4.235    0.000   11.294 
#    0.000    0.000    0.000    0.000    0.000    0.000 
#    0.000    0.000    0.000    0.000    0.000    0.000 
#
# Total GULP energy -95077.878957 kJ/mol
# GULP energy per Si atom -5592.816409 kJ/mol
# Density = 2.125057 g / cm^3
# Si number density = 21.299048 Si / 1000 Ang^3
#
#
#
# Elastic Constant Matrix: (Units=GPa)
#
#
# Indices 1 2 3 4 5 6 
#
# 1 158.4528 72.6266 59.6480 0.0000 0.0000 0.0000
# 2 72.6266 126.4153 62.8577 0.0000 0.0000 0.0000
# 3 59.6480 62.8577 95.9416 0.0000 0.0000 0.0000
# 4 0.0000 0.0000 0.0000 11.3414 0.0000 0.0000
# 5 0.0000 0.0000 0.0000 0.0000 48.8755 0.0000
# 6 0.0000 0.0000 0.0000 0.0000 0.0000 45.6187
#
#
#
# Elastic Compliance Matrix: (Units=1/GPa)
#
#
# Indices 1 2 3 4 5 6 
#
# 1 0.009245 -0.003639 -0.003364 0.000000 0.000000 0.000000
# 2 -0.003639 0.013165 -0.006363 0.000000 0.000000 0.000000
# 3 -0.003364 -0.006363 0.016683 0.000000 0.000000 0.000000
# 4 0.000000 0.000000 0.000000 0.088173 0.000000 0.000000
# 5 0.000000 0.000000 0.000000 0.000000 0.020460 0.000000
# 6 0.000000 0.000000 0.000000 0.000000 0.000000 0.021921
#
#
# Mechanical properties :
#
#
# Convention : Reuss Voigt Hill
#
# Bulk Modulus (GPa) = 80.89250 85.67492 83.28371
# Shear Modulus (GPa) = 24.93788 33.54560 29.24174
#
# Velocity S-wave (km/s) = 3.42547 3.97291 3.70930
# Velocity P-wave (km/s) = 7.32851 7.83310 7.58500
#
# Compressibility (1/GPa) = 0.01236209
#
# Stress axis : x y z
#
# Youngs Moduli (GPa) = 108.16496 75.96040 59.94126
#
# Poissons Ratio (x) = 0.27641 0.20163
# Poissons Ratio (y) = 0.39359 0.38139
# Poissons Ratio (z) = 0.36384 0.48332
#
# Static dielectric constant tensor:
#      x y z
#    x 1.749240 0.000000 0.000000 
#    y 0.000000 1.776750 0.000000 
#    z 0.000000 0.000000 1.825320 
# 
# From -- ./inp_files/10571.got.cif
#   From: 2010.05.17/outbox.cif.g08.bks.cpg/sg21_6_cif.got.tgz:10571.got - 2010.06.03 23:14:55.
