data_PCOD9325062
_publ_section_title
;
Structure prediction by ZEFSAII (Michael W. Deem and Ramdas Pophale) SiO2 
 PCOD9325062
Probable space group: C 2 2 2
;
_chemical_formula_sum "Si O2"
_cell_formula_units_Z 28
_cell_length_a 20.033400
_cell_length_b 4.893008
_cell_length_c 11.466827
_cell_angle_alpha 90.000000
_cell_angle_beta 90.000000
_cell_angle_gamma 90.000000
_cell_volume 1124.019508
_symmetry_space_group_name_H-M "C 2 2 2"
_symmetry_group_IT_number 21
_symmetry_cell_setting 'orthorhombic'
loop_
_space_group_symop_operation_xyz
x,y,z
-x,-y,z
x,-y,-z
-x,y,-z
1/2+x,1/2+y,z
1/2-x,1/2-y,z
1/2+x,1/2-y,-z
1/2-x,1/2+y,-z
loop_
_atom_site_type_symbol
_atom_site_label
_atom_site_fract_x
_atom_site_fract_y
_atom_site_fract_z
Si Si1 0.897782 0.233933 0.831338
Si Si2 0.291044 0.000000 0.000000
Si Si3 0.895882 0.263857 0.319766
Si Si4 0.000000 0.500000 0.000000
Si Si5 0.750000 0.750000 0.582638
Si Si6 0.500000 0.500000 0.500000
O O1 0.832784 0.339743 0.900921
O O2 0.904850 0.921179 0.795519
O O3 0.955716 0.314937 0.917616
O O4 0.902625 0.419635 0.714958
O O5 0.250000 0.750000 0.056241
O O6 0.949824 0.173852 0.416492
O O7 0.819210 0.197721 0.351941
O O8 0.766084 0.500000 0.500000
#
# Coordination Sequence:
#
# PCOD9325062 Si02
#       6
#     8   4   8   2   4   2
#     4  11  26  45  73 104 141 192 235 298 359 431
#     4  11  24  43  68 105 142 181 236 294 350 427
#     4  12  27  46  75 106 146 191 245 301 368 433
#     4  10  24  50  72 104 152 184 248 296 368 426
#     4  12  26  50  72 108 150 196 242 308 370 430
#     4  12  28  50  72 108 148 188 252 302 360 444
#
# _framework density 24.910599000000001
#
# number of rings (size 3 to 8) (size 9 to 14) (size 15 to 20)
#    0.000    0.571    1.429    5.143    6.000    5.714 
#    0.000    0.000    0.000    0.000    0.000    0.000 
#    0.000    0.000    0.000    0.000    0.000    0.000 
#
# Total GULP energy -78514.236654 kJ/mol
# GULP energy per Si atom -5608.159761 kJ/mol
# Density = 2.485390 g / cm^3
# Si number density = 24.910599 Si / 1000 Ang^3
#
#
#
# Elastic Constant Matrix: (Units=GPa)
#
#
# Indices 1 2 3 4 5 6 
#
# 1 153.2513 1.7878 40.9362 0.0000 0.0000 0.0000
# 2 1.7878 78.7298 -7.9047 0.0000 0.0000 0.0000
# 3 40.9362 -7.9047 69.4876 0.0000 0.0000 0.0000
# 4 0.0000 0.0000 0.0000 16.2607 0.0000 0.0000
# 5 0.0000 0.0000 0.0000 0.0000 26.9887 0.0000
# 6 0.0000 0.0000 0.0000 0.0000 0.0000 29.2361
#
#
#
# Elastic Compliance Matrix: (Units=1/GPa)
#
#
# Indices 1 2 3 4 5 6 
#
# 1 0.007776 -0.000644 -0.004654 0.000000 0.000000 0.000000
# 2 -0.000644 0.012902 0.001847 0.000000 0.000000 0.000000
# 3 -0.004654 0.001847 0.017343 0.000000 0.000000 0.000000
# 4 0.000000 0.000000 0.000000 0.061498 0.000000 0.000000
# 5 0.000000 0.000000 0.000000 0.000000 0.037052 0.000000
# 6 0.000000 0.000000 0.000000 0.000000 0.000000 0.034204
#
#
# Mechanical properties :
#
#
# Convention : Reuss Voigt Hill
#
# Bulk Modulus (GPa) = 32.13516 41.23414 36.68465
# Shear Modulus (GPa) = 26.58858 32.27371 29.43115
#
# Velocity S-wave (km/s) = 3.27059 3.60332 3.44098
# Velocity P-wave (km/s) = 5.21446 5.82243 5.52681
#
# Compressibility (1/GPa) = 0.03111856
#
# Stress axis : x y z
#
# Youngs Moduli (GPa) = 128.60147 77.50894 57.66008
#
# Poissons Ratio (x) = 0.04991 0.26836
# Poissons Ratio (y) = 0.08280 -0.10650
# Poissons Ratio (z) = 0.59853 -0.14316
#
# Static dielectric constant tensor:
#      x y z
#    x 2.083460 0.000000 0.000000 
#    y 0.000000 1.873220 0.000000 
#    z 0.000000 0.000000 1.986000 
# 
# From -- ./inp_files/26448.got.cif
#   From: 2010.05.17/outbox.cif.g08.bks.cpg/sg21_14_cif.got.tgz:26448.got - 2010.06.03 23:14:55.
