data_PCOD9325540
_publ_section_title
;
Structure prediction by ZEFSAII (Michael W. Deem and Ramdas Pophale) SiO2 
 PCOD9325540
Probable space group: C 2 2 2
;
_chemical_formula_sum "Si O2"
_cell_formula_units_Z 24
_cell_length_a 22.292764
_cell_length_b 5.029151
_cell_length_c 10.669821
_cell_angle_alpha 90.000000
_cell_angle_beta 90.000000
_cell_angle_gamma 90.000000
_cell_volume 1196.232858
_symmetry_space_group_name_H-M "C 2 2 2"
_symmetry_group_IT_number 21
_symmetry_cell_setting 'orthorhombic'
loop_
_space_group_symop_operation_xyz
x,y,z
-x,-y,z
x,-y,-z
-x,y,-z
1/2+x,1/2+y,z
1/2-x,1/2-y,z
1/2+x,1/2-y,-z
1/2-x,1/2+y,-z
loop_
_atom_site_type_symbol
_atom_site_label
_atom_site_fract_x
_atom_site_fract_y
_atom_site_fract_z
Si Si1 0.705533 0.000000 0.500000
Si Si2 0.570555 0.550450 0.852144
Si Si3 0.250000 0.250000 0.077123
Si Si4 0.139592 0.560909 0.758510
O O1 0.750000 0.750000 0.490094
O O2 0.663733 0.015480 0.377819
O O3 0.500000 0.500000 0.832824
O O4 0.605352 0.339608 0.766404
O O5 0.595900 0.838932 0.816425
O O6 0.581808 0.500000 0.000000
O O7 0.198561 0.390465 0.157678
O O8 0.276212 0.500000 0.000000
#
# Coordination Sequence:
#
# PCOD9325540 Si02
#       4
#     4   8   4   8
#     4  12  26  46  65  92 135 180 212 264 328 394
#     4  11  24  44  68  97 133 173 216 271 331 385
#     4  12  24  38  64 100 136 164 214 280 336 394
#     4  12  24  43  66  96 131 175 221 263 329 391
#
# _framework density 20.062985000000001
#
# number of rings (size 3 to 8) (size 9 to 14) (size 15 to 20)
#    0.000    0.333    1.667    9.000    2.333    2.667 
#    0.000    5.000    0.000    0.000    0.000    0.000 
#    0.000    0.000    0.000    0.000    0.000    0.000 
#
# Total GULP energy -67145.322895 kJ/mol
# GULP energy per Si atom -5595.443575 kJ/mol
# Density = 2.001732 g / cm^3
# Si number density = 20.062985 Si / 1000 Ang^3
#
#
#
# Elastic Constant Matrix: (Units=GPa)
#
#
# Indices 1 2 3 4 5 6 
#
# 1 114.4139 8.7152 28.4313 0.0000 0.0000 0.0000
# 2 8.7152 97.4805 2.1414 0.0000 0.0000 0.0000
# 3 28.4313 2.1414 95.2099 0.0000 0.0000 0.0000
# 4 0.0000 0.0000 0.0000 27.7960 0.0000 0.0000
# 5 0.0000 0.0000 0.0000 0.0000 37.5448 0.0000
# 6 0.0000 0.0000 0.0000 0.0000 0.0000 43.6959
#
#
#
# Elastic Compliance Matrix: (Units=1/GPa)
#
#
# Indices 1 2 3 4 5 6 
#
# 1 0.009501 -0.000787 -0.002819 0.000000 0.000000 0.000000
# 2 -0.000787 0.010329 0.000003 0.000000 0.000000 0.000000
# 3 -0.002819 0.000003 0.011345 0.000000 0.000000 0.000000
# 4 0.000000 0.000000 0.000000 0.035976 0.000000 0.000000
# 5 0.000000 0.000000 0.000000 0.000000 0.026635 0.000000
# 6 0.000000 0.000000 0.000000 0.000000 0.000000 0.022885
#
#
# Mechanical properties :
#
#
# Convention : Reuss Voigt Hill
#
# Bulk Modulus (GPa) = 41.72488 42.85334 42.28911
# Shear Modulus (GPa) = 37.91669 39.66178 38.78924
#
# Velocity S-wave (km/s) = 4.35199 4.45102 4.40178
# Velocity P-wave (km/s) = 6.78935 6.91529 6.85261
#
# Compressibility (1/GPa) = 0.02396652
#
# Stress axis : x y z
#
# Youngs Moduli (GPa) = 105.25447 96.81665 88.14486
#
# Poissons Ratio (x) = 0.07624 0.24851
# Poissons Ratio (y) = 0.08289 -0.00025
# Poissons Ratio (z) = 0.29675 -0.00028
#
# Static dielectric constant tensor:
#      x y z
#    x 1.731860 0.000000 0.000000 
#    y 0.000000 1.628350 0.000000 
#    z 0.000000 0.000000 1.720600 
# 
# From -- ./inp_files/8636.got.cif
#   From: 2010.05.17/outbox.cif.g08.bks.cpg/sg21_5_cif.got.tgz:8636.got - 2010.06.03 23:14:55.
