data_PCOD9325530
_publ_section_title
;
Structure prediction by ZEFSAII (Michael W. Deem and Ramdas Pophale) SiO2 
 PCOD9325530
Probable space group: C 2 2 2
;
_chemical_formula_sum "Si O2"
_cell_formula_units_Z 24
_cell_length_a 8.008116
_cell_length_b 25.962148
_cell_length_c 4.750558
_cell_angle_alpha 90.000000
_cell_angle_beta 90.000000
_cell_angle_gamma 90.000000
_cell_volume 987.678503
_symmetry_space_group_name_H-M "C 2 2 2"
_symmetry_group_IT_number 21
_symmetry_cell_setting 'orthorhombic'
loop_
_space_group_symop_operation_xyz
x,y,z
-x,-y,z
x,-y,-z
-x,y,-z
1/2+x,1/2+y,z
1/2-x,1/2-y,z
1/2+x,1/2-y,-z
1/2-x,1/2+y,-z
loop_
_atom_site_type_symbol
_atom_site_label
_atom_site_fract_x
_atom_site_fract_y
_atom_site_fract_z
Si Si1 0.887898 0.210634 0.237114
Si Si2 0.696407 0.556966 0.569841
Si Si3 0.193641 0.618170 0.936197
O O1 0.750000 0.250000 0.348279
O O2 0.000000 0.193186 0.500000
O O3 0.801646 0.165138 0.059174
O O4 0.000000 0.238563 0.000000
O O5 0.760142 0.500000 0.500000
O O6 0.500000 0.558585 0.500000
O O7 0.780838 0.602322 0.386568
O O8 0.734919 0.569457 0.891495
O O9 0.000000 0.626116 0.000000
#
# Coordination Sequence:
#
# PCOD9325530 Si02
#       3
#     8   8   8
#     4  12  26  46  71  99 135 177 227 280 339 404
#     4  11  24  43  67  96 133 178 225 275 335 398
#     4  12  25  42  67  99 135 175 223 276 334 399
#
# _framework density 24.299405
#
# number of rings (size 3 to 8) (size 9 to 14) (size 15 to 20)
#    0.000    0.333    0.000   10.000    0.000    9.333 
#    0.000    0.000    0.000    0.000    0.000    0.000 
#    0.000    0.000    0.000    0.000    0.000    0.000 
#
# Total GULP energy -67257.932755 kJ/mol
# GULP energy per Si atom -5604.827730 kJ/mol
# Density = 2.424410 g / cm^3
# Si number density = 24.299405 Si / 1000 Ang^3
#
#
#
# Elastic Constant Matrix: (Units=GPa)
#
#
# Indices 1 2 3 4 5 6 
#
# 1 121.1283 15.6862 19.8890 0.0000 0.0000 0.0000
# 2 15.6862 93.8693 -6.7922 0.0000 0.0000 0.0000
# 3 19.8890 -6.7922 88.9635 0.0000 0.0000 0.0000
# 4 0.0000 0.0000 0.0000 32.7482 0.0000 0.0000
# 5 0.0000 0.0000 0.0000 0.0000 42.7998 0.0000
# 6 0.0000 0.0000 0.0000 0.0000 0.0000 15.0021
#
#
#
# Elastic Compliance Matrix: (Units=1/GPa)
#
#
# Indices 1 2 3 4 5 6 
#
# 1 0.008810 -0.001624 -0.002093 0.000000 0.000000 0.000000
# 2 -0.001624 0.011012 0.001204 0.000000 0.000000 0.000000
# 3 -0.002093 0.001204 0.011800 0.000000 0.000000 0.000000
# 4 0.000000 0.000000 0.000000 0.030536 0.000000 0.000000
# 5 0.000000 0.000000 0.000000 0.000000 0.023365 0.000000
# 6 0.000000 0.000000 0.000000 0.000000 0.000000 0.066657
#
#
# Mechanical properties :
#
#
# Convention : Reuss Voigt Hill
#
# Bulk Modulus (GPa) = 37.60125 40.16968 38.88547
# Shear Modulus (GPa) = 30.10748 36.45521 33.28135
#
# Velocity S-wave (km/s) = 3.52379 3.87751 3.70487
# Velocity P-wave (km/s) = 5.66250 6.05093 5.85994
#
# Compressibility (1/GPa) = 0.02659486
#
# Stress axis : x y z
#
# Youngs Moduli (GPa) = 113.51100 90.81391 84.74220
#
# Poissons Ratio (x) = 0.14745 0.17741
# Poissons Ratio (y) = 0.18430 -0.10200
# Poissons Ratio (z) = 0.23763 -0.10931
#
# Static dielectric constant tensor:
#      x y z
#    x 1.912840 0.000000 0.000000 
#    y 0.000000 1.910950 0.000000 
#    z 0.000000 0.000000 1.846340 
# 
# From -- ./inp_files/1121.got.cif
#   From: 2010.05.17/outbox.cif.g08.bks.cpg/sg21_1_cif.got.tgz:1121.got - 2010.06.03 23:14:55.
