data_PCOD9325556
_publ_section_title
;
Structure prediction by ZEFSAII (Michael W. Deem and Ramdas Pophale) SiO2 
 PCOD9325556
Probable space group: C 2 2 2
;
_chemical_formula_sum "Si O2"
_cell_formula_units_Z 32
_cell_length_a 8.556615
_cell_length_b 11.248448
_cell_length_c 13.817077
_cell_angle_alpha 90.000000
_cell_angle_beta 90.000000
_cell_angle_gamma 90.000000
_cell_volume 1329.874855
_symmetry_space_group_name_H-M "C 2 2 2"
_symmetry_group_IT_number 21
_symmetry_cell_setting 'orthorhombic'
loop_
_space_group_symop_operation_xyz
x,y,z
-x,-y,z
x,-y,-z
-x,y,-z
1/2+x,1/2+y,z
1/2-x,1/2-y,z
1/2+x,1/2-y,-z
1/2-x,1/2+y,-z
loop_
_atom_site_type_symbol
_atom_site_label
_atom_site_fract_x
_atom_site_fract_y
_atom_site_fract_z
Si Si1 0.717279 0.918204 0.246492
Si Si2 0.962233 0.861225 0.388953
Si Si3 0.609118 0.183285 0.238934
Si Si4 0.829530 0.121502 0.954403
O O1 0.787174 0.863858 0.344298
O O2 0.564011 0.852102 0.202622
O O3 0.840539 0.906365 0.160144
O O4 0.674193 0.054032 0.265992
O O5 0.000000 0.833206 0.500000
O O6 0.066898 0.772173 0.325929
O O7 0.000000 0.000000 0.374747
O O8 0.750000 0.250000 0.182890
O O9 0.750000 0.250000 0.967695
O O10 0.000000 0.129694 0.000000
O O11 0.752918 0.000000 0.000000
#
# Coordination Sequence:
#
# PCOD9325556 Si02
#       4
#     8   8   8   8
#     4  11  26  49  75 109 151 200 254 313 385 461
#     4  11  24  45  72 110 158 198 252 318 381 453
#     4  11  24  45  76 105 146 203 253 308 378 450
#     4  11  28  49  79 114 151 198 253 320 387 467
#
# _framework density 24.062412999999999
#
# number of rings (size 3 to 8) (size 9 to 14) (size 15 to 20)
#    0.000    1.000    2.500    2.250    3.500   13.500 
#    0.000    1.250    0.000    0.000    0.000    0.000 
#    0.000    0.000    0.000    0.000    0.000    0.000 
#
# Total GULP energy -89303.094425 kJ/mol
# GULP energy per Si atom -5581.443402 kJ/mol
# Density = 2.400765 g / cm^3
# Si number density = 24.062413 Si / 1000 Ang^3
#
#
#
# Elastic Constant Matrix: (Units=GPa)
#
#
# Indices 1 2 3 4 5 6 
#
# 1 131.9110 30.6488 34.1568 0.0000 0.0000 0.0000
# 2 30.6488 200.8932 52.3493 0.0000 0.0000 0.0000
# 3 34.1568 52.3493 111.4883 0.0000 0.0000 0.0000
# 4 0.0000 0.0000 0.0000 14.9515 0.0000 0.0000
# 5 0.0000 0.0000 0.0000 0.0000 -29.1296 0.0000
# 6 0.0000 0.0000 0.0000 0.0000 0.0000 52.5931
#
#
#
# Elastic Compliance Matrix: (Units=1/GPa)
#
#
# Indices 1 2 3 4 5 6 
#
# 1 0.008317 -0.000689 -0.002224 0.000000 0.000000 0.000000
# 2 -0.000689 0.005729 -0.002479 0.000000 0.000000 0.000000
# 3 -0.002224 -0.002479 0.010815 0.000000 0.000000 0.000000
# 4 0.000000 0.000000 0.000000 0.066883 0.000000 0.000000
# 5 0.000000 0.000000 0.000000 0.000000 -0.034329 0.000000
# 6 0.000000 0.000000 0.000000 0.000000 0.000000 0.019014
#
#
# Mechanical properties :
#
#
# Convention : Reuss Voigt Hill
#
# Bulk Modulus (GPa) = 71.04370 75.40025 73.22197
# Shear Modulus (GPa) = 54.40380 29.49218 41.94799
#
# Velocity S-wave (km/s) = 4.76010 3.50473 4.17981
# Velocity P-wave (km/s) = 7.73306 6.91237 7.33420
#
# Compressibility (1/GPa) = 0.01407584
#
# Stress axis : x y z
#
# Youngs Moduli (GPa) = 120.23561 174.55493 92.46418
#
# Poissons Ratio (x) = 0.12030 0.20568
# Poissons Ratio (y) = 0.08287 0.22920
# Poissons Ratio (z) = 0.26746 0.43269
#
# Static dielectric constant tensor:
#      x y z
#    x 2.151980 0.000000 0.000000 
#    y 0.000000 1.946910 0.000000 
#    z 0.000000 0.000000 1.885930 
# 
# From -- ./inp_files/29922.got.cif
#   From: 2010.05.17/outbox.cif.g08.bks.cpg/sg21_15_cif.got.tgz:29922.got - 2010.06.03 23:14:55.
