data_PCOD9325331
_publ_section_title
;
Structure prediction by ZEFSAII (Michael W. Deem and Ramdas Pophale) SiO2 
 PCOD9325331
Probable space group: C 2 2 2
;
_chemical_formula_sum "Si O2"
_cell_formula_units_Z 48
_cell_length_a 15.991865
_cell_length_b 8.126205
_cell_length_c 17.854060
_cell_angle_alpha 90.000000
_cell_angle_beta 90.000000
_cell_angle_gamma 90.000000
_cell_volume 2320.191754
_symmetry_space_group_name_H-M "C 2 2 2"
_symmetry_group_IT_number 21
_symmetry_cell_setting 'orthorhombic'
loop_
_space_group_symop_operation_xyz
x,y,z
-x,-y,z
x,-y,-z
-x,y,-z
1/2+x,1/2+y,z
1/2-x,1/2-y,z
1/2+x,1/2-y,-z
1/2-x,1/2+y,-z
loop_
_atom_site_type_symbol
_atom_site_label
_atom_site_fract_x
_atom_site_fract_y
_atom_site_fract_z
Si Si1 0.840243 0.804344 0.320144
Si Si2 0.596842 0.198830 0.161761
Si Si3 0.000000 0.201747 0.586361
Si Si4 0.397773 0.807784 1.000000
Si Si5 0.096843 0.301171 0.161762
Si Si6 0.159757 0.804345 0.320144
O O1 0.750000 0.750000 0.348449
O O2 0.917592 0.741042 0.369507
O O3 0.852509 0.749741 0.234346
O O4 0.843769 1.000000 0.321643
O O5 0.627823 0.262981 0.080639
O O6 0.500000 0.252670 0.171942
O O7 0.647490 0.249742 0.234345
O O8 0.596181 0.000000 0.157663
O O9 0.000000 0.252704 0.500000
O O10 0.082408 0.258957 0.630493
O O11 0.000000 0.000000 0.587362
O O12 0.500000 0.804716 0.000000
O O13 0.372177 0.737020 0.919361
O O14 0.372916 0.000000 0.000000
O O15 0.250000 0.750000 0.348448
#
# Coordination Sequence:
#
# PCOD9325331 Si02
#       6
#     8   8   8   8   8   8
#     4  11  22  37  58  85 115 148 187 228 277 332
#     4   9  16  30  54  81 112 148 188 231 277 327
#     4   9  20  40  63  84 111 146 180 223 281 339
#     4   7  12  24  46  77 108 144 186 228 274 323
#     4   9  16  30  54  81 112 148 188 231 277 327
#     4  11  22  37  58  85 115 148 187 228 277 332
#
# _framework density 20.687944999999999
#
# number of rings (size 3 to 8) (size 9 to 14) (size 15 to 20)
#    0.000    2.667    1.667    3.000    0.000    0.667 
#    0.000    1.667    0.000   10.000    0.000    0.000 
#    0.000    0.000    0.000    0.000    0.000    0.000 
#
# Total GULP energy -133886.678191 kJ/mol
# GULP energy per Si atom -5578.611591 kJ/mol
# Density = 2.064086 g / cm^3
# Si number density = 20.687945 Si / 1000 Ang^3
#
#
#
# Elastic Constant Matrix: (Units=GPa)
#
#
# Indices 1 2 3 4 5 6 
#
# 1 131.0616 9.8655 79.4897 0.0000 0.0000 0.0000
# 2 9.8655 14.7732 10.3294 0.0000 0.0000 0.0000
# 3 79.4897 10.3294 163.1152 0.0000 0.0000 0.0000
# 4 0.0000 0.0000 0.0000 -2.0650 0.0000 0.0000
# 5 0.0000 0.0000 0.0000 0.0000 -176.8241 0.0000
# 6 0.0000 0.0000 0.0000 0.0000 0.0000 14.5757
#
#
#
# Elastic Compliance Matrix: (Units=1/GPa)
#
#
# Indices 1 2 3 4 5 6 
#
# 1 0.011029 -0.003774 -0.005136 0.000000 0.000000 0.000000
# 2 -0.003774 0.072118 -0.002728 0.000000 0.000000 0.000000
# 3 -0.005136 -0.002728 0.008806 0.000000 0.000000 0.000000
# 4 0.000000 0.000000 0.000000 -0.484265 0.000000 0.000000
# 5 0.000000 0.000000 0.000000 0.000000 -0.005655 0.000000
# 6 0.000000 0.000000 0.000000 0.000000 0.000000 0.068607
#
#
# Mechanical properties :
#
#
# Convention : Reuss Voigt Hill
#
# Bulk Modulus (GPa) = 14.56077 56.47990 35.52033
# Shear Modulus (GPa) = -17.65582 -18.91164 -18.28373
#
# Velocity S-wave (km/s) = -2.92453 -3.02675 -2.97608
# Velocity P-wave (km/s) = 2.08573 3.89168 2.32324
#
# Compressibility (1/GPa) = 0.06867771
#
# Stress axis : x y z
#
# Youngs Moduli (GPa) = 90.67100 13.86621 113.55818
#
# Poissons Ratio (x) = 0.05234 0.58319
# Poissons Ratio (y) = 0.34222 0.30974
# Poissons Ratio (z) = 0.46565 0.03782
#
# Static dielectric constant tensor:
#      x y z
#    x 1.763130 0.000000 0.000000 
#    y 0.000000 1.732020 0.000000 
#    z 0.000000 0.000000 1.752770 
# 
# From -- ./inp_files/36627.got.cif
#   From: 2010.05.17/outbox.cif.g08.bks.cpg/sg21_19_cif.got.tgz:36627.got - 2010.06.03 23:14:55.
