data_PCOD9325420
_publ_section_title
;
Structure prediction by ZEFSAII (Michael W. Deem and Ramdas Pophale) SiO2 
 PCOD9325420
Probable space group: C 2 2 2
;
_chemical_formula_sum "Si O2"
_cell_formula_units_Z 56
_cell_length_a 16.171244
_cell_length_b 14.433578
_cell_length_c 10.759152
_cell_angle_alpha 90.000000
_cell_angle_beta 90.000000
_cell_angle_gamma 90.000000
_cell_volume 2511.281958
_symmetry_space_group_name_H-M "C 2 2 2"
_symmetry_group_IT_number 21
_symmetry_cell_setting 'orthorhombic'
loop_
_space_group_symop_operation_xyz
x,y,z
-x,-y,z
x,-y,-z
-x,y,-z
1/2+x,1/2+y,z
1/2-x,1/2-y,z
1/2+x,1/2-y,-z
1/2-x,1/2+y,-z
loop_
_atom_site_type_symbol
_atom_site_label
_atom_site_fract_x
_atom_site_fract_y
_atom_site_fract_z
Si Si1 0.964893 0.906821 0.863577
Si Si2 0.713100 0.581572 0.799404
Si Si3 0.121909 0.607214 0.048376
Si Si4 0.080419 0.355664 0.446454
Si Si5 0.739908 0.432241 0.608350
Si Si6 0.969920 0.299604 0.825436
Si Si7 0.165264 0.196266 0.557216
O O1 0.867134 0.919909 0.882999
O O2 0.995015 0.805453 0.818422
O O3 0.000000 0.000000 0.795632
O O4 0.000000 0.907266 0.000000
O O5 0.792494 0.620745 0.873797
O O6 0.738698 0.482746 0.739684
O O7 0.670656 0.633609 0.679777
O O8 0.046287 0.631884 0.140430
O O9 0.120290 0.500000 0.000000
O O10 0.099042 0.676260 0.932596
O O11 0.168024 0.406786 0.435987
O O12 0.065301 0.324960 0.306841
O O13 0.093405 0.269880 0.541969
O O14 0.000000 0.404904 0.500000
O O15 0.709212 0.500000 0.500000
O O16 0.678140 0.348243 0.580375
O O17 0.250000 0.250000 0.575233
#
# Coordination Sequence:
#
# PCOD9325420 Si02
#       7
#     8   8   8   8   8   8   8
#     4  11  26  46  66  98 135 179 243 292 347 429
#     4  11  24  43  76  94 141 191 239 297 365 434
#     4  11  25  45  72 105 139 188 239 293 367 442
#     4  11  23  39  69 102 141 185 230 297 368 426
#     4   9  21  41  60 100 134 179 234 287 349 432
#     4  11  24  46  68 103 147 181 237 301 360 434
#     4   9  21  40  65 100 135 176 237 289 347 429
#
# _framework density 22.299367
#
# number of rings (size 3 to 8) (size 9 to 14) (size 15 to 20)
#    0.000    1.571    1.429    2.571   12.000    0.286 
#    0.000    0.000    0.000    0.000    0.000    0.000 
#    0.000    0.000    0.000    0.000    0.000    0.000 
#
# Total GULP energy -155871.059403 kJ/mol
# GULP energy per Si atom -5566.823550 kJ/mol
# Density = 2.224861 g / cm^3
# Si number density = 22.299367 Si / 1000 Ang^3
#
#
#
# Elastic Constant Matrix: (Units=GPa)
#
#
# Indices 1 2 3 4 5 6 
#
# 1 114.6472 33.6804 39.5220 0.0000 0.0000 0.0000
# 2 33.6804 96.2704 21.1713 0.0000 0.0000 0.0000
# 3 39.5220 21.1713 77.9862 0.0000 0.0000 0.0000
# 4 0.0000 0.0000 0.0000 22.5101 0.0000 0.0000
# 5 0.0000 0.0000 0.0000 0.0000 -51.6378 0.0000
# 6 0.0000 0.0000 0.0000 0.0000 0.0000 7.0251
#
#
#
# Elastic Compliance Matrix: (Units=1/GPa)
#
#
# Indices 1 2 3 4 5 6 
#
# 1 0.011261 -0.002855 -0.004932 0.000000 0.000000 0.000000
# 2 -0.002855 0.011771 -0.001749 0.000000 0.000000 0.000000
# 3 -0.004932 -0.001749 0.015797 0.000000 0.000000 0.000000
# 4 0.000000 0.000000 0.000000 0.044424 0.000000 0.000000
# 5 0.000000 0.000000 0.000000 0.000000 -0.019366 0.000000
# 6 0.000000 0.000000 0.000000 0.000000 0.000000 0.142347
#
#
# Mechanical properties :
#
#
# Convention : Reuss Voigt Hill
#
# Bulk Modulus (GPa) = 50.61305 53.07235 51.84270
# Shear Modulus (GPa) = 21.56173 8.54816 15.05495
#
# Velocity S-wave (km/s) = 3.11291 1.96002 2.60114
# Velocity P-wave (km/s) = 5.97215 5.38274 5.68509
#
# Compressibility (1/GPa) = 0.01975775
#
# Stress axis : x y z
#
# Youngs Moduli (GPa) = 88.79916 84.95578 63.30366
#
# Poissons Ratio (x) = 0.24257 0.31221
# Poissons Ratio (y) = 0.25354 0.11069
# Poissons Ratio (z) = 0.43795 0.14855
#
# Static dielectric constant tensor:
#      x y z
#    x 1.794000 0.000000 0.000000 
#    y 0.000000 2.838300 0.000000 
#    z 0.000000 0.000000 1.889100 
# 
# From -- ./inp_files/25303.got.cif
#   From: 2010.05.17/outbox.cif.g08.bks.cpg/sg21_13_cif.got.tgz:25303.got - 2010.06.03 23:14:55.
