data_PCOD9325713
_publ_section_title
;
Structure prediction by ZEFSAII (Michael W. Deem and Ramdas Pophale) SiO2 
 PCOD9325713
Probable space group: C 2 2 2
;
_chemical_formula_sum "Si O2"
_cell_formula_units_Z 34
_cell_length_a 17.858958
_cell_length_b 19.258714
_cell_length_c 4.979789
_cell_angle_alpha 90.000000
_cell_angle_beta 90.000000
_cell_angle_gamma 90.000000
_cell_volume 1712.751440
_symmetry_space_group_name_H-M "C 2 2 2"
_symmetry_group_IT_number 21
_symmetry_cell_setting 'orthorhombic'
loop_
_space_group_symop_operation_xyz
x,y,z
-x,-y,z
x,-y,-z
-x,y,-z
1/2+x,1/2+y,z
1/2-x,1/2-y,z
1/2+x,1/2-y,-z
1/2-x,1/2+y,-z
loop_
_atom_site_type_symbol
_atom_site_label
_atom_site_fract_x
_atom_site_fract_y
_atom_site_fract_z
Si Si1 0.878317 0.606426 0.862385
Si Si2 0.678522 0.698352 0.529706
Si Si3 0.719740 0.923142 0.377352
Si Si4 0.000000 0.500000 0.000000
Si Si5 0.414030 0.737525 0.972521
O O1 0.841364 0.611323 0.573376
O O2 0.906998 0.681205 0.953484
O O3 0.944744 0.550811 0.841971
O O4 0.816117 0.580961 0.080538
O O5 0.750000 0.750000 0.532826
O O6 0.707896 0.624700 0.419183
O O7 0.641340 0.697702 0.822467
O O8 0.616974 0.726646 0.324433
O O9 0.730454 0.000000 0.500000
O O10 0.500000 0.715719 0.000000
#
# Coordination Sequence:
#
# PCOD9325713 Si02
#       5
#     8   8   8   2   8
#     4  12  23  37  60  88 127 169 195 235 293 385
#     4  12  23  40  68  88 124 164 216 257 299 364
#     4  12  24  40  60  90 121 160 210 249 302 353
#     4  12  24  38  56  94 140 170 180 230 312 398
#     4  12  24  41  62  95 125 163 206 259 312 359
#
# _framework density 19.851099999999999
#
# number of rings (size 3 to 8) (size 9 to 14) (size 15 to 20)
#    0.000    0.000    8.235    2.824    0.000    1.882 
#    0.000    0.000    0.000    4.235    0.000    0.000 
#    0.000    0.000    0.000    0.000    0.000    0.000 
#
# Total GULP energy -95098.408083 kJ/mol
# GULP energy per Si atom -5594.024005 kJ/mol
# Density = 1.980592 g / cm^3
# Si number density = 19.851100 Si / 1000 Ang^3
#
#
#
# Elastic Constant Matrix: (Units=GPa)
#
#
# Indices 1 2 3 4 5 6 
#
# 1 78.6443 22.1729 -2.9185 0.0000 0.0000 0.0000
# 2 22.1729 69.7183 -11.1210 0.0000 0.0000 0.0000
# 3 -2.9185 -11.1210 64.2208 0.0000 0.0000 0.0000
# 4 0.0000 0.0000 0.0000 21.7948 0.0000 0.0000
# 5 0.0000 0.0000 0.0000 0.0000 19.3361 0.0000
# 6 0.0000 0.0000 0.0000 0.0000 0.0000 36.4114
#
#
#
# Elastic Compliance Matrix: (Units=1/GPa)
#
#
# Indices 1 2 3 4 5 6 
#
# 1 0.013969 -0.004465 -0.000138 0.000000 0.000000 0.000000
# 2 -0.004465 0.016178 0.002599 0.000000 0.000000 0.000000
# 3 -0.000138 0.002599 0.016015 0.000000 0.000000 0.000000
# 4 0.000000 0.000000 0.000000 0.045883 0.000000 0.000000
# 5 0.000000 0.000000 0.000000 0.000000 0.051717 0.000000
# 6 0.000000 0.000000 0.000000 0.000000 0.000000 0.027464
#
#
# Mechanical properties :
#
#
# Convention : Reuss Voigt Hill
#
# Bulk Modulus (GPa) = 23.72306 25.42779 24.57542
# Shear Modulus (GPa) = 26.41516 29.13845 27.77680
#
# Velocity S-wave (km/s) = 3.65179 3.83541 3.74472
# Velocity P-wave (km/s) = 5.45501 5.69657 5.57710
#
# Compressibility (1/GPa) = 0.04215308
#
# Stress axis : x y z
#
# Youngs Moduli (GPa) = 71.58641 61.81281 62.44149
#
# Poissons Ratio (x) = 0.27598 0.00864
# Poissons Ratio (y) = 0.31961 -0.16226
# Poissons Ratio (z) = 0.00990 -0.16063
#
# Static dielectric constant tensor:
#      x y z
#    x 1.701120 0.000000 0.000000 
#    y 0.000000 1.739720 0.000000 
#    z 0.000000 0.000000 1.605170 
# 
# From -- ./inp_files/3685.got.cif
#   From: 2010.05.17/outbox.cif.g08.bks.cpg/sg21_2_cif.got.tgz:3685.got - 2010.06.03 23:14:55.
