data_PCOD9325471
_publ_section_title
;
Structure prediction by ZEFSAII (Michael W. Deem and Ramdas Pophale) SiO2 
 PCOD9325471
Probable space group: C 2 2 2
;
_chemical_formula_sum "Si O2"
_cell_formula_units_Z 32
_cell_length_a 11.812466
_cell_length_b 15.081511
_cell_length_c 7.673034
_cell_angle_alpha 90.000000
_cell_angle_beta 90.000000
_cell_angle_gamma 90.000000
_cell_volume 1366.949748
_symmetry_space_group_name_H-M "C 2 2 2"
_symmetry_group_IT_number 21
_symmetry_cell_setting 'orthorhombic'
loop_
_space_group_symop_operation_xyz
x,y,z
-x,-y,z
x,-y,-z
-x,y,-z
1/2+x,1/2+y,z
1/2-x,1/2-y,z
1/2+x,1/2-y,-z
1/2-x,1/2+y,-z
loop_
_atom_site_type_symbol
_atom_site_label
_atom_site_fract_x
_atom_site_fract_y
_atom_site_fract_z
Si Si1 0.243796 0.874370 0.190337
Si Si2 0.510531 0.649452 0.312758
Si Si3 0.267234 0.586131 0.816466
Si Si4 0.116882 0.668869 0.524530
O O1 0.113978 0.847674 0.231119
O O2 0.324015 0.830173 0.335088
O O3 0.253691 0.981367 0.196396
O O4 0.275347 0.861556 0.987826
O O5 0.500000 0.602072 0.500000
O O6 0.598517 0.600360 0.190760
O O7 0.572339 0.742296 0.373053
O O8 0.208928 0.626548 0.648145
O O9 0.000000 0.616049 0.500000
#
# Coordination Sequence:
#
# PCOD9325471 Si02
#       4
#     8   8   8   8
#     4  11  25  46  75 102 145 183 243 301 356 424
#     4  11  23  43  71 105 140 182 235 298 360 419
#     4  11  24  46  73 109 136 189 242 299 361 422
#     4  11  26  46  67 102 148 190 234 287 360 434
#
# _framework density 23.409786
#
# number of rings (size 3 to 8) (size 9 to 14) (size 15 to 20)
#    0.000    1.000    2.500    3.000    3.500    6.000 
#   27.000    2.500    0.000    0.000    0.000    0.000 
#    0.000    0.000    0.000    0.000    0.000    0.000 
#
# Total GULP energy -89295.965052 kJ/mol
# GULP energy per Si atom -5580.997816 kJ/mol
# Density = 2.335650 g / cm^3
# Si number density = 23.409786 Si / 1000 Ang^3
#
#
#
# Elastic Constant Matrix: (Units=GPa)
#
#
# Indices 1 2 3 4 5 6 
#
# 1 132.0430 6.5592 29.0461 0.0000 0.0000 0.0000
# 2 6.5592 88.0512 15.3123 0.0000 0.0000 0.0000
# 3 29.0461 15.3123 141.6512 0.0000 0.0000 0.0000
# 4 0.0000 0.0000 0.0000 26.4580 0.0000 0.0000
# 5 0.0000 0.0000 0.0000 0.0000-2412.0817 0.0000
# 6 0.0000 0.0000 0.0000 0.0000 0.0000 8.9460
#
#
#
# Elastic Compliance Matrix: (Units=1/GPa)
#
#
# Indices 1 2 3 4 5 6 
#
# 1 0.007940 -0.000314 -0.001594 0.000000 0.000000 0.000000
# 2 -0.000314 0.011587 -0.001188 0.000000 0.000000 0.000000
# 3 -0.001594 -0.001188 0.007515 0.000000 0.000000 0.000000
# 4 0.000000 0.000000 0.000000 0.037796 0.000000 0.000000
# 5 0.000000 0.000000 0.000000 0.000000 -0.000415 0.000000
# 6 0.000000 0.000000 0.000000 0.000000 0.000000 0.111781
#
#
# Mechanical properties :
#
#
# Convention : Reuss Voigt Hill
#
# Bulk Modulus (GPa) = 47.96465 51.50894 49.73680
# Shear Modulus (GPa) = 26.40664 -454.61369 -214.10352
#
# Velocity S-wave (km/s) = 3.36224 -13.95062 -9.57379
# Velocity P-wave (km/s) = 5.96712 15.40915 10.04578
#
# Compressibility (1/GPa) = 0.02084869
#
# Stress axis : x y z
#
# Youngs Moduli (GPa) = 125.95165 86.30327 133.06905
#
# Poissons Ratio (x) = 0.02712 0.21212
# Poissons Ratio (y) = 0.03958 0.15810
# Poissons Ratio (z) = 0.20078 0.10254
#
# Static dielectric constant tensor:
#      x y z
#    x 1.855610 0.000000 0.000000 
#    y 0.000000 2.747660 0.000000 
#    z 0.000000 0.000000 1.931820 
# 
# From -- ./inp_files/12326.got.cif
#   From: 2010.05.17/outbox.cif.g08.bks.cpg/sg21_7_cif.got.tgz:12326.got - 2010.06.03 23:14:55.
