data_PCOD9325765
_publ_section_title
;
Structure prediction by ZEFSAII (Michael W. Deem and Ramdas Pophale) SiO2 
 PCOD9325765
Probable space group: C 2 2 2
;
_chemical_formula_sum "Si O2"
_cell_formula_units_Z 18
_cell_length_a 8.000295
_cell_length_b 10.746273
_cell_length_c 9.861590
_cell_angle_alpha 90.000000
_cell_angle_beta 90.000000
_cell_angle_gamma 90.000000
_cell_volume 847.833970
_symmetry_space_group_name_H-M "C 2 2 2"
_symmetry_group_IT_number 21
_symmetry_cell_setting 'orthorhombic'
loop_
_space_group_symop_operation_xyz
x,y,z
-x,-y,z
x,-y,-z
-x,y,-z
1/2+x,1/2+y,z
1/2-x,1/2-y,z
1/2+x,1/2-y,-z
1/2-x,1/2+y,-z
loop_
_atom_site_type_symbol
_atom_site_label
_atom_site_fract_x
_atom_site_fract_y
_atom_site_fract_z
Si Si1 0.750000 0.250000 0.153271
Si Si2 0.601097 0.153047 0.745945
Si Si3 0.000000 0.500000 0.500000
Si Si4 0.232097 0.500000 0.000000
O O1 0.584366 0.209925 0.234948
O O2 0.692686 0.373309 0.067852
O O3 0.750000 0.250000 0.747895
O O4 0.606645 0.081927 0.603647
O O5 0.638879 0.064507 0.873804
#
# Coordination Sequence:
#
# PCOD9325765 Si02
#       4
#     4   8   2   4
#     4  12  24  48  76 112 144 184 240 306 364 418
#     4  12  28  47  75 106 146 190 242 298 359 426
#     4  12  28  50  66 106 160 184 236 306 346 434
#     4  12  25  49  76 113 145 182 245 311 352 423
#
# _framework density 21.230573
#
# number of rings (size 3 to 8) (size 9 to 14) (size 15 to 20)
#    0.000    0.000    6.667    2.667    3.111    3.556 
#    0.000    2.222    0.000    0.000    0.000    0.000 
#    0.000    0.000    0.000    0.000    0.000    0.000 
#
# Total GULP energy -50161.992049 kJ/mol
# GULP energy per Si atom -5573.554672 kJ/mol
# Density = 2.118225 g / cm^3
# Si number density = 21.230573 Si / 1000 Ang^3
#
#
#
# Elastic Constant Matrix: (Units=GPa)
#
#
# Indices 1 2 3 4 5 6 
#
# 1 121.6000 70.1428 61.6869 0.0000 0.0000 0.0000
# 2 70.1428 170.0939 75.6687 0.0000 0.0000 0.0000
# 3 61.6869 75.6687 188.5069 0.0000 0.0000 0.0000
# 4 0.0000 0.0000 0.0000 62.0117 0.0000 0.0000
# 5 0.0000 0.0000 0.0000 0.0000 23.7689 0.0000
# 6 0.0000 0.0000 0.0000 0.0000 0.0000 34.9216
#
#
#
# Elastic Compliance Matrix: (Units=1/GPa)
#
#
# Indices 1 2 3 4 5 6 
#
# 1 0.011538 -0.003747 -0.002271 0.000000 0.000000 0.000000
# 2 -0.003747 0.008374 -0.002135 0.000000 0.000000 0.000000
# 3 -0.002271 -0.002135 0.006905 0.000000 0.000000 0.000000
# 4 0.000000 0.000000 0.000000 0.016126 0.000000 0.000000
# 5 0.000000 0.000000 0.000000 0.000000 0.042072 0.000000
# 6 0.000000 0.000000 0.000000 0.000000 0.000000 0.028636
#
#
# Mechanical properties :
#
#
# Convention : Reuss Voigt Hill
#
# Bulk Modulus (GPa) = 95.15469 99.46639 97.31054
# Shear Modulus (GPa) = 37.46403 42.32061 39.89232
#
# Velocity S-wave (km/s) = 4.20530 4.46957 4.33945
# Velocity P-wave (km/s) = 8.27625 8.57837 8.42866
#
# Compressibility (1/GPa) = 0.01050920
#
# Stress axis : x y z
#
# Youngs Moduli (GPa) = 86.67382 119.41242 144.81817
#
# Poissons Ratio (x) = 0.44748 0.32892
# Poissons Ratio (y) = 0.32480 0.30922
# Poissons Ratio (z) = 0.19686 0.25498
#
# Static dielectric constant tensor:
#      x y z
#    x 1.800810 0.000000 0.000000 
#    y 0.000000 1.853660 0.000000 
#    z 0.000000 0.000000 1.740910 
# 
# From -- ./inp_files/9449.got.cif
#   From: 2010.05.17/outbox.cif.g08.bks.cpg/sg21_5_cif.got.tgz:9449.got - 2010.06.03 23:14:55.
