data_PCOD9325934
_publ_section_title
;
Structure prediction by ZEFSAII (Michael W. Deem and Ramdas Pophale) SiO2 
 PCOD9325934
Probable space group: F 2 2 2
;
_chemical_formula_sum "Si O2"
_cell_formula_units_Z 120
_cell_length_a 10.234467
_cell_length_b 24.710738
_cell_length_c 27.502174
_cell_angle_alpha 90.000000
_cell_angle_beta 90.000000
_cell_angle_gamma 90.000000
_cell_volume 6955.333704
_symmetry_space_group_name_H-M "F 2 2 2"
_symmetry_group_IT_number 22
_symmetry_cell_setting 'orthorhombic'
loop_
_space_group_symop_operation_xyz
x,y,z
-x,-y,z
x,-y,-z
-x,y,-z
x,1/2+y,1/2+z
-x,1/2-y,1/2+z
x,1/2-y,1/2-z
-x,1/2+y,1/2-z
1/2+x,y,1/2+z
1/2-x,-y,1/2+z
1/2+x,-y,1/2-z
1/2-x,y,1/2-z
1/2+x,1/2+y,z
1/2-x,1/2-y,z
1/2+x,1/2-y,-z
1/2-x,1/2+y,-z
loop_
_atom_site_type_symbol
_atom_site_label
_atom_site_fract_x
_atom_site_fract_y
_atom_site_fract_z
Si Si1 0.902835 0.633124 0.454351
Si Si2 0.381266 0.833502 0.389297
Si Si3 0.615520 0.823559 0.027541
Si Si4 0.358961 0.296519 0.364795
Si Si5 0.034211 0.225009 0.798775
Si Si6 0.016352 0.063328 0.125747
Si Si7 0.250000 0.750000 0.458279
Si Si8 0.178493 0.867803 0.799163
O O1 0.025925 0.673183 0.585064
O O2 0.759245 0.649909 0.469969
O O3 0.902462 0.578046 0.423085
O O4 0.000000 0.629949 0.500000
O O5 0.375137 0.806687 0.336569
O O6 0.386552 0.898680 0.382735
O O7 0.286641 0.801072 0.424716
O O8 0.582919 0.811947 0.083263
O O9 0.500000 0.854685 0.000000
O O10 0.637773 0.770086 0.994641
O O11 0.250000 0.250000 0.372621
O O12 0.468274 0.272632 0.329749
O O13 0.284311 0.344980 0.337540
O O14 0.090824 0.250000 0.750000
O O15 0.916760 0.182857 0.786222
O O16 0.090968 0.088738 0.172114
O O17 0.000000 0.000000 0.130838
O O18 0.250000 0.886102 0.750000
#
# Coordination Sequence:
#
# PCOD9325934 Si02
#       8
#    16  16  16  16  16  16   8  16
#     4  10  19  37  52  80 115 145 195 242 280 352
#     4   9  21  34  53  78 116 145 194 241 277 359
#     4  12  22  29  50  79 118 153 185 227 281 342
#     4  10  17  27  42  73 116 148 178 217 277 344
#     4  10  17  27  47  74 111 148 180 218 287 348
#     4   9  19  36  59  81 108 143 196 258 295 332
#     4  12  22  34  51  76 117 164 182 230 290 348
#     4  10  17  28  51  81 111 138 176 242 294 346
#
# _framework density 17.252948
#
# number of rings (size 3 to 8) (size 9 to 14) (size 15 to 20)
#    0.800    1.067    4.667    1.600    1.867    0.267 
#    0.000    0.333    0.000    3.200    3.467    7.467 
#    0.000    0.000    0.000    0.000    0.000    0.000 
#
# Total GULP energy -167027.065854 kJ/mol
# GULP energy per Si atom -5567.568862 kJ/mol
# Density = 1.721368 g / cm^3
# Si number density = 17.252948 Si / 1000 Ang^3
#
#
#
# Elastic Constant Matrix: (Units=GPa)
#
#
# Indices 1 2 3 4 5 6 
#
# 1 49.0682 22.3124 30.7231 0.0000 0.0000 0.0000
# 2 22.3124 101.1571 46.2486 0.0000 0.0000 0.0000
# 3 30.7231 46.2486 137.0815 0.0000 0.0000 0.0000
# 4 0.0000 0.0000 0.0000 13.4428 0.0000 0.0000
# 5 0.0000 0.0000 0.0000 0.0000 20.6521 0.0000
# 6 0.0000 0.0000 0.0000 0.0000 0.0000 11.8747
#
#
#
# Elastic Compliance Matrix: (Units=1/GPa)
#
#
# Indices 1 2 3 4 5 6 
#
# 1 0.024683 -0.003447 -0.004369 0.000000 0.000000 0.000000
# 2 -0.003447 0.012170 -0.003333 0.000000 0.000000 0.000000
# 3 -0.004369 -0.003333 0.009399 0.000000 0.000000 0.000000
# 4 0.000000 0.000000 0.000000 0.074389 0.000000 0.000000
# 5 0.000000 0.000000 0.000000 0.000000 0.048421 0.000000
# 6 0.000000 0.000000 0.000000 0.000000 0.000000 0.084212
#
#
# Mechanical properties :
#
#
# Convention : Reuss Voigt Hill
#
# Bulk Modulus (GPa) = 41.74861 53.98609 47.86735
# Shear Modulus (GPa) = 17.63313 21.72877 19.68095
#
# Velocity S-wave (km/s) = 3.20040 3.55269 3.38113
# Velocity P-wave (km/s) = 6.15688 6.94173 6.56105
#
# Compressibility (1/GPa) = 0.02395289
#
# Stress axis : x y z
#
# Youngs Moduli (GPa) = 40.51415 82.17008 106.39705
#
# Poissons Ratio (x) = 0.28322 0.46486
# Poissons Ratio (y) = 0.13964 0.35466
# Poissons Ratio (z) = 0.17701 0.27390
#
# Static dielectric constant tensor:
#      x y z
#    x 1.646370 0.000000 0.000000 
#    y 0.000000 1.594760 0.000000 
#    z 0.000000 0.000000 1.623810 
# 
# From -- ./inp_files/52832.got.cif
#   From: 2010.05.17/outbox.cif.g08.bks.cpg/sg22_27_cif.got.tgz:52832.got - 2010.06.03 23:40:54.
