data_PCOD9325865
_publ_section_title
;
Structure prediction by ZEFSAII (Michael W. Deem and Ramdas Pophale) SiO2 
 PCOD9325865
Probable space group: F 2 2 2
;
_chemical_formula_sum "Si O2"
_cell_formula_units_Z 80
_cell_length_a 30.198311
_cell_length_b 27.384796
_cell_length_c 5.445107
_cell_angle_alpha 90.000000
_cell_angle_beta 90.000000
_cell_angle_gamma 90.000000
_cell_volume 4502.965109
_symmetry_space_group_name_H-M "F 2 2 2"
_symmetry_group_IT_number 22
_symmetry_cell_setting 'orthorhombic'
loop_
_space_group_symop_operation_xyz
x,y,z
-x,-y,z
x,-y,-z
-x,y,-z
x,1/2+y,1/2+z
-x,1/2-y,1/2+z
x,1/2-y,1/2-z
-x,1/2+y,1/2-z
1/2+x,y,1/2+z
1/2-x,-y,1/2+z
1/2+x,-y,1/2-z
1/2-x,y,1/2-z
1/2+x,1/2+y,z
1/2-x,1/2-y,z
1/2+x,1/2-y,-z
1/2-x,1/2+y,-z
loop_
_atom_site_type_symbol
_atom_site_label
_atom_site_fract_x
_atom_site_fract_y
_atom_site_fract_z
Si Si1 0.554056 0.057103 0.997199
Si Si2 0.948836 0.895500 0.994774
Si Si3 0.131699 0.781364 0.501727
Si Si4 0.268448 0.806796 0.999206
Si Si5 0.459894 0.193724 0.823677
O O1 0.569719 0.085764 0.752815
O O2 0.500000 0.060372 0.000000
O O3 0.571191 0.080428 0.250327
O O4 0.565189 0.000000 0.000000
O O5 0.952086 0.838408 0.920817
O O6 0.000000 0.912400 0.000000
O O7 0.129887 0.750000 0.750000
O O8 0.178675 0.808030 0.506424
O O9 0.085538 0.809298 0.476265
O O10 0.133379 0.750000 0.250000
O O11 0.250000 0.828593 0.250000
O O12 0.250000 0.750000 0.999118
O O13 0.250000 0.829140 0.750000
O O14 0.468230 0.250000 0.750000
O O15 0.500000 0.176471 0.000000
#
# Coordination Sequence:
#
# PCOD9325865 Si02
#       5
#    16  16  16  16  16
#     4   9  17  30  50  72  87 104 145 209 270 314
#     4  10  19  32  48  64  88 122 159 205 257 292
#     4  11  20  31  46  65  84 118 167 218 261 289
#     4  10  15  27  47  65  83 102 141 215 280 312
#     4  11  23  35  47  63  97 144 190 222 239 274
#
# _framework density 17.766069999999999
#
# number of rings (size 3 to 8) (size 9 to 14) (size 15 to 20)
#    0.000    1.800    4.000    3.600    0.000    7.200 
#    0.000    0.000    0.000    0.000    0.000    0.000 
#    0.000    0.000    0.000    0.000    0.000    6.000 
#
# Total GULP energy -111456.512382 kJ/mol
# GULP energy per Si atom -5572.825619 kJ/mol
# Density = 1.772563 g / cm^3
# Si number density = 17.766070 Si / 1000 Ang^3
#
#
#
# Elastic Constant Matrix: (Units=GPa)
#
#
# Indices 1 2 3 4 5 6 
#
# 1 116.9099 -6.3734 35.4875 0.0264 0.0041 -0.1307
# 2 -6.3734 93.5323 53.8667 0.0424 -0.0176 -0.2439
# 3 35.4875 53.8667 191.6466 0.1759 -0.0464 -0.6695
# 4 0.0264 0.0424 0.1759 17.1688 -0.0253 -0.3301
# 5 0.0041 -0.0176 -0.0464 -0.0253 14.2947 0.0604
# 6 -0.1307 -0.2439 -0.6695 -0.3301 0.0604 9.9180
#
#
#
# Elastic Compliance Matrix: (Units=1/GPa)
#
#
# Indices 1 2 3 4 5 6 
#
# 1 0.009352 0.001950 -0.002280 0.000004 -0.000008 0.000017
# 2 0.001950 0.013163 -0.004061 0.000008 0.000002 0.000076
# 3 -0.002280 -0.004061 0.006783 -0.000050 0.000016 0.000326
# 4 0.000004 0.000008 -0.000050 0.058283 0.000095 0.001936
# 5 -0.000008 0.000002 0.000016 0.000095 0.069958 -0.000422
# 6 0.000017 0.000076 0.000326 0.001936 -0.000422 0.100918
#
#
# Mechanical properties :
#
#
# Convention : Reuss Voigt Hill
#
# Bulk Modulus (GPa) = 48.73930 63.11669 55.92799
# Shear Modulus (GPa) = 18.24310 29.55016 23.89663
#
# Velocity S-wave (km/s) = 3.20793 4.08277 3.67150
# Velocity P-wave (km/s) = 6.41986 7.60454 7.03717
#
# Compressibility (1/GPa) = 0.02051732
#
# Stress axis : x y z
#
# Youngs Moduli (GPa) = 106.92935 75.96930 147.43513
#
# Poissons Ratio (x) = -0.14816 0.33613
# Poissons Ratio (y) = -0.20854 0.59869
# Poissons Ratio (z) = 0.24378 0.30849
#
# Static dielectric constant tensor:
#      x y z
#    x 1.609150 0.000020 0.000330 
#    y 0.000020 1.644680 -0.001000 
#    z 0.000330 -0.001000 1.528780 
# 
# From -- ./inp_files/6530.got.cif
#   From: 2010.05.17/outbox.cif.g08.bks.cpg/sg22_4_cif.got.tgz:6530.got - 2010.06.03 23:40:54.
