data_PCOD9325357
_publ_section_title
;
Structure prediction by ZEFSAII (Michael W. Deem and Ramdas Pophale) SiO2 
 PCOD9325357
Probable space group: C 2 2 2
;
_chemical_formula_sum "Si O2"
_cell_formula_units_Z 48
_cell_length_a 10.181001
_cell_length_b 24.819411
_cell_length_c 9.411424
_cell_angle_alpha 90.000000
_cell_angle_beta 90.000000
_cell_angle_gamma 90.000000
_cell_volume 2378.139303
_symmetry_space_group_name_H-M "C 2 2 2"
_symmetry_group_IT_number 21
_symmetry_cell_setting 'orthorhombic'
loop_
_space_group_symop_operation_xyz
x,y,z
-x,-y,z
x,-y,-z
-x,y,-z
1/2+x,1/2+y,z
1/2-x,1/2-y,z
1/2+x,1/2-y,-z
1/2-x,1/2+y,-z
loop_
_atom_site_type_symbol
_atom_site_label
_atom_site_fract_x
_atom_site_fract_y
_atom_site_fract_z
Si Si1 0.152736 0.558525 0.538931
Si Si2 0.760194 0.623924 0.210690
Si Si3 0.719829 0.129584 0.289647
Si Si4 0.001681 0.178213 0.327971
Si Si5 0.492187 0.207262 0.172077
Si Si6 0.347321 0.938320 0.038528
O O1 0.210547 0.500000 0.500000
O O2 0.177365 0.574527 0.700634
O O3 0.205155 0.609522 0.450560
O O4 0.000000 0.556399 0.500000
O O5 0.623597 0.642179 0.276499
O O6 0.862824 0.672974 0.210066
O O7 0.755498 0.601562 0.051396
O O8 0.616275 0.174004 0.234683
O O9 0.682764 0.076360 0.199863
O O10 0.866002 0.151571 0.276366
O O11 0.000000 0.183716 0.500000
O O12 0.013540 0.235770 0.250775
O O13 0.500000 0.212425 0.000000
O O14 0.500000 0.925743 0.000000
O O15 0.324576 0.000000 0.000000
#
# Coordination Sequence:
#
# PCOD9325357 Si02
#       6
#     8   8   8   8   8   8
#     4  11  22  39  70 102 127 174 227 271 324 386
#     4  12  23  45  67 100 137 171 218 278 328 390
#     4  12  23  45  67 100 137 171 218 278 328 390
#     4  12  30  44  65  96 140 180 221 270 331 396
#     4  12  26  46  71 100 128 174 227 278 329 390
#     4  11  22  43  74 104 131 170 223 277 330 392
#
# _framework density 20.183847
#
# number of rings (size 3 to 8) (size 9 to 14) (size 15 to 20)
#    0.000    0.333    6.667    2.000    4.667    5.333 
#    0.000    5.000    0.000    0.000    0.000    0.000 
#    0.000    0.000    0.000    0.000    0.000    0.000 
#
# Total GULP energy -134164.056061 kJ/mol
# GULP energy per Si atom -5590.169003 kJ/mol
# Density = 2.013791 g / cm^3
# Si number density = 20.183847 Si / 1000 Ang^3
#
#
#
# Elastic Constant Matrix: (Units=GPa)
#
#
# Indices 1 2 3 4 5 6 
#
# 1 104.2286 25.7238 14.6759 0.0000 0.0000 0.0000
# 2 25.7238 84.1182 3.5880 0.0000 0.0000 0.0000
# 3 14.6759 3.5880 63.5555 0.0000 0.0000 0.0000
# 4 0.0000 0.0000 0.0000 33.1390 0.0000 0.0000
# 5 0.0000 0.0000 0.0000 0.0000 26.4668 0.0000
# 6 0.0000 0.0000 0.0000 0.0000 0.0000 -388.4875
#
#
#
# Elastic Compliance Matrix: (Units=1/GPa)
#
#
# Indices 1 2 3 4 5 6 
#
# 1 0.010700 -0.003175 -0.002292 0.000000 0.000000 0.000000
# 2 -0.003175 0.012859 0.000007 0.000000 0.000000 0.000000
# 3 -0.002292 0.000007 0.016263 0.000000 0.000000 0.000000
# 4 0.000000 0.000000 0.000000 0.030176 0.000000 0.000000
# 5 0.000000 0.000000 0.000000 0.000000 0.037783 0.000000
# 6 0.000000 0.000000 0.000000 0.000000 0.000000 -0.002574
#
#
# Mechanical properties :
#
#
# Convention : Reuss Voigt Hill
#
# Bulk Modulus (GPa) = 34.59744 37.76421 36.18082
# Shear Modulus (GPa) = 39.75831 -51.91539 -6.07854
#
# Velocity S-wave (km/s) = 4.44307 -5.07711 -1.73727
# Velocity P-wave (km/s) = 6.59541 3.95205 3.73368
#
# Compressibility (1/GPa) = 0.02890388
#
# Stress axis : x y z
#
# Youngs Moduli (GPa) = 93.45401 77.76951 61.48904
#
# Poissons Ratio (x) = 0.24688 0.14091
# Poissons Ratio (y) = 0.29667 -0.00044
# Poissons Ratio (z) = 0.21417 -0.00055
#
# Static dielectric constant tensor:
#      x y z
#    x 1.703530 0.000000 0.000000 
#    y 0.000000 1.713140 0.000000 
#    z 0.000000 0.000000 1.722240 
# 
# From -- ./inp_files/13359.got.cif
#   From: 2010.05.17/outbox.cif.g08.bks.cpg/sg21_7_cif.got.tgz:13359.got - 2010.06.03 23:14:55.
