data_PCOD9325235
_publ_section_title
;
Structure prediction by ZEFSAII (Michael W. Deem and Ramdas Pophale) SiO2 
 PCOD9325235
Probable space group: C 2 2 2
;
_chemical_formula_sum "Si O2"
_cell_formula_units_Z 64
_cell_length_a 24.778567
_cell_length_b 12.350378
_cell_length_c 11.321113
_cell_angle_alpha 90.000000
_cell_angle_beta 90.000000
_cell_angle_gamma 90.000000
_cell_volume 3464.539856
_symmetry_space_group_name_H-M "C 2 2 2"
_symmetry_group_IT_number 21
_symmetry_cell_setting 'orthorhombic'
loop_
_space_group_symop_operation_xyz
x,y,z
-x,-y,z
x,-y,-z
-x,y,-z
1/2+x,1/2+y,z
1/2-x,1/2-y,z
1/2+x,1/2-y,-z
1/2-x,1/2+y,-z
loop_
_atom_site_type_symbol
_atom_site_label
_atom_site_fract_x
_atom_site_fract_y
_atom_site_fract_z
Si Si1 0.439303 0.482710 0.142792
Si Si2 0.890674 0.242819 0.887355
Si Si3 0.793873 0.342352 0.737871
Si Si4 0.639346 0.328437 0.154080
Si Si5 0.749782 0.450696 0.128234
Si Si6 0.939530 0.463677 0.865920
Si Si7 0.149321 0.611070 0.246936
Si Si8 0.221362 0.625435 0.480185
O O1 0.500000 0.500000 0.185569
O O2 0.413854 0.366380 0.168290
O O3 0.398632 0.572540 0.187103
O O4 0.440630 0.500000 0.000000
O O5 0.840366 0.298374 0.822319
O O6 0.935887 0.334692 0.875830
O O7 0.873672 0.209921 0.020113
O O8 0.750000 0.250000 0.733494
O O9 0.763228 0.447156 0.788759
O O10 0.810862 0.361292 0.602904
O O11 0.700484 0.373558 0.163220
O O12 0.624541 0.229116 0.237293
O O13 0.806612 0.389175 0.139527
O O14 0.738420 0.500000 0.000000
O O15 0.894629 0.518930 0.781147
O O16 0.000000 0.500000 0.835718
O O17 0.926600 0.500000 0.000000
O O18 0.183517 0.608051 0.366933
O O19 0.248349 0.500000 0.500000
O O20 0.250000 0.750000 0.464510
#
# Coordination Sequence:
#
# PCOD9325235 Si02
#       8
#     8   8   8   8   8   8   8   8
#     4   9  20  34  55  84 119 159 197 242 295 359
#     4  11  20  39  57  85 126 159 198 246 308 366
#     4  11  22  36  59  84 122 163 201 246 297 370
#     4  11  22  34  56  89 122 158 193 244 303 366
#     4  12  21  34  55  88 127 154 194 236 303 375
#     4  11  23  38  61  90 121 160 206 253 310 371
#     4  12  23  40  59  88 120 155 202 255 303 355
#     4  11  23  42  63  87 122 166 211 254 305 364
#
# _framework density 18.472871999999999
#
# number of rings (size 3 to 8) (size 9 to 14) (size 15 to 20)
#    0.000    1.000    3.750    4.875    1.750    1.000 
#    0.000    0.000    0.000    3.375    0.000    0.875 
#    0.000    0.000    0.000    0.000    0.000    0.000 
#
# Total GULP energy -178172.319422 kJ/mol
# GULP energy per Si atom -5567.884982 kJ/mol
# Density = 1.843083 g / cm^3
# Si number density = 18.472872 Si / 1000 Ang^3
#
#
#
# Elastic Constant Matrix: (Units=GPa)
#
#
# Indices 1 2 3 4 5 6 
#
# 1 81.4504 45.0430 12.1918 0.0000 0.0000 0.0000
# 2 45.0430 174.9609 27.7374 0.0000 0.0000 0.0000
# 3 12.1918 27.7374 65.0988 0.0000 0.0000 0.0000
# 4 0.0000 0.0000 0.0000 73.9135 0.0000 0.0000
# 5 0.0000 0.0000 0.0000 0.0000 30.5480 0.0000
# 6 0.0000 0.0000 0.0000 0.0000 0.0000 26.3325
#
#
#
# Elastic Compliance Matrix: (Units=1/GPa)
#
#
# Indices 1 2 3 4 5 6 
#
# 1 0.014402 -0.003518 -0.001198 0.000000 0.000000 0.000000
# 2 -0.003518 0.006989 -0.002319 0.000000 0.000000 0.000000
# 3 -0.001198 -0.002319 0.016574 0.000000 0.000000 0.000000
# 4 0.000000 0.000000 0.000000 0.013529 0.000000 0.000000
# 5 0.000000 0.000000 0.000000 0.000000 0.032735 0.000000
# 6 0.000000 0.000000 0.000000 0.000000 0.000000 0.037976
#
#
# Mechanical properties :
#
#
# Convention : Reuss Voigt Hill
#
# Bulk Modulus (GPa) = 41.85074 54.60604 48.22839
# Shear Modulus (GPa) = 34.66431 41.92800 38.29616
#
# Velocity S-wave (km/s) = 4.33656 4.76931 4.55807
# Velocity P-wave (km/s) = 6.91222 7.74292 7.33933
#
# Compressibility (1/GPa) = 0.02389444
#
# Stress axis : x y z
#
# Youngs Moduli (GPa) = 69.43399 143.08517 60.33624
#
# Poissons Ratio (x) = 0.50334 0.07231
# Poissons Ratio (y) = 0.24425 0.13992
# Poissons Ratio (z) = 0.08321 0.33181
#
# Static dielectric constant tensor:
#      x y z
#    x 1.487790 0.000000 0.000000 
#    y 0.000000 0.255800 0.000000 
#    z 0.000000 0.000000 1.641490 
# 
# From -- ./inp_files/27519.got.cif
#   From: 2010.05.17/outbox.cif.g08.bks.cpg/sg21_14_cif.got.tgz:27519.got - 2010.06.03 23:14:55.
