data_PCOD9325321
_publ_section_title
;
Structure prediction by ZEFSAII (Michael W. Deem and Ramdas Pophale) SiO2 
 PCOD9325321
Probable space group: C 2 2 2
;
_chemical_formula_sum "Si O2"
_cell_formula_units_Z 48
_cell_length_a 29.128853
_cell_length_b 13.086294
_cell_length_c 5.297387
_cell_angle_alpha 90.000000
_cell_angle_beta 90.000000
_cell_angle_gamma 90.000000
_cell_volume 2019.304245
_symmetry_space_group_name_H-M "C 2 2 2"
_symmetry_group_IT_number 21
_symmetry_cell_setting 'orthorhombic'
loop_
_space_group_symop_operation_xyz
x,y,z
-x,-y,z
x,-y,-z
-x,y,-z
1/2+x,1/2+y,z
1/2-x,1/2-y,z
1/2+x,1/2-y,-z
1/2-x,1/2+y,-z
loop_
_atom_site_type_symbol
_atom_site_label
_atom_site_fract_x
_atom_site_fract_y
_atom_site_fract_z
Si Si1 0.312844 0.367995 0.827660
Si Si2 0.365229 0.351990 0.329916
Si Si3 0.970592 0.198060 0.749437
Si Si4 0.290289 0.123421 0.843825
Si Si5 0.556461 0.937138 0.248821
Si Si6 0.159780 0.611174 0.656755
O O1 0.348220 0.391535 0.601931
O O2 0.300729 0.245888 0.835963
O O3 0.261597 0.408239 0.782038
O O4 0.335786 0.394242 0.095642
O O5 0.419893 0.352880 0.273156
O O6 0.350870 0.232912 0.344730
O O7 0.962505 0.321619 0.753462
O O8 0.000000 0.173790 0.500000
O O9 0.000000 0.171468 0.000000
O O10 0.324217 0.085644 0.625323
O O11 0.302226 0.094961 0.129484
O O12 0.611341 0.930640 0.255138
O O13 0.544887 0.000000 0.500000
O O14 0.544916 0.000000 0.000000
#
# Coordination Sequence:
#
# PCOD9325321 Si02
#       6
#     8   8   8   8   8   8
#     4   9  15  24  40  60  79  97 115 139 182 242
#     4   9  17  28  40  56  77  97 120 154 198 244
#     4  11  22  34  46  58  74 100 136 180 226 259
#     4   9  15  24  40  60  79  97 115 139 182 242
#     4  11  22  34  46  58  74 100 136 180 226 259
#     4   9  17  28  40  56  77  97 120 154 198 244
#
# _framework density 23.770564
#
# number of rings (size 3 to 8) (size 9 to 14) (size 15 to 20)
#    0.000    2.333    0.000    4.000    0.000   11.333 
#    0.000    0.000    0.000    0.000    0.000    0.000 
#    0.000    0.000    0.000    0.000    0.000    0.000 
#
# Total GULP energy -134245.984306 kJ/mol
# GULP energy per Si atom -5593.582679 kJ/mol
# Density = 2.371646 g / cm^3
# Si number density = 23.770564 Si / 1000 Ang^3
#
#
#
# Elastic Constant Matrix: (Units=GPa)
#
#
# Indices 1 2 3 4 5 6 
#
# 1 169.9672 0.3066 77.6828 0.0000 0.0000 0.0000
# 2 0.3066 36.4210 6.2992 0.0000 0.0000 0.0000
# 3 77.6828 6.2992 192.4166 0.0000 0.0000 0.0000
# 4 0.0000 0.0000 0.0000 29.5944 0.0000 0.0000
# 5 0.0000 0.0000 0.0000 0.0000 50.0076 0.0000
# 6 0.0000 0.0000 0.0000 0.0000 0.0000 22.9953
#
#
#
# Elastic Compliance Matrix: (Units=1/GPa)
#
#
# Indices 1 2 3 4 5 6 
#
# 1 0.007222 0.000446 -0.002930 0.000000 0.000000 0.000000
# 2 0.000446 0.027641 -0.001085 0.000000 0.000000 0.000000
# 3 -0.002930 -0.001085 0.006416 0.000000 0.000000 0.000000
# 4 0.000000 0.000000 0.000000 0.033790 0.000000 0.000000
# 5 0.000000 0.000000 0.000000 0.000000 0.019997 0.000000
# 6 0.000000 0.000000 0.000000 0.000000 0.000000 0.043487
#
#
# Mechanical properties :
#
#
# Convention : Reuss Voigt Hill
#
# Bulk Modulus (GPa) = 29.29136 63.04242 46.16689
# Shear Modulus (GPa) = 31.83277 41.48719 36.65998
#
# Velocity S-wave (km/s) = 3.66343 4.18223 3.93140
# Velocity P-wave (km/s) = 5.49942 7.06401 6.33024
#
# Compressibility (1/GPa) = 0.03413976
#
# Stress axis : x y z
#
# Youngs Moduli (GPa) = 138.46682 36.17867 155.87044
#
# Poissons Ratio (x) = -0.01614 0.45674
# Poissons Ratio (y) = -0.06176 0.16911
# Poissons Ratio (z) = 0.40574 0.03925
#
# Static dielectric constant tensor:
#      x y z
#    x 1.848730 0.000000 0.000000 
#    y 0.000000 2.029960 0.000000 
#    z 0.000000 0.000000 1.826900 
# 
# From -- ./inp_files/4121.got.cif
#   From: 2010.05.17/outbox.cif.g08.bks.cpg/sg21_3_cif.got.tgz:4121.got - 2010.06.03 23:14:55.
