data_PCOD9325456
_publ_section_title
;
Structure prediction by ZEFSAII (Michael W. Deem and Ramdas Pophale) SiO2 
 PCOD9325456
Probable space group: C 2 2 2
;
_chemical_formula_sum "Si O2"
_cell_formula_units_Z 32
_cell_length_a 8.259738
_cell_length_b 15.583816
_cell_length_c 11.277867
_cell_angle_alpha 90.000000
_cell_angle_beta 90.000000
_cell_angle_gamma 90.000000
_cell_volume 1451.667160
_symmetry_space_group_name_H-M "C 2 2 2"
_symmetry_group_IT_number 21
_symmetry_cell_setting 'orthorhombic'
loop_
_space_group_symop_operation_xyz
x,y,z
-x,-y,z
x,-y,-z
-x,y,-z
1/2+x,1/2+y,z
1/2-x,1/2-y,z
1/2+x,1/2-y,-z
1/2-x,1/2+y,-z
loop_
_atom_site_type_symbol
_atom_site_label
_atom_site_fract_x
_atom_site_fract_y
_atom_site_fract_z
Si Si1 0.436822 0.745188 0.208766
Si Si2 0.500000 0.359141 0.000000
Si Si3 0.607332 0.075805 0.752275
Si Si4 0.743531 0.000000 0.000000
Si Si5 0.452141 0.406937 0.362623
O O1 0.250000 0.750000 0.170228
O O2 0.545936 0.702747 0.106385
O O3 0.501484 0.838906 0.236075
O O4 0.454512 0.675240 0.311831
O O5 0.357811 0.421939 0.958296
O O6 0.764133 0.098627 0.673932
O O7 0.500000 0.000000 0.696625
O O8 0.656310 0.039657 0.884028
O O9 0.500000 0.500000 0.309210
O O10 0.500000 0.409972 0.500000
#
# Coordination Sequence:
#
# PCOD9325456 Si02
#       5
#     8   4   8   4   8
#     4  12  27  43  70 108 150 197 251 305 373 447
#     4  11  24  40  65 102 152 198 239 302 369 436
#     4  12  26  45  72 112 153 199 252 308 375 455
#     4  11  23  42  70 102 156 204 238 304 374 448
#     4  11  25  50  76 105 146 197 251 318 374 441
#
# _framework density 22.043620000000001
#
# number of rings (size 3 to 8) (size 9 to 14) (size 15 to 20)
#    0.000    0.500    2.500    5.625    7.000    2.000 
#    0.000    7.500    0.000    0.000    0.000    0.000 
#    0.000    0.000    0.000    0.000    0.000    0.000 
#
# Total GULP energy -89428.461303 kJ/mol
# GULP energy per Si atom -5589.278831 kJ/mol
# Density = 2.199345 g / cm^3
# Si number density = 22.043620 Si / 1000 Ang^3
#
#
#
# Elastic Constant Matrix: (Units=GPa)
#
#
# Indices 1 2 3 4 5 6 
#
# 1 90.8207 42.6152 17.2824 0.0000 0.0000 0.0000
# 2 42.6152 193.2741 29.4704 0.0000 0.0000 0.0000
# 3 17.2824 29.4704 90.0660 0.0000 0.0000 0.0000
# 4 0.0000 0.0000 0.0000 9.8127 0.0000 0.0000
# 5 0.0000 0.0000 0.0000 0.0000 4.4656 0.0000
# 6 0.0000 0.0000 0.0000 0.0000 0.0000 8.7119
#
#
#
# Elastic Compliance Matrix: (Units=1/GPa)
#
#
# Indices 1 2 3 4 5 6 
#
# 1 0.012490 -0.002514 -0.001574 0.000000 0.000000 0.000000
# 2 -0.002514 0.005952 -0.001465 0.000000 0.000000 0.000000
# 3 -0.001574 -0.001465 0.011884 0.000000 0.000000 0.000000
# 4 0.000000 0.000000 0.000000 0.101909 0.000000 0.000000
# 5 0.000000 0.000000 0.000000 0.000000 0.223935 0.000000
# 6 0.000000 0.000000 0.000000 0.000000 0.000000 0.114785
#
#
# Mechanical properties :
#
#
# Convention : Reuss Voigt Hill
#
# Bulk Modulus (GPa) = 52.02945 61.43296 56.73121
# Shear Modulus (GPa) = 10.23610 23.58423 16.91016
#
# Velocity S-wave (km/s) = 2.15723 3.27446 2.77270
# Velocity P-wave (km/s) = 5.46434 6.49811 6.00352
#
# Compressibility (1/GPa) = 0.01921988
#
# Stress axis : x y z
#
# Youngs Moduli (GPa) = 80.06532 168.01983 84.14399
#
# Poissons Ratio (x) = 0.42238 0.13245
# Poissons Ratio (y) = 0.20127 0.12328
# Poissons Ratio (z) = 0.12603 0.24616
#
# Static dielectric constant tensor:
#      x y z
#    x 1.859800 0.000000 0.000000 
#    y 0.000000 1.791900 0.000000 
#    z 0.000000 0.000000 1.892360 
# 
# From -- ./inp_files/21985.got.cif
#   From: 2010.05.17/outbox.cif.g08.bks.cpg/sg21_11_cif.got.tgz:21985.got - 2010.06.03 23:14:55.
