data_PCOD9325454
_publ_section_title
;
Structure prediction by ZEFSAII (Michael W. Deem and Ramdas Pophale) SiO2 
 PCOD9325454
Probable space group: C 2 2 2
;
_chemical_formula_sum "Si O2"
_cell_formula_units_Z 40
_cell_length_a 8.318845
_cell_length_b 16.247507
_cell_length_c 13.875778
_cell_angle_alpha 90.000000
_cell_angle_beta 90.000000
_cell_angle_gamma 90.000000
_cell_volume 1875.456986
_symmetry_space_group_name_H-M "C 2 2 2"
_symmetry_group_IT_number 21
_symmetry_cell_setting 'orthorhombic'
loop_
_space_group_symop_operation_xyz
x,y,z
-x,-y,z
x,-y,-z
-x,y,-z
1/2+x,1/2+y,z
1/2-x,1/2-y,z
1/2+x,1/2-y,-z
1/2-x,1/2+y,-z
loop_
_atom_site_type_symbol
_atom_site_label
_atom_site_fract_x
_atom_site_fract_y
_atom_site_fract_z
Si Si1 0.827624 0.043309 0.404801
Si Si2 0.076898 0.776670 0.409151
Si Si3 0.116566 0.423257 0.789245
Si Si4 0.933814 0.752571 0.214502
Si Si5 0.067217 0.912826 0.107865
O O1 0.873463 0.133178 0.441015
O O2 0.716172 0.057106 0.310411
O O3 0.754105 0.000000 0.500000
O O4 0.000000 0.000000 0.381360
O O5 0.250000 0.750000 0.367954
O O6 0.000000 0.730060 0.500000
O O7 0.946391 0.777348 0.326243
O O8 0.243067 0.418954 0.876403
O O9 0.000000 0.500000 0.802319
O O10 0.020580 0.336490 0.789319
O O11 0.750000 0.750000 0.181873
O O12 0.017410 0.828516 0.160326
O O13 0.000000 0.000000 0.148387
O O14 0.000000 0.907841 0.000000
#
# Coordination Sequence:
#
# PCOD9325454 Si02
#       5
#     8   8   8   8   8
#     4  11  23  42  69 100 143 199 254 307 369 436
#     4  12  23  41  65  99 143 192 249 308 364 440
#     4  12  26  46  74 108 152 196 252 310 375 452
#     4  12  26  45  71 106 146 198 244 308 376 441
#     4  11  25  49  79 108 144 192 244 312 382 450
#
# _framework density 21.328136000000001
#
# number of rings (size 3 to 8) (size 9 to 14) (size 15 to 20)
#    0.000    0.400    6.000    3.000    2.800    3.600 
#    0.000    6.000    0.000    0.000    0.000    0.000 
#    0.000    0.000    0.000    0.000    0.000    0.000 
#
# Total GULP energy -111534.868719 kJ/mol
# GULP energy per Si atom -5576.743436 kJ/mol
# Density = 2.127959 g / cm^3
# Si number density = 21.328136 Si / 1000 Ang^3
#
#
#
# Elastic Constant Matrix: (Units=GPa)
#
#
# Indices 1 2 3 4 5 6 
#
# 1 125.1033 45.3986 36.3686 0.0000 0.0000 0.0000
# 2 45.3986 149.8632 30.9318 0.0000 0.0000 0.0000
# 3 36.3686 30.9318 111.8669 0.0000 0.0000 0.0000
# 4 0.0000 0.0000 0.0000 50.8881 0.0000 0.0000
# 5 0.0000 0.0000 0.0000 0.0000 4.2526 0.0000
# 6 0.0000 0.0000 0.0000 0.0000 0.0000 -15.5591
#
#
#
# Elastic Compliance Matrix: (Units=1/GPa)
#
#
# Indices 1 2 3 4 5 6 
#
# 1 0.009575 -0.002395 -0.002451 0.000000 0.000000 0.000000
# 2 -0.002395 0.007676 -0.001344 0.000000 0.000000 0.000000
# 3 -0.002451 -0.001344 0.010108 0.000000 0.000000 0.000000
# 4 0.000000 0.000000 0.000000 0.019651 0.000000 0.000000
# 5 0.000000 0.000000 0.000000 0.000000 0.235152 0.000000
# 6 0.000000 0.000000 0.000000 0.000000 0.000000 -0.064271
#
#
# Mechanical properties :
#
#
# Convention : Reuss Voigt Hill
#
# Bulk Modulus (GPa) = 66.75793 68.02570 67.39182
# Shear Modulus (GPa) = 21.25295 26.19194 23.72244
#
# Velocity S-wave (km/s) = 3.16012 3.50815 3.33868
# Velocity P-wave (km/s) = 6.68457 6.95511 6.82118
#
# Compressibility (1/GPa) = 0.01497949
#
# Stress axis : x y z
#
# Youngs Moduli (GPa) = 104.44027 130.28376 98.93642
#
# Poissons Ratio (x) = 0.31199 0.24246
# Poissons Ratio (y) = 0.25010 0.13295
# Poissons Ratio (z) = 0.25595 0.17507
#
# Static dielectric constant tensor:
#      x y z
#    x 1.825250 0.000000 0.000000 
#    y 0.000000 1.813560 0.000000 
#    z 0.000000 0.000000 1.826930 
# 
# From -- ./inp_files/30163.got.cif
#   From: 2010.05.17/outbox.cif.g08.bks.cpg/sg21_16_cif.got.tgz:30163.got - 2010.06.03 23:14:55.
