data_PCOD9325997
_publ_section_title
;
Structure prediction by ZEFSAII (Michael W. Deem and Ramdas Pophale) SiO2 
 PCOD9325997
Probable space group: F 2 2 2
;
_chemical_formula_sum "Si O2"
_cell_formula_units_Z 104
_cell_length_a 18.119856
_cell_length_b 7.349249
_cell_length_c 33.334249
_cell_angle_alpha 90.000000
_cell_angle_beta 90.000000
_cell_angle_gamma 90.000000
_cell_volume 4439.033056
_symmetry_space_group_name_H-M "F 2 2 2"
_symmetry_group_IT_number 22
_symmetry_cell_setting 'orthorhombic'
loop_
_space_group_symop_operation_xyz
x,y,z
-x,-y,z
x,-y,-z
-x,y,-z
x,1/2+y,1/2+z
-x,1/2-y,1/2+z
x,1/2-y,1/2-z
-x,1/2+y,1/2-z
1/2+x,y,1/2+z
1/2-x,-y,1/2+z
1/2+x,-y,1/2-z
1/2-x,y,1/2-z
1/2+x,1/2+y,z
1/2-x,1/2-y,z
1/2+x,1/2-y,-z
1/2-x,1/2+y,-z
loop_
_atom_site_type_symbol
_atom_site_label
_atom_site_fract_x
_atom_site_fract_y
_atom_site_fract_z
Si Si1 0.315991 0.500000 0.500000
Si Si2 0.872358 0.838228 0.787901
Si Si3 0.897053 0.964063 0.331441
Si Si4 0.500000 0.500000 0.264783
Si Si5 0.000000 0.000000 0.595079
Si Si6 0.433591 0.282441 0.968713
Si Si7 0.206222 0.446955 0.566570
Si Si8 0.764554 0.027075 0.155888
O O1 0.371860 0.662381 0.491027
O O2 0.260764 0.546378 0.536102
O O3 0.829365 0.750000 0.750000
O O4 0.896265 0.679778 0.818820
O O5 0.941993 0.915913 0.765311
O O6 0.826745 0.989584 0.810856
O O7 0.947935 0.885889 0.295918
O O8 0.810805 0.924610 0.333932
O O9 0.935309 0.939309 0.374382
O O10 0.969037 0.839920 0.566758
O O11 0.378350 0.432327 0.949124
O O12 0.500000 0.319372 0.000000
O O13 0.250000 0.250000 0.568247
O O14 0.208368 0.518774 0.611561
O O15 0.750000 0.250000 0.156604
#
# Coordination Sequence:
#
# PCOD9325997 Si02
#       8
#     8  16  16   8   8  16  16  16
#     4  10  17  34  51  72 102 142 174 214 269 322
#     4   9  17  30  47  70 103 129 165 204 257 320
#     4   9  18  28  48  78  97 129 164 218 256 311
#     4   9  18  28  43  70 103 135 160 199 266 308
#     4  11  17  30  51  78 106 120 174 219 266 301
#     4  11  19  30  51  81 102 134 179 225 269 314
#     4   9  19  31  52  75 106 136 174 222 267 317
#     4   9  16  29  49  74  99 124 166 211 264 299
#
# _framework density 23.428525
#
# number of rings (size 3 to 8) (size 9 to 14) (size 15 to 20)
#    0.000    2.462    1.538    3.692    0.000    7.077 
#    0.000    0.385    6.769    0.000    0.000   32.308 
#    0.000    0.000    0.000    0.000    0.000    0.000 
#
# Total GULP energy -145013.461515 kJ/mol
# GULP energy per Si atom -5577.440827 kJ/mol
# Density = 2.337520 g / cm^3
# Si number density = 23.428525 Si / 1000 Ang^3
#
#
#
# Elastic Constant Matrix: (Units=GPa)
#
#
# Indices 1 2 3 4 5 6 
#
# 1 233.1109 34.1293 120.6087 0.0000 0.0000 0.0000
# 2 34.1293 39.9809 33.8197 0.0000 0.0000 0.0000
# 3 120.6087 33.8197 177.1623 0.0000 0.0000 0.0000
# 4 0.0000 0.0000 0.0000 6.6747 0.0000 0.0000
# 5 0.0000 0.0000 0.0000 0.0000 28.4161 0.0000
# 6 0.0000 0.0000 0.0000 0.0000 0.0000 17.6378
#
#
#
# Elastic Compliance Matrix: (Units=1/GPa)
#
#
# Indices 1 2 3 4 5 6 
#
# 1 0.006788 -0.002249 -0.004192 0.000000 0.000000 0.000000
# 2 -0.002249 0.030573 -0.004306 0.000000 0.000000 0.000000
# 3 -0.004192 -0.004306 0.009320 0.000000 0.000000 0.000000
# 4 0.000000 0.000000 0.000000 0.149820 0.000000 0.000000
# 5 0.000000 0.000000 0.000000 0.000000 0.035191 0.000000
# 6 0.000000 0.000000 0.000000 0.000000 0.000000 0.056696
#
#
# Mechanical properties :
#
#
# Convention : Reuss Voigt Hill
#
# Bulk Modulus (GPa) = 39.69893 91.92996 65.81445
# Shear Modulus (GPa) = 15.70958 27.99216 21.85087
#
# Velocity S-wave (km/s) = 2.59227 3.46032 3.05726
# Velocity P-wave (km/s) = 5.09326 7.43564 6.37299
#
# Compressibility (1/GPa) = 0.02518959
#
# Stress axis : x y z
#
# Youngs Moduli (GPa) = 147.32400 32.70807 107.29459
#
# Poissons Ratio (x) = 0.07354 0.44975
# Poissons Ratio (y) = 0.33126 0.46197
# Poissons Ratio (z) = 0.61754 0.14083
#
# Static dielectric constant tensor:
#      x y z
#    x 1.909870 0.000000 0.000000 
#    y 0.000000 2.118820 0.000000 
#    z 0.000000 0.000000 1.878880 
# 
# From -- ./inp_files/53631.got.cif
#   From: 2010.05.17/outbox.cif.g08.bks.cpg/sg22_27_cif.got.tgz:53631.got - 2010.06.03 23:40:54.
