data_PCOD9325103
_publ_section_title
;
Structure prediction by ZEFSAII (Michael W. Deem and Ramdas Pophale) SiO2 
 PCOD9325103
Probable space group: C 2 2 2
;
_chemical_formula_sum "Si O2"
_cell_formula_units_Z 20
_cell_length_a 8.006866
_cell_length_b 5.202949
_cell_length_c 19.186770
_cell_angle_alpha 90.000000
_cell_angle_beta 90.000000
_cell_angle_gamma 90.000000
_cell_volume 799.307704
_symmetry_space_group_name_H-M "C 2 2 2"
_symmetry_group_IT_number 21
_symmetry_cell_setting 'orthorhombic'
loop_
_space_group_symop_operation_xyz
x,y,z
-x,-y,z
x,-y,-z
-x,y,-z
1/2+x,1/2+y,z
1/2-x,1/2-y,z
1/2+x,1/2-y,-z
1/2-x,1/2+y,-z
loop_
_atom_site_type_symbol
_atom_site_label
_atom_site_fract_x
_atom_site_fract_y
_atom_site_fract_z
Si Si1 0.750000 0.250000 0.396290
Si Si2 0.250000 0.750000 0.894615
Si Si3 0.000000 0.500000 0.500000
Si Si4 0.500000 0.500000 0.000000
Si Si5 0.500000 0.000000 0.797393
Si Si6 0.250000 0.750000 0.698502
O O1 0.898278 0.317785 0.448474
O O2 0.727935 0.498254 0.347991
O O3 0.338071 0.978155 0.849017
O O4 0.390970 0.659592 0.946606
O O5 0.420622 0.790686 0.743964
#
# Coordination Sequence:
#
# PCOD9325103 Si02
#       6
#     4   4   2   2   4   4
#     4  12  29  52  78 114 153 202 254 316 382 454
#     4  11  24  44  70 106 146 197 252 314 376 449
#     4  12  30  52  80 114 154 200 256 316 380 456
#     4  12  24  44  72 104 148 196 252 308 376 444
#     4  10  25  47  74 109 151 198 254 312 378 450
#     4  11  27  48  78 112 155 201 254 316 382 453
#
# _framework density 25.021653000000001
#
# number of rings (size 3 to 8) (size 9 to 14) (size 15 to 20)
#    0.000    0.800    0.000    4.800    0.000   21.600 
#    0.000    0.000    0.000    0.000    0.000    0.000 
#    0.000    0.000    0.000    0.000    0.000    0.000 
#
# Total GULP energy -55797.729662 kJ/mol
# GULP energy per Si atom -5579.772966 kJ/mol
# Density = 2.496470 g / cm^3
# Si number density = 25.021653 Si / 1000 Ang^3
#
#
#
# Elastic Constant Matrix: (Units=GPa)
#
#
# Indices 1 2 3 4 5 6 
#
# 1 153.4972 87.7753 90.7264 0.0000 0.0000 0.0000
# 2 87.7753 176.1340 110.1044 0.0000 0.0000 0.0000
# 3 90.7264 110.1044 194.3700 0.0000 0.0000 0.0000
# 4 0.0000 0.0000 0.0000 -33.8093 0.0000 0.0000
# 5 0.0000 0.0000 0.0000 0.0000 189.5045 0.0000
# 6 0.0000 0.0000 0.0000 0.0000 0.0000 62.2704
#
#
#
# Elastic Compliance Matrix: (Units=1/GPa)
#
#
# Indices 1 2 3 4 5 6 
#
# 1 0.010049 -0.003214 -0.002870 0.000000 0.000000 0.000000
# 2 -0.003214 0.009818 -0.004061 0.000000 0.000000 0.000000
# 3 -0.002870 -0.004061 0.008785 0.000000 0.000000 0.000000
# 4 0.000000 0.000000 0.000000 -0.029578 0.000000 0.000000
# 5 0.000000 0.000000 0.000000 0.000000 0.005277 0.000000
# 6 0.000000 0.000000 0.000000 0.000000 0.000000 0.016059
#
#
# Mechanical properties :
#
#
# Convention : Reuss Voigt Hill
#
# Bulk Modulus (GPa) = 119.59555 122.35704 120.97629
# Shear Modulus (GPa) = 114.97473 59.28613 87.13043
#
# Velocity S-wave (km/s) = 6.78600 4.87292 5.90742
# Velocity P-wave (km/s) = 10.45468 8.98149 9.74596
#
# Compressibility (1/GPa) = 0.00836152
#
# Stress axis : x y z
#
# Youngs Moduli (GPa) = 99.51379 101.85482 113.82765
#
# Poissons Ratio (x) = 0.32732 0.32670
# Poissons Ratio (y) = 0.31980 0.46231
# Poissons Ratio (z) = 0.28561 0.41368
#
# Static dielectric constant tensor:
#      x y z
#    x 1.950390 0.000000 0.000000 
#    y 0.000000 1.920860 0.000000 
#    z 0.000000 0.000000 1.986320 
# 
# From -- ./inp_files/34118.got.cif
#   From: 2010.05.17/outbox.cif.g08.bks.cpg/sg21_18_cif.got.tgz:34118.got - 2010.06.03 23:14:55.
