data_PCOD9325826
_publ_section_title
;
Structure prediction by ZEFSAII (Michael W. Deem and Ramdas Pophale) SiO2 
 PCOD9325826
Probable space group: C 2 2 2
;
_chemical_formula_sum "Si O2"
_cell_formula_units_Z 18
_cell_length_a 26.688257
_cell_length_b 5.303428
_cell_length_c 5.171485
_cell_angle_alpha 90.000000
_cell_angle_beta 90.000000
_cell_angle_gamma 90.000000
_cell_volume 731.968105
_symmetry_space_group_name_H-M "C 2 2 2"
_symmetry_group_IT_number 21
_symmetry_cell_setting 'orthorhombic'
loop_
_space_group_symop_operation_xyz
x,y,z
-x,-y,z
x,-y,-z
-x,y,-z
1/2+x,1/2+y,z
1/2-x,1/2-y,z
1/2+x,1/2-y,-z
1/2-x,1/2+y,-z
loop_
_atom_site_type_symbol
_atom_site_label
_atom_site_fract_x
_atom_site_fract_y
_atom_site_fract_z
Si Si1 0.166816 0.000000 0.500000
Si Si2 0.584872 0.829687 0.246905
Si Si3 0.500000 0.500000 0.000000
Si Si4 0.750000 0.250000 0.171506
O O1 0.130603 0.143392 0.303525
O O2 0.202435 0.194958 0.647880
O O3 0.577311 0.000000 0.500000
O O4 0.535657 0.671322 0.176142
O O5 0.596220 0.000000 0.000000
O O6 0.757242 0.500000 0.000000
#
# Coordination Sequence:
#
# PCOD9325826 Si02
#       4
#     4   8   2   4
#     4  12  32  53  82 132 174 229 302 360 446 526
#     4  12  31  53  89 126 175 231 289 367 441 533
#     4  12  30  58  84 132 172 226 298 358 454 528
#     4  12  32  54  88 124 180 238 300 368 440 526
#
# _framework density 24.591237
#
# number of rings (size 3 to 8) (size 9 to 14) (size 15 to 20)
#    0.000    0.000    0.000    4.667   18.667   13.333 
#    0.000    0.000    0.000    0.000    0.000    0.000 
#    0.000    0.000    0.000    0.000    0.000    0.000 
#
# Total GULP energy -50650.283807 kJ/mol
# GULP energy per Si atom -5627.809312 kJ/mol
# Density = 2.453527 g / cm^3
# Si number density = 24.591237 Si / 1000 Ang^3
#
#
#
# Elastic Constant Matrix: (Units=GPa)
#
#
# Indices 1 2 3 4 5 6 
#
# 1 216.6598 101.2648 96.1853 0.0000 0.0000 0.0000
# 2 101.2648 168.0751 100.0072 0.0000 0.0000 0.0000
# 3 96.1853 100.0072 190.2168 0.0000 0.0000 0.0000
# 4 0.0000 0.0000 0.0000 58.7339 0.0000 0.0000
# 5 0.0000 0.0000 0.0000 0.0000 100.7786 0.0000
# 6 0.0000 0.0000 0.0000 0.0000 0.0000 -32.3149
#
#
#
# Elastic Compliance Matrix: (Units=1/GPa)
#
#
# Indices 1 2 3 4 5 6 
#
# 1 0.006860 -0.003011 -0.001886 0.000000 0.000000 0.000000
# 2 -0.003011 0.009980 -0.003724 0.000000 0.000000 0.000000
# 3 -0.001886 -0.003724 0.008169 0.000000 0.000000 0.000000
# 4 0.000000 0.000000 0.000000 0.017026 0.000000 0.000000
# 5 0.000000 0.000000 0.000000 0.000000 0.009923 0.000000
# 6 0.000000 0.000000 0.000000 0.000000 0.000000 -0.030945
#
#
# Mechanical properties :
#
#
# Convention : Reuss Voigt Hill
#
# Bulk Modulus (GPa) = 128.76121 129.98514 129.37318
# Shear Modulus (GPa) = 122.41840 43.93914 83.17877
#
# Velocity S-wave (km/s) = 7.06324 4.23162 5.82220
# Velocity P-wave (km/s) = 10.90841 8.76633 9.89550
#
# Compressibility (1/GPa) = 0.00776631
#
# Stress axis : x y z
#
# Youngs Moduli (GPa) = 145.77083 100.20037 122.41625
#
# Poissons Ratio (x) = 0.30172 0.23085
# Poissons Ratio (y) = 0.43893 0.45593
# Poissons Ratio (z) = 0.27489 0.37319
#
# Static dielectric constant tensor:
#      x y z
#    x 1.888510 0.000000 0.000000 
#    y 0.000000 1.890340 0.000000 
#    z 0.000000 0.000000 1.915590 
# 
# From -- ./inp_files/389.got.cif
#   From: 2010.05.17/outbox.cif.g08.bks.cpg/sg21_1_cif.got.tgz:389.got - 2010.06.03 23:14:55.
