data_PCOD9325325
_publ_section_title
;
Structure prediction by ZEFSAII (Michael W. Deem and Ramdas Pophale) SiO2 
 PCOD9325325
Probable space group: C 2 2 2
;
_chemical_formula_sum "Si O2"
_cell_formula_units_Z 38
_cell_length_a 5.630778
_cell_length_b 26.839367
_cell_length_c 10.817383
_cell_angle_alpha 90.000000
_cell_angle_beta 90.000000
_cell_angle_gamma 90.000000
_cell_volume 1634.793418
_symmetry_space_group_name_H-M "C 2 2 2"
_symmetry_group_IT_number 21
_symmetry_cell_setting 'orthorhombic'
loop_
_space_group_symop_operation_xyz
x,y,z
-x,-y,z
x,-y,-z
-x,y,-z
1/2+x,1/2+y,z
1/2-x,1/2-y,z
1/2+x,1/2-y,-z
1/2-x,1/2+y,-z
loop_
_atom_site_type_symbol
_atom_site_label
_atom_site_fract_x
_atom_site_fract_y
_atom_site_fract_z
Si Si1 0.805054 0.913507 0.890458
Si Si2 0.416460 0.161092 0.201100
Si Si3 0.043287 0.891666 0.638231
Si Si4 0.000000 0.500000 0.000000
Si Si5 0.250000 0.250000 0.068856
Si Si6 0.191301 0.303376 0.591601
O O1 0.608140 0.869748 0.877562
O O2 0.916554 0.918164 0.753690
O O3 0.666979 0.963806 0.921950
O O4 0.000000 0.904977 0.000000
O O5 0.224609 0.196005 0.135957
O O6 0.560214 0.202232 0.279069
O O7 0.295035 0.122547 0.298156
O O8 0.910274 0.838709 0.618807
O O9 0.000000 0.914744 0.500000
O O10 0.500000 0.243273 0.000000
O O11 0.250000 0.250000 0.537504
O O12 0.000000 0.327528 0.500000
#
# Coordination Sequence:
#
# PCOD9325325 Si02
#       6
#     8   8   8   2   4   8
#     4  11  27  47  82 109 151 194 264 326 406 486
#     4  11  26  45  66 103 148 206 256 328 387 468
#     4  11  23  43  71 105 146 199 252 315 398 473
#     4  12  26  52  80 120 136 196 250 334 402 498
#     4  12  32  44  64 100 160 212 282 332 398 456
#     4  11  22  36  60  96 142 199 261 316 370 448
#
# _framework density 23.244527000000001
#
# number of rings (size 3 to 8) (size 9 to 14) (size 15 to 20)
#    0.000    0.842    2.105    3.474   13.263    0.000 
#    0.000    0.000    0.000   17.684    0.000    0.000 
#    0.000    0.000    0.000    0.000    0.000    0.000 
#
# Total GULP energy -106005.904738 kJ/mol
# GULP energy per Si atom -5579.258144 kJ/mol
# Density = 2.319162 g / cm^3
# Si number density = 23.244527 Si / 1000 Ang^3
#
#
#
# Elastic Constant Matrix: (Units=GPa)
#
#
# Indices 1 2 3 4 5 6 
#
# 1 111.7433 35.2580 65.9787 0.0000 0.0000 0.0000
# 2 35.2580 85.5320 52.9114 0.0000 0.0000 0.0000
# 3 65.9787 52.9114 184.5275 0.0000 0.0000 0.0000
# 4 0.0000 0.0000 0.0000 -3.7167 0.0000 0.0000
# 5 0.0000 0.0000 0.0000 0.0000 51.9923 0.0000
# 6 0.0000 0.0000 0.0000 0.0000 0.0000 32.9190
#
#
#
# Elastic Compliance Matrix: (Units=1/GPa)
#
#
# Indices 1 2 3 4 5 6 
#
# 1 0.011854 -0.002753 -0.003449 0.000000 0.000000 0.000000
# 2 -0.002753 0.014852 -0.003274 0.000000 0.000000 0.000000
# 3 -0.003449 -0.003274 0.007591 0.000000 0.000000 0.000000
# 4 0.000000 0.000000 0.000000 -0.269054 0.000000 0.000000
# 5 0.000000 0.000000 0.000000 0.000000 0.019234 0.000000
# 6 0.000000 0.000000 0.000000 0.000000 0.000000 0.030378
#
#
# Mechanical properties :
#
#
# Convention : Reuss Voigt Hill
#
# Bulk Modulus (GPa) = 65.16873 76.67768 70.92320
# Shear Modulus (GPa) = -31.04099 31.41590 0.18745
#
# Velocity S-wave (km/s) = -3.65829 3.68032 0.28429
# Velocity P-wave (km/s) = 3.20201 7.14973 5.53948
#
# Compressibility (1/GPa) = 0.01534478
#
# Stress axis : x y z
#
# Youngs Moduli (GPa) = 84.35792 67.33168 131.72792
#
# Poissons Ratio (x) = 0.18535 0.45436
# Poissons Ratio (y) = 0.23222 0.43132
# Poissons Ratio (z) = 0.29097 0.22047
#
# Static dielectric constant tensor:
#      x y z
#    x 1.991010 0.000000 0.000000 
#    y 0.000000 1.798150 0.000000 
#    z 0.000000 0.000000 2.019460 
# 
# From -- ./inp_files/21205.got.cif
#   From: 2010.05.17/outbox.cif.g08.bks.cpg/sg21_11_cif.got.tgz:21205.got - 2010.06.03 23:14:55.
