data_PCOD9325182
_publ_section_title
;
Structure prediction by ZEFSAII (Michael W. Deem and Ramdas Pophale) SiO2 
 PCOD9325182
Probable space group: C 2 2 2
;
_chemical_formula_sum "Si O2"
_cell_formula_units_Z 26
_cell_length_a 10.047940
_cell_length_b 9.378974
_cell_length_c 13.171051
_cell_angle_alpha 90.000000
_cell_angle_beta 90.000000
_cell_angle_gamma 90.000000
_cell_volume 1241.231522
_symmetry_space_group_name_H-M "C 2 2 2"
_symmetry_group_IT_number 21
_symmetry_cell_setting 'orthorhombic'
loop_
_space_group_symop_operation_xyz
x,y,z
-x,-y,z
x,-y,-z
-x,y,-z
1/2+x,1/2+y,z
1/2-x,1/2-y,z
1/2+x,1/2-y,-z
1/2-x,1/2+y,-z
loop_
_atom_site_type_symbol
_atom_site_label
_atom_site_fract_x
_atom_site_fract_y
_atom_site_fract_z
Si Si1 0.402000 0.714867 0.163879
Si Si2 0.217975 0.580922 0.598723
Si Si3 0.500000 0.000000 0.230296
Si Si4 0.500000 0.500000 0.674141
Si Si5 0.500000 0.500000 0.000000
O O1 0.250000 0.750000 0.189042
O O2 0.469799 0.867534 0.157607
O O3 0.478922 0.636242 0.254504
O O4 0.414026 0.606057 0.070291
O O5 0.160969 0.500000 0.500000
O O6 0.250000 0.750000 0.586512
O O7 0.122495 0.543768 0.694451
O O8 0.363587 0.514261 0.615222
#
# Coordination Sequence:
#
# PCOD9325182 Si02
#       5
#     8   8   4   4   2
#     4  11  24  46  73 101 136 174 229 282 349 420
#     4  12  27  42  67 102 143 184 240 280 332 396
#     4  12  25  43  72 102 138 186 230 281 343 402
#     4  11  23  45  69  98 138 186 219 287 343 395
#     4  10  28  46  70 106 134 174 222 286 360 424
#
# _framework density 20.946939
#
# number of rings (size 3 to 8) (size 9 to 14) (size 15 to 20)
#    0.000    0.615    6.154    0.923    4.308    5.538 
#    0.000    0.000    0.000    0.000    0.000    0.000 
#    0.000    0.000    0.000    0.000    0.000    0.000 
#
# Total GULP energy -72571.154958 kJ/mol
# GULP energy per Si atom -5582.396535 kJ/mol
# Density = 2.089926 g / cm^3
# Si number density = 20.946939 Si / 1000 Ang^3
#
#
#
# Elastic Constant Matrix: (Units=GPa)
#
#
# Indices 1 2 3 4 5 6 
#
# 1 97.0649 13.4085 10.3452 0.0000 0.0000 0.0000
# 2 13.4085 171.1110 31.6753 0.0000 0.0000 0.0000
# 3 10.3452 31.6753 60.7568 0.0000 0.0000 0.0000
# 4 0.0000 0.0000 0.0000 13.9180 0.0000 0.0000
# 5 0.0000 0.0000 0.0000 0.0000 16.9104 0.0000
# 6 0.0000 0.0000 0.0000 0.0000 0.0000 33.7854
#
#
#
# Elastic Compliance Matrix: (Units=1/GPa)
#
#
# Indices 1 2 3 4 5 6 
#
# 1 0.010539 -0.000546 -0.001510 0.000000 0.000000 0.000000
# 2 -0.000546 0.006497 -0.003294 0.000000 0.000000 0.000000
# 3 -0.001510 -0.003294 0.018433 0.000000 0.000000 0.000000
# 4 0.000000 0.000000 0.000000 0.071850 0.000000 0.000000
# 5 0.000000 0.000000 0.000000 0.000000 0.059135 0.000000
# 6 0.000000 0.000000 0.000000 0.000000 0.000000 0.029599
#
#
# Mechanical properties :
#
#
# Convention : Reuss Voigt Hill
#
# Bulk Modulus (GPa) = 40.37317 48.86563 44.61940
# Shear Modulus (GPa) = 23.25489 31.15634 27.20561
#
# Velocity S-wave (km/s) = 3.33555 3.86086 3.60778
# Velocity P-wave (km/s) = 5.84383 6.57677 6.22111
#
# Compressibility (1/GPa) = 0.02476893
#
# Stress axis : x y z
#
# Youngs Moduli (GPa) = 94.88784 153.92314 54.24924
#
# Poissons Ratio (x) = 0.08410 0.08190
# Poissons Ratio (y) = 0.05184 0.17870
# Poissons Ratio (z) = 0.14324 0.50703
#
# Static dielectric constant tensor:
#      x y z
#    x 1.717930 0.000000 0.000000 
#    y 0.000000 1.778660 0.000000 
#    z 0.000000 0.000000 1.762530 
# 
# From -- ./inp_files/23284.got.cif
#   From: 2010.05.17/outbox.cif.g08.bks.cpg/sg21_12_cif.got.tgz:23284.got - 2010.06.03 23:14:55.
