data_PCOD9325476
_publ_section_title
;
Structure prediction by ZEFSAII (Michael W. Deem and Ramdas Pophale) SiO2 
 PCOD9325476
Probable space group: C 2 2 2
;
_chemical_formula_sum "Si O2"
_cell_formula_units_Z 40
_cell_length_a 10.660437
_cell_length_b 16.041316
_cell_length_c 12.278266
_cell_angle_alpha 90.000000
_cell_angle_beta 90.000000
_cell_angle_gamma 90.000000
_cell_volume 2099.674819
_symmetry_space_group_name_H-M "C 2 2 2"
_symmetry_group_IT_number 21
_symmetry_cell_setting 'orthorhombic'
loop_
_space_group_symop_operation_xyz
x,y,z
-x,-y,z
x,-y,-z
-x,y,-z
1/2+x,1/2+y,z
1/2-x,1/2-y,z
1/2+x,1/2-y,-z
1/2-x,1/2+y,-z
loop_
_atom_site_type_symbol
_atom_site_label
_atom_site_fract_x
_atom_site_fract_y
_atom_site_fract_z
Si Si1 0.186562 0.500000 0.000000
Si Si2 0.000000 0.358226 0.000000
Si Si3 0.118570 0.946898 0.179944
Si Si4 0.710421 0.001859 0.628188
Si Si5 0.600331 0.745882 0.803024
Si Si6 0.493219 0.136601 0.372169
O O1 0.102267 0.575962 0.954053
O O2 0.270524 0.460443 0.906088
O O3 0.061551 0.300227 0.908262
O O4 0.174431 0.980484 0.294061
O O5 0.076058 0.851553 0.184103
O O6 0.000000 0.000000 0.145532
O O7 0.604667 0.930637 0.647027
O O8 0.742696 0.000000 0.500000
O O9 0.637442 0.088694 0.650475
O O10 0.750000 0.750000 0.783664
O O11 0.523561 0.786010 0.703888
O O12 0.500000 0.157749 0.500000
#
# Coordination Sequence:
#
# PCOD9325476 Si02
#       6
#     4   4   8   8   8   8
#     4  11  23  44  64  90 123 165 220 252 304 389
#     4  11  24  40  71  94 116 168 217 262 306 373
#     4  12  26  41  60  90 133 171 197 259 329 376
#     4   9  18  38  66  92 123 166 216 254 303 375
#     4  12  23  41  64  95 128 161 207 265 314 373
#     4   9  18  38  68  95 120 164 218 264 300 363
#
# _framework density 19.050567999999998
#
# number of rings (size 3 to 8) (size 9 to 14) (size 15 to 20)
#    0.000    1.400    4.000    2.700    2.800    3.600 
#    3.600    3.000    0.000    0.000    0.000    0.000 
#    0.000    0.000    0.000    0.000    0.000    0.000 
#
# Total GULP energy -111691.235355 kJ/mol
# GULP energy per Si atom -5584.561768 kJ/mol
# Density = 1.900721 g / cm^3
# Si number density = 19.050568 Si / 1000 Ang^3
#
#
#
# Elastic Constant Matrix: (Units=GPa)
#
#
# Indices 1 2 3 4 5 6 
#
# 1 58.8916 41.2364 24.5301 0.0000 0.0000 0.0000
# 2 41.2364 164.3161 53.6905 0.0000 0.0000 0.0000
# 3 24.5301 53.6905 64.5055 0.0000 0.0000 0.0000
# 4 0.0000 0.0000 0.0000 5.5281 0.0000 0.0000
# 5 0.0000 0.0000 0.0000 0.0000 -44.1878 0.0000
# 6 0.0000 0.0000 0.0000 0.0000 0.0000 29.5784
#
#
#
# Elastic Compliance Matrix: (Units=1/GPa)
#
#
# Indices 1 2 3 4 5 6 
#
# 1 0.021767 -0.003788 -0.005125 0.000000 0.000000 0.000000
# 2 -0.003788 0.009019 -0.006066 0.000000 0.000000 0.000000
# 3 -0.005125 -0.006066 0.022500 0.000000 0.000000 0.000000
# 4 0.000000 0.000000 0.000000 0.180895 0.000000 0.000000
# 5 0.000000 0.000000 0.000000 0.000000 -0.022631 0.000000
# 6 0.000000 0.000000 0.000000 0.000000 0.000000 0.033808
#
#
# Mechanical properties :
#
#
# Convention : Reuss Voigt Hill
#
# Bulk Modulus (GPa) = 42.86560 58.51412 50.68986
# Shear Modulus (GPa) = 17.66204 9.40082 13.53143
#
# Velocity S-wave (km/s) = 3.04816 2.22382 2.66802
# Velocity P-wave (km/s) = 5.91085 6.11356 6.01306
#
# Compressibility (1/GPa) = 0.02332873
#
# Stress axis : x y z
#
# Youngs Moduli (GPa) = 45.94011 110.88240 44.44393
#
# Poissons Ratio (x) = 0.42005 0.22776
# Poissons Ratio (y) = 0.17403 0.26959
# Poissons Ratio (z) = 0.23543 0.67260
#
# Static dielectric constant tensor:
#      x y z
#    x 1.645710 0.000000 0.000000 
#    y 0.000000 1.695950 0.000000 
#    z 0.000000 0.000000 1.661200 
# 
# From -- ./inp_files/23844.got.cif
#   From: 2010.05.17/outbox.cif.g08.bks.cpg/sg21_12_cif.got.tgz:23844.got - 2010.06.03 23:14:55.
