data_PCOD9325030
_publ_section_title
;
Structure prediction by ZEFSAII (Michael W. Deem and Ramdas Pophale) SiO2 
 PCOD9325030
Probable space group: C 2 2 2
;
_chemical_formula_sum "Si O2"
_cell_formula_units_Z 32
_cell_length_a 5.676233
_cell_length_b 14.069499
_cell_length_c 17.385657
_cell_angle_alpha 90.000000
_cell_angle_beta 90.000000
_cell_angle_gamma 90.000000
_cell_volume 1388.449071
_symmetry_space_group_name_H-M "C 2 2 2"
_symmetry_group_IT_number 21
_symmetry_cell_setting 'orthorhombic'
loop_
_space_group_symop_operation_xyz
x,y,z
-x,-y,z
x,-y,-z
-x,y,-z
1/2+x,1/2+y,z
1/2-x,1/2-y,z
1/2+x,1/2-y,-z
1/2-x,1/2+y,-z
loop_
_atom_site_type_symbol
_atom_site_label
_atom_site_fract_x
_atom_site_fract_y
_atom_site_fract_z
Si Si1 0.000000 0.196442 0.000000
Si Si2 0.794396 0.136608 0.716269
Si Si3 0.751466 0.865411 0.461112
Si Si4 0.357283 0.644847 0.154738
Si Si5 0.500000 0.000000 0.177865
O O1 0.750000 0.250000 0.010735
O O2 0.036960 0.148340 0.083422
O O3 0.750000 0.250000 0.720098
O O4 0.771624 0.106202 0.628139
O O5 0.611563 0.079277 0.767158
O O6 0.036659 0.118703 0.762033
O O7 0.500000 0.893920 0.500000
O O8 0.750000 0.750000 0.463358
O O9 0.000000 0.894173 0.500000
O O10 0.250000 0.750000 0.164991
O O11 0.181064 0.562051 0.130283
#
# Coordination Sequence:
#
# PCOD9325030 Si02
#       5
#     4   8   8   8   4
#     4  10  24  46  81 109 150 194 246 303 368 437
#     4  11  23  43  73 103 145 192 243 304 368 434
#     4   9  20  37  66 101 137 186 242 296 363 433
#     4  11  24  46  78 106 148 195 243 303 370 432
#     4  12  26  44  74 110 142 190 252 292 365 445
#
# _framework density 23.047297
#
# number of rings (size 3 to 8) (size 9 to 14) (size 15 to 20)
#    0.000    1.500    2.500    1.500    7.000    1.000 
#    0.000    4.375    0.000    0.000    0.000    0.000 
#    0.000    0.000    0.000    0.000    0.000    0.000 
#
# Total GULP energy -89271.600258 kJ/mol
# GULP energy per Si atom -5579.475016 kJ/mol
# Density = 2.299484 g / cm^3
# Si number density = 23.047297 Si / 1000 Ang^3
#
#
#
# Elastic Constant Matrix: (Units=GPa)
#
#
# Indices 1 2 3 4 5 6 
#
# 1 115.7892 13.3394 41.5352 0.0000 0.0000 0.0000
# 2 13.3394 80.2260 6.6529 0.0000 0.0000 0.0000
# 3 41.5352 6.6529 122.7378 0.0000 0.0000 0.0000
# 4 0.0000 0.0000 0.0000 4.8433 0.0000 0.0000
# 5 0.0000 0.0000 0.0000 0.0000 22.5672 0.0000
# 6 0.0000 0.0000 0.0000 0.0000 0.0000 26.9083
#
#
#
# Elastic Compliance Matrix: (Units=1/GPa)
#
#
# Indices 1 2 3 4 5 6 
#
# 1 0.009981 -0.001386 -0.003302 0.000000 0.000000 0.000000
# 2 -0.001386 0.012713 -0.000220 0.000000 0.000000 0.000000
# 3 -0.003302 -0.000220 0.009277 0.000000 0.000000 0.000000
# 4 0.000000 0.000000 0.000000 0.206472 0.000000 0.000000
# 5 0.000000 0.000000 0.000000 0.000000 0.044312 0.000000
# 6 0.000000 0.000000 0.000000 0.000000 0.000000 0.037163
#
#
# Mechanical properties :
#
#
# Convention : Reuss Voigt Hill
#
# Bulk Modulus (GPa) = 45.13757 49.08979 47.11368
# Shear Modulus (GPa) = 14.83152 28.01213 21.42182
#
# Velocity S-wave (km/s) = 2.53953 3.49007 3.05203
# Velocity P-wave (km/s) = 5.31284 6.13079 5.73641
#
# Compressibility (1/GPa) = 0.02215449
#
# Stress axis : x y z
#
# Youngs Moduli (GPa) = 100.19401 78.65689 107.79421
#
# Poissons Ratio (x) = 0.10899 0.35598
# Poissons Ratio (y) = 0.13883 0.02374
# Poissons Ratio (z) = 0.33088 0.01732
#
# Static dielectric constant tensor:
#      x y z
#    x 1.974510 0.000000 0.000000 
#    y 0.000000 1.846580 0.000000 
#    z 0.000000 0.000000 1.795050 
# 
# From -- ./inp_files/34468.got.cif
#   From: 2010.05.17/outbox.cif.g08.bks.cpg/sg21_18_cif.got.tgz:34468.got - 2010.06.03 23:14:55.
