data_PCOD9325593
_publ_section_title
;
Structure prediction by ZEFSAII (Michael W. Deem and Ramdas Pophale) SiO2 
 PCOD9325593
Probable space group: C 2 2 2
;
_chemical_formula_sum "Si O2"
_cell_formula_units_Z 40
_cell_length_a 13.109446
_cell_length_b 9.203045
_cell_length_c 14.228445
_cell_angle_alpha 90.000000
_cell_angle_beta 90.000000
_cell_angle_gamma 90.000000
_cell_volume 1716.616664
_symmetry_space_group_name_H-M "C 2 2 2"
_symmetry_group_IT_number 21
_symmetry_cell_setting 'orthorhombic'
loop_
_space_group_symop_operation_xyz
x,y,z
-x,-y,z
x,-y,-z
-x,y,-z
1/2+x,1/2+y,z
1/2-x,1/2-y,z
1/2+x,1/2-y,-z
1/2-x,1/2+y,-z
loop_
_atom_site_type_symbol
_atom_site_label
_atom_site_fract_x
_atom_site_fract_y
_atom_site_fract_z
Si Si1 0.000000 0.500000 0.658259
Si Si2 0.186852 0.107071 0.564635
Si Si3 0.174058 0.118175 0.773017
Si Si4 0.014884 0.177332 0.106948
Si Si5 0.320585 0.130131 0.217232
Si Si6 0.500000 0.240118 0.500000
O O1 0.900449 0.460211 0.719833
O O2 0.984929 0.638377 0.590482
O O3 0.250000 0.250000 0.581004
O O4 0.151090 0.059410 0.667971
O O5 0.096327 0.155207 0.496115
O O6 0.252622 0.000000 0.500000
O O7 0.250000 0.250000 0.768539
O O8 0.076653 0.194633 0.819586
O O9 0.237939 0.987176 0.822800
O O10 0.110619 0.270094 0.147081
O O11 0.000000 0.000000 0.102270
O O12 0.000000 0.227669 0.000000
O O13 0.250000 0.250000 0.269511
#
# Coordination Sequence:
#
# PCOD9325593 Si02
#       6
#     4   8   8   8   8   4
#     4  11  26  44  69 106 148 184 253 312 362 451
#     4  11  26  43  69 107 144 195 248 303 361 451
#     4  11  25  48  73 109 153 193 251 316 385 457
#     4  11  25  49  74 112 151 189 257 324 381 470
#     4  12  25  47  78 106 143 202 243 309 392 453
#     4  11  25  44  68  98 146 196 240 310 368 424
#
# _framework density 23.301649999999999
#
# number of rings (size 3 to 8) (size 9 to 14) (size 15 to 20)
#    0.000    0.800    2.000    5.100    8.400    2.400 
#    0.000    3.500    0.000    0.000    0.000    0.000 
#    0.000    0.000    0.000    0.000    0.000    0.000 
#
# Total GULP energy -111456.712322 kJ/mol
# GULP energy per Si atom -5572.835616 kJ/mol
# Density = 2.324861 g / cm^3
# Si number density = 23.301650 Si / 1000 Ang^3
#
#
#
# Elastic Constant Matrix: (Units=GPa)
#
#
# Indices 1 2 3 4 5 6 
#
# 1 73.8396 26.0153 30.1391 0.0000 0.0000 0.0000
# 2 26.0153 112.8671 34.4803 0.0000 0.0000 0.0000
# 3 30.1391 34.4803 111.5230 0.0000 0.0000 0.0000
# 4 0.0000 0.0000 0.0000 3.7471 0.0000 0.0000
# 5 0.0000 0.0000 0.0000 0.0000 10.2336 0.0000
# 6 0.0000 0.0000 0.0000 0.0000 0.0000 49.7462
#
#
#
# Elastic Compliance Matrix: (Units=1/GPa)
#
#
# Indices 1 2 3 4 5 6 
#
# 1 0.015881 -0.002594 -0.003490 0.000000 0.000000 0.000000
# 2 -0.002594 0.010208 -0.002455 0.000000 0.000000 0.000000
# 3 -0.003490 -0.002455 0.010669 0.000000 0.000000 0.000000
# 4 0.000000 0.000000 0.000000 0.266876 0.000000 0.000000
# 5 0.000000 0.000000 0.000000 0.000000 0.097718 0.000000
# 6 0.000000 0.000000 0.000000 0.000000 0.000000 0.020102
#
#
# Mechanical properties :
#
#
# Convention : Reuss Voigt Hill
#
# Bulk Modulus (GPa) = 50.81330 53.27766 52.04548
# Shear Modulus (GPa) = 11.23362 26.58503 18.90933
#
# Velocity S-wave (km/s) = 2.19805 3.38140 2.85178
# Velocity P-wave (km/s) = 5.31940 6.17730 5.76433
#
# Compressibility (1/GPa) = 0.01967989
#
# Stress axis : x y z
#
# Youngs Moduli (GPa) = 62.96676 97.96288 93.73055
#
# Poissons Ratio (x) = 0.25416 0.32710
# Poissons Ratio (y) = 0.16337 0.23010
# Poissons Ratio (z) = 0.21974 0.24049
#
# Static dielectric constant tensor:
#      x y z
#    x 2.105430 0.000000 0.000000 
#    y 0.000000 2.042020 0.000000 
#    z 0.000000 0.000000 1.964450 
# 
# From -- ./inp_files/32118.got.cif
#   From: 2010.05.17/outbox.cif.g08.bks.cpg/sg21_17_cif.got.tgz:32118.got - 2010.06.03 23:14:55.
