data_PCOD9325043
_publ_section_title
;
Structure prediction by ZEFSAII (Michael W. Deem and Ramdas Pophale) SiO2 
 PCOD9325043
Probable space group: C 2 2 2
;
_chemical_formula_sum "Si O2"
_cell_formula_units_Z 34
_cell_length_a 11.678249
_cell_length_b 17.262336
_cell_length_c 7.129149
_cell_angle_alpha 90.000000
_cell_angle_beta 90.000000
_cell_angle_gamma 90.000000
_cell_volume 1437.192652
_symmetry_space_group_name_H-M "C 2 2 2"
_symmetry_group_IT_number 21
_symmetry_cell_setting 'orthorhombic'
loop_
_space_group_symop_operation_xyz
x,y,z
-x,-y,z
x,-y,-z
-x,y,-z
1/2+x,1/2+y,z
1/2-x,1/2-y,z
1/2+x,1/2-y,-z
1/2-x,1/2+y,-z
loop_
_atom_site_type_symbol
_atom_site_label
_atom_site_fract_x
_atom_site_fract_y
_atom_site_fract_z
Si Si1 0.000000 0.000000 0.000000
Si Si2 0.060570 0.247297 0.823194
Si Si3 0.694787 0.474429 0.720481
Si Si4 0.834123 0.678323 0.338249
Si Si5 0.264419 0.857727 0.244682
O O1 0.084749 0.958217 0.850553
O O2 0.139584 0.181441 0.731317
O O3 0.154184 0.310451 0.895133
O O4 0.959247 0.291767 0.717362
O O5 0.000000 0.209353 0.000000
O O6 0.669364 0.500000 0.500000
O O7 0.779612 0.401850 0.734832
O O8 0.752324 0.552964 0.796180
O O9 0.750000 0.750000 0.300088
O O10 0.827858 0.660555 0.560780
#
# Coordination Sequence:
#
# PCOD9325043 Si02
#       5
#     2   8   8   8   8
#     4  12  26  44  76  96 148 188 240 308 370 410
#     4  11  25  41  72 105 144 184 237 303 353 436
#     4  10  26  46  71 107 140 188 246 295 360 443
#     4  11  24  45  71  98 144 185 236 289 361 425
#     4  10  24  48  69 104 139 190 243 284 370 431
#
# _framework density 23.657233000000002
#
# number of rings (size 3 to 8) (size 9 to 14) (size 15 to 20)
#    0.000    1.412    2.353    1.059   11.529    0.941 
#    0.000    4.706    0.000    0.000    0.000    0.000 
#    0.000    0.000    0.000    0.000    0.000    0.000 
#
# Total GULP energy -94907.851018 kJ/mol
# GULP energy per Si atom -5582.814766 kJ/mol
# Density = 2.360339 g / cm^3
# Si number density = 23.657233 Si / 1000 Ang^3
#
#
#
# Elastic Constant Matrix: (Units=GPa)
#
#
# Indices 1 2 3 4 5 6 
#
# 1 188.2164 83.0143 51.0992 0.0000 0.0000 0.0000
# 2 83.0143 204.5317 15.7090 0.0000 0.0000 0.0000
# 3 51.0992 15.7090 83.3870 0.0000 0.0000 0.0000
# 4 0.0000 0.0000 0.0000 23.6352 0.0000 0.0000
# 5 0.0000 0.0000 0.0000 0.0000 46.3045 0.0000
# 6 0.0000 0.0000 0.0000 0.0000 0.0000 21.4066
#
#
#
# Elastic Compliance Matrix: (Units=1/GPa)
#
#
# Indices 1 2 3 4 5 6 
#
# 1 0.007681 -0.002797 -0.004180 0.000000 0.000000 0.000000
# 2 -0.002797 0.005979 0.000587 0.000000 0.000000 0.000000
# 3 -0.004180 0.000587 0.014443 0.000000 0.000000 0.000000
# 4 0.000000 0.000000 0.000000 0.042310 0.000000 0.000000
# 5 0.000000 0.000000 0.000000 0.000000 0.021596 0.000000
# 6 0.000000 0.000000 0.000000 0.000000 0.000000 0.046715
#
#
# Mechanical properties :
#
#
# Convention : Reuss Voigt Hill
#
# Bulk Modulus (GPa) = 65.25378 86.19781 75.72579
# Shear Modulus (GPa) = 31.92606 40.02342 35.97474
#
# Velocity S-wave (km/s) = 3.67758 4.11762 3.90380
# Velocity P-wave (km/s) = 6.75838 7.68906 7.23869
#
# Compressibility (1/GPa) = 0.01532478
#
# Stress axis : x y z
#
# Youngs Moduli (GPa) = 130.18415 167.24679 69.23622
#
# Poissons Ratio (x) = 0.46773 0.28943
# Poissons Ratio (y) = 0.36408 -0.04067
# Poissons Ratio (z) = 0.54421 -0.09824
#
# Static dielectric constant tensor:
#      x y z
#    x 1.909860 0.000000 0.000000 
#    y 0.000000 1.878850 0.000000 
#    z 0.000000 0.000000 2.135060 
# 
# From -- ./inp_files/12643.got.cif
#   From: 2010.05.17/outbox.cif.g08.bks.cpg/sg21_7_cif.got.tgz:12643.got - 2010.06.03 23:14:55.
