data_PCOD9325453
_publ_section_title
;
Structure prediction by ZEFSAII (Michael W. Deem and Ramdas Pophale) SiO2 
 PCOD9325453
Probable space group: C 2 2 2
;
_chemical_formula_sum "Si O2"
_cell_formula_units_Z 48
_cell_length_a 13.610775
_cell_length_b 18.444650
_cell_length_c 8.927622
_cell_angle_alpha 90.000000
_cell_angle_beta 90.000000
_cell_angle_gamma 90.000000
_cell_volume 2241.243624
_symmetry_space_group_name_H-M "C 2 2 2"
_symmetry_group_IT_number 21
_symmetry_cell_setting 'orthorhombic'
loop_
_space_group_symop_operation_xyz
x,y,z
-x,-y,z
x,-y,-z
-x,y,-z
1/2+x,1/2+y,z
1/2-x,1/2-y,z
1/2+x,1/2-y,-z
1/2-x,1/2+y,-z
loop_
_atom_site_type_symbol
_atom_site_label
_atom_site_fract_x
_atom_site_fract_y
_atom_site_fract_z
Si Si1 0.000000 0.500000 0.500000
Si Si2 0.500000 0.500000 0.500000
Si Si3 0.632225 0.753856 0.480277
Si Si4 0.115341 0.418198 0.987450
Si Si5 0.614688 0.610810 0.292984
Si Si6 0.500000 0.666599 0.000000
Si Si7 0.362493 0.225526 0.816004
Si Si8 0.650544 0.899160 0.316193
O O1 0.078024 0.460833 0.384373
O O2 0.560688 0.550419 0.388751
O O3 0.750000 0.750000 0.489413
O O4 0.601077 0.686728 0.379889
O O5 0.597913 0.758124 0.650344
O O6 0.613822 0.830036 0.405368
O O7 0.139358 0.380127 0.142459
O O8 0.160247 0.500000 0.000000
O O9 0.135299 0.360494 0.856308
O O10 0.000000 0.427958 0.000000
O O11 0.563205 0.621622 0.127605
O O12 0.730943 0.590741 0.316816
O O13 0.423533 0.721780 0.076943
O O14 0.250000 0.250000 0.825734
#
# Coordination Sequence:
#
# PCOD9325453 Si02
#       8
#     2   2   8   8   8   4   8   8
#     4  12  26  38  74 110 144 202 236 288 384 454
#     4  12  26  48  72  94 152 176 242 300 372 422
#     4   9  22  43  72  97 133 182 239 295 357 425
#     4  11  24  42  62  99 145 184 223 293 364 432
#     4  11  25  49  71 105 137 193 238 314 361 434
#     4  12  24  43  75 104 138 190 258 300 374 433
#     4  11  23  42  68 104 139 188 246 305 366 444
#     4  11  25  45  69 103 146 185 243 294 358 447
#
# _framework density 21.416678999999998
#
# number of rings (size 3 to 8) (size 9 to 14) (size 15 to 20)
#    0.000    1.167    0.833    4.500    4.667    2.333 
#    9.000    0.000    0.000    0.000    0.000    0.000 
#    0.000    0.000    0.000    0.000    0.000    0.000 
#
# Total GULP energy -133760.825680 kJ/mol
# GULP energy per Si atom -5573.367737 kJ/mol
# Density = 2.136793 g / cm^3
# Si number density = 21.416679 Si / 1000 Ang^3
#
#
#
# Elastic Constant Matrix: (Units=GPa)
#
#
# Indices 1 2 3 4 5 6 
#
# 1 147.3983 59.7701 45.4515 0.0000 0.0000 0.0000
# 2 59.7701 93.9399 38.4356 0.0000 0.0000 0.0000
# 3 45.4515 38.4356 129.8012 0.0000 0.0000 0.0000
# 4 0.0000 0.0000 0.0000 39.5535 0.0000 0.0000
# 5 0.0000 0.0000 0.0000 0.0000 37.5694 0.0000
# 6 0.0000 0.0000 0.0000 0.0000 0.0000 17.6363
#
#
#
# Elastic Compliance Matrix: (Units=1/GPa)
#
#
# Indices 1 2 3 4 5 6 
#
# 1 0.009478 -0.005317 -0.001745 0.000000 0.000000 0.000000
# 2 -0.005317 0.015095 -0.002608 0.000000 0.000000 0.000000
# 3 -0.001745 -0.002608 0.009087 0.000000 0.000000 0.000000
# 4 0.000000 0.000000 0.000000 0.025282 0.000000 0.000000
# 5 0.000000 0.000000 0.000000 0.000000 0.026617 0.000000
# 6 0.000000 0.000000 0.000000 0.000000 0.000000 0.056701
#
#
# Mechanical properties :
#
#
# Convention : Reuss Voigt Hill
#
# Bulk Modulus (GPa) = 69.82428 73.16153 71.49291
# Shear Modulus (GPa) = 30.05272 34.11730 32.08501
#
# Velocity S-wave (km/s) = 3.75005 3.99560 3.87477
# Velocity P-wave (km/s) = 7.17105 7.45128 7.31251
#
# Compressibility (1/GPa) = 0.01432167
#
# Stress axis : x y z
#
# Youngs Moduli (GPa) = 105.50439 66.24663 110.04432
#
# Poissons Ratio (x) = 0.35222 0.19198
# Poissons Ratio (y) = 0.56095 0.28700
# Poissons Ratio (z) = 0.18406 0.17278
#
# Static dielectric constant tensor:
#      x y z
#    x 1.810030 0.000000 0.000000 
#    y 0.000000 1.797690 0.000000 
#    z 0.000000 0.000000 1.797940 
# 
# From -- ./inp_files/15067.got.cif
#   From: 2010.05.17/outbox.cif.g08.bks.cpg/sg21_8_cif.got.tgz:15067.got - 2010.06.03 23:14:55.
