data_PCOD9325555
_publ_section_title
;
Structure prediction by ZEFSAII (Michael W. Deem and Ramdas Pophale) SiO2 
 PCOD9325555
Probable space group: C 2 2 2
;
_chemical_formula_sum "Si O2"
_cell_formula_units_Z 42
_cell_length_a 10.332523
_cell_length_b 20.577737
_cell_length_c 9.208743
_cell_angle_alpha 90.000000
_cell_angle_beta 90.000000
_cell_angle_gamma 90.000000
_cell_volume 1957.962392
_symmetry_space_group_name_H-M "C 2 2 2"
_symmetry_group_IT_number 21
_symmetry_cell_setting 'orthorhombic'
loop_
_space_group_symop_operation_xyz
x,y,z
-x,-y,z
x,-y,-z
-x,y,-z
1/2+x,1/2+y,z
1/2-x,1/2-y,z
1/2+x,1/2-y,-z
1/2-x,1/2+y,-z
loop_
_atom_site_type_symbol
_atom_site_label
_atom_site_fract_x
_atom_site_fract_y
_atom_site_fract_z
Si Si1 0.108063 0.886902 0.607016
Si Si2 0.500000 0.000000 0.500000
Si Si3 0.968417 0.366981 0.832371
Si Si4 0.242176 0.024687 0.165135
Si Si5 0.395595 0.240638 0.382299
Si Si6 0.802382 0.406927 0.350119
O O1 0.145748 0.927040 0.749223
O O2 0.063001 0.814704 0.653387
O O3 0.227871 0.882589 0.492053
O O4 0.000000 0.916253 0.500000
O O5 0.588768 0.045910 0.409956
O O6 0.879587 0.433579 0.823971
O O7 0.891577 0.309336 0.751319
O O8 0.109972 0.363603 0.754880
O O9 0.000000 0.356790 0.000000
O O10 0.223548 0.957301 0.252679
O O11 0.227442 0.000000 0.000000
O O12 0.500000 0.216185 0.500000
O O13 0.250000 0.250000 0.439710
#
# Coordination Sequence:
#
# PCOD9325555 Si02
#       6
#     8   2   8   8   8   8
#     4  11  25  47  69  99 143 193 247 282 338 433
#     4  12  20  32  64 104 128 164 234 286 338 400
#     4  12  24  41  70 107 143 176 230 301 370 422
#     4  12  23  41  70 107 147 177 221 295 376 423
#     4  11  24  45  72 101 138 189 245 301 346 416
#     4  12  22  38  69 105 135 180 230 298 352 412
#
# _framework density 21.450872
#
# number of rings (size 3 to 8) (size 9 to 14) (size 15 to 20)
#    0.000    0.381    7.619    1.143    1.333    1.524 
#    0.000   10.476    0.000    0.000    0.000    0.000 
#    0.000    0.000    0.000    0.000    0.000    0.000 
#
# Total GULP energy -116969.288254 kJ/mol
# GULP energy per Si atom -5569.966107 kJ/mol
# Density = 2.140205 g / cm^3
# Si number density = 21.450872 Si / 1000 Ang^3
#
#
#
# Elastic Constant Matrix: (Units=GPa)
#
#
# Indices 1 2 3 4 5 6 
#
# 1 80.3306 6.0563 34.1873 0.0000 0.0000 0.0000
# 2 6.0563 96.6811 59.5831 0.0000 0.0000 0.0000
# 3 34.1873 59.5831 138.1003 0.0000 0.0000 0.0000
# 4 0.0000 0.0000 0.0000 23.4611 0.0000 0.0000
# 5 0.0000 0.0000 0.0000 0.0000 24.1156 0.0000
# 6 0.0000 0.0000 0.0000 0.0000 0.0000 23.1956
#
#
#
# Elastic Compliance Matrix: (Units=1/GPa)
#
#
# Indices 1 2 3 4 5 6 
#
# 1 0.014124 0.001730 -0.004243 0.000000 0.000000 0.000000
# 2 0.001730 0.014302 -0.006599 0.000000 0.000000 0.000000
# 3 -0.004243 -0.006599 0.011138 0.000000 0.000000 0.000000
# 4 0.000000 0.000000 0.000000 0.042624 0.000000 0.000000
# 5 0.000000 0.000000 0.000000 0.000000 0.041467 0.000000
# 6 0.000000 0.000000 0.000000 0.000000 0.000000 0.043112
#
#
# Mechanical properties :
#
#
# Convention : Reuss Voigt Hill
#
# Bulk Modulus (GPa) = 46.85838 57.19616 52.02727
# Shear Modulus (GPa) = 26.02775 28.50681 27.26728
#
# Velocity S-wave (km/s) = 3.48712 3.64941 3.56919
# Velocity P-wave (km/s) = 6.17295 6.66928 6.42591
#
# Compressibility (1/GPa) = 0.02134090
#
# Stress axis : x y z
#
# Youngs Moduli (GPa) = 70.80245 69.92238 89.77921
#
# Poissons Ratio (x) = -0.12097 0.38092
# Poissons Ratio (y) = -0.12249 0.59242
# Poissons Ratio (z) = 0.30040 0.46139
#
# Static dielectric constant tensor:
#      x y z
#    x 1.868830 0.000000 0.000000 
#    y 0.000000 1.796210 0.000000 
#    z 0.000000 0.000000 1.851320 
# 
# From -- ./inp_files/13266.got.cif
#   From: 2010.05.17/outbox.cif.g08.bks.cpg/sg21_7_cif.got.tgz:13266.got - 2010.06.03 23:14:55.
