data_PCOD9325417
_publ_section_title
;
Structure prediction by ZEFSAII (Michael W. Deem and Ramdas Pophale) SiO2 
 PCOD9325417
Probable space group: C 2 2 2
;
_chemical_formula_sum "Si O2"
_cell_formula_units_Z 48
_cell_length_a 8.267692
_cell_length_b 28.185166
_cell_length_c 8.880458
_cell_angle_alpha 90.000000
_cell_angle_beta 90.000000
_cell_angle_gamma 90.000000
_cell_volume 2069.380017
_symmetry_space_group_name_H-M "C 2 2 2"
_symmetry_group_IT_number 21
_symmetry_cell_setting 'orthorhombic'
loop_
_space_group_symop_operation_xyz
x,y,z
-x,-y,z
x,-y,-z
-x,y,-z
1/2+x,1/2+y,z
1/2-x,1/2-y,z
1/2+x,1/2-y,-z
1/2-x,1/2+y,-z
loop_
_atom_site_type_symbol
_atom_site_label
_atom_site_fract_x
_atom_site_fract_y
_atom_site_fract_z
Si Si1 0.179993 0.543744 0.387313
Si Si2 0.421767 0.777508 0.164034
Si Si3 0.842935 0.111442 0.609473
Si Si4 0.132729 0.786126 0.619025
Si Si5 0.062442 0.064139 0.840049
Si Si6 0.104852 0.386333 0.847241
O O1 0.154085 0.500000 0.500000
O O2 0.215526 0.586243 0.503190
O O3 0.335821 0.532245 0.279600
O O4 0.061800 0.569398 0.265243
O O5 0.250000 0.750000 0.161930
O O6 0.548378 0.745062 0.254390
O O7 0.406875 0.832578 0.216794
O O8 0.500000 0.781070 0.000000
O O9 0.791853 0.163822 0.662543
O O10 0.000000 0.110355 0.500000
O O11 0.907035 0.084055 0.754076
O O12 0.250000 0.750000 0.536715
O O13 0.000000 0.799245 0.500000
O O14 0.202003 0.104135 0.871171
O O15 0.000000 0.047090 0.000000
O O16 0.000000 0.389898 0.000000
#
# Coordination Sequence:
#
# PCOD9325417 Si02
#       6
#     8   8   8   8   8   8
#     4   9  20  40  68  99 139 178 229 297 357 422
#     4  11  23  39  62  96 141 187 233 280 341 416
#     4   9  19  35  57  95 138 177 228 289 357 400
#     4  11  24  37  59  93 136 181 232 284 343 418
#     4   9  19  35  65 100 138 175 222 297 345 406
#     4   9  21  38  65 100 141 188 232 288 346 428
#
# _framework density 23.195354999999999
#
# number of rings (size 3 to 8) (size 9 to 14) (size 15 to 20)
#    1.000    1.333    0.000    2.000    4.667    8.333 
#    0.000    1.667    0.000    1.000    0.000   15.167 
#    0.000    0.000    0.000    0.000    0.000    0.000 
#
# Total GULP energy -133662.218532 kJ/mol
# GULP energy per Si atom -5569.259106 kJ/mol
# Density = 2.314256 g / cm^3
# Si number density = 23.195355 Si / 1000 Ang^3
#
#
#
# Elastic Constant Matrix: (Units=GPa)
#
#
# Indices 1 2 3 4 5 6 
#
# 1 45.8280 16.0628 19.8047 0.0000 0.0000 0.0000
# 2 16.0628 167.2925 64.5516 0.0000 0.0000 0.0000
# 3 19.8047 64.5516 135.4094 0.0000 0.0000 0.0000
# 4 0.0000 0.0000 0.0000 64.2074 0.0000 0.0000
# 5 0.0000 0.0000 0.0000 0.0000 35.8727 0.0000
# 6 0.0000 0.0000 0.0000 0.0000 0.0000 666.3224
#
#
#
# Elastic Compliance Matrix: (Units=1/GPa)
#
#
# Indices 1 2 3 4 5 6 
#
# 1 0.023469 -0.001138 -0.002890 0.000000 0.000000 0.000000
# 2 -0.001138 0.007380 -0.003352 0.000000 0.000000 0.000000
# 3 -0.002890 -0.003352 0.009405 0.000000 0.000000 0.000000
# 4 0.000000 0.000000 0.000000 0.015575 0.000000 0.000000
# 5 0.000000 0.000000 0.000000 0.000000 0.027876 0.000000
# 6 0.000000 0.000000 0.000000 0.000000 0.000000 0.001501
#
#
# Mechanical properties :
#
#
# Convention : Reuss Voigt Hill
#
# Bulk Modulus (GPa) = 39.22418 61.04091 50.13254
# Shear Modulus (GPa) = 46.09837 169.82121 107.95979
#
# Velocity S-wave (km/s) = 4.46286 8.56577 6.82970
# Velocity P-wave (km/s) = 6.59570 11.14464 9.15713
#
# Compressibility (1/GPa) = 0.02549448
#
# Stress axis : x y z
#
# Youngs Moduli (GPa) = 42.61025 135.49852 106.32086
#
# Poissons Ratio (x) = 0.15424 0.30725
# Poissons Ratio (y) = 0.04850 0.35636
# Poissons Ratio (z) = 0.12314 0.45416
#
# Static dielectric constant tensor:
#      x y z
#    x 2.005230 0.000000 0.000000 
#    y 0.000000 2.003190 0.000000 
#    z 0.000000 0.000000 1.927930 
# 
# From -- ./inp_files/11488.got.cif
#   From: 2010.05.17/outbox.cif.g08.bks.cpg/sg21_6_cif.got.tgz:11488.got - 2010.06.03 23:14:55.
