data_PCOD9325839
_publ_section_title
;
Structure prediction by ZEFSAII (Michael W. Deem and Ramdas Pophale) SiO2 
 PCOD9325839
Probable space group: C 2 2 2
;
_chemical_formula_sum "Si O2"
_cell_formula_units_Z 32
_cell_length_a 30.000000
_cell_length_b 12.000000
_cell_length_c 9.000000
_cell_angle_alpha 90.000000
_cell_angle_beta 90.000000
_cell_angle_gamma 90.000000
_cell_volume 3240.000000
_symmetry_space_group_name_H-M "C 2 2 2"
_symmetry_group_IT_number 21
_symmetry_cell_setting 'orthorhombic'
loop_
_space_group_symop_operation_xyz
x,y,z
-x,-y,z
x,-y,-z
-x,y,-z
1/2+x,1/2+y,z
1/2-x,1/2-y,z
1/2+x,1/2-y,-z
1/2-x,1/2+y,-z
loop_
_atom_site_type_symbol
_atom_site_label
_atom_site_fract_x
_atom_site_fract_y
_atom_site_fract_z
Si Si1 0.951510 0.615637 0.072289
Si Si2 0.594277 0.920668 0.355781
Si Si3 0.168858 0.551440 0.165970
Si Si4 0.372941 0.267646 0.964186
Si Si5 0.639971 0.571607 0.712631
Si Si6 0.632728 0.678464 0.407621
Si Si7 0.261309 0.463420 0.674233
Si Si8 0.705151 0.312143 0.799339
O O1 0.948426 0.586864 0.246670
O O2 0.934220 0.500000 0.000000
O O3 0.917590 0.716750 0.037410
O O4 0.000000 0.635543 0.000000
O O5 0.605296 0.791338 0.387223
O O6 0.589290 0.000000 0.500000
O O7 0.635855 0.970509 0.258895
O O8 0.144442 0.668571 0.141403
O O9 0.214135 0.572285 0.259059
O O10 0.177317 0.500000 0.000000
O O11 0.377968 0.377950 0.864969
O O12 0.334047 0.289164 0.084275
O O13 0.620872 0.634174 0.569772
O O14 0.630875 0.438589 0.689161
O O15 0.692730 0.604426 0.692786
O O16 0.683154 0.716429 0.361339
O O17 0.257538 0.500000 0.500000
O O18 0.276487 0.564685 0.779997
O O19 0.750000 0.250000 0.840113
#
# Coordination Sequence:
#
# PCOD9325839 Si02
#       8
#     8   8   8   8   8   8   8   8
#     4  11  24  47  71  97 139 166 204 287 354 410
#     4  12  22  41  73 102 128 176 221 277 351 414
#     4  12  23  39  60  91 137 175 224 284 337 389
#     4  12  23  41  64  96 127 176 225 270 345 414
#     4  10  23  39  60  89 131 185 228 275 326 388
#     4  10  20  42  59  90 133 175 231 276 322 392
#     4  11  23  40  52  87 132 181 234 275 319 380
#     4  11  22  36  57  86 130 178 220 279 326 387
#
# _framework density 9.8765429999999999
#
# number of rings (size 3 to 8) (size 9 to 14) (size 15 to 20)
#    0.000    0.875    6.250    2.625    3.500    2.500 
#    0.000    1.250    0.000    1.500    0.000    1.750 
#    0.000    0.000    0.000    0.000    0.000    0.000 
#
# Total GULP energy -178324.490637 kJ/mol
# GULP energy per Si atom -5572.640332 kJ/mol
# Density = 0.985406 g / cm^3
# Si number density = 9.876543 Si / 1000 Ang^3
#
#
#
# Elastic Constant Matrix: (Units=GPa)
#
#
# Indices 1 2 3 4 5 6 
#
# 1 80.2408 37.1502 44.8977 0.0000 0.0000 0.0000
# 2 37.1502 101.9589 58.1791 0.0000 0.0000 0.0000
# 3 44.8977 58.1791 112.2532 0.0000 0.0000 0.0000
# 4 0.0000 0.0000 0.0000 36.7947 0.0000 0.0000
# 5 0.0000 0.0000 0.0000 0.0000 21.5360 0.0000
# 6 0.0000 0.0000 0.0000 0.0000 0.0000 14.2412
#
#
#
# Elastic Compliance Matrix: (Units=1/GPa)
#
#
# Indices 1 2 3 4 5 6 
#
# 1 0.016779 -0.003243 -0.005030 0.000000 0.000000 0.000000
# 2 -0.003243 0.014553 -0.006246 0.000000 0.000000 0.000000
# 3 -0.005030 -0.006246 0.014157 0.000000 0.000000 0.000000
# 4 0.000000 0.000000 0.000000 0.027178 0.000000 0.000000
# 5 0.000000 0.000000 0.000000 0.000000 0.046434 0.000000
# 6 0.000000 0.000000 0.000000 0.000000 0.000000 0.070219
#
#
# Mechanical properties :
#
#
# Convention : Reuss Voigt Hill
#
# Bulk Modulus (GPa) = 60.78469 63.87853 62.33161
# Shear Modulus (GPa) = 22.33725 24.79610 23.56668
#
# Velocity S-wave (km/s) = 3.36642 3.54687 3.45782
# Velocity P-wave (km/s) = 6.77860 7.01302 6.89681
#
# Compressibility (1/GPa) = 0.01645151
#
# Stress axis : x y z
#
# Youngs Moduli (GPa) = 59.60002 68.71215 70.63542
#
# Poissons Ratio (x) = 0.22286 0.35529
# Poissons Ratio (y) = 0.19331 0.44116
# Poissons Ratio (z) = 0.29978 0.42915
#
# Static dielectric constant tensor:
#      x y z
#    x 1.773650 0.000000 0.000000 
#    y 0.000000 2.118180 0.000000 
#    z 0.000000 0.000000 1.760300 
# 
# From -- ./inp_files/19799.got.cif
#   From: 2010.05.17/outbox.ucp.g08.bks.cvg/sg21_10_cif.got.tgz:19799.got - 2010.06.11 15:15:05.
