data_PCOD9325287
_publ_section_title
;
Structure prediction by ZEFSAII (Michael W. Deem and Ramdas Pophale) SiO2 
 PCOD9325287
Probable space group: C 2 2 2
;
_chemical_formula_sum "Si O2"
_cell_formula_units_Z 56
_cell_length_a 8.433299
_cell_length_b 20.082238
_cell_length_c 15.373475
_cell_angle_alpha 90.000000
_cell_angle_beta 90.000000
_cell_angle_gamma 90.000000
_cell_volume 2603.644310
_symmetry_space_group_name_H-M "C 2 2 2"
_symmetry_group_IT_number 21
_symmetry_cell_setting 'orthorhombic'
loop_
_space_group_symop_operation_xyz
x,y,z
-x,-y,z
x,-y,-z
-x,y,-z
1/2+x,1/2+y,z
1/2-x,1/2-y,z
1/2+x,1/2-y,-z
1/2-x,1/2+y,-z
loop_
_atom_site_type_symbol
_atom_site_label
_atom_site_fract_x
_atom_site_fract_y
_atom_site_fract_z
Si Si1 0.322221 0.530448 0.411200
Si Si2 0.605286 0.868714 0.794908
Si Si3 0.309137 0.014038 0.904546
Si Si4 0.313117 0.316840 0.634541
Si Si5 0.796391 0.440225 0.738159
Si Si6 0.442134 0.253528 0.901299
Si Si7 0.116176 0.806394 0.742647
O O1 0.500000 0.500000 0.403646
O O2 0.254535 0.500000 0.500000
O O3 0.321395 0.610903 0.411338
O O4 0.230399 0.499035 0.329858
O O5 0.706554 0.913138 0.862211
O O6 0.706267 0.831822 0.721046
O O7 0.476452 0.915497 0.748386
O O8 0.511976 0.816552 0.855618
O O9 0.500000 0.000000 0.908240
O O10 0.242079 0.964960 0.832709
O O11 0.245610 0.000000 0.000000
O O12 0.250000 0.250000 0.587778
O O13 0.483355 0.295332 0.670427
O O14 0.693414 0.376162 0.717616
O O15 0.250000 0.250000 0.898935
O O16 0.526032 0.305537 0.836156
O O17 0.500000 0.259410 0.000000
O O18 0.250000 0.750000 0.742920
#
# Coordination Sequence:
#
# PCOD9325287 Si02
#       7
#     8   8   8   8   8   8   8
#     4  11  25  46  75 104 142 187 230 291 371 438
#     4  11  21  39  65  93 135 180 228 290 354 414
#     4   9  20  33  56  92 127 174 223 277 341 415
#     4  12  22  44  72 101 136 179 233 289 359 424
#     4  11  22  39  67  97 130 181 233 290 349 426
#     4  12  25  38  58  94 137 185 232 291 348 416
#     4  12  22  40  63  95 133 183 236 284 350 418
#
# _framework density 21.508315
#
# number of rings (size 3 to 8) (size 9 to 14) (size 15 to 20)
#    0.000    0.857    7.143    0.429    4.000    0.000 
#    0.000    2.143    3.143    0.857    0.000    0.000 
#    0.000    0.000    0.000    0.000    0.000    0.000 
#
# Total GULP energy -156345.226311 kJ/mol
# GULP energy per Si atom -5583.758083 kJ/mol
# Density = 2.145936 g / cm^3
# Si number density = 21.508315 Si / 1000 Ang^3
#
#
#
# Elastic Constant Matrix: (Units=GPa)
#
#
# Indices 1 2 3 4 5 6 
#
# 1 67.7369 36.3969 29.3936 0.0000 0.0000 0.0000
# 2 36.3969 134.4155 22.8369 0.0000 0.0000 0.0000
# 3 29.3936 22.8369 65.6251 0.0000 0.0000 0.0000
# 4 0.0000 0.0000 0.0000 27.7997 0.0000 0.0000
# 5 0.0000 0.0000 0.0000 0.0000 -4.5290 0.0000
# 6 0.0000 0.0000 0.0000 0.0000 0.0000 31.5985
#
#
#
# Elastic Compliance Matrix: (Units=1/GPa)
#
#
# Indices 1 2 3 4 5 6 
#
# 1 0.020343 -0.004209 -0.007647 0.000000 0.000000 0.000000
# 2 -0.004209 0.008778 -0.001169 0.000000 0.000000 0.000000
# 3 -0.007647 -0.001169 0.019070 0.000000 0.000000 0.000000
# 4 0.000000 0.000000 0.000000 0.035972 0.000000 0.000000
# 5 0.000000 0.000000 0.000000 0.000000 -0.220800 0.000000
# 6 0.000000 0.000000 0.000000 0.000000 0.000000 0.031647
#
#
# Mechanical properties :
#
#
# Convention : Reuss Voigt Hill
#
# Bulk Modulus (GPa) = 45.16684 49.44803 47.30743
# Shear Modulus (GPa) = -69.87239 22.91719 -23.47760
#
# Velocity S-wave (km/s) = -5.70585 3.26775 -3.30746
# Velocity P-wave (km/s) = 4.72903 6.10554 2.73075
#
# Compressibility (1/GPa) = 0.02214014
#
# Stress axis : x y z
#
# Youngs Moduli (GPa) = 49.15694 113.92029 52.43825
#
# Poissons Ratio (x) = 0.47952 0.40099
# Poissons Ratio (y) = 0.20691 0.06132
# Poissons Ratio (z) = 0.37590 0.13321
#
# Static dielectric constant tensor:
#      x y z
#    x 1.812740 0.000000 0.000000 
#    y 0.000000 1.844230 0.000000 
#    z 0.000000 0.000000 1.759940 
# 
# From -- ./inp_files/30750.got.cif
#   From: 2010.05.17/outbox.cif.g08.bks.cpg/sg21_16_cif.got.tgz:30750.got - 2010.06.03 23:14:55.
