data_PCOD9325755
_publ_section_title
;
Structure prediction by ZEFSAII (Michael W. Deem and Ramdas Pophale) SiO2 
 PCOD9325755
Probable space group: C 2 2 2
;
_chemical_formula_sum "Si O2"
_cell_formula_units_Z 32
_cell_length_a 8.949338
_cell_length_b 12.269025
_cell_length_c 12.764330
_cell_angle_alpha 90.000000
_cell_angle_beta 90.000000
_cell_angle_gamma 90.000000
_cell_volume 1401.518988
_symmetry_space_group_name_H-M "C 2 2 2"
_symmetry_group_IT_number 21
_symmetry_cell_setting 'orthorhombic'
loop_
_space_group_symop_operation_xyz
x,y,z
-x,-y,z
x,-y,-z
-x,y,-z
1/2+x,1/2+y,z
1/2-x,1/2-y,z
1/2+x,1/2-y,-z
1/2-x,1/2+y,-z
loop_
_atom_site_type_symbol
_atom_site_label
_atom_site_fract_x
_atom_site_fract_y
_atom_site_fract_z
Si Si1 0.000000 0.000000 0.743276
Si Si2 0.573974 0.287176 0.112973
Si Si3 0.760399 0.081700 0.417324
Si Si4 0.506850 0.870365 0.284189
Si Si5 0.250000 0.750000 0.576013
O O1 0.031712 0.105369 0.817262
O O2 0.137235 0.012725 0.661432
O O3 0.750000 0.250000 0.107253
O O4 0.495908 0.187617 0.173146
O O5 0.500000 0.302793 0.000000
O O6 0.645193 0.148916 0.347715
O O7 0.833345 0.166211 0.498130
O O8 0.681263 0.000000 0.500000
O O9 0.637857 0.816884 0.351211
O O10 0.500000 0.000000 0.272594
#
# Coordination Sequence:
#
# PCOD9325755 Si02
#       5
#     4   8   8   8   4
#     4  12  26  52  78 116 162 206 270 334 402 490
#     4  12  29  54  83 114 153 209 275 345 415 475
#     4  12  24  45  75 114 162 214 260 316 400 485
#     4  12  27  50  73 118 167 204 273 332 397 490
#     4  12  26  44  74 118 168 222 262 318 398 490
#
# _framework density 22.832369
#
# number of rings (size 3 to 8) (size 9 to 14) (size 15 to 20)
#    0.000    0.000    5.000    4.500    1.750    2.500 
#    4.500    0.000    0.000    0.000    0.000    0.000 
#    0.000    0.000    0.000    0.000    0.000    0.000 
#
# Total GULP energy -89333.580776 kJ/mol
# GULP energy per Si atom -5583.348799 kJ/mol
# Density = 2.278040 g / cm^3
# Si number density = 22.832369 Si / 1000 Ang^3
#
#
#
# Elastic Constant Matrix: (Units=GPa)
#
#
# Indices 1 2 3 4 5 6 
#
# 1 129.8828 52.8178 57.1180 0.0000 0.0000 0.0000
# 2 52.8178 158.9878 75.8488 0.0000 0.0000 0.0000
# 3 57.1180 75.8488 178.8096 0.0000 0.0000 0.0000
# 4 0.0000 0.0000 0.0000 52.4691 0.0000 0.0000
# 5 0.0000 0.0000 0.0000 0.0000 42.1446 0.0000
# 6 0.0000 0.0000 0.0000 0.0000 0.0000 40.5440
#
#
#
# Elastic Compliance Matrix: (Units=1/GPa)
#
#
# Indices 1 2 3 4 5 6 
#
# 1 0.009506 -0.002143 -0.002128 0.000000 0.000000 0.000000
# 2 -0.002143 0.008369 -0.002865 0.000000 0.000000 0.000000
# 3 -0.002128 -0.002865 0.007488 0.000000 0.000000 0.000000
# 4 0.000000 0.000000 0.000000 0.019059 0.000000 0.000000
# 5 0.000000 0.000000 0.000000 0.000000 0.023728 0.000000
# 6 0.000000 0.000000 0.000000 0.000000 0.000000 0.024665
#
#
# Mechanical properties :
#
#
# Convention : Reuss Voigt Hill
#
# Bulk Modulus (GPa) = 90.16598 93.24993 91.70795
# Shear Modulus (GPa) = 45.13329 45.82458 45.47893
#
# Velocity S-wave (km/s) = 4.45086 4.48482 4.46787
# Velocity P-wave (km/s) = 8.12340 8.23091 8.17733
#
# Compressibility (1/GPa) = 0.01109066
#
# Stress axis : x y z
#
# Youngs Moduli (GPa) = 105.19215 119.49238 133.55425
#
# Poissons Ratio (x) = 0.25609 0.28415
# Poissons Ratio (y) = 0.22544 0.38268
# Poissons Ratio (z) = 0.22380 0.34238
#
# Static dielectric constant tensor:
#      x y z
#    x 1.907420 0.000000 0.000000 
#    y 0.000000 1.924430 0.000000 
#    z 0.000000 0.000000 1.793520 
# 
# From -- ./inp_files/22002.got.cif
#   From: 2010.05.17/outbox.cif.g08.bks.cpg/sg21_12_cif.got.tgz:22002.got - 2010.06.03 23:14:55.
