data_PCOD9325045
_publ_section_title
;
Structure prediction by ZEFSAII (Michael W. Deem and Ramdas Pophale) SiO2 
 PCOD9325045
Probable space group: C 2 2 2
;
_chemical_formula_sum "Si O2"
_cell_formula_units_Z 22
_cell_length_a 13.208742
_cell_length_b 5.262529
_cell_length_c 12.752793
_cell_angle_alpha 90.000000
_cell_angle_beta 90.000000
_cell_angle_gamma 90.000000
_cell_volume 886.464340
_symmetry_space_group_name_H-M "C 2 2 2"
_symmetry_group_IT_number 21
_symmetry_cell_setting 'orthorhombic'
loop_
_space_group_symop_operation_xyz
x,y,z
-x,-y,z
x,-y,-z
-x,y,-z
1/2+x,1/2+y,z
1/2-x,1/2-y,z
1/2+x,1/2-y,-z
1/2-x,1/2+y,-z
loop_
_atom_site_type_symbol
_atom_site_label
_atom_site_fract_x
_atom_site_fract_y
_atom_site_fract_z
Si Si1 0.367891 0.251586 0.570998
Si Si2 0.000000 0.000000 0.000000
Si Si3 0.500000 0.000000 0.736506
Si Si4 0.847186 0.379403 0.109733
O O1 0.383101 0.500000 0.500000
O O2 0.250000 0.250000 0.605634
O O3 0.379434 0.000000 0.500000
O O4 0.448854 0.214098 0.663804
O O5 0.929613 0.174429 0.072526
O O6 0.594435 0.068507 0.812332
O O7 0.750000 0.250000 0.159022
O O8 0.812912 0.500000 0.000000
#
# Coordination Sequence:
#
# PCOD9325045 Si02
#       4
#     8   2   4   8
#     4  10  24  48  73 107 153 196 248 318 382 447
#     4  12  22  44  72  92 150 200 242 304 368 420
#     4  12  24  44  76 112 144 198 262 302 384 456
#     4  12  25  45  70 109 150 198 250 306 367 447
#
# _framework density 24.817692999999998
#
# number of rings (size 3 to 8) (size 9 to 14) (size 15 to 20)
#    0.000    0.727    5.455    1.636    0.000    5.818 
#    0.000    5.455    0.000    0.000    0.000    0.000 
#    0.000    0.000    0.000    0.000    0.000    0.000 
#
# Total GULP energy -61559.535619 kJ/mol
# GULP energy per Si atom -5596.321420 kJ/mol
# Density = 2.476121 g / cm^3
# Si number density = 24.817693 Si / 1000 Ang^3
#
#
#
# Elastic Constant Matrix: (Units=GPa)
#
#
# Indices 1 2 3 4 5 6 
#
# 1 207.9255 47.3365 70.9112 0.0000 0.0000 0.0000
# 2 47.3365 122.9637 48.6036 0.0000 0.0000 0.0000
# 3 70.9112 48.6036 146.1420 0.0000 0.0000 0.0000
# 4 0.0000 0.0000 0.000013872.9211 0.0000 0.0000
# 5 0.0000 0.0000 0.0000 0.0000 -80.0889 0.0000
# 6 0.0000 0.0000 0.0000 0.0000 0.0000 46.2788
#
#
#
# Elastic Compliance Matrix: (Units=1/GPa)
#
#
# Indices 1 2 3 4 5 6 
#
# 1 0.005944 -0.001322 -0.002445 0.000000 0.000000 0.000000
# 2 -0.001322 0.009657 -0.002570 0.000000 0.000000 0.000000
# 3 -0.002445 -0.002570 0.008884 0.000000 0.000000 0.000000
# 4 0.000000 0.000000 0.000000 0.000072 0.000000 0.000000
# 5 0.000000 0.000000 0.000000 0.000000 -0.012486 0.000000
# 6 0.000000 0.000000 0.000000 0.000000 0.000000 0.021608
#
#
# Mechanical properties :
#
#
# Convention : Reuss Voigt Hill
#
# Bulk Modulus (GPa) = 84.66462 90.08154 87.37308
# Shear Modulus (GPa) = 99.42315 2788.50087 1443.96201
#
# Velocity S-wave (km/s) = 6.33627 33.55642 24.14727
# Velocity P-wave (km/s) = 9.36589 39.21420 28.50854
#
# Compressibility (1/GPa) = 0.01181131
#
# Stress axis : x y z
#
# Youngs Moduli (GPa) = 168.23498 103.54768 112.56651
#
# Poissons Ratio (x) = 0.13689 0.27517
# Poissons Ratio (y) = 0.22241 0.28934
# Poissons Ratio (z) = 0.41125 0.26616
#
# Static dielectric constant tensor:
#      x y z
#    x -5.236320 0.000000 0.000000 
#    y 0.000000 2.014560 0.000000 
#    z 0.000000 0.000000 2.068820 
# 
# From -- ./inp_files/24560.got.cif
#   From: 2010.05.17/outbox.cif.g08.bks.cpg/sg21_13_cif.got.tgz:24560.got - 2010.06.03 23:14:55.
