data_PCOD9325992
_publ_section_title
;
Structure prediction by ZEFSAII (Michael W. Deem and Ramdas Pophale) SiO2 
 PCOD9325992
Probable space group: F 2 2 2
;
_chemical_formula_sum "Si O2"
_cell_formula_units_Z 108
_cell_length_a 21.844966
_cell_length_b 28.160166
_cell_length_c 7.123957
_cell_angle_alpha 90.000000
_cell_angle_beta 90.000000
_cell_angle_gamma 90.000000
_cell_volume 4382.358206
_symmetry_space_group_name_H-M "F 2 2 2"
_symmetry_group_IT_number 22
_symmetry_cell_setting 'orthorhombic'
loop_
_space_group_symop_operation_xyz
x,y,z
-x,-y,z
x,-y,-z
-x,y,-z
x,1/2+y,1/2+z
-x,1/2-y,1/2+z
x,1/2-y,1/2-z
-x,1/2+y,1/2-z
1/2+x,y,1/2+z
1/2-x,-y,1/2+z
1/2+x,-y,1/2-z
1/2-x,y,1/2-z
1/2+x,1/2+y,z
1/2-x,1/2-y,z
1/2+x,1/2-y,-z
1/2-x,1/2+y,-z
loop_
_atom_site_type_symbol
_atom_site_label
_atom_site_fract_x
_atom_site_fract_y
_atom_site_fract_z
Si Si1 0.569849 0.301618 0.975692
Si Si2 0.123841 0.894903 0.581002
Si Si3 0.460508 0.455223 0.188999
Si Si4 0.313997 0.340595 0.068428
Si Si5 0.242911 0.070926 0.473482
Si Si6 0.250000 0.250000 0.250000
Si Si7 0.343048 0.000000 0.500000
Si Si8 0.570166 0.304735 0.527907
O O1 0.624364 0.333763 0.048927
O O2 0.579696 0.300929 0.751550
O O3 0.578386 0.248117 0.047086
O O4 0.500000 0.316749 0.000000
O O5 0.060053 0.915497 0.662788
O O6 0.163015 0.872221 0.753879
O O7 0.170415 0.932096 0.488479
O O8 0.109168 0.848704 0.459047
O O9 0.500000 0.500000 0.262332
O O10 0.500000 0.440539 0.000000
O O11 0.392579 0.473917 0.132310
O O12 0.262117 0.374416 0.986976
O O13 0.289232 0.288247 0.127969
O O14 0.250000 0.058169 0.250000
O O15 0.294776 0.039340 0.571456
O O16 0.500000 0.316329 0.500000
#
# Coordination Sequence:
#
# PCOD9325992 Si02
#       8
#    16  16  16  16  16   4   8  16
#     4   9  18  32  50  79 110 142 186 226 270 333
#     4  10  17  33  49  74 107 135 176 220 286 334
#     4   9  19  32  52  77  99 137 176 241 283 324
#     4  10  18  27  49  79 107 135 173 226 284 327
#     4  10  18  31  50  74 100 138 169 226 283 329
#     4  12  16  28  48  84 116 138 172 234 284 336
#     4  10  17  34  50  70 101 132 176 224 288 324
#     4   9  18  32  51  74 112 148 177 220 276 337
#
# _framework density 24.644265000000001
#
# number of rings (size 3 to 8) (size 9 to 14) (size 15 to 20)
#    0.000    2.519    5.185    1.778    0.000    2.370 
#    0.000    1.481    0.000    0.000    0.000    0.000 
#    0.000    0.000    0.000    0.000    0.000    0.000 
#
# Total GULP energy -150397.153300 kJ/mol
# GULP energy per Si atom -5570.264937 kJ/mol
# Density = 2.458817 g / cm^3
# Si number density = 24.644265 Si / 1000 Ang^3
#
#
#
# Elastic Constant Matrix: (Units=GPa)
#
#
# Indices 1 2 3 4 5 6 
#
# 1 172.7627 62.7228 19.4333 0.0005 -0.0020 0.0007
# 2 62.7228 113.8448 16.6902 -0.0050 0.0020 0.0016
# 3 19.4333 16.6902 88.7208 -0.0118 0.0018 0.0044
# 4 0.0005 -0.0050 -0.0118 -42.2593 0.0027 0.0042
# 5 -0.0020 0.0020 0.0018 0.0027 20.3378 -0.0017
# 6 0.0007 0.0016 0.0044 0.0042 -0.0017 56.4692
#
#
#
# Elastic Compliance Matrix: (Units=1/GPa)
#
#
# Indices 1 2 3 4 5 6 
#
# 1 0.007300 -0.003895 -0.000866 0.000001 0.000001 0.000000
# 2 -0.003895 0.011111 -0.001237 -0.000001 -0.000001 0.000000
# 3 -0.000866 -0.001237 0.011694 -0.000003 -0.000001 -0.000001
# 4 0.000001 -0.000001 -0.000003 -0.023663 0.000003 0.000002
# 5 0.000001 -0.000001 -0.000001 0.000003 0.049170 0.000001
# 6 0.000000 0.000000 -0.000001 0.000002 0.000001 0.017709
#
#
# Mechanical properties :
#
#
# Convention : Reuss Voigt Hill
#
# Bulk Modulus (GPa) = 55.22321 63.66900 59.44611
# Shear Modulus (GPa) = 54.73330 25.34165 40.03748
#
# Velocity S-wave (km/s) = 4.71779 3.21019 4.03503
# Velocity P-wave (km/s) = 7.22036 6.29537 6.77367
#
# Compressibility (1/GPa) = 0.01810833
#
# Stress axis : x y z
#
# Youngs Moduli (GPa) = 136.99069 90.00011 85.51555
#
# Poissons Ratio (x) = 0.35053 0.07408
# Poissons Ratio (y) = 0.53355 0.10579
# Poissons Ratio (z) = 0.11867 0.11134
#
# Static dielectric constant tensor:
#      x y z
#    x 2.027580 0.000010 0.000030 
#    y 0.000010 2.157140 -0.000020 
#    z 0.000030 -0.000020 2.167970 
# 
# From -- ./inp_files/23127.got.cif
#   From: 2010.05.17/outbox.cif.g08.bks.cpg/sg22_12_cif.got.tgz:23127.got - 2010.06.03 23:40:54.
