data_PCOD9325563
_publ_section_title
;
Structure prediction by ZEFSAII (Michael W. Deem and Ramdas Pophale) SiO2 
 PCOD9325563
Probable space group: C 2 2 2
;
_chemical_formula_sum "Si O2"
_cell_formula_units_Z 40
_cell_length_a 14.543581
_cell_length_b 14.725854
_cell_length_c 8.284121
_cell_angle_alpha 90.000000
_cell_angle_beta 90.000000
_cell_angle_gamma 90.000000
_cell_volume 1774.182446
_symmetry_space_group_name_H-M "C 2 2 2"
_symmetry_group_IT_number 21
_symmetry_cell_setting 'orthorhombic'
loop_
_space_group_symop_operation_xyz
x,y,z
-x,-y,z
x,-y,-z
-x,y,-z
1/2+x,1/2+y,z
1/2-x,1/2-y,z
1/2+x,1/2-y,-z
1/2-x,1/2+y,-z
loop_
_atom_site_type_symbol
_atom_site_label
_atom_site_fract_x
_atom_site_fract_y
_atom_site_fract_z
Si Si1 0.817700 0.666266 0.792334
Si Si2 0.018560 0.711545 0.686457
Si Si3 0.525686 0.398230 0.188157
Si Si4 0.707273 0.849524 0.168691
Si Si5 0.702358 0.523565 0.677846
O O1 0.750000 0.750000 0.752814
O O2 0.794352 0.584292 0.671903
O O3 0.924183 0.691634 0.780168
O O4 0.801021 0.637995 0.976978
O O5 0.106070 0.657426 0.752544
O O6 0.000000 0.693189 0.500000
O O7 0.026448 0.820417 0.714185
O O8 0.500000 0.500000 0.235659
O O9 0.633876 0.408884 0.225050
O O10 0.500000 0.385039 0.000000
O O11 0.750000 0.750000 0.198455
O O12 0.770952 0.930222 0.234733
O O13 0.667703 0.500000 0.500000
#
# Coordination Sequence:
#
# PCOD9325563 Si02
#       5
#     8   8   8   8   8
#     4  11  24  46  74 101 145 193 244 295 360 441
#     4  12  26  44  72 106 145 188 241 304 363 427
#     4  11  26  41  70 101 146 184 243 289 356 434
#     4  11  26  45  73 102 146 194 242 292 365 440
#     4  12  27  44  72 108 148 187 240 304 369 423
#
# _framework density 22.545594000000001
#
# number of rings (size 3 to 8) (size 9 to 14) (size 15 to 20)
#    0.000    0.600    2.000    4.800   14.000    2.400 
#    0.000    4.000    0.000    0.000    0.000    0.000 
#    0.000    0.000    0.000    0.000    0.000    0.000 
#
# Total GULP energy -111845.139249 kJ/mol
# GULP energy per Si atom -5592.256962 kJ/mol
# Density = 2.249428 g / cm^3
# Si number density = 22.545594 Si / 1000 Ang^3
#
#
#
# Elastic Constant Matrix: (Units=GPa)
#
#
# Indices 1 2 3 4 5 6 
#
# 1 92.8336 0.7505 34.1815 0.0000 0.0000 0.0000
# 2 0.7505 51.8360 28.5099 0.0000 0.0000 0.0000
# 3 34.1815 28.5099 102.2680 0.0000 0.0000 0.0000
# 4 0.0000 0.0000 0.0000 27.0066 0.0000 0.0000
# 5 0.0000 0.0000 0.0000 0.0000 34.3149 0.0000
# 6 0.0000 0.0000 0.0000 0.0000 0.0000 35.8602
#
#
#
# Elastic Compliance Matrix: (Units=1/GPa)
#
#
# Indices 1 2 3 4 5 6 
#
# 1 0.012554 0.002511 -0.004896 0.000000 0.000000 0.000000
# 2 0.002511 0.023288 -0.007331 0.000000 0.000000 0.000000
# 3 -0.004896 -0.007331 0.013459 0.000000 0.000000 0.000000
# 4 0.000000 0.000000 0.000000 0.037028 0.000000 0.000000
# 5 0.000000 0.000000 0.000000 0.000000 0.029142 0.000000
# 6 0.000000 0.000000 0.000000 0.000000 0.000000 0.027886
#
#
# Mechanical properties :
#
#
# Convention : Reuss Voigt Hill
#
# Bulk Modulus (GPa) = 33.48095 41.53571 37.50833
# Shear Modulus (GPa) = 28.94439 31.66937 30.30688
#
# Velocity S-wave (km/s) = 3.58692 3.75197 3.67038
# Velocity P-wave (km/s) = 5.66015 6.10186 5.88515
#
# Compressibility (1/GPa) = 0.02986773
#
# Stress axis : x y z
#
# Youngs Moduli (GPa) = 79.65303 42.94149 74.30243
#
# Poissons Ratio (x) = -0.10783 0.36380
# Poissons Ratio (y) = -0.20002 0.54474
# Poissons Ratio (z) = 0.39000 0.31482
#
# Static dielectric constant tensor:
#      x y z
#    x 2.074040 0.000000 0.000000 
#    y 0.000000 1.883620 0.000000 
#    z 0.000000 0.000000 1.812320 
# 
# From -- ./inp_files/14500.got.cif
#   From: 2010.05.17/outbox.cif.g08.bks.cpg/sg21_8_cif.got.tgz:14500.got - 2010.06.03 23:14:55.
