data_PCOD9325179
_publ_section_title
;
Structure prediction by ZEFSAII (Michael W. Deem and Ramdas Pophale) SiO2 
 PCOD9325179
Probable space group: C 2 2 2
;
_chemical_formula_sum "Si O2"
_cell_formula_units_Z 22
_cell_length_a 31.252588
_cell_length_b 5.902812
_cell_length_c 5.107100
_cell_angle_alpha 90.000000
_cell_angle_beta 90.000000
_cell_angle_gamma 90.000000
_cell_volume 942.148367
_symmetry_space_group_name_H-M "C 2 2 2"
_symmetry_group_IT_number 21
_symmetry_cell_setting 'orthorhombic'
loop_
_space_group_symop_operation_xyz
x,y,z
-x,-y,z
x,-y,-z
-x,y,-z
1/2+x,1/2+y,z
1/2-x,1/2-y,z
1/2+x,1/2-y,-z
1/2-x,1/2+y,-z
loop_
_atom_site_type_symbol
_atom_site_label
_atom_site_fract_x
_atom_site_fract_y
_atom_site_fract_z
Si Si1 0.142310 0.500000 0.000000
Si Si2 0.561251 0.850518 0.760739
Si Si3 0.500000 0.500000 0.500000
Si Si4 0.797030 0.153767 0.739750
O O1 0.110295 0.321955 0.856006
O O2 0.171593 0.639043 0.802521
O O3 0.531570 0.642842 0.685836
O O4 0.562331 0.000000 0.500000
O O5 0.543991 0.000000 0.000000
O O6 0.750000 0.250000 0.677371
O O7 0.811939 0.000000 0.500000
O O8 0.793734 0.000000 0.000000
#
# Coordination Sequence:
#
# PCOD9325179 Si02
#       4
#     4   8   2   8
#     4  10  28  54  73 118 168 202 264 333 378 476
#     4  10  27  49  77 115 158 202 267 333 382 480
#     4  12  26  54  88 112 152 226 254 330 424 448
#     4  12  27  46  80 114 157 217 263 317 393 464
#
# _framework density 23.350884000000001
#
# number of rings (size 3 to 8) (size 9 to 14) (size 15 to 20)
#    1.091    0.000    1.818    1.636    5.091    8.727 
#    0.000    3.636    0.000    0.000    0.000    0.000 
#    0.000    0.000    0.000    0.000    0.000    0.000 
#
# Total GULP energy -61557.023907 kJ/mol
# GULP energy per Si atom -5596.093082 kJ/mol
# Density = 2.329774 g / cm^3
# Si number density = 23.350884 Si / 1000 Ang^3
#
#
#
# Elastic Constant Matrix: (Units=GPa)
#
#
# Indices 1 2 3 4 5 6 
#
# 1 194.5095 86.6379 46.5034 0.0000 0.0000 0.0000
# 2 86.6379 106.3327 56.8237 0.0000 0.0000 0.0000
# 3 46.5034 56.8237 160.0904 0.0000 0.0000 0.0000
# 4 0.0000 0.0000 0.0000 62.5972 0.0000 0.0000
# 5 0.0000 0.0000 0.0000 0.0000 -13.9891 0.0000
# 6 0.0000 0.0000 0.0000 0.0000 0.0000 -121.5505
#
#
#
# Elastic Compliance Matrix: (Units=1/GPa)
#
#
# Indices 1 2 3 4 5 6 
#
# 1 0.008070 -0.006568 -0.000013 0.000000 0.000000 0.000000
# 2 -0.006568 0.016952 -0.004109 0.000000 0.000000 0.000000
# 3 -0.000013 -0.004109 0.007709 0.000000 0.000000 0.000000
# 4 0.000000 0.000000 0.000000 0.015975 0.000000 0.000000
# 5 0.000000 0.000000 0.000000 0.000000 -0.071484 0.000000
# 6 0.000000 0.000000 0.000000 0.000000 0.000000 -0.008227
#
#
# Mechanical properties :
#
#
# Convention : Reuss Voigt Hill
#
# Bulk Modulus (GPa) = 88.10384 93.42916 90.76650
# Shear Modulus (GPa) = -855.92608 3.47603 -426.22502
#
# Velocity S-wave (km/s) = -19.16626 1.22141 -13.52504
# Velocity P-wave (km/s) = 21.25986 6.48745 14.31598
#
# Compressibility (1/GPa) = 0.01135024
#
# Stress axis : x y z
#
# Youngs Moduli (GPa) = 123.91825 58.98975 129.72382
#
# Poissons Ratio (x) = 0.38747 0.00165
# Poissons Ratio (y) = 0.81394 0.53305
# Poissons Ratio (z) = 0.00158 0.24240
#
# Static dielectric constant tensor:
#      x y z
#    x 1.899380 0.000000 0.000000 
#    y 0.000000 1.882310 0.000000 
#    z 0.000000 0.000000 1.858880 
# 
# From -- ./inp_files/7623.got.cif
#   From: 2010.05.17/outbox.cif.g08.bks.cpg/sg21_4_cif.got.tgz:7623.got - 2010.06.03 23:14:55.
