data_PCOD9325338
_publ_section_title
;
Structure prediction by ZEFSAII (Michael W. Deem and Ramdas Pophale) SiO2 
 PCOD9325338
Probable space group: C 2 2 2
;
_chemical_formula_sum "Si O2"
_cell_formula_units_Z 56
_cell_length_a 9.677958
_cell_length_b 21.625702
_cell_length_c 14.007945
_cell_angle_alpha 90.000000
_cell_angle_beta 90.000000
_cell_angle_gamma 90.000000
_cell_volume 2931.759729
_symmetry_space_group_name_H-M "C 2 2 2"
_symmetry_group_IT_number 21
_symmetry_cell_setting 'orthorhombic'
loop_
_space_group_symop_operation_xyz
x,y,z
-x,-y,z
x,-y,-z
-x,y,-z
1/2+x,1/2+y,z
1/2-x,1/2-y,z
1/2+x,1/2-y,-z
1/2-x,1/2+y,-z
loop_
_atom_site_type_symbol
_atom_site_label
_atom_site_fract_x
_atom_site_fract_y
_atom_site_fract_z
Si Si1 0.019315 0.156778 0.749294
Si Si2 0.738638 0.922999 0.691529
Si Si3 0.416775 0.759033 0.098604
Si Si4 0.915551 0.744719 0.401490
Si Si5 0.157456 0.573815 0.511601
Si Si6 0.723645 0.567372 0.279711
Si Si7 0.475877 0.139717 0.242558
O O1 0.170828 0.128657 0.741410
O O2 0.020477 0.202694 0.838637
O O3 0.972231 0.196308 0.657229
O O4 0.918792 0.098032 0.750329
O O5 0.749108 0.908040 0.578796
O O6 0.580527 0.911740 0.718397
O O7 0.777819 0.993036 0.718176
O O8 0.250000 0.750000 0.088788
O O9 0.454916 0.820660 0.158625
O O10 0.500000 0.761054 0.000000
O O11 0.750000 0.750000 0.418212
O O12 0.943453 0.688476 0.327526
O O13 0.000000 0.738633 0.500000
O O14 0.146620 0.500000 0.500000
O O15 0.230233 0.585496 0.611961
O O16 0.000000 0.597480 0.500000
O O17 0.838848 0.601856 0.216093
#
# Coordination Sequence:
#
# PCOD9325338 Si02
#       7
#     8   8   8   8   8   8   8
#     4  11  25  42  62  94 128 159 213 259 325 380
#     4  11  22  38  63  90 135 174 211 261 305 374
#     4  11  26  47  73  97 119 157 208 267 328 387
#     4  11  26  39  58  87 125 175 218 270 319 359
#     4   9  18  31  51  83 122 176 222 246 280 342
#     4  11  22  38  62  95 129 178 214 255 308 370
#     4  11  23  40  65  93 125 163 219 254 317 383
#
# _framework density 19.101157000000001
#
# number of rings (size 3 to 8) (size 9 to 14) (size 15 to 20)
#    0.000    1.286    4.286    0.857    8.000    0.000 
#    0.000    2.143    0.000    5.143    0.000    0.000 
#    0.000    0.000    0.000    0.000    0.000    0.000 
#
# Total GULP energy -156260.660668 kJ/mol
# GULP energy per Si atom -5580.737881 kJ/mol
# Density = 1.905768 g / cm^3
# Si number density = 19.101157 Si / 1000 Ang^3
#
#
#
# Elastic Constant Matrix: (Units=GPa)
#
#
# Indices 1 2 3 4 5 6 
#
# 1 67.6887 7.0015 31.8752 0.0000 0.0000 0.0000
# 2 7.0015 88.6330 29.1299 0.0000 0.0000 0.0000
# 3 31.8752 29.1299 100.6275 0.0000 0.0000 0.0000
# 4 0.0000 0.0000 0.0000 16.6105 0.0000 0.0000
# 5 0.0000 0.0000 0.0000 0.0000 21.7129 0.0000
# 6 0.0000 0.0000 0.0000 0.0000 0.0000 40.0548
#
#
#
# Elastic Compliance Matrix: (Units=1/GPa)
#
#
# Indices 1 2 3 4 5 6 
#
# 1 0.017382 0.000482 -0.005646 0.000000 0.000000 0.000000
# 2 0.000482 0.012482 -0.003766 0.000000 0.000000 0.000000
# 3 -0.005646 -0.003766 0.012816 0.000000 0.000000 0.000000
# 4 0.000000 0.000000 0.000000 0.060203 0.000000 0.000000
# 5 0.000000 0.000000 0.000000 0.000000 0.046055 0.000000
# 6 0.000000 0.000000 0.000000 0.000000 0.000000 0.024966
#
#
# Mechanical properties :
#
#
# Convention : Reuss Voigt Hill
#
# Bulk Modulus (GPa) = 40.28739 43.66249 41.97494
# Shear Modulus (GPa) = 24.99531 28.27182 26.63356
#
# Velocity S-wave (km/s) = 3.62135 3.85139 3.73814
# Velocity P-wave (km/s) = 6.21474 6.53344 6.37608
#
# Compressibility (1/GPa) = 0.02482166
#
# Stress axis : x y z
#
# Youngs Moduli (GPa) = 57.53006 80.11435 78.02595
#
# Poissons Ratio (x) = -0.03865 0.44051
# Poissons Ratio (y) = -0.02775 0.29386
# Poissons Ratio (z) = 0.32480 0.30173
#
# Static dielectric constant tensor:
#      x y z
#    x 1.662240 0.000000 0.000000 
#    y 0.000000 1.672280 0.000000 
#    z 0.000000 0.000000 1.651490 
# 
# From -- ./inp_files/30730.got.cif
#   From: 2010.05.17/outbox.cif.g08.bks.cpg/sg21_16_cif.got.tgz:30730.got - 2010.06.03 23:14:55.
