data_PCOD9325402
_publ_section_title
;
Structure prediction by ZEFSAII (Michael W. Deem and Ramdas Pophale) SiO2 
 PCOD9325402
Probable space group: C 2 2 2
;
_chemical_formula_sum "Si O2"
_cell_formula_units_Z 24
_cell_length_a 9.124281
_cell_length_b 11.510072
_cell_length_c 8.930538
_cell_angle_alpha 90.000000
_cell_angle_beta 90.000000
_cell_angle_gamma 90.000000
_cell_volume 937.895204
_symmetry_space_group_name_H-M "C 2 2 2"
_symmetry_group_IT_number 21
_symmetry_cell_setting 'orthorhombic'
loop_
_space_group_symop_operation_xyz
x,y,z
-x,-y,z
x,-y,-z
-x,y,-z
1/2+x,1/2+y,z
1/2-x,1/2-y,z
1/2+x,1/2-y,-z
1/2-x,1/2+y,-z
loop_
_atom_site_type_symbol
_atom_site_label
_atom_site_fract_x
_atom_site_fract_y
_atom_site_fract_z
Si Si1 0.175767 0.985135 0.826927
Si Si2 0.452289 0.135864 0.172389
Si Si3 0.880487 0.182531 0.386547
O O1 0.205533 0.087581 0.710874
O O2 0.278000 0.875365 0.793607
O O3 0.000000 0.000000 0.825746
O O4 0.217085 0.000000 0.000000
O O5 0.531153 0.229841 0.277264
O O6 0.500000 0.000000 0.195029
O O7 0.500000 0.165672 0.000000
O O8 0.750000 0.250000 0.467585
O O9 0.000000 0.133118 0.500000
#
# Coordination Sequence:
#
# PCOD9325402 Si02
#       3
#     8   8   8
#     4  11  25  47  75 113 143 192 258 319 373 446
#     4  11  22  48  79 107 145 196 256 316 378 441
#     4  12  28  48  73 112 153 202 251 305 392 464
#
# _framework density 25.589212
#
# number of rings (size 3 to 8) (size 9 to 14) (size 15 to 20)
#    0.000    0.667    6.667    0.000    9.333    1.333 
#    0.000    0.000    0.000    0.000    0.000    0.000 
#    0.000    0.000    0.000    0.000    0.000    0.000 
#
# Total GULP energy -66967.905917 kJ/mol
# GULP energy per Si atom -5580.658826 kJ/mol
# Density = 2.553097 g / cm^3
# Si number density = 25.589212 Si / 1000 Ang^3
#
#
#
# Elastic Constant Matrix: (Units=GPa)
#
#
# Indices 1 2 3 4 5 6 
#
# 1 188.2812 56.5443 47.9841 0.0000 0.0000 0.0000
# 2 56.5443 130.4344 76.3431 0.0000 0.0000 0.0000
# 3 47.9841 76.3431 137.3827 0.0000 0.0000 0.0000
# 4 0.0000 0.0000 0.0000 30.3955 0.0000 0.0000
# 5 0.0000 0.0000 0.0000 0.0000 -2.4051 0.0000
# 6 0.0000 0.0000 0.0000 0.0000 0.0000 39.3154
#
#
#
# Elastic Compliance Matrix: (Units=1/GPa)
#
#
# Indices 1 2 3 4 5 6 
#
# 1 0.006197 -0.002104 -0.000995 0.000000 0.000000 0.000000
# 2 -0.002104 0.012076 -0.005976 0.000000 0.000000 0.000000
# 3 -0.000995 -0.005976 0.010947 0.000000 0.000000 0.000000
# 4 0.000000 0.000000 0.000000 0.032900 0.000000 0.000000
# 5 0.000000 0.000000 0.000000 0.000000 -0.415785 0.000000
# 6 0.000000 0.000000 0.000000 0.000000 0.000000 0.025435
#
#
# Mechanical properties :
#
#
# Convention : Reuss Voigt Hill
#
# Bulk Modulus (GPa) = 90.33131 90.87127 90.60129
# Shear Modulus (GPa) = -16.31910 31.80961 7.74525
#
# Velocity S-wave (km/s) = -2.52808 3.52957 1.74165
# Velocity P-wave (km/s) = 5.18224 7.22490 6.28708
#
# Compressibility (1/GPa) = 0.01107036
#
# Stress axis : x y z
#
# Youngs Moduli (GPa) = 161.37742 82.80562 91.34553
#
# Poissons Ratio (x) = 0.17420 0.09091
# Poissons Ratio (y) = 0.33950 0.54589
# Poissons Ratio (z) = 0.16061 0.49485
#
# Static dielectric constant tensor:
#      x y z
#    x 1.965570 0.000000 0.000000 
#    y 0.000000 2.054060 0.000000 
#    z 0.000000 0.000000 2.008810 
# 
# From -- ./inp_files/21617.got.cif
#   From: 2010.05.17/outbox.cif.g08.bks.cpg/sg21_11_cif.got.tgz:21617.got - 2010.06.03 23:14:55.
