data_PCOD9325768
_publ_section_title
;
Structure prediction by ZEFSAII (Michael W. Deem and Ramdas Pophale) SiO2 
 PCOD9325768
Probable space group: C 2 2 2
;
_chemical_formula_sum "Si O2"
_cell_formula_units_Z 40
_cell_length_a 8.807894
_cell_length_b 16.689433
_cell_length_c 11.294962
_cell_angle_alpha 90.000000
_cell_angle_beta 90.000000
_cell_angle_gamma 90.000000
_cell_volume 1660.345372
_symmetry_space_group_name_H-M "C 2 2 2"
_symmetry_group_IT_number 21
_symmetry_cell_setting 'orthorhombic'
loop_
_space_group_symop_operation_xyz
x,y,z
-x,-y,z
x,-y,-z
-x,y,-z
1/2+x,1/2+y,z
1/2-x,1/2-y,z
1/2+x,1/2-y,-z
1/2-x,1/2+y,-z
loop_
_atom_site_type_symbol
_atom_site_label
_atom_site_fract_x
_atom_site_fract_y
_atom_site_fract_z
Si Si1 0.998156 0.830788 0.744956
Si Si2 0.511482 0.165010 0.128791
Si Si3 0.250000 0.250000 0.597160
Si Si4 0.000000 0.369460 0.500000
Si Si5 0.707254 0.077485 0.710445
Si Si6 0.191591 0.054105 0.879389
O O1 0.014284 0.739631 0.786598
O O2 0.850224 0.817103 0.665527
O O3 0.955680 0.891235 0.851949
O O4 0.151151 0.863411 0.685582
O O5 0.382666 0.104743 0.171448
O O6 0.666960 0.115571 0.120842
O O7 0.500000 0.201228 0.000000
O O8 0.130850 0.307270 0.535038
O O9 0.082087 0.419395 0.394145
O O10 0.782037 0.996119 0.757649
O O11 0.186057 0.000000 0.000000
#
# Coordination Sequence:
#
# PCOD9325768 Si02
#       6
#     8   8   4   4   8   8
#     4  12  26  48  75 117 151 205 266 317 381 467
#     4  12  25  47  76 110 155 206 259 311 379 473
#     4  12  24  48  78 104 152 190 268 324 376 458
#     4  12  26  50  79 112 151 202 260 330 399 458
#     4  12  27  46  79 113 154 202 258 321 395 461
#     4  12  26  48  74 115 165 209 250 327 397 469
#
# _framework density 24.091372
#
# number of rings (size 3 to 8) (size 9 to 14) (size 15 to 20)
#    0.000    0.000    6.000    3.000    2.800    2.400 
#    0.000    8.000    0.000    7.200    0.000    0.000 
#    0.000    0.000    0.000    0.000    0.000    0.000 
#
# Total GULP energy -111670.813143 kJ/mol
# GULP energy per Si atom -5583.540657 kJ/mol
# Density = 2.403654 g / cm^3
# Si number density = 24.091372 Si / 1000 Ang^3
#
#
#
# Elastic Constant Matrix: (Units=GPa)
#
#
# Indices 1 2 3 4 5 6 
#
# 1 128.4719 27.9009 30.8155 0.0000 0.0000 0.0000
# 2 27.9009 86.9230 22.2446 0.0000 0.0000 0.0000
# 3 30.8155 22.2446 69.7026 0.0000 0.0000 0.0000
# 4 0.0000 0.0000 0.0000 -3.2672 0.0000 0.0000
# 5 0.0000 0.0000 0.0000 0.0000 38.3533 0.0000
# 6 0.0000 0.0000 0.0000 0.0000 0.0000 -25.5600
#
#
#
# Elastic Compliance Matrix: (Units=1/GPa)
#
#
# Indices 1 2 3 4 5 6 
#
# 1 0.009029 -0.002043 -0.003339 0.000000 0.000000 0.000000
# 2 -0.002043 0.012990 -0.003242 0.000000 0.000000 0.000000
# 3 -0.003339 -0.003242 0.016858 0.000000 0.000000 0.000000
# 4 0.000000 0.000000 0.000000 -0.306077 0.000000 0.000000
# 5 0.000000 0.000000 0.000000 0.000000 0.026073 0.000000
# 6 0.000000 0.000000 0.000000 0.000000 0.000000 -0.039124
#
#
# Mechanical properties :
#
#
# Convention : Reuss Voigt Hill
#
# Bulk Modulus (GPa) = 46.23999 49.66881 47.95440
# Shear Modulus (GPa) = -19.54712 15.51435 -2.01638
#
# Velocity S-wave (km/s) = -2.85155 2.54043 -0.91585
# Velocity P-wave (km/s) = 2.89714 5.40986 4.33936
#
# Compressibility (1/GPa) = 0.02162630
#
# Stress axis : x y z
#
# Youngs Moduli (GPa) = 110.75941 76.98200 59.32008
#
# Poissons Ratio (x) = 0.15731 0.19809
# Poissons Ratio (y) = 0.22633 0.19233
# Poissons Ratio (z) = 0.36987 0.24959
#
# Static dielectric constant tensor:
#      x y z
#    x 1.879770 0.000000 0.000000 
#    y 0.000000 1.868980 0.000000 
#    z 0.000000 0.000000 1.943100 
# 
# From -- ./inp_files/22335.got.cif
#   From: 2010.05.17/outbox.cif.g08.bks.cpg/sg21_12_cif.got.tgz:22335.got - 2010.06.03 23:14:55.
