data_PCOD9325244
_publ_section_title
;
Structure prediction by ZEFSAII (Michael W. Deem and Ramdas Pophale) SiO2 
 PCOD9325244
Probable space group: C 2 2 2
;
_chemical_formula_sum "Si O2"
_cell_formula_units_Z 30
_cell_length_a 6.786615
_cell_length_b 16.140383
_cell_length_c 11.652551
_cell_angle_alpha 90.000000
_cell_angle_beta 90.000000
_cell_angle_gamma 90.000000
_cell_volume 1276.403719
_symmetry_space_group_name_H-M "C 2 2 2"
_symmetry_group_IT_number 21
_symmetry_cell_setting 'orthorhombic'
loop_
_space_group_symop_operation_xyz
x,y,z
-x,-y,z
x,-y,-z
-x,y,-z
1/2+x,1/2+y,z
1/2-x,1/2-y,z
1/2+x,1/2-y,-z
1/2-x,1/2+y,-z
loop_
_atom_site_type_symbol
_atom_site_label
_atom_site_fract_x
_atom_site_fract_y
_atom_site_fract_z
Si Si1 0.250000 0.250000 0.286049
Si Si2 0.595325 0.179582 0.121948
Si Si3 0.267269 0.987716 0.129536
Si Si4 0.656389 0.426558 0.650393
Si Si5 0.500000 0.000000 0.500000
O O1 0.423780 0.209987 0.207175
O O2 0.353637 0.326294 0.355910
O O3 0.750000 0.250000 0.092576
O O4 0.735487 0.106823 0.171409
O O5 0.500000 0.152828 0.000000
O O6 0.500000 0.000000 0.133720
O O7 0.176399 0.053339 0.214602
O O8 0.201582 0.000000 0.000000
O O9 0.500000 0.500000 0.616552
O O10 0.856089 0.448234 0.582284
#
# Coordination Sequence:
#
# PCOD9325244 Si02
#       5
#     4   8   8   8   2
#     4  12  24  44  70 108 144 182 248 308 354 444
#     4  12  22  35  59  96 146 197 240 285 350 430
#     4  11  20  41  66  97 150 193 218 283 370 427
#     4  12  26  48  77 108 139 191 251 296 379 448
#     4  12  26  56  74  94 150 184 230 338 368 418
#
# _framework density 23.503533999999998
#
# number of rings (size 3 to 8) (size 9 to 14) (size 15 to 20)
#    0.000    0.267    8.000    2.000    0.000    0.533 
#    4.800    0.000    0.000    0.000    0.000    0.000 
#    0.000    0.000    0.000    0.000    0.000    0.000 
#
# Total GULP energy -83679.955984 kJ/mol
# GULP energy per Si atom -5578.663732 kJ/mol
# Density = 2.345004 g / cm^3
# Si number density = 23.503534 Si / 1000 Ang^3
#
#
#
# Elastic Constant Matrix: (Units=GPa)
#
#
# Indices 1 2 3 4 5 6 
#
# 1 115.7814 42.5751 13.7133 0.0000 0.0000 0.0000
# 2 42.5751 183.6142 18.4382 0.0000 0.0000 0.0000
# 3 13.7133 18.4382 90.8032 0.0000 0.0000 0.0000
# 4 0.0000 0.0000 0.0000 -121.3212 0.0000 0.0000
# 5 0.0000 0.0000 0.0000 0.0000 3.8928 0.0000
# 6 0.0000 0.0000 0.0000 0.0000 0.0000 28.0332
#
#
#
# Elastic Compliance Matrix: (Units=1/GPa)
#
#
# Indices 1 2 3 4 5 6 
#
# 1 0.009532 -0.002109 -0.001011 0.000000 0.000000 0.000000
# 2 -0.002109 0.006026 -0.000905 0.000000 0.000000 0.000000
# 3 -0.001011 -0.000905 0.011349 0.000000 0.000000 0.000000
# 4 0.000000 0.000000 0.000000 -0.008243 0.000000 0.000000
# 5 0.000000 0.000000 0.000000 0.000000 0.256883 0.000000
# 6 0.000000 0.000000 0.000000 0.000000 0.000000 0.035672
#
#
# Mechanical properties :
#
#
# Convention : Reuss Voigt Hill
#
# Bulk Modulus (GPa) = 53.03045 59.96133 56.49589
# Shear Modulus (GPa) = 15.35836 3.15244 9.25540
#
# Velocity S-wave (km/s) = 2.55904 1.15939 1.98656
# Velocity P-wave (km/s) = 5.59851 5.23061 5.41768
#
# Compressibility (1/GPa) = 0.01885709
#
# Stress axis : x y z
#
# Youngs Moduli (GPa) = 104.90799 165.94632 88.11060
#
# Poissons Ratio (x) = 0.34993 0.08911
# Poissons Ratio (y) = 0.22122 0.07975
# Poissons Ratio (z) = 0.10610 0.15021
#
# Static dielectric constant tensor:
#      x y z
#    x 2.007110 0.000000 0.000000 
#    y 0.000000 2.421640 0.000000 
#    z 0.000000 0.000000 1.876140 
# 
# From -- ./inp_files/21897.got.cif
#   From: 2010.05.17/outbox.cif.g08.bks.cpg/sg21_11_cif.got.tgz:21897.got - 2010.06.03 23:14:55.
