data_PCOD9325677
_publ_section_title
;
Structure prediction by ZEFSAII (Michael W. Deem and Ramdas Pophale) SiO2 
 PCOD9325677
Probable space group: C 2 2 2
;
_chemical_formula_sum "Si O2"
_cell_formula_units_Z 52
_cell_length_a 23.325985
_cell_length_b 7.546089
_cell_length_c 12.834722
_cell_angle_alpha 90.000000
_cell_angle_beta 90.000000
_cell_angle_gamma 90.000000
_cell_volume 2259.167238
_symmetry_space_group_name_H-M "C 2 2 2"
_symmetry_group_IT_number 21
_symmetry_cell_setting 'orthorhombic'
loop_
_space_group_symop_operation_xyz
x,y,z
-x,-y,z
x,-y,-z
-x,y,-z
1/2+x,1/2+y,z
1/2-x,1/2-y,z
1/2+x,1/2-y,-z
1/2-x,1/2+y,-z
loop_
_atom_site_type_symbol
_atom_site_label
_atom_site_fract_x
_atom_site_fract_y
_atom_site_fract_z
Si Si1 0.460631 0.766569 0.656207
Si Si2 0.915081 0.910142 0.661419
Si Si3 0.332442 0.700357 0.976520
Si Si4 0.750000 0.750000 0.850531
Si Si5 0.214215 0.601059 0.770141
Si Si6 0.058490 0.900716 0.864442
Si Si7 0.873499 0.451383 0.388658
O O1 0.523603 0.685981 0.637934
O O2 0.418881 0.607593 0.614550
O O3 0.455825 0.755571 0.782272
O O4 0.436077 0.950657 0.616281
O O5 0.872571 0.758760 0.627741
O O6 0.910495 0.958210 0.785434
O O7 0.307417 0.798616 0.875304
O O8 0.399783 0.673857 0.952873
O O9 0.310870 0.500000 0.000000
O O10 0.305693 0.792101 0.077426
O O11 0.745456 0.569233 0.787444
O O12 0.250000 0.750000 0.710928
O O13 0.160317 0.538876 0.705368
O O14 0.000000 0.000000 0.893129
O O15 0.848550 0.500000 0.500000
#
# Coordination Sequence:
#
# PCOD9325677 Si02
#       7
#     8   8   8   4   8   8   8
#     4   8  17  38  62  93 140 173 217 274 323 389
#     4   8  18  37  63  96 132 182 220 263 331 401
#     4  12  21  40  73 101 131 169 225 282 338 405
#     4  12  26  44  74 106 122 180 240 276 366 420
#     4  12  26  49  68  96 139 167 224 305 344 411
#     4   8  18  38  64  96 136 184 210 259 343 399
#     4  12  25  40  67  98 127 179 229 276 344 405
#
# _framework density 23.017330000000001
#
# number of rings (size 3 to 8) (size 9 to 14) (size 15 to 20)
#    0.923    0.923    3.846    0.923    2.154    3.385 
#    1.385    1.538    0.000    0.000    0.000    0.000 
#    0.000    0.000    0.000    0.000    0.000    0.000 
#
# Total GULP energy -144849.311806 kJ/mol
# GULP energy per Si atom -5571.127377 kJ/mol
# Density = 2.296494 g / cm^3
# Si number density = 23.017330 Si / 1000 Ang^3
#
#
#
# Elastic Constant Matrix: (Units=GPa)
#
#
# Indices 1 2 3 4 5 6 
#
# 1 76.0132 4.1883 10.8751 0.0000 0.0000 0.0000
# 2 4.1883 111.5114 19.9929 0.0000 0.0000 0.0000
# 3 10.8751 19.9929 69.3463 0.0000 0.0000 0.0000
# 4 0.0000 0.0000 0.0000 5.6999 0.0000 0.0000
# 5 0.0000 0.0000 0.0000 0.0000 5.0002 0.0000
# 6 0.0000 0.0000 0.0000 0.0000 0.0000 29.0480
#
#
#
# Elastic Compliance Matrix: (Units=1/GPa)
#
#
# Indices 1 2 3 4 5 6 
#
# 1 0.013459 -0.000134 -0.002072 0.000000 0.000000 0.000000
# 2 -0.000134 0.009458 -0.002706 0.000000 0.000000 0.000000
# 3 -0.002072 -0.002706 0.015525 0.000000 0.000000 0.000000
# 4 0.000000 0.000000 0.000000 0.175443 0.000000 0.000000
# 5 0.000000 0.000000 0.000000 0.000000 0.199990 0.000000
# 6 0.000000 0.000000 0.000000 0.000000 0.000000 0.034426
#
#
# Mechanical properties :
#
#
# Convention : Reuss Voigt Hill
#
# Bulk Modulus (GPa) = 34.94183 36.33148 35.63665
# Shear Modulus (GPa) = 10.69142 22.73727 16.71435
#
# Velocity S-wave (km/s) = 2.15755 3.14639 2.69767
# Velocity P-wave (km/s) = 4.62821 5.38687 5.02189
#
# Compressibility (1/GPa) = 0.02861900
#
# Stress axis : x y z
#
# Youngs Moduli (GPa) = 74.29722 105.73242 64.41059
#
# Poissons Ratio (x) = 0.01417 0.13347
# Poissons Ratio (y) = 0.00996 0.17428
# Poissons Ratio (z) = 0.15395 0.28608
#
# Static dielectric constant tensor:
#      x y z
#    x 1.992130 0.000000 0.000000 
#    y 0.000000 1.869650 0.000000 
#    z 0.000000 0.000000 1.928860 
# 
# From -- ./inp_files/27776.got.cif
#   From: 2010.05.17/outbox.cif.g08.bks.cpg/sg21_14_cif.got.tgz:27776.got - 2010.06.03 23:14:55.
