data_PCOD9325982
_publ_section_title
;
Structure prediction by ZEFSAII (Michael W. Deem and Ramdas Pophale) SiO2 
 PCOD9325982
Probable space group: F 2 2 2
;
_chemical_formula_sum "Si O2"
_cell_formula_units_Z 96
_cell_length_a 19.435037
_cell_length_b 17.037759
_cell_length_c 17.941472
_cell_angle_alpha 90.000000
_cell_angle_beta 90.000000
_cell_angle_gamma 90.000000
_cell_volume 5940.950232
_symmetry_space_group_name_H-M "F 2 2 2"
_symmetry_group_IT_number 22
_symmetry_cell_setting 'orthorhombic'
loop_
_space_group_symop_operation_xyz
x,y,z
-x,-y,z
x,-y,-z
-x,y,-z
x,1/2+y,1/2+z
-x,1/2-y,1/2+z
x,1/2-y,1/2-z
-x,1/2+y,1/2-z
1/2+x,y,1/2+z
1/2-x,-y,1/2+z
1/2+x,-y,1/2-z
1/2-x,y,1/2-z
1/2+x,1/2+y,z
1/2-x,1/2-y,z
1/2+x,1/2-y,-z
1/2-x,1/2+y,-z
loop_
_atom_site_type_symbol
_atom_site_label
_atom_site_fract_x
_atom_site_fract_y
_atom_site_fract_z
Si Si1 0.863994 0.834074 0.241075
Si Si2 0.251785 0.378274 0.137020
Si Si3 0.923633 0.532693 0.182027
Si Si4 0.920346 0.408961 0.979581
Si Si5 0.717526 0.444680 0.327871
Si Si6 0.286301 0.665536 0.469811
O O1 0.898381 0.750000 0.250000
O O2 0.806482 0.843231 0.307135
O O3 0.822050 0.839645 0.164680
O O4 0.911855 0.909293 0.249374
O O5 0.251710 0.470747 0.155007
O O6 0.240051 0.365708 0.049997
O O7 0.914035 0.587510 0.109210
O O8 0.863699 0.467042 0.180629
O O9 0.000000 0.500000 0.178580
O O10 0.901356 0.500000 0.000000
O O11 0.868948 0.347193 0.017643
O O12 0.000000 0.397244 0.000000
O O13 0.750000 0.415937 0.250000
O O14 0.729067 0.387550 0.397504
O O15 0.250000 0.750000 0.459903
#
# Coordination Sequence:
#
# PCOD9325982 Si02
#       6
#    16  16  16  16  16  16
#     4  10  18  29  51  83 115 131 163 232 287 323
#     4  10  17  32  54  82 106 136 175 222 279 329
#     4  11  19  32  57  80 105 142 181 228 282 339
#     4  11  18  33  57  84 107 135 182 239 281 329
#     4  11  20  36  55  78 107 146 187 224 272 338
#     4  12  22  32  54  84 115 148 184 230 285 335
#
# _framework density 16.159030999999999
#
# number of rings (size 3 to 8) (size 9 to 14) (size 15 to 20)
#    0.000    1.167   10.000    2.500    0.000    0.333 
#    0.000    0.000    7.333    0.000    0.000    1.167 
#    0.000    0.000    0.000    0.000    0.000    0.000 
#
# Total GULP energy -133633.902233 kJ/mol
# GULP energy per Si atom -5568.079260 kJ/mol
# Density = 1.612225 g / cm^3
# Si number density = 16.159031 Si / 1000 Ang^3
#
#
#
# Elastic Constant Matrix: (Units=GPa)
#
#
# Indices 1 2 3 4 5 6 
#
# 1 76.0455 32.9900 27.0607 0.0000 0.0000 0.0000
# 2 32.9900 72.5006 21.7293 0.0000 0.0000 0.0000
# 3 27.0607 21.7293 105.2656 0.0000 0.0000 0.0000
# 4 0.0000 0.0000 0.0000 16.7587 0.0000 0.0000
# 5 0.0000 0.0000 0.0000 0.0000 20.8454 0.0000
# 6 0.0000 0.0000 0.0000 0.0000 0.0000 7.6021
#
#
#
# Elastic Compliance Matrix: (Units=1/GPa)
#
#
# Indices 1 2 3 4 5 6 
#
# 1 0.017227 -0.006941 -0.002996 0.000000 0.000000 0.000000
# 2 -0.006941 0.017499 -0.001828 0.000000 0.000000 0.000000
# 3 -0.002996 -0.001828 0.010647 0.000000 0.000000 0.000000
# 4 0.000000 0.000000 0.000000 0.059671 0.000000 0.000000
# 5 0.000000 0.000000 0.000000 0.000000 0.047972 0.000000
# 6 0.000000 0.000000 0.000000 0.000000 0.000000 0.131543
#
#
# Mechanical properties :
#
#
# Convention : Reuss Voigt Hill
#
# Bulk Modulus (GPa) = 45.77886 46.37465 46.07676
# Shear Modulus (GPa) = 15.85439 20.51002 18.18220
#
# Velocity S-wave (km/s) = 3.13572 3.56653 3.35804
# Velocity P-wave (km/s) = 6.44221 6.76176 6.60392
#
# Compressibility (1/GPa) = 0.02184414
#
# Stress axis : x y z
#
# Youngs Moduli (GPa) = 58.04760 57.14534 93.92105
#
# Poissons Ratio (x) = 0.39665 0.28137
# Poissons Ratio (y) = 0.40291 0.17168
# Poissons Ratio (z) = 0.17390 0.10446
#
# Static dielectric constant tensor:
#      x y z
#    x 1.590450 0.000000 0.000000 
#    y 0.000000 1.558640 0.000000 
#    z 0.000000 0.000000 1.582190 
# 
# From -- ./inp_files/38034.got.cif
#   From: 2010.05.17/outbox.cif.g08.bks.cpg/sg22_20_cif.got.tgz:38034.got - 2010.06.03 23:40:54.
