data_PCOD9325011
_publ_section_title
;
Structure prediction by ZEFSAII (Michael W. Deem and Ramdas Pophale) SiO2 
 PCOD9325011
Probable space group: C 2 2 2
;
_chemical_formula_sum "Si O2"
_cell_formula_units_Z 24
_cell_length_a 14.493624
_cell_length_b 6.048911
_cell_length_c 13.231199
_cell_angle_alpha 90.000000
_cell_angle_beta 90.000000
_cell_angle_gamma 90.000000
_cell_volume 1159.987706
_symmetry_space_group_name_H-M "C 2 2 2"
_symmetry_group_IT_number 21
_symmetry_cell_setting 'orthorhombic'
loop_
_space_group_symop_operation_xyz
x,y,z
-x,-y,z
x,-y,-z
-x,y,-z
1/2+x,1/2+y,z
1/2-x,1/2-y,z
1/2+x,1/2-y,-z
1/2-x,1/2+y,-z
loop_
_atom_site_type_symbol
_atom_site_label
_atom_site_fract_x
_atom_site_fract_y
_atom_site_fract_z
Si Si1 0.354223 0.663637 0.093483
Si Si2 0.750000 0.750000 0.449354
Si Si3 0.852556 0.188873 0.747038
Si Si4 0.500000 0.000000 0.149466
O O1 0.250000 0.750000 0.090802
O O2 0.370925 0.545581 0.201534
O O3 0.430499 0.849497 0.087212
O O4 0.366708 0.500000 0.000000
O O5 0.762822 0.500000 0.500000
O O6 0.835526 0.794135 0.372388
O O7 0.750000 0.250000 0.790181
O O8 0.931428 0.351625 0.783395
#
# Coordination Sequence:
#
# PCOD9325011 Si02
#       4
#     8   4   8   4
#     4  12  26  47  71 106 151 197 244 305 372 454
#     4  10  24  46  84 108 150 204 250 320 396 444
#     4  10  24  45  76 104 142 191 243 312 368 452
#     4  12  26  47  75 102 150 194 249 302 383 440
#
# _framework density 20.689872000000001
#
# number of rings (size 3 to 8) (size 9 to 14) (size 15 to 20)
#    1.000    0.000    3.333    2.000    7.000    4.000 
#    0.000    0.833    0.000    0.000    0.000    0.000 
#    0.000    0.000    0.000    0.000    0.000    0.000 
#
# Total GULP energy -66904.340624 kJ/mol
# GULP energy per Si atom -5575.361719 kJ/mol
# Density = 2.064278 g / cm^3
# Si number density = 20.689872 Si / 1000 Ang^3
#
#
#
# Elastic Constant Matrix: (Units=GPa)
#
#
# Indices 1 2 3 4 5 6 
#
# 1 170.7230 86.9358 52.0451 0.0000 0.0000 0.0000
# 2 86.9358 163.2379 95.6313 0.0000 0.0000 0.0000
# 3 52.0451 95.6313 123.4892 0.0000 0.0000 0.0000
# 4 0.0000 0.0000 0.0000 49.4659 0.0000 0.0000
# 5 0.0000 0.0000 0.0000 0.0000 14.0326 0.0000
# 6 0.0000 0.0000 0.0000 0.0000 0.0000 54.7380
#
#
#
# Elastic Compliance Matrix: (Units=1/GPa)
#
#
# Indices 1 2 3 4 5 6 
#
# 1 0.008038 -0.004203 -0.000133 0.000000 0.000000 0.000000
# 2 -0.004203 0.013411 -0.008614 0.000000 0.000000 0.000000
# 3 -0.000133 -0.008614 0.014825 0.000000 0.000000 0.000000
# 4 0.000000 0.000000 0.000000 0.020216 0.000000 0.000000
# 5 0.000000 0.000000 0.000000 0.000000 0.071262 0.000000
# 6 0.000000 0.000000 0.000000 0.000000 0.000000 0.018269
#
#
# Mechanical properties :
#
#
# Convention : Reuss Voigt Hill
#
# Bulk Modulus (GPa) = 96.39708 102.96382 99.68045
# Shear Modulus (GPa) = 28.50959 38.50316 33.50638
#
# Velocity S-wave (km/s) = 3.71610 4.31857 4.02861
# Velocity P-wave (km/s) = 8.06877 8.64524 8.36197
#
# Compressibility (1/GPa) = 0.01037376
#
# Stress axis : x y z
#
# Youngs Moduli (GPa) = 124.40510 74.56536 67.45461
#
# Poissons Ratio (x) = 0.31341 0.00896
# Poissons Ratio (y) = 0.52289 0.58107
# Poissons Ratio (z) = 0.01652 0.64232
#
# Static dielectric constant tensor:
#      x y z
#    x 1.707330 0.000000 0.000000 
#    y 0.000000 1.813670 0.000000 
#    z 0.000000 0.000000 1.740870 
# 
# From -- ./inp_files/28457.got.cif
#   From: 2010.05.17/outbox.cif.g08.bks.cpg/sg21_15_cif.got.tgz:28457.got - 2010.06.03 23:14:55.
