data_PCOD9325731
_publ_section_title
;
Structure prediction by ZEFSAII (Michael W. Deem and Ramdas Pophale) SiO2 
 PCOD9325731
Probable space group: C 2 2 2
;
_chemical_formula_sum "Si O2"
_cell_formula_units_Z 20
_cell_length_a 14.701457
_cell_length_b 4.886988
_cell_length_c 11.034666
_cell_angle_alpha 90.000000
_cell_angle_beta 90.000000
_cell_angle_gamma 90.000000
_cell_volume 792.794891
_symmetry_space_group_name_H-M "C 2 2 2"
_symmetry_group_IT_number 21
_symmetry_cell_setting 'orthorhombic'
loop_
_space_group_symop_operation_xyz
x,y,z
-x,-y,z
x,-y,-z
-x,y,-z
1/2+x,1/2+y,z
1/2-x,1/2-y,z
1/2+x,1/2-y,-z
1/2-x,1/2+y,-z
loop_
_atom_site_type_symbol
_atom_site_label
_atom_site_fract_x
_atom_site_fract_y
_atom_site_fract_z
Si Si1 0.343215 0.157805 0.331094
Si Si2 0.595807 0.369392 0.197223
Si Si3 0.000000 0.500000 0.500000
Si Si4 0.500000 0.000000 0.000000
O O1 0.250000 0.250000 0.393953
O O2 0.345680 0.356991 0.212491
O O3 0.356630 0.850192 0.283871
O O4 0.429718 0.178575 0.420346
O O5 0.500000 0.500000 0.235710
O O6 0.564793 0.197660 0.079626
#
# Coordination Sequence:
#
# PCOD9325731 Si02
#       4
#     8   8   2   2
#     4  12  28  48  78 115 161 207 264 333 400 475
#     4  12  23  48  77 110 154 205 260 322 393 471
#     4  12  26  54  80 110 160 218 270 330 404 482
#     4  12  24  44  90 106 150 218 256 312 418 470
#
# _framework density 25.227205000000001
#
# number of rings (size 3 to 8) (size 9 to 14) (size 15 to 20)
#    0.000    0.000    8.000    1.800    0.000    6.400 
#    0.000    4.000    0.000    0.000    0.000    0.000 
#    0.000    0.000    0.000    0.000    0.000    0.000 
#
# Total GULP energy -55716.745016 kJ/mol
# GULP energy per Si atom -5571.674502 kJ/mol
# Density = 2.516979 g / cm^3
# Si number density = 25.227205 Si / 1000 Ang^3
#
#
#
# Elastic Constant Matrix: (Units=GPa)
#
#
# Indices 1 2 3 4 5 6 
#
# 1 213.0915 65.5130 53.0876 0.0000 0.0000 0.0000
# 2 65.5130 178.2234 47.1708 0.0000 0.0000 0.0000
# 3 53.0876 47.1708 97.2723 0.0000 0.0000 0.0000
# 4 0.0000 0.0000 0.0000 90.6366 0.0000 0.0000
# 5 0.0000 0.0000 0.0000 0.0000 22.5022 0.0000
# 6 0.0000 0.0000 0.0000 0.0000 0.0000 42.0079
#
#
#
# Elastic Compliance Matrix: (Units=1/GPa)
#
#
# Indices 1 2 3 4 5 6 
#
# 1 0.005749 -0.001472 -0.002424 0.000000 0.000000 0.000000
# 2 -0.001472 0.006814 -0.002501 0.000000 0.000000 0.000000
# 3 -0.002424 -0.002501 0.012816 0.000000 0.000000 0.000000
# 4 0.000000 0.000000 0.000000 0.011033 0.000000 0.000000
# 5 0.000000 0.000000 0.000000 0.000000 0.044440 0.000000
# 6 0.000000 0.000000 0.000000 0.000000 0.000000 0.023805
#
#
# Mechanical properties :
#
#
# Convention : Reuss Voigt Hill
#
# Bulk Modulus (GPa) = 79.45558 91.12555 85.29057
# Shear Modulus (GPa) = 41.10276 52.55040 46.82658
#
# Velocity S-wave (km/s) = 4.04084 4.56903 4.31303
# Velocity P-wave (km/s) = 7.30312 8.00219 7.66064
#
# Compressibility (1/GPa) = 0.01258565
#
# Stress axis : x y z
#
# Youngs Moduli (GPa) = 173.93748 146.75864 78.02635
#
# Poissons Ratio (x) = 0.21600 0.18913
# Poissons Ratio (y) = 0.25600 0.19515
# Poissons Ratio (z) = 0.42162 0.36705
#
# Static dielectric constant tensor:
#      x y z
#    x 0.567710 0.000000 0.000000 
#    y 0.000000 2.025200 0.000000 
#    z 0.000000 0.000000 2.055850 
# 
# From -- ./inp_files/20065.got.cif
#   From: 2010.05.17/outbox.cif.g08.bks.cpg/sg21_11_cif.got.tgz:20065.got - 2010.06.03 23:14:55.
