data_PCOD9325645
_publ_section_title
;
Structure prediction by ZEFSAII (Michael W. Deem and Ramdas Pophale) SiO2 
 PCOD9325645
Probable space group: C 2 2 2
;
_chemical_formula_sum "Si O2"
_cell_formula_units_Z 36
_cell_length_a 5.306350
_cell_length_b 18.131385
_cell_length_c 15.926617
_cell_angle_alpha 90.000000
_cell_angle_beta 90.000000
_cell_angle_gamma 90.000000
_cell_volume 1532.323310
_symmetry_space_group_name_H-M "C 2 2 2"
_symmetry_group_IT_number 21
_symmetry_cell_setting 'orthorhombic'
loop_
_space_group_symop_operation_xyz
x,y,z
-x,-y,z
x,-y,-z
-x,y,-z
1/2+x,1/2+y,z
1/2-x,1/2-y,z
1/2+x,1/2-y,-z
1/2-x,1/2+y,-z
loop_
_atom_site_type_symbol
_atom_site_label
_atom_site_fract_x
_atom_site_fract_y
_atom_site_fract_z
Si Si1 0.500000 0.123270 0.000000
Si Si2 0.500000 0.500000 0.248638
Si Si3 0.750000 0.750000 0.204469
Si Si4 0.000000 0.500000 0.862386
Si Si5 0.250000 0.250000 0.604402
Si Si6 0.250000 0.250000 0.907510
Si Si7 0.671251 0.640589 0.337912
Si Si8 0.500000 0.869894 0.500000
O O1 0.710900 0.178881 0.034021
O O2 0.444202 0.069487 0.077387
O O3 0.751411 0.491754 0.193750
O O4 0.511436 0.572233 0.306383
O O5 0.499175 0.738349 0.149029
O O6 0.814494 0.674477 0.257275
O O7 0.493906 0.286524 0.647110
O O8 0.305409 0.182118 0.545182
O O9 0.837066 0.607283 0.416141
#
# Coordination Sequence:
#
# PCOD9325645 Si02
#       8
#     4   4   4   4   4   4   8   4
#     4  11  26  50  80 113 156 200 250 313 374 474
#     4  12  30  51  75 116 154 202 258 318 380 454
#     4  12  24  42  73 113 154 192 238 314 374 442
#     4  11  28  54  78 103 158 216 246 293 398 474
#     4  12  20  44  70 110 138 198 256 306 378 452
#     4  12  26  42  73 121 148 180 250 314 370 426
#     4  12  26  44  78 106 157 199 260 314 378 453
#     4  12  22  44  77 109 144 204 256 312 382 453
#
# _framework density 23.493736999999999
#
# number of rings (size 3 to 8) (size 9 to 14) (size 15 to 20)
#    0.000    0.222    4.444    4.000    3.111    5.333 
#    0.000    3.333    0.000    0.000    0.000    0.000 
#    0.000    0.000    0.000    0.000    0.000    0.000 
#
# Total GULP energy -100284.868357 kJ/mol
# GULP energy per Si atom -5571.381575 kJ/mol
# Density = 2.344026 g / cm^3
# Si number density = 23.493737 Si / 1000 Ang^3
#
#
#
# Elastic Constant Matrix: (Units=GPa)
#
#
# Indices 1 2 3 4 5 6 
#
# 1 143.9720 37.1854 82.4513 0.0000 0.0000 0.0000
# 2 37.1854 100.9255 58.2662 0.0000 0.0000 0.0000
# 3 82.4513 58.2662 137.9471 0.0000 0.0000 0.0000
# 4 0.0000 0.0000 0.0000 19.9283 0.0000 0.0000
# 5 0.0000 0.0000 0.0000 0.0000 19.0881 0.0000
# 6 0.0000 0.0000 0.0000 0.0000 0.0000 31.6647
#
#
#
# Elastic Compliance Matrix: (Units=1/GPa)
#
#
# Indices 1 2 3 4 5 6 
#
# 1 0.010569 -0.000327 -0.006179 0.000000 0.000000 0.000000
# 2 -0.000327 0.013114 -0.005344 0.000000 0.000000 0.000000
# 3 -0.006179 -0.005344 0.013199 0.000000 0.000000 0.000000
# 4 0.000000 0.000000 0.000000 0.050180 0.000000 0.000000
# 5 0.000000 0.000000 0.000000 0.000000 0.052389 0.000000
# 6 0.000000 0.000000 0.000000 0.000000 0.000000 0.031581
#
#
# Mechanical properties :
#
#
# Convention : Reuss Voigt Hill
#
# Bulk Modulus (GPa) = 75.85476 82.07227 78.96352
# Shear Modulus (GPa) = 25.10989 27.79898 26.45444
#
# Velocity S-wave (km/s) = 3.27278 3.44357 3.35926
# Velocity P-wave (km/s) = 6.82926 7.12885 6.98066
#
# Compressibility (1/GPa) = 0.01318309
#
# Stress axis : x y z
#
# Youngs Moduli (GPa) = 94.61774 76.25614 75.76091
#
# Poissons Ratio (x) = 0.02492 0.46813
# Poissons Ratio (y) = 0.03092 0.40484
# Poissons Ratio (z) = 0.58464 0.40749
#
# Static dielectric constant tensor:
#      x y z
#    x 1.477150 0.000000 0.000000 
#    y 0.000000 2.066280 0.000000 
#    z 0.000000 0.000000 2.142770 
# 
# From -- ./inp_files/29002.got.cif
#   From: 2010.05.17/outbox.cif.g08.bks.cpg/sg21_15_cif.got.tgz:29002.got - 2010.06.03 23:14:55.
