data_PCOD9325166
_publ_section_title
;
Structure prediction by ZEFSAII (Michael W. Deem and Ramdas Pophale) SiO2 
 PCOD9325166
Probable space group: C 2 2 2
;
_chemical_formula_sum "Si O2"
_cell_formula_units_Z 32
_cell_length_a 13.850249
_cell_length_b 13.063083
_cell_length_c 7.204590
_cell_angle_alpha 90.000000
_cell_angle_beta 90.000000
_cell_angle_gamma 90.000000
_cell_volume 1303.504511
_symmetry_space_group_name_H-M "C 2 2 2"
_symmetry_group_IT_number 21
_symmetry_cell_setting 'orthorhombic'
loop_
_space_group_symop_operation_xyz
x,y,z
-x,-y,z
x,-y,-z
-x,y,-z
1/2+x,1/2+y,z
1/2-x,1/2-y,z
1/2+x,1/2-y,-z
1/2-x,1/2+y,-z
loop_
_atom_site_type_symbol
_atom_site_label
_atom_site_fract_x
_atom_site_fract_y
_atom_site_fract_z
Si Si1 0.522687 0.761270 0.220579
Si Si2 0.321328 0.184944 0.651466
Si Si3 0.165012 0.093427 0.369561
Si Si4 0.645107 0.035066 0.797464
O O1 0.423360 0.758047 0.335605
O O2 0.585532 0.664061 0.278284
O O3 0.584301 0.865237 0.259796
O O4 0.500000 0.761459 0.000000
O O5 0.250000 0.250000 0.791280
O O6 0.236644 0.158143 0.503046
O O7 0.360895 0.069565 0.683664
O O8 0.240794 0.058432 0.212340
O O9 0.130729 0.000000 0.500000
O O10 0.614145 0.000000 0.000000
#
# Coordination Sequence:
#
# PCOD9325166 Si02
#       4
#     8   8   8   8
#     4  12  25  45  83 119 154 210 273 337 402 482
#     4  11  25  45  74 111 159 210 260 332 396 481
#     4  10  26  51  76 110 159 213 263 327 408 487
#     4  11  23  43  76 116 161 198 264 331 400 474
#
# _framework density 24.549206000000002
#
# number of rings (size 3 to 8) (size 9 to 14) (size 15 to 20)
#    0.000    1.000    2.500    3.000    3.500    4.000 
#    0.000   17.500    0.000    0.000    0.000    0.000 
#    0.000    0.000    0.000    0.000    0.000    0.000 
#
# Total GULP energy -89275.954075 kJ/mol
# GULP energy per Si atom -5579.747130 kJ/mol
# Density = 2.449333 g / cm^3
# Si number density = 24.549206 Si / 1000 Ang^3
#
#
#
# Elastic Constant Matrix: (Units=GPa)
#
#
# Indices 1 2 3 4 5 6 
#
# 1 207.3749 88.9429 52.5308 0.0000 0.0000 0.0000
# 2 88.9429 155.7737 28.4161 0.0000 0.0000 0.0000
# 3 52.5308 28.4161 69.2002 0.0000 0.0000 0.0000
# 4 0.0000 0.0000 0.0000 38.5217 0.0000 0.0000
# 5 0.0000 0.0000 0.0000 0.0000 50.5494 0.0000
# 6 0.0000 0.0000 0.0000 0.0000 0.0000 60.3295
#
#
#
# Elastic Compliance Matrix: (Units=1/GPa)
#
#
# Indices 1 2 3 4 5 6 
#
# 1 0.007353 -0.003438 -0.004170 0.000000 0.000000 0.000000
# 2 -0.003438 0.008547 -0.000900 0.000000 0.000000 0.000000
# 3 -0.004170 -0.000900 0.017986 0.000000 0.000000 0.000000
# 4 0.000000 0.000000 0.000000 0.025959 0.000000 0.000000
# 5 0.000000 0.000000 0.000000 0.000000 0.019783 0.000000
# 6 0.000000 0.000000 0.000000 0.000000 0.000000 0.016576
#
#
# Mechanical properties :
#
#
# Convention : Reuss Voigt Hill
#
# Bulk Modulus (GPa) = 59.27663 85.79205 72.53434
# Shear Modulus (GPa) = 42.07274 47.37740 44.72507
#
# Velocity S-wave (km/s) = 4.14431 4.39782 4.27295
# Velocity P-wave (km/s) = 6.86286 7.79812 7.34539
#
# Compressibility (1/GPa) = 0.01687006
#
# Stress axis : x y z
#
# Youngs Moduli (GPa) = 136.00036 117.00641 55.59891
#
# Poissons Ratio (x) = 0.40222 0.23185
# Poissons Ratio (y) = 0.46752 0.05004
# Poissons Ratio (z) = 0.56713 0.10530
#
# Static dielectric constant tensor:
#      x y z
#    x 1.989100 0.000000 0.000000 
#    y 0.000000 2.412280 0.000000 
#    z 0.000000 0.000000 2.045840 
# 
# From -- ./inp_files/14031.got.cif
#   From: 2010.05.17/outbox.cif.g08.bks.cpg/sg21_8_cif.got.tgz:14031.got - 2010.06.03 23:14:55.
