data_PCOD9325497
_publ_section_title
;
Structure prediction by ZEFSAII (Michael W. Deem and Ramdas Pophale) SiO2 
 PCOD9325497
Probable space group: C 2 2 2
;
_chemical_formula_sum "Si O2"
_cell_formula_units_Z 40
_cell_length_a 19.579404
_cell_length_b 11.528370
_cell_length_c 7.727172
_cell_angle_alpha 90.000000
_cell_angle_beta 90.000000
_cell_angle_gamma 90.000000
_cell_volume 1744.166552
_symmetry_space_group_name_H-M "C 2 2 2"
_symmetry_group_IT_number 21
_symmetry_cell_setting 'orthorhombic'
loop_
_space_group_symop_operation_xyz
x,y,z
-x,-y,z
x,-y,-z
-x,y,-z
1/2+x,1/2+y,z
1/2-x,1/2-y,z
1/2+x,1/2-y,-z
1/2-x,1/2+y,-z
loop_
_atom_site_type_symbol
_atom_site_label
_atom_site_fract_x
_atom_site_fract_y
_atom_site_fract_z
Si Si1 0.697574 0.900413 0.864518
Si Si2 0.168599 0.757761 0.691623
Si Si3 0.079722 0.015419 0.205857
Si Si4 0.676844 0.323513 0.301204
Si Si5 0.921964 0.528591 0.296554
O O1 0.682964 0.760895 0.867133
O O2 0.756207 0.903552 0.718354
O O3 0.624157 0.940117 0.805503
O O4 0.719851 0.000000 0.000000
O O5 0.250000 0.750000 0.751622
O O6 0.125335 0.872226 0.744258
O O7 0.174454 0.758738 0.482753
O O8 0.118242 0.650037 0.738422
O O9 0.113256 0.905035 0.294143
O O10 0.000000 0.000000 0.249681
O O11 0.085926 0.000000 0.000000
O O12 0.917330 0.500000 0.500000
O O13 0.000000 0.500000 0.247359
#
# Coordination Sequence:
#
# PCOD9325497 Si02
#       5
#     8   8   8   8   8
#     4  11  24  44  71 103 149 192 241 311 381 452
#     4  12  24  46  79 108 147 200 253 319 374 453
#     4  11  28  48  72 107 152 195 247 309 386 457
#     4  11  23  46  72 107 144 191 256 310 369 462
#     4  11  24  42  68 109 149 188 247 307 378 450
#
# _framework density 22.933591
#
# number of rings (size 3 to 8) (size 9 to 14) (size 15 to 20)
#    0.000    0.800    4.000    2.400    5.600    2.000 
#    0.000    0.000    0.000    0.000    0.000    0.000 
#    0.000    0.000    0.000    0.000    0.000    0.000 
#
# Total GULP energy -111389.260858 kJ/mol
# GULP energy per Si atom -5569.463043 kJ/mol
# Density = 2.288139 g / cm^3
# Si number density = 22.933591 Si / 1000 Ang^3
#
#
#
# Elastic Constant Matrix: (Units=GPa)
#
#
# Indices 1 2 3 4 5 6 
#
# 1 219.9561 96.0351 43.0330 0.0000 0.0000 0.0000
# 2 96.0351 143.6009 27.3818 0.0000 0.0000 0.0000
# 3 43.0330 27.3818 49.3186 0.0000 0.0000 0.0000
# 4 0.0000 0.0000 0.0000 39.4873 0.0000 0.0000
# 5 0.0000 0.0000 0.0000 0.0000 21.5271 0.0000
# 6 0.0000 0.0000 0.0000 0.0000 0.0000 45.1428
#
#
#
# Elastic Compliance Matrix: (Units=1/GPa)
#
#
# Indices 1 2 3 4 5 6 
#
# 1 0.007049 -0.003960 -0.003951 0.000000 0.000000 0.000000
# 2 -0.003960 0.010013 -0.002104 0.000000 0.000000 0.000000
# 3 -0.003951 -0.002104 0.024892 0.000000 0.000000 0.000000
# 4 0.000000 0.000000 0.000000 0.025325 0.000000 0.000000
# 5 0.000000 0.000000 0.000000 0.000000 0.046453 0.000000
# 6 0.000000 0.000000 0.000000 0.000000 0.000000 0.022152
#
#
# Mechanical properties :
#
#
# Convention : Reuss Voigt Hill
#
# Bulk Modulus (GPa) = 45.61439 82.86394 64.23917
# Shear Modulus (GPa) = 30.63296 37.65981 34.14638
#
# Velocity S-wave (km/s) = 3.65872 4.05671 3.86284
# Velocity P-wave (km/s) = 6.14665 7.62582 6.92583
#
# Compressibility (1/GPa) = 0.02192290
#
# Stress axis : x y z
#
# Youngs Moduli (GPa) = 141.87262 99.86549 40.17319
#
# Poissons Ratio (x) = 0.39550 0.15874
# Poissons Ratio (y) = 0.56187 0.08452
# Poissons Ratio (z) = 0.56060 0.21010
#
# Static dielectric constant tensor:
#      x y z
#    x 1.870710 0.000000 0.000000 
#    y 0.000000 2.096100 0.000000 
#    z 0.000000 0.000000 1.891720 
# 
# From -- ./inp_files/16118.got.cif
#   From: 2010.05.17/outbox.cif.g08.bks.cpg/sg21_9_cif.got.tgz:16118.got - 2010.06.03 23:14:55.
