data_PCOD9325810
_publ_section_title
;
Structure prediction by ZEFSAII (Michael W. Deem and Ramdas Pophale) SiO2 
 PCOD9325810
Probable space group: C 2 2 2
;
_chemical_formula_sum "Si O2"
_cell_formula_units_Z 32
_cell_length_a 14.447421
_cell_length_b 8.484061
_cell_length_c 10.949805
_cell_angle_alpha 90.000000
_cell_angle_beta 90.000000
_cell_angle_gamma 90.000000
_cell_volume 1342.148270
_symmetry_space_group_name_H-M "C 2 2 2"
_symmetry_group_IT_number 21
_symmetry_cell_setting 'orthorhombic'
loop_
_space_group_symop_operation_xyz
x,y,z
-x,-y,z
x,-y,-z
-x,y,-z
1/2+x,1/2+y,z
1/2-x,1/2-y,z
1/2+x,1/2-y,-z
1/2-x,1/2+y,-z
loop_
_atom_site_type_symbol
_atom_site_label
_atom_site_fract_x
_atom_site_fract_y
_atom_site_fract_z
Si Si1 0.079336 0.125637 0.260254
Si Si2 0.254934 0.059399 0.861984
Si Si3 0.058528 0.638815 0.260757
Si Si4 0.352802 0.190303 0.499850
O O1 0.110433 0.221324 0.380113
O O2 0.014781 0.254007 0.185258
O O3 0.170263 0.038238 0.202503
O O4 0.000000 0.000000 0.286399
O O5 0.250000 0.250000 0.859412
O O6 0.356618 0.047630 0.802927
O O7 0.255508 0.000000 0.000000
O O8 0.097003 0.736160 0.374840
O O9 0.000000 0.500000 0.318864
O O10 0.250000 0.250000 0.514496
O O11 0.351375 0.000000 0.500000
#
# Coordination Sequence:
#
# PCOD9325810 Si02
#       4
#     8   8   8   8
#     4  12  28  53  83 122 168 220 276 343 425 505
#     4  12  30  57  84 121 168 223 288 352 415 495
#     4  12  27  51  80 123 169 217 280 340 422 504
#     4  12  27  47  80 117 169 220 265 341 425 501
#
# _framework density 23.842372999999998
#
# number of rings (size 3 to 8) (size 9 to 14) (size 15 to 20)
#    0.000    0.000    5.000    3.000    7.000    2.000 
#    0.000    0.000    0.000    0.000    0.000    0.000 
#    0.000    0.000    0.000    0.000    0.000    0.000 
#
# Total GULP energy -89243.590578 kJ/mol
# GULP energy per Si atom -5577.724411 kJ/mol
# Density = 2.378811 g / cm^3
# Si number density = 23.842373 Si / 1000 Ang^3
#
#
#
# Elastic Constant Matrix: (Units=GPa)
#
#
# Indices 1 2 3 4 5 6 
#
# 1 242.1519 109.6376 89.0430 0.0000 0.0000 0.0000
# 2 109.6376 122.7512 65.1581 0.0000 0.0000 0.0000
# 3 89.0430 65.1581 130.4489 0.0000 0.0000 0.0000
# 4 0.0000 0.0000 0.0000 35.4921 0.0000 0.0000
# 5 0.0000 0.0000 0.0000 0.0000 -21.8276 0.0000
# 6 0.0000 0.0000 0.0000 0.0000 0.0000 71.2899
#
#
#
# Elastic Compliance Matrix: (Units=1/GPa)
#
#
# Indices 1 2 3 4 5 6 
#
# 1 0.007446 -0.005379 -0.002396 0.000000 0.000000 0.000000
# 2 -0.005379 0.014971 -0.003807 0.000000 0.000000 0.000000
# 3 -0.002396 -0.003807 0.011203 0.000000 0.000000 0.000000
# 4 0.000000 0.000000 0.000000 0.028175 0.000000 0.000000
# 5 0.000000 0.000000 0.000000 0.000000 -0.045813 0.000000
# 6 0.000000 0.000000 0.000000 0.000000 0.000000 0.014027
#
#
# Mechanical properties :
#
#
# Convention : Reuss Voigt Hill
#
# Bulk Modulus (GPa) = 95.62572 113.66995 104.64783
# Shear Modulus (GPa) = 88.25047 32.42508 60.33777
#
# Velocity S-wave (km/s) = 6.09052 3.69179 5.03606
# Velocity P-wave (km/s) = 9.46857 8.12105 8.82058
#
# Compressibility (1/GPa) = 0.01045744
#
# Stress axis : x y z
#
# Youngs Moduli (GPa) = 134.30161 66.79480 89.26507
#
# Poissons Ratio (x) = 0.35927 0.21387
# Poissons Ratio (y) = 0.72237 0.33979
# Poissons Ratio (z) = 0.32177 0.25426
#
# Static dielectric constant tensor:
#      x y z
#    x 2.055910 0.000000 0.000000 
#    y 0.000000 2.009530 0.000000 
#    z 0.000000 0.000000 1.884460 
# 
# From -- ./inp_files/21808.got.cif
#   From: 2010.05.17/outbox.cif.g08.bks.cpg/sg21_11_cif.got.tgz:21808.got - 2010.06.03 23:14:55.
