data_PCOD9325678
_publ_section_title
;
Structure prediction by ZEFSAII (Michael W. Deem and Ramdas Pophale) SiO2 
 PCOD9325678
Probable space group: C 2 2 2
;
_chemical_formula_sum "Si O2"
_cell_formula_units_Z 34
_cell_length_a 28.667495
_cell_length_b 10.739893
_cell_length_c 4.977224
_cell_angle_alpha 90.000000
_cell_angle_beta 90.000000
_cell_angle_gamma 90.000000
_cell_volume 1532.416737
_symmetry_space_group_name_H-M "C 2 2 2"
_symmetry_group_IT_number 21
_symmetry_cell_setting 'orthorhombic'
loop_
_space_group_symop_operation_xyz
x,y,z
-x,-y,z
x,-y,-z
-x,y,-z
1/2+x,1/2+y,z
1/2-x,1/2-y,z
1/2+x,1/2-y,-z
1/2-x,1/2+y,-z
loop_
_atom_site_type_symbol
_atom_site_label
_atom_site_fract_x
_atom_site_fract_y
_atom_site_fract_z
Si Si1 0.906166 0.000000 0.500000
Si Si2 0.194347 0.740654 0.149815
Si Si3 0.639839 0.866158 0.349103
Si Si4 0.546487 0.714752 0.376330
Si Si5 0.500000 0.500000 0.000000
Si Si6 0.653920 0.500000 0.000000
O O1 0.931772 0.875726 0.603296
O O2 0.875675 0.956418 0.253190
O O3 0.250000 0.750000 0.165546
O O4 0.169441 0.709374 0.429796
O O5 0.181946 0.881129 0.082120
O O6 0.170643 0.650219 0.923338
O O7 0.587720 0.808703 0.295836
O O8 0.634631 0.000000 0.500000
O O9 0.500000 0.776039 0.500000
O O10 0.529496 0.600691 0.179916
#
# Coordination Sequence:
#
# PCOD9325678 Si02
#       6
#     4   8   8   8   2   4
#     4  12  21  42  66 108 144 170 230 300 361 406
#     4  12  27  49  76 109 142 188 245 302 363 425
#     4  12  29  50  72 104 155 199 238 289 363 448
#     4  12  25  41  72 109 145 189 236 305 362 426
#     4  12  24  40  76 116 144 174 252 312 366 402
#     4  12  23  42  77 106 136 180 237 304 361 414
#
# _framework density 22.187173999999999
#
# number of rings (size 3 to 8) (size 9 to 14) (size 15 to 20)
#    0.000    0.000    7.059    2.118    6.588    0.471 
#    0.000    0.000    0.000    0.000    0.000    0.000 
#    0.000    0.000    0.000    0.000    0.000    0.000 
#
# Total GULP energy -94759.205913 kJ/mol
# GULP energy per Si atom -5574.070936 kJ/mol
# Density = 2.213668 g / cm^3
# Si number density = 22.187174 Si / 1000 Ang^3
#
#
#
# Elastic Constant Matrix: (Units=GPa)
#
#
# Indices 1 2 3 4 5 6 
#
# 1 187.7465 37.9898 37.9173 0.0000 0.0000 0.0000
# 2 37.9898 94.7163 -1.1007 0.0000 0.0000 0.0000
# 3 37.9173 -1.1007 102.2946 0.0000 0.0000 0.0000
# 4 0.0000 0.0000 0.0000 28.0958 0.0000 0.0000
# 5 0.0000 0.0000 0.0000 0.0000 21.1635 0.0000
# 6 0.0000 0.0000 0.0000 0.0000 0.0000 64.0324
#
#
#
# Elastic Compliance Matrix: (Units=1/GPa)
#
#
# Indices 1 2 3 4 5 6 
#
# 1 0.006324 -0.002564 -0.002372 0.000000 0.000000 0.000000
# 2 -0.002564 0.011599 0.001075 0.000000 0.000000 0.000000
# 3 -0.002372 0.001075 0.010666 0.000000 0.000000 0.000000
# 4 0.000000 0.000000 0.000000 0.035593 0.000000 0.000000
# 5 0.000000 0.000000 0.000000 0.000000 0.047251 0.000000
# 6 0.000000 0.000000 0.000000 0.000000 0.000000 0.015617
#
#
# Mechanical properties :
#
#
# Convention : Reuss Voigt Hill
#
# Bulk Modulus (GPa) = 47.92011 59.37445 53.64728
# Shear Modulus (GPa) = 35.27898 43.32173 39.30035
#
# Velocity S-wave (km/s) = 3.99188 4.42357 4.21326
# Velocity P-wave (km/s) = 6.54919 7.27389 6.92103
#
# Compressibility (1/GPa) = 0.02086807
#
# Stress axis : x y z
#
# Youngs Moduli (GPa) = 158.12346 86.21591 93.75247
#
# Poissons Ratio (x) = 0.22107 0.22236
# Poissons Ratio (y) = 0.40545 -0.10081
# Poissons Ratio (z) = 0.37503 -0.09270
#
# Static dielectric constant tensor:
#      x y z
#    x 2.009780 0.000000 0.000000 
#    y 0.000000 1.853850 0.000000 
#    z 0.000000 0.000000 1.857430 
# 
# From -- ./inp_files/6524.got.cif
#   From: 2010.05.17/outbox.cif.g08.bks.cpg/sg21_4_cif.got.tgz:6524.got - 2010.06.03 23:14:55.
