data_PCOD9325309
_publ_section_title
;
Structure prediction by ZEFSAII (Michael W. Deem and Ramdas Pophale) SiO2 
 PCOD9325309
Probable space group: C 2 2 2
;
_chemical_formula_sum "Si O2"
_cell_formula_units_Z 24
_cell_length_a 8.189509
_cell_length_b 11.900904
_cell_length_c 10.498378
_cell_angle_alpha 90.000000
_cell_angle_beta 90.000000
_cell_angle_gamma 90.000000
_cell_volume 1023.198800
_symmetry_space_group_name_H-M "C 2 2 2"
_symmetry_group_IT_number 21
_symmetry_cell_setting 'orthorhombic'
loop_
_space_group_symop_operation_xyz
x,y,z
-x,-y,z
x,-y,-z
-x,y,-z
1/2+x,1/2+y,z
1/2-x,1/2-y,z
1/2+x,1/2-y,-z
1/2-x,1/2+y,-z
loop_
_atom_site_type_symbol
_atom_site_label
_atom_site_fract_x
_atom_site_fract_y
_atom_site_fract_z
Si Si1 0.176288 0.058812 0.179016
Si Si2 0.325264 0.854412 0.066565
Si Si3 0.689083 0.626222 0.460560
O O1 0.203958 0.124627 0.307703
O O2 0.309632 0.961331 0.156729
O O3 0.197516 0.129105 0.050283
O O4 0.000000 0.000000 0.184622
O O5 0.250000 0.750000 0.140724
O O6 0.500000 0.844995 0.000000
O O7 0.756370 0.500000 0.500000
O O8 0.500000 0.622508 0.500000
O O9 0.750000 0.750000 0.506597
#
# Coordination Sequence:
#
# PCOD9325309 Si02
#       3
#     8   8   8
#     4  11  21  42  69  95 142 184 230 297 356 424
#     4  11  23  41  65 105 141 182 236 288 364 442
#     4  11  25  50  71 103 145 190 249 301 355 423
#
# _framework density 23.455853999999999
#
# number of rings (size 3 to 8) (size 9 to 14) (size 15 to 20)
#    0.000    1.000    3.333    7.000    0.000    2.000 
#   18.000    0.000    0.000    0.000    0.000    0.000 
#    0.000    0.000    0.000    0.000    0.000    0.000 
#
# Total GULP energy -66956.794662 kJ/mol
# GULP energy per Si atom -5579.732889 kJ/mol
# Density = 2.340247 g / cm^3
# Si number density = 23.455854 Si / 1000 Ang^3
#
#
#
# Elastic Constant Matrix: (Units=GPa)
#
#
# Indices 1 2 3 4 5 6 
#
# 1 102.5887 54.0889 -3.1127 0.0000 0.0000 0.0000
# 2 54.0889 183.6233 18.7639 0.0000 0.0000 0.0000
# 3 -3.1127 18.7639 84.7839 0.0000 0.0000 0.0000
# 4 0.0000 0.0000 0.0000 23.0765 0.0000 0.0000
# 5 0.0000 0.0000 0.0000 0.0000 8.0057 0.0000
# 6 0.0000 0.0000 0.0000 0.0000 0.0000 32.6072
#
#
#
# Elastic Compliance Matrix: (Units=1/GPa)
#
#
# Indices 1 2 3 4 5 6 
#
# 1 0.011661 -0.003559 0.001216 0.000000 0.000000 0.000000
# 2 -0.003559 0.006658 -0.001604 0.000000 0.000000 0.000000
# 3 0.001216 -0.001604 0.012194 0.000000 0.000000 0.000000
# 4 0.000000 0.000000 0.000000 0.043334 0.000000 0.000000
# 5 0.000000 0.000000 0.000000 0.000000 0.124911 0.000000
# 6 0.000000 0.000000 0.000000 0.000000 0.000000 0.030668
#
#
# Mechanical properties :
#
#
# Convention : Reuss Voigt Hill
#
# Bulk Modulus (GPa) = 44.21155 56.71956 50.46556
# Shear Modulus (GPa) = 20.41968 32.82160 26.62064
#
# Velocity S-wave (km/s) = 2.95372 3.74477 3.37252
# Velocity P-wave (km/s) = 5.52471 6.55222 6.06028
#
# Compressibility (1/GPa) = 0.02261852
#
# Stress axis : x y z
#
# Youngs Moduli (GPa) = 85.75520 150.18910 82.00508
#
# Poissons Ratio (x) = 0.53455 -0.09970
# Poissons Ratio (y) = 0.30522 0.13156
# Poissons Ratio (z) = -0.10426 0.24094
#
# Static dielectric constant tensor:
#      x y z
#    x 1.856450 0.000000 0.000000 
#    y 0.000000 2.064970 0.000000 
#    z 0.000000 0.000000 1.839460 
# 
# From -- ./inp_files/21611.got.cif
#   From: 2010.05.17/outbox.cif.g08.bks.cpg/sg21_11_cif.got.tgz:21611.got - 2010.06.03 23:14:55.
