data_PCOD9325038
_publ_section_title
;
Structure prediction by ZEFSAII (Michael W. Deem and Ramdas Pophale) SiO2 
 PCOD9325038
Probable space group: C 2 2 2
;
_chemical_formula_sum "Si O2"
_cell_formula_units_Z 40
_cell_length_a 23.929351
_cell_length_b 8.325083
_cell_length_c 8.723140
_cell_angle_alpha 90.000000
_cell_angle_beta 90.000000
_cell_angle_gamma 90.000000
_cell_volume 1737.770157
_symmetry_space_group_name_H-M "C 2 2 2"
_symmetry_group_IT_number 21
_symmetry_cell_setting 'orthorhombic'
loop_
_space_group_symop_operation_xyz
x,y,z
-x,-y,z
x,-y,-z
-x,y,-z
1/2+x,1/2+y,z
1/2-x,1/2-y,z
1/2+x,1/2-y,-z
1/2-x,1/2+y,-z
loop_
_atom_site_type_symbol
_atom_site_label
_atom_site_fract_x
_atom_site_fract_y
_atom_site_fract_z
Si Si1 0.405242 0.124533 0.887645
Si Si2 0.687212 0.450158 0.325275
Si Si3 0.001016 0.696100 0.677800
Si Si4 0.186621 0.563357 0.329688
Si Si5 0.094917 0.875899 0.878481
O O1 0.444520 0.223571 0.773179
O O2 0.362007 0.022571 0.787850
O O3 0.377508 0.248109 0.004764
O O4 0.436790 0.000000 0.000000
O O5 0.676805 0.500000 0.500000
O O6 0.751501 0.496041 0.287328
O O7 0.685627 0.257034 0.324450
O O8 0.642187 0.535811 0.219408
O O9 0.050616 0.785281 0.768701
O O10 0.000000 0.500000 0.676790
O O11 0.000000 0.747718 0.500000
O O12 0.173830 0.500000 0.500000
O O13 0.067656 0.000000 0.000000
#
# Coordination Sequence:
#
# PCOD9325038 Si02
#       5
#     8   8   8   8   8
#     4  12  26  45  72 109 151 197 246 309 381 449
#     4  10  24  47  73 108 146 195 253 310 368 446
#     4  11  27  48  77 108 147 203 252 299 373 460
#     4  10  24  47  75 104 146 199 252 304 374 450
#     4  12  26  48  75 110 154 192 247 319 377 441
#
# _framework density 23.018004999999999
#
# number of rings (size 3 to 8) (size 9 to 14) (size 15 to 20)
#    0.000    1.000    4.000    0.600    8.400    2.400 
#    0.000    1.000    0.000    0.000    0.000    0.000 
#    0.000    0.000    0.000    0.000    0.000    0.000 
#
# Total GULP energy -111757.141300 kJ/mol
# GULP energy per Si atom -5587.857065 kJ/mol
# Density = 2.296561 g / cm^3
# Si number density = 23.018005 Si / 1000 Ang^3
#
#
#
# Elastic Constant Matrix: (Units=GPa)
#
#
# Indices 1 2 3 4 5 6 
#
# 1 151.4454 57.6234 131.6335 0.0000 0.0000 0.0000
# 2 57.6234 71.6252 65.4252 0.0000 0.0000 0.0000
# 3 131.6335 65.4252 189.6578 0.0000 0.0000 0.0000
# 4 0.0000 0.0000 0.0000 50.0445 0.0000 0.0000
# 5 0.0000 0.0000 0.0000 0.0000 210.3937 0.0000
# 6 0.0000 0.0000 0.0000 0.0000 0.0000 34.3447
#
#
#
# Elastic Compliance Matrix: (Units=1/GPa)
#
#
# Indices 1 2 3 4 5 6 
#
# 1 0.017531 -0.004365 -0.010662 0.000000 0.000000 0.000000
# 2 -0.004365 0.021472 -0.004377 0.000000 0.000000 0.000000
# 3 -0.010662 -0.004377 0.014182 0.000000 0.000000 0.000000
# 4 0.000000 0.000000 0.000000 0.019982 0.000000 0.000000
# 5 0.000000 0.000000 0.000000 0.000000 0.004753 0.000000
# 6 0.000000 0.000000 0.000000 0.000000 0.000000 0.029117
#
#
# Mechanical properties :
#
#
# Convention : Reuss Voigt Hill
#
# Bulk Modulus (GPa) = 69.55582 102.45476 86.00529
# Shear Modulus (GPa) = 33.19236 69.49300 51.34268
#
# Velocity S-wave (km/s) = 3.80151 5.50057 4.72799
# Velocity P-wave (km/s) = 7.03934 9.21678 8.20065
#
# Compressibility (1/GPa) = 0.01437694
#
# Stress axis : x y z
#
# Youngs Moduli (GPa) = 57.04273 46.57277 70.50965
#
# Poissons Ratio (x) = 0.20329 0.75174
# Poissons Ratio (y) = 0.24899 0.30865
# Poissons Ratio (z) = 0.60816 0.20387
#
# Static dielectric constant tensor:
#      x y z
#    x 1.879300 0.000000 0.000000 
#    y 0.000000 1.808790 0.000000 
#    z 0.000000 0.000000 1.821780 
# 
# From -- ./inp_files/18223.got.cif
#   From: 2010.05.17/outbox.cif.g08.bks.cpg/sg21_10_cif.got.tgz:18223.got - 2010.06.03 23:14:55.
