data_PCOD9325393
_publ_section_title
;
Structure prediction by ZEFSAII (Michael W. Deem and Ramdas Pophale) SiO2 
 PCOD9325393
Probable space group: C 2 2 2
;
_chemical_formula_sum "Si O2"
_cell_formula_units_Z 32
_cell_length_a 8.658258
_cell_length_b 11.639014
_cell_length_c 13.641221
_cell_angle_alpha 90.000000
_cell_angle_beta 90.000000
_cell_angle_gamma 90.000000
_cell_volume 1374.674759
_symmetry_space_group_name_H-M "C 2 2 2"
_symmetry_group_IT_number 21
_symmetry_cell_setting 'orthorhombic'
loop_
_space_group_symop_operation_xyz
x,y,z
-x,-y,z
x,-y,-z
-x,y,-z
1/2+x,1/2+y,z
1/2-x,1/2-y,z
1/2+x,1/2-y,-z
1/2-x,1/2+y,-z
loop_
_atom_site_type_symbol
_atom_site_label
_atom_site_fract_x
_atom_site_fract_y
_atom_site_fract_z
Si Si1 0.415491 0.283356 0.089996
Si Si2 0.628636 0.151111 0.209624
Si Si3 0.439411 0.131353 0.397575
Si Si4 0.340867 0.559117 0.723094
O O1 0.250000 0.250000 0.051881
O O2 0.505497 0.167646 0.123305
O O3 0.389682 0.359480 0.186851
O O4 0.500000 0.343601 0.000000
O O5 0.750000 0.250000 0.190143
O O6 0.535411 0.182921 0.308229
O O7 0.721745 0.034726 0.230743
O O8 0.500000 0.183418 0.500000
O O9 0.260239 0.120764 0.362854
O O10 0.500000 0.000000 0.401110
O O11 0.500000 0.500000 0.687217
#
# Coordination Sequence:
#
# PCOD9325393 Si02
#       4
#     8   8   8   8
#     4  12  26  46  69 103 143 188 240 295 352 420
#     4  11  22  44  65  98 144 180 234 291 346 417
#     4   9  20  42  69  98 138 176 227 289 349 419
#     4  11  23  43  73  98 141 191 229 291 358 420
#
# _framework density 23.278231999999999
#
# number of rings (size 3 to 8) (size 9 to 14) (size 15 to 20)
#    0.000    1.250    5.000    0.750    0.000    0.500 
#    4.500   11.250    0.000    0.000    0.000    0.000 
#    0.000    0.000    0.000    0.000    0.000    0.000 
#
# Total GULP energy -89325.299443 kJ/mol
# GULP energy per Si atom -5582.831215 kJ/mol
# Density = 2.322525 g / cm^3
# Si number density = 23.278232 Si / 1000 Ang^3
#
#
#
# Elastic Constant Matrix: (Units=GPa)
#
#
# Indices 1 2 3 4 5 6 
#
# 1 187.6830 30.4294 76.2899 0.0000 0.0000 0.0000
# 2 30.4294 67.0468 26.5267 0.0000 0.0000 0.0000
# 3 76.2899 26.5267 151.2035 0.0000 0.0000 0.0000
# 4 0.0000 0.0000 0.0000 -53.7867 0.0000 0.0000
# 5 0.0000 0.0000 0.0000 0.0000 36.3611 0.0000
# 6 0.0000 0.0000 0.0000 0.0000 0.0000 13.1818
#
#
#
# Elastic Compliance Matrix: (Units=1/GPa)
#
#
# Indices 1 2 3 4 5 6 
#
# 1 0.006919 -0.001890 -0.003159 0.000000 0.000000 0.000000
# 2 -0.001890 0.016544 -0.001949 0.000000 0.000000 0.000000
# 3 -0.003159 -0.001949 0.008549 0.000000 0.000000 0.000000
# 4 0.000000 0.000000 0.000000 -0.018592 0.000000 0.000000
# 5 0.000000 0.000000 0.000000 0.000000 0.027502 0.000000
# 6 0.000000 0.000000 0.000000 0.000000 0.000000 0.075862
#
#
# Mechanical properties :
#
#
# Convention : Reuss Voigt Hill
#
# Bulk Modulus (GPa) = 55.50685 74.71390 65.11038
# Shear Modulus (GPa) = 36.55350 17.33040 26.94195
#
# Velocity S-wave (km/s) = 3.96698 2.73149 3.40573
# Velocity P-wave (km/s) = 6.69920 6.48951 6.59519
#
# Compressibility (1/GPa) = 0.01801579
#
# Stress axis : x y z
#
# Youngs Moduli (GPa) = 144.53419 60.44557 116.96591
#
# Poissons Ratio (x) = 0.11425 0.36953
# Poissons Ratio (y) = 0.27319 0.22793
# Poissons Ratio (z) = 0.45662 0.11779
#
# Static dielectric constant tensor:
#      x y z
#    x 1.975200 0.000000 0.000000 
#    y 0.000000 1.918950 0.000000 
#    z 0.000000 0.000000 1.892860 
# 
# From -- ./inp_files/21816.got.cif
#   From: 2010.05.17/outbox.cif.g08.bks.cpg/sg21_11_cif.got.tgz:21816.got - 2010.06.03 23:14:55.
