data_PCOD9325838
_publ_section_title
;
Structure prediction by ZEFSAII (Michael W. Deem and Ramdas Pophale) SiO2 
 PCOD9325838
Probable space group: C 2 2 2
;
_chemical_formula_sum "Si O2"
_cell_formula_units_Z 24
_cell_length_a 9.000000
_cell_length_b 30.000000
_cell_length_c 9.000000
_cell_angle_alpha 90.000000
_cell_angle_beta 90.000000
_cell_angle_gamma 90.000000
_cell_volume 2430.000000
_symmetry_space_group_name_H-M "C 2 2 2"
_symmetry_group_IT_number 21
_symmetry_cell_setting 'orthorhombic'
loop_
_space_group_symop_operation_xyz
x,y,z
-x,-y,z
x,-y,-z
-x,y,-z
1/2+x,1/2+y,z
1/2-x,1/2-y,z
1/2+x,1/2-y,-z
1/2-x,1/2+y,-z
loop_
_atom_site_type_symbol
_atom_site_label
_atom_site_fract_x
_atom_site_fract_y
_atom_site_fract_z
Si Si1 0.335836 0.553307 0.160259
Si Si2 0.576517 0.734116 0.656976
Si Si3 0.354430 0.117020 0.392938
Si Si4 0.700711 0.354726 0.322113
Si Si5 0.007111 0.683785 0.173951
Si Si6 0.195101 0.953081 0.819749
O O1 0.305870 0.595745 0.259775
O O2 0.515204 0.549863 0.174462
O O3 0.271777 0.505335 0.206991
O O4 0.274011 0.559911 0.992202
O O5 0.500000 0.743316 0.500000
O O6 0.750000 0.750000 0.645577
O O7 0.571107 0.681538 0.692849
O O8 0.497336 0.764739 0.778831
O O9 0.500000 0.106663 0.500000
O O10 0.240382 0.139903 0.505789
O O11 0.397753 0.153035 0.268790
O O12 0.278329 0.076464 0.302940
O O13 0.834072 0.332674 0.231609
O O14 0.000000 0.677571 0.000000
#
# Coordination Sequence:
#
# PCOD9325838 Si02
#       6
#     8   8   8   8   8   8
#     4   9  19  37  59  86 116 150 198 242 296 345
#     4  10  21  39  58  83 118 155 194 244 302 356
#     4  10  21  37  60  86 117 158 195 238 303 359
#     4  10  21  36  57  84 116 151 192 241 287 357
#     4  10  20  39  59  80 114 153 192 242 293 346
#     4   9  19  37  60  84 117 155 190 246 295 350
#
# _framework density 9.8765429999999999
#
# number of rings (size 3 to 8) (size 9 to 14) (size 15 to 20)
#    0.000    2.333    0.000    4.500    2.333    0.667 
#    3.000   15.000    0.000    9.000    0.000    0.000 
#    0.000    0.000    0.000    0.000    0.000    0.000 
#
# Total GULP energy -133677.552369 kJ/mol
# GULP energy per Si atom -5569.898015 kJ/mol
# Density = 0.985406 g / cm^3
# Si number density = 9.876543 Si / 1000 Ang^3
#
#
#
# Elastic Constant Matrix: (Units=GPa)
#
#
# Indices 1 2 3 4 5 6 
#
# 1 11.8625 52.7652 23.9488 0.0000 0.0000 0.0000
# 2 52.7652 112.1571 112.9165 0.0000 0.0000 0.0000
# 3 23.9488 112.9165 157.9495 0.0000 0.0000 0.0000
# 4 0.0000 0.0000 0.0000 21.2629 0.0000 0.0000
# 5 0.0000 0.0000 0.0000 0.0000 6.3123 0.0000
# 6 0.0000 0.0000 0.0000 0.0000 0.0000 23.5805
#
#
#
# Elastic Compliance Matrix: (Units=1/GPa)
#
#
# Indices 1 2 3 4 5 6 
#
# 1 -0.031068 0.035229 -0.020474 0.000000 0.000000 0.000000
# 2 0.035229 -0.008135 0.000474 0.000000 0.000000 0.000000
# 3 -0.020474 0.000474 0.009096 0.000000 0.000000 0.000000
# 4 0.000000 0.000000 0.000000 0.047030 0.000000 0.000000
# 5 0.000000 0.000000 0.000000 0.000000 0.158420 0.000000
# 6 0.000000 0.000000 0.000000 0.000000 0.000000 0.042408
#
#
# Mechanical properties :
#
#
# Convention : Reuss Voigt Hill
#
# Bulk Modulus (GPa) = 2846.55888 73.47000 1460.01444
# Shear Modulus (GPa) = 26.67953 16.38706 21.53329
#
# Velocity S-wave (km/s) = 3.67911 2.88339 3.30528
# Velocity P-wave (km/s) = 38.23933 6.95415 27.48278
#
# Compressibility (1/GPa) = 0.00035130
#
# Stress axis : x y z
#
# Youngs Moduli (GPa) = -32.18718 -122.91830 109.93331
#
# Poissons Ratio (x) = 4.33034 2.25083
# Poissons Ratio (y) = 1.13394 -0.05215
# Poissons Ratio (z) = -0.65902 0.05831
#
# Static dielectric constant tensor:
#      x y z
#    x 1.738200 0.000000 0.000000 
#    y 0.000000 1.768650 0.000000 
#    z 0.000000 0.000000 1.706430 
# 
# From -- ./inp_files/11495.got.cif
#   From: 2010.05.17/outbox.ucp.g08.bks.cvg/sg21_6_cif.got.tgz:11495.got - 2010.06.11 15:15:05.
