data_PCOD9325995
_publ_section_title
;
Structure prediction by ZEFSAII (Michael W. Deem and Ramdas Pophale) SiO2 
 PCOD9325995
Probable space group: F 2 2 2
;
_chemical_formula_sum "Si O2"
_cell_formula_units_Z 80
_cell_length_a 22.821111
_cell_length_b 10.258642
_cell_length_c 14.549284
_cell_angle_alpha 90.000000
_cell_angle_beta 90.000000
_cell_angle_gamma 90.000000
_cell_volume 3406.185368
_symmetry_space_group_name_H-M "F 2 2 2"
_symmetry_group_IT_number 22
_symmetry_cell_setting 'orthorhombic'
loop_
_space_group_symop_operation_xyz
x,y,z
-x,-y,z
x,-y,-z
-x,y,-z
x,1/2+y,1/2+z
-x,1/2-y,1/2+z
x,1/2-y,1/2-z
-x,1/2+y,1/2-z
1/2+x,y,1/2+z
1/2-x,-y,1/2+z
1/2+x,-y,1/2-z
1/2-x,y,1/2-z
1/2+x,1/2+y,z
1/2-x,1/2-y,z
1/2+x,1/2-y,-z
1/2-x,1/2+y,-z
loop_
_atom_site_type_symbol
_atom_site_label
_atom_site_fract_x
_atom_site_fract_y
_atom_site_fract_z
Si Si1 0.108164 0.951733 0.126280
Si Si2 0.182991 0.732180 0.021546
Si Si3 0.107375 0.255878 0.351888
Si Si4 0.482227 0.777028 0.105905
Si Si5 0.131708 0.380548 0.813316
O O1 0.154284 0.864284 0.067618
O O2 0.049408 0.862844 0.125804
O O3 0.132780 0.977525 0.229512
O O4 0.095842 0.100627 0.101912
O O5 0.250000 0.750000 0.996576
O O6 0.177578 0.628962 0.105042
O O7 0.146277 0.691725 0.931880
O O8 0.133948 0.250000 0.250000
O O9 0.042465 0.197535 0.342501
O O10 0.431213 0.874945 0.137133
O O11 0.500000 0.786332 0.000000
O O12 0.136989 0.250000 0.750000
#
# Coordination Sequence:
#
# PCOD9325995 Si02
#       5
#    16  16  16  16  16
#     4  10  21  37  62  91 117 154 203 232 294 368
#     4  10  21  39  60  81 111 150 204 250 287 337
#     4  12  23  37  58  90 126 159 187 243 297 349
#     4  10  17  33  63  93 121 150 194 244 287 351
#     4   8  17  35  57  87 112 145 193 246 288 344
#
# _framework density 23.486684
#
# number of rings (size 3 to 8) (size 9 to 14) (size 15 to 20)
#    0.000    2.400    4.000    3.000    0.000    4.800 
#    0.000    7.000    0.000    1.200    0.000    0.000 
#    0.000    0.000    0.000    0.000    0.000    0.000 
#
# Total GULP energy -111430.756928 kJ/mol
# GULP energy per Si atom -5571.537846 kJ/mol
# Density = 2.343323 g / cm^3
# Si number density = 23.486684 Si / 1000 Ang^3
#
#
#
# Elastic Constant Matrix: (Units=GPa)
#
#
# Indices 1 2 3 4 5 6 
#
# 1 89.9898 -13.4866 11.0827 0.0000 0.0000 0.0000
# 2 -13.4866 66.3159 -29.1284 0.0000 0.0000 0.0000
# 3 11.0827 -29.1284 143.8037 0.0000 0.0000 0.0000
# 4 0.0000 0.0000 0.0000 8.7127 0.0000 0.0000
# 5 0.0000 0.0000 0.0000 0.0000 10.9587 0.0000
# 6 0.0000 0.0000 0.0000 0.0000 0.0000 2.7021
#
#
#
# Elastic Compliance Matrix: (Units=1/GPa)
#
#
# Indices 1 2 3 4 5 6 
#
# 1 0.011488 0.002138 -0.000452 0.000000 0.000000 0.000000
# 2 0.002138 0.016950 0.003269 0.000000 0.000000 0.000000
# 3 -0.000452 0.003269 0.007651 0.000000 0.000000 0.000000
# 4 0.000000 0.000000 0.000000 0.114775 0.000000 0.000000
# 5 0.000000 0.000000 0.000000 0.000000 0.091252 0.000000
# 6 0.000000 0.000000 0.000000 0.000000 0.000000 0.370086
#
#
# Mechanical properties :
#
#
# Convention : Reuss Voigt Hill
#
# Bulk Modulus (GPa) = 21.74067 26.33830 24.03949
# Shear Modulus (GPa) = 8.09552 26.58414 17.33983
#
# Velocity S-wave (km/s) = 1.85858 3.36799 2.72009
# Velocity P-wave (km/s) = 3.72592 5.13449 4.48584
#
# Compressibility (1/GPa) = 0.04599675
#
# Stress axis : x y z
#
# Youngs Moduli (GPa) = 87.04389 58.99790 130.70444
#
# Poissons Ratio (x) = -0.12612 0.05913
# Poissons Ratio (y) = -0.18607 -0.42721
# Poissons Ratio (z) = 0.03938 -0.19284
#
# Static dielectric constant tensor:
#      x y z
#    x 1.823050 0.000000 0.000000 
#    y 0.000000 2.101440 0.000000 
#    z 0.000000 0.000000 1.995230 
# 
# From -- ./inp_files/32276.got.cif
#   From: 2010.05.17/outbox.cif.g08.bks.cpg/sg22_17_cif.got.tgz:32276.got - 2010.06.03 23:40:54.
