data_PCOD9325771
_publ_section_title
;
Structure prediction by ZEFSAII (Michael W. Deem and Ramdas Pophale) SiO2 
 PCOD9325771
Probable space group: C 2 2 2
;
_chemical_formula_sum "Si O2"
_cell_formula_units_Z 34
_cell_length_a 19.115267
_cell_length_b 13.697453
_cell_length_c 5.281110
_cell_angle_alpha 90.000000
_cell_angle_beta 90.000000
_cell_angle_gamma 90.000000
_cell_volume 1382.755520
_symmetry_space_group_name_H-M "C 2 2 2"
_symmetry_group_IT_number 21
_symmetry_cell_setting 'orthorhombic'
loop_
_space_group_symop_operation_xyz
x,y,z
-x,-y,z
x,-y,-z
-x,y,-z
1/2+x,1/2+y,z
1/2-x,1/2-y,z
1/2+x,1/2-y,-z
1/2-x,1/2+y,-z
loop_
_atom_site_type_symbol
_atom_site_label
_atom_site_fract_x
_atom_site_fract_y
_atom_site_fract_z
Si Si1 0.090625 0.825935 0.826790
Si Si2 0.638881 0.824028 0.762667
Si Si3 0.795733 0.500000 0.000000
Si Si4 0.735577 0.350523 0.642089
Si Si5 0.500000 0.500000 0.000000
Si Si6 0.000000 0.686787 0.500000
O O1 0.152162 0.840383 0.620061
O O2 0.033055 0.752757 0.719955
O O3 0.121818 0.775944 0.083351
O O4 0.051911 0.927623 0.856628
O O5 0.708489 0.835180 0.584374
O O6 0.570026 0.859881 0.612070
O O7 0.654784 0.907834 0.962729
O O8 0.748033 0.454204 0.778224
O O9 0.750000 0.250000 0.803000
#
# Coordination Sequence:
#
# PCOD9325771 Si02
#       6
#     8   8   4   8   2   4
#     4  12  27  51  80 119 168 215 271 350 421 512
#     4  12  26  52  77 117 163 211 282 334 420 496
#     4  12  27  50  79 116 152 216 278 342 407 495
#     4  12  26  48  83 114 160 218 275 344 417 502
#     4  12  26  54  80 124 166 216 282 346 438 510
#     4  12  24  49  81 112 158 218 264 340 422 500
#
# _framework density 24.588581999999999
#
# number of rings (size 3 to 8) (size 9 to 14) (size 15 to 20)
#    0.000    0.000    7.059    1.412    3.294    0.471 
#   12.706   16.471    0.000    0.000    0.000    0.000 
#    0.000    0.000    0.000    0.000    0.000    0.000 
#
# Total GULP energy -94770.568316 kJ/mol
# GULP energy per Si atom -5574.739313 kJ/mol
# Density = 2.453262 g / cm^3
# Si number density = 24.588582 Si / 1000 Ang^3
#
#
#
# Elastic Constant Matrix: (Units=GPa)
#
#
# Indices 1 2 3 4 5 6 
#
# 1 180.4253 12.9924 44.3675 0.0000 0.0000 0.0000
# 2 12.9924 91.3577 14.1640 0.0000 0.0000 0.0000
# 3 44.3675 14.1640 93.5411 0.0000 0.0000 0.0000
# 4 0.0000 0.0000 0.0000 287.2532 0.0000 0.0000
# 5 0.0000 0.0000 0.0000 0.0000 30.1665 0.0000
# 6 0.0000 0.0000 0.0000 0.0000 0.0000 26.6388
#
#
#
# Elastic Compliance Matrix: (Units=1/GPa)
#
#
# Indices 1 2 3 4 5 6 
#
# 1 0.006292 -0.000442 -0.002917 0.000000 0.000000 0.000000
# 2 -0.000442 0.011240 -0.001492 0.000000 0.000000 0.000000
# 3 -0.002917 -0.001492 0.012300 0.000000 0.000000 0.000000
# 4 0.000000 0.000000 0.000000 0.003481 0.000000 0.000000
# 5 0.000000 0.000000 0.000000 0.000000 0.033149 0.000000
# 6 0.000000 0.000000 0.000000 0.000000 0.000000 0.037539
#
#
# Mechanical properties :
#
#
# Convention : Reuss Voigt Hill
#
# Bulk Modulus (GPa) = 49.68110 56.48577 53.08343
# Shear Modulus (GPa) = 41.52307 88.39837 64.96072
#
# Velocity S-wave (km/s) = 4.11385 6.00242 5.14552
# Velocity P-wave (km/s) = 6.54323 8.42976 7.54569
#
# Compressibility (1/GPa) = 0.02012838
#
# Stress axis : x y z
#
# Youngs Moduli (GPa) = 158.94010 88.96595 81.30021
#
# Poissons Ratio (x) = 0.03937 0.23717
# Poissons Ratio (y) = 0.07033 0.12131
# Poissons Ratio (z) = 0.46366 0.13275
#
# Static dielectric constant tensor:
#      x y z
#    x -0.454030 0.000000 0.000000 
#    y 0.000000 2.010430 0.000000 
#    z 0.000000 0.000000 2.438770 
# 
# From -- ./inp_files/5717.got.cif
#   From: 2010.05.17/outbox.cif.g08.bks.cpg/sg21_3_cif.got.tgz:5717.got - 2010.06.03 23:14:55.
