data_PCOD9325397
_publ_section_title
;
Structure prediction by ZEFSAII (Michael W. Deem and Ramdas Pophale) SiO2 
 PCOD9325397
Probable space group: C 2 2 2
;
_chemical_formula_sum "Si O2"
_cell_formula_units_Z 40
_cell_length_a 15.743316
_cell_length_b 9.981779
_cell_length_c 11.940992
_cell_angle_alpha 90.000000
_cell_angle_beta 90.000000
_cell_angle_gamma 90.000000
_cell_volume 1876.482724
_symmetry_space_group_name_H-M "C 2 2 2"
_symmetry_group_IT_number 21
_symmetry_cell_setting 'orthorhombic'
loop_
_space_group_symop_operation_xyz
x,y,z
-x,-y,z
x,-y,-z
-x,y,-z
1/2+x,1/2+y,z
1/2-x,1/2-y,z
1/2+x,1/2-y,-z
1/2-x,1/2+y,-z
loop_
_atom_site_type_symbol
_atom_site_label
_atom_site_fract_x
_atom_site_fract_y
_atom_site_fract_z
Si Si1 0.802468 0.876356 0.583770
Si Si2 0.654286 0.796862 0.935102
Si Si3 0.266278 0.974823 0.793944
Si Si4 0.378304 0.734429 0.820078
Si Si5 0.547771 0.356537 0.253362
O O1 0.750000 0.750000 0.537678
O O2 0.896157 0.849979 0.634597
O O3 0.807264 0.000000 0.500000
O O4 0.750410 0.925908 0.692486
O O5 0.750000 0.750000 0.963069
O O6 0.609011 0.699748 0.845351
O O7 0.676894 0.941097 0.881935
O O8 0.605789 0.781411 0.052107
O O9 0.320083 0.845570 0.763599
O O10 0.175286 0.905975 0.826624
O O11 0.464564 0.733872 0.751653
O O12 0.500000 0.500000 0.235979
#
# Coordination Sequence:
#
# PCOD9325397 Si02
#       5
#     8   8   8   8   8
#     4  12  27  50  80 100 134 187 245 307 373 432
#     4  12  21  40  67 100 148 196 232 283 357 438
#     4  11  22  45  67  99 143 188 243 292 356 439
#     4  11  25  37  71 106 143 193 236 288 361 446
#     4  12  24  44  65 104 142 180 238 306 352 425
#
# _framework density 21.316476000000002
#
# number of rings (size 3 to 8) (size 9 to 14) (size 15 to 20)
#    0.000    0.400    8.000    1.200    2.800    4.400 
#    0.000    2.000    0.000    0.000    0.000    0.000 
#    0.000    0.000    0.000    0.000    0.000    0.000 
#
# Total GULP energy -111527.383115 kJ/mol
# GULP energy per Si atom -5576.369156 kJ/mol
# Density = 2.126796 g / cm^3
# Si number density = 21.316476 Si / 1000 Ang^3
#
#
#
# Elastic Constant Matrix: (Units=GPa)
#
#
# Indices 1 2 3 4 5 6 
#
# 1 137.9627 53.7471 43.0828 0.0000 0.0000 0.0000
# 2 53.7471 99.0927 27.8842 0.0000 0.0000 0.0000
# 3 43.0828 27.8842 56.1360 0.0000 0.0000 0.0000
# 4 0.0000 0.0000 0.0000 39.0407 0.0000 0.0000
# 5 0.0000 0.0000 0.0000 0.0000 16.0828 0.0000
# 6 0.0000 0.0000 0.0000 0.0000 0.0000 37.6056
#
#
#
# Elastic Compliance Matrix: (Units=1/GPa)
#
#
# Indices 1 2 3 4 5 6 
#
# 1 0.010796 -0.004097 -0.006251 0.000000 0.000000 0.000000
# 2 -0.004097 0.013286 -0.003455 0.000000 0.000000 0.000000
# 3 -0.006251 -0.003455 0.024328 0.000000 0.000000 0.000000
# 4 0.000000 0.000000 0.000000 0.025614 0.000000 0.000000
# 5 0.000000 0.000000 0.000000 0.000000 0.062178 0.000000
# 6 0.000000 0.000000 0.000000 0.000000 0.000000 0.026592
#
#
# Mechanical properties :
#
#
# Convention : Reuss Voigt Hill
#
# Bulk Modulus (GPa) = 48.06796 60.29108 54.17952
# Shear Modulus (GPa) = 25.33762 29.77764 27.55763
#
# Velocity S-wave (km/s) = 3.45141 3.74161 3.59943
# Velocity P-wave (km/s) = 6.20335 6.85648 6.53808
#
# Compressibility (1/GPa) = 0.02080388
#
# Stress axis : x y z
#
# Youngs Moduli (GPa) = 92.62330 75.26729 41.10566
#
# Poissons Ratio (x) = 0.30836 0.25695
# Poissons Ratio (y) = 0.37947 0.14203
# Poissons Ratio (z) = 0.57898 0.26007
#
# Static dielectric constant tensor:
#      x y z
#    x 1.829190 0.000000 0.000000 
#    y 0.000000 1.899470 0.000000 
#    z 0.000000 0.000000 1.782580 
# 
# From -- ./inp_files/32108.got.cif
#   From: 2010.05.17/outbox.cif.g08.bks.cpg/sg21_17_cif.got.tgz:32108.got - 2010.06.03 23:14:55.
