data_PCOD9325177
_publ_section_title
;
Structure prediction by ZEFSAII (Michael W. Deem and Ramdas Pophale) SiO2 
 PCOD9325177
Probable space group: C 2 2 2
;
_chemical_formula_sum "Si O2"
_cell_formula_units_Z 48
_cell_length_a 21.697227
_cell_length_b 12.259782
_cell_length_c 7.937157
_cell_angle_alpha 90.000000
_cell_angle_beta 90.000000
_cell_angle_gamma 90.000000
_cell_volume 2111.309741
_symmetry_space_group_name_H-M "C 2 2 2"
_symmetry_group_IT_number 21
_symmetry_cell_setting 'orthorhombic'
loop_
_space_group_symop_operation_xyz
x,y,z
-x,-y,z
x,-y,-z
-x,y,-z
1/2+x,1/2+y,z
1/2-x,1/2-y,z
1/2+x,1/2-y,-z
1/2-x,1/2+y,-z
loop_
_atom_site_type_symbol
_atom_site_label
_atom_site_fract_x
_atom_site_fract_y
_atom_site_fract_z
Si Si1 0.296478 0.163667 0.602651
Si Si2 0.534652 0.290715 0.816996
Si Si3 0.124361 0.623921 0.961977
Si Si4 0.763744 0.565921 0.249038
Si Si5 0.874521 0.982074 0.296291
Si Si6 0.094896 0.227405 0.720431
O O1 0.250000 0.250000 0.684738
O O2 0.270204 0.132346 0.421268
O O3 0.361297 0.224640 0.576380
O O4 0.294019 0.051931 0.707624
O O5 0.579321 0.186812 0.833751
O O6 0.573826 0.394775 0.756409
O O7 0.477562 0.266008 0.695143
O O8 0.500000 0.308319 0.000000
O O9 0.193895 0.619063 0.892683
O O10 0.104439 0.500000 0.000000
O O11 0.116654 0.696685 0.126757
O O12 0.691362 0.552110 0.220236
O O13 0.869372 0.000000 0.500000
O O14 0.890785 0.102883 0.235251
#
# Coordination Sequence:
#
# PCOD9325177 Si02
#       6
#     8   8   8   8   8   8
#     4  11  21  44  70 101 146 181 235 308 367 427
#     4  10  27  49  71 105 147 198 242 305 366 443
#     4  11  25  47  69 105 145 198 245 296 371 441
#     4  11  24  43  71 109 142 186 240 307 374 432
#     4  12  25  49  78 111 146 193 247 316 382 442
#     4  11  24  46  73 102 145 191 240 302 363 444
#
# _framework density 22.734705000000002
#
# number of rings (size 3 to 8) (size 9 to 14) (size 15 to 20)
#    0.000    1.000    5.000    0.500    4.667    9.000 
#   15.000    0.000    0.000    2.000    0.000    0.000 
#    0.000    0.000    0.000    0.000    0.000    0.000 
#
# Total GULP energy -134245.050118 kJ/mol
# GULP energy per Si atom -5593.543755 kJ/mol
# Density = 2.268296 g / cm^3
# Si number density = 22.734705 Si / 1000 Ang^3
#
#
#
# Elastic Constant Matrix: (Units=GPa)
#
#
# Indices 1 2 3 4 5 6 
#
# 1 142.7299 57.5076 38.9497 0.0000 0.0000 0.0000
# 2 57.5076 138.5462 38.1550 0.0000 0.0000 0.0000
# 3 38.9497 38.1550 50.7556 0.0000 0.0000 0.0000
# 4 0.0000 0.0000 0.0000 8.2047 0.0000 0.0000
# 5 0.0000 0.0000 0.0000 0.0000 25.4345 0.0000
# 6 0.0000 0.0000 0.0000 0.0000 0.0000 298.3722
#
#
#
# Elastic Compliance Matrix: (Units=1/GPa)
#
#
# Indices 1 2 3 4 5 6 
#
# 1 0.009471 -0.002433 -0.005439 0.000000 0.000000 0.000000
# 2 -0.002433 0.009727 -0.005445 0.000000 0.000000 0.000000
# 3 -0.005439 -0.005445 0.027969 0.000000 0.000000 0.000000
# 4 0.000000 0.000000 0.000000 0.121882 0.000000 0.000000
# 5 0.000000 0.000000 0.000000 0.000000 0.039317 0.000000
# 6 0.000000 0.000000 0.000000 0.000000 0.000000 0.003352
#
#
# Mechanical properties :
#
#
# Convention : Reuss Voigt Hill
#
# Bulk Modulus (GPa) = 48.70171 66.80626 57.75399
# Shear Modulus (GPa) = 20.39184 79.56358 49.97771
#
# Velocity S-wave (km/s) = 2.99816 5.92220 4.69369
# Velocity P-wave (km/s) = 5.78390 8.72996 7.40492
#
# Compressibility (1/GPa) = 0.02053316
#
# Stress axis : x y z
#
# Youngs Moduli (GPa) = 105.58749 102.80233 35.75371
#
# Poissons Ratio (x) = 0.25016 0.19445
# Poissons Ratio (y) = 0.25693 0.19468
# Poissons Ratio (z) = 0.57425 0.55977
#
# Static dielectric constant tensor:
#      x y z
#    x 1.899140 0.000000 0.000000 
#    y 0.000000 1.840270 0.000000 
#    z 0.000000 0.000000 1.650690 
# 
# From -- ./inp_files/18454.got.cif
#   From: 2010.05.17/outbox.cif.g08.bks.cpg/sg21_10_cif.got.tgz:18454.got - 2010.06.03 23:14:55.
