data_PCOD9325499
_publ_section_title
;
Structure prediction by ZEFSAII (Michael W. Deem and Ramdas Pophale) SiO2 
 PCOD9325499
Probable space group: C 2 2 2
;
_chemical_formula_sum "Si O2"
_cell_formula_units_Z 24
_cell_length_a 9.282607
_cell_length_b 13.226030
_cell_length_c 7.562567
_cell_angle_alpha 90.000000
_cell_angle_beta 90.000000
_cell_angle_gamma 90.000000
_cell_volume 928.471768
_symmetry_space_group_name_H-M "C 2 2 2"
_symmetry_group_IT_number 21
_symmetry_cell_setting 'orthorhombic'
loop_
_space_group_symop_operation_xyz
x,y,z
-x,-y,z
x,-y,-z
-x,y,-z
1/2+x,1/2+y,z
1/2-x,1/2-y,z
1/2+x,1/2-y,-z
1/2-x,1/2+y,-z
loop_
_atom_site_type_symbol
_atom_site_label
_atom_site_fract_x
_atom_site_fract_y
_atom_site_fract_z
Si Si1 0.832468 0.507236 0.788444
Si Si2 0.890916 0.710478 0.866296
Si Si3 0.561169 0.395957 0.697413
O O1 0.814056 0.627094 0.741502
O O2 0.731064 0.422903 0.700613
O O3 0.000000 0.500000 0.741843
O O4 0.801985 0.500000 0.000000
O O5 0.750000 0.750000 0.966661
O O6 0.992353 0.798096 0.789284
O O7 0.000000 0.656373 0.000000
O O8 0.500000 0.500000 0.782228
O O9 0.500000 0.391899 0.500000
#
# Coordination Sequence:
#
# PCOD9325499 Si02
#       3
#     8   8   8
#     4  11  23  46  76 116 151 193 262 333 390 458
#     4  12  24  44  77 110 146 199 262 321 395 465
#     4  11  26  48  71 107 158 207 250 311 398 471
#
# _framework density 25.848928999999998
#
# number of rings (size 3 to 8) (size 9 to 14) (size 15 to 20)
#    0.000    0.667    6.667    2.000    0.000    0.000 
#    6.000    3.333    0.000    0.000    0.000    0.000 
#    0.000    0.000    0.000    0.000    0.000    0.000 
#
# Total GULP energy -66900.897987 kJ/mol
# GULP energy per Si atom -5575.074832 kJ/mol
# Density = 2.579010 g / cm^3
# Si number density = 25.848929 Si / 1000 Ang^3
#
#
#
# Elastic Constant Matrix: (Units=GPa)
#
#
# Indices 1 2 3 4 5 6 
#
# 1 227.7804 50.9564 58.6017 0.0000 0.0000 0.0000
# 2 50.9564 171.7948 35.3413 0.0000 0.0000 0.0000
# 3 58.6017 35.3413 87.5774 0.0000 0.0000 0.0000
# 4 0.0000 0.0000 0.0000 12.4794 0.0000 0.0000
# 5 0.0000 0.0000 0.0000 0.0000 19.2539 0.0000
# 6 0.0000 0.0000 0.0000 0.0000 0.0000 43.2466
#
#
#
# Elastic Compliance Matrix: (Units=1/GPa)
#
#
# Indices 1 2 3 4 5 6 
#
# 1 0.005440 -0.000943 -0.003259 0.000000 0.000000 0.000000
# 2 -0.000943 0.006511 -0.001997 0.000000 0.000000 0.000000
# 3 -0.003259 -0.001997 0.014405 0.000000 0.000000 0.000000
# 4 0.000000 0.000000 0.000000 0.080132 0.000000 0.000000
# 5 0.000000 0.000000 0.000000 0.000000 0.051938 0.000000
# 6 0.000000 0.000000 0.000000 0.000000 0.000000 0.023123
#
#
# Mechanical properties :
#
#
# Convention : Reuss Voigt Hill
#
# Bulk Modulus (GPa) = 71.64229 86.32794 78.98511
# Shear Modulus (GPa) = 25.17623 37.81285 31.49454
#
# Velocity S-wave (km/s) = 3.12424 3.82886 3.49436
# Velocity P-wave (km/s) = 6.38674 7.28124 6.84861
#
# Compressibility (1/GPa) = 0.01395824
#
# Stress axis : x y z
#
# Youngs Moduli (GPa) = 183.83373 153.57834 69.41937
#
# Poissons Ratio (x) = 0.14482 0.22627
# Poissons Ratio (y) = 0.17335 0.13861
# Poissons Ratio (z) = 0.59919 0.30664
#
# Static dielectric constant tensor:
#      x y z
#    x 2.183290 0.000000 0.000000 
#    y 0.000000 2.349170 0.000000 
#    z 0.000000 0.000000 2.076410 
# 
# From -- ./inp_files/9733.got.cif
#   From: 2010.05.17/outbox.cif.g08.bks.cpg/sg21_5_cif.got.tgz:9733.got - 2010.06.03 23:14:55.
