data_PCOD9325413
_publ_section_title
;
Structure prediction by ZEFSAII (Michael W. Deem and Ramdas Pophale) SiO2 
 PCOD9325413
Probable space group: C 2 2 2
;
_chemical_formula_sum "Si O2"
_cell_formula_units_Z 40
_cell_length_a 12.559931
_cell_length_b 19.358367
_cell_length_c 8.005819
_cell_angle_alpha 90.000000
_cell_angle_beta 90.000000
_cell_angle_gamma 90.000000
_cell_volume 1946.532861
_symmetry_space_group_name_H-M "C 2 2 2"
_symmetry_group_IT_number 21
_symmetry_cell_setting 'orthorhombic'
loop_
_space_group_symop_operation_xyz
x,y,z
-x,-y,z
x,-y,-z
-x,y,-z
1/2+x,1/2+y,z
1/2-x,1/2-y,z
1/2+x,1/2-y,-z
1/2-x,1/2+y,-z
loop_
_atom_site_type_symbol
_atom_site_label
_atom_site_fract_x
_atom_site_fract_y
_atom_site_fract_z
Si Si1 0.422324 0.805064 0.802257
Si Si2 0.126051 0.766028 0.143444
Si Si3 0.753410 0.000000 0.500000
Si Si4 0.750000 0.250000 0.554066
Si Si5 0.385096 0.964911 0.828390
Si Si6 0.608877 0.630147 0.604516
O O1 0.545090 0.786777 0.761607
O O2 0.339337 0.789735 0.659098
O O3 0.405350 0.883605 0.858586
O O4 0.393812 0.751751 0.950264
O O5 0.250000 0.750000 0.168001
O O6 0.095112 0.842741 0.205422
O O7 0.683446 0.975150 0.340411
O O8 0.828358 0.939885 0.573069
O O9 0.683486 0.308599 0.462248
O O10 0.500000 0.000000 0.800118
O O11 0.341152 0.000000 0.000000
O O12 0.500000 0.629291 0.500000
#
# Coordination Sequence:
#
# PCOD9325413 Si02
#       6
#     8   8   4   4   8   8
#     4  11  24  44  67 105 138 173 236 296 351 420
#     4  11  23  38  70 100 133 177 225 288 354 412
#     4  12  28  46  72 100 144 202 232 284 360 434
#     4  12  22  42  68  96 136 172 226 298 336 402
#     4  11  25  45  71 106 146 183 232 294 360 433
#     4  12  26  45  67 103 139 184 237 289 353 427
#
# _framework density 20.549356
#
# number of rings (size 3 to 8) (size 9 to 14) (size 15 to 20)
#    0.000    0.600    6.000    3.000    5.600    0.000 
#    3.600    0.000    0.000    1.200    0.000    0.000 
#    0.000    0.000    0.000    0.000    0.000    0.000 
#
# Total GULP energy -111617.884480 kJ/mol
# GULP energy per Si atom -5580.894224 kJ/mol
# Density = 2.050259 g / cm^3
# Si number density = 20.549356 Si / 1000 Ang^3
#
#
#
# Elastic Constant Matrix: (Units=GPa)
#
#
# Indices 1 2 3 4 5 6 
#
# 1 127.0320 26.6620 38.7703 0.0000 0.0000 0.0000
# 2 26.6620 138.1372 49.3694 0.0000 0.0000 0.0000
# 3 38.7703 49.3694 95.9438 0.0000 0.0000 0.0000
# 4 0.0000 0.0000 0.0000 29.6912 0.0000 0.0000
# 5 0.0000 0.0000 0.0000 0.0000 16.7701 0.0000
# 6 0.0000 0.0000 0.0000 0.0000 0.0000 28.5185
#
#
#
# Elastic Compliance Matrix: (Units=1/GPa)
#
#
# Indices 1 2 3 4 5 6 
#
# 1 0.009012 -0.000537 -0.003366 0.000000 0.000000 0.000000
# 2 -0.000537 0.008902 -0.004364 0.000000 0.000000 0.000000
# 3 -0.003366 -0.004364 0.014028 0.000000 0.000000 0.000000
# 4 0.000000 0.000000 0.000000 0.033680 0.000000 0.000000
# 5 0.000000 0.000000 0.000000 0.000000 0.059630 0.000000
# 6 0.000000 0.000000 0.000000 0.000000 0.000000 0.035065
#
#
# Mechanical properties :
#
#
# Convention : Reuss Voigt Hill
#
# Bulk Modulus (GPa) = 64.89167 65.63515 65.26341
# Shear Modulus (GPa) = 27.47454 31.41671 29.44562
#
# Velocity S-wave (km/s) = 3.66047 3.91428 3.78950
# Velocity P-wave (km/s) = 7.03650 7.24144 7.13971
#
# Compressibility (1/GPa) = 0.01541030
#
# Stress axis : x y z
#
# Youngs Moduli (GPa) = 110.96549 112.32884 71.28418
#
# Poissons Ratio (x) = 0.06027 0.23991
# Poissons Ratio (y) = 0.05954 0.31109
# Poissons Ratio (z) = 0.37346 0.49021
#
# Static dielectric constant tensor:
#      x y z
#    x 1.812130 0.000000 0.000000 
#    y 0.000000 1.713600 0.000000 
#    z 0.000000 0.000000 1.873490 
# 
# From -- ./inp_files/12785.got.cif
#   From: 2010.05.17/outbox.cif.g08.bks.cpg/sg21_7_cif.got.tgz:12785.got - 2010.06.03 23:14:55.
