data_PCOD9325626
_publ_section_title
;
Structure prediction by ZEFSAII (Michael W. Deem and Ramdas Pophale) SiO2 
 PCOD9325626
Probable space group: C 2 2 2
;
_chemical_formula_sum "Si O2"
_cell_formula_units_Z 32
_cell_length_a 7.848738
_cell_length_b 30.047495
_cell_length_c 5.632870
_cell_angle_alpha 90.000000
_cell_angle_beta 90.000000
_cell_angle_gamma 90.000000
_cell_volume 1328.427422
_symmetry_space_group_name_H-M "C 2 2 2"
_symmetry_group_IT_number 21
_symmetry_cell_setting 'orthorhombic'
loop_
_space_group_symop_operation_xyz
x,y,z
-x,-y,z
x,-y,-z
-x,y,-z
1/2+x,1/2+y,z
1/2-x,1/2-y,z
1/2+x,1/2-y,-z
1/2-x,1/2+y,-z
loop_
_atom_site_type_symbol
_atom_site_label
_atom_site_fract_x
_atom_site_fract_y
_atom_site_fract_z
Si Si1 0.323495 0.048828 0.889949
Si Si2 0.000000 0.715995 0.000000
Si Si3 0.000000 0.107889 0.000000
Si Si4 0.500000 0.092123 0.500000
Si Si5 0.000000 0.230793 0.500000
Si Si6 0.738507 0.663726 0.283294
O O1 0.368272 0.057080 0.618366
O O2 0.159511 0.077309 0.942103
O O3 0.500000 0.067546 0.000000
O O4 0.304462 0.000000 0.000000
O O5 0.983132 0.743042 0.752072
O O6 0.166458 0.686076 0.942435
O O7 0.933819 0.139197 0.792739
O O8 0.371298 0.127529 0.378909
O O9 0.828789 0.201289 0.538555
#
# Coordination Sequence:
#
# PCOD9325626 Si02
#       6
#     8   4   4   4   4   8
#     4  11  25  48  80 113 156 200 253 326 394 469
#     4  12  29  52  76 119 161 220 267 339 410 480
#     4  12  24  50  78 117 156 200 270 321 394 478
#     4  12  25  51  80 113 154 210 264 323 400 478
#     4  12  29  50  78 117 165 216 273 337 408 482
#     4  12  27  47  81 113 158 211 268 333 398 476
#
# _framework density 24.088633999999999
#
# number of rings (size 3 to 8) (size 9 to 14) (size 15 to 20)
#    0.000    0.250    2.500    5.625    0.000   14.000 
#    0.000    0.000   11.000    0.000    0.000    0.000 
#    0.000    0.000    0.000    0.000    0.000    0.000 
#
# Total GULP energy -89405.777513 kJ/mol
# GULP energy per Si atom -5587.861095 kJ/mol
# Density = 2.403381 g / cm^3
# Si number density = 24.088634 Si / 1000 Ang^3
#
#
#
# Elastic Constant Matrix: (Units=GPa)
#
#
# Indices 1 2 3 4 5 6 
#
# 1 152.4267 72.1681 53.7710 0.0000 0.0000 0.0000
# 2 72.1681 159.2392 90.9115 0.0000 0.0000 0.0000
# 3 53.7710 90.9115 118.0237 0.0000 0.0000 0.0000
# 4 0.0000 0.0000 0.0000 33.6358 0.0000 0.0000
# 5 0.0000 0.0000 0.0000 0.0000 55.9752 0.0000
# 6 0.0000 0.0000 0.0000 0.0000 0.0000 81.9193
#
#
#
# Elastic Compliance Matrix: (Units=1/GPa)
#
#
# Indices 1 2 3 4 5 6 
#
# 1 0.008523 -0.002938 -0.001620 0.000000 0.000000 0.000000
# 2 -0.002938 0.012222 -0.008076 0.000000 0.000000 0.000000
# 3 -0.001620 -0.008076 0.015432 0.000000 0.000000 0.000000
# 4 0.000000 0.000000 0.000000 0.029730 0.000000 0.000000
# 5 0.000000 0.000000 0.000000 0.000000 0.017865 0.000000
# 6 0.000000 0.000000 0.000000 0.000000 0.000000 0.012207
#
#
# Mechanical properties :
#
#
# Convention : Reuss Voigt Hill
#
# Bulk Modulus (GPa) = 91.66688 95.93230 93.79959
# Shear Modulus (GPa) = 40.03756 48.49532 44.26644
#
# Velocity S-wave (km/s) = 4.08130 4.49174 4.29143
# Velocity P-wave (km/s) = 7.76827 8.17387 7.97365
#
# Compressibility (1/GPa) = 0.01090906
#
# Stress axis : x y z
#
# Youngs Moduli (GPa) = 117.33034 81.82072 64.80157
#
# Poissons Ratio (x) = 0.24036 0.10499
# Poissons Ratio (y) = 0.34468 0.52333
# Poissons Ratio (z) = 0.19010 0.66077
#
# Static dielectric constant tensor:
#      x y z
#    x 1.856280 0.000000 0.000000 
#    y 0.000000 1.937370 0.000000 
#    z 0.000000 0.000000 2.219370 
# 
# From -- ./inp_files/1629.got.cif
#   From: 2010.05.17/outbox.cif.g08.bks.cpg/sg21_1_cif.got.tgz:1629.got - 2010.06.03 23:14:55.
