data_PCOD9325922
_publ_section_title
;
Structure prediction by ZEFSAII (Michael W. Deem and Ramdas Pophale) SiO2 
 PCOD9325922
Probable space group: F 2 2 2
;
_chemical_formula_sum "Si O2"
_cell_formula_units_Z 68
_cell_length_a 18.738784
_cell_length_b 22.230458
_cell_length_c 7.788218
_cell_angle_alpha 90.000000
_cell_angle_beta 90.000000
_cell_angle_gamma 90.000000
_cell_volume 3244.351607
_symmetry_space_group_name_H-M "F 2 2 2"
_symmetry_group_IT_number 22
_symmetry_cell_setting 'orthorhombic'
loop_
_space_group_symop_operation_xyz
x,y,z
-x,-y,z
x,-y,-z
-x,y,-z
x,1/2+y,1/2+z
-x,1/2-y,1/2+z
x,1/2-y,1/2-z
-x,1/2+y,1/2-z
1/2+x,y,1/2+z
1/2-x,-y,1/2+z
1/2+x,-y,1/2-z
1/2-x,y,1/2-z
1/2+x,1/2+y,z
1/2-x,1/2-y,z
1/2+x,1/2-y,-z
1/2-x,1/2+y,-z
loop_
_atom_site_type_symbol
_atom_site_label
_atom_site_fract_x
_atom_site_fract_y
_atom_site_fract_z
Si Si1 0.673345 0.378681 0.684540
Si Si2 0.115223 0.250000 0.250000
Si Si3 0.500000 0.500000 0.500000
Si Si4 0.916626 0.429142 0.517553
Si Si5 0.906857 0.605953 0.841890
Si Si6 0.000000 0.290660 0.000000
O O1 0.750000 0.399668 0.750000
O O2 0.662599 0.308694 0.728596
O O3 0.654387 0.389316 0.486172
O O4 0.613098 0.409978 0.799770
O O5 0.060446 0.251253 0.090110
O O6 0.451657 0.545074 0.385783
O O7 0.906822 0.500000 0.500000
O O8 0.880634 0.397564 0.353055
O O9 0.000000 0.414798 0.500000
O O10 0.959226 0.663054 0.872048
#
# Coordination Sequence:
#
# PCOD9325922 Si02
#       6
#    16   8   4  16  16   8
#     4  11  25  42  58  89 130 173 206 253 322 384
#     4  10  21  38  64  86 125 160 210 266 314 371
#     4  10  16  36  66  88 124 150 192 272 316 336
#     4  11  22  39  68  95 118 161 211 265 319 374
#     4  10  20  37  60  93 126 154 207 260 312 376
#     4   9  20  33  60  98 115 154 203 276 314 348
#
# _framework density 20.959505
#
# number of rings (size 3 to 8) (size 9 to 14) (size 15 to 20)
#    0.000    1.647    0.000    7.412    4.941    0.941 
#    6.353    0.000    0.000    2.824    0.000    0.000 
#    0.000    0.000    0.000    0.000    0.000    0.000 
#
# Total GULP energy -95036.193695 kJ/mol
# GULP energy per Si atom -5590.364335 kJ/mol
# Density = 2.091180 g / cm^3
# Si number density = 20.959505 Si / 1000 Ang^3
#
#
#
# Elastic Constant Matrix: (Units=GPa)
#
#
# Indices 1 2 3 4 5 6 
#
# 1 61.5068 1.0882 7.1260 -0.0001 0.0001 0.0000
# 2 1.0882 42.2480 5.6721 -0.0002 0.0002 -0.0001
# 3 7.1260 5.6721 103.8356 -0.0004 0.0009 0.0001
# 4 -0.0001 -0.0002 -0.0004 25.3425 0.0003 0.0001
# 5 0.0001 0.0002 0.0009 0.0003 12.5428 0.0000
# 6 0.0000 -0.0001 0.0001 0.0001 0.0000 13.4411
#
#
#
# Elastic Compliance Matrix: (Units=1/GPa)
#
#
# Indices 1 2 3 4 5 6 
#
# 1 0.016392 -0.000273 -0.001110 0.000000 0.000000 0.000000
# 2 -0.000273 0.023849 -0.001284 0.000000 0.000000 0.000000
# 3 -0.001110 -0.001284 0.009777 0.000000 -0.000001 0.000000
# 4 0.000000 0.000000 0.000000 0.039459 -0.000001 0.000000
# 5 0.000000 0.000000 -0.000001 -0.000001 0.079727 0.000000
# 6 0.000000 0.000000 0.000000 0.000000 0.000000 0.074399
#
#
# Mechanical properties :
#
#
# Convention : Reuss Voigt Hill
#
# Bulk Modulus (GPa) = 22.37966 26.15144 24.26555
# Shear Modulus (GPa) = 18.95144 23.17888 21.06516
#
# Velocity S-wave (km/s) = 3.01024 3.32910 3.17368
# Velocity P-wave (km/s) = 4.77314 5.22316 5.00321
#
# Compressibility (1/GPa) = 0.04468344
#
# Stress axis : x y z
#
# Youngs Moduli (GPa) = 61.00610 41.93018 102.28159
#
# Poissons Ratio (x) = 0.01146 0.11353
# Poissons Ratio (y) = 0.01667 0.13133
# Poissons Ratio (z) = 0.06772 0.05384
#
# Static dielectric constant tensor:
#      x y z
#    x 1.759300 0.000000 0.000000 
#    y 0.000000 1.758710 0.000000 
#    z 0.000000 0.000000 1.784500 
# 
# From -- ./inp_files/11300.got.cif
#   From: 2010.05.17/outbox.cif.g08.bks.cpg/sg22_6_cif.got.tgz:11300.got - 2010.06.03 23:40:54.
