data_PCOD9325553
_publ_section_title
;
Structure prediction by ZEFSAII (Michael W. Deem and Ramdas Pophale) SiO2 
 PCOD9325553
Probable space group: C 2 2 2
;
_chemical_formula_sum "Si O2"
_cell_formula_units_Z 34
_cell_length_a 23.023247
_cell_length_b 11.239743
_cell_length_c 5.609605
_cell_angle_alpha 90.000000
_cell_angle_beta 90.000000
_cell_angle_gamma 90.000000
_cell_volume 1451.627662
_symmetry_space_group_name_H-M "C 2 2 2"
_symmetry_group_IT_number 21
_symmetry_cell_setting 'orthorhombic'
loop_
_space_group_symop_operation_xyz
x,y,z
-x,-y,z
x,-y,-z
-x,y,-z
1/2+x,1/2+y,z
1/2-x,1/2-y,z
1/2+x,1/2-y,-z
1/2-x,1/2+y,-z
loop_
_atom_site_type_symbol
_atom_site_label
_atom_site_fract_x
_atom_site_fract_y
_atom_site_fract_z
Si Si1 0.500000 0.500000 0.500000
Si Si2 0.737832 0.066569 0.745695
Si Si3 0.346830 0.712370 0.775671
Si Si4 0.938780 0.827732 0.867156
Si Si5 0.931312 0.634801 0.542431
O O1 0.456715 0.417792 0.656477
O O2 0.693346 0.171737 0.821067
O O3 0.799766 0.122665 0.669260
O O4 0.717768 0.000000 0.500000
O O5 0.745531 0.000000 0.000000
O O6 0.396864 0.770490 0.614850
O O7 0.382203 0.643143 0.980286
O O8 0.924384 0.690193 0.802164
O O9 0.000000 0.825929 0.000000
O O10 0.913292 0.500000 0.500000
O O11 0.000000 0.641490 0.500000
#
# Coordination Sequence:
#
# PCOD9325553 Si02
#       5
#     2   8   8   8   8
#     4  12  26  48  70 110 176 204 270 326 418 494
#     4  11  29  53  80 114 154 212 274 341 403 470
#     4  11  27  48  79 109 155 206 270 325 412 477
#     4  12  25  48  72 112 157 213 256 331 407 496
#     4  11  24  45  71 113 155 198 253 319 400 490
#
# _framework density 23.421984999999999
#
# number of rings (size 3 to 8) (size 9 to 14) (size 15 to 20)
#    0.000    0.706    3.529    1.059    9.882    5.647 
#    2.118    0.000    0.000    0.000    0.000    0.000 
#    0.000    0.000    0.000    0.000    0.000    0.000 
#
# Total GULP energy -94771.412911 kJ/mol
# GULP energy per Si atom -5574.788995 kJ/mol
# Density = 2.336868 g / cm^3
# Si number density = 23.421985 Si / 1000 Ang^3
#
#
#
# Elastic Constant Matrix: (Units=GPa)
#
#
# Indices 1 2 3 4 5 6 
#
# 1 166.4950 56.6120 42.3826 0.0000 0.0000 0.0000
# 2 56.6120 133.8386 60.5033 0.0000 0.0000 0.0000
# 3 42.3826 60.5033 84.9691 0.0000 0.0000 0.0000
# 4 0.0000 0.0000 0.0000 30.3827 0.0000 0.0000
# 5 0.0000 0.0000 0.0000 0.0000 93.1462 0.0000
# 6 0.0000 0.0000 0.0000 0.0000 0.0000 31.7520
#
#
#
# Elastic Compliance Matrix: (Units=1/GPa)
#
#
# Indices 1 2 3 4 5 6 
#
# 1 0.007264 -0.002116 -0.002117 0.000000 0.000000 0.000000
# 2 -0.002116 0.011635 -0.007229 0.000000 0.000000 0.000000
# 3 -0.002117 -0.007229 0.017973 0.000000 0.000000 0.000000
# 4 0.000000 0.000000 0.000000 0.032913 0.000000 0.000000
# 5 0.000000 0.000000 0.000000 0.000000 0.010736 0.000000
# 6 0.000000 0.000000 0.000000 0.000000 0.000000 0.031494
#
#
# Mechanical properties :
#
#
# Convention : Reuss Voigt Hill
#
# Bulk Modulus (GPa) = 71.69606 78.25538 74.97572
# Shear Modulus (GPa) = 35.81958 46.10984 40.96471
#
# Velocity S-wave (km/s) = 3.91489 4.44177 4.18662
# Velocity P-wave (km/s) = 7.14928 7.73236 7.44653
#
# Compressibility (1/GPa) = 0.01394777
#
# Stress axis : x y z
#
# Youngs Moduli (GPa) = 137.65595 85.94963 55.64020
#
# Poissons Ratio (x) = 0.18185 0.11779
# Poissons Ratio (y) = 0.29125 0.40224
# Poissons Ratio (z) = 0.29141 0.62135
#
# Static dielectric constant tensor:
#      x y z
#    x 1.936180 0.000000 0.000000 
#    y 0.000000 1.475190 0.000000 
#    z 0.000000 0.000000 2.021280 
# 
# From -- ./inp_files/2684.got.cif
#   From: 2010.05.17/outbox.cif.g08.bks.cpg/sg21_2_cif.got.tgz:2684.got - 2010.06.03 23:14:55.
