data_PCOD9325367
_publ_section_title
;
Structure prediction by ZEFSAII (Michael W. Deem and Ramdas Pophale) SiO2 
 PCOD9325367
Probable space group: C 2 2 2
;
_chemical_formula_sum "Si O2"
_cell_formula_units_Z 30
_cell_length_a 30.664699
_cell_length_b 7.073002
_cell_length_c 6.918936
_cell_angle_alpha 90.000000
_cell_angle_beta 90.000000
_cell_angle_gamma 90.000000
_cell_volume 1500.658251
_symmetry_space_group_name_H-M "C 2 2 2"
_symmetry_group_IT_number 21
_symmetry_cell_setting 'orthorhombic'
loop_
_space_group_symop_operation_xyz
x,y,z
-x,-y,z
x,-y,-z
-x,y,-z
1/2+x,1/2+y,z
1/2-x,1/2-y,z
1/2+x,1/2-y,-z
1/2-x,1/2+y,-z
loop_
_atom_site_type_symbol
_atom_site_label
_atom_site_fract_x
_atom_site_fract_y
_atom_site_fract_z
Si Si1 0.250000 0.750000 0.697122
Si Si2 0.135574 0.683691 0.136200
Si Si3 0.822319 0.500000 0.500000
Si Si4 0.461044 0.192876 0.874703
Si Si5 0.202559 0.000000 0.000000
Si Si6 0.500000 0.000000 0.500000
O O1 0.209888 0.662375 0.580142
O O2 0.232407 0.918456 0.830895
O O3 0.147208 0.599524 0.343733
O O4 0.087417 0.776143 0.129399
O O5 0.171970 0.831809 0.073503
O O6 0.137770 0.500000 0.000000
O O7 0.474471 0.133109 0.655649
O O8 0.500000 0.288306 0.000000
O O9 0.455248 0.000000 0.000000
#
# Coordination Sequence:
#
# PCOD9325367 Si02
#       6
#     4   8   4   8   4   2
#     4  12  24  42  64  94 124 166 214 256 324 372
#     4  11  22  41  62  96 126 165 210 257 311 370
#     4  12  23  40  66  93 126 164 211 262 310 373
#     4   8  16  30  56  86 123 159 200 245 306 368
#     4  12  24  44  65  90 126 170 207 262 314 376
#     4   8  12  28  52  90 114 160 194 250 296 352
#
# _framework density 19.991226000000001
#
# number of rings (size 3 to 8) (size 9 to 14) (size 15 to 20)
#    0.000    1.867    2.667    4.000    0.000    0.000 
#    0.000    0.667    0.000    0.000    0.000    0.000 
#    0.000    0.000    0.000    0.000    0.000    0.000 
#
# Total GULP energy -83649.646391 kJ/mol
# GULP energy per Si atom -5576.643093 kJ/mol
# Density = 1.994573 g / cm^3
# Si number density = 19.991226 Si / 1000 Ang^3
#
#
#
# Elastic Constant Matrix: (Units=GPa)
#
#
# Indices 1 2 3 4 5 6 
#
# 1 126.2652 20.4338 51.2072 0.0000 0.0000 0.0000
# 2 20.4338 58.8228 23.0838 0.0000 0.0000 0.0000
# 3 51.2072 23.0838 131.5670 0.0000 0.0000 0.0000
# 4 0.0000 0.0000 0.0000 31.0476 0.0000 0.0000
# 5 0.0000 0.0000 0.0000 0.0000 -75.0784 0.0000
# 6 0.0000 0.0000 0.0000 0.0000 0.0000 -166.0546
#
#
#
# Elastic Compliance Matrix: (Units=1/GPa)
#
#
# Indices 1 2 3 4 5 6 
#
# 1 0.009621 -0.002011 -0.003392 0.000000 0.000000 0.000000
# 2 -0.002011 0.018678 -0.002494 0.000000 0.000000 0.000000
# 3 -0.003392 -0.002494 0.009358 0.000000 0.000000 0.000000
# 4 0.000000 0.000000 0.000000 0.032209 0.000000 0.000000
# 5 0.000000 0.000000 0.000000 0.000000 -0.013319 0.000000
# 6 0.000000 0.000000 0.000000 0.000000 0.000000 -0.006022
#
#
# Mechanical properties :
#
#
# Convention : Reuss Voigt Hill
#
# Bulk Modulus (GPa) = 45.73993 56.23384 50.98689
# Shear Modulus (GPa) = 67.92958 -27.22173 20.35393
#
# Velocity S-wave (km/s) = 5.83553 -3.69410 3.19430
# Velocity P-wave (km/s) = 8.26646 3.16151 6.25817
#
# Compressibility (1/GPa) = 0.02186274
#
# Stress axis : x y z
#
# Youngs Moduli (GPa) = 103.94152 53.53994 106.85597
#
# Poissons Ratio (x) = 0.10767 0.36242
# Poissons Ratio (y) = 0.20903 0.26653
# Poissons Ratio (z) = 0.35253 0.13355
#
# Static dielectric constant tensor:
#      x y z
#    x 1.747600 0.000000 0.000000 
#    y 0.000000 1.702310 0.000000 
#    z 0.000000 0.000000 1.726410 
# 
# From -- ./inp_files/1532.got.cif
#   From: 2010.05.17/outbox.cif.g08.bks.cpg/sg21_1_cif.got.tgz:1532.got - 2010.06.03 23:14:55.
