data_PCOD9325460
_publ_section_title
;
Structure prediction by ZEFSAII (Michael W. Deem and Ramdas Pophale) SiO2 
 PCOD9325460
Probable space group: C 2 2 2
;
_chemical_formula_sum "Si O2"
_cell_formula_units_Z 24
_cell_length_a 11.431759
_cell_length_b 10.286584
_cell_length_c 10.009722
_cell_angle_alpha 90.000000
_cell_angle_beta 90.000000
_cell_angle_gamma 90.000000
_cell_volume 1177.080739
_symmetry_space_group_name_H-M "C 2 2 2"
_symmetry_group_IT_number 21
_symmetry_cell_setting 'orthorhombic'
loop_
_space_group_symop_operation_xyz
x,y,z
-x,-y,z
x,-y,-z
-x,y,-z
1/2+x,1/2+y,z
1/2-x,1/2-y,z
1/2+x,1/2-y,-z
1/2-x,1/2+y,-z
loop_
_atom_site_type_symbol
_atom_site_label
_atom_site_fract_x
_atom_site_fract_y
_atom_site_fract_z
Si Si1 0.500000 0.812650 0.500000
Si Si2 0.000000 0.500000 0.269269
Si Si3 0.223064 0.601833 0.117731
Si Si4 0.123906 0.075162 0.621270
O O1 0.550445 0.896168 0.376729
O O2 0.595081 0.718692 0.567942
O O3 0.906256 0.427484 0.176238
O O4 0.250000 0.750000 0.074414
O O5 0.306723 0.576660 0.243318
O O6 0.245033 0.500000 0.000000
O O7 0.185901 0.000000 0.500000
O O8 0.000000 0.000000 0.640877
#
# Coordination Sequence:
#
# PCOD9325460 Si02
#       4
#     4   4   8   8
#     4   9  19  40  72 102 131 173 238 308 348 411
#     4  11  23  42  72 106 136 184 236 306 364 420
#     4  12  27  46  68 103 149 193 241 292 364 442
#     4   9  21  42  68 103 136 179 238 301 364 418
#
# _framework density 20.389424999999999
#
# number of rings (size 3 to 8) (size 9 to 14) (size 15 to 20)
#    0.000    2.000    3.333    0.500    4.667    6.000 
#    6.000    0.000    0.000    0.000    0.000    0.000 
#    0.000    0.000    0.000    0.000    0.000    0.000 
#
# Total GULP energy -66982.473134 kJ/mol
# GULP energy per Si atom -5581.872761 kJ/mol
# Density = 2.034302 g / cm^3
# Si number density = 20.389425 Si / 1000 Ang^3
#
#
#
# Elastic Constant Matrix: (Units=GPa)
#
#
# Indices 1 2 3 4 5 6 
#
# 1 78.1118 45.6972 44.4163 0.0000 0.0000 0.0000
# 2 45.6972 161.1936 89.5167 0.0000 0.0000 0.0000
# 3 44.4163 89.5167 162.4292 0.0000 0.0000 0.0000
# 4 0.0000 0.0000 0.0000 40.3182 0.0000 0.0000
# 5 0.0000 0.0000 0.0000 0.0000 36.1797 0.0000
# 6 0.0000 0.0000 0.0000 0.0000 0.0000 16.4982
#
#
#
# Elastic Compliance Matrix: (Units=1/GPa)
#
#
# Indices 1 2 3 4 5 6 
#
# 1 0.016144 -0.003062 -0.002727 0.000000 0.000000 0.000000
# 2 -0.003062 0.009521 -0.004410 0.000000 0.000000 0.000000
# 3 -0.002727 -0.004410 0.009332 0.000000 0.000000 0.000000
# 4 0.000000 0.000000 0.000000 0.024803 0.000000 0.000000
# 5 0.000000 0.000000 0.000000 0.000000 0.027640 0.000000
# 6 0.000000 0.000000 0.000000 0.000000 0.000000 0.060613
#
#
# Mechanical properties :
#
#
# Convention : Reuss Voigt Hill
#
# Bulk Modulus (GPa) = 68.49512 84.55500 76.52506
# Shear Modulus (GPa) = 28.84886 33.40617 31.12752
#
# Velocity S-wave (km/s) = 3.76559 4.05211 3.91148
# Velocity P-wave (km/s) = 7.25070 7.96573 7.61661
#
# Compressibility (1/GPa) = 0.01459958
#
# Stress axis : x y z
#
# Youngs Moduli (GPa) = 61.94112 105.03457 107.15410
#
# Poissons Ratio (x) = 0.32166 0.29220
# Poissons Ratio (y) = 0.18969 0.47250
# Poissons Ratio (z) = 0.16891 0.46315
#
# Static dielectric constant tensor:
#      x y z
#    x 1.750660 0.000000 0.000000 
#    y 0.000000 1.776230 0.000000 
#    z 0.000000 0.000000 1.688980 
# 
# From -- ./inp_files/11875.got.cif
#   From: 2010.05.17/outbox.cif.g08.bks.cpg/sg21_6_cif.got.tgz:11875.got - 2010.06.03 23:14:55.
