data_PCOD9325147
_publ_section_title
;
Structure prediction by ZEFSAII (Michael W. Deem and Ramdas Pophale) SiO2 
 PCOD9325147
Probable space group: C 2 2 2
;
_chemical_formula_sum "Si O2"
_cell_formula_units_Z 44
_cell_length_a 23.316950
_cell_length_b 14.085817
_cell_length_c 6.224735
_cell_angle_alpha 90.000000
_cell_angle_beta 90.000000
_cell_angle_gamma 90.000000
_cell_volume 2044.441323
_symmetry_space_group_name_H-M "C 2 2 2"
_symmetry_group_IT_number 21
_symmetry_cell_setting 'orthorhombic'
loop_
_space_group_symop_operation_xyz
x,y,z
-x,-y,z
x,-y,-z
-x,y,-z
1/2+x,1/2+y,z
1/2-x,1/2-y,z
1/2+x,1/2-y,-z
1/2-x,1/2+y,-z
loop_
_atom_site_type_symbol
_atom_site_label
_atom_site_fract_x
_atom_site_fract_y
_atom_site_fract_z
Si Si1 0.000000 0.500000 0.000000
Si Si2 0.091932 0.915932 0.657773
Si Si3 0.653240 0.744865 0.102883
Si Si4 0.173736 0.385359 0.486478
Si Si5 0.750000 0.750000 0.761282
Si Si6 0.500000 0.717641 0.500000
Si Si7 0.566516 0.837648 0.787160
Si Si8 0.500000 0.500000 0.000000
O O1 0.042408 0.437330 0.859949
O O2 0.139923 0.849892 0.762994
O O3 0.055480 0.846593 0.507546
O O4 0.111602 0.000000 0.500000
O O5 0.044897 0.947594 0.838260
O O6 0.672703 0.832581 0.255164
O O7 0.698991 0.720922 0.920061
O O8 0.597066 0.780745 0.977397
O O9 0.177806 0.500000 0.500000
O O10 0.225302 0.335181 0.617092
O O11 0.114321 0.354049 0.603329
O O12 0.510856 0.782874 0.702825
#
# Coordination Sequence:
#
# PCOD9325147 Si02
#       8
#     2   8   8   8   4   4   8   2
#     4  12  24  40  60 114 136 192 232 268 340 418
#     4  12  24  40  68 101 141 186 236 278 342 406
#     4  11  24  49  70 101 138 185 228 292 347 411
#     4  11  24  47  76 101 136 178 228 293 343 412
#     4  10  26  48  76 100 134 178 232 294 358 400
#     4  12  21  43  62 102 144 192 221 282 333 412
#     4  11  25  39  69 100 147 183 230 276 341 415
#     4  12  22  42  64 100 144 190 226 286 328 420
#
# _framework density 21.521773
#
# number of rings (size 3 to 8) (size 9 to 14) (size 15 to 20)
#    0.000    0.727    3.636    3.818    2.545    2.182 
#    0.000    9.091    0.000    0.000    0.000    0.000 
#    0.000    0.000    0.000    0.000    0.000    0.000 
#
# Total GULP energy -122944.492986 kJ/mol
# GULP energy per Si atom -5588.386045 kJ/mol
# Density = 2.147279 g / cm^3
# Si number density = 21.521773 Si / 1000 Ang^3
#
#
#
# Elastic Constant Matrix: (Units=GPa)
#
#
# Indices 1 2 3 4 5 6 
#
# 1 71.1692 29.1514 23.3219 0.0000 0.0000 0.0000
# 2 29.1514 132.6721 41.2380 0.0000 0.0000 0.0000
# 3 23.3219 41.2380 84.1552 0.0000 0.0000 0.0000
# 4 0.0000 0.0000 0.0000 36.8908 0.0000 0.0000
# 5 0.0000 0.0000 0.0000 0.0000 26.1978 0.0000
# 6 0.0000 0.0000 0.0000 0.0000 0.0000 88.3977
#
#
#
# Elastic Compliance Matrix: (Units=1/GPa)
#
#
# Indices 1 2 3 4 5 6 
#
# 1 0.016152 -0.002545 -0.003229 0.000000 0.000000 0.000000
# 2 -0.002545 0.009293 -0.003848 0.000000 0.000000 0.000000
# 3 -0.003229 -0.003848 0.014663 0.000000 0.000000 0.000000
# 4 0.000000 0.000000 0.000000 0.027107 0.000000 0.000000
# 5 0.000000 0.000000 0.000000 0.000000 0.038171 0.000000
# 6 0.000000 0.000000 0.000000 0.000000 0.000000 0.011313
#
#
# Mechanical properties :
#
#
# Convention : Reuss Voigt Hill
#
# Bulk Modulus (GPa) = 47.93192 52.82433 50.37812
# Shear Modulus (GPa) = 34.99004 43.24961 39.11983
#
# Velocity S-wave (km/s) = 4.03649 4.48769 4.26806
# Velocity P-wave (km/s) = 6.63657 7.17289 6.90994
#
# Compressibility (1/GPa) = 0.02086293
#
# Stress axis : x y z
#
# Youngs Moduli (GPa) = 61.91300 107.61013 68.19714
#
# Poissons Ratio (x) = 0.27390 0.22020
# Poissons Ratio (y) = 0.15759 0.26244
# Poissons Ratio (z) = 0.19991 0.41412
#
# Static dielectric constant tensor:
#      x y z
#    x 1.764260 0.000000 0.000000 
#    y 0.000000 1.829230 0.000000 
#    z 0.000000 0.000000 1.940470 
# 
# From -- ./inp_files/7302.got.cif
#   From: 2010.05.17/outbox.cif.g08.bks.cpg/sg21_4_cif.got.tgz:7302.got - 2010.06.03 23:14:55.
