data_PCOD9325820
_publ_section_title
;
Structure prediction by ZEFSAII (Michael W. Deem and Ramdas Pophale) SiO2 
 PCOD9325820
Probable space group: C 2 2 2
;
_chemical_formula_sum "Si O2"
_cell_formula_units_Z 24
_cell_length_a 5.046674
_cell_length_b 8.751745
_cell_length_c 22.494633
_cell_angle_alpha 90.000000
_cell_angle_beta 90.000000
_cell_angle_gamma 90.000000
_cell_volume 993.525043
_symmetry_space_group_name_H-M "C 2 2 2"
_symmetry_group_IT_number 21
_symmetry_cell_setting 'orthorhombic'
loop_
_space_group_symop_operation_xyz
x,y,z
-x,-y,z
x,-y,-z
-x,y,-z
1/2+x,1/2+y,z
1/2-x,1/2-y,z
1/2+x,1/2-y,-z
1/2-x,1/2+y,-z
loop_
_atom_site_type_symbol
_atom_site_label
_atom_site_fract_x
_atom_site_fract_y
_atom_site_fract_z
Si Si1 0.500000 0.000000 0.000000
Si Si2 0.750000 0.750000 0.583269
Si Si3 0.250000 0.250000 0.082198
Si Si4 0.000000 0.000000 0.500000
Si Si5 0.750000 0.250000 0.666226
Si Si6 0.000000 0.000000 0.750161
Si Si7 0.750000 0.250000 0.168910
O O1 0.311360 0.893607 0.959974
O O2 0.674662 0.608317 0.541708
O O3 0.499503 0.785895 0.624608
O O4 0.499618 0.252493 0.125658
O O5 0.667428 0.388478 0.708485
O O6 0.197542 0.103116 0.789718
#
# Coordination Sequence:
#
# PCOD9325820 Si02
#       7
#     2   4   4   2   4   4   4
#     4  12  28  52  80 114 156 204 256 318 384 458
#     4  12  30  52  80 116 156 204 258 318 384 458
#     4  12  28  50  78 114 154 202 256 316 382 456
#     4  12  30  52  80 114 156 204 258 318 384 458
#     4  12  30  52  80 116 156 204 258 318 384 458
#     4  12  29  52  80 116 156 204 257 318 384 458
#     4  12  28  50  78 114 154 202 256 316 382 456
#
# _framework density 24.156412
#
# number of rings (size 3 to 8) (size 9 to 14) (size 15 to 20)
#    0.000    0.000    0.000    7.000    0.000   29.333 
#    0.000    0.000    0.000    0.000    0.000    0.000 
#    0.000    0.000    0.000    0.000    0.000    0.000 
#
# Total GULP energy -67445.297193 kJ/mol
# GULP energy per Si atom -5620.441433 kJ/mol
# Density = 2.410143 g / cm^3
# Si number density = 24.156412 Si / 1000 Ang^3
#
#
#
# Elastic Constant Matrix: (Units=GPa)
#
#
# Indices 1 2 3 4 5 6 
#
# 1 241.6754 111.7845 141.0593 0.0000 0.0000 0.0000
# 2 111.7845 228.7331 149.6711 0.0000 0.0000 0.0000
# 3 141.0593 149.6711 227.5286 0.0000 0.0000 0.0000
# 4 0.0000 0.0000 0.0000 23.9670 0.0000 0.0000
# 5 0.0000 0.0000 0.0000 0.0000 -2.1813 0.0000
# 6 0.0000 0.0000 0.0000 0.0000 0.0000 57.6357
#
#
#
# Elastic Compliance Matrix: (Units=1/GPa)
#
#
# Indices 1 2 3 4 5 6 
#
# 1 0.006603 -0.000963 -0.003460 0.000000 0.000000 0.000000
# 2 -0.000963 0.007816 -0.004545 0.000000 0.000000 0.000000
# 3 -0.003460 -0.004545 0.009530 0.000000 0.000000 0.000000
# 4 0.000000 0.000000 0.000000 0.041724 0.000000 0.000000
# 5 0.000000 0.000000 0.000000 0.000000 -0.458437 0.000000
# 6 0.000000 0.000000 0.000000 0.000000 0.000000 0.017350
#
#
# Mechanical properties :
#
#
# Convention : Reuss Voigt Hill
#
# Bulk Modulus (GPa) = 166.29213 166.99631 166.64422
# Shear Modulus (GPa) = -14.06574 35.57911 10.75669
#
# Velocity S-wave (km/s) = -2.41566 3.84195 2.11249
# Velocity P-wave (km/s) = 7.82359 9.43198 8.66518
#
# Compressibility (1/GPa) = 0.00601351
#
# Stress axis : x y z
#
# Youngs Moduli (GPa) = 151.45469 127.93842 104.93332
#
# Poissons Ratio (x) = 0.12316 0.36309
# Poissons Ratio (y) = 0.14580 0.47690
# Poissons Ratio (z) = 0.52406 0.58146
#
# Static dielectric constant tensor:
#      x y z
#    x 1.858580 0.000000 0.000000 
#    y 0.000000 1.908000 0.000000 
#    z 0.000000 0.000000 1.900580 
# 
# From -- ./inp_files/38022.got.cif
#   From: 2010.05.17/outbox.cif.g08.bks.cpg/sg21_20_cif.got.tgz:38022.got - 2010.06.03 23:14:55.
