data_PCOD9325140
_publ_section_title
;
Structure prediction by ZEFSAII (Michael W. Deem and Ramdas Pophale) SiO2 
 PCOD9325140
Probable space group: C 2 2 2
;
_chemical_formula_sum "Si O2"
_cell_formula_units_Z 40
_cell_length_a 8.796555
_cell_length_b 14.148690
_cell_length_c 13.704976
_cell_angle_alpha 90.000000
_cell_angle_beta 90.000000
_cell_angle_gamma 90.000000
_cell_volume 1705.717609
_symmetry_space_group_name_H-M "C 2 2 2"
_symmetry_group_IT_number 21
_symmetry_cell_setting 'orthorhombic'
loop_
_space_group_symop_operation_xyz
x,y,z
-x,-y,z
x,-y,-z
-x,y,-z
1/2+x,1/2+y,z
1/2-x,1/2-y,z
1/2+x,1/2-y,-z
1/2-x,1/2+y,-z
loop_
_atom_site_type_symbol
_atom_site_label
_atom_site_fract_x
_atom_site_fract_y
_atom_site_fract_z
Si Si1 0.000000 0.764668 0.500000
Si Si2 0.500000 0.500000 0.233687
Si Si3 0.981374 0.192032 0.861889
Si Si4 0.000000 0.500000 0.331815
Si Si5 0.197746 0.928957 0.587903
Si Si6 0.594894 0.194408 0.297350
Si Si7 0.250000 0.750000 0.005097
O O1 0.875533 0.831750 0.447457
O O2 0.922289 0.707985 0.586964
O O3 0.544062 0.410632 0.167379
O O4 0.623994 0.539251 0.309865
O O5 0.963879 0.251758 0.762877
O O6 0.105443 0.254636 0.922195
O O7 0.829076 0.179065 0.926240
O O8 0.124375 0.442449 0.393468
O O9 0.086959 0.583468 0.274748
O O10 0.161169 0.000000 0.500000
O O11 0.750000 0.250000 0.272917
#
# Coordination Sequence:
#
# PCOD9325140 Si02
#       7
#     4   4   8   4   8   8   4
#     4  12  25  43  74 102 158 210 250 306 378 452
#     4  12  23  45  80 104 146 202 256 304 400 472
#     4  11  24  49  75 106 142 194 243 326 388 465
#     4  12  31  42  70 109 152 208 268 315 372 455
#     4  12  23  44  67 111 149 201 256 314 369 468
#     4  12  27  48  72 109 160 204 254 321 384 454
#     4  10  26  46  72 104 142 180 256 314 396 466
#
# _framework density 23.450541999999999
#
# number of rings (size 3 to 8) (size 9 to 14) (size 15 to 20)
#    0.000    0.400    5.000    2.700    8.400    1.600 
#    0.000    2.000    0.000    3.600    0.000    0.000 
#    0.000    0.000    0.000    0.000    0.000    0.000 
#
# Total GULP energy -111538.982726 kJ/mol
# GULP energy per Si atom -5576.949136 kJ/mol
# Density = 2.339717 g / cm^3
# Si number density = 23.450542 Si / 1000 Ang^3
#
#
#
# Elastic Constant Matrix: (Units=GPa)
#
#
# Indices 1 2 3 4 5 6 
#
# 1 112.2410 38.3001 23.5586 0.0000 0.0000 0.0000
# 2 38.3001 141.2805 26.6478 0.0000 0.0000 0.0000
# 3 23.5586 26.6478 111.4596 0.0000 0.0000 0.0000
# 4 0.0000 0.0000 0.0000 -3.1921 0.0000 0.0000
# 5 0.0000 0.0000 0.0000 0.0000 46.1368 0.0000
# 6 0.0000 0.0000 0.0000 0.0000 0.0000 28.6834
#
#
#
# Elastic Compliance Matrix: (Units=1/GPa)
#
#
# Indices 1 2 3 4 5 6 
#
# 1 0.010065 -0.002437 -0.001545 0.000000 0.000000 0.000000
# 2 -0.002437 0.008003 -0.001398 0.000000 0.000000 0.000000
# 3 -0.001545 -0.001398 0.009633 0.000000 0.000000 0.000000
# 4 0.000000 0.000000 0.000000 -0.313271 0.000000 0.000000
# 5 0.000000 0.000000 0.000000 0.000000 0.021675 0.000000
# 6 0.000000 0.000000 0.000000 0.000000 0.000000 0.034863
#
#
# Mechanical properties :
#
#
# Convention : Reuss Voigt Hill
#
# Bulk Modulus (GPa) = 59.03100 60.22155 59.62627
# Shear Modulus (GPa) = -23.51547 32.75725 4.62089
#
# Velocity S-wave (km/s) = -3.17009 3.74152 1.40526
# Velocity P-wave (km/s) = 3.43917 6.66343 5.30232
#
# Compressibility (1/GPa) = 0.01694025
#
# Stress axis : x y z
#
# Youngs Moduli (GPa) = 99.35122 124.96022 103.81388
#
# Poissons Ratio (x) = 0.30456 0.16037
# Poissons Ratio (y) = 0.24215 0.14514
# Poissons Ratio (z) = 0.15347 0.17471
#
# Static dielectric constant tensor:
#      x y z
#    x 2.050290 0.000000 0.000000 
#    y 0.000000 1.888190 0.000000 
#    z 0.000000 0.000000 1.909160 
# 
# From -- ./inp_files/30275.got.cif
#   From: 2010.05.17/outbox.cif.g08.bks.cpg/sg21_16_cif.got.tgz:30275.got - 2010.06.03 23:14:55.
