data_PCOD9325764
_publ_section_title
;
Structure prediction by ZEFSAII (Michael W. Deem and Ramdas Pophale) SiO2 
 PCOD9325764
Probable space group: C 2 2 2
;
_chemical_formula_sum "Si O2"
_cell_formula_units_Z 22
_cell_length_a 14.280158
_cell_length_b 4.880208
_cell_length_c 12.787396
_cell_angle_alpha 90.000000
_cell_angle_beta 90.000000
_cell_angle_gamma 90.000000
_cell_volume 891.155434
_symmetry_space_group_name_H-M "C 2 2 2"
_symmetry_group_IT_number 21
_symmetry_cell_setting 'orthorhombic'
loop_
_space_group_symop_operation_xyz
x,y,z
-x,-y,z
x,-y,-z
-x,y,-z
1/2+x,1/2+y,z
1/2-x,1/2-y,z
1/2+x,1/2-y,-z
1/2-x,1/2+y,-z
loop_
_atom_site_type_symbol
_atom_site_label
_atom_site_fract_x
_atom_site_fract_y
_atom_site_fract_z
Si Si1 0.656242 0.175104 0.351616
Si Si2 0.602008 0.640228 0.215023
Si Si3 0.500000 0.000000 0.500000
Si Si4 0.313746 0.500000 0.000000
O O1 0.750000 0.250000 0.417527
O O2 0.667350 0.422688 0.271085
O O3 0.624974 0.916716 0.278303
O O4 0.569238 0.183319 0.430685
O O5 0.500000 0.500000 0.226552
O O6 0.626663 0.638273 0.092812
O O7 0.250000 0.750000 0.041334
#
# Coordination Sequence:
#
# PCOD9325764 Si02
#       4
#     8   8   2   4
#     4  12  27  48  77 109 153 201 257 330 392 462
#     4  12  24  48  73 109 151 200 254 318 390 463
#     4  12  28  54  76 114 152 206 280 322 404 462
#     4  12  25  42  71 110 150 198 252 311 386 475
#
# _framework density 24.687052999999999
#
# number of rings (size 3 to 8) (size 9 to 14) (size 15 to 20)
#    0.000    0.000    3.636    7.091    0.000    5.818 
#    0.000    5.455    0.000    0.000    0.000    0.000 
#    0.000    0.000    0.000    0.000    0.000    0.000 
#
# Total GULP energy -61360.016118 kJ/mol
# GULP energy per Si atom -5578.183283 kJ/mol
# Density = 2.463086 g / cm^3
# Si number density = 24.687053 Si / 1000 Ang^3
#
#
#
# Elastic Constant Matrix: (Units=GPa)
#
#
# Indices 1 2 3 4 5 6 
#
# 1 152.7086 2.0495 50.9364 0.0000 0.0000 0.0000
# 2 2.0495 105.0757 47.2073 0.0000 0.0000 0.0000
# 3 50.9364 47.2073 138.5281 0.0000 0.0000 0.0000
# 4 0.0000 0.0000 0.0000 35.0381 0.0000 0.0000
# 5 0.0000 0.0000 0.0000 0.0000 1.1988 0.0000
# 6 0.0000 0.0000 0.0000 0.0000 0.0000 39.5159
#
#
#
# Elastic Compliance Matrix: (Units=1/GPa)
#
#
# Indices 1 2 3 4 5 6 
#
# 1 0.007613 0.001310 -0.003246 0.000000 0.000000 0.000000
# 2 0.001310 0.011463 -0.004388 0.000000 0.000000 0.000000
# 3 -0.003246 -0.004388 0.009907 0.000000 0.000000 0.000000
# 4 0.000000 0.000000 0.000000 0.028540 0.000000 0.000000
# 5 0.000000 0.000000 0.000000 0.000000 0.834174 0.000000
# 6 0.000000 0.000000 0.000000 0.000000 0.000000 0.025306
#
#
# Mechanical properties :
#
#
# Convention : Reuss Voigt Hill
#
# Bulk Modulus (GPa) = 61.21475 66.29988 63.75731
# Shear Modulus (GPa) = 5.34704 34.89183 20.11943
#
# Velocity S-wave (km/s) = 1.47331 3.76355 2.85788
# Velocity P-wave (km/s) = 5.26729 6.76759 6.06401
#
# Compressibility (1/GPa) = 0.01633593
#
# Stress axis : x y z
#
# Youngs Moduli (GPa) = 131.34599 87.23937 100.93378
#
# Poissons Ratio (x) = -0.11426 0.32761
# Poissons Ratio (y) = -0.17203 0.44288
# Poissons Ratio (z) = 0.42632 0.38279
#
# Static dielectric constant tensor:
#      x y z
#    x 2.112150 0.000000 0.000000 
#    y 0.000000 1.937370 0.000000 
#    z 0.000000 0.000000 1.985810 
# 
# From -- ./inp_files/24586.got.cif
#   From: 2010.05.17/outbox.cif.g08.bks.cpg/sg21_13_cif.got.tgz:24586.got - 2010.06.03 23:14:55.
