data_PCOD9325202
_publ_section_title
;
Structure prediction by ZEFSAII (Michael W. Deem and Ramdas Pophale) SiO2 
 PCOD9325202
Probable space group: C 2 2 2
;
_chemical_formula_sum "Si O2"
_cell_formula_units_Z 40
_cell_length_a 12.736334
_cell_length_b 17.436876
_cell_length_c 7.677941
_cell_angle_alpha 90.000000
_cell_angle_beta 90.000000
_cell_angle_gamma 90.000000
_cell_volume 1705.131546
_symmetry_space_group_name_H-M "C 2 2 2"
_symmetry_group_IT_number 21
_symmetry_cell_setting 'orthorhombic'
loop_
_space_group_symop_operation_xyz
x,y,z
-x,-y,z
x,-y,-z
-x,y,-z
1/2+x,1/2+y,z
1/2-x,1/2-y,z
1/2+x,1/2-y,-z
1/2-x,1/2+y,-z
loop_
_atom_site_type_symbol
_atom_site_label
_atom_site_fract_x
_atom_site_fract_y
_atom_site_fract_z
Si Si1 0.867175 0.211755 0.755792
Si Si2 0.808960 0.173475 0.134286
Si Si3 0.885085 0.588131 0.039214
Si Si4 0.324180 0.408338 0.530074
Si Si5 0.396999 0.864529 0.583719
O O1 0.750000 0.250000 0.745429
O O2 0.871347 0.136873 0.635563
O O3 0.928313 0.279895 0.657272
O O4 0.877674 0.195515 0.962059
O O5 0.750000 0.250000 0.201654
O O6 0.866574 0.126142 0.286688
O O7 0.712240 0.124495 0.058696
O O8 0.864204 0.593095 0.242246
O O9 0.890890 0.500000 0.000000
O O10 0.000000 0.623634 0.000000
O O11 0.330892 0.500000 0.500000
O O12 0.202978 0.377981 0.537585
O O13 0.500000 0.898852 0.500000
#
# Coordination Sequence:
#
# PCOD9325202 Si02
#       5
#     8   8   8   8   8
#     4   9  19  38  55  80 115 152 208 248 287 354
#     4  11  19  36  60  77 118 169 204 248 287 354
#     4  11  22  35  53  88 126 159 196 242 308 372
#     4  11  22  34  57  89 118 155 200 242 310 360
#     4  11  21  39  57  83 123 159 203 253 298 368
#
# _framework density 23.458601999999999
#
# number of rings (size 3 to 8) (size 9 to 14) (size 15 to 20)
#    0.000    1.400    6.000    4.200    0.000    2.000 
#    0.000    0.000    0.000    0.600    0.000    0.000 
#    0.000    0.800    0.000    0.000    0.000    0.000 
#
# Total GULP energy -111670.331946 kJ/mol
# GULP energy per Si atom -5583.516597 kJ/mol
# Density = 2.340521 g / cm^3
# Si number density = 23.458602 Si / 1000 Ang^3
#
#
#
# Elastic Constant Matrix: (Units=GPa)
#
#
# Indices 1 2 3 4 5 6 
#
# 1 47.7130 -4.7236 1.9743 0.0000 0.0000 0.0000
# 2 -4.7236 177.6286 67.7693 0.0000 0.0000 0.0000
# 3 1.9743 67.7693 155.0095 0.0000 0.0000 0.0000
# 4 0.0000 0.0000 0.0000 30.3441 0.0000 0.0000
# 5 0.0000 0.0000 0.0000 0.0000 18.1112 0.0000
# 6 0.0000 0.0000 0.0000 0.0000 0.0000 -100.4388
#
#
#
# Elastic Compliance Matrix: (Units=1/GPa)
#
#
# Indices 1 2 3 4 5 6 
#
# 1 0.021063 0.000795 -0.000616 0.000000 0.000000 0.000000
# 2 0.000795 0.006787 -0.002977 0.000000 0.000000 0.000000
# 3 -0.000616 -0.002977 0.007761 0.000000 0.000000 0.000000
# 4 0.000000 0.000000 0.000000 0.032955 0.000000 0.000000
# 5 0.000000 0.000000 0.000000 0.000000 0.055214 0.000000
# 6 0.000000 0.000000 0.000000 0.000000 0.000000 -0.009956
#
#
# Mechanical properties :
#
#
# Convention : Reuss Voigt Hill
#
# Bulk Modulus (GPa) = 33.31755 56.71013 45.01384
# Shear Modulus (GPa) = 38.63252 10.62537 24.62895
#
# Velocity S-wave (km/s) = 4.06253 2.13055 3.24372
# Velocity P-wave (km/s) = 6.01989 5.50267 5.76708
#
# Compressibility (1/GPa) = 0.03001421
#
# Stress axis : x y z
#
# Youngs Moduli (GPa) = 47.47695 147.34577 128.85431
#
# Poissons Ratio (x) = -0.11715 0.07936
# Poissons Ratio (y) = -0.03775 0.38363
# Poissons Ratio (z) = 0.02924 0.43869
#
# Static dielectric constant tensor:
#      x y z
#    x 2.017670 0.000000 0.000000 
#    y 0.000000 1.923430 0.000000 
#    z 0.000000 0.000000 2.376100 
# 
# From -- ./inp_files/14539.got.cif
#   From: 2010.05.17/outbox.cif.g08.bks.cpg/sg21_8_cif.got.tgz:14539.got - 2010.06.03 23:14:55.
