data_PCOD9325234
_publ_section_title
;
Structure prediction by ZEFSAII (Michael W. Deem and Ramdas Pophale) SiO2 
 PCOD9325234
Probable space group: C 2 2 2
;
_chemical_formula_sum "Si O2"
_cell_formula_units_Z 28
_cell_length_a 10.909045
_cell_length_b 15.190591
_cell_length_c 7.924419
_cell_angle_alpha 90.000000
_cell_angle_beta 90.000000
_cell_angle_gamma 90.000000
_cell_volume 1313.193833
_symmetry_space_group_name_H-M "C 2 2 2"
_symmetry_group_IT_number 21
_symmetry_cell_setting 'orthorhombic'
loop_
_space_group_symop_operation_xyz
x,y,z
-x,-y,z
x,-y,-z
-x,y,-z
1/2+x,1/2+y,z
1/2-x,1/2-y,z
1/2+x,1/2-y,-z
1/2-x,1/2+y,-z
loop_
_atom_site_type_symbol
_atom_site_label
_atom_site_fract_x
_atom_site_fract_y
_atom_site_fract_z
Si Si1 0.815168 0.543268 0.318883
Si Si2 0.250000 0.250000 0.841998
Si Si3 0.864432 0.099978 0.939947
Si Si4 0.951983 0.627990 0.806773
O O1 0.795316 0.500000 0.500000
O O2 0.693050 0.589383 0.246477
O O3 0.869626 0.460815 0.209894
O O4 0.927932 0.611469 0.307067
O O5 0.130607 0.288867 0.749940
O O6 0.217802 0.168907 0.961969
O O7 0.000000 0.127116 0.000000
O O8 0.854904 0.000000 0.000000
O O9 0.000000 0.638713 0.000000
#
# Coordination Sequence:
#
# PCOD9325234 Si02
#       4
#     8   4   8   8
#     4  11  22  42  71  99 136 185 238 293 363 423
#     4  12  22  38  70 106 134 176 254 296 334 410
#     4  11  23  42  67  97 134 185 240 292 350 421
#     4  11  20  38  69 102 127 181 241 293 335 416
#
# _framework density 21.322061000000001
#
# number of rings (size 3 to 8) (size 9 to 14) (size 15 to 20)
#    0.000    0.857    5.714    4.286    0.000    0.000 
#    0.000    4.286    6.286    0.000    0.000    0.000 
#    0.000    0.000    0.000    0.000    0.000    0.000 
#
# Total GULP energy -77980.650495 kJ/mol
# GULP energy per Si atom -5570.046464 kJ/mol
# Density = 2.127353 g / cm^3
# Si number density = 21.322061 Si / 1000 Ang^3
#
#
#
# Elastic Constant Matrix: (Units=GPa)
#
#
# Indices 1 2 3 4 5 6 
#
# 1 142.4652 25.8357 66.3940 0.0000 0.0000 0.0000
# 2 25.8357 74.3911 4.0515 0.0000 0.0000 0.0000
# 3 66.3940 4.0515 64.9423 0.0000 0.0000 0.0000
# 4 0.0000 0.0000 0.0000 12.4001 0.0000 0.0000
# 5 0.0000 0.0000 0.0000 0.0000 23.8066 0.0000
# 6 0.0000 0.0000 0.0000 0.0000 0.0000 44.8760
#
#
#
# Elastic Compliance Matrix: (Units=1/GPa)
#
#
# Indices 1 2 3 4 5 6 
#
# 1 0.014654 -0.004288 -0.014714 0.000000 0.000000 0.000000
# 2 -0.004288 0.014743 0.003464 0.000000 0.000000 0.000000
# 3 -0.014714 0.003464 0.030226 0.000000 0.000000 0.000000
# 4 0.000000 0.000000 0.000000 0.080645 0.000000 0.000000
# 5 0.000000 0.000000 0.000000 0.000000 0.042005 0.000000
# 6 0.000000 0.000000 0.000000 0.000000 0.000000 0.022284
#
#
# Mechanical properties :
#
#
# Convention : Reuss Voigt Hill
#
# Bulk Modulus (GPa) = 35.03091 52.70680 43.86885
# Shear Modulus (GPa) = 20.39582 28.58435 24.49008
#
# Velocity S-wave (km/s) = 3.09618 3.66539 3.39275
# Velocity P-wave (km/s) = 5.40804 6.53349 5.99722
#
# Compressibility (1/GPa) = 0.02854622
#
# Stress axis : x y z
#
# Youngs Moduli (GPa) = 68.23927 67.82876 33.08465
#
# Poissons Ratio (x) = 0.29085 0.48682
# Poissons Ratio (y) = 0.29261 -0.11461
# Poissons Ratio (z) = 1.00410 -0.23496
#
# Static dielectric constant tensor:
#      x y z
#    x 1.969060 0.000000 0.000000 
#    y 0.000000 1.777690 0.000000 
#    z 0.000000 0.000000 1.808390 
# 
# From -- ./inp_files/12003.got.cif
#   From: 2010.05.17/outbox.cif.g08.bks.cpg/sg21_7_cif.got.tgz:12003.got - 2010.06.03 23:14:55.
