data_PCOD9325423
_publ_section_title
;
Structure prediction by ZEFSAII (Michael W. Deem and Ramdas Pophale) SiO2 
 PCOD9325423
Probable space group: C 2 2 2
;
_chemical_formula_sum "Si O2"
_cell_formula_units_Z 36
_cell_length_a 15.922653
_cell_length_b 25.461372
_cell_length_c 4.865064
_cell_angle_alpha 90.000000
_cell_angle_beta 90.000000
_cell_angle_gamma 90.000000
_cell_volume 1972.358203
_symmetry_space_group_name_H-M "C 2 2 2"
_symmetry_group_IT_number 21
_symmetry_cell_setting 'orthorhombic'
loop_
_space_group_symop_operation_xyz
x,y,z
-x,-y,z
x,-y,-z
-x,y,-z
1/2+x,1/2+y,z
1/2-x,1/2-y,z
1/2+x,1/2-y,-z
1/2-x,1/2+y,-z
loop_
_atom_site_type_symbol
_atom_site_label
_atom_site_fract_x
_atom_site_fract_y
_atom_site_fract_z
Si Si1 0.596410 0.941652 0.603552
Si Si2 0.500000 0.795787 0.000000
Si Si3 0.417450 0.292255 0.618853
Si Si4 0.800033 0.197185 0.908179
Si Si5 0.355875 0.877409 0.873624
O O1 0.500000 0.934445 0.500000
O O2 0.648872 0.900862 0.427962
O O3 0.618476 0.000000 0.500000
O O4 0.613827 0.923771 0.916230
O O5 0.543261 0.760192 0.764190
O O6 0.427631 0.833078 0.884282
O O7 0.500000 0.320029 0.500000
O O8 0.348598 0.288388 0.375683
O O9 0.370827 0.317800 0.873721
O O10 0.750000 0.250000 0.994667
O O11 0.731848 0.151322 0.918021
#
# Coordination Sequence:
#
# PCOD9325423 Si02
#       5
#     8   4   8   8   8
#     4  11  23  40  60  84 117 159 205 252 292 348
#     4  12  24  36  59  80 122 170 199 238 276 366
#     4  12  23  39  55  77 120 164 198 238 291 340
#     4  12  24  36  56  85 120 153 203 248 284 347
#     4  12  24  38  60  87 119 159 209 238 296 353
#
# _framework density 18.252262000000002
#
# number of rings (size 3 to 8) (size 9 to 14) (size 15 to 20)
#    0.000    0.222    6.667    2.667    6.222    1.778 
#    0.000    0.000    0.000    0.000    0.000    0.000 
#    0.000   62.222    0.000    0.000    0.000    0.000 
#
# Total GULP energy -100415.843095 kJ/mol
# GULP energy per Si atom -5578.657950 kJ/mol
# Density = 1.821072 g / cm^3
# Si number density = 18.252262 Si / 1000 Ang^3
#
#
#
# Elastic Constant Matrix: (Units=GPa)
#
#
# Indices 1 2 3 4 5 6 
#
# 1 99.4735 39.1838 21.3657 0.0000 0.0000 0.0000
# 2 39.1838 43.9641 2.2930 0.0000 0.0000 0.0000
# 3 21.3657 2.2930 74.0526 0.0000 0.0000 0.0000
# 4 0.0000 0.0000 0.0000 14.8053 0.0000 0.0000
# 5 0.0000 0.0000 0.0000 0.0000 41.5558 0.0000
# 6 0.0000 0.0000 0.0000 0.0000 0.0000 5.7702
#
#
#
# Elastic Compliance Matrix: (Units=1/GPa)
#
#
# Indices 1 2 3 4 5 6 
#
# 1 0.016807 -0.014750 -0.004392 0.000000 0.000000 0.000000
# 2 -0.014750 0.035728 0.003149 0.000000 0.000000 0.000000
# 3 -0.004392 0.003149 0.014674 0.000000 0.000000 0.000000
# 4 0.000000 0.000000 0.000000 0.067543 0.000000 0.000000
# 5 0.000000 0.000000 0.000000 0.000000 0.024064 0.000000
# 6 0.000000 0.000000 0.000000 0.000000 0.000000 0.173304
#
#
# Mechanical properties :
#
#
# Convention : Reuss Voigt Hill
#
# Bulk Modulus (GPa) = 28.39123 38.13056 33.26090
# Shear Modulus (GPa) = 13.30333 22.73612 18.01973
#
# Velocity S-wave (km/s) = 2.70267 3.53322 3.14548
# Velocity P-wave (km/s) = 5.03268 6.13034 5.60843
#
# Compressibility (1/GPa) = 0.03522214
#
# Stress axis : x y z
#
# Youngs Moduli (GPa) = 59.50053 27.98934 68.14928
#
# Poissons Ratio (x) = 0.41285 0.29933
# Poissons Ratio (y) = 0.87764 -0.21463
# Poissons Ratio (z) = 0.26134 -0.08815
#
# Static dielectric constant tensor:
#      x y z
#    x 1.700270 0.000000 0.000000 
#    y 0.000000 1.630140 0.000000 
#    z 0.000000 0.000000 1.674320 
# 
# From -- ./inp_files/3940.got.cif
#   From: 2010.05.17/outbox.cif.g08.bks.cpg/sg21_2_cif.got.tgz:3940.got - 2010.06.03 23:14:55.
