data_PCOD9325721
_publ_section_title
;
Structure prediction by ZEFSAII (Michael W. Deem and Ramdas Pophale) SiO2 
 PCOD9325721
Probable space group: C 2 2 2
;
_chemical_formula_sum "Si O2"
_cell_formula_units_Z 30
_cell_length_a 18.336967
_cell_length_b 14.961751
_cell_length_c 5.107497
_cell_angle_alpha 90.000000
_cell_angle_beta 90.000000
_cell_angle_gamma 90.000000
_cell_volume 1401.257811
_symmetry_space_group_name_H-M "C 2 2 2"
_symmetry_group_IT_number 21
_symmetry_cell_setting 'orthorhombic'
loop_
_space_group_symop_operation_xyz
x,y,z
-x,-y,z
x,-y,-z
-x,y,-z
1/2+x,1/2+y,z
1/2-x,1/2-y,z
1/2+x,1/2-y,-z
1/2-x,1/2+y,-z
loop_
_atom_site_type_symbol
_atom_site_label
_atom_site_fract_x
_atom_site_fract_y
_atom_site_fract_z
Si Si1 0.185099 0.076265 0.656951
Si Si2 0.423918 0.142712 0.144209
Si Si3 0.178354 0.195620 0.157683
Si Si4 0.000000 0.500000 0.500000
Si Si5 0.310165 0.000000 0.000000
O O1 0.198923 0.148528 0.430693
O O2 0.139116 0.000000 0.500000
O O3 0.158425 0.127473 0.920392
O O4 0.254954 0.021204 0.763892
O O5 0.386270 0.234955 0.218773
O O6 0.447487 0.068458 0.352905
O O7 0.361877 0.086540 0.995314
O O8 0.500000 0.160954 0.000000
O O9 0.250000 0.250000 0.066982
#
# Coordination Sequence:
#
# PCOD9325721 Si02
#       5
#     8   8   8   2   4
#     4  12  24  44  71 105 139 188 242 310 363 428
#     4  12  27  44  67 108 151 197 236 300 374 461
#     4  12  26  41  71 105 146 187 250 306 363 435
#     4  12  26  44  72  98 154 200 242 282 390 472
#     4  12  23  44  68 106 149 190 240 292 379 430
#
# _framework density 21.409336
#
# number of rings (size 3 to 8) (size 9 to 14) (size 15 to 20)
#    0.000    0.000    8.000    0.800    9.333    0.000 
#    0.000    0.000    0.000    4.800    0.000    0.000 
#    0.000    0.000    0.000    0.000    0.000    0.000 
#
# Total GULP energy -83590.698444 kJ/mol
# GULP energy per Si atom -5572.713230 kJ/mol
# Density = 2.136061 g / cm^3
# Si number density = 21.409336 Si / 1000 Ang^3
#
#
#
# Elastic Constant Matrix: (Units=GPa)
#
#
# Indices 1 2 3 4 5 6 
#
# 1 90.0463 65.8391 38.1132 0.0000 0.0000 0.0000
# 2 65.8391 114.1432 58.0472 0.0000 0.0000 0.0000
# 3 38.1132 58.0472 136.5935 0.0000 0.0000 0.0000
# 4 0.0000 0.0000 0.0000 -49.3933 0.0000 0.0000
# 5 0.0000 0.0000 0.0000 0.0000 -54.5532 0.0000
# 6 0.0000 0.0000 0.0000 0.0000 0.0000 102.5470
#
#
#
# Elastic Compliance Matrix: (Units=1/GPa)
#
#
# Indices 1 2 3 4 5 6 
#
# 1 0.019279 -0.010696 -0.000834 0.000000 0.000000 0.000000
# 2 -0.010696 0.017111 -0.004287 0.000000 0.000000 0.000000
# 3 -0.000834 -0.004287 0.009375 0.000000 0.000000 0.000000
# 4 0.000000 0.000000 0.000000 -0.020246 0.000000 0.000000
# 5 0.000000 0.000000 0.000000 0.000000 -0.018331 0.000000
# 6 0.000000 0.000000 0.000000 0.000000 0.000000 0.009752
#
#
# Mechanical properties :
#
#
# Convention : Reuss Voigt Hill
#
# Bulk Modulus (GPa) = 70.76545 73.86467 72.31506
# Shear Modulus (GPa) = 93.83438 11.63899 52.73668
#
# Velocity S-wave (km/s) = 6.62751 2.33414 4.96850
# Velocity P-wave (km/s) = 9.57551 6.46841 8.17101
#
# Compressibility (1/GPa) = 0.01413119
#
# Stress axis : x y z
#
# Youngs Moduli (GPa) = 51.86931 58.44256 106.66190
#
# Poissons Ratio (x) = 0.62513 0.08894
# Poissons Ratio (y) = 0.55482 0.45725
# Poissons Ratio (z) = 0.04325 0.25054
#
# Static dielectric constant tensor:
#      x y z
#    x 2.386970 0.000000 0.000000 
#    y 0.000000 2.337390 0.000000 
#    z 0.000000 0.000000 1.838510 
# 
# From -- ./inp_files/3423.got.cif
#   From: 2010.05.17/outbox.cif.g08.bks.cpg/sg21_2_cif.got.tgz:3423.got - 2010.06.03 23:14:55.
