data_PCOD9325236
_publ_section_title
;
Structure prediction by ZEFSAII (Michael W. Deem and Ramdas Pophale) SiO2 
 PCOD9325236
Probable space group: C 2 2 2
;
_chemical_formula_sum "Si O2"
_cell_formula_units_Z 64
_cell_length_a 18.594761
_cell_length_b 12.078484
_cell_length_c 14.806122
_cell_angle_alpha 90.000000
_cell_angle_beta 90.000000
_cell_angle_gamma 90.000000
_cell_volume 3325.403524
_symmetry_space_group_name_H-M "C 2 2 2"
_symmetry_group_IT_number 21
_symmetry_cell_setting 'orthorhombic'
loop_
_space_group_symop_operation_xyz
x,y,z
-x,-y,z
x,-y,-z
-x,y,-z
1/2+x,1/2+y,z
1/2-x,1/2-y,z
1/2+x,1/2-y,-z
1/2-x,1/2+y,-z
loop_
_atom_site_type_symbol
_atom_site_label
_atom_site_fract_x
_atom_site_fract_y
_atom_site_fract_z
Si Si1 0.150473 0.283803 0.649230
Si Si2 0.199960 0.911098 0.743076
Si Si3 0.363108 0.828752 0.743764
Si Si4 0.415258 0.001123 0.103456
Si Si5 0.280254 0.570090 0.410431
Si Si6 0.799376 0.073591 0.088325
Si Si7 0.494551 0.867772 0.607164
Si Si8 0.840483 0.713035 0.854205
O O1 0.202334 0.386743 0.624457
O O2 0.173004 0.182572 0.584250
O O3 0.170683 0.249574 0.751189
O O4 0.067084 0.313646 0.646284
O O5 0.283351 0.877403 0.724338
O O6 0.153157 0.801239 0.757748
O O7 0.180558 0.988430 0.659219
O O8 0.194592 0.988543 0.829984
O O9 0.388557 0.898990 0.832145
O O10 0.422293 0.838354 0.663621
O O11 0.500000 0.000000 0.097078
O O12 0.398358 0.883100 0.147803
O O13 0.385845 0.000000 0.000000
O O14 0.270321 0.500000 0.500000
O O15 0.855789 0.175532 0.090028
O O16 0.726743 0.143776 0.106026
O O17 0.798833 0.000000 0.000000
O O18 0.500000 0.840879 0.500000
O O19 0.500000 0.000000 0.615216
#
# Coordination Sequence:
#
# PCOD9325236 Si02
#       8
#     8   8   8   8   8   8   8   8
#     4  11  22  42  66  89 125 172 215 262 323 389
#     4  11  23  40  63  97 131 166 210 265 331 381
#     4  11  24  39  64  90 134 166 208 270 324 381
#     4  11  23  39  63  94 124 167 220 267 320 383
#     4  11  23  38  66  94 126 162 214 265 324 384
#     4  11  22  36  63  98 129 163 207 261 320 382
#     4  11  25  41  64  94 124 162 219 268 321 379
#     4  11  20  39  64  86 129 164 211 255 318 385
#
# _framework density 19.245785000000001
#
# number of rings (size 3 to 8) (size 9 to 14) (size 15 to 20)
#    0.000    1.000    3.750    3.750    7.000    2.000 
#    0.000    0.625    0.000    0.000    0.000    0.000 
#    0.000    0.000    0.000    0.000    0.000    0.000 
#
# Total GULP energy -178434.966108 kJ/mol
# GULP energy per Si atom -5576.092691 kJ/mol
# Density = 1.920198 g / cm^3
# Si number density = 19.245785 Si / 1000 Ang^3
#
#
#
# Elastic Constant Matrix: (Units=GPa)
#
#
# Indices 1 2 3 4 5 6 
#
# 1 81.3323 38.8971 24.8162 0.0000 0.0000 0.0000
# 2 38.8971 158.9063 61.5806 0.0000 0.0000 0.0000
# 3 24.8162 61.5806 114.6272 0.0000 0.0000 0.0000
# 4 0.0000 0.0000 0.0000 35.9890 0.0000 0.0000
# 5 0.0000 0.0000 0.0000 0.0000 15.3154 0.0000
# 6 0.0000 0.0000 0.0000 0.0000 0.0000 8.4041
#
#
#
# Elastic Compliance Matrix: (Units=1/GPa)
#
#
# Indices 1 2 3 4 5 6 
#
# 1 0.014131 -0.002871 -0.001517 0.000000 0.000000 0.000000
# 2 -0.002871 0.008531 -0.003961 0.000000 0.000000 0.000000
# 3 -0.001517 -0.003961 0.011181 0.000000 0.000000 0.000000
# 4 0.000000 0.000000 0.000000 0.027786 0.000000 0.000000
# 5 0.000000 0.000000 0.000000 0.000000 0.065294 0.000000
# 6 0.000000 0.000000 0.000000 0.000000 0.000000 0.118989
#
#
# Mechanical properties :
#
#
# Convention : Reuss Voigt Hill
#
# Bulk Modulus (GPa) = 58.33054 67.27263 62.80159
# Shear Modulus (GPa) = 18.63406 27.24649 22.94028
#
# Velocity S-wave (km/s) = 3.11499 3.76668 3.45623
# Velocity P-wave (km/s) = 6.58115 7.34490 6.97349
#
# Compressibility (1/GPa) = 0.01714368
#
# Stress axis : x y z
#
# Youngs Moduli (GPa) = 70.76531 117.21946 89.44131
#
# Poissons Ratio (x) = 0.33656 0.13567
# Poissons Ratio (y) = 0.20318 0.35432
# Poissons Ratio (z) = 0.10734 0.46436
#
# Static dielectric constant tensor:
#      x y z
#    x 1.610240 0.000000 0.000000 
#    y 0.000000 1.702420 0.000000 
#    z 0.000000 0.000000 1.736100 
# 
# From -- ./inp_files/32996.got.cif
#   From: 2010.05.17/outbox.cif.g08.bks.cpg/sg21_17_cif.got.tgz:32996.got - 2010.06.03 23:14:55.
