data_PCOD9325433
_publ_section_title
;
Structure prediction by ZEFSAII (Michael W. Deem and Ramdas Pophale) SiO2 
 PCOD9325433
Probable space group: C 2 2 2
;
_chemical_formula_sum "Si O2"
_cell_formula_units_Z 32
_cell_length_a 13.005490
_cell_length_b 14.339516
_cell_length_c 9.406252
_cell_angle_alpha 90.000000
_cell_angle_beta 90.000000
_cell_angle_gamma 90.000000
_cell_volume 1754.194811
_symmetry_space_group_name_H-M "C 2 2 2"
_symmetry_group_IT_number 21
_symmetry_cell_setting 'orthorhombic'
loop_
_space_group_symop_operation_xyz
x,y,z
-x,-y,z
x,-y,-z
-x,y,-z
1/2+x,1/2+y,z
1/2-x,1/2-y,z
1/2+x,1/2-y,-z
1/2-x,1/2+y,-z
loop_
_atom_site_type_symbol
_atom_site_label
_atom_site_fract_x
_atom_site_fract_y
_atom_site_fract_z
Si Si1 0.313393 0.417189 0.340071
Si Si2 0.377946 0.610404 0.971843
Si Si3 0.000000 0.000000 0.500000
Si Si4 0.688809 0.894930 0.614559
Si Si5 0.250000 0.750000 0.167705
Si Si6 0.000000 0.500000 0.500000
O O1 0.335022 0.372474 0.187868
O O2 0.425277 0.437130 0.405727
O O3 0.242682 0.369994 0.462547
O O4 0.259047 0.519343 0.326987
O O5 0.359447 0.500000 0.000000
O O6 0.500000 0.624756 0.000000
O O7 0.316668 0.679375 0.074531
O O8 0.683567 0.812528 0.725358
O O9 0.576625 0.936007 0.588883
#
# Coordination Sequence:
#
# PCOD9325433 Si02
#       6
#     8   8   2   8   4   2
#     4   9  18  36  63  89 116 171 193 249 313 362
#     4  11  23  41  65  89 130 167 200 252 323 369
#     4   8  14  28  64  90 112 144 226 224 298 370
#     4   9  20  39  65  89 120 161 211 257 296 369
#     4  12  24  42  58 102 124 154 212 266 296 376
#     4   8  18  44  66  80 120 170 202 242 326 350
#
# _framework density 18.241987000000002
#
# number of rings (size 3 to 8) (size 9 to 14) (size 15 to 20)
#    0.000    2.750    2.500    1.500    3.500    1.000 
#   13.500    0.000    0.000    0.000    0.000    0.000 
#    0.000    0.000    0.000    0.000    0.000    0.000 
#
# Total GULP energy -89135.017261 kJ/mol
# GULP energy per Si atom -5570.938579 kJ/mol
# Density = 1.820047 g / cm^3
# Si number density = 18.241987 Si / 1000 Ang^3
#
#
#
# Elastic Constant Matrix: (Units=GPa)
#
#
# Indices 1 2 3 4 5 6 
#
# 1 134.6168 56.8392 65.7827 0.0000 0.0000 0.0000
# 2 56.8392 97.9799 63.2572 0.0000 0.0000 0.0000
# 3 65.7827 63.2572 158.3834 0.0000 0.0000 0.0000
# 4 0.0000 0.0000 0.0000 43.1296 0.0000 0.0000
# 5 0.0000 0.0000 0.0000 0.0000 -30.4299 0.0000
# 6 0.0000 0.0000 0.0000 0.0000 0.0000 9.5395
#
#
#
# Elastic Compliance Matrix: (Units=1/GPa)
#
#
# Indices 1 2 3 4 5 6 
#
# 1 0.010588 -0.004451 -0.002620 0.000000 0.000000 0.000000
# 2 -0.004451 0.015623 -0.004391 0.000000 0.000000 0.000000
# 3 -0.002620 -0.004391 0.009156 0.000000 0.000000 0.000000
# 4 0.000000 0.000000 0.000000 0.023186 0.000000 0.000000
# 5 0.000000 0.000000 0.000000 0.000000 -0.032862 0.000000
# 6 0.000000 0.000000 0.000000 0.000000 0.000000 0.104827
#
#
# Mechanical properties :
#
#
# Convention : Reuss Voigt Hill
#
# Bulk Modulus (GPa) = 80.36613 84.74871 82.55742
# Shear Modulus (GPa) = 31.72801 18.12122 24.92462
#
# Velocity S-wave (km/s) = 4.17500 3.15521 3.70040
# Velocity P-wave (km/s) = 8.20926 7.73516 7.97574
#
# Compressibility (1/GPa) = 0.01244305
#
# Stress axis : x y z
#
# Youngs Moduli (GPa) = 94.44616 64.00769 109.22021
#
# Poissons Ratio (x) = 0.28488 0.28616
# Poissons Ratio (y) = 0.42035 0.47961
# Poissons Ratio (z) = 0.24745 0.28107
#
# Static dielectric constant tensor:
#      x y z
#    x 1.620380 0.000000 0.000000 
#    y 0.000000 1.675930 0.000000 
#    z 0.000000 0.000000 1.673890 
# 
# From -- ./inp_files/12377.got.cif
#   From: 2010.05.17/outbox.cif.g08.bks.cpg/sg21_7_cif.got.tgz:12377.got - 2010.06.03 23:14:55.
