data_PCOD9325111
_publ_section_title
;
Structure prediction by ZEFSAII (Michael W. Deem and Ramdas Pophale) SiO2 
 PCOD9325111
Probable space group: C 2 2 2
;
_chemical_formula_sum "Si O2"
_cell_formula_units_Z 24
_cell_length_a 14.121143
_cell_length_b 5.847311
_cell_length_c 13.174751
_cell_angle_alpha 90.000000
_cell_angle_beta 90.000000
_cell_angle_gamma 90.000000
_cell_volume 1087.848607
_symmetry_space_group_name_H-M "C 2 2 2"
_symmetry_group_IT_number 21
_symmetry_cell_setting 'orthorhombic'
loop_
_space_group_symop_operation_xyz
x,y,z
-x,-y,z
x,-y,-z
-x,y,-z
1/2+x,1/2+y,z
1/2-x,1/2-y,z
1/2+x,1/2-y,-z
1/2-x,1/2+y,-z
loop_
_atom_site_type_symbol
_atom_site_label
_atom_site_fract_x
_atom_site_fract_y
_atom_site_fract_z
Si Si1 0.796582 0.000000 0.500000
Si Si2 0.500000 0.000000 0.812835
Si Si3 0.146695 0.851365 0.096321
Si Si4 0.601935 0.618518 0.291024
O O1 0.750000 0.250000 0.472366
O O2 0.851579 0.074192 0.601547
O O3 0.563322 0.828655 0.879450
O O4 0.423350 0.875551 0.740694
O O5 0.250000 0.750000 0.074105
O O6 0.156994 0.005377 0.197409
O O7 0.118054 0.000000 0.000000
O O8 0.500000 0.500000 0.293488
#
# Coordination Sequence:
#
# PCOD9325111 Si02
#       4
#     4   4   8   8
#     4  12  29  46  79 114 152 200 256 323 386 469
#     4  10  26  49  77 102 158 194 261 323 384 482
#     4  11  27  46  73 110 148 201 253 322 391 466
#     4  10  25  48  73 106 146 198 254 314 390 463
#
# _framework density 22.061893999999999
#
# number of rings (size 3 to 8) (size 9 to 14) (size 15 to 20)
#    0.000    1.333    0.000    1.500   18.667    7.333 
#    0.000    0.000    0.000    0.000    0.000    0.000 
#    0.000    0.000    0.000    0.000    0.000    0.000 
#
# Total GULP energy -67045.403686 kJ/mol
# GULP energy per Si atom -5587.116974 kJ/mol
# Density = 2.201168 g / cm^3
# Si number density = 22.061894 Si / 1000 Ang^3
#
#
#
# Elastic Constant Matrix: (Units=GPa)
#
#
# Indices 1 2 3 4 5 6 
#
# 1 82.4775 59.1507 59.2215 0.0000 0.0000 0.0000
# 2 59.1507 143.9901 87.8694 0.0000 0.0000 0.0000
# 3 59.2215 87.8694 200.3646 0.0000 0.0000 0.0000
# 4 0.0000 0.0000 0.0000 29.6466 0.0000 0.0000
# 5 0.0000 0.0000 0.0000 0.0000 29.0819 0.0000
# 6 0.0000 0.0000 0.0000 0.0000 0.0000 13.5209
#
#
#
# Elastic Compliance Matrix: (Units=1/GPa)
#
#
# Indices 1 2 3 4 5 6 
#
# 1 0.018337 -0.005769 -0.002890 0.000000 0.000000 0.000000
# 2 -0.005769 0.011298 -0.003249 0.000000 0.000000 0.000000
# 3 -0.002890 -0.003249 0.007270 0.000000 0.000000 0.000000
# 4 0.000000 0.000000 0.000000 0.033731 0.000000 0.000000
# 5 0.000000 0.000000 0.000000 0.000000 0.034386 0.000000
# 6 0.000000 0.000000 0.000000 0.000000 0.000000 0.073959
#
#
# Mechanical properties :
#
#
# Convention : Reuss Voigt Hill
#
# Bulk Modulus (GPa) = 76.40593 93.25726 84.83160
# Shear Modulus (GPa) = 24.13588 29.15592 26.64590
#
# Velocity S-wave (km/s) = 3.31117 3.63926 3.47908
# Velocity P-wave (km/s) = 7.02326 7.74735 7.39417
#
# Compressibility (1/GPa) = 0.01308799
#
# Stress axis : x y z
#
# Youngs Moduli (GPa) = 54.53425 88.51188 137.55090
#
# Poissons Ratio (x) = 0.51066 0.39748
# Poissons Ratio (y) = 0.31463 0.44696
# Poissons Ratio (z) = 0.15759 0.28761
#
# Static dielectric constant tensor:
#      x y z
#    x 1.805130 0.000000 0.000000 
#    y 0.000000 1.918650 0.000000 
#    z 0.000000 0.000000 1.783730 
# 
# From -- ./inp_files/20195.got.cif
#   From: 2010.05.17/outbox.cif.g08.bks.cpg/sg21_11_cif.got.tgz:20195.got - 2010.06.03 23:14:55.
