data_PCOD9325661
_publ_section_title
;
Structure prediction by ZEFSAII (Michael W. Deem and Ramdas Pophale) SiO2 
 PCOD9325661
Probable space group: C 2 2 2
;
_chemical_formula_sum "Si O2"
_cell_formula_units_Z 16
_cell_length_a 16.583216
_cell_length_b 5.000828
_cell_length_c 8.139522
_cell_angle_alpha 90.000000
_cell_angle_beta 90.000000
_cell_angle_gamma 90.000000
_cell_volume 675.009020
_symmetry_space_group_name_H-M "C 2 2 2"
_symmetry_group_IT_number 21
_symmetry_cell_setting 'orthorhombic'
loop_
_space_group_symop_operation_xyz
x,y,z
-x,-y,z
x,-y,-z
-x,y,-z
1/2+x,1/2+y,z
1/2-x,1/2-y,z
1/2+x,1/2-y,-z
1/2-x,1/2+y,-z
loop_
_atom_site_type_symbol
_atom_site_label
_atom_site_fract_x
_atom_site_fract_y
_atom_site_fract_z
Si Si1 0.687949 0.000000 0.000000
Si Si2 0.089997 0.892123 0.816038
Si Si3 0.692768 0.500000 0.500000
O O1 0.750000 0.250000 0.029891
O O2 0.626799 0.908692 0.147942
O O3 0.140962 0.996621 0.664859
O O4 0.000000 0.000000 0.777977
O O5 0.101233 0.000000 0.000000
O O6 0.750000 0.250000 0.501823
#
# Coordination Sequence:
#
# PCOD9325661 Si02
#       3
#     4   8   4
#     4  12  26  49  85 122 164 216 276 338 411 498
#     4  11  28  53  83 118 168 216 276 341 423 488
#     4  12  31  50  81 122 162 222 280 344 409 500
#
# _framework density 23.703388
#
# number of rings (size 3 to 8) (size 9 to 14) (size 15 to 20)
#    0.000    0.500    2.500    2.250   14.000    4.000 
#    0.000    2.500    0.000    0.000    0.000    0.000 
#    0.000    0.000    0.000    0.000    0.000    0.000 
#
# Total GULP energy -44573.535957 kJ/mol
# GULP energy per Si atom -5571.691995 kJ/mol
# Density = 2.364944 g / cm^3
# Si number density = 23.703388 Si / 1000 Ang^3
#
#
#
# Elastic Constant Matrix: (Units=GPa)
#
#
# Indices 1 2 3 4 5 6 
#
# 1 271.5201 111.8178 110.2725 0.0000 0.0000 0.0000
# 2 111.8178 164.1751 51.8890 0.0000 0.0000 0.0000
# 3 110.2725 51.8890 186.5551 0.0000 0.0000 0.0000
# 4 0.0000 0.0000 0.0000 38.7083 0.0000 0.0000
# 5 0.0000 0.0000 0.0000 0.0000 39.9045 0.0000
# 6 0.0000 0.0000 0.0000 0.0000 0.0000 15.9513
#
#
#
# Elastic Compliance Matrix: (Units=1/GPa)
#
#
# Indices 1 2 3 4 5 6 
#
# 1 0.006159 -0.003338 -0.002712 0.000000 0.000000 0.000000
# 2 -0.003338 0.008487 -0.000388 0.000000 0.000000 0.000000
# 3 -0.002712 -0.000388 0.007071 0.000000 0.000000 0.000000
# 4 0.000000 0.000000 0.000000 0.025834 0.000000 0.000000
# 5 0.000000 0.000000 0.000000 0.000000 0.025060 0.000000
# 6 0.000000 0.000000 0.000000 0.000000 0.000000 0.062691
#
#
# Mechanical properties :
#
#
# Convention : Reuss Voigt Hill
#
# Bulk Modulus (GPa) = 113.09525 130.02322 121.55923
# Shear Modulus (GPa) = 33.08532 42.13088 37.60810
#
# Velocity S-wave (km/s) = 3.74010 4.22052 3.98755
# Velocity P-wave (km/s) = 8.15276 8.87264 8.52030
#
# Compressibility (1/GPa) = 0.00884210
#
# Stress axis : x y z
#
# Youngs Moduli (GPa) = 162.36451 117.83028 141.41506
#
# Poissons Ratio (x) = 0.39327 0.38355
# Poissons Ratio (y) = 0.54191 0.05483
# Poissons Ratio (z) = 0.44037 0.04568
#
# Static dielectric constant tensor:
#      x y z
#    x 1.976070 0.000000 0.000000 
#    y 0.000000 2.238850 0.000000 
#    z 0.000000 0.000000 1.824620 
# 
# From -- ./inp_files/8323.got.cif
#   From: 2010.05.17/outbox.cif.g08.bks.cpg/sg21_5_cif.got.tgz:8323.got - 2010.06.03 23:14:55.
