data_PCOD9325798
_publ_section_title
;
Structure prediction by ZEFSAII (Michael W. Deem and Ramdas Pophale) SiO2 
 PCOD9325798
Probable space group: C 2 2 2
;
_chemical_formula_sum "Si O2"
_cell_formula_units_Z 26
_cell_length_a 8.394898
_cell_length_b 5.255134
_cell_length_c 24.197959
_cell_angle_alpha 90.000000
_cell_angle_beta 90.000000
_cell_angle_gamma 90.000000
_cell_volume 1067.524755
_symmetry_space_group_name_H-M "C 2 2 2"
_symmetry_group_IT_number 21
_symmetry_cell_setting 'orthorhombic'
loop_
_space_group_symop_operation_xyz
x,y,z
-x,-y,z
x,-y,-z
-x,y,-z
1/2+x,1/2+y,z
1/2-x,1/2-y,z
1/2+x,1/2-y,-z
1/2-x,1/2+y,-z
loop_
_atom_site_type_symbol
_atom_site_label
_atom_site_fract_x
_atom_site_fract_y
_atom_site_fract_z
Si Si1 0.500000 0.000000 0.154283
Si Si2 0.250000 0.250000 0.081073
Si Si3 0.750000 0.750000 0.695517
Si Si4 0.500000 0.000000 0.386046
Si Si5 0.500000 0.500000 0.000000
Si Si6 0.000000 0.000000 0.229790
Si Si7 0.750000 0.750000 0.462904
O O1 0.339568 0.037062 0.117935
O O2 0.498273 0.250414 0.191898
O O3 0.387579 0.346385 0.041008
O O4 0.877835 0.631426 0.654858
O O5 0.656539 0.543705 0.732712
O O6 0.597672 0.807689 0.424755
O O7 0.726241 0.500000 0.500000
#
# Coordination Sequence:
#
# PCOD9325798 Si02
#       7
#     4   4   4   4   2   4   4
#     4  12  27  49  78 113 153 200 255 315 380 452
#     4  12  26  48  76 112 152 200 254 314 380 454
#     4  12  27  50  77 112 154 201 254 313 380 454
#     4  12  28  50  78 113 153 202 254 314 380 454
#     4  12  26  48  76 110 152 200 252 312 380 452
#     4  12  27  50  78 113 153 202 254 315 380 452
#     4  12  29  52  79 114 154 201 256 317 382 454
#
# _framework density 24.355407
#
# number of rings (size 3 to 8) (size 9 to 14) (size 15 to 20)
#    0.000    0.000    0.000    8.769    0.000   12.308 
#    0.000    0.000    0.000    0.000    0.000    0.000 
#    0.000    0.000    0.000    0.000    0.000    0.000 
#
# Total GULP energy -72992.113736 kJ/mol
# GULP energy per Si atom -5614.777980 kJ/mol
# Density = 2.429997 g / cm^3
# Si number density = 24.355407 Si / 1000 Ang^3
#
#
#
# Elastic Constant Matrix: (Units=GPa)
#
#
# Indices 1 2 3 4 5 6 
#
# 1 214.2091 103.3513 116.8113 0.0000 0.0000 0.0000
# 2 103.3513 200.7756 123.5933 0.0000 0.0000 0.0000
# 3 116.8113 123.5933 187.9690 0.0000 0.0000 0.0000
# 4 0.0000 0.0000 0.0000 17.8393 0.0000 0.0000
# 5 0.0000 0.0000 0.0000 0.0000 15.5234 0.0000
# 6 0.0000 0.0000 0.0000 0.0000 0.0000 66.7565
#
#
#
# Elastic Compliance Matrix: (Units=1/GPa)
#
#
# Indices 1 2 3 4 5 6 
#
# 1 0.007368 -0.001637 -0.003503 0.000000 0.000000 0.000000
# 2 -0.001637 0.008731 -0.004724 0.000000 0.000000 0.000000
# 3 -0.003503 -0.004724 0.010603 0.000000 0.000000 0.000000
# 4 0.000000 0.000000 0.000000 0.056056 0.000000 0.000000
# 5 0.000000 0.000000 0.000000 0.000000 0.064419 0.000000
# 6 0.000000 0.000000 0.000000 0.000000 0.000000 0.014980
#
#
# Mechanical properties :
#
#
# Convention : Reuss Voigt Hill
#
# Bulk Modulus (GPa) = 143.35598 143.38505 143.37051
# Shear Modulus (GPa) = 27.14329 37.30369 32.22349
#
# Velocity S-wave (km/s) = 3.34198 3.91786 3.64133
# Velocity P-wave (km/s) = 8.59533 8.91437 8.75630
#
# Compressibility (1/GPa) = 0.00697564
#
# Stress axis : x y z
#
# Youngs Moduli (GPa) = 135.72168 114.53470 94.31551
#
# Poissons Ratio (x) = 0.18744 0.33036
# Poissons Ratio (y) = 0.22212 0.44552
# Poissons Ratio (z) = 0.47539 0.54103
#
# Static dielectric constant tensor:
#      x y z
#    x 1.855990 0.000000 0.000000 
#    y 0.000000 1.905950 0.000000 
#    z 0.000000 0.000000 1.941970 
# 
# From -- ./inp_files/38038.got.cif
#   From: 2010.05.17/outbox.cif.g08.bks.cpg/sg21_20_cif.got.tgz:38038.got - 2010.06.03 23:14:55.
