data_PCOD9325112
_publ_section_title
;
Structure prediction by ZEFSAII (Michael W. Deem and Ramdas Pophale) SiO2 
 PCOD9325112
Probable space group: C 2 2 2
;
_chemical_formula_sum "Si O2"
_cell_formula_units_Z 32
_cell_length_a 6.878406
_cell_length_b 16.920831
_cell_length_c 12.107108
_cell_angle_alpha 90.000000
_cell_angle_beta 90.000000
_cell_angle_gamma 90.000000
_cell_volume 1409.126269
_symmetry_space_group_name_H-M "C 2 2 2"
_symmetry_group_IT_number 21
_symmetry_cell_setting 'orthorhombic'
loop_
_space_group_symop_operation_xyz
x,y,z
-x,-y,z
x,-y,-z
-x,y,-z
1/2+x,1/2+y,z
1/2-x,1/2-y,z
1/2+x,1/2-y,-z
1/2-x,1/2+y,-z
loop_
_atom_site_type_symbol
_atom_site_label
_atom_site_fract_x
_atom_site_fract_y
_atom_site_fract_z
Si Si1 0.771199 0.476724 0.190097
Si Si2 0.876134 0.318568 0.295370
Si Si3 0.500000 0.271434 0.500000
Si Si4 0.743933 0.385827 0.659152
Si Si5 0.500000 0.500000 0.000000
Si Si6 0.500000 0.000000 0.500000
O O1 0.779341 0.401992 0.271345
O O2 0.672421 0.551815 0.250226
O O3 0.651091 0.455780 0.080843
O O4 0.000000 0.500000 0.168646
O O5 0.750000 0.250000 0.239309
O O6 0.889528 0.292619 0.422954
O O7 0.103663 0.330992 0.273505
O O8 0.601346 0.329870 0.589233
O O9 0.864873 0.443786 0.576112
#
# Coordination Sequence:
#
# PCOD9325112 Si02
#       6
#     8   8   4   8   2   2
#     4  10  25  48  76 100 141 183 252 310 358 417
#     4  11  22  42  65 100 147 186 223 295 356 436
#     4  12  25  37  65 109 156 192 226 272 370 450
#     4  11  24  41  64 101 144 198 235 288 345 444
#     4  12  26  48  84 104 120 200 264 312 364 408
#     4  12  18  38  64  96 144 186 238 272 354 412
#
# _framework density 22.709108000000001
#
# number of rings (size 3 to 8) (size 9 to 14) (size 15 to 20)
#    0.000    1.000    3.750    4.875    3.500    0.500 
#    0.000    0.000   11.000    0.000    0.000    0.000 
#    0.000    0.000    0.000    0.000    0.000    0.000 
#
# Total GULP energy -89142.687136 kJ/mol
# GULP energy per Si atom -5571.417946 kJ/mol
# Density = 2.265742 g / cm^3
# Si number density = 22.709108 Si / 1000 Ang^3
#
#
#
# Elastic Constant Matrix: (Units=GPa)
#
#
# Indices 1 2 3 4 5 6 
#
# 1 96.8499 61.9026 49.6256 0.0000 0.0000 0.0000
# 2 61.9026 153.8877 54.3208 0.0000 0.0000 0.0000
# 3 49.6256 54.3208 90.8420 0.0000 0.0000 0.0000
# 4 0.0000 0.0000 0.0000 7.9667 0.0000 0.0000
# 5 0.0000 0.0000 0.0000 0.0000 48.4553 0.0000
# 6 0.0000 0.0000 0.0000 0.0000 0.0000 43.9284
#
#
#
# Elastic Compliance Matrix: (Units=1/GPa)
#
#
# Indices 1 2 3 4 5 6 
#
# 1 0.016344 -0.004339 -0.006334 0.000000 0.000000 0.000000
# 2 -0.004339 0.009389 -0.003244 0.000000 0.000000 0.000000
# 3 -0.006334 -0.003244 0.016408 0.000000 0.000000 0.000000
# 4 0.000000 0.000000 0.000000 0.125523 0.000000 0.000000
# 5 0.000000 0.000000 0.000000 0.000000 0.020638 0.000000
# 6 0.000000 0.000000 0.000000 0.000000 0.000000 0.022764
#
#
# Mechanical properties :
#
#
# Convention : Reuss Voigt Hill
#
# Bulk Modulus (GPa) = 69.89439 74.80865 72.35152
# Shear Modulus (GPa) = 20.51975 31.78544 26.15259
#
# Velocity S-wave (km/s) = 3.00924 3.74529 3.39726
# Velocity P-wave (km/s) = 6.55126 7.19142 6.87879
#
# Compressibility (1/GPa) = 0.01430730
#
# Stress axis : x y z
#
# Youngs Moduli (GPa) = 61.18507 106.51240 60.94547
#
# Poissons Ratio (x) = 0.46211 0.38603
# Poissons Ratio (y) = 0.26546 0.19771
# Poissons Ratio (z) = 0.38755 0.34552
#
# Static dielectric constant tensor:
#      x y z
#    x 2.287120 0.000000 0.000000 
#    y 0.000000 1.870220 0.000000 
#    z 0.000000 0.000000 1.896510 
# 
# From -- ./inp_files/22028.got.cif
#   From: 2010.05.17/outbox.cif.g08.bks.cpg/sg21_12_cif.got.tgz:22028.got - 2010.06.03 23:14:55.
