data_PCOD9325432
_publ_section_title
;
Structure prediction by ZEFSAII (Michael W. Deem and Ramdas Pophale) SiO2 
 PCOD9325432
Probable space group: C 2 2 2
;
_chemical_formula_sum "Si O2"
_cell_formula_units_Z 26
_cell_length_a 14.829337
_cell_length_b 5.276247
_cell_length_c 15.557890
_cell_angle_alpha 90.000000
_cell_angle_beta 90.000000
_cell_angle_gamma 90.000000
_cell_volume 1217.299797
_symmetry_space_group_name_H-M "C 2 2 2"
_symmetry_group_IT_number 21
_symmetry_cell_setting 'orthorhombic'
loop_
_space_group_symop_operation_xyz
x,y,z
-x,-y,z
x,-y,-z
-x,y,-z
1/2+x,1/2+y,z
1/2-x,1/2-y,z
1/2+x,1/2-y,-z
1/2-x,1/2+y,-z
loop_
_atom_site_type_symbol
_atom_site_label
_atom_site_fract_x
_atom_site_fract_y
_atom_site_fract_z
Si Si1 0.500000 0.000000 0.500000
Si Si2 0.064779 0.252878 0.169190
Si Si3 0.802797 0.000000 0.500000
Si Si4 0.750000 0.250000 0.941810
Si Si5 0.411694 0.346764 0.357979
O O1 0.561785 0.838708 0.436040
O O2 0.154701 0.243685 0.110608
O O3 0.107988 0.273678 0.266413
O O4 0.000000 0.500000 0.156064
O O5 0.000000 0.000000 0.157803
O O6 0.750000 0.250000 0.521002
O O7 0.850865 0.952387 0.591444
O O8 0.752212 0.500000 0.000000
O O9 0.500000 0.500000 0.336525
#
# Coordination Sequence:
#
# PCOD9325432 Si02
#       5
#     2   8   4   4   8
#     4  12  16  40  72  88 142 186 246 270 334 414
#     4  11  26  47  75 109 144 188 234 295 360 426
#     4  12  26  38  59  99 138 188 236 284 340 402
#     4  12  28  52  78 110 142 180 236 302 368 442
#     4  11  23  41  64  95 139 190 237 282 338 411
#
# _framework density 21.358747999999999
#
# number of rings (size 3 to 8) (size 9 to 14) (size 15 to 20)
#    0.000    0.615    4.615    2.769    2.154    3.692 
#    2.769    0.000    0.000    0.000    0.000    0.000 
#    0.000    0.000    0.000    0.000    0.000    0.000 
#
# Total GULP energy -72375.068918 kJ/mol
# GULP energy per Si atom -5567.312994 kJ/mol
# Density = 2.131013 g / cm^3
# Si number density = 21.358748 Si / 1000 Ang^3
#
#
#
# Elastic Constant Matrix: (Units=GPa)
#
#
# Indices 1 2 3 4 5 6 
#
# 1 115.1491 26.4803 81.0191 0.0000 0.0000 0.0000
# 2 26.4803 102.8798 59.2833 0.0000 0.0000 0.0000
# 3 81.0191 59.2833 172.5304 0.0000 0.0000 0.0000
# 4 0.0000 0.0000 0.0000 44.4281 0.0000 0.0000
# 5 0.0000 0.0000 0.0000 0.0000 -851.9457 0.0000
# 6 0.0000 0.0000 0.0000 0.0000 0.0000 28.6139
#
#
#
# Elastic Compliance Matrix: (Units=1/GPa)
#
#
# Indices 1 2 3 4 5 6 
#
# 1 0.012973 0.000214 -0.006166 0.000000 0.000000 0.000000
# 2 0.000214 0.012123 -0.004266 0.000000 0.000000 0.000000
# 3 -0.006166 -0.004266 0.010157 0.000000 0.000000 0.000000
# 4 0.000000 0.000000 0.000000 0.022508 0.000000 0.000000
# 5 0.000000 0.000000 0.000000 0.000000 -0.001174 0.000000
# 6 0.000000 0.000000 0.000000 0.000000 0.000000 0.034948
#
#
# Mechanical properties :
#
#
# Convention : Reuss Voigt Hill
#
# Bulk Modulus (GPa) = 67.48560 80.45832 73.97196
# Shear Modulus (GPa) = 42.76719 -140.86232 -49.04757
#
# Velocity S-wave (km/s) = 4.47959 -8.12981 -4.79724
# Velocity P-wave (km/s) = 7.64333 7.09742 2.00588
#
# Compressibility (1/GPa) = 0.01481798
#
# Stress axis : x y z
#
# Youngs Moduli (GPa) = 77.08064 82.48549 98.45153
#
# Poissons Ratio (x) = -0.01762 0.60702
# Poissons Ratio (y) = -0.01647 0.42000
# Poissons Ratio (z) = 0.47525 0.35189
#
# Static dielectric constant tensor:
#      x y z
#    x 1.984050 0.000000 0.000000 
#    y 0.000000 1.811300 0.000000 
#    z 0.000000 0.000000 1.863470 
# 
# From -- ./inp_files/28487.got.cif
#   From: 2010.05.17/outbox.cif.g08.bks.cpg/sg21_15_cif.got.tgz:28487.got - 2010.06.03 23:14:55.
