data_PCOD9325519
_publ_section_title
;
Structure prediction by ZEFSAII (Michael W. Deem and Ramdas Pophale) SiO2 
 PCOD9325519
Probable space group: C 2 2 2
;
_chemical_formula_sum "Si O2"
_cell_formula_units_Z 48
_cell_length_a 15.848449
_cell_length_b 8.562949
_cell_length_c 16.313982
_cell_angle_alpha 90.000000
_cell_angle_beta 90.000000
_cell_angle_gamma 90.000000
_cell_volume 2213.961696
_symmetry_space_group_name_H-M "C 2 2 2"
_symmetry_group_IT_number 21
_symmetry_cell_setting 'orthorhombic'
loop_
_space_group_symop_operation_xyz
x,y,z
-x,-y,z
x,-y,-z
-x,y,-z
1/2+x,1/2+y,z
1/2-x,1/2-y,z
1/2+x,1/2-y,-z
1/2-x,1/2+y,-z
loop_
_atom_site_type_symbol
_atom_site_label
_atom_site_fract_x
_atom_site_fract_y
_atom_site_fract_z
Si Si1 0.650329 0.436138 0.583799
Si Si2 0.646467 0.423351 0.759692
Si Si3 0.829395 0.374897 0.072542
Si Si4 0.652930 0.059502 0.585325
Si Si5 0.590350 0.421265 0.078185
Si Si6 0.652159 0.070702 0.763231
O O1 0.611260 0.500000 0.500000
O O2 0.612144 0.480709 0.672005
O O3 0.651133 0.247873 0.583448
O O4 0.748359 0.492257 0.583801
O O5 0.630920 0.536570 0.835136
O O6 0.617190 0.245911 0.778851
O O7 0.747177 0.411905 0.749170
O O8 0.750000 0.250000 0.076465
O O9 0.908137 0.260134 0.059482
O O10 0.849586 0.462274 0.157559
O O11 0.820033 0.500000 0.000000
O O12 0.617974 0.011496 0.674963
O O13 0.614095 0.000000 0.500000
O O14 0.500000 0.500000 0.083295
O O15 0.634897 0.500000 0.000000
#
# Coordination Sequence:
#
# PCOD9325519 Si02
#       6
#     8   8   8   8   8   8
#     4   8  14  24  42  70 101 144 184 226 278 331
#     4   9  17  33  54  76 113 151 186 236 288 340
#     4  12  24  37  61  92 116 150 197 248 300 354
#     4   8  14  25  39  68 111 146 176 224 287 338
#     4  11  24  42  58  79 114 151 187 238 294 350
#     4   9  18  31  53  82 113 145 189 241 289 336
#
# _framework density 21.680592999999998
#
# number of rings (size 3 to 8) (size 9 to 14) (size 15 to 20)
#    0.000    2.500    1.667    3.500    2.333    1.333 
#    3.000    5.833    0.000    0.500    0.000    0.000 
#    0.000    1.333    0.000    0.000    0.000    0.000 
#
# Total GULP energy -133637.614623 kJ/mol
# GULP energy per Si atom -5568.233943 kJ/mol
# Density = 2.163125 g / cm^3
# Si number density = 21.680593 Si / 1000 Ang^3
#
#
#
# Elastic Constant Matrix: (Units=GPa)
#
#
# Indices 1 2 3 4 5 6 
#
# 1 30.1982 13.3968 7.2341 0.0000 0.0000 0.0000
# 2 13.3968 86.1415 84.1002 0.0000 0.0000 0.0000
# 3 7.2341 84.1002 232.3183 0.0000 0.0000 0.0000
# 4 0.0000 0.0000 0.0000 41.1412 0.0000 0.0000
# 5 0.0000 0.0000 0.0000 0.0000 -10.9744 0.0000
# 6 0.0000 0.0000 0.0000 0.0000 0.0000 9.9518
#
#
#
# Elastic Compliance Matrix: (Units=1/GPa)
#
#
# Indices 1 2 3 4 5 6 
#
# 1 0.035859 -0.006939 0.001395 0.000000 0.000000 0.000000
# 2 -0.006939 0.019297 -0.006770 0.000000 0.000000 0.000000
# 3 0.001395 -0.006770 0.006712 0.000000 0.000000 0.000000
# 4 0.000000 0.000000 0.000000 0.024307 0.000000 0.000000
# 5 0.000000 0.000000 0.000000 0.000000 -0.091121 0.000000
# 6 0.000000 0.000000 0.000000 0.000000 0.000000 0.100484
#
#
# Mechanical properties :
#
#
# Convention : Reuss Voigt Hill
#
# Bulk Modulus (GPa) = 26.85221 62.01334 44.43277
# Shear Modulus (GPa) = 37.71394 24.28552 30.99973
#
# Velocity S-wave (km/s) = 4.17529 3.35050 3.78542
# Velocity P-wave (km/s) = 5.97129 6.60553 6.29640
#
# Compressibility (1/GPa) = 0.03724089
#
# Stress axis : x y z
#
# Youngs Moduli (GPa) = 27.88724 51.82123 148.99586
#
# Poissons Ratio (x) = 0.35959 -0.20791
# Poissons Ratio (y) = 0.19351 1.00864
# Poissons Ratio (z) = -0.03891 0.35081
#
# Static dielectric constant tensor:
#      x y z
#    x 1.881650 0.000000 0.000000 
#    y 0.000000 1.802070 0.000000 
#    z 0.000000 0.000000 1.908770 
# 
# From -- ./inp_files/32826.got.cif
#   From: 2010.05.17/outbox.cif.g08.bks.cpg/sg21_17_cif.got.tgz:32826.got - 2010.06.03 23:14:55.
