data_PCOD9325559
_publ_section_title
;
Structure prediction by ZEFSAII (Michael W. Deem and Ramdas Pophale) SiO2 
 PCOD9325559
Probable space group: C 2 2 2
;
_chemical_formula_sum "Si O2"
_cell_formula_units_Z 28
_cell_length_a 6.666956
_cell_length_b 8.187623
_cell_length_c 23.630950
_cell_angle_alpha 90.000000
_cell_angle_beta 90.000000
_cell_angle_gamma 90.000000
_cell_volume 1289.931379
_symmetry_space_group_name_H-M "C 2 2 2"
_symmetry_group_IT_number 21
_symmetry_cell_setting 'orthorhombic'
loop_
_space_group_symop_operation_xyz
x,y,z
-x,-y,z
x,-y,-z
-x,y,-z
1/2+x,1/2+y,z
1/2-x,1/2-y,z
1/2+x,1/2-y,-z
1/2-x,1/2+y,-z
loop_
_atom_site_type_symbol
_atom_site_label
_atom_site_fract_x
_atom_site_fract_y
_atom_site_fract_z
Si Si1 0.750000 0.750000 0.279524
Si Si2 0.500000 0.500000 0.000000
Si Si3 0.250000 0.250000 0.577038
Si Si4 0.750000 0.750000 0.075997
Si Si5 0.970524 0.315366 0.180445
Si Si6 0.500000 0.500000 0.348554
Si Si7 0.000000 0.500000 0.500000
O O1 0.570294 0.728135 0.233592
O O2 0.690441 0.591038 0.317083
O O3 0.646456 0.387713 0.962189
O O4 0.403529 0.353222 0.615434
O O5 0.134928 0.381601 0.538548
O O6 0.579792 0.804197 0.120137
O O7 0.750000 0.250000 0.172901
O O8 0.000000 0.500000 0.198149
#
# Coordination Sequence:
#
# PCOD9325559 Si02
#       7
#     4   2   4   4   8   4   2
#     4  11  26  43  68 106 146 187 236 289 366 424
#     4  12  28  46  76 100 146 180 232 314 360 420
#     4  12  26  45  74 104 144 189 244 296 354 418
#     4  11  28  46  68 108 134 184 242 291 366 424
#     4  11  24  45  73  98 139 191 235 289 348 451
#     4  12  26  44  70 110 146 186 236 302 358 420
#     4  12  24  48  72 100 140 196 244 292 354 420
#
# _framework density 21.706581
#
# number of rings (size 3 to 8) (size 9 to 14) (size 15 to 20)
#    0.000    0.571    0.000    6.857   12.000    4.571 
#    0.000    0.000    0.000    0.000    0.000    0.000 
#    0.000    0.000    0.000    0.000    0.000    0.000 
#
# Total GULP energy -78107.873844 kJ/mol
# GULP energy per Si atom -5579.133846 kJ/mol
# Density = 2.165718 g / cm^3
# Si number density = 21.706581 Si / 1000 Ang^3
#
#
#
# Elastic Constant Matrix: (Units=GPa)
#
#
# Indices 1 2 3 4 5 6 
#
# 1 145.9442 48.8703 53.2110 0.0000 0.0000 0.0000
# 2 48.8703 115.9125 62.7956 0.0000 0.0000 0.0000
# 3 53.2110 62.7956 119.0343 0.0000 0.0000 0.0000
# 4 0.0000 0.0000 0.0000 46.0668 0.0000 0.0000
# 5 0.0000 0.0000 0.0000 0.0000 30.8653 0.0000
# 6 0.0000 0.0000 0.0000 0.0000 0.0000 58.9132
#
#
#
# Elastic Compliance Matrix: (Units=1/GPa)
#
#
# Indices 1 2 3 4 5 6 
#
# 1 0.008552 -0.002149 -0.002689 0.000000 0.000000 0.000000
# 2 -0.002149 0.012619 -0.005697 0.000000 0.000000 0.000000
# 3 -0.002689 -0.005697 0.012608 0.000000 0.000000 0.000000
# 4 0.000000 0.000000 0.000000 0.021708 0.000000 0.000000
# 5 0.000000 0.000000 0.000000 0.000000 0.032399 0.000000
# 6 0.000000 0.000000 0.000000 0.000000 0.000000 0.016974
#
#
# Mechanical properties :
#
#
# Convention : Reuss Voigt Hill
#
# Bulk Modulus (GPa) = 78.67738 78.96055 78.81896
# Shear Modulus (GPa) = 38.41232 41.57000 39.99116
#
# Velocity S-wave (km/s) = 4.21124 4.38092 4.29692
# Velocity P-wave (km/s) = 7.74407 7.87688 7.81076
#
# Compressibility (1/GPa) = 0.01271013
#
# Stress axis : x y z
#
# Youngs Moduli (GPa) = 116.93202 79.24382 79.31197
#
# Poissons Ratio (x) = 0.17027 0.21330
# Poissons Ratio (y) = 0.25124 0.45182
# Poissons Ratio (z) = 0.31448 0.45143
#
# Static dielectric constant tensor:
#      x y z
#    x 1.825110 0.000000 0.000000 
#    y 0.000000 1.805150 0.000000 
#    z 0.000000 0.000000 1.811180 
# 
# From -- ./inp_files/38943.got.cif
#   From: 2010.05.17/outbox.cif.g08.bks.cpg/sg21_20_cif.got.tgz:38943.got - 2010.06.03 23:14:55.
