data_PCOD9325184
_publ_section_title
;
Structure prediction by ZEFSAII (Michael W. Deem and Ramdas Pophale) SiO2 
 PCOD9325184
Probable space group: C 2 2 2
;
_chemical_formula_sum "Si O2"
_cell_formula_units_Z 30
_cell_length_a 12.891848
_cell_length_b 19.182003
_cell_length_c 4.961250
_cell_angle_alpha 90.000000
_cell_angle_beta 90.000000
_cell_angle_gamma 90.000000
_cell_volume 1226.874791
_symmetry_space_group_name_H-M "C 2 2 2"
_symmetry_group_IT_number 21
_symmetry_cell_setting 'orthorhombic'
loop_
_space_group_symop_operation_xyz
x,y,z
-x,-y,z
x,-y,-z
-x,y,-z
1/2+x,1/2+y,z
1/2-x,1/2-y,z
1/2+x,1/2-y,-z
1/2-x,1/2+y,-z
loop_
_atom_site_type_symbol
_atom_site_label
_atom_site_fract_x
_atom_site_fract_y
_atom_site_fract_z
Si Si1 0.613863 0.861348 0.614268
Si Si2 0.750000 0.250000 0.635563
Si Si3 0.815724 0.427729 0.899598
Si Si4 0.000000 0.000000 0.500000
Si Si5 0.107610 0.879154 0.858873
O O1 0.500000 0.864596 0.500000
O O2 0.668562 0.789869 0.547189
O O3 0.675499 0.916107 0.418794
O O4 0.619975 0.871818 0.931519
O O5 0.823977 0.189698 0.772605
O O6 0.699587 0.418313 0.017657
O O7 0.859362 0.500000 0.000000
O O8 0.069547 0.943097 0.664470
O O9 0.000000 0.857302 0.000000
#
# Coordination Sequence:
#
# PCOD9325184 Si02
#       5
#     8   4   8   2   8
#     4  11  26  45  69 104 144 193 252 307 386 464
#     4  10  28  46  74 110 148 202 248 330 392 476
#     4  11  25  44  73 105 146 196 250 315 381 456
#     4  12  26  48  80 118 154 218 270 344 394 480
#     4  11  27  47  77 115 156 206 266 328 405 471
#
# _framework density 24.452373999999999
#
# number of rings (size 3 to 8) (size 9 to 14) (size 15 to 20)
#    0.000    1.067    0.000    3.600   16.800   11.733 
#    0.000    0.000    0.000    0.000    0.000    0.000 
#    0.000    0.000    0.000    0.000    0.000    0.000 
#
# Total GULP energy -83528.464745 kJ/mol
# GULP energy per Si atom -5568.564316 kJ/mol
# Density = 2.439672 g / cm^3
# Si number density = 24.452374 Si / 1000 Ang^3
#
#
#
# Elastic Constant Matrix: (Units=GPa)
#
#
# Indices 1 2 3 4 5 6 
#
# 1 174.1105 23.4748 28.0227 0.0000 0.0000 0.0000
# 2 23.4748 146.5609 28.8850 0.0000 0.0000 0.0000
# 3 28.0227 28.8850 85.1369 0.0000 0.0000 0.0000
# 4 0.0000 0.0000 0.0000 17.9308 0.0000 0.0000
# 5 0.0000 0.0000 0.0000 0.0000 39.0968 0.0000
# 6 0.0000 0.0000 0.0000 0.0000 0.0000 15.3022
#
#
#
# Elastic Compliance Matrix: (Units=1/GPa)
#
#
# Indices 1 2 3 4 5 6 
#
# 1 0.006118 -0.000625 -0.001802 0.000000 0.000000 0.000000
# 2 -0.000625 0.007376 -0.002297 0.000000 0.000000 0.000000
# 3 -0.001802 -0.002297 0.013118 0.000000 0.000000 0.000000
# 4 0.000000 0.000000 0.000000 0.055770 0.000000 0.000000
# 5 0.000000 0.000000 0.000000 0.000000 0.025578 0.000000
# 6 0.000000 0.000000 0.000000 0.000000 0.000000 0.065350
#
#
# Mechanical properties :
#
#
# Convention : Reuss Voigt Hill
#
# Bulk Modulus (GPa) = 58.25783 62.95262 60.60522
# Shear Modulus (GPa) = 26.52840 36.16102 31.34471
#
# Velocity S-wave (km/s) = 3.29736 3.84973 3.58420
# Velocity P-wave (km/s) = 6.19463 6.74992 6.47823
#
# Compressibility (1/GPa) = 0.01716508
#
# Stress axis : x y z
#
# Youngs Moduli (GPa) = 163.46039 135.57767 76.23081
#
# Poissons Ratio (x) = 0.08471 0.13734
# Poissons Ratio (y) = 0.10213 0.17509
# Poissons Ratio (z) = 0.29450 0.31140
#
# Static dielectric constant tensor:
#      x y z
#    x 1.996770 0.000000 0.000000 
#    y 0.000000 1.979500 0.000000 
#    z 0.000000 0.000000 1.955510 
# 
# From -- ./inp_files/2313.got.cif
#   From: 2010.05.17/outbox.cif.g08.bks.cpg/sg21_2_cif.got.tgz:2313.got - 2010.06.03 23:14:55.
