data_PCOD9325573
_publ_section_title
;
Structure prediction by ZEFSAII (Michael W. Deem and Ramdas Pophale) SiO2 
 PCOD9325573
Probable space group: C 2 2 2
;
_chemical_formula_sum "Si O2"
_cell_formula_units_Z 24
_cell_length_a 10.331457
_cell_length_b 10.416112
_cell_length_c 8.831498
_cell_angle_alpha 90.000000
_cell_angle_beta 90.000000
_cell_angle_gamma 90.000000
_cell_volume 950.389410
_symmetry_space_group_name_H-M "C 2 2 2"
_symmetry_group_IT_number 21
_symmetry_cell_setting 'orthorhombic'
loop_
_space_group_symop_operation_xyz
x,y,z
-x,-y,z
x,-y,-z
-x,y,-z
1/2+x,1/2+y,z
1/2-x,1/2-y,z
1/2+x,1/2-y,-z
1/2-x,1/2+y,-z
loop_
_atom_site_type_symbol
_atom_site_label
_atom_site_fract_x
_atom_site_fract_y
_atom_site_fract_z
Si Si1 0.310322 0.623045 0.894980
Si Si2 0.189192 0.545149 0.329993
Si Si3 0.956815 0.797729 0.675940
O O1 0.250000 0.750000 0.973014
O O2 0.200505 0.576350 0.777727
O O3 0.435960 0.656261 0.794928
O O4 0.333656 0.500000 0.000000
O O5 0.166624 0.500000 0.500000
O O6 0.086888 0.653211 0.288304
O O7 0.329932 0.612852 0.319905
O O8 0.000000 0.802923 0.500000
#
# Coordination Sequence:
#
# PCOD9325573 Si02
#       3
#     8   8   8
#     4  12  29  52  76 116 161 208 263 323 395 473
#     4  11  24  46  79 118 153 200 270 322 388 470
#     4  11  24  46  82 114 154 210 259 328 392 457
#
# _framework density 25.252808000000002
#
# number of rings (size 3 to 8) (size 9 to 14) (size 15 to 20)
#    0.000    0.667    3.333    3.000    4.667    7.333 
#    0.000    1.667    0.000    0.000    0.000    0.000 
#    0.000    0.000    0.000    0.000    0.000    0.000 
#
# Total GULP energy -67360.391503 kJ/mol
# GULP energy per Si atom -5613.365959 kJ/mol
# Density = 2.519533 g / cm^3
# Si number density = 25.252808 Si / 1000 Ang^3
#
#
#
# Elastic Constant Matrix: (Units=GPa)
#
#
# Indices 1 2 3 4 5 6 
#
# 1 165.1302 85.7424 60.7919 0.0000 0.0000 0.0000
# 2 85.7424 182.0367 60.6086 0.0000 0.0000 0.0000
# 3 60.7919 60.6086 130.8616 0.0000 0.0000 0.0000
# 4 0.0000 0.0000 0.0000 53.1453 0.0000 0.0000
# 5 0.0000 0.0000 0.0000 0.0000 -13.8760 0.0000
# 6 0.0000 0.0000 0.0000 0.0000 0.0000 45.4570
#
#
#
# Elastic Compliance Matrix: (Units=1/GPa)
#
#
# Indices 1 2 3 4 5 6 
#
# 1 0.008669 -0.003242 -0.002526 0.000000 0.000000 0.000000
# 2 -0.003242 0.007708 -0.002064 0.000000 0.000000 0.000000
# 3 -0.002526 -0.002064 0.009771 0.000000 0.000000 0.000000
# 4 0.000000 0.000000 0.000000 0.018816 0.000000 0.000000
# 5 0.000000 0.000000 0.000000 0.000000 -0.072067 0.000000
# 6 0.000000 0.000000 0.000000 0.000000 0.000000 0.021999
#
#
# Mechanical properties :
#
#
# Convention : Reuss Voigt Hill
#
# Bulk Modulus (GPa) = 95.37928 99.14602 97.26265
# Shear Modulus (GPa) = 355.77449 35.00430 195.38940
#
# Velocity S-wave (km/s) = 11.88238 3.72715 8.80575
# Velocity P-wave (km/s) = 15.03683 7.60715 11.91586
#
# Compressibility (1/GPa) = 0.01048446
#
# Stress axis : x y z
#
# Youngs Moduli (GPa) = 115.35061 129.74028 102.34760
#
# Poissons Ratio (x) = 0.42068 0.25848
# Poissons Ratio (y) = 0.37402 0.21120
# Poissons Ratio (z) = 0.29132 0.26772
#
# Static dielectric constant tensor:
#      x y z
#    x 1.961460 0.000000 0.000000 
#    y 0.000000 2.002730 0.000000 
#    z 0.000000 0.000000 1.985950 
# 
# From -- ./inp_files/11857.got.cif
#   From: 2010.05.17/outbox.cif.g08.bks.cpg/sg21_6_cif.got.tgz:11857.got - 2010.06.03 23:14:55.
