data_PCOD9325125
_publ_section_title
;
Structure prediction by ZEFSAII (Michael W. Deem and Ramdas Pophale) SiO2 
 PCOD9325125
Probable space group: C 2 2 2
;
_chemical_formula_sum "Si O2"
_cell_formula_units_Z 54
_cell_length_a 4.830710
_cell_length_b 28.882084
_cell_length_c 15.628101
_cell_angle_alpha 90.000000
_cell_angle_beta 90.000000
_cell_angle_gamma 90.000000
_cell_volume 2180.447842
_symmetry_space_group_name_H-M "C 2 2 2"
_symmetry_group_IT_number 21
_symmetry_cell_setting 'orthorhombic'
loop_
_space_group_symop_operation_xyz
x,y,z
-x,-y,z
x,-y,-z
-x,y,-z
1/2+x,1/2+y,z
1/2-x,1/2-y,z
1/2+x,1/2-y,-z
1/2-x,1/2+y,-z
loop_
_atom_site_type_symbol
_atom_site_label
_atom_site_fract_x
_atom_site_fract_y
_atom_site_fract_z
Si Si1 0.714255 0.696902 0.754095
Si Si2 0.356953 0.300352 0.381027
Si Si3 0.500000 0.500000 0.000000
Si Si4 0.000000 0.142868 0.500000
Si Si5 0.952170 0.377851 0.377252
Si Si6 0.166427 0.928187 0.134566
Si Si7 0.146040 0.449563 0.246819
Si Si8 0.730428 0.669102 0.941973
O O1 0.750000 0.750000 0.722955
O O2 0.399296 0.690661 0.719880
O O3 0.857857 0.655259 0.702176
O O4 0.782741 0.694823 0.852851
O O5 0.250000 0.250000 0.395235
O O6 0.628421 0.311284 0.435012
O O7 0.207079 0.347146 0.419195
O O8 0.671611 0.467096 0.062088
O O9 0.204423 0.108724 0.559173
O O10 0.095300 0.422116 0.334108
O O11 0.467812 0.923701 0.174074
O O12 0.097883 0.879325 0.091481
O O13 0.955775 0.944392 0.209541
O O14 0.000000 0.500000 0.250790
O O15 0.500000 0.693616 0.000000
O O16 0.000000 0.661749 0.000000
#
# Coordination Sequence:
#
# PCOD9325125 Si02
#       8
#     8   8   2   4   8   8   8   8
#     4  11  24  42  65  97 137 192 245 288 354 425
#     4  11  23  40  72 102 140 184 233 295 361 431
#     4  12  24  38  68  98 148 168 232 314 376 402
#     4  10  26  40  66 113 142 178 225 294 372 422
#     4  11  24  44  71 101 147 183 230 297 351 433
#     4  12  25  42  67 102 140 180 238 306 371 424
#     4  12  25  45  72 105 137 192 245 290 354 440
#     4  12  27  43  67  97 141 192 243 301 359 420
#
# _framework density 24.765556
#
# number of rings (size 3 to 8) (size 9 to 14) (size 15 to 20)
#    0.000    0.593    5.185    2.222    6.222    1.185 
#    0.000    0.000    0.000    2.667    0.000    0.000 
#    0.000    0.000    0.000    0.000    0.000    0.000 
#
# Total GULP energy -150443.365878 kJ/mol
# GULP energy per Si atom -5571.976514 kJ/mol
# Density = 2.470919 g / cm^3
# Si number density = 24.765556 Si / 1000 Ang^3
#
#
#
# Elastic Constant Matrix: (Units=GPa)
#
#
# Indices 1 2 3 4 5 6 
#
# 1 92.5762 5.2111 29.5830 0.0000 0.0000 0.0000
# 2 5.2111 74.9990 32.4674 0.0000 0.0000 0.0000
# 3 29.5830 32.4674 149.5423 0.0000 0.0000 0.0000
# 4 0.0000 0.0000 0.0000 38.2994 0.0000 0.0000
# 5 0.0000 0.0000 0.0000 0.0000 40.0778 0.0000
# 6 0.0000 0.0000 0.0000 0.0000 0.0000 17.9797
#
#
#
# Elastic Compliance Matrix: (Units=1/GPa)
#
#
# Indices 1 2 3 4 5 6 
#
# 1 0.011534 0.000206 -0.002326 0.000000 0.000000 0.000000
# 2 0.000206 0.014720 -0.003237 0.000000 0.000000 0.000000
# 3 -0.002326 -0.003237 0.007850 0.000000 0.000000 0.000000
# 4 0.000000 0.000000 0.000000 0.026110 0.000000 0.000000
# 5 0.000000 0.000000 0.000000 0.000000 0.024951 0.000000
# 6 0.000000 0.000000 0.000000 0.000000 0.000000 0.055618
#
#
# Mechanical properties :
#
#
# Convention : Reuss Voigt Hill
#
# Bulk Modulus (GPa) = 42.75418 50.18228 46.46823
# Shear Modulus (GPa) = 31.38834 35.92846 33.65840
#
# Velocity S-wave (km/s) = 3.56395 3.81299 3.69057
# Velocity P-wave (km/s) = 5.85121 6.30017 6.07984
#
# Compressibility (1/GPa) = 0.02338953
#
# Stress axis : x y z
#
# Youngs Moduli (GPa) = 86.70239 67.93299 127.38875
#
# Poissons Ratio (x) = -0.01397 0.29634
# Poissons Ratio (y) = -0.01783 0.41231
# Poissons Ratio (z) = 0.20170 0.21988
#
# Static dielectric constant tensor:
#      x y z
#    x 2.162820 0.000000 0.000000 
#    y 0.000000 1.995390 0.000000 
#    z 0.000000 0.000000 2.231290 
# 
# From -- ./inp_files/29608.got.cif
#   From: 2010.05.17/outbox.cif.g08.bks.cpg/sg21_15_cif.got.tgz:29608.got - 2010.06.03 23:14:55.
