data_PCOD9325188
_publ_section_title
;
Structure prediction by ZEFSAII (Michael W. Deem and Ramdas Pophale) SiO2 
 PCOD9325188
Probable space group: C 2 2 2
;
_chemical_formula_sum "Si O2"
_cell_formula_units_Z 14
_cell_length_a 4.878950
_cell_length_b 23.900008
_cell_length_c 4.953526
_cell_angle_alpha 90.000000
_cell_angle_beta 90.000000
_cell_angle_gamma 90.000000
_cell_volume 577.615529
_symmetry_space_group_name_H-M "C 2 2 2"
_symmetry_group_IT_number 21
_symmetry_cell_setting 'orthorhombic'
loop_
_space_group_symop_operation_xyz
x,y,z
-x,-y,z
x,-y,-z
-x,y,-z
1/2+x,1/2+y,z
1/2-x,1/2-y,z
1/2+x,1/2-y,-z
1/2-x,1/2+y,-z
loop_
_atom_site_type_symbol
_atom_site_label
_atom_site_fract_x
_atom_site_fract_y
_atom_site_fract_z
Si Si1 0.500000 0.000000 0.000000
Si Si2 0.500000 0.422884 0.000000
Si Si3 0.750000 0.750000 0.799826
Si Si4 0.500000 0.651785 0.500000
O O1 0.264262 0.042323 0.884677
O O2 0.599355 0.386008 0.748467
O O3 0.718960 0.694803 0.621699
O O4 0.500000 0.754485 0.000000
#
# Coordination Sequence:
#
# PCOD9325188 Si02
#       4
#     2   4   4   4
#     4  10  28  52  74 112 142 200 268 324 372 454
#     4  11  28  48  79 106 153 198 258 321 386 438
#     4  12  28  50  76 120 164 204 252 310 374 490
#     4  12  28  49  78 116 154 205 248 314 386 462
#
# _framework density 24.237573999999999
#
# number of rings (size 3 to 8) (size 9 to 14) (size 15 to 20)
#    0.000    0.571    2.857    1.714    4.000   13.714 
#    0.000    0.000    0.000    0.000    0.000    0.000 
#    0.000    0.000    0.000    0.000    0.000    0.000 
#
# Total GULP energy -39050.300588 kJ/mol
# GULP energy per Si atom -5578.614370 kJ/mol
# Density = 2.418241 g / cm^3
# Si number density = 24.237574 Si / 1000 Ang^3
#
#
#
# Elastic Constant Matrix: (Units=GPa)
#
#
# Indices 1 2 3 4 5 6 
#
# 1 199.0922 46.9393 44.3744 0.0000 0.0000 0.0000
# 2 46.9393 126.8198 61.1643 0.0000 0.0000 0.0000
# 3 44.3744 61.1643 148.7719 0.0000 0.0000 0.0000
# 4 0.0000 0.0000 0.0000 -21.0891 0.0000 0.0000
# 5 0.0000 0.0000 0.0000 0.0000 35.5091 0.0000
# 6 0.0000 0.0000 0.0000 0.0000 0.0000 23.3365
#
#
#
# Elastic Compliance Matrix: (Units=1/GPa)
#
#
# Indices 1 2 3 4 5 6 
#
# 1 0.005626 -0.001588 -0.001025 0.000000 0.000000 0.000000
# 2 -0.001588 0.010284 -0.003754 0.000000 0.000000 0.000000
# 3 -0.001025 -0.003754 0.008571 0.000000 0.000000 0.000000
# 4 0.000000 0.000000 0.000000 -0.047418 0.000000 0.000000
# 5 0.000000 0.000000 0.000000 0.000000 0.028162 0.000000
# 6 0.000000 0.000000 0.000000 0.000000 0.000000 0.042851
#
#
# Mechanical properties :
#
#
# Convention : Reuss Voigt Hill
#
# Bulk Modulus (GPa) = 85.13747 86.62664 85.88205
# Shear Modulus (GPa) = 77.24989 29.03170 53.14080
#
# Velocity S-wave (km/s) = 5.65165 3.46468 4.68749
# Velocity P-wave (km/s) = 8.81990 7.19886 8.05029
#
# Compressibility (1/GPa) = 0.01174571
#
# Stress axis : x y z
#
# Youngs Moduli (GPa) = 177.75765 97.24290 116.67289
#
# Poissons Ratio (x) = 0.15440 0.11961
# Poissons Ratio (y) = 0.28223 0.43802
# Poissons Ratio (z) = 0.18224 0.36508
#
# Static dielectric constant tensor:
#      x y z
#    x 1.906740 0.000000 0.000000 
#    y 0.000000 2.004880 0.000000 
#    z 0.000000 0.000000 1.893750 
# 
# From -- ./inp_files/442.got.cif
#   From: 2010.05.17/outbox.cif.g08.bks.cpg/sg21_1_cif.got.tgz:442.got - 2010.06.03 23:14:55.
