data_PCOD9325696
_publ_section_title
;
Structure prediction by ZEFSAII (Michael W. Deem and Ramdas Pophale) SiO2 
 PCOD9325696
Probable space group: C 2 2 2
;
_chemical_formula_sum "Si O2"
_cell_formula_units_Z 30
_cell_length_a 14.570859
_cell_length_b 12.350712
_cell_length_c 6.619710
_cell_angle_alpha 90.000000
_cell_angle_beta 90.000000
_cell_angle_gamma 90.000000
_cell_volume 1191.286210
_symmetry_space_group_name_H-M "C 2 2 2"
_symmetry_group_IT_number 21
_symmetry_cell_setting 'orthorhombic'
loop_
_space_group_symop_operation_xyz
x,y,z
-x,-y,z
x,-y,-z
-x,y,-z
1/2+x,1/2+y,z
1/2-x,1/2-y,z
1/2+x,1/2-y,-z
1/2-x,1/2+y,-z
loop_
_atom_site_type_symbol
_atom_site_label
_atom_site_fract_x
_atom_site_fract_y
_atom_site_fract_z
Si Si1 0.977718 0.185304 0.234305
Si Si2 0.750000 0.250000 0.739451
Si Si3 0.500000 0.500000 0.500000
Si Si4 0.209149 0.112811 0.894738
Si Si5 0.124911 0.377007 0.579617
O O1 0.039186 0.093697 0.346220
O O2 0.876816 0.129815 0.249992
O O3 0.958549 0.304520 0.327566
O O4 0.000000 0.193752 0.000000
O O5 0.820387 0.316872 0.601697
O O6 0.806553 0.185645 0.907925
O O7 0.300961 0.125757 0.763340
O O8 0.214862 0.000000 0.000000
O O9 0.106603 0.500000 0.500000
#
# Coordination Sequence:
#
# PCOD9325696 Si02
#       5
#     8   4   2   8   8
#     4  12  28  49  73 112 154 203 255 315 386 458
#     4  12  22  42  74 110 146 186 246 308 390 448
#     4  12  30  48  78 102 148 208 262 308 380 478
#     4  12  24  42  77 112 148 190 250 328 376 446
#     4  12  26  45  78 116 146 203 256 314 386 455
#
# _framework density 25.182863999999999
#
# number of rings (size 3 to 8) (size 9 to 14) (size 15 to 20)
#    0.000    0.000    8.000    2.000    9.333    0.000 
#    0.000    0.667    5.867    0.000    0.000    0.000 
#    0.000    0.000    0.000    0.000    0.000    0.000 
#
# Total GULP energy -83669.213694 kJ/mol
# GULP energy per Si atom -5577.947580 kJ/mol
# Density = 2.512555 g / cm^3
# Si number density = 25.182864 Si / 1000 Ang^3
#
#
#
# Elastic Constant Matrix: (Units=GPa)
#
#
# Indices 1 2 3 4 5 6 
#
# 1 61.5102 47.5629 32.9442 0.0000 0.0000 0.0000
# 2 47.5629 170.4706 126.2948 0.0000 0.0000 0.0000
# 3 32.9442 126.2948 193.9344 0.0000 0.0000 0.0000
# 4 0.0000 0.0000 0.0000 143.1269 0.0000 0.0000
# 5 0.0000 0.0000 0.0000 0.0000 51.8546 0.0000
# 6 0.0000 0.0000 0.0000 0.0000 0.0000 20.7031
#
#
#
# Elastic Compliance Matrix: (Units=1/GPa)
#
#
# Indices 1 2 3 4 5 6 
#
# 1 0.020752 -0.006141 0.000474 0.000000 0.000000 0.000000
# 2 -0.006141 0.013152 -0.007522 0.000000 0.000000 0.000000
# 3 0.000474 -0.007522 0.009974 0.000000 0.000000 0.000000
# 4 0.000000 0.000000 0.000000 0.006987 0.000000 0.000000
# 5 0.000000 0.000000 0.000000 0.000000 0.019285 0.000000
# 6 0.000000 0.000000 0.000000 0.000000 0.000000 0.048302
#
#
# Mechanical properties :
#
#
# Convention : Reuss Voigt Hill
#
# Bulk Modulus (GPa) = 57.14044 93.27988 75.21016
# Shear Modulus (GPa) = 33.18648 57.74447 45.46547
#
# Velocity S-wave (km/s) = 3.63412 4.79373 4.25362
# Velocity P-wave (km/s) = 6.35205 8.23172 7.35220
#
# Compressibility (1/GPa) = 0.01750074
#
# Stress axis : x y z
#
# Youngs Moduli (GPa) = 48.18734 76.03302 100.25875
#
# Poissons Ratio (x) = 0.46695 -0.04754
# Poissons Ratio (y) = 0.29594 0.75412
# Poissons Ratio (z) = -0.02285 0.57190
#
# Static dielectric constant tensor:
#      x y z
#    x 2.035610 0.000000 0.000000 
#    y 0.000000 1.927690 0.000000 
#    z 0.000000 0.000000 1.922070 
# 
# From -- ./inp_files/5609.got.cif
#   From: 2010.05.17/outbox.cif.g08.bks.cpg/sg21_3_cif.got.tgz:5609.got - 2010.06.03 23:14:55.
