data_PCOD9325132
_publ_section_title
;
Structure prediction by ZEFSAII (Michael W. Deem and Ramdas Pophale) SiO2 
 PCOD9325132
Probable space group: C 2 2 2
;
_chemical_formula_sum "Si O2"
_cell_formula_units_Z 32
_cell_length_a 18.164222
_cell_length_b 15.316478
_cell_length_c 5.097157
_cell_angle_alpha 90.000000
_cell_angle_beta 90.000000
_cell_angle_gamma 90.000000
_cell_volume 1418.089767
_symmetry_space_group_name_H-M "C 2 2 2"
_symmetry_group_IT_number 21
_symmetry_cell_setting 'orthorhombic'
loop_
_space_group_symop_operation_xyz
x,y,z
-x,-y,z
x,-y,-z
-x,y,-z
1/2+x,1/2+y,z
1/2-x,1/2-y,z
1/2+x,1/2-y,-z
1/2-x,1/2+y,-z
loop_
_atom_site_type_symbol
_atom_site_label
_atom_site_fract_x
_atom_site_fract_y
_atom_site_fract_z
Si Si1 0.500000 0.000000 0.500000
Si Si2 0.369706 0.581674 0.302950
Si Si3 0.835937 0.271732 0.224621
Si Si4 0.000000 0.000000 0.000000
Si Si5 0.872285 0.384272 0.722417
Si Si6 0.744022 0.000000 0.000000
O O1 0.552254 0.062687 0.675519
O O2 0.358777 0.500000 0.500000
O O3 0.370009 0.684073 0.357186
O O4 0.446820 0.559492 0.170075
O O5 0.300537 0.570834 0.110264
O O6 0.750000 0.250000 0.179527
O O7 0.848088 0.343491 0.447139
O O8 0.870822 0.311170 0.955616
O O9 0.809442 0.453244 0.798737
#
# Coordination Sequence:
#
# PCOD9325132 Si02
#       6
#     2   8   8   2   8   4
#     4  12  32  54  80 118 166 228 260 322 436 482
#     4  11  25  46  77 110 153 207 258 320 407 473
#     4  12  26  47  80 119 151 198 269 334 387 460
#     4  10  26  44  72 108 148 208 250 314 390 492
#     4  12  28  49  77 113 161 205 266 325 394 486
#     4  11  24  46  76 109 148 208 252 319 388 478
#
# _framework density 22.565567000000001
#
# number of rings (size 3 to 8) (size 9 to 14) (size 15 to 20)
#    0.000    0.500    2.500    4.125    8.750    6.500 
#    0.000    0.000    0.000    0.000    0.000    0.000 
#    0.000    0.000    0.000    0.000    0.000    0.000 
#
# Total GULP energy -89410.524322 kJ/mol
# GULP energy per Si atom -5588.157770 kJ/mol
# Density = 2.251421 g / cm^3
# Si number density = 22.565567 Si / 1000 Ang^3
#
#
#
# Elastic Constant Matrix: (Units=GPa)
#
#
# Indices 1 2 3 4 5 6 
#
# 1 162.9487 60.7643 47.5011 0.0000 0.0000 0.0000
# 2 60.7643 139.4571 38.6700 0.0000 0.0000 0.0000
# 3 47.5011 38.6700 106.0377 0.0000 0.0000 0.0000
# 4 0.0000 0.0000 0.0000 69.9115 0.0000 0.0000
# 5 0.0000 0.0000 0.0000 0.0000 42.9661 0.0000
# 6 0.0000 0.0000 0.0000 0.0000 0.0000 35.1982
#
#
#
# Elastic Compliance Matrix: (Units=1/GPa)
#
#
# Indices 1 2 3 4 5 6 
#
# 1 0.007898 -0.002737 -0.002540 0.000000 0.000000 0.000000
# 2 -0.002737 0.008926 -0.002029 0.000000 0.000000 0.000000
# 3 -0.002540 -0.002029 0.011308 0.000000 0.000000 0.000000
# 4 0.000000 0.000000 0.000000 0.014304 0.000000 0.000000
# 5 0.000000 0.000000 0.000000 0.000000 0.023274 0.000000
# 6 0.000000 0.000000 0.000000 0.000000 0.000000 0.028411
#
#
# Mechanical properties :
#
#
# Convention : Reuss Voigt Hill
#
# Bulk Modulus (GPa) = 73.96258 78.03492 75.99875
# Shear Modulus (GPa) = 44.15431 47.04901 45.60166
#
# Velocity S-wave (km/s) = 4.42827 4.57112 4.50027
# Velocity P-wave (km/s) = 7.68076 7.90675 7.79457
#
# Compressibility (1/GPa) = 0.01352035
#
# Stress axis : x y z
#
# Youngs Moduli (GPa) = 126.61529 112.03395 88.43046
#
# Poissons Ratio (x) = 0.30664 0.22460
# Poissons Ratio (y) = 0.34655 0.17943
# Poissons Ratio (z) = 0.32158 0.22732
#
# Static dielectric constant tensor:
#      x y z
#    x 1.767900 0.000000 0.000000 
#    y 0.000000 1.635050 0.000000 
#    z 0.000000 0.000000 1.895830 
# 
# From -- ./inp_files/4633.got.cif
#   From: 2010.05.17/outbox.cif.g08.bks.cpg/sg21_3_cif.got.tgz:4633.got - 2010.06.03 23:14:55.
