data_PCOD9325674
_publ_section_title
;
Structure prediction by ZEFSAII (Michael W. Deem and Ramdas Pophale) SiO2 
 PCOD9325674
Probable space group: C 2 2 2
;
_chemical_formula_sum "Si O2"
_cell_formula_units_Z 26
_cell_length_a 24.844891
_cell_length_b 4.866457
_cell_length_c 9.851706
_cell_angle_alpha 90.000000
_cell_angle_beta 90.000000
_cell_angle_gamma 90.000000
_cell_volume 1191.136215
_symmetry_space_group_name_H-M "C 2 2 2"
_symmetry_group_IT_number 21
_symmetry_cell_setting 'orthorhombic'
loop_
_space_group_symop_operation_xyz
x,y,z
-x,-y,z
x,-y,-z
-x,y,-z
1/2+x,1/2+y,z
1/2-x,1/2-y,z
1/2+x,1/2-y,-z
1/2-x,1/2+y,-z
loop_
_atom_site_type_symbol
_atom_site_label
_atom_site_fract_x
_atom_site_fract_y
_atom_site_fract_z
Si Si1 0.359953 0.393179 0.249722
Si Si2 0.214800 0.000000 0.000000
Si Si3 0.083224 0.594285 0.146786
Si Si4 0.000000 0.000000 0.000000
Si Si5 0.212778 0.000000 0.500000
O O1 0.381282 0.700843 0.233972
O O2 0.325144 0.370095 0.384323
O O3 0.410937 0.188167 0.231082
O O4 0.320365 0.371193 0.120703
O O5 0.250000 0.250000 0.943068
O O6 0.104881 0.500000 0.000000
O O7 0.033591 0.787521 0.095366
O O8 0.250000 0.250000 0.553081
#
# Coordination Sequence:
#
# PCOD9325674 Si02
#       5
#     8   4   8   2   4
#     4  12  24  41  65  99 138 180 233 284 343 405
#     4  12  21  34  58  91 128 169 224 288 339 388
#     4  12  22  41  67 105 136 169 223 288 354 421
#     4  12  24  40  74 114 138 172 226 302 364 436
#     4  12  26  48  68  97 144 199 246 276 332 414
#
# _framework density 21.827898999999999
#
# number of rings (size 3 to 8) (size 9 to 14) (size 15 to 20)
#    0.000    0.000    6.154    6.000    0.000    0.000 
#    0.000    0.000    0.000    0.923    8.000    0.000 
#    0.000    0.000    0.000    0.000    0.000    0.000 
#
# Total GULP energy -72439.971647 kJ/mol
# GULP energy per Si atom -5572.305511 kJ/mol
# Density = 2.177822 g / cm^3
# Si number density = 21.827899 Si / 1000 Ang^3
#
#
#
# Elastic Constant Matrix: (Units=GPa)
#
#
# Indices 1 2 3 4 5 6 
#
# 1 77.7422 35.5159 38.9892 0.0000 0.0000 0.0000
# 2 35.5159 141.1974 11.2626 0.0000 0.0000 0.0000
# 3 38.9892 11.2626 89.2373 0.0000 0.0000 0.0000
# 4 0.0000 0.0000 0.0000 27.8315 0.0000 0.0000
# 5 0.0000 0.0000 0.0000 0.0000 29.6135 0.0000
# 6 0.0000 0.0000 0.0000 0.0000 0.0000 90.9307
#
#
#
# Elastic Compliance Matrix: (Units=1/GPa)
#
#
# Indices 1 2 3 4 5 6 
#
# 1 0.018515 -0.004053 -0.007578 0.000000 0.000000 0.000000
# 2 -0.004053 0.008041 0.000756 0.000000 0.000000 0.000000
# 3 -0.007578 0.000756 0.014422 0.000000 0.000000 0.000000
# 4 0.000000 0.000000 0.000000 0.035930 0.000000 0.000000
# 5 0.000000 0.000000 0.000000 0.000000 0.033768 0.000000
# 6 0.000000 0.000000 0.000000 0.000000 0.000000 0.010997
#
#
# Mechanical properties :
#
#
# Convention : Reuss Voigt Hill
#
# Bulk Modulus (GPa) = 52.00695 53.30136 52.65416
# Shear Modulus (GPa) = 33.37038 44.50241 38.93640
#
# Velocity S-wave (km/s) = 3.91422 4.52019 4.22808
# Velocity P-wave (km/s) = 6.65626 7.19130 6.92895
#
# Compressibility (1/GPa) = 0.01922820
#
# Stress axis : x y z
#
# Youngs Moduli (GPa) = 54.01033 124.35672 69.34028
#
# Poissons Ratio (x) = 0.50398 0.52546
# Poissons Ratio (y) = 0.21889 -0.05241
# Poissons Ratio (z) = 0.40929 -0.09399
#
# Static dielectric constant tensor:
#      x y z
#    x 1.890560 0.000000 0.000000 
#    y 0.000000 1.829180 0.000000 
#    z 0.000000 0.000000 1.745520 
# 
# From -- ./inp_files/18055.got.cif
#   From: 2010.05.17/outbox.cif.g08.bks.cpg/sg21_10_cif.got.tgz:18055.got - 2010.06.03 23:14:55.
