data_PCOD9325143
_publ_section_title
;
Structure prediction by ZEFSAII (Michael W. Deem and Ramdas Pophale) SiO2 
 PCOD9325143
Probable space group: C 2 2 2
;
_chemical_formula_sum "Si O2"
_cell_formula_units_Z 36
_cell_length_a 22.563385
_cell_length_b 13.230427
_cell_length_c 5.626217
_cell_angle_alpha 90.000000
_cell_angle_beta 90.000000
_cell_angle_gamma 90.000000
_cell_volume 1679.556405
_symmetry_space_group_name_H-M "C 2 2 2"
_symmetry_group_IT_number 21
_symmetry_cell_setting 'orthorhombic'
loop_
_space_group_symop_operation_xyz
x,y,z
-x,-y,z
x,-y,-z
-x,y,-z
1/2+x,1/2+y,z
1/2-x,1/2-y,z
1/2+x,1/2-y,-z
1/2-x,1/2+y,-z
loop_
_atom_site_type_symbol
_atom_site_label
_atom_site_fract_x
_atom_site_fract_y
_atom_site_fract_z
Si Si1 0.750000 0.250000 0.629686
Si Si2 0.764746 0.392764 0.013926
Si Si3 0.856441 0.942334 0.751259
Si Si4 0.523003 0.116275 0.252824
Si Si5 0.357384 0.219898 0.721245
O O1 0.735229 0.352104 0.775672
O O2 0.689672 0.221557 0.492850
O O3 0.796308 0.500000 0.000000
O O4 0.713337 0.412730 0.206641
O O5 0.812190 0.307057 0.067835
O O6 0.885533 0.830835 0.741954
O O7 0.865204 0.000000 0.500000
O O8 0.872160 0.000000 0.000000
O O9 0.500000 0.163163 0.500000
O O10 0.593055 0.134054 0.273865
O O11 0.500000 0.000000 0.253003
O O12 0.500000 0.158946 0.000000
#
# Coordination Sequence:
#
# PCOD9325143 Si02
#       5
#     4   8   8   8   8
#     4  12  22  42  62 108 142 194 248 292 398 428
#     4  11  24  35  60 100 144 189 231 289 377 451
#     4  11  23  41  63 100 142 179 233 292 373 443
#     4  10  26  47  68  99 139 193 248 293 358 432
#     4  12  24  41  71  98 149 192 244 314 360 453
#
# _framework density 21.434231
#
# number of rings (size 3 to 8) (size 9 to 14) (size 15 to 20)
#    0.000    0.889    4.444    2.667    6.222    1.778 
#    0.000    0.000    0.000    4.000    0.000    0.000 
#    0.000    0.000    0.000    0.000    0.000    0.000 
#
# Total GULP energy -100221.920340 kJ/mol
# GULP energy per Si atom -5567.884463 kJ/mol
# Density = 2.138545 g / cm^3
# Si number density = 21.434231 Si / 1000 Ang^3
#
#
#
# Elastic Constant Matrix: (Units=GPa)
#
#
# Indices 1 2 3 4 5 6 
#
# 1 79.7398 18.4139 25.4072 0.0000 0.0000 0.0000
# 2 18.4139 127.2643 35.4293 0.0000 0.0000 0.0000
# 3 25.4072 35.4293 146.3759 0.0000 0.0000 0.0000
# 4 0.0000 0.0000 0.0000 23.3457 0.0000 0.0000
# 5 0.0000 0.0000 0.0000 0.0000 12.4855 0.0000
# 6 0.0000 0.0000 0.0000 0.0000 0.0000 29.7137
#
#
#
# Elastic Compliance Matrix: (Units=1/GPa)
#
#
# Indices 1 2 3 4 5 6 
#
# 1 0.013502 -0.001395 -0.002006 0.000000 0.000000 0.000000
# 2 -0.001395 0.008570 -0.001832 0.000000 0.000000 0.000000
# 3 -0.002006 -0.001832 0.007623 0.000000 0.000000 0.000000
# 4 0.000000 0.000000 0.000000 0.042834 0.000000 0.000000
# 5 0.000000 0.000000 0.000000 0.000000 0.080093 0.000000
# 6 0.000000 0.000000 0.000000 0.000000 0.000000 0.033655
#
#
# Mechanical properties :
#
#
# Convention : Reuss Voigt Hill
#
# Bulk Modulus (GPa) = 52.00562 56.87566 54.44064
# Shear Modulus (GPa) = 24.61201 31.38427 27.99814
#
# Velocity S-wave (km/s) = 3.39227 3.83065 3.61811
# Velocity P-wave (km/s) = 6.29753 6.79395 6.55045
#
# Compressibility (1/GPa) = 0.01922869
#
# Stress axis : x y z
#
# Youngs Moduli (GPa) = 74.06245 116.69218 131.17609
#
# Poissons Ratio (x) = 0.16281 0.26313
# Poissons Ratio (y) = 0.10333 0.24032
# Poissons Ratio (z) = 0.14856 0.21378
#
# Static dielectric constant tensor:
#      x y z
#    x 1.780420 0.000000 0.000000 
#    y 0.000000 1.910700 0.000000 
#    z 0.000000 0.000000 1.919040 
# 
# From -- ./inp_files/5706.got.cif
#   From: 2010.05.17/outbox.cif.g08.bks.cpg/sg21_3_cif.got.tgz:5706.got - 2010.06.03 23:14:55.
