data_PCOD9325617
_publ_section_title
;
Structure prediction by ZEFSAII (Michael W. Deem and Ramdas Pophale) SiO2 
 PCOD9325617
Probable space group: C 2 2 2
;
_chemical_formula_sum "Si O2"
_cell_formula_units_Z 20
_cell_length_a 17.824467
_cell_length_b 7.478122
_cell_length_c 6.960519
_cell_angle_alpha 90.000000
_cell_angle_beta 90.000000
_cell_angle_gamma 90.000000
_cell_volume 927.792209
_symmetry_space_group_name_H-M "C 2 2 2"
_symmetry_group_IT_number 21
_symmetry_cell_setting 'orthorhombic'
loop_
_space_group_symop_operation_xyz
x,y,z
-x,-y,z
x,-y,-z
-x,y,-z
1/2+x,1/2+y,z
1/2-x,1/2-y,z
1/2+x,1/2-y,-z
1/2-x,1/2+y,-z
loop_
_atom_site_type_symbol
_atom_site_label
_atom_site_fract_x
_atom_site_fract_y
_atom_site_fract_z
Si Si1 0.921505 0.160896 0.614850
Si Si2 0.128179 0.000000 0.000000
Si Si3 0.250000 0.250000 0.803232
Si Si4 0.671002 0.000000 0.500000
O O1 0.878524 0.345248 0.596099
O O2 0.000000 0.182490 0.500000
O O3 0.880877 0.000000 0.500000
O O4 0.921073 0.088202 0.831017
O O5 0.183414 0.842657 0.076139
O O6 0.282602 0.095949 0.666424
#
# Coordination Sequence:
#
# PCOD9325617 Si02
#       4
#     8   4   4   4
#     4  11  25  47  74 103 148 191 238 300 353 425
#     4  12  24  47  74 112 139 192 244 292 362 430
#     4  12  24  42  78 108 150 184 240 298 358 442
#     4  12  23  48  72 112 147 194 232 296 376 414
#
# _framework density 21.556550000000001
#
# number of rings (size 3 to 8) (size 9 to 14) (size 15 to 20)
#    0.000    0.400    4.000    5.400    0.000    3.200 
#    0.000    0.000   17.600    0.000    0.000    0.000 
#    0.000    0.000    0.000    0.000    0.000    0.000 
#
# Total GULP energy -55918.463023 kJ/mol
# GULP energy per Si atom -5591.846302 kJ/mol
# Density = 2.150749 g / cm^3
# Si number density = 21.556550 Si / 1000 Ang^3
#
#
#
# Elastic Constant Matrix: (Units=GPa)
#
#
# Indices 1 2 3 4 5 6 
#
# 1 128.8153 66.2740 81.9877 0.0000 0.0000 0.0000
# 2 66.2740 167.8436 68.3165 0.0000 0.0000 0.0000
# 3 81.9877 68.3165 179.3985 0.0000 0.0000 0.0000
# 4 0.0000 0.0000 0.0000 57.3821 0.0000 0.0000
# 5 0.0000 0.0000 0.0000 0.0000 27.3118 0.0000
# 6 0.0000 0.0000 0.0000 0.0000 0.0000 28.9446
#
#
#
# Elastic Compliance Matrix: (Units=1/GPa)
#
#
# Indices 1 2 3 4 5 6 
#
# 1 0.012094 -0.002989 -0.004389 0.000000 0.000000 0.000000
# 2 -0.002989 0.007790 -0.001600 0.000000 0.000000 0.000000
# 3 -0.004389 -0.001600 0.008189 0.000000 0.000000 0.000000
# 4 0.000000 0.000000 0.000000 0.017427 0.000000 0.000000
# 5 0.000000 0.000000 0.000000 0.000000 0.036614 0.000000
# 6 0.000000 0.000000 0.000000 0.000000 0.000000 0.034549
#
#
# Mechanical properties :
#
#
# Convention : Reuss Voigt Hill
#
# Bulk Modulus (GPa) = 98.84770 101.02376 99.93573
# Shear Modulus (GPa) = 36.23388 40.02631 38.13010
#
# Velocity S-wave (km/s) = 4.10430 4.31374 4.21032
# Velocity P-wave (km/s) = 8.27133 8.47216 8.37235
#
# Compressibility (1/GPa) = 0.01011657
#
# Stress axis : x y z
#
# Youngs Moduli (GPa) = 82.68266 128.37735 122.10848
#
# Poissons Ratio (x) = 0.38373 0.53594
# Poissons Ratio (y) = 0.24715 0.19541
# Poissons Ratio (z) = 0.36290 0.20544
#
# Static dielectric constant tensor:
#      x y z
#    x 1.850060 0.000000 0.000000 
#    y 0.000000 1.752720 0.000000 
#    z 0.000000 0.000000 1.814890 
# 
# From -- ./inp_files/1016.got.cif
#   From: 2010.05.17/outbox.cif.g08.bks.cpg/sg21_1_cif.got.tgz:1016.got - 2010.06.03 23:14:55.
