data_PCOD9325322
_publ_section_title
;
Structure prediction by ZEFSAII (Michael W. Deem and Ramdas Pophale) SiO2 
 PCOD9325322
Probable space group: C 2 2 2
;
_chemical_formula_sum "Si O2"
_cell_formula_units_Z 56
_cell_length_a 9.295084
_cell_length_b 21.927144
_cell_length_c 14.517778
_cell_angle_alpha 90.000000
_cell_angle_beta 90.000000
_cell_angle_gamma 90.000000
_cell_volume 2958.935774
_symmetry_space_group_name_H-M "C 2 2 2"
_symmetry_group_IT_number 21
_symmetry_cell_setting 'orthorhombic'
loop_
_space_group_symop_operation_xyz
x,y,z
-x,-y,z
x,-y,-z
-x,y,-z
1/2+x,1/2+y,z
1/2-x,1/2-y,z
1/2+x,1/2-y,-z
1/2-x,1/2+y,-z
loop_
_atom_site_type_symbol
_atom_site_label
_atom_site_fract_x
_atom_site_fract_y
_atom_site_fract_z
Si Si1 0.748081 0.003389 0.099945
Si Si2 0.521016 0.097645 0.899729
Si Si3 0.449941 0.869514 0.302235
Si Si4 0.923212 0.748993 0.401235
Si Si5 0.327707 0.443120 0.715044
Si Si6 0.066002 0.883567 0.601355
Si Si7 0.840039 0.459634 0.593925
O O1 0.607908 0.047795 0.095498
O O2 0.839772 0.033313 0.180732
O O3 0.672636 0.937630 0.113865
O O4 0.818578 0.000000 0.000000
O O5 0.497701 0.132068 0.804347
O O6 0.500000 0.129111 0.000000
O O7 0.507441 0.807775 0.347863
O O8 0.279851 0.885057 0.298812
O O9 0.523103 0.926496 0.358928
O O10 0.750000 0.750000 0.411307
O O11 0.951841 0.815812 0.359231
O O12 0.000000 0.747722 0.500000
O O13 0.477071 0.428481 0.666570
O O14 0.240088 0.496693 0.665177
O O15 0.229080 0.903805 0.583252
O O16 0.000000 0.886265 0.500000
O O17 0.853609 0.500000 0.500000
#
# Coordination Sequence:
#
# PCOD9325322 Si02
#       7
#     8   8   8   8   8   8   8
#     4   8  14  28  51  84 121 148 178 228 288 356
#     4   8  14  29  53  86 116 143 183 236 293 346
#     4  11  23  37  59  92 114 149 197 252 291 341
#     4  11  26  43  59  79 114 163 209 242 288 352
#     4  11  22  34  58  92 117 148 190 241 295 348
#     4  11  24  42  55  76 116 165 199 233 290 357
#     4  12  23  37  55  83 123 154 187 236 295 353
#
# _framework density 18.925723000000001
#
# number of rings (size 3 to 8) (size 9 to 14) (size 15 to 20)
#    0.000    1.714    4.286    1.714    6.000    0.571 
#    0.000    0.000    0.000    1.714   14.857    0.000 
#    0.000    0.000    0.000    0.000    0.000    0.000 
#
# Total GULP energy -156009.244221 kJ/mol
# GULP energy per Si atom -5571.758722 kJ/mol
# Density = 1.888265 g / cm^3
# Si number density = 18.925723 Si / 1000 Ang^3
#
#
#
# Elastic Constant Matrix: (Units=GPa)
#
#
# Indices 1 2 3 4 5 6 
#
# 1 82.0671 18.3039 28.2129 0.0000 0.0000 0.0000
# 2 18.3039 90.0258 43.3594 0.0000 0.0000 0.0000
# 3 28.2129 43.3594 120.1236 0.0000 0.0000 0.0000
# 4 0.0000 0.0000 0.0000 7.4604 0.0000 0.0000
# 5 0.0000 0.0000 0.0000 0.0000 14.4921 0.0000
# 6 0.0000 0.0000 0.0000 0.0000 0.0000 12.2688
#
#
#
# Elastic Compliance Matrix: (Units=1/GPa)
#
#
# Indices 1 2 3 4 5 6 
#
# 1 0.013413 -0.001464 -0.002622 0.000000 0.000000 0.000000
# 2 -0.001464 0.013605 -0.004567 0.000000 0.000000 0.000000
# 3 -0.002622 -0.004567 0.010589 0.000000 0.000000 0.000000
# 4 0.000000 0.000000 0.000000 0.134042 0.000000 0.000000
# 5 0.000000 0.000000 0.000000 0.000000 0.069003 0.000000
# 6 0.000000 0.000000 0.000000 0.000000 0.000000 0.081508
#
#
# Mechanical properties :
#
#
# Convention : Reuss Voigt Hill
#
# Bulk Modulus (GPa) = 49.25828 52.44099 50.84963
# Shear Modulus (GPa) = 14.44115 20.33361 17.38738
#
# Velocity S-wave (km/s) = 2.76532 3.28135 3.03432
# Velocity P-wave (km/s) = 6.02326 6.49040 6.26119
#
# Compressibility (1/GPa) = 0.02030116
#
# Stress axis : x y z
#
# Youngs Moduli (GPa) = 74.55431 73.50089 94.43790
#
# Poissons Ratio (x) = 0.10764 0.24758
# Poissons Ratio (y) = 0.10918 0.43129
# Poissons Ratio (z) = 0.19546 0.33568
#
# Static dielectric constant tensor:
#      x y z
#    x 1.703650 0.000000 0.000000 
#    y 0.000000 1.695420 0.000000 
#    z 0.000000 0.000000 1.690370 
# 
# From -- ./inp_files/30738.got.cif
#   From: 2010.05.17/outbox.cif.g08.bks.cpg/sg21_16_cif.got.tgz:30738.got - 2010.06.03 23:14:55.
