data_PCOD9325635
_publ_section_title
;
Structure prediction by ZEFSAII (Michael W. Deem and Ramdas Pophale) SiO2 
 PCOD9325635
Probable space group: C 2 2 2
;
_chemical_formula_sum "Si O2"
_cell_formula_units_Z 40
_cell_length_a 18.195623
_cell_length_b 17.459551
_cell_length_c 5.219027
_cell_angle_alpha 90.000000
_cell_angle_beta 90.000000
_cell_angle_gamma 90.000000
_cell_volume 1658.019159
_symmetry_space_group_name_H-M "C 2 2 2"
_symmetry_group_IT_number 21
_symmetry_cell_setting 'orthorhombic'
loop_
_space_group_symop_operation_xyz
x,y,z
-x,-y,z
x,-y,-z
-x,y,-z
1/2+x,1/2+y,z
1/2-x,1/2-y,z
1/2+x,1/2-y,-z
1/2-x,1/2+y,-z
loop_
_atom_site_type_symbol
_atom_site_label
_atom_site_fract_x
_atom_site_fract_y
_atom_site_fract_z
Si Si1 0.585494 0.089066 0.942456
Si Si2 0.921874 0.279326 0.627892
Si Si3 0.584584 0.362066 0.953035
Si Si4 0.801751 0.688689 0.734899
Si Si5 0.673787 0.588416 0.543839
O O1 0.648535 0.133320 0.095945
O O2 0.500000 0.108077 0.000000
O O3 0.588643 0.129219 0.665500
O O4 0.594432 0.000000 0.000000
O O5 0.916037 0.229564 0.887179
O O6 0.855867 0.260725 0.439293
O O7 0.000000 0.262252 0.500000
O O8 0.619226 0.393386 0.690701
O O9 0.500000 0.383893 0.000000
O O10 0.631866 0.393944 0.188705
O O11 0.750000 0.750000 0.881982
O O12 0.748301 0.637510 0.559437
O O13 0.694068 0.500000 0.500000
#
# Coordination Sequence:
#
# PCOD9325635 Si02
#       5
#     8   8   8   8   8
#     4  11  26  47  76 115 158 213 273 344 414 498
#     4  12  25  47  79 115 154 213 277 336 406 496
#     4  12  27  51  82 114 156 213 272 328 397 491
#     4  12  27  49  76 115 155 214 269 340 417 496
#     4  12  29  50  79 120 160 208 263 337 417 487
#
# _framework density 24.125171999999999
#
# number of rings (size 3 to 8) (size 9 to 14) (size 15 to 20)
#    0.000    0.200    4.000    4.200    5.600    3.200 
#    0.000    0.000    0.000    0.000    0.000    0.000 
#    0.000    0.000    0.000    0.000    0.000    0.000 
#
# Total GULP energy -111853.018747 kJ/mol
# GULP energy per Si atom -5592.650937 kJ/mol
# Density = 2.407026 g / cm^3
# Si number density = 24.125172 Si / 1000 Ang^3
#
#
#
# Elastic Constant Matrix: (Units=GPa)
#
#
# Indices 1 2 3 4 5 6 
#
# 1 187.0740 47.5983 47.6522 0.0000 0.0000 0.0000
# 2 47.5983 123.5363 14.7523 0.0000 0.0000 0.0000
# 3 47.6522 14.7523 112.4499 0.0000 0.0000 0.0000
# 4 0.0000 0.0000 0.0000 25.6670 0.0000 0.0000
# 5 0.0000 0.0000 0.0000 0.0000 41.8412 0.0000
# 6 0.0000 0.0000 0.0000 0.0000 0.0000 29.8300
#
#
#
# Elastic Compliance Matrix: (Units=1/GPa)
#
#
# Indices 1 2 3 4 5 6 
#
# 1 0.006544 -0.002225 -0.002481 0.000000 0.000000 0.000000
# 2 -0.002225 0.008980 -0.000235 0.000000 0.000000 0.000000
# 3 -0.002481 -0.000235 0.009975 0.000000 0.000000 0.000000
# 4 0.000000 0.000000 0.000000 0.038961 0.000000 0.000000
# 5 0.000000 0.000000 0.000000 0.000000 0.023900 0.000000
# 6 0.000000 0.000000 0.000000 0.000000 0.000000 0.033523
#
#
# Mechanical properties :
#
#
# Convention : Reuss Voigt Hill
#
# Bulk Modulus (GPa) = 64.03555 71.45176 67.74366
# Shear Modulus (GPa) = 36.50421 40.33812 38.42116
#
# Velocity S-wave (km/s) = 3.89410 4.09349 3.99504
# Velocity P-wave (km/s) = 6.84247 7.21274 7.03004
#
# Compressibility (1/GPa) = 0.01561633
#
# Stress axis : x y z
#
# Youngs Moduli (GPa) = 152.82196 111.35671 100.24976
#
# Poissons Ratio (x) = 0.24776 0.24872
# Poissons Ratio (y) = 0.34002 0.02358
# Poissons Ratio (z) = 0.37916 0.02620
#
# Static dielectric constant tensor:
#      x y z
#    x 1.933290 0.000000 0.000000 
#    y 0.000000 2.029210 0.000000 
#    z 0.000000 0.000000 1.935860 
# 
# From -- ./inp_files/4824.got.cif
#   From: 2010.05.17/outbox.cif.g08.bks.cpg/sg21_3_cif.got.tgz:4824.got - 2010.06.03 23:14:55.
