data_PCOD9325073
_publ_section_title
;
Structure prediction by ZEFSAII (Michael W. Deem and Ramdas Pophale) SiO2 
 PCOD9325073
Probable space group: C 2 2 2
;
_chemical_formula_sum "Si O2"
_cell_formula_units_Z 64
_cell_length_a 12.304799
_cell_length_b 14.924680
_cell_length_c 16.214773
_cell_angle_alpha 90.000000
_cell_angle_beta 90.000000
_cell_angle_gamma 90.000000
_cell_volume 2977.765028
_symmetry_space_group_name_H-M "C 2 2 2"
_symmetry_group_IT_number 21
_symmetry_cell_setting 'orthorhombic'
loop_
_space_group_symop_operation_xyz
x,y,z
-x,-y,z
x,-y,-z
-x,y,-z
1/2+x,1/2+y,z
1/2-x,1/2-y,z
1/2+x,1/2-y,-z
1/2-x,1/2+y,-z
loop_
_atom_site_type_symbol
_atom_site_label
_atom_site_fract_x
_atom_site_fract_y
_atom_site_fract_z
Si Si1 0.941128 0.903262 0.424765
Si Si2 0.865628 0.264130 0.183321
Si Si3 0.471468 0.096950 0.096049
Si Si4 0.256836 0.153178 0.169523
Si Si5 0.136764 0.401040 0.674868
Si Si6 0.620691 0.897724 0.324805
Si Si7 0.215942 0.353034 0.492650
Si Si8 0.474705 0.606427 0.762361
O O1 0.819078 0.907510 0.457038
O O2 0.950868 0.865215 0.333111
O O3 0.000000 0.851576 0.500000
O O4 0.000000 0.000000 0.419024
O O5 0.750000 0.250000 0.137282
O O6 0.827376 0.324385 0.262141
O O7 0.955684 0.325246 0.137172
O O8 0.928749 0.172060 0.206858
O O9 0.343271 0.102209 0.113681
O O10 0.500000 0.000000 0.132360
O O11 0.500000 0.098248 0.000000
O O12 0.250000 0.250000 0.130245
O O13 0.318676 0.162661 0.258035
O O14 0.136322 0.118554 0.186351
O O15 0.171201 0.503473 0.691366
O O16 0.173913 0.382410 0.581503
O O17 0.007389 0.400100 0.686279
O O18 0.632744 0.866856 0.418601
O O19 0.250000 0.250000 0.497613
O O20 0.500000 0.500000 0.763845
#
# Coordination Sequence:
#
# PCOD9325073 Si02
#       8
#     8   8   8   8   8   8   8   8
#     4  10  25  40  57  86 129 184 239 287 337 410
#     4  12  27  45  72 108 149 180 234 299 358 423
#     4  11  26  50  81 111 140 186 232 282 361 440
#     4  12  22  45  77 106 141 182 237 292 346 431
#     4  11  25  41  63  93 131 182 236 299 354 417
#     4  11  23  41  67  92 128 179 240 298 351 415
#     4  12  26  38  60  88 127 183 236 297 361 405
#     4  11  26  45  72 107 142 196 244 292 362 422
#
# _framework density 21.492629000000001
#
# number of rings (size 3 to 8) (size 9 to 14) (size 15 to 20)
#    0.000    0.750    3.750    2.250   12.250    1.500 
#    0.000    0.000    0.000    0.375    0.000    0.000 
#    0.000    0.000    0.000    0.000    0.000    0.000 
#
# Total GULP energy -178727.223058 kJ/mol
# GULP energy per Si atom -5585.225721 kJ/mol
# Density = 2.144371 g / cm^3
# Si number density = 21.492629 Si / 1000 Ang^3
#
#
#
# Elastic Constant Matrix: (Units=GPa)
#
#
# Indices 1 2 3 4 5 6 
#
# 1 121.8836 34.5932 25.1435 0.0000 0.0000 0.0000
# 2 34.5932 104.2596 15.5336 0.0000 0.0000 0.0000
# 3 25.1435 15.5336 75.2012 0.0000 0.0000 0.0000
# 4 0.0000 0.0000 0.0000 22.6842 0.0000 0.0000
# 5 0.0000 0.0000 0.0000 0.0000 -176.1392 0.0000
# 6 0.0000 0.0000 0.0000 0.0000 0.0000 37.5945
#
#
#
# Elastic Compliance Matrix: (Units=1/GPa)
#
#
# Indices 1 2 3 4 5 6 
#
# 1 0.009531 -0.002773 -0.002614 0.000000 0.000000 0.000000
# 2 -0.002773 0.010703 -0.001284 0.000000 0.000000 0.000000
# 3 -0.002614 -0.001284 0.014437 0.000000 0.000000 0.000000
# 4 0.000000 0.000000 0.000000 0.044084 0.000000 0.000000
# 5 0.000000 0.000000 0.000000 0.000000 -0.005677 0.000000
# 6 0.000000 0.000000 0.000000 0.000000 0.000000 0.026600
#
#
# Mechanical properties :
#
#
# Convention : Reuss Voigt Hill
#
# Bulk Modulus (GPa) = 46.88340 50.20947 48.54643
# Shear Modulus (GPa) = 41.62272 -8.10051 16.76111
#
# Velocity S-wave (km/s) = 4.40546 -1.94349 2.79562
# Velocity P-wave (km/s) = 6.90931 4.28670 5.74953
#
# Compressibility (1/GPa) = 0.02132951
#
# Stress axis : x y z
#
# Youngs Moduli (GPa) = 104.92346 93.43417 69.26763
#
# Poissons Ratio (x) = 0.25908 0.18105
# Poissons Ratio (y) = 0.29094 0.08892
# Poissons Ratio (z) = 0.27425 0.11994
#
# Static dielectric constant tensor:
#      x y z
#    x 1.829020 0.000000 0.000000 
#    y 0.000000 1.943280 0.000000 
#    z 0.000000 0.000000 1.808100 
# 
# From -- ./inp_files/36269.got.cif
#   From: 2010.05.17/outbox.cif.g08.bks.cpg/sg21_19_cif.got.tgz:36269.got - 2010.06.03 23:14:55.
