data_PCOD9325854
_publ_section_title
;
Structure prediction by ZEFSAII (Michael W. Deem and Ramdas Pophale) SiO2 
 PCOD9325854
Probable space group: C 2 2 2
;
_chemical_formula_sum "Si O2"
_cell_formula_units_Z 28
_cell_length_a 21.000000
_cell_length_b 9.000000
_cell_length_c 15.000000
_cell_angle_alpha 90.000000
_cell_angle_beta 90.000000
_cell_angle_gamma 90.000000
_cell_volume 2835.000000
_symmetry_space_group_name_H-M "C 2 2 2"
_symmetry_group_IT_number 21
_symmetry_cell_setting 'orthorhombic'
loop_
_space_group_symop_operation_xyz
x,y,z
-x,-y,z
x,-y,-z
-x,y,-z
1/2+x,1/2+y,z
1/2-x,1/2-y,z
1/2+x,1/2-y,-z
1/2-x,1/2+y,-z
loop_
_atom_site_type_symbol
_atom_site_label
_atom_site_fract_x
_atom_site_fract_y
_atom_site_fract_z
Si Si1 0.942970 0.207208 0.436936
Si Si2 0.151104 0.481715 0.296744
Si Si3 0.529670 0.331254 0.097688
Si Si4 0.858909 0.975338 0.333141
Si Si5 0.872086 0.500000 0.500000
Si Si6 0.035600 0.267252 0.275546
Si Si7 0.172683 0.781072 0.184283
Si Si8 0.750000 0.750000 0.318533
O O1 0.890376 0.086284 0.406212
O O2 0.912628 0.348491 0.488131
O O3 0.000000 0.152759 0.500000
O O4 0.978679 0.260756 0.347149
O O5 0.163212 0.494799 0.404101
O O6 0.081366 0.409345 0.286125
O O7 0.157106 0.634032 0.242817
O O8 0.203650 0.361558 0.264940
O O9 0.500000 0.500000 0.107351
O O10 0.495449 0.244313 0.178289
O O11 0.608415 0.311566 0.117488
O O12 0.500000 0.284742 0.000000
O O13 0.831280 0.079424 0.253275
O O14 0.917257 0.873208 0.296619
O O15 0.802566 0.861459 0.364228
O O16 0.250000 0.750000 0.155571
#
# Coordination Sequence:
#
# PCOD9325854 Si02
#       8
#     8   8   8   8   4   8   8   4
#     4  12  23  37  64 101 140 179 248 311 361 423
#     4  11  24  41  66  98 143 193 242 302 357 431
#     4  11  23  44  78 113 143 187 244 306 368 451
#     4  11  22  42  69  96 138 187 246 293 364 435
#     4  12  23  40  56 100 138 184 243 306 364 418
#     4  11  22  41  68 102 137 186 238 297 367 421
#     4  12  23  44  77 105 142 193 246 301 376 442
#     4  10  24  46  60  96 138 198 244 292 364 446
#
# _framework density 9.8765429999999999
#
# number of rings (size 3 to 8) (size 9 to 14) (size 15 to 20)
#    0.000    0.714    7.143    0.643    0.000    2.857 
#    3.857    1.429   12.571    0.000    0.000    0.000 
#    0.000    0.000    0.000    0.000    0.000    0.000 
#
# Total GULP energy -156157.910305 kJ/mol
# GULP energy per Si atom -5577.068225 kJ/mol
# Density = 0.985406 g / cm^3
# Si number density = 9.876543 Si / 1000 Ang^3
#
#
#
# Elastic Constant Matrix: (Units=GPa)
#
#
# Indices 1 2 3 4 5 6 
#
# 1 142.5293 39.5492 35.0278 0.0000 0.0000 0.0000
# 2 39.5492 116.7323 17.0911 0.0000 0.0000 0.0000
# 3 35.0278 17.0911 114.1081 0.0000 0.0000 0.0000
# 4 0.0000 0.0000 0.0000 29.1942 0.0000 0.0000
# 5 0.0000 0.0000 0.0000 0.0000 32.0285 0.0000
# 6 0.0000 0.0000 0.0000 0.0000 0.0000 47.0273
#
#
#
# Elastic Compliance Matrix: (Units=1/GPa)
#
#
# Indices 1 2 3 4 5 6 
#
# 1 0.008232 -0.002473 -0.002157 0.000000 0.000000 0.000000
# 2 -0.002473 0.009502 -0.000664 0.000000 0.000000 0.000000
# 3 -0.002157 -0.000664 0.009525 0.000000 0.000000 0.000000
# 4 0.000000 0.000000 0.000000 0.034253 0.000000 0.000000
# 5 0.000000 0.000000 0.000000 0.000000 0.031222 0.000000
# 6 0.000000 0.000000 0.000000 0.000000 0.000000 0.021264
#
#
# Mechanical properties :
#
#
# Convention : Reuss Voigt Hill
#
# Bulk Modulus (GPa) = 59.98299 61.85621 60.91960
# Shear Modulus (GPa) = 38.41892 40.43012 39.42452
#
# Velocity S-wave (km/s) = 4.41495 4.52904 4.47236
# Velocity P-wave (km/s) = 7.51142 7.66370 7.58794
#
# Compressibility (1/GPa) = 0.01667139
#
# Stress axis : x y z
#
# Youngs Moduli (GPa) = 121.47065 105.24308 104.98595
#
# Poissons Ratio (x) = 0.26031 0.22642
# Poissons Ratio (y) = 0.30045 0.06970
# Poissons Ratio (z) = 0.26197 0.06987
#
# Static dielectric constant tensor:
#      x y z
#    x 1.761490 0.000000 0.000000 
#    y 0.000000 1.755160 0.000000 
#    z 0.000000 0.000000 1.700290 
# 
# From -- ./inp_files/30798.got.cif
#   From: 2010.05.17/outbox.ucp.g08.bks.cvg/sg21_16_cif.got.tgz:30798.got - 2010.06.11 15:15:05.
