data_PCOD9325829
_publ_section_title
;
Structure prediction by ZEFSAII (Michael W. Deem and Ramdas Pophale) SiO2 
 PCOD9325829
Probable space group: C 2 2 2
;
_chemical_formula_sum "Si O2"
_cell_formula_units_Z 40
_cell_length_a 8.165360
_cell_length_b 28.928430
_cell_length_c 8.842010
_cell_angle_alpha 90.000000
_cell_angle_beta 90.000000
_cell_angle_gamma 90.000000
_cell_volume 2088.580424
_symmetry_space_group_name_H-M "C 2 2 2"
_symmetry_group_IT_number 21
_symmetry_cell_setting 'orthorhombic'
loop_
_space_group_symop_operation_xyz
x,y,z
-x,-y,z
x,-y,-z
-x,y,-z
1/2+x,1/2+y,z
1/2-x,1/2-y,z
1/2+x,1/2-y,-z
1/2-x,1/2+y,-z
loop_
_atom_site_type_symbol
_atom_site_label
_atom_site_fract_x
_atom_site_fract_y
_atom_site_fract_z
Si Si1 0.993649 0.331480 0.320509
Si Si2 0.665436 0.896315 0.096093
Si Si3 0.645401 0.639762 0.812026
Si Si4 0.437652 0.731398 0.331413
Si Si5 0.450595 0.549128 0.823247
O O1 0.120102 0.362836 0.232055
O O2 0.000000 0.332852 0.500000
O O3 0.815443 0.350931 0.275127
O O4 0.023787 0.278130 0.274486
O O5 0.757961 0.940140 0.166837
O O6 0.500000 0.906441 0.000000
O O7 0.792952 0.870893 0.982419
O O8 0.550599 0.687337 0.777583
O O9 0.546148 0.594173 0.760796
O O10 0.500000 0.719342 0.500000
O O11 0.250000 0.750000 0.344775
O O12 0.500000 0.500000 0.753321
O O13 0.500000 0.546633 0.000000
#
# Coordination Sequence:
#
# PCOD9325829 Si02
#       5
#     8   8   8   8   8
#     4   9  18  34  54  76 106 144 180 213 260 327
#     4   9  18  35  55  78 107 138 175 223 274 318
#     4   9  18  33  52  76 104 134 175 227 270 312
#     4   9  18  32  51  76 104 139 181 218 261 322
#     4   9  18  34  54  77 103 132 174 222 269 324
#
# _framework density 19.151764
#
# number of rings (size 3 to 8) (size 9 to 14) (size 15 to 20)
#    0.000    3.000    0.000    0.000    0.000    4.800 
#    0.000   40.000    0.000    6.600    0.000    0.000 
#    0.000    0.000    0.000    0.000    0.000    0.000 
#
# Total GULP energy -111351.371626 kJ/mol
# GULP energy per Si atom -5567.568581 kJ/mol
# Density = 1.910817 g / cm^3
# Si number density = 19.151764 Si / 1000 Ang^3
#
#
#
# Elastic Constant Matrix: (Units=GPa)
#
#
# Indices 1 2 3 4 5 6 
#
# 1 57.0559 64.7554 19.9347 0.0000 0.0000 0.0000
# 2 64.7554 169.9356 45.2009 0.0000 0.0000 0.0000
# 3 19.9347 45.2009 32.8669 0.0000 0.0000 0.0000
# 4 0.0000 0.0000 0.0000 -16.6558 0.0000 0.0000
# 5 0.0000 0.0000 0.0000 0.0000 18.9813 0.0000
# 6 0.0000 0.0000 0.0000 0.0000 0.0000 19.9952
#
#
#
# Elastic Compliance Matrix: (Units=1/GPa)
#
#
# Indices 1 2 3 4 5 6 
#
# 1 0.031223 -0.010818 -0.004060 0.000000 0.000000 0.000000
# 2 -0.010818 0.013027 -0.011354 0.000000 0.000000 0.000000
# 3 -0.004060 -0.011354 0.048503 0.000000 0.000000 0.000000
# 4 0.000000 0.000000 0.000000 -0.060039 0.000000 0.000000
# 5 0.000000 0.000000 0.000000 0.000000 0.052683 0.000000
# 6 0.000000 0.000000 0.000000 0.000000 0.000000 0.050012
#
#
# Mechanical properties :
#
#
# Convention : Reuss Voigt Hill
#
# Bulk Modulus (GPa) = 24.82073 57.73781 41.27927
# Shear Modulus (GPa) = 24.83815 13.12864 18.98339
#
# Velocity S-wave (km/s) = 3.60517 2.62106 3.15176
# Velocity P-wave (km/s) = 5.50617 6.27478 5.90300
#
# Compressibility (1/GPa) = 0.04028890
#
# Stress axis : x y z
#
# Youngs Moduli (GPa) = 32.02784 76.76442 20.61710
#
# Poissons Ratio (x) = 0.83042 0.08371
# Poissons Ratio (y) = 0.34647 0.23409
# Poissons Ratio (z) = 0.13004 0.87160
#
# Static dielectric constant tensor:
#      x y z
#    x 1.746910 0.000000 0.000000 
#    y 0.000000 1.710620 0.000000 
#    z 0.000000 0.000000 1.656010 
# 
# From -- ./inp_files/11155.got.cif
#   From: 2010.05.17/outbox.cif.g08.bks.cpg/sg21_6_cif.got.tgz:11155.got - 2010.06.03 23:14:55.
