data_PCOD9325571
_publ_section_title
;
Structure prediction by ZEFSAII (Michael W. Deem and Ramdas Pophale) SiO2 
 PCOD9325571
Probable space group: C 2 2 2
;
_chemical_formula_sum "Si O2"
_cell_formula_units_Z 24
_cell_length_a 7.849766
_cell_length_b 13.844968
_cell_length_c 8.332786
_cell_angle_alpha 90.000000
_cell_angle_beta 90.000000
_cell_angle_gamma 90.000000
_cell_volume 905.605175
_symmetry_space_group_name_H-M "C 2 2 2"
_symmetry_group_IT_number 21
_symmetry_cell_setting 'orthorhombic'
loop_
_space_group_symop_operation_xyz
x,y,z
-x,-y,z
x,-y,-z
-x,y,-z
1/2+x,1/2+y,z
1/2-x,1/2-y,z
1/2+x,1/2-y,-z
1/2-x,1/2+y,-z
loop_
_atom_site_type_symbol
_atom_site_label
_atom_site_fract_x
_atom_site_fract_y
_atom_site_fract_z
Si Si1 0.134515 0.327581 0.121395
Si Si2 0.091812 0.814945 0.338888
Si Si3 0.706305 0.997578 0.691422
O O1 0.250000 0.250000 0.028694
O O2 0.249472 0.405811 0.211530
O O3 0.028961 0.260424 0.245020
O O4 0.000000 0.373020 0.000000
O O5 0.250000 0.750000 0.395477
O O6 0.000000 0.849537 0.500000
O O7 0.180823 0.906757 0.252467
O O8 0.500000 0.000000 0.711618
O O9 0.729286 0.000000 0.500000
#
# Coordination Sequence:
#
# PCOD9325571 Si02
#       3
#     8   8   8
#     4  12  28  50  74 114 158 206 258 316 390 467
#     4  12  24  46  80 116 155 201 260 324 385 463
#     4  11  24  46  78 111 147 200 255 317 388 449
#
# _framework density 26.501615999999999
#
# number of rings (size 3 to 8) (size 9 to 14) (size 15 to 20)
#    0.000    0.333    3.333    6.000    0.000    5.333 
#    0.000    1.667    0.000    0.000    0.000    0.000 
#    0.000    0.000    0.000    0.000    0.000    0.000 
#
# Total GULP energy -67194.735487 kJ/mol
# GULP energy per Si atom -5599.561291 kJ/mol
# Density = 2.644130 g / cm^3
# Si number density = 26.501616 Si / 1000 Ang^3
#
#
#
# Elastic Constant Matrix: (Units=GPa)
#
#
# Indices 1 2 3 4 5 6 
#
# 1 78.5218 65.7914 6.8325 0.0000 0.0000 0.0000
# 2 65.7914 213.5548 62.5721 0.0000 0.0000 0.0000
# 3 6.8325 62.5721 94.1741 0.0000 0.0000 0.0000
# 4 0.0000 0.0000 0.0000 45.3864 0.0000 0.0000
# 5 0.0000 0.0000 0.0000 0.0000 30.1481 0.0000
# 6 0.0000 0.0000 0.0000 0.0000 0.0000 68.8559
#
#
#
# Elastic Compliance Matrix: (Units=1/GPa)
#
#
# Indices 1 2 3 4 5 6 
#
# 1 0.017790 -0.006336 0.002919 0.000000 0.000000 0.000000
# 2 -0.006336 0.008071 -0.004903 0.000000 0.000000 0.000000
# 3 0.002919 -0.004903 0.013665 0.000000 0.000000 0.000000
# 4 0.000000 0.000000 0.000000 0.022033 0.000000 0.000000
# 5 0.000000 0.000000 0.000000 0.000000 0.033170 0.000000
# 6 0.000000 0.000000 0.000000 0.000000 0.000000 0.014523
#
#
# Mechanical properties :
#
#
# Convention : Reuss Voigt Hill
#
# Bulk Modulus (GPa) = 43.69482 72.96028 58.32755
# Shear Modulus (GPa) = 37.44750 45.61507 41.53128
#
# Velocity S-wave (km/s) = 3.76310 4.15326 3.96298
# Velocity P-wave (km/s) = 5.95018 7.11264 6.55722
#
# Compressibility (1/GPa) = 0.02288601
#
# Stress axis : x y z
#
# Youngs Moduli (GPa) = 56.21099 123.89657 73.18177
#
# Poissons Ratio (x) = 0.78501 -0.21363
# Poissons Ratio (y) = 0.35616 0.35882
# Poissons Ratio (z) = -0.16409 0.60748
#
# Static dielectric constant tensor:
#      x y z
#    x 2.186910 0.000000 0.000000 
#    y 0.000000 2.131690 0.000000 
#    z 0.000000 0.000000 2.000920 
# 
# From -- ./inp_files/9731.got.cif
#   From: 2010.05.17/outbox.cif.g08.bks.cpg/sg21_5_cif.got.tgz:9731.got - 2010.06.03 23:14:55.
