data_PCOD9325561
_publ_section_title
;
Structure prediction by ZEFSAII (Michael W. Deem and Ramdas Pophale) SiO2 
 PCOD9325561
Probable space group: C 2 2 2
;
_chemical_formula_sum "Si O2"
_cell_formula_units_Z 38
_cell_length_a 11.441769
_cell_length_b 17.314030
_cell_length_c 8.008222
_cell_angle_alpha 90.000000
_cell_angle_beta 90.000000
_cell_angle_gamma 90.000000
_cell_volume 1586.453858
_symmetry_space_group_name_H-M "C 2 2 2"
_symmetry_group_IT_number 21
_symmetry_cell_setting 'orthorhombic'
loop_
_space_group_symop_operation_xyz
x,y,z
-x,-y,z
x,-y,-z
-x,y,-z
1/2+x,1/2+y,z
1/2-x,1/2-y,z
1/2+x,1/2-y,-z
1/2-x,1/2+y,-z
loop_
_atom_site_type_symbol
_atom_site_label
_atom_site_fract_x
_atom_site_fract_y
_atom_site_fract_z
Si Si1 0.083280 0.289126 0.739614
Si Si2 0.175282 0.059474 0.256850
Si Si3 0.000000 0.153095 0.500000
Si Si4 0.332856 0.186335 0.105004
Si Si5 0.617932 0.039887 0.323397
Si Si6 0.000000 0.000000 0.000000
O O1 0.104047 0.369181 0.644293
O O2 0.071506 0.211890 0.626437
O O3 0.957579 0.297497 0.821932
O O4 0.162909 0.302740 0.905304
O O5 0.279733 0.109462 0.178966
O O6 0.099301 0.099101 0.407565
O O7 0.248094 0.978878 0.267626
O O8 0.078601 0.052221 0.116087
O O9 0.250000 0.250000 0.180565
O O10 0.500000 0.000000 0.236687
O O11 0.618946 0.000000 0.500000
#
# Coordination Sequence:
#
# PCOD9325561 Si02
#       6
#     8   8   4   8   8   2
#     4  11  25  47  76 114 155 204 258 338 404 467
#     4  12  28  51  77 114 160 211 271 325 398 492
#     4  12  28  47  81 118 160 208 270 330 404 477
#     4  11  24  46  75 111 156 200 266 329 401 477
#     4  11  24  45  76 111 153 194 259 331 395 463
#     4  12  32  50  74 108 164 222 262 318 408 494
#
# _framework density 23.952791999999999
#
# number of rings (size 3 to 8) (size 9 to 14) (size 15 to 20)
#    0.000    0.632    4.211    2.526    5.895    1.684 
#    0.000    0.000    0.000    0.000    0.000    0.000 
#    0.000    0.000    0.000    0.000    0.000    0.000 
#
# Total GULP energy -105814.623721 kJ/mol
# GULP energy per Si atom -5569.190722 kJ/mol
# Density = 2.389827 g / cm^3
# Si number density = 23.952792 Si / 1000 Ang^3
#
#
#
# Elastic Constant Matrix: (Units=GPa)
#
#
# Indices 1 2 3 4 5 6 
#
# 1 87.6343 26.1450 34.9075 0.0000 0.0000 0.0000
# 2 26.1450 75.2102 21.9599 0.0000 0.0000 0.0000
# 3 34.9075 21.9599 91.1563 0.0000 0.0000 0.0000
# 4 0.0000 0.0000 0.0000 37.5928 0.0000 0.0000
# 5 0.0000 0.0000 0.0000 0.0000 3.7717 0.0000
# 6 0.0000 0.0000 0.0000 0.0000 0.0000 56.0929
#
#
#
# Elastic Compliance Matrix: (Units=1/GPa)
#
#
# Indices 1 2 3 4 5 6 
#
# 1 0.014333 -0.003636 -0.004613 0.000000 0.000000 0.000000
# 2 -0.003636 0.015224 -0.002275 0.000000 0.000000 0.000000
# 3 -0.004613 -0.002275 0.013285 0.000000 0.000000 0.000000
# 4 0.000000 0.000000 0.000000 0.026601 0.000000 0.000000
# 5 0.000000 0.000000 0.000000 0.000000 0.265133 0.000000
# 6 0.000000 0.000000 0.000000 0.000000 0.000000 0.017828
#
#
# Mechanical properties :
#
#
# Convention : Reuss Voigt Hill
#
# Bulk Modulus (GPa) = 45.88341 46.66950 46.27645
# Shear Modulus (GPa) = 13.13315 30.89070 22.01192
#
# Velocity S-wave (km/s) = 2.34411 3.59506 3.03474
# Velocity P-wave (km/s) = 5.15013 6.06291 5.62506
#
# Compressibility (1/GPa) = 0.02179437
#
# Stress axis : x y z
#
# Youngs Moduli (GPa) = 69.76803 65.68450 75.27410
#
# Poissons Ratio (x) = 0.23881 0.34723
# Poissons Ratio (y) = 0.25366 0.17127
# Poissons Ratio (z) = 0.32183 0.14945
#
# Static dielectric constant tensor:
#      x y z
#    x 2.240660 0.000000 0.000000 
#    y 0.000000 2.432190 0.000000 
#    z 0.000000 0.000000 1.968600 
# 
# From -- ./inp_files/12780.got.cif
#   From: 2010.05.17/outbox.cif.g08.bks.cpg/sg21_7_cif.got.tgz:12780.got - 2010.06.03 23:14:55.
