data_PCOD9325048
_publ_section_title
;
Structure prediction by ZEFSAII (Michael W. Deem and Ramdas Pophale) SiO2 
 PCOD9325048
Probable space group: C 2 2 2
;
_chemical_formula_sum "Si O2"
_cell_formula_units_Z 28
_cell_length_a 5.461552
_cell_length_b 7.781797
_cell_length_c 26.960995
_cell_angle_alpha 90.000000
_cell_angle_beta 90.000000
_cell_angle_gamma 90.000000
_cell_volume 1145.860863
_symmetry_space_group_name_H-M "C 2 2 2"
_symmetry_group_IT_number 21
_symmetry_cell_setting 'orthorhombic'
loop_
_space_group_symop_operation_xyz
x,y,z
-x,-y,z
x,-y,-z
-x,y,-z
1/2+x,1/2+y,z
1/2-x,1/2-y,z
1/2+x,1/2-y,-z
1/2-x,1/2+y,-z
loop_
_atom_site_type_symbol
_atom_site_label
_atom_site_fract_x
_atom_site_fract_y
_atom_site_fract_z
Si Si1 0.500000 0.500000 0.791319
Si Si2 0.750000 0.750000 0.276802
Si Si3 0.750000 0.750000 0.576379
Si Si4 0.000000 0.500000 0.000000
Si Si5 0.500000 0.000000 0.146441
Si Si6 0.500000 0.500000 0.500000
Si Si7 0.500000 0.000000 0.349225
Si Si8 0.250000 0.750000 0.924302
O O1 0.540010 0.328431 0.758182
O O2 0.250408 0.484707 0.822696
O O3 0.688005 0.910622 0.311948
O O4 0.650960 0.612006 0.538181
O O5 0.927038 0.652641 0.613933
O O6 0.190850 0.398947 0.035398
O O7 0.455497 0.176279 0.114347
#
# Coordination Sequence:
#
# PCOD9325048 Si02
#       8
#     4   4   4   2   4   2   4   4
#     4  12  28  51  78 113 152 199 254 313 376 448
#     4  12  27  47  74 106 146 194 248 307 371 442
#     4  12  24  43  68 100 140 184 240 299 366 438
#     4  10  24  48  74 112 152 200 250 310 372 450
#     4  11  27  49  80 114 154 200 252 313 377 447
#     4  12  24  42  68 100 136 184 236 300 364 436
#     4  12  25  45  69 102 142 190 241 301 365 440
#     4  10  25  48  78 112 154 198 252 308 377 446
#
# _framework density 24.435773999999999
#
# number of rings (size 3 to 8) (size 9 to 14) (size 15 to 20)
#    0.000    0.571    0.000    6.857    0.000   14.286 
#    0.000    0.000    0.000    0.000    0.000    0.000 
#    0.000    0.000    0.000    0.000    0.000    0.000 
#
# Total GULP energy -78014.073928 kJ/mol
# GULP energy per Si atom -5572.433852 kJ/mol
# Density = 2.438016 g / cm^3
# Si number density = 24.435774 Si / 1000 Ang^3
#
#
#
# Elastic Constant Matrix: (Units=GPa)
#
#
# Indices 1 2 3 4 5 6 
#
# 1 130.9228 55.4277 95.0711 0.0000 0.0000 0.0000
# 2 55.4277 94.6258 56.2065 0.0000 0.0000 0.0000
# 3 95.0711 56.2065 182.6303 0.0000 0.0000 0.0000
# 4 0.0000 0.0000 0.0000 64.0590 0.0000 0.0000
# 5 0.0000 0.0000 0.0000 0.0000 118.3479 0.0000
# 6 0.0000 0.0000 0.0000 0.0000 0.0000 53.8916
#
#
#
# Elastic Compliance Matrix: (Units=1/GPa)
#
#
# Indices 1 2 3 4 5 6 
#
# 1 0.013779 -0.004663 -0.005738 0.000000 0.000000 0.000000
# 2 -0.004663 0.014510 -0.002038 0.000000 0.000000 0.000000
# 3 -0.005738 -0.002038 0.009090 0.000000 0.000000 0.000000
# 4 0.000000 0.000000 0.000000 0.015611 0.000000 0.000000
# 5 0.000000 0.000000 0.000000 0.000000 0.008450 0.000000
# 6 0.000000 0.000000 0.000000 0.000000 0.000000 0.018556
#
#
# Mechanical properties :
#
#
# Convention : Reuss Voigt Hill
#
# Bulk Modulus (GPa) = 79.99548 91.28775 85.64162
# Shear Modulus (GPa) = 45.85531 60.69129 53.27330
#
# Velocity S-wave (km/s) = 4.33663 4.98909 4.67426
# Velocity P-wave (km/s) = 7.60811 8.40401 8.01594
#
# Compressibility (1/GPa) = 0.01250071
#
# Stress axis : x y z
#
# Youngs Moduli (GPa) = 72.57632 68.91830 110.01512
#
# Poissons Ratio (x) = 0.32135 0.63123
# Poissons Ratio (y) = 0.33841 0.22424
# Poissons Ratio (z) = 0.41642 0.14047
#
# Static dielectric constant tensor:
#      x y z
#    x 1.923470 0.000000 0.000000 
#    y 0.000000 1.923720 0.000000 
#    z 0.000000 0.000000 2.002060 
# 
# From -- ./inp_files/38952.got.cif
#   From: 2010.05.17/outbox.cif.g08.bks.cpg/sg21_20_cif.got.tgz:38952.got - 2010.06.03 23:14:55.
