data_PCOD9325491
_publ_section_title
;
Structure prediction by ZEFSAII (Michael W. Deem and Ramdas Pophale) SiO2 
 PCOD9325491
Probable space group: C 2 2 2
;
_chemical_formula_sum "Si O2"
_cell_formula_units_Z 48
_cell_length_a 7.886239
_cell_length_b 29.276367
_cell_length_c 9.564817
_cell_angle_alpha 90.000000
_cell_angle_beta 90.000000
_cell_angle_gamma 90.000000
_cell_volume 2208.329035
_symmetry_space_group_name_H-M "C 2 2 2"
_symmetry_group_IT_number 21
_symmetry_cell_setting 'orthorhombic'
loop_
_space_group_symop_operation_xyz
x,y,z
-x,-y,z
x,-y,-z
-x,y,-z
1/2+x,1/2+y,z
1/2-x,1/2-y,z
1/2+x,1/2-y,-z
1/2-x,1/2+y,-z
loop_
_atom_site_type_symbol
_atom_site_label
_atom_site_fract_x
_atom_site_fract_y
_atom_site_fract_z
Si Si1 0.000000 0.392954 0.000000
Si Si2 0.023976 0.164174 0.650427
Si Si3 0.950350 0.752697 0.161951
Si Si4 0.500000 0.093577 0.500000
Si Si5 0.170837 0.951625 0.923704
Si Si6 0.094605 0.660436 0.270394
Si Si7 0.352440 0.433479 0.394922
O O1 0.076200 0.360877 0.881397
O O2 0.841413 0.422599 0.946247
O O3 0.220053 0.152554 0.667503
O O4 0.000000 0.188139 0.500000
O O5 0.992088 0.197863 0.777476
O O6 0.908718 0.119045 0.643402
O O7 0.750000 0.750000 0.173966
O O8 0.039883 0.713009 0.253586
O O9 0.000000 0.747948 0.000000
O O10 0.485491 0.128282 0.369954
O O11 0.327067 0.064963 0.477664
O O12 0.149233 0.957147 0.756750
O O13 0.000000 0.931776 0.000000
O O14 0.195142 0.000000 0.000000
O O15 0.500000 0.448966 0.500000
#
# Coordination Sequence:
#
# PCOD9325491 Si02
#       7
#     4   8   8   4   8   8   8
#     4  12  25  46  76 106 146 188 234 300 359 436
#     4  11  24  42  67 101 139 191 243 299 349 422
#     4  12  27  42  60  95 143 191 250 307 357 412
#     4  12  22  42  72 103 140 186 248 290 358 433
#     4  11  26  47  76 109 144 184 232 294 363 442
#     4  12  24  43  69 100 137 192 245 294 362 421
#     4  11  23  45  73 108 143 190 239 294 360 432
#
# _framework density 21.735892
#
# number of rings (size 3 to 8) (size 9 to 14) (size 15 to 20)
#    0.000    0.500    5.833    3.750    1.167    0.667 
#    0.000    1.667    0.000    1.000    0.000    0.000 
#    0.000    0.000    0.000    0.000    0.000    0.000 
#
# Total GULP energy -134111.169423 kJ/mol
# GULP energy per Si atom -5587.965393 kJ/mol
# Density = 2.168642 g / cm^3
# Si number density = 21.735892 Si / 1000 Ang^3
#
#
#
# Elastic Constant Matrix: (Units=GPa)
#
#
# Indices 1 2 3 4 5 6 
#
# 1 155.6479 28.4495 24.9438 0.0000 0.0000 0.0000
# 2 28.4495 67.3662 24.5572 0.0000 0.0000 0.0000
# 3 24.9438 24.5572 134.2003 0.0000 0.0000 0.0000
# 4 0.0000 0.0000 0.0000 41.9362 0.0000 0.0000
# 5 0.0000 0.0000 0.0000 0.0000 -60.6468 0.0000
# 6 0.0000 0.0000 0.0000 0.0000 0.0000 -24.2560
#
#
#
# Elastic Compliance Matrix: (Units=1/GPa)
#
#
# Indices 1 2 3 4 5 6 
#
# 1 0.007045 -0.002676 -0.000820 0.000000 0.000000 0.000000
# 2 -0.002676 0.016922 -0.002599 0.000000 0.000000 0.000000
# 3 -0.000820 -0.002599 0.008080 0.000000 0.000000 0.000000
# 4 0.000000 0.000000 0.000000 0.023846 0.000000 0.000000
# 5 0.000000 0.000000 0.000000 0.000000 -0.016489 0.000000
# 6 0.000000 0.000000 0.000000 0.000000 0.000000 -0.041227
#
#
# Mechanical properties :
#
#
# Convention : Reuss Voigt Hill
#
# Bulk Modulus (GPa) = 50.36202 57.01282 53.68742
# Shear Modulus (GPa) = 294.35900 10.02428 152.19164
#
# Velocity S-wave (km/s) = 11.64986 2.14985 8.37679
# Velocity P-wave (km/s) = 14.28913 5.69642 10.87724
#
# Compressibility (1/GPa) = 0.01985623
#
# Stress axis : x y z
#
# Youngs Moduli (GPa) = 141.93779 59.09470 123.76985
#
# Poissons Ratio (x) = 0.15817 0.10146
# Poissons Ratio (y) = 0.37990 0.32169
# Poissons Ratio (z) = 0.11635 0.15359
#
# Static dielectric constant tensor:
#      x y z
#    x 1.727990 0.000000 0.000000 
#    y 0.000000 3.222060 0.000000 
#    z 0.000000 0.000000 1.800190 
# 
# From -- ./inp_files/11581.got.cif
#   From: 2010.05.17/outbox.cif.g08.bks.cpg/sg21_6_cif.got.tgz:11581.got - 2010.06.03 23:14:55.
