data_PCOD9325907
_publ_section_title
;
Structure prediction by ZEFSAII (Michael W. Deem and Ramdas Pophale) SiO2 
 PCOD9325907
Probable space group: F 2 2 2
;
_chemical_formula_sum "Si O2"
_cell_formula_units_Z 72
_cell_length_a 15.361863
_cell_length_b 27.275364
_cell_length_c 7.567878
_cell_angle_alpha 90.000000
_cell_angle_beta 90.000000
_cell_angle_gamma 90.000000
_cell_volume 3170.943947
_symmetry_space_group_name_H-M "F 2 2 2"
_symmetry_group_IT_number 22
_symmetry_cell_setting 'orthorhombic'
loop_
_space_group_symop_operation_xyz
x,y,z
-x,-y,z
x,-y,-z
-x,y,-z
x,1/2+y,1/2+z
-x,1/2-y,1/2+z
x,1/2-y,1/2-z
-x,1/2+y,1/2-z
1/2+x,y,1/2+z
1/2-x,-y,1/2+z
1/2+x,-y,1/2-z
1/2-x,y,1/2-z
1/2+x,1/2+y,z
1/2-x,1/2-y,z
1/2+x,1/2-y,-z
1/2-x,1/2+y,-z
loop_
_atom_site_type_symbol
_atom_site_label
_atom_site_fract_x
_atom_site_fract_y
_atom_site_fract_z
Si Si1 0.400830 0.676287 0.853788
Si Si2 0.562137 0.639703 0.670931
Si Si3 0.250000 0.606229 0.750000
Si Si4 0.651751 0.730317 0.510456
Si Si5 0.321406 0.549344 0.406844
O O1 0.491374 0.649671 0.819865
O O2 0.322434 0.637720 0.856672
O O3 0.370948 0.704245 0.673925
O O4 0.401451 0.719227 0.998177
O O5 0.500000 0.636557 0.500000
O O6 0.624476 0.687291 0.644345
O O7 0.614268 0.589173 0.681468
O O8 0.288660 0.576217 0.586040
O O9 0.750000 0.750000 0.525628
O O10 0.358318 0.500000 0.500000
O O11 0.250000 0.538467 0.250000
#
# Coordination Sequence:
#
# PCOD9325907 Si02
#       5
#    16  16   8  16  16
#     4  10  18  35  67  96 132 187 232 271 355 419
#     4  10  21  40  63  99 142 180 235 291 351 411
#     4  12  20  45  74 100 138 186 225 288 358 418
#     4  10  16  32  61  93 129 190 239 267 340 429
#     4  12  26  46  73 102 134 181 241 297 356 421
#
# _framework density 22.706171999999999
#
# number of rings (size 3 to 8) (size 9 to 14) (size 15 to 20)
#    0.000    1.333    7.778    0.667    0.000    0.444 
#    0.000   25.556    0.000    1.333    0.000    0.000 
#    0.000    0.000    0.000    0.000    0.000    0.000 
#
# Total GULP energy -100357.668291 kJ/mol
# GULP energy per Si atom -5575.426016 kJ/mol
# Density = 2.265449 g / cm^3
# Si number density = 22.706172 Si / 1000 Ang^3
#
#
#
# Elastic Constant Matrix: (Units=GPa)
#
#
# Indices 1 2 3 4 5 6 
#
# 1 125.8935 87.2888 6.8790 0.0000 0.0000 0.0000
# 2 87.2888 178.2331 29.7701 0.0000 0.0000 0.0000
# 3 6.8790 29.7701 66.8352 0.0000 0.0000 0.0000
# 4 0.0000 0.0000 0.0000 -72.8112 0.0000 0.0000
# 5 0.0000 0.0000 0.0000 0.0000 5.5003 0.0000
# 6 0.0000 0.0000 0.0000 0.0000 0.0000 23.1140
#
#
#
# Elastic Compliance Matrix: (Units=1/GPa)
#
#
# Indices 1 2 3 4 5 6 
#
# 1 0.012168 -0.006212 0.001515 0.000000 0.000000 0.000000
# 2 -0.006212 0.009233 -0.003473 0.000000 0.000000 0.000000
# 3 0.001515 -0.003473 0.016353 0.000000 0.000000 0.000000
# 4 0.000000 0.000000 0.000000 -0.013734 0.000000 0.000000
# 5 0.000000 0.000000 0.000000 0.000000 0.181808 0.000000
# 6 0.000000 0.000000 0.000000 0.000000 0.000000 0.043264
#
#
# Mechanical properties :
#
#
# Convention : Reuss Voigt Hill
#
# Bulk Modulus (GPa) = 46.70116 68.75973 57.73044
# Shear Modulus (GPa) = 18.34386 7.62886 12.98636
#
# Velocity S-wave (km/s) = 2.84541 1.83497 2.39410
# Velocity P-wave (km/s) = 5.60423 5.90234 5.75521
#
# Compressibility (1/GPa) = 0.02141274
#
# Stress axis : x y z
#
# Youngs Moduli (GPa) = 82.18561 108.30635 61.14946
#
# Poissons Ratio (x) = 0.67280 -0.09262
# Poissons Ratio (y) = 0.51054 0.21239
# Poissons Ratio (z) = -0.12448 0.37618
#
# Static dielectric constant tensor:
#      x y z
#    x 1.878940 0.000000 0.000000 
#    y 0.000000 1.909440 0.000000 
#    z 0.000000 0.000000 2.111360 
# 
# From -- ./inp_files/10127.got.cif
#   From: 2010.05.17/outbox.cif.g08.bks.cpg/sg22_6_cif.got.tgz:10127.got - 2010.06.03 23:40:54.
