data_PCOD9325600
_publ_section_title
;
Structure prediction by ZEFSAII (Michael W. Deem and Ramdas Pophale) SiO2 
 PCOD9325600
Probable space group: C 2 2 2
;
_chemical_formula_sum "Si O2"
_cell_formula_units_Z 32
_cell_length_a 8.379192
_cell_length_b 14.827633
_cell_length_c 10.364919
_cell_angle_alpha 90.000000
_cell_angle_beta 90.000000
_cell_angle_gamma 90.000000
_cell_volume 1287.774682
_symmetry_space_group_name_H-M "C 2 2 2"
_symmetry_group_IT_number 21
_symmetry_cell_setting 'orthorhombic'
loop_
_space_group_symop_operation_xyz
x,y,z
-x,-y,z
x,-y,-z
-x,y,-z
1/2+x,1/2+y,z
1/2-x,1/2-y,z
1/2+x,1/2-y,-z
1/2-x,1/2+y,-z
loop_
_atom_site_type_symbol
_atom_site_label
_atom_site_fract_x
_atom_site_fract_y
_atom_site_fract_z
Si Si1 0.881302 0.172797 0.116953
Si Si2 0.335939 0.346913 0.302405
Si Si3 0.177436 0.480361 0.811099
Si Si4 0.320904 0.848218 0.437565
O O1 0.750000 0.250000 0.122803
O O2 0.712972 0.420006 0.098298
O O3 0.987877 0.164219 0.246229
O O4 0.000000 0.191726 0.000000
O O5 0.250000 0.250000 0.288688
O O6 0.256242 0.424621 0.218890
O O7 0.300524 0.377586 0.448681
O O8 0.166017 0.418293 0.679958
O O9 0.000000 0.500000 0.855644
O O10 0.500000 0.839459 0.500000
O O11 0.250000 0.750000 0.403478
#
# Coordination Sequence:
#
# PCOD9325600 Si02
#       4
#     8   8   8   8
#     4  12  29  54  80 112 151 208 273 338 399 466
#     4  11  25  46  78 114 160 209 262 323 397 470
#     4  12  25  46  81 117 160 208 261 323 396 483
#     4  11  25  44  77 117 165 211 258 320 398 475
#
# _framework density 24.849067999999999
#
# number of rings (size 3 to 8) (size 9 to 14) (size 15 to 20)
#    0.000    0.500    2.500    4.500   10.500    2.000 
#    0.000    3.750    0.000    0.000    0.000    0.000 
#    0.000    0.000    0.000    0.000    0.000    0.000 
#
# Total GULP energy -89716.513202 kJ/mol
# GULP energy per Si atom -5607.282075 kJ/mol
# Density = 2.479251 g / cm^3
# Si number density = 24.849068 Si / 1000 Ang^3
#
#
#
# Elastic Constant Matrix: (Units=GPa)
#
#
# Indices 1 2 3 4 5 6 
#
# 1 189.2036 41.9448 65.4116 0.0000 0.0000 0.0000
# 2 41.9448 137.4674 21.2242 0.0000 0.0000 0.0000
# 3 65.4116 21.2242 133.7297 0.0000 0.0000 0.0000
# 4 0.0000 0.0000 0.0000 25.9277 0.0000 0.0000
# 5 0.0000 0.0000 0.0000 0.0000 -110.3338 0.0000
# 6 0.0000 0.0000 0.0000 0.0000 0.0000 58.3315
#
#
#
# Elastic Compliance Matrix: (Units=1/GPa)
#
#
# Indices 1 2 3 4 5 6 
#
# 1 0.006676 -0.001571 -0.003016 0.000000 0.000000 0.000000
# 2 -0.001571 0.007827 -0.000474 0.000000 0.000000 0.000000
# 3 -0.003016 -0.000474 0.009028 0.000000 0.000000 0.000000
# 4 0.000000 0.000000 0.000000 0.038569 0.000000 0.000000
# 5 0.000000 0.000000 0.000000 0.000000 -0.009063 0.000000
# 6 0.000000 0.000000 0.000000 0.000000 0.000000 0.017143
#
#
# Mechanical properties :
#
#
# Convention : Reuss Voigt Hill
#
# Bulk Modulus (GPa) = 74.57570 79.72912 77.15241
# Shear Modulus (GPa) = 58.98106 16.90642 37.94374
#
# Velocity S-wave (km/s) = 4.87722 2.61121 3.91188
# Velocity P-wave (km/s) = 7.86085 6.42232 7.17771
#
# Compressibility (1/GPa) = 0.01340919
#
# Stress axis : x y z
#
# Youngs Moduli (GPa) = 149.77945 127.76179 110.76287
#
# Poissons Ratio (x) = 0.20077 0.33409
# Poissons Ratio (y) = 0.23537 0.05245
# Poissons Ratio (z) = 0.45178 0.06050
#
# Static dielectric constant tensor:
#      x y z
#    x 1.927390 0.000000 0.000000 
#    y 0.000000 1.906610 0.000000 
#    z 0.000000 0.000000 2.077710 
# 
# From -- ./inp_files/21846.got.cif
#   From: 2010.05.17/outbox.cif.g08.bks.cpg/sg21_11_cif.got.tgz:21846.got - 2010.06.03 23:14:55.
