data_PCOD9325389
_publ_section_title
;
Structure prediction by ZEFSAII (Michael W. Deem and Ramdas Pophale) SiO2 
 PCOD9325389
Probable space group: C 2 2 2
;
_chemical_formula_sum "Si O2"
_cell_formula_units_Z 32
_cell_length_a 13.339558
_cell_length_b 11.952144
_cell_length_c 9.118448
_cell_angle_alpha 90.000000
_cell_angle_beta 90.000000
_cell_angle_gamma 90.000000
_cell_volume 1453.811776
_symmetry_space_group_name_H-M "C 2 2 2"
_symmetry_group_IT_number 21
_symmetry_cell_setting 'orthorhombic'
loop_
_space_group_symop_operation_xyz
x,y,z
-x,-y,z
x,-y,-z
-x,y,-z
1/2+x,1/2+y,z
1/2-x,1/2-y,z
1/2+x,1/2-y,-z
1/2-x,1/2+y,-z
loop_
_atom_site_type_symbol
_atom_site_label
_atom_site_fract_x
_atom_site_fract_y
_atom_site_fract_z
Si Si1 0.250000 0.750000 0.570062
Si Si2 0.393306 0.677443 0.789823
Si Si3 0.000000 0.500000 0.500000
Si Si4 0.500000 0.500000 0.000000
Si Si5 0.620961 0.125841 0.012483
Si Si6 0.410389 0.198694 0.674265
O O1 0.301288 0.657432 0.677830
O O2 0.340006 0.765642 0.457142
O O3 0.493302 0.722341 0.704724
O O4 0.430943 0.578711 0.896149
O O5 0.358515 0.783165 0.888264
O O6 0.943713 0.579048 0.613329
O O7 0.642710 0.179113 0.170357
O O8 0.500000 0.115551 0.000000
O O9 0.663164 0.000000 0.000000
#
# Coordination Sequence:
#
# PCOD9325389 Si02
#       6
#     4   8   2   2   8   8
#     4  12  26  44  68 108 148 178 236 304 370 432
#     4  11  23  49  71 103 145 193 245 294 355 440
#     4  12  20  40  78  98 138 176 218 304 382 408
#     4  12  24  52  76  92 148 214 250 282 356 436
#     4   9  18  38  71  98 127 173 234 295 344 400
#     4  11  22  43  71 104 139 179 228 300 362 425
#
# _framework density 22.011102000000001
#
# number of rings (size 3 to 8) (size 9 to 14) (size 15 to 20)
#    0.000    1.250    6.250    3.000    0.000    1.000 
#    6.750    1.250    0.000    0.000    0.000    0.000 
#    0.000    0.000    0.000    0.000    0.000    0.000 
#
# Total GULP energy -89155.755602 kJ/mol
# GULP energy per Si atom -5572.234725 kJ/mol
# Density = 2.196100 g / cm^3
# Si number density = 22.011102 Si / 1000 Ang^3
#
#
#
# Elastic Constant Matrix: (Units=GPa)
#
#
# Indices 1 2 3 4 5 6 
#
# 1 85.2707 39.4214 78.1036 0.0000 0.0000 0.0000
# 2 39.4214 84.0113 56.6846 0.0000 0.0000 0.0000
# 3 78.1036 56.6846 145.4309 0.0000 0.0000 0.0000
# 4 0.0000 0.0000 0.0000 58.2194 0.0000 0.0000
# 5 0.0000 0.0000 0.0000 0.0000 34.1787 0.0000
# 6 0.0000 0.0000 0.0000 0.0000 0.0000 2.2241
#
#
#
# Elastic Compliance Matrix: (Units=1/GPa)
#
#
# Indices 1 2 3 4 5 6 
#
# 1 0.023796 -0.003451 -0.011435 0.000000 0.000000 0.000000
# 2 -0.003451 0.016651 -0.004637 0.000000 0.000000 0.000000
# 3 -0.011435 -0.004637 0.014824 0.000000 0.000000 0.000000
# 4 0.000000 0.000000 0.000000 0.017176 0.000000 0.000000
# 5 0.000000 0.000000 0.000000 0.000000 0.029258 0.000000
# 6 0.000000 0.000000 0.000000 0.000000 0.000000 0.449623
#
#
# Mechanical properties :
#
#
# Convention : Reuss Voigt Hill
#
# Bulk Modulus (GPa) = 61.62576 73.68136 67.65356
# Shear Modulus (GPa) = 8.39231 28.29132 18.34182
#
# Velocity S-wave (km/s) = 1.95475 3.58903 2.88982
# Velocity P-wave (km/s) = 5.75787 7.12195 6.47592
#
# Compressibility (1/GPa) = 0.01622698
#
# Stress axis : x y z
#
# Youngs Moduli (GPa) = 42.02309 60.05652 67.45599
#
# Poissons Ratio (x) = 0.20724 0.77135
# Poissons Ratio (y) = 0.14501 0.31278
# Poissons Ratio (z) = 0.48053 0.27847
#
# Static dielectric constant tensor:
#      x y z
#    x 1.834460 0.000000 0.000000 
#    y 0.000000 1.770240 0.000000 
#    z 0.000000 0.000000 1.917510 
# 
# From -- ./inp_files/12381.got.cif
#   From: 2010.05.17/outbox.cif.g08.bks.cpg/sg21_7_cif.got.tgz:12381.got - 2010.06.03 23:14:55.
