data_PCOD9325288
_publ_section_title
;
Structure prediction by ZEFSAII (Michael W. Deem and Ramdas Pophale) SiO2 
 PCOD9325288
Probable space group: C 2 2 2
;
_chemical_formula_sum "Si O2"
_cell_formula_units_Z 60
_cell_length_a 28.344535
_cell_length_b 9.816139
_cell_length_c 12.119082
_cell_angle_alpha 90.000000
_cell_angle_beta 90.000000
_cell_angle_gamma 90.000000
_cell_volume 3371.939394
_symmetry_space_group_name_H-M "C 2 2 2"
_symmetry_group_IT_number 21
_symmetry_cell_setting 'orthorhombic'
loop_
_space_group_symop_operation_xyz
x,y,z
-x,-y,z
x,-y,-z
-x,y,-z
1/2+x,1/2+y,z
1/2-x,1/2-y,z
1/2+x,1/2-y,-z
1/2-x,1/2+y,-z
loop_
_atom_site_type_symbol
_atom_site_label
_atom_site_fract_x
_atom_site_fract_y
_atom_site_fract_z
Si Si1 0.152034 0.960890 0.212408
Si Si2 0.617356 0.000000 0.500000
Si Si3 0.679607 0.011614 0.284640
Si Si4 0.194178 0.745672 0.838438
Si Si5 0.773439 0.900262 0.604024
Si Si6 0.445535 0.732801 0.508183
Si Si7 0.694141 0.779060 0.907986
Si Si8 0.945356 0.008480 0.318285
O O1 0.179157 0.899842 0.321636
O O2 0.165724 0.857670 0.116531
O O3 0.096554 0.976792 0.231827
O O4 0.173586 0.106196 0.181800
O O5 0.648800 0.964316 0.606939
O O6 0.586532 0.864897 0.481194
O O7 0.733573 0.028873 0.321946
O O8 0.675312 0.111050 0.179595
O O9 0.670648 0.859613 0.244404
O O10 0.250000 0.750000 0.817543
O O11 0.188942 0.689858 0.963192
O O12 0.750000 0.750000 0.578377
O O13 0.781025 0.000000 0.500000
O O14 0.500000 0.776639 0.500000
O O15 0.439047 0.637431 0.400449
O O16 0.438111 0.628150 0.609192
O O17 0.750000 0.750000 0.886682
O O18 0.000000 0.000000 0.279916
#
# Coordination Sequence:
#
# PCOD9325288 Si02
#       8
#     8   4   8   8   8   8   8   8
#     4  12  21  37  60  83 112 147 200 234 286 336
#     4  12  23  32  56  86 116 150 177 222 288 350
#     4  12  22  38  51  82 122 150 186 229 280 343
#     4  11  23  36  59  82 108 152 200 240 274 327
#     4  12  26  37  51  80 125 162 186 217 278 351
#     4   9  19  37  54  78 110 147 193 231 274 331
#     4  11  21  40  57  78 112 153 198 240 276 324
#     4   9  20  36  57  81 110 145 186 239 287 333
#
# _framework density 17.793914999999998
#
# number of rings (size 3 to 8) (size 9 to 14) (size 15 to 20)
#    0.000    1.067    4.667    3.400    3.733    2.133 
#    0.000    0.000    0.000    1.600    0.000    0.000 
#    0.000   10.667    0.000    0.000    0.000    0.000 
#
# Total GULP energy -167429.178386 kJ/mol
# GULP energy per Si atom -5580.972613 kJ/mol
# Density = 1.775342 g / cm^3
# Si number density = 17.793915 Si / 1000 Ang^3
#
#
#
# Elastic Constant Matrix: (Units=GPa)
#
#
# Indices 1 2 3 4 5 6 
#
# 1 102.2864 24.8795 19.5967 0.0000 0.0000 0.0000
# 2 24.8795 75.7631 18.0846 0.0000 0.0000 0.0000
# 3 19.5967 18.0846 49.1726 0.0000 0.0000 0.0000
# 4 0.0000 0.0000 0.0000 25.4745 0.0000 0.0000
# 5 0.0000 0.0000 0.0000 0.0000 7.3176 0.0000
# 6 0.0000 0.0000 0.0000 0.0000 0.0000 28.1058
#
#
#
# Elastic Compliance Matrix: (Units=1/GPa)
#
#
# Indices 1 2 3 4 5 6 
#
# 1 0.011116 -0.002843 -0.003385 0.000000 0.000000 0.000000
# 2 -0.002843 0.015196 -0.004456 0.000000 0.000000 0.000000
# 3 -0.003385 -0.004456 0.023324 0.000000 0.000000 0.000000
# 4 0.000000 0.000000 0.000000 0.039255 0.000000 0.000000
# 5 0.000000 0.000000 0.000000 0.000000 0.136658 0.000000
# 6 0.000000 0.000000 0.000000 0.000000 0.000000 0.035580
#
#
# Mechanical properties :
#
#
# Convention : Reuss Voigt Hill
#
# Bulk Modulus (GPa) = 35.37293 39.14932 37.26112
# Shear Modulus (GPa) = 17.12803 23.15699 20.14251
#
# Velocity S-wave (km/s) = 3.10591 3.61140 3.36815
# Velocity P-wave (km/s) = 5.72579 6.28004 6.00931
#
# Compressibility (1/GPa) = 0.02827021
#
# Stress axis : x y z
#
# Youngs Moduli (GPa) = 89.95766 65.80635 42.87383
#
# Poissons Ratio (x) = 0.18705 0.14512
# Poissons Ratio (y) = 0.25570 0.19104
# Poissons Ratio (z) = 0.30449 0.29323
#
# Static dielectric constant tensor:
#      x y z
#    x 1.589890 0.000000 0.000000 
#    y 0.000000 1.624890 0.000000 
#    z 0.000000 0.000000 1.660240 
# 
# From -- ./inp_files/27815.got.cif
#   From: 2010.05.17/outbox.cif.g08.bks.cpg/sg21_14_cif.got.tgz:27815.got - 2010.06.03 23:14:55.
