data_PCOD9325919
_publ_section_title
;
Structure prediction by ZEFSAII (Michael W. Deem and Ramdas Pophale) SiO2 
 PCOD9325919
Probable space group: F 2 2 2
;
_chemical_formula_sum "Si O2"
_cell_formula_units_Z 76
_cell_length_a 24.333147
_cell_length_b 6.964770
_cell_length_c 23.511180
_cell_angle_alpha 90.000000
_cell_angle_beta 90.000000
_cell_angle_gamma 90.000000
_cell_volume 3984.551875
_symmetry_space_group_name_H-M "F 2 2 2"
_symmetry_group_IT_number 22
_symmetry_cell_setting 'orthorhombic'
loop_
_space_group_symop_operation_xyz
x,y,z
-x,-y,z
x,-y,-z
-x,y,-z
x,1/2+y,1/2+z
-x,1/2-y,1/2+z
x,1/2-y,1/2-z
-x,1/2+y,1/2-z
1/2+x,y,1/2+z
1/2-x,-y,1/2+z
1/2+x,-y,1/2-z
1/2-x,y,1/2-z
1/2+x,1/2+y,z
1/2-x,1/2-y,z
1/2+x,1/2-y,-z
1/2-x,1/2+y,-z
loop_
_atom_site_type_symbol
_atom_site_label
_atom_site_fract_x
_atom_site_fract_y
_atom_site_fract_z
Si Si1 0.697269 0.357438 0.556002
Si Si2 0.824277 0.435269 0.655500
Si Si3 0.250000 0.250000 0.595393
Si Si4 0.750000 0.750000 0.250000
Si Si5 0.560636 0.998184 0.601272
Si Si6 0.919059 0.785654 0.499949
O O1 0.750000 0.250000 0.531470
O O2 0.686878 0.250514 0.615708
O O3 0.714629 0.576434 0.566677
O O4 0.644258 0.305656 0.519356
O O5 0.793969 0.622442 0.630229
O O6 0.791999 0.380862 0.712916
O O7 0.889739 0.469019 0.645841
O O8 0.574597 0.814575 0.561079
O O9 0.500000 0.000000 0.628011
O O10 0.556643 0.160563 0.551523
O O11 0.940973 0.000000 0.500000
#
# Coordination Sequence:
#
# PCOD9325919 Si02
#       6
#    16  16   8   4  16  16
#     4   9  18  34  48  82 124 157 191 239 289 345
#     4  10  21  37  60  86 116 149 194 247 306 351
#     4  10  16  35  58  81 124 155 188 241 310 350
#     4  12  20  42  64  90 114 146 192 260 308 366
#     4  10  22  39  57  84 122 163 199 242 288 347
#     4  10  19  34  54  85 117 163 208 232 277 343
#
# _framework density 19.073663
#
# number of rings (size 3 to 8) (size 9 to 14) (size 15 to 20)
#    0.000    2.105    3.158    2.526    0.000    3.789 
#   15.158    0.000    0.000    2.526    0.000    0.000 
#    0.000    0.000    0.000    0.000    0.000    0.000 
#
# Total GULP energy -105805.520347 kJ/mol
# GULP energy per Si atom -5568.711597 kJ/mol
# Density = 1.903025 g / cm^3
# Si number density = 19.073663 Si / 1000 Ang^3
#
#
#
# Elastic Constant Matrix: (Units=GPa)
#
#
# Indices 1 2 3 4 5 6 
#
# 1 193.9128 31.9257 57.7996 -0.0001 0.0000 0.0001
# 2 31.9257 135.8097 37.2639 -0.0002 0.0000 0.0000
# 3 57.7996 37.2639 62.4962 0.0000 0.0000 0.0000
# 4 -0.0001 -0.0002 0.0000 -50.8714 0.0000 0.0002
# 5 0.0000 0.0000 0.0000 0.0000 24.8088 0.0000
# 6 0.0001 0.0000 0.0000 0.0002 0.0000 6.0628
#
#
#
# Elastic Compliance Matrix: (Units=1/GPa)
#
#
# Indices 1 2 3 4 5 6 
#
# 1 0.007122 0.000159 -0.006682 0.000000 0.000000 0.000000
# 2 0.000159 0.008807 -0.005398 0.000000 0.000000 0.000000
# 3 -0.006682 -0.005398 0.025400 0.000000 0.000000 0.000000
# 4 0.000000 0.000000 0.000000 -0.019657 0.000000 0.000001
# 5 0.000000 0.000000 0.000000 0.000000 0.040308 0.000000
# 6 0.000000 0.000000 0.000000 0.000001 0.000000 0.164940
#
#
# Mechanical properties :
#
#
# Convention : Reuss Voigt Hill
#
# Bulk Modulus (GPa) = 57.18706 71.79967 64.49336
# Shear Modulus (GPa) = 19.48622 13.68203 16.58412
#
# Velocity S-wave (km/s) = 3.19976 2.68120 2.95189
# Velocity P-wave (km/s) = 6.61049 6.87824 6.74569
#
# Compressibility (1/GPa) = 0.01748647
#
# Stress axis : x y z
#
# Youngs Moduli (GPa) = 140.40023 113.54501 39.37041
#
# Poissons Ratio (x) = -0.01807 0.26308
# Poissons Ratio (y) = -0.02234 0.21254
# Poissons Ratio (z) = 0.93817 0.61297
#
# Static dielectric constant tensor:
#      x y z
#    x 1.726180 0.000000 0.000000 
#    y 0.000000 1.698370 0.000000 
#    z 0.000000 0.000000 1.710820 
# 
# From -- ./inp_files/54318.got.cif
#   From: 2010.05.17/outbox.cif.g08.bks.cpg/sg22_28_cif.got.tgz:54318.got - 2010.06.03 23:40:54.
