data_PCOD9325993
_publ_section_title
;
Structure prediction by ZEFSAII (Michael W. Deem and Ramdas Pophale) SiO2 
 PCOD9325993
Probable space group: F 2 2 2
;
_chemical_formula_sum "Si O2"
_cell_formula_units_Z 96
_cell_length_a 14.356951
_cell_length_b 12.970968
_cell_length_c 21.105648
_cell_angle_alpha 90.000000
_cell_angle_beta 90.000000
_cell_angle_gamma 90.000000
_cell_volume 3930.368738
_symmetry_space_group_name_H-M "F 2 2 2"
_symmetry_group_IT_number 22
_symmetry_cell_setting 'orthorhombic'
loop_
_space_group_symop_operation_xyz
x,y,z
-x,-y,z
x,-y,-z
-x,y,-z
x,1/2+y,1/2+z
-x,1/2-y,1/2+z
x,1/2-y,1/2-z
-x,1/2+y,1/2-z
1/2+x,y,1/2+z
1/2-x,-y,1/2+z
1/2+x,-y,1/2-z
1/2-x,y,1/2-z
1/2+x,1/2+y,z
1/2-x,1/2-y,z
1/2+x,1/2-y,-z
1/2-x,1/2+y,-z
loop_
_atom_site_type_symbol
_atom_site_label
_atom_site_fract_x
_atom_site_fract_y
_atom_site_fract_z
Si Si1 0.391776 0.045244 0.338600
Si Si2 0.097400 0.065244 0.442197
Si Si3 0.145974 0.788796 0.313765
Si Si4 0.109871 0.357506 0.576914
Si Si5 0.388793 0.478988 0.303510
Si Si6 0.900439 0.691130 0.444677
O O1 0.364959 0.148145 0.377763
O O2 0.500000 0.000000 0.333428
O O3 0.351574 0.950037 0.380397
O O4 0.363408 0.062064 0.265852
O O5 0.086353 0.186994 0.456153
O O6 0.144247 0.000000 0.500000
O O7 0.136916 0.070590 0.370642
O O8 0.000000 0.000000 0.435799
O O9 0.094016 0.750000 0.250000
O O10 0.250000 0.750000 0.312600
O O11 0.108087 0.744114 0.379018
O O12 0.152379 0.908440 0.308492
O O13 0.154023 0.346737 0.507430
O O14 0.000650 0.366500 0.560779
O O15 0.500000 0.500000 0.303080
#
# Coordination Sequence:
#
# PCOD9325993 Si02
#       6
#    16  16  16  16  16  16
#     4   9  18  29  47  79 114 148 191 246 313 372
#     4  10  18  30  46  73 110 151 194 245 312 374
#     4  11  22  36  58  88 120 162 208 257 313 377
#     4  10  17  33  52  79 115 151 199 252 305 372
#     4  10  19  34  52  83 118 154 195 261 320 367
#     4  10  19  30  53  81 112 156 193 250 327 380
#
# _framework density 24.425189
#
# number of rings (size 3 to 8) (size 9 to 14) (size 15 to 20)
#    0.000    2.000    1.667    5.500    0.000    2.667 
#    0.000    0.000    0.000    6.000    0.000    0.000 
#    0.000    0.000    0.000    0.000    0.000    0.000 
#
# Total GULP energy -133624.299778 kJ/mol
# GULP energy per Si atom -5567.679157 kJ/mol
# Density = 2.436960 g / cm^3
# Si number density = 24.425189 Si / 1000 Ang^3
#
#
#
# Elastic Constant Matrix: (Units=GPa)
#
#
# Indices 1 2 3 4 5 6 
#
# 1 40.2652 6.0848 7.9654 0.0000 0.0000 0.0000
# 2 6.0848 102.5053 59.9255 0.0000 0.0000 0.0000
# 3 7.9654 59.9255 284.8110 0.0000 0.0000 0.0000
# 4 0.0000 0.0000 0.0000 48.7046 0.0000 0.0000
# 5 0.0000 0.0000 0.0000 0.0000 -20.6882 0.0000
# 6 0.0000 0.0000 0.0000 0.0000 0.0000 16.2356
#
#
#
# Elastic Compliance Matrix: (Units=1/GPa)
#
#
# Indices 1 2 3 4 5 6 
#
# 1 0.025109 -0.001231 -0.000443 0.000000 0.000000 0.000000
# 2 -0.001231 0.011184 -0.002319 0.000000 0.000000 0.000000
# 3 -0.000443 -0.002319 0.004011 0.000000 0.000000 0.000000
# 4 0.000000 0.000000 0.000000 0.020532 0.000000 0.000000
# 5 0.000000 0.000000 0.000000 0.000000 -0.048337 0.000000
# 6 0.000000 0.000000 0.000000 0.000000 0.000000 0.061593
#
#
# Mechanical properties :
#
#
# Convention : Reuss Voigt Hill
#
# Bulk Modulus (GPa) = 30.94244 63.94809 47.44526
# Shear Modulus (GPa) = 53.84881 32.42410 43.13646
#
# Velocity S-wave (km/s) = 4.70046 3.64742 4.20702
# Velocity P-wave (km/s) = 6.49267 6.63146 6.56243
#
# Compressibility (1/GPa) = 0.03231808
#
# Stress axis : x y z
#
# Youngs Moduli (GPa) = 39.82616 89.41127 249.29104
#
# Poissons Ratio (x) = 0.11010 0.11047
# Poissons Ratio (y) = 0.04904 0.57805
# Poissons Ratio (z) = 0.01765 0.20733
#
# Static dielectric constant tensor:
#      x y z
#    x 2.030660 0.000000 0.000000 
#    y 0.000000 2.045840 0.000000 
#    z 0.000000 0.000000 2.251610 
# 
# From -- ./inp_files/22806.got.cif
#   From: 2010.05.17/outbox.cif.g08.bks.cpg/sg22_12_cif.got.tgz:22806.got - 2010.06.03 23:40:54.
