data_PCOD9325874
_publ_section_title
;
Structure prediction by ZEFSAII (Michael W. Deem and Ramdas Pophale) SiO2 
 PCOD9325874
Probable space group: F 2 2 2
;
_chemical_formula_sum "Si O2"
_cell_formula_units_Z 72
_cell_length_a 18.975662
_cell_length_b 23.811507
_cell_length_c 7.146206
_cell_angle_alpha 90.000000
_cell_angle_beta 90.000000
_cell_angle_gamma 90.000000
_cell_volume 3228.935349
_symmetry_space_group_name_H-M "F 2 2 2"
_symmetry_group_IT_number 22
_symmetry_cell_setting 'orthorhombic'
loop_
_space_group_symop_operation_xyz
x,y,z
-x,-y,z
x,-y,-z
-x,y,-z
x,1/2+y,1/2+z
-x,1/2-y,1/2+z
x,1/2-y,1/2-z
-x,1/2+y,1/2-z
1/2+x,y,1/2+z
1/2-x,-y,1/2+z
1/2+x,-y,1/2-z
1/2-x,y,1/2-z
1/2+x,1/2+y,z
1/2-x,1/2-y,z
1/2+x,1/2-y,-z
1/2-x,1/2+y,-z
loop_
_atom_site_type_symbol
_atom_site_label
_atom_site_fract_x
_atom_site_fract_y
_atom_site_fract_z
Si Si1 0.767706 0.000000 0.500000
Si Si2 0.630569 0.099206 0.854171
Si Si3 0.161008 0.405949 0.590484
Si Si4 0.263323 0.814496 0.975129
Si Si5 0.986917 0.933737 0.777563
O O1 0.820441 0.953568 0.413227
O O2 0.710419 0.960261 0.604569
O O3 0.640737 0.098504 0.628706
O O4 0.661852 0.152567 0.967244
O O5 0.546344 0.093884 0.852458
O O6 0.207916 0.350200 0.596875
O O7 0.094974 0.415216 0.728669
O O8 0.250000 0.817605 0.750000
O O9 0.250000 0.750000 0.025222
O O10 0.000000 0.000000 0.747373
O O11 0.000000 0.923866 0.000000
#
# Coordination Sequence:
#
# PCOD9325874 Si02
#       5
#     8  16  16  16  16
#     4  10  16  26  44  70 100 128 158 204 246 284
#     4   9  17  27  43  70 103 130 163 202 245 295
#     4   9  16  26  44  70  98 130 168 201 238 293
#     4   8  14  25  42  68  95 123 165 214 245 272
#     4   9  16  27  43  67  98 129 160 196 240 295
#
# _framework density 22.298369999999998
#
# number of rings (size 3 to 8) (size 9 to 14) (size 15 to 20)
#    0.000    3.111    0.000    4.667    0.000    0.000 
#    0.000    0.556    0.000    0.000    0.000   87.111 
#    0.000  120.889    0.000    0.000    0.000    0.000 
#
# Total GULP energy -100219.082973 kJ/mol
# GULP energy per Si atom -5567.726832 kJ/mol
# Density = 2.224762 g / cm^3
# Si number density = 22.298370 Si / 1000 Ang^3
#
#
#
# Elastic Constant Matrix: (Units=GPa)
#
#
# Indices 1 2 3 4 5 6 
#
# 1 236.7053 118.8072 80.2305 0.0001 0.0000 0.0024
# 2 118.8072 173.5207 28.2379 0.0004 -0.0004 -0.0008
# 3 80.2305 28.2379 55.9883 0.0008 -0.0007 0.0036
# 4 0.0001 0.0004 0.0008 2.8458 -0.0003 0.0021
# 5 0.0000 -0.0004 -0.0007 -0.0003 64.8730 -0.0023
# 6 0.0024 -0.0008 0.0036 0.0021 -0.0023 -22.2948
#
#
#
# Elastic Compliance Matrix: (Units=1/GPa)
#
#
# Indices 1 2 3 4 5 6 
#
# 1 0.012019 -0.005912 -0.014241 0.000005 0.000000 -0.000001
# 2 -0.005912 0.009186 0.003838 -0.000002 0.000000 0.000000
# 3 -0.014241 0.003838 0.036333 -0.000011 0.000000 0.000004
# 4 0.000005 -0.000002 -0.000011 0.351400 0.000002 0.000033
# 5 0.000000 0.000000 0.000000 0.000002 0.015415 -0.000002
# 6 -0.000001 0.000000 0.000004 0.000033 -0.000002 -0.044853
#
#
# Mechanical properties :
#
#
# Convention : Reuss Voigt Hill
#
# Bulk Modulus (GPa) = 40.14749 102.30729 71.22739
# Shear Modulus (GPa) = 11.89257 25.01402 18.45329
#
# Velocity S-wave (km/s) = 2.31192 3.35294 2.87986
# Velocity P-wave (km/s) = 5.01701 7.80835 6.56280
#
# Compressibility (1/GPa) = 0.02490816
#
# Stress axis : x y z
#
# Youngs Moduli (GPa) = 83.20251 108.86178 27.52341
#
# Poissons Ratio (x) = 0.64355 0.39197
# Poissons Ratio (y) = 0.49186 -0.10564
# Poissons Ratio (z) = 1.18492 -0.41784
#
# Static dielectric constant tensor:
#      x y z
#    x 1.935180 0.000000 0.000010 
#    y 0.000000 1.799630 0.000010 
#    z 0.000010 0.000010 12.310320 
# 
# From -- ./inp_files/11443.got.cif
#   From: 2010.05.17/outbox.cif.g08.bks.cpg/sg22_6_cif.got.tgz:11443.got - 2010.06.03 23:40:54.
