data_PCOD9325702
_publ_section_title
;
Structure prediction by ZEFSAII (Michael W. Deem and Ramdas Pophale) SiO2 
 PCOD9325702
Probable space group: C 2 2 2
;
_chemical_formula_sum "Si O2"
_cell_formula_units_Z 30
_cell_length_a 15.974659
_cell_length_b 13.532764
_cell_length_c 7.040380
_cell_angle_alpha 90.000000
_cell_angle_beta 90.000000
_cell_angle_gamma 90.000000
_cell_volume 1521.998432
_symmetry_space_group_name_H-M "C 2 2 2"
_symmetry_group_IT_number 21
_symmetry_cell_setting 'orthorhombic'
loop_
_space_group_symop_operation_xyz
x,y,z
-x,-y,z
x,-y,-z
-x,y,-z
1/2+x,1/2+y,z
1/2-x,1/2-y,z
1/2+x,1/2-y,-z
1/2-x,1/2+y,-z
loop_
_atom_site_type_symbol
_atom_site_label
_atom_site_fract_x
_atom_site_fract_y
_atom_site_fract_z
Si Si1 0.714794 0.000000 0.000000
Si Si2 0.135428 0.022430 0.275101
Si Si3 0.068790 0.373654 0.841209
Si Si4 0.500000 0.000000 0.500000
Si Si5 0.487116 0.342924 0.726941
O O1 0.776593 0.027010 0.828535
O O2 0.655787 0.910291 0.930571
O O3 0.077407 0.929348 0.218477
O O4 0.146161 0.000000 0.500000
O O5 0.079923 0.118408 0.220558
O O6 0.053307 0.432143 0.644055
O O7 0.050825 0.258892 0.799989
O O8 0.000000 0.399079 0.000000
O O9 0.500000 0.336276 0.500000
#
# Coordination Sequence:
#
# PCOD9325702 Si02
#       5
#     4   8   8   2   8
#     4  12  25  39  62 102 134 172 202 285 337 380
#     4   9  22  43  68  98 135 166 219 281 328 385
#     4  12  25  42  67  95 127 178 225 259 331 403
#     4  12  22  48  64  84 132 186 218 272 312 412
#     4   9  20  44  72  95 124 182 226 262 326 398
#
# _framework density 19.710926000000001
#
# number of rings (size 3 to 8) (size 9 to 14) (size 15 to 20)
#    0.000    1.600    4.000    1.600    5.600    2.133 
#    0.000    0.000    0.000    0.000    0.000    0.000 
#    0.000    0.000    0.000    0.000    0.000    0.000 
#
# Total GULP energy -83632.680104 kJ/mol
# GULP energy per Si atom -5575.512007 kJ/mol
# Density = 1.966606 g / cm^3
# Si number density = 19.710926 Si / 1000 Ang^3
#
#
#
# Elastic Constant Matrix: (Units=GPa)
#
#
# Indices 1 2 3 4 5 6 
#
# 1 173.9132 70.9285 60.1811 0.0000 0.0000 0.0000
# 2 70.9285 146.9432 35.6395 0.0000 0.0000 0.0000
# 3 60.1811 35.6395 123.4924 0.0000 0.0000 0.0000
# 4 0.0000 0.0000 0.0000 21.8126 0.0000 0.0000
# 5 0.0000 0.0000 0.0000 0.0000 54.7240 0.0000
# 6 0.0000 0.0000 0.0000 0.0000 0.0000 -20.5451
#
#
#
# Elastic Compliance Matrix: (Units=1/GPa)
#
#
# Indices 1 2 3 4 5 6 
#
# 1 0.008091 -0.003171 -0.003028 0.000000 0.000000 0.000000
# 2 -0.003171 0.008560 -0.000925 0.000000 0.000000 0.000000
# 3 -0.003028 -0.000925 0.009840 0.000000 0.000000 0.000000
# 4 0.000000 0.000000 0.000000 0.045845 0.000000 0.000000
# 5 0.000000 0.000000 0.000000 0.000000 0.018274 0.000000
# 6 0.000000 0.000000 0.000000 0.000000 0.000000 -0.048673
#
#
# Mechanical properties :
#
#
# Convention : Reuss Voigt Hill
#
# Bulk Modulus (GPa) = 81.67591 86.42744 84.05167
# Shear Modulus (GPa) = 82.96549 29.70497 56.33523
#
# Velocity S-wave (km/s) = 6.49480 3.88626 5.35189
# Velocity P-wave (km/s) = 9.88788 8.00500 8.99584
#
# Compressibility (1/GPa) = 0.01224351
#
# Stress axis : x y z
#
# Youngs Moduli (GPa) = 123.59342 116.81673 101.62420
#
# Poissons Ratio (x) = 0.37044 0.30770
# Poissons Ratio (y) = 0.39193 0.09402
# Poissons Ratio (z) = 0.37422 0.10807
#
# Static dielectric constant tensor:
#      x y z
#    x 1.660860 0.000000 0.000000 
#    y 0.000000 1.717530 0.000000 
#    z 0.000000 0.000000 1.761020 
# 
# From -- ./inp_files/14047.got.cif
#   From: 2010.05.17/outbox.cif.g08.bks.cpg/sg21_8_cif.got.tgz:14047.got - 2010.06.03 23:14:55.
