data_PCOD9325009
_publ_section_title
;
Structure prediction by ZEFSAII (Michael W. Deem and Ramdas Pophale) SiO2 
 PCOD9325009
Probable space group: C 2 2 2
;
_chemical_formula_sum "Si O2"
_cell_formula_units_Z 40
_cell_length_a 17.069009
_cell_length_b 14.812240
_cell_length_c 7.504249
_cell_angle_alpha 90.000000
_cell_angle_beta 90.000000
_cell_angle_gamma 90.000000
_cell_volume 1897.301210
_symmetry_space_group_name_H-M "C 2 2 2"
_symmetry_group_IT_number 21
_symmetry_cell_setting 'orthorhombic'
loop_
_space_group_symop_operation_xyz
x,y,z
-x,-y,z
x,-y,-z
-x,y,-z
1/2+x,1/2+y,z
1/2-x,1/2-y,z
1/2+x,1/2-y,-z
1/2-x,1/2+y,-z
loop_
_atom_site_type_symbol
_atom_site_label
_atom_site_fract_x
_atom_site_fract_y
_atom_site_fract_z
Si Si1 0.106177 0.847347 0.172959
Si Si2 0.500000 0.203862 0.000000
Si Si3 0.166092 0.197022 0.441472
Si Si4 0.000000 0.000000 0.000000
Si Si5 0.283683 0.407655 0.113830
Si Si6 0.389502 0.126013 0.264632
Si Si7 0.000000 0.500000 0.500000
O O1 0.044989 0.767177 0.139661
O O2 0.139307 0.842921 0.371016
O O3 0.056376 0.936200 0.118217
O O4 0.178560 0.839382 0.032190
O O5 0.435741 0.142264 0.085763
O O6 0.250000 0.250000 0.458777
O O7 0.167029 0.118414 0.291338
O O8 0.113365 0.278835 0.369545
O O9 0.197198 0.399874 0.197833
O O10 0.286897 0.500000 0.000000
O O11 0.440158 0.057971 0.380964
#
# Coordination Sequence:
#
# PCOD9325009 Si02
#       7
#     8   4   8   2   8   8   2
#     4  11  23  45  74  99 144 189 238 301 355 440
#     4  11  24  42  76  99 142 190 244 285 373 425
#     4  10  24  45  74 102 136 191 245 291 359 434
#     4  10  24  48  62 114 142 184 244 296 372 424
#     4  11  25  46  70 105 144 183 247 296 359 434
#     4  11  26  47  69 106 144 189 243 300 361 436
#     4  12  28  46  68 112 152 178 252 304 366 428
#
# _framework density 21.082577000000001
#
# number of rings (size 3 to 8) (size 9 to 14) (size 15 to 20)
#    0.000    1.200    3.000    1.200    5.600    4.000 
#    0.000    1.000    0.000    0.000    0.000    0.000 
#    0.000    0.000    0.000    0.000    0.000    0.000 
#
# Total GULP energy -111525.653587 kJ/mol
# GULP energy per Si atom -5576.282679 kJ/mol
# Density = 2.103459 g / cm^3
# Si number density = 21.082577 Si / 1000 Ang^3
#
#
#
# Elastic Constant Matrix: (Units=GPa)
#
#
# Indices 1 2 3 4 5 6 
#
# 1 102.3448 45.3460 50.7059 0.0000 0.0000 0.0000
# 2 45.3460 80.1838 53.8810 0.0000 0.0000 0.0000
# 3 50.7059 53.8810 176.6463 0.0000 0.0000 0.0000
# 4 0.0000 0.0000 0.0000 -129.2132 0.0000 0.0000
# 5 0.0000 0.0000 0.0000 0.0000 31.0466 0.0000
# 6 0.0000 0.0000 0.0000 0.0000 0.0000 23.9431
#
#
#
# Elastic Compliance Matrix: (Units=1/GPa)
#
#
# Indices 1 2 3 4 5 6 
#
# 1 0.013553 -0.006352 -0.001953 0.000000 0.000000 0.000000
# 2 -0.006352 0.018664 -0.003869 0.000000 0.000000 0.000000
# 3 -0.001953 -0.003869 0.007402 0.000000 0.000000 0.000000
# 4 0.000000 0.000000 0.000000 -0.007739 0.000000 0.000000
# 5 0.000000 0.000000 0.000000 0.000000 0.032210 0.000000
# 6 0.000000 0.000000 0.000000 0.000000 0.000000 0.041766
#
#
# Mechanical properties :
#
#
# Convention : Reuss Voigt Hill
#
# Bulk Modulus (GPa) = 65.48976 73.22673 69.35824
# Shear Modulus (GPa) = 36.95662 -0.89523 18.03070
#
# Velocity S-wave (km/s) = 4.19136 -0.65234 2.92762
# Velocity P-wave (km/s) = 7.38608 5.85161 6.66316
#
# Compressibility (1/GPa) = 0.01526956
#
# Stress axis : x y z
#
# Youngs Moduli (GPa) = 73.78505 53.57934 135.10169
#
# Poissons Ratio (x) = 0.34035 0.26382
# Poissons Ratio (y) = 0.46871 0.52277
# Poissons Ratio (z) = 0.14408 0.20732
#
# Static dielectric constant tensor:
#      x y z
#    x 1.939500 0.000000 0.000000 
#    y 0.000000 1.767110 0.000000 
#    z 0.000000 0.000000 1.788700 
# 
# From -- ./inp_files/4897.got.cif
#   From: 2010.05.17/outbox.cif.g08.bks.cpg/sg21_3_cif.got.tgz:4897.got - 2010.06.03 23:14:55.
