data_PCOD9325984
_publ_section_title
;
Structure prediction by ZEFSAII (Michael W. Deem and Ramdas Pophale) SiO2 
 PCOD9325984
Probable space group: F 2 2 2
;
_chemical_formula_sum "Si O2"
_cell_formula_units_Z 96
_cell_length_a 26.898415
_cell_length_b 20.054409
_cell_length_c 9.530097
_cell_angle_alpha 90.000000
_cell_angle_beta 90.000000
_cell_angle_gamma 90.000000
_cell_volume 5140.837530
_symmetry_space_group_name_H-M "F 2 2 2"
_symmetry_group_IT_number 22
_symmetry_cell_setting 'orthorhombic'
loop_
_space_group_symop_operation_xyz
x,y,z
-x,-y,z
x,-y,-z
-x,y,-z
x,1/2+y,1/2+z
-x,1/2-y,1/2+z
x,1/2-y,1/2-z
-x,1/2+y,1/2-z
1/2+x,y,1/2+z
1/2-x,-y,1/2+z
1/2+x,-y,1/2-z
1/2-x,y,1/2-z
1/2+x,1/2+y,z
1/2-x,1/2-y,z
1/2+x,1/2-y,-z
1/2-x,1/2+y,-z
loop_
_atom_site_type_symbol
_atom_site_label
_atom_site_fract_x
_atom_site_fract_y
_atom_site_fract_z
Si Si1 0.009860 0.419673 0.656996
Si Si2 0.100401 0.568952 0.167645
Si Si3 0.785635 0.952257 0.634975
Si Si4 0.247729 0.325287 0.484368
Si Si5 0.920790 0.911601 0.355709
Si Si6 0.332949 0.174737 0.255501
O O1 0.065876 0.405661 0.706965
O O2 0.000000 0.500000 0.652407
O O3 0.000000 0.394405 0.500000
O O4 0.971764 0.394160 0.776371
O O5 0.159592 0.568396 0.186835
O O6 0.085740 0.491205 0.152699
O O7 0.085097 0.604007 0.020945
O O8 0.750000 0.986409 0.750000
O O9 0.757552 0.885222 0.588704
O O10 0.792301 0.000000 0.500000
O O11 0.250000 0.250000 0.543118
O O12 0.291451 0.328948 0.367168
O O13 0.196450 0.334837 0.400306
O O14 0.875399 0.877875 0.274409
O O15 0.353339 0.250000 0.250000
#
# Coordination Sequence:
#
# PCOD9325984 Si02
#       6
#    16  16  16  16  16  16
#     4   9  19  33  52  80 108 141 188 230 281 338
#     4  10  19  34  52  80 112 149 179 229 286 337
#     4  12  25  37  55  87 122 154 186 237 293 344
#     4   9  19  36  55  80 116 157 198 232 272 341
#     4  10  17  32  56  78 111 144 183 231 276 340
#     4   9  17  31  58  85 108 151 197 233 274 331
#
# _framework density 18.673999999999999
#
# number of rings (size 3 to 8) (size 9 to 14) (size 15 to 20)
#    0.000    2.167    3.333    1.500    4.667    3.667 
#    3.000    0.000    0.000    2.000    4.333    0.000 
#    0.000    0.000    0.000    0.000    0.000    0.000 
#
# Total GULP energy -133816.476336 kJ/mol
# GULP energy per Si atom -5575.686514 kJ/mol
# Density = 1.863150 g / cm^3
# Si number density = 18.674000 Si / 1000 Ang^3
#
#
#
# Elastic Constant Matrix: (Units=GPa)
#
#
# Indices 1 2 3 4 5 6 
#
# 1 124.7855 14.1819 63.7744 0.0000 0.0000 0.0000
# 2 14.1819 34.2130 8.7830 0.0000 0.0000 0.0000
# 3 63.7744 8.7830 84.1066 0.0000 0.0000 0.0000
# 4 0.0000 0.0000 0.0000 13.5005 0.0000 0.0000
# 5 0.0000 0.0000 0.0000 0.0000 24.2565 0.0000
# 6 0.0000 0.0000 0.0000 0.0000 0.0000 -4.2732
#
#
#
# Elastic Compliance Matrix: (Units=1/GPa)
#
#
# Indices 1 2 3 4 5 6 
#
# 1 0.013382 -0.003023 -0.009831 0.000000 0.000000 0.000000
# 2 -0.003023 0.030717 -0.000915 0.000000 0.000000 0.000000
# 3 -0.009831 -0.000915 0.019440 0.000000 0.000000 0.000000
# 4 0.000000 0.000000 0.000000 0.074071 0.000000 0.000000
# 5 0.000000 0.000000 0.000000 0.000000 0.041226 0.000000
# 6 0.000000 0.000000 0.000000 0.000000 0.000000 -0.234018
#
#
# Mechanical properties :
#
#
# Convention : Reuss Voigt Hill
#
# Bulk Modulus (GPa) = 27.77845 46.28708 37.03277
# Shear Modulus (GPa) = -319.62404 17.12115 -151.25144
#
# Velocity S-wave (km/s) = -13.09700 3.03123 -9.00953
# Velocity P-wave (km/s) = 14.62193 6.09031 9.39971
#
# Compressibility (1/GPa) = 0.03599913
#
# Stress axis : x y z
#
# Youngs Moduli (GPa) = 74.72871 32.55543 51.44093
#
# Poissons Ratio (x) = 0.09842 0.50572
# Poissons Ratio (y) = 0.22592 0.04709
# Poissons Ratio (z) = 0.73467 0.02980
#
# Static dielectric constant tensor:
#      x y z
#    x 1.642230 0.000000 0.000000 
#    y 0.000000 1.656270 0.000000 
#    z 0.000000 0.000000 1.703350 
# 
# From -- ./inp_files/13994.got.cif
#   From: 2010.05.17/outbox.cif.g08.bks.cpg/sg22_7_cif.got.tgz:13994.got - 2010.06.03 23:40:54.
