data_PCOD9325122
_publ_section_title
;
Structure prediction by ZEFSAII (Michael W. Deem and Ramdas Pophale) SiO2 
 PCOD9325122
Probable space group: C 2 2 2
;
_chemical_formula_sum "Si O2"
_cell_formula_units_Z 44
_cell_length_a 24.400351
_cell_length_b 6.348417
_cell_length_c 13.451743
_cell_angle_alpha 90.000000
_cell_angle_beta 90.000000
_cell_angle_gamma 90.000000
_cell_volume 2083.723459
_symmetry_space_group_name_H-M "C 2 2 2"
_symmetry_group_IT_number 21
_symmetry_cell_setting 'orthorhombic'
loop_
_space_group_symop_operation_xyz
x,y,z
-x,-y,z
x,-y,-z
-x,y,-z
1/2+x,1/2+y,z
1/2-x,1/2-y,z
1/2+x,1/2-y,-z
1/2-x,1/2+y,-z
loop_
_atom_site_type_symbol
_atom_site_label
_atom_site_fract_x
_atom_site_fract_y
_atom_site_fract_z
Si Si1 0.303129 0.393800 0.858824
Si Si2 0.871839 0.759729 0.681333
Si Si3 0.553221 0.360629 0.629198
Si Si4 0.059434 0.439426 0.183094
Si Si5 0.342103 0.212113 0.044143
Si Si6 0.895970 0.500000 0.500000
O O1 0.250000 0.250000 0.878548
O O2 0.322005 0.332519 0.749547
O O3 0.350120 0.328230 0.938722
O O4 0.304368 0.642566 0.884674
O O5 0.913545 0.632543 0.754371
O O6 0.861709 0.602346 0.589737
O O7 0.898348 0.971004 0.638480
O O8 0.500000 0.500000 0.610519
O O9 0.566681 0.182932 0.548062
O O10 0.548784 0.239756 0.734018
O O11 0.103745 0.354325 0.104100
O O12 0.000000 0.500000 0.140634
O O13 0.315627 0.000000 0.000000
#
# Coordination Sequence:
#
# PCOD9325122 Si02
#       6
#     8   8   8   8   8   4
#     4  11  26  45  74  99 136 188 241 303 370 423
#     4  11  22  43  65  96 137 180 235 294 355 424
#     4  11  22  41  64  98 140 186 238 290 356 431
#     4  11  22  39  65 100 141 189 231 276 348 426
#     4  11  24  42  67 104 142 178 238 290 349 435
#     4  10  26  39  66  98 138 182 238 302 359 430
#
# _framework density 21.116045
#
# number of rings (size 3 to 8) (size 9 to 14) (size 15 to 20)
#    0.000    1.091    5.455    0.545    2.545    2.545 
#    0.000    0.000    8.000    0.000    0.000    0.000 
#    0.000    0.000    0.000    0.000    0.000    0.000 
#
# Total GULP energy -122700.814264 kJ/mol
# GULP energy per Si atom -5577.309739 kJ/mol
# Density = 2.106798 g / cm^3
# Si number density = 21.116045 Si / 1000 Ang^3
#
#
#
# Elastic Constant Matrix: (Units=GPa)
#
#
# Indices 1 2 3 4 5 6 
#
# 1 94.5555 62.4381 68.4913 0.0000 0.0000 0.0000
# 2 62.4381 142.9485 63.6841 0.0000 0.0000 0.0000
# 3 68.4913 63.6841 140.7710 0.0000 0.0000 0.0000
# 4 0.0000 0.0000 0.0000 51.7404 0.0000 0.0000
# 5 0.0000 0.0000 0.0000 0.0000 7.8901 0.0000
# 6 0.0000 0.0000 0.0000 0.0000 0.0000 23.0651
#
#
#
# Elastic Compliance Matrix: (Units=1/GPa)
#
#
# Indices 1 2 3 4 5 6 
#
# 1 0.019024 -0.005243 -0.006885 0.000000 0.000000 0.000000
# 2 -0.005243 0.010206 -0.002066 0.000000 0.000000 0.000000
# 3 -0.006885 -0.002066 0.011388 0.000000 0.000000 0.000000
# 4 0.000000 0.000000 0.000000 0.019327 0.000000 0.000000
# 5 0.000000 0.000000 0.000000 0.000000 0.126740 0.000000
# 6 0.000000 0.000000 0.000000 0.000000 0.000000 0.043355
#
#
# Mechanical properties :
#
#
# Convention : Reuss Voigt Hill
#
# Bulk Modulus (GPa) = 81.75509 85.27802 83.51656
# Shear Modulus (GPa) = 19.04718 28.78323 23.91521
#
# Velocity S-wave (km/s) = 3.00663 3.69602 3.36901
# Velocity P-wave (km/s) = 7.13121 7.66076 7.40072
#
# Compressibility (1/GPa) = 0.01223165
#
# Stress axis : x y z
#
# Youngs Moduli (GPa) = 52.56402 97.98154 87.81022
#
# Poissons Ratio (x) = 0.51367 0.60453
# Poissons Ratio (y) = 0.27557 0.18145
# Poissons Ratio (z) = 0.36188 0.20247
#
# Static dielectric constant tensor:
#      x y z
#    x 1.750330 0.000000 0.000000 
#    y 0.000000 1.940080 0.000000 
#    z 0.000000 0.000000 1.774310 
# 
# From -- ./inp_files/33738.got.cif
#   From: 2010.05.17/outbox.cif.g08.bks.cpg/sg21_17_cif.got.tgz:33738.got - 2010.06.03 23:14:55.
