data_PCOD9325058
_publ_section_title
;
Structure prediction by ZEFSAII (Michael W. Deem and Ramdas Pophale) SiO2 
 PCOD9325058
Probable space group: C 2 2 2
;
_chemical_formula_sum "Si O2"
_cell_formula_units_Z 48
_cell_length_a 14.286783
_cell_length_b 17.350054
_cell_length_c 8.218300
_cell_angle_alpha 90.000000
_cell_angle_beta 90.000000
_cell_angle_gamma 90.000000
_cell_volume 2037.123083
_symmetry_space_group_name_H-M "C 2 2 2"
_symmetry_group_IT_number 21
_symmetry_cell_setting 'orthorhombic'
loop_
_space_group_symop_operation_xyz
x,y,z
-x,-y,z
x,-y,-z
-x,y,-z
1/2+x,1/2+y,z
1/2-x,1/2-y,z
1/2+x,1/2-y,-z
1/2-x,1/2+y,-z
loop_
_atom_site_type_symbol
_atom_site_label
_atom_site_fract_x
_atom_site_fract_y
_atom_site_fract_z
Si Si1 0.050938 0.205574 0.851260
Si Si2 0.231491 0.401483 0.343512
Si Si3 0.948898 0.075255 0.670759
Si Si4 0.089714 0.336344 0.607635
Si Si5 0.372505 0.961595 0.168639
Si Si6 0.766314 0.160718 0.009521
O O1 0.099172 0.262118 0.722673
O O2 0.127445 0.149747 0.932784
O O3 0.974052 0.152708 0.765951
O O4 0.000000 0.250176 0.000000
O O5 0.338479 0.429556 0.365890
O O6 0.178520 0.359498 0.493665
O O7 0.170711 0.474536 0.286853
O O8 0.240766 0.350595 0.179517
O O9 0.000000 0.083659 0.500000
O O10 0.000000 0.000000 0.747884
O O11 0.061162 0.408479 0.723155
O O12 0.000000 0.319286 0.500000
O O13 0.294185 0.899986 0.110737
O O14 0.403477 0.000000 0.000000
O O15 0.750000 0.250000 0.044708
#
# Coordination Sequence:
#
# PCOD9325058 Si02
#       6
#     8   8   8   8   8   8
#     4  12  26  48  73 112 160 203 266 320 399 467
#     4  11  26  48  74 109 157 201 260 318 399 465
#     4  11  26  44  76 114 157 200 250 321 399 478
#     4  12  29  49  76 111 156 208 267 328 390 466
#     4  10  24  48  79 108 145 201 263 317 392 463
#     4  11  23  45  74 108 148 206 255 329 389 472
#
# _framework density 23.562639000000001
#
# number of rings (size 3 to 8) (size 9 to 14) (size 15 to 20)
#    0.000    0.833    3.333    2.000    9.333    3.000 
#    3.000    2.500    0.000    0.000    0.000    0.000 
#    0.000    0.000    0.000    0.000    0.000    0.000 
#
# Total GULP energy -134134.022822 kJ/mol
# GULP energy per Si atom -5588.917618 kJ/mol
# Density = 2.350901 g / cm^3
# Si number density = 23.562639 Si / 1000 Ang^3
#
#
#
# Elastic Constant Matrix: (Units=GPa)
#
#
# Indices 1 2 3 4 5 6 
#
# 1 98.7772 36.4337 37.8129 0.0000 0.0000 0.0000
# 2 36.4337 112.1957 61.6849 0.0000 0.0000 0.0000
# 3 37.8129 61.6849 136.1568 0.0000 0.0000 0.0000
# 4 0.0000 0.0000 0.0000 32.4143 0.0000 0.0000
# 5 0.0000 0.0000 0.0000 0.0000 -29.1319 0.0000
# 6 0.0000 0.0000 0.0000 0.0000 0.0000 -166.0663
#
#
#
# Elastic Compliance Matrix: (Units=1/GPa)
#
#
# Indices 1 2 3 4 5 6 
#
# 1 0.011926 -0.002732 -0.002074 0.000000 0.000000 0.000000
# 2 -0.002732 0.012495 -0.004902 0.000000 0.000000 0.000000
# 3 -0.002074 -0.004902 0.010141 0.000000 0.000000 0.000000
# 4 0.000000 0.000000 0.000000 0.030851 0.000000 0.000000
# 5 0.000000 0.000000 0.000000 0.000000 -0.034327 0.000000
# 6 0.000000 0.000000 0.000000 0.000000 0.000000 -0.006022
#
#
# Mechanical properties :
#
#
# Convention : Reuss Voigt Hill
#
# Bulk Modulus (GPa) = 66.02710 68.77697 67.40203
# Shear Modulus (GPa) = 100.94840 -18.47690 41.23575
#
# Velocity S-wave (km/s) = 6.55252 -2.80333 4.18790
# Velocity P-wave (km/s) = 9.23744 4.33292 7.21472
#
# Compressibility (1/GPa) = 0.01514530
#
# Stress axis : x y z
#
# Youngs Moduli (GPa) = 83.85342 80.02889 98.60597
#
# Poissons Ratio (x) = 0.21866 0.20451
# Poissons Ratio (y) = 0.22911 0.48338
# Poissons Ratio (z) = 0.17392 0.39232
#
# Static dielectric constant tensor:
#      x y z
#    x 1.926170 0.000000 0.000000 
#    y 0.000000 1.946150 0.000000 
#    z 0.000000 0.000000 2.372700 
# 
# From -- ./inp_files/14993.got.cif
#   From: 2010.05.17/outbox.cif.g08.bks.cpg/sg21_8_cif.got.tgz:14993.got - 2010.06.03 23:14:55.
