data_PCOD9325947
_publ_section_title
;
Structure prediction by ZEFSAII (Michael W. Deem and Ramdas Pophale) SiO2 
 PCOD9325947
Probable space group: F 2 2 2
;
_chemical_formula_sum "Si O2"
_cell_formula_units_Z 112
_cell_length_a 17.807564
_cell_length_b 19.733470
_cell_length_c 18.067290
_cell_angle_alpha 90.000000
_cell_angle_beta 90.000000
_cell_angle_gamma 90.000000
_cell_volume 6348.936584
_symmetry_space_group_name_H-M "F 2 2 2"
_symmetry_group_IT_number 22
_symmetry_cell_setting 'orthorhombic'
loop_
_space_group_symop_operation_xyz
x,y,z
-x,-y,z
x,-y,-z
-x,y,-z
x,1/2+y,1/2+z
-x,1/2-y,1/2+z
x,1/2-y,1/2-z
-x,1/2+y,1/2-z
1/2+x,y,1/2+z
1/2-x,-y,1/2+z
1/2+x,-y,1/2-z
1/2-x,y,1/2-z
1/2+x,1/2+y,z
1/2-x,1/2-y,z
1/2+x,1/2-y,-z
1/2-x,1/2+y,-z
loop_
_atom_site_type_symbol
_atom_site_label
_atom_site_fract_x
_atom_site_fract_y
_atom_site_fract_z
Si Si1 0.250000 0.830820 0.664468
Si Si2 0.662885 0.569224 0.905092
Si Si3 0.011981 0.581336 0.331457
Si Si4 0.337116 0.069224 0.905092
Si Si5 0.988019 0.418664 0.168544
Si Si6 0.872655 0.090511 0.926506
Si Si7 0.372655 0.909489 0.926506
O O1 0.250000 0.853172 0.750000
O O2 0.250000 0.750000 0.662264
O O3 0.320892 0.861045 0.621708
O O4 0.179109 0.861045 0.621708
O O5 0.598922 0.594746 0.849394
O O6 0.750000 0.582979 0.887668
O O7 0.651261 0.487547 0.909590
O O8 0.642430 0.597718 0.986441
O O9 0.990687 0.608202 0.250000
O O10 0.000000 0.500000 0.328433
O O11 0.957249 0.602274 0.398199
O O12 0.401079 0.094746 0.849394
O O13 0.348739 0.987547 0.909590
O O14 0.357570 0.097718 0.986441
O O15 0.000000 0.500000 0.171567
O O16 0.042752 0.397726 0.101802
#
# Coordination Sequence:
#
# PCOD9325947 Si02
#       7
#    16  16  16  16  16  16  16
#     4  11  22  33  50  74 101 138 176 213 257 300
#     4  10  17  29  50  75  98 133 165 197 255 309
#     4   9  18  28  43  71 103 133 160 194 247 305
#     4  10  17  29  50  75  98 133 165 197 255 309
#     4   9  18  28  43  71 103 133 160 194 247 305
#     4  10  17  33  48  70 100 130 168 207 250 304
#     4  10  17  33  48  70 100 130 168 207 250 304
#
# _framework density 17.640749
#
# number of rings (size 3 to 8) (size 9 to 14) (size 15 to 20)
#    0.000    2.143    2.857    2.571    0.000    5.143 
#    0.000    0.000    0.000    3.429    0.000    0.000 
#    0.000    1.143    0.000    0.000    0.000    0.000 
#
# Total GULP energy -156000.942547 kJ/mol
# GULP energy per Si atom -5571.462234 kJ/mol
# Density = 1.760060 g / cm^3
# Si number density = 17.640749 Si / 1000 Ang^3
#
#
#
# Elastic Constant Matrix: (Units=GPa)
#
#
# Indices 1 2 3 4 5 6 
#
# 1 148.9446 2.4825 39.7475 0.0000 0.0000 0.0000
# 2 2.4825 18.4486 24.3918 0.0000 0.0000 0.0000
# 3 39.7475 24.3918 73.3485 0.0000 0.0000 0.0000
# 4 0.0000 0.0000 0.0000 16.5765 0.0000 0.0000
# 5 0.0000 0.0000 0.0000 0.0000 25.8001 0.0000
# 6 0.0000 0.0000 0.0000 0.0000 0.0000 3.6601
#
#
#
# Elastic Compliance Matrix: (Units=1/GPa)
#
#
# Indices 1 2 3 4 5 6 
#
# 1 0.008602 0.008933 -0.007632 0.000000 0.000000 0.000000
# 2 0.008933 0.106015 -0.040096 0.000000 0.000000 0.000000
# 3 -0.007632 -0.040096 0.031103 0.000000 0.000000 0.000000
# 4 0.000000 0.000000 0.000000 0.060326 0.000000 0.000000
# 5 0.000000 0.000000 0.000000 0.000000 0.038760 0.000000
# 6 0.000000 0.000000 0.000000 0.000000 0.000000 0.273216
#
#
# Mechanical properties :
#
#
# Convention : Reuss Voigt Hill
#
# Bulk Modulus (GPa) = 14.67769 41.55392 28.11581
# Shear Modulus (GPa) = 8.08641 20.81533 14.45087
#
# Velocity S-wave (km/s) = 2.14334 3.43878 2.86523
# Velocity P-wave (km/s) = 3.80310 6.27485 5.18832
#
# Compressibility (1/GPa) = 0.06813061
#
# Stress axis : x y z
#
# Youngs Moduli (GPa) = 116.25663 9.43260 32.15132
#
# Poissons Ratio (x) = -0.08426 0.24537
# Poissons Ratio (y) = -1.03852 1.28913
# Poissons Ratio (z) = 0.88725 0.37821
#
# Static dielectric constant tensor:
#      x y z
#    x 1.638510 0.000000 0.000000 
#    y 0.000000 1.569260 0.000000 
#    z 0.000000 0.000000 1.608960 
# 
# From -- ./inp_files/38244.got.cif
#   From: 2010.05.17/outbox.cif.g08.bks.cpg/sg22_20_cif.got.tgz:38244.got - 2010.06.03 23:40:54.
