data_PCOD9325415
_publ_section_title
;
Structure prediction by ZEFSAII (Michael W. Deem and Ramdas Pophale) SiO2 
 PCOD9325415
Probable space group: C 2 2 2
;
_chemical_formula_sum "Si O2"
_cell_formula_units_Z 48
_cell_length_a 19.298173
_cell_length_b 8.626067
_cell_length_c 14.120383
_cell_angle_alpha 90.000000
_cell_angle_beta 90.000000
_cell_angle_gamma 90.000000
_cell_volume 2350.582503
_symmetry_space_group_name_H-M "C 2 2 2"
_symmetry_group_IT_number 21
_symmetry_cell_setting 'orthorhombic'
loop_
_space_group_symop_operation_xyz
x,y,z
-x,-y,z
x,-y,-z
-x,y,-z
1/2+x,1/2+y,z
1/2-x,1/2-y,z
1/2+x,1/2-y,-z
1/2-x,1/2+y,-z
loop_
_atom_site_type_symbol
_atom_site_label
_atom_site_fract_x
_atom_site_fract_y
_atom_site_fract_z
Si Si1 0.287591 0.413224 0.901039
Si Si2 0.701802 0.890602 0.255350
Si Si3 0.915804 0.143016 0.218956
Si Si4 0.173934 0.682069 0.374788
Si Si5 0.428295 0.820639 0.533536
Si Si6 0.068466 0.782747 0.748782
O O1 0.250000 0.250000 0.907986
O O2 0.247179 0.511329 0.819924
O O3 0.366670 0.377388 0.871419
O O4 0.284642 0.500000 0.000000
O O5 0.750000 0.750000 0.289382
O O6 0.633412 0.811679 0.207436
O O7 0.681848 0.002958 0.342670
O O8 0.875023 0.245881 0.294449
O O9 0.991664 0.219094 0.205607
O O10 0.919225 0.967092 0.258077
O O11 0.250000 0.750000 0.369132
O O12 0.138781 0.728561 0.474133
O O13 0.500000 0.743249 0.500000
O O14 0.431133 0.789522 0.644149
O O15 0.431962 0.000000 0.500000
#
# Coordination Sequence:
#
# PCOD9325415 Si02
#       6
#     8   8   8   8   8   8
#     4  12  25  46  77 104 135 176 231 290 359 438
#     4  12  22  42  72 101 135 183 235 283 358 422
#     4  11  23  45  68 101 137 181 229 291 359 420
#     4  12  22  42  65  96 140 185 234 293 337 406
#     4  11  23  39  61  95 136 182 240 283 331 397
#     4  11  24  41  69  99 139 188 231 280 351 413
#
# _framework density 20.420470000000002
#
# number of rings (size 3 to 8) (size 9 to 14) (size 15 to 20)
#    0.000    0.500    8.333    0.500    0.000    2.000 
#    3.000    1.667    0.000    1.000    0.000    0.000 
#    0.000    0.000    0.000    0.000    0.000    0.000 
#
# Total GULP energy -133898.356634 kJ/mol
# GULP energy per Si atom -5579.098193 kJ/mol
# Density = 2.037399 g / cm^3
# Si number density = 20.420470 Si / 1000 Ang^3
#
#
#
# Elastic Constant Matrix: (Units=GPa)
#
#
# Indices 1 2 3 4 5 6 
#
# 1 168.5750 56.6773 21.1053 0.0000 0.0000 0.0000
# 2 56.6773 93.1624 21.3012 0.0000 0.0000 0.0000
# 3 21.1053 21.3012 64.9103 0.0000 0.0000 0.0000
# 4 0.0000 0.0000 0.0000 40.5507 0.0000 0.0000
# 5 0.0000 0.0000 0.0000 0.0000 25.6317 0.0000
# 6 0.0000 0.0000 0.0000 0.0000 0.0000 32.1790
#
#
#
# Elastic Compliance Matrix: (Units=1/GPa)
#
#
# Indices 1 2 3 4 5 6 
#
# 1 0.007519 -0.004341 -0.001020 0.000000 0.000000 0.000000
# 2 -0.004341 0.014111 -0.003219 0.000000 0.000000 0.000000
# 3 -0.001020 -0.003219 0.016794 0.000000 0.000000 0.000000
# 4 0.000000 0.000000 0.000000 0.024660 0.000000 0.000000
# 5 0.000000 0.000000 0.000000 0.000000 0.039014 0.000000
# 6 0.000000 0.000000 0.000000 0.000000 0.000000 0.031076
#
#
# Mechanical properties :
#
#
# Convention : Reuss Voigt Hill
#
# Bulk Modulus (GPa) = 47.02994 58.31281 52.67137
# Shear Modulus (GPa) = 31.76123 34.84322 33.30222
#
# Velocity S-wave (km/s) = 3.94809 4.13521 4.04273
# Velocity P-wave (km/s) = 6.62299 7.17063 6.90224
#
# Compressibility (1/GPa) = 0.02126305
#
# Stress axis : x y z
#
# Youngs Moduli (GPa) = 132.98885 70.86597 59.54501
#
# Poissons Ratio (x) = 0.30765 0.06075
# Poissons Ratio (y) = 0.57735 0.19169
# Poissons Ratio (z) = 0.13568 0.22813
#
# Static dielectric constant tensor:
#      x y z
#    x 1.768370 0.000000 0.000000 
#    y 0.000000 1.675800 0.000000 
#    z 0.000000 0.000000 1.700140 
# 
# From -- ./inp_files/32838.got.cif
#   From: 2010.05.17/outbox.cif.g08.bks.cpg/sg21_17_cif.got.tgz:32838.got - 2010.06.03 23:14:55.
