data_PCOD9325074
_publ_section_title
;
Structure prediction by ZEFSAII (Michael W. Deem and Ramdas Pophale) SiO2 
 PCOD9325074
Probable space group: C 2 2 2
;
_chemical_formula_sum "Si O2"
_cell_formula_units_Z 28
_cell_length_a 18.622713
_cell_length_b 5.379273
_cell_length_c 13.861034
_cell_angle_alpha 90.000000
_cell_angle_beta 90.000000
_cell_angle_gamma 90.000000
_cell_volume 1388.552052
_symmetry_space_group_name_H-M "C 2 2 2"
_symmetry_group_IT_number 21
_symmetry_cell_setting 'orthorhombic'
loop_
_space_group_symop_operation_xyz
x,y,z
-x,-y,z
x,-y,-z
-x,y,-z
1/2+x,1/2+y,z
1/2-x,1/2-y,z
1/2+x,1/2-y,-z
1/2-x,1/2+y,-z
loop_
_atom_site_type_symbol
_atom_site_label
_atom_site_fract_x
_atom_site_fract_y
_atom_site_fract_z
Si Si1 0.029816 0.247686 0.389447
Si Si2 0.798752 0.498587 0.894581
Si Si3 0.174488 0.597332 0.686248
Si Si4 0.250000 0.250000 0.560647
O O1 0.114745 0.260237 0.375081
O O2 0.000000 0.500000 0.344673
O O3 0.000000 0.247770 0.500000
O O4 0.000000 0.000000 0.342770
O O5 0.750000 0.750000 0.883350
O O6 0.843909 0.461942 0.796989
O O7 0.750000 0.250000 0.898920
O O8 0.835393 0.500000 0.000000
O O9 0.250000 0.750000 0.687352
O O10 0.186490 0.338112 0.630496
O O11 0.264152 0.500000 0.500000
#
# Coordination Sequence:
#
# PCOD9325074 Si02
#       4
#     8   8   8   4
#     4  10  25  41  58  83 127 170 208 256 316 374
#     4   9  18  34  59  95 127 153 200 274 338 376
#     4  11  24  41  67  93 126 169 226 268 317 387
#     4  12  26  34  56  94 130 164 218 274 306 372
#
# _framework density 20.164891000000001
#
# number of rings (size 3 to 8) (size 9 to 14) (size 15 to 20)
#    0.000    1.714    2.857    0.000    8.000    2.286 
#    0.000    0.000    0.000    0.857    0.000    2.000 
#    0.000    0.000    0.000    0.000    0.000    0.000 
#
# Total GULP energy -77984.910583 kJ/mol
# GULP energy per Si atom -5570.350756 kJ/mol
# Density = 2.011899 g / cm^3
# Si number density = 20.164891 Si / 1000 Ang^3
#
#
#
# Elastic Constant Matrix: (Units=GPa)
#
#
# Indices 1 2 3 4 5 6 
#
# 1 94.8390 31.8792 31.4339 0.0000 0.0000 0.0000
# 2 31.8792 163.9971 20.4951 0.0000 0.0000 0.0000
# 3 31.4339 20.4951 166.2138 0.0000 0.0000 0.0000
# 4 0.0000 0.0000 0.0000 12.3468 0.0000 0.0000
# 5 0.0000 0.0000 0.0000 0.0000 25.5755 0.0000
# 6 0.0000 0.0000 0.0000 0.0000 0.0000 32.6597
#
#
#
# Elastic Compliance Matrix: (Units=1/GPa)
#
#
# Indices 1 2 3 4 5 6 
#
# 1 0.011899 -0.002064 -0.001996 0.000000 0.000000 0.000000
# 2 -0.002064 0.006551 -0.000417 0.000000 0.000000 0.000000
# 3 -0.001996 -0.000417 0.006445 0.000000 0.000000 0.000000
# 4 0.000000 0.000000 0.000000 0.080992 0.000000 0.000000
# 5 0.000000 0.000000 0.000000 0.000000 0.039100 0.000000
# 6 0.000000 0.000000 0.000000 0.000000 0.000000 0.030619
#
#
# Mechanical properties :
#
#
# Convention : Reuss Voigt Hill
#
# Bulk Modulus (GPa) = 62.72933 65.85181 64.29057
# Shear Modulus (GPa) = 26.33315 36.86585 31.59950
#
# Velocity S-wave (km/s) = 3.61763 4.28041 3.96290
# Velocity P-wave (km/s) = 6.97319 7.56021 7.27262
#
# Compressibility (1/GPa) = 0.01594151
#
# Stress axis : x y z
#
# Youngs Moduli (GPa) = 84.03784 152.64838 155.15209
#
# Poissons Ratio (x) = 0.31502 0.30967
# Poissons Ratio (y) = 0.17343 0.06478
# Poissons Ratio (z) = 0.16773 0.06373
#
# Static dielectric constant tensor:
#      x y z
#    x 1.828410 0.000000 0.000000 
#    y 0.000000 1.728570 0.000000 
#    z 0.000000 0.000000 1.782380 
# 
# From -- ./inp_files/33026.got.cif
#   From: 2010.05.17/outbox.cif.g08.bks.cpg/sg21_17_cif.got.tgz:33026.got - 2010.06.03 23:14:55.
