data_PCOD9325569
_publ_section_title
;
Structure prediction by ZEFSAII (Michael W. Deem and Ramdas Pophale) SiO2 
 PCOD9325569
Probable space group: C 2 2 2
;
_chemical_formula_sum "Si O2"
_cell_formula_units_Z 40
_cell_length_a 12.323261
_cell_length_b 12.061549
_cell_length_c 9.995885
_cell_angle_alpha 90.000000
_cell_angle_beta 90.000000
_cell_angle_gamma 90.000000
_cell_volume 1485.764520
_symmetry_space_group_name_H-M "C 2 2 2"
_symmetry_group_IT_number 21
_symmetry_cell_setting 'orthorhombic'
loop_
_space_group_symop_operation_xyz
x,y,z
-x,-y,z
x,-y,-z
-x,y,-z
1/2+x,1/2+y,z
1/2-x,1/2-y,z
1/2+x,1/2-y,-z
1/2-x,1/2+y,-z
loop_
_atom_site_type_symbol
_atom_site_label
_atom_site_fract_x
_atom_site_fract_y
_atom_site_fract_z
Si Si1 0.136208 0.104059 0.580767
Si Si2 0.493275 0.180397 0.349091
Si Si3 0.899704 0.348031 0.086812
Si Si4 0.747780 0.600443 0.312396
Si Si5 0.336020 0.381605 0.024153
O O1 0.204950 0.149193 0.454154
O O2 0.049155 0.193369 0.636084
O O3 0.091797 0.000000 0.500000
O O4 0.216626 0.032799 0.678582
O O5 0.500000 0.137685 0.500000
O O6 0.572393 0.129489 0.239215
O O7 0.372279 0.142113 0.301547
O O8 0.785295 0.388062 0.034968
O O9 0.892387 0.216036 0.056708
O O10 0.000000 0.387272 0.000000
O O11 0.680196 0.639780 0.182264
O O12 0.387103 0.500000 0.000000
#
# Coordination Sequence:
#
# PCOD9325569 Si02
#       5
#     8   8   8   8   8
#     4   8  23  46  73 115 156 196 279 318 395 490
#     4  12  25  44  81 111 156 210 256 335 408 467
#     4  11  26  44  70 114 142 195 273 305 397 498
#     4   9  22  47  75 112 157 211 254 337 405 467
#     4  11  24  46  77 101 159 204 252 338 400 461
#
# _framework density 26.922167000000002
#
# number of rings (size 3 to 8) (size 9 to 14) (size 15 to 20)
#    1.200    0.400    2.000    1.200    2.800    8.400 
#    0.000    8.000    0.000    0.000    0.000    0.000 
#    0.000    0.000    0.000    0.000    0.000    0.000 
#
# Total GULP energy -111470.049420 kJ/mol
# GULP energy per Si atom -5573.502471 kJ/mol
# Density = 2.686089 g / cm^3
# Si number density = 26.922167 Si / 1000 Ang^3
#
#
#
# Elastic Constant Matrix: (Units=GPa)
#
#
# Indices 1 2 3 4 5 6 
#
# 1 181.4260 54.1475 29.9098 0.0000 0.0000 0.0000
# 2 54.1475 161.0251 22.0443 0.0000 0.0000 0.0000
# 3 29.9098 22.0443 175.5481 0.0000 0.0000 0.0000
# 4 0.0000 0.0000 0.0000 8.1435 0.0000 0.0000
# 5 0.0000 0.0000 0.0000 0.0000 21.6334 0.0000
# 6 0.0000 0.0000 0.0000 0.0000 0.0000 -210.5288
#
#
#
# Elastic Compliance Matrix: (Units=1/GPa)
#
#
# Indices 1 2 3 4 5 6 
#
# 1 0.006239 -0.001987 -0.000814 0.000000 0.000000 0.000000
# 2 -0.001987 0.006951 -0.000534 0.000000 0.000000 0.000000
# 3 -0.000814 -0.000534 0.005902 0.000000 0.000000 0.000000
# 4 0.000000 0.000000 0.000000 0.122798 0.000000 0.000000
# 5 0.000000 0.000000 0.000000 0.000000 0.046225 0.000000
# 6 0.000000 0.000000 0.000000 0.000000 0.000000 -0.004750
#
#
# Mechanical properties :
#
#
# Convention : Reuss Voigt Hill
#
# Bulk Modulus (GPa) = 80.49326 81.13358 80.81342
# Shear Modulus (GPa) = 25.74991 -8.69055 8.52968
#
# Velocity S-wave (km/s) = 3.09602 -1.79862 1.78190
# Velocity P-wave (km/s) = 6.53788 5.08806 5.85800
#
# Compressibility (1/GPa) = 0.01242340
#
# Stress axis : x y z
#
# Youngs Moduli (GPa) = 160.28446 143.85599 169.42936
#
# Poissons Ratio (x) = 0.28578 0.13783
# Poissons Ratio (y) = 0.31842 0.09055
# Poissons Ratio (z) = 0.13039 0.07688
#
# Static dielectric constant tensor:
#      x y z
#    x 2.180680 0.000000 0.000000 
#    y 0.000000 2.003010 0.000000 
#    z 0.000000 0.000000 2.098700 
# 
# From -- ./inp_files/23763.got.cif
#   From: 2010.05.17/outbox.cif.g08.bks.cpg/sg21_12_cif.got.tgz:23763.got - 2010.06.03 23:14:55.
