data_PCOD9325165
_publ_section_title
;
Structure prediction by ZEFSAII (Michael W. Deem and Ramdas Pophale) SiO2 
 PCOD9325165
Probable space group: C 2 2 2
;
_chemical_formula_sum "Si O2"
_cell_formula_units_Z 30
_cell_length_a 19.245327
_cell_length_b 5.707891
_cell_length_c 12.035644
_cell_angle_alpha 90.000000
_cell_angle_beta 90.000000
_cell_angle_gamma 90.000000
_cell_volume 1322.118247
_symmetry_space_group_name_H-M "C 2 2 2"
_symmetry_group_IT_number 21
_symmetry_cell_setting 'orthorhombic'
loop_
_space_group_symop_operation_xyz
x,y,z
-x,-y,z
x,-y,-z
-x,y,-z
1/2+x,1/2+y,z
1/2-x,1/2-y,z
1/2+x,1/2-y,-z
1/2-x,1/2+y,-z
loop_
_atom_site_type_symbol
_atom_site_label
_atom_site_fract_x
_atom_site_fract_y
_atom_site_fract_z
Si Si1 0.331206 0.250405 0.702401
Si Si2 0.290099 0.500000 0.500000
Si Si3 0.083166 0.012332 0.127085
Si Si4 0.570502 0.148673 0.676362
Si Si5 0.000000 0.000000 0.500000
O O1 0.250000 0.250000 0.735295
O O2 0.379630 0.305864 0.806051
O O3 0.332208 0.457160 0.612061
O O4 0.366169 0.024559 0.644937
O O5 0.250000 0.750000 0.509538
O O6 0.095070 0.233263 0.207914
O O7 0.000000 0.000000 0.125840
O O8 0.107270 0.000000 0.000000
O O9 0.543282 0.328021 0.581629
O O10 0.500000 0.000000 0.698004
#
# Coordination Sequence:
#
# PCOD9325165 Si02
#       5
#     8   4   8   8   2
#     4  11  27  51  74 115 155 205 257 328 404 479
#     4  10  26  51  75 114 171 215 252 328 415 492
#     4  11  25  50  76 109 145 200 267 326 394 474
#     4  12  25  49  76 114 158 207 265 336 397 487
#     4  12  26  46  74 130 156 212 268 326 410 490
#
# _framework density 22.690859
#
# number of rings (size 3 to 8) (size 9 to 14) (size 15 to 20)
#    0.000    0.800    4.000    0.400    7.467    7.467 
#   19.200    0.000    0.000    0.000    0.000    0.000 
#    0.000    0.000    0.000    0.000    0.000    0.000 
#
# Total GULP energy -83740.624430 kJ/mol
# GULP energy per Si atom -5582.708295 kJ/mol
# Density = 2.263921 g / cm^3
# Si number density = 22.690859 Si / 1000 Ang^3
#
#
#
# Elastic Constant Matrix: (Units=GPa)
#
#
# Indices 1 2 3 4 5 6 
#
# 1 137.9690 66.4001 49.4366 0.0000 0.0000 0.0000
# 2 66.4001 142.2780 70.1755 0.0000 0.0000 0.0000
# 3 49.4366 70.1755 192.5813 0.0000 0.0000 0.0000
# 4 0.0000 0.0000 0.0000 19.1875 0.0000 0.0000
# 5 0.0000 0.0000 0.0000 0.0000 26.2447 0.0000
# 6 0.0000 0.0000 0.0000 0.0000 0.0000 61.1753
#
#
#
# Elastic Compliance Matrix: (Units=1/GPa)
#
#
# Indices 1 2 3 4 5 6 
#
# 1 0.009504 -0.003940 -0.001004 0.000000 0.000000 0.000000
# 2 -0.003940 0.010202 -0.002706 0.000000 0.000000 0.000000
# 3 -0.001004 -0.002706 0.006436 0.000000 0.000000 0.000000
# 4 0.000000 0.000000 0.000000 0.052117 0.000000 0.000000
# 5 0.000000 0.000000 0.000000 0.000000 0.038103 0.000000
# 6 0.000000 0.000000 0.000000 0.000000 0.000000 0.016346
#
#
# Mechanical properties :
#
#
# Convention : Reuss Voigt Hill
#
# Bulk Modulus (GPa) = 92.23432 93.87251 93.05342
# Shear Modulus (GPa) = 32.97635 40.44259 36.70947
#
# Velocity S-wave (km/s) = 3.81634 4.22634 4.02656
# Velocity P-wave (km/s) = 7.75601 8.07936 7.91933
#
# Compressibility (1/GPa) = 0.01084195
#
# Stress axis : x y z
#
# Youngs Moduli (GPa) = 105.21807 98.01871 155.36613
#
# Poissons Ratio (x) = 0.38622 0.15597
# Poissons Ratio (y) = 0.41459 0.42044
# Poissons Ratio (z) = 0.10563 0.26525
#
# Static dielectric constant tensor:
#      x y z
#    x 1.907520 0.000000 0.000000 
#    y 0.000000 1.942370 0.000000 
#    z 0.000000 0.000000 1.837710 
# 
# From -- ./inp_files/20700.got.cif
#   From: 2010.05.17/outbox.cif.g08.bks.cpg/sg21_11_cif.got.tgz:20700.got - 2010.06.03 23:14:55.
