data_PCOD9325408
_publ_section_title
;
Structure prediction by ZEFSAII (Michael W. Deem and Ramdas Pophale) SiO2 
 PCOD9325408
Probable space group: C 2 2 2
;
_chemical_formula_sum "Si O2"
_cell_formula_units_Z 64
_cell_length_a 14.465431
_cell_length_b 17.319237
_cell_length_c 13.154793
_cell_angle_alpha 90.000000
_cell_angle_beta 90.000000
_cell_angle_gamma 90.000000
_cell_volume 3295.673287
_symmetry_space_group_name_H-M "C 2 2 2"
_symmetry_group_IT_number 21
_symmetry_cell_setting 'orthorhombic'
loop_
_space_group_symop_operation_xyz
x,y,z
-x,-y,z
x,-y,-z
-x,y,-z
1/2+x,1/2+y,z
1/2-x,1/2-y,z
1/2+x,1/2-y,-z
1/2-x,1/2+y,-z
loop_
_atom_site_type_symbol
_atom_site_label
_atom_site_fract_x
_atom_site_fract_y
_atom_site_fract_z
Si Si1 0.030808 0.210761 0.317653
Si Si2 0.503582 0.120089 0.615685
Si Si3 0.864796 0.918261 0.453334
Si Si4 0.835372 0.293409 0.836350
Si Si5 0.320429 0.318743 0.652291
Si Si6 0.108905 0.413291 0.991196
Si Si7 0.668620 0.092234 0.231494
Si Si8 0.304719 0.071342 0.304244
O O1 0.072188 0.136064 0.378186
O O2 0.089072 0.237328 0.217350
O O3 0.032832 0.289420 0.383994
O O4 0.920959 0.200244 0.301449
O O5 0.500000 0.095108 0.500000
O O6 0.412195 0.108185 0.684367
O O7 0.589075 0.074451 0.662042
O O8 0.840488 0.866154 0.550209
O O9 0.770967 0.937850 0.391765
O O10 0.900045 0.000000 0.500000
O O11 0.750000 0.250000 0.885603
O O12 0.869951 0.354457 0.918368
O O13 0.790217 0.345926 0.747540
O O14 0.250000 0.250000 0.623790
O O15 0.260290 0.365162 0.733060
O O16 0.149802 0.500000 0.000000
O O17 0.134593 0.383303 0.879249
O O18 0.000000 0.422067 0.000000
O O19 0.696140 0.002253 0.231792
#
# Coordination Sequence:
#
# PCOD9325408 Si02
#       8
#     8   8   8   8   8   8   8   8
#     4  11  25  43  65  96 132 179 234 279 337 415
#     4  11  23  37  64  95 136 177 215 268 341 411
#     4  12  25  43  66  99 135 187 236 276 339 419
#     4  11  23  46  72  96 131 179 228 283 354 416
#     4  12  26  41  64  93 138 175 223 282 340 409
#     4  11  24  42  72 100 132 170 223 294 361 420
#     4  12  24  44  65  99 134 176 224 282 351 415
#     4  11  23  39  64  97 136 173 225 279 333 416
#
# _framework density 19.419401000000001
#
# number of rings (size 3 to 8) (size 9 to 14) (size 15 to 20)
#    0.000    0.625    5.000    3.750    5.250    2.000 
#    0.000    0.000    0.000    0.000    0.000    0.875 
#    0.000    0.000    0.000    0.000    0.000    0.000 
#
# Total GULP energy -178483.481994 kJ/mol
# GULP energy per Si atom -5577.608812 kJ/mol
# Density = 1.937520 g / cm^3
# Si number density = 19.419401 Si / 1000 Ang^3
#
#
#
# Elastic Constant Matrix: (Units=GPa)
#
#
# Indices 1 2 3 4 5 6 
#
# 1 131.4198 56.9567 54.6073 0.0000 0.0000 0.0000
# 2 56.9567 116.7918 29.7915 0.0000 0.0000 0.0000
# 3 54.6073 29.7915 98.4163 0.0000 0.0000 0.0000
# 4 0.0000 0.0000 0.0000 20.9843 0.0000 0.0000
# 5 0.0000 0.0000 0.0000 0.0000 9.3641 0.0000
# 6 0.0000 0.0000 0.0000 0.0000 0.0000 17.4927
#
#
#
# Elastic Compliance Matrix: (Units=1/GPa)
#
#
# Indices 1 2 3 4 5 6 
#
# 1 0.011634 -0.004364 -0.005134 0.000000 0.000000 0.000000
# 2 -0.004364 0.010916 -0.000883 0.000000 0.000000 0.000000
# 3 -0.005134 -0.000883 0.013277 0.000000 0.000000 0.000000
# 4 0.000000 0.000000 0.000000 0.047655 0.000000 0.000000
# 5 0.000000 0.000000 0.000000 0.000000 0.106791 0.000000
# 6 0.000000 0.000000 0.000000 0.000000 0.000000 0.057167
#
#
# Mechanical properties :
#
#
# Convention : Reuss Voigt Hill
#
# Bulk Modulus (GPa) = 66.38148 69.92657 68.15402
# Shear Modulus (GPa) = 18.30016 23.25306 20.77661
#
# Velocity S-wave (km/s) = 3.07313 3.46412 3.27446
# Velocity P-wave (km/s) = 6.84466 7.21713 7.03336
#
# Compressibility (1/GPa) = 0.01506444
#
# Stress axis : x y z
#
# Youngs Moduli (GPa) = 85.95606 91.61162 75.31866
#
# Poissons Ratio (x) = 0.39979 0.38670
# Poissons Ratio (y) = 0.37511 0.06650
# Poissons Ratio (z) = 0.44131 0.08088
#
# Static dielectric constant tensor:
#      x y z
#    x 1.690090 0.000000 0.000000 
#    y 0.000000 1.782770 0.000000 
#    z 0.000000 0.000000 1.734680 
# 
# From -- ./inp_files/25471.got.cif
#   From: 2010.05.17/outbox.cif.g08.bks.cpg/sg21_13_cif.got.tgz:25471.got - 2010.06.03 23:14:55.
