data_PCOD9325844
_publ_section_title
;
Structure prediction by ZEFSAII (Michael W. Deem and Ramdas Pophale) SiO2 
 PCOD9325844
Probable space group: C 2 2 2
;
_chemical_formula_sum "Si O2"
_cell_formula_units_Z 24
_cell_length_a 30.000000
_cell_length_b 9.000000
_cell_length_c 9.000000
_cell_angle_alpha 90.000000
_cell_angle_beta 90.000000
_cell_angle_gamma 90.000000
_cell_volume 2430.000000
_symmetry_space_group_name_H-M "C 2 2 2"
_symmetry_group_IT_number 21
_symmetry_cell_setting 'orthorhombic'
loop_
_space_group_symop_operation_xyz
x,y,z
-x,-y,z
x,-y,-z
-x,y,-z
1/2+x,1/2+y,z
1/2-x,1/2-y,z
1/2+x,1/2-y,-z
1/2-x,1/2+y,-z
loop_
_atom_site_type_symbol
_atom_site_label
_atom_site_fract_x
_atom_site_fract_y
_atom_site_fract_z
Si Si1 0.760385 0.515839 0.677736
Si Si2 0.413762 0.692622 0.836440
Si Si3 0.177796 0.349445 0.101539
Si Si4 0.313458 0.703270 0.200738
Si Si5 0.915393 0.155433 0.188966
Si Si6 0.500056 0.825880 0.677619
O O1 0.758049 0.500000 0.500000
O O2 0.785996 0.389194 0.772373
O O3 0.711737 0.554968 0.745418
O O4 0.789951 0.661517 0.714349
O O5 0.367750 0.786481 0.825429
O O6 0.411954 0.521285 0.785340
O O7 0.455244 0.762420 0.750850
O O8 0.422148 0.684278 0.013457
O O9 0.170039 0.500000 0.000000
O O10 0.192811 0.230431 0.976190
O O11 0.366044 0.711640 0.229691
O O12 0.956288 0.237224 0.267455
O O13 0.500000 0.813308 0.500000
O O14 0.500000 0.000000 0.717534
#
# Coordination Sequence:
#
# PCOD9325844 Si02
#       6
#     8   8   8   8   8   8
#     4  10  21  42  62  93 133 170 220 277 333 395
#     4  10  22  41  67  99 124 169 217 270 331 382
#     4   9  20  41  67  95 128 174 224 278 326 402
#     4   9  21  44  61  92 129 173 219 274 329 386
#     4  10  22  44  66  93 131 163 221 277 318 397
#     4  11  26  42  63  96 132 171 211 263 334 405
#
# _framework density 9.8765429999999999
#
# number of rings (size 3 to 8) (size 9 to 14) (size 15 to 20)
#    0.000    2.167    0.000    1.000    7.000    4.667 
#   42.000    0.000    0.000    0.000    0.000    0.000 
#    0.000    0.000    0.000    0.000    0.000    0.000 
#
# Total GULP energy -134023.234512 kJ/mol
# GULP energy per Si atom -5584.301438 kJ/mol
# Density = 0.985406 g / cm^3
# Si number density = 9.876543 Si / 1000 Ang^3
#
#
#
# Elastic Constant Matrix: (Units=GPa)
#
#
# Indices 1 2 3 4 5 6 
#
# 1 144.1115 49.6581 73.0072 0.0000 0.0000 0.0000
# 2 49.6581 70.3616 43.0533 0.0000 0.0000 0.0000
# 3 73.0072 43.0533 89.7425 0.0000 0.0000 0.0000
# 4 0.0000 0.0000 0.0000 25.6207 0.0000 0.0000
# 5 0.0000 0.0000 0.0000 0.0000 4.8280 0.0000
# 6 0.0000 0.0000 0.0000 0.0000 0.0000 46.8277
#
#
#
# Elastic Compliance Matrix: (Units=1/GPa)
#
#
# Indices 1 2 3 4 5 6 
#
# 1 0.012436 -0.003661 -0.008361 0.000000 0.000000 0.000000
# 2 -0.003661 0.021196 -0.007190 0.000000 0.000000 0.000000
# 3 -0.008361 -0.007190 0.021394 0.000000 0.000000 0.000000
# 4 0.000000 0.000000 0.000000 0.039031 0.000000 0.000000
# 5 0.000000 0.000000 0.000000 0.000000 0.207124 0.000000
# 6 0.000000 0.000000 0.000000 0.000000 0.000000 0.021355
#
#
# Mechanical properties :
#
#
# Convention : Reuss Voigt Hill
#
# Bulk Modulus (GPa) = 60.23351 70.62808 65.43080
# Shear Modulus (GPa) = 13.64284 24.68843 19.16563
#
# Velocity S-wave (km/s) = 2.63091 3.53916 3.11828
# Velocity P-wave (km/s) = 6.30780 7.24803 6.79420
#
# Compressibility (1/GPa) = 0.01660205
#
# Stress axis : x y z
#
# Youngs Moduli (GPa) = 80.41083 47.17949 46.74223
#
# Poissons Ratio (x) = 0.17273 0.39080
# Poissons Ratio (y) = 0.29439 0.33608
# Poissons Ratio (z) = 0.67229 0.33922
#
# Static dielectric constant tensor:
#      x y z
#    x 1.694230 0.000000 0.000000 
#    y 0.000000 1.755030 0.000000 
#    z 0.000000 0.000000 1.669630 
# 
# From -- ./inp_files/19644.got.cif
#   From: 2010.05.17/outbox.ucp.g08.bks.cvg/sg21_10_cif.got.tgz:19644.got - 2010.06.11 15:15:05.
