data_PCOD9325313
_publ_section_title
;
Structure prediction by ZEFSAII (Michael W. Deem and Ramdas Pophale) SiO2 
 PCOD9325313
Probable space group: C 2 2 2
;
_chemical_formula_sum "Si O2"
_cell_formula_units_Z 56
_cell_length_a 11.004427
_cell_length_b 21.522305
_cell_length_c 12.038119
_cell_angle_alpha 90.000000
_cell_angle_beta 90.000000
_cell_angle_gamma 90.000000
_cell_volume 2851.115739
_symmetry_space_group_name_H-M "C 2 2 2"
_symmetry_group_IT_number 21
_symmetry_cell_setting 'orthorhombic'
loop_
_space_group_symop_operation_xyz
x,y,z
-x,-y,z
x,-y,-z
-x,y,-z
1/2+x,1/2+y,z
1/2-x,1/2-y,z
1/2+x,1/2-y,-z
1/2-x,1/2+y,-z
loop_
_atom_site_type_symbol
_atom_site_label
_atom_site_fract_x
_atom_site_fract_y
_atom_site_fract_z
Si Si1 0.612558 0.830154 0.926678
Si Si2 0.221534 0.893930 0.243878
Si Si3 0.854842 0.986340 0.127904
Si Si4 0.518067 0.706367 0.807138
Si Si5 0.680998 0.813957 0.582783
Si Si6 0.089496 0.299451 0.339802
Si Si7 0.267512 0.345672 0.139358
O O1 0.663314 0.873782 0.830519
O O2 0.579403 0.765151 0.867658
O O3 0.500000 0.853808 0.000000
O O4 0.712125 0.828373 0.021424
O O5 0.197446 0.964651 0.215656
O O6 0.109904 0.850339 0.203561
O O7 0.243708 0.871605 0.369359
O O8 0.804961 0.917749 0.153367
O O9 0.000000 0.000000 0.130984
O O10 0.817357 0.000000 0.000000
O O11 0.457000 0.730174 0.691600
O O12 0.396902 0.687571 0.868511
O O13 0.750000 0.750000 0.623405
O O14 0.666628 0.807062 0.451203
O O15 0.544631 0.825600 0.630301
O O16 0.171362 0.324244 0.236099
#
# Coordination Sequence:
#
# PCOD9325313 Si02
#       7
#     8   8   8   8   8   8   8
#     4  12  25  36  59  96 137 170 213 272 341 406
#     4  12  23  42  66  96 130 174 228 272 332 402
#     4  11  24  45  67  93 131 185 227 271 327 403
#     4  12  24  38  65 101 136 169 215 281 344 411
#     4  11  21  43  67  99 135 171 223 278 342 417
#     4  11  24  40  67  99 136 174 214 279 357 400
#     4  12  25  43  62  98 136 172 223 276 338 409
#
# _framework density 19.641434
#
# number of rings (size 3 to 8) (size 9 to 14) (size 15 to 20)
#    0.000    0.429    7.143    1.714    4.000    0.000 
#    0.000    4.286    0.000    2.571    0.000    0.000 
#    0.000    0.000    0.000    0.000    0.000    0.000 
#
# Total GULP energy -156082.810652 kJ/mol
# GULP energy per Si atom -5574.386095 kJ/mol
# Density = 1.959673 g / cm^3
# Si number density = 19.641434 Si / 1000 Ang^3
#
#
#
# Elastic Constant Matrix: (Units=GPa)
#
#
# Indices 1 2 3 4 5 6 
#
# 1 69.2531 22.8331 20.1187 0.0000 0.0000 0.0000
# 2 22.8331 101.9674 16.0592 0.0000 0.0000 0.0000
# 3 20.1187 16.0592 86.3754 0.0000 0.0000 0.0000
# 4 0.0000 0.0000 0.0000 2.3899 0.0000 0.0000
# 5 0.0000 0.0000 0.0000 0.0000 27.7107 0.0000
# 6 0.0000 0.0000 0.0000 0.0000 0.0000 2.9901
#
#
#
# Elastic Compliance Matrix: (Units=1/GPa)
#
#
# Indices 1 2 3 4 5 6 
#
# 1 0.016425 -0.003168 -0.003237 0.000000 0.000000 0.000000
# 2 -0.003168 0.010714 -0.001254 0.000000 0.000000 0.000000
# 3 -0.003237 -0.001254 0.012564 0.000000 0.000000 0.000000
# 4 0.000000 0.000000 0.000000 0.418427 0.000000 0.000000
# 5 0.000000 0.000000 0.000000 0.000000 0.036087 0.000000
# 6 0.000000 0.000000 0.000000 0.000000 0.000000 0.334437
#
#
# Mechanical properties :
#
#
# Convention : Reuss Voigt Hill
#
# Bulk Modulus (GPa) = 41.00817 41.73532 41.37174
# Shear Modulus (GPa) = 5.86785 19.85715 12.86250
#
# Velocity S-wave (km/s) = 1.73031 3.18304 2.56181
# Velocity P-wave (km/s) = 4.99156 5.89947 5.46441
#
# Compressibility (1/GPa) = 0.02438539
#
# Stress axis : x y z
#
# Youngs Moduli (GPa) = 60.88429 93.33595 79.58999
#
# Poissons Ratio (x) = 0.29570 0.25760
# Poissons Ratio (y) = 0.19289 0.09981
# Poissons Ratio (z) = 0.19706 0.11705
#
# Static dielectric constant tensor:
#      x y z
#    x 1.812640 0.000000 0.000000 
#    y 0.000000 1.702930 0.000000 
#    z 0.000000 0.000000 1.751540 
# 
# From -- ./inp_files/24264.got.cif
#   From: 2010.05.17/outbox.cif.g08.bks.cpg/sg21_13_cif.got.tgz:24264.got - 2010.06.03 23:14:55.
