data_PCOD9325941
_publ_section_title
;
Structure prediction by ZEFSAII (Michael W. Deem and Ramdas Pophale) SiO2 
 PCOD9325941
Probable space group: F 2 2 2
;
_chemical_formula_sum "Si O2"
_cell_formula_units_Z 88
_cell_length_a 8.120814
_cell_length_b 24.481060
_cell_length_c 24.175465
_cell_angle_alpha 90.000000
_cell_angle_beta 90.000000
_cell_angle_gamma 90.000000
_cell_volume 4806.230753
_symmetry_space_group_name_H-M "F 2 2 2"
_symmetry_group_IT_number 22
_symmetry_cell_setting 'orthorhombic'
loop_
_space_group_symop_operation_xyz
x,y,z
-x,-y,z
x,-y,-z
-x,y,-z
x,1/2+y,1/2+z
-x,1/2-y,1/2+z
x,1/2-y,1/2-z
-x,1/2+y,1/2-z
1/2+x,y,1/2+z
1/2-x,-y,1/2+z
1/2+x,-y,1/2-z
1/2-x,y,1/2-z
1/2+x,1/2+y,z
1/2-x,1/2-y,z
1/2+x,1/2-y,-z
1/2-x,1/2+y,-z
loop_
_atom_site_type_symbol
_atom_site_label
_atom_site_fract_x
_atom_site_fract_y
_atom_site_fract_z
Si Si1 0.444109 0.762239 0.561863
Si Si2 0.985167 0.821294 0.649887
Si Si3 0.573918 0.941931 0.824140
Si Si4 0.455756 0.750000 0.250000
Si Si5 0.625692 0.830187 0.336686
Si Si6 0.463826 0.439935 0.803550
O O1 0.500000 0.772642 0.500000
O O2 0.250000 0.750000 0.559024
O O3 0.536819 0.712454 0.593301
O O4 0.454931 0.811106 0.605761
O O5 0.887117 0.791816 0.701205
O O6 0.180436 0.817599 0.663430
O O7 0.961364 0.885882 0.643871
O O8 0.500268 0.937495 0.762162
O O9 0.769496 0.936761 0.814510
O O10 0.500000 0.000000 0.845783
O O11 0.551103 0.793103 0.288133
O O12 0.574941 0.892448 0.328270
O O13 0.500000 0.500000 0.824925
#
# Coordination Sequence:
#
# PCOD9325941 Si02
#       6
#    16  16  16   8  16  16
#     4   9  20  35  53  76 101 134 173 207 251 300
#     4  10  18  31  52  75 100 134 169 205 248 301
#     4  10  20  32  47  72 104 138 170 203 247 299
#     4  10  17  28  49  74 101 130 163 200 247 298
#     4  10  18  31  52  75 100 134 169 205 248 301
#     4  10  20  32  47  72 104 138 170 203 247 299
#
# _framework density 18.309566
#
# number of rings (size 3 to 8) (size 9 to 14) (size 15 to 20)
#    0.000    2.182    1.818    3.818    0.000    2.909 
#    0.000    3.636    0.000    1.091    0.000    7.636 
#    0.000    0.000    0.000    0.000    0.000    0.000 
#
# Total GULP energy -122507.325315 kJ/mol
# GULP energy per Si atom -5568.514787 kJ/mol
# Density = 1.826789 g / cm^3
# Si number density = 18.309566 Si / 1000 Ang^3
#
#
#
# Elastic Constant Matrix: (Units=GPa)
#
#
# Indices 1 2 3 4 5 6 
#
# 1 19.2499 8.4878 11.3343 0.0000 0.0000 0.0000
# 2 8.4878 121.8666 32.1705 0.0000 0.0000 0.0000
# 3 11.3343 32.1705 106.1094 0.0000 0.0000 0.0000
# 4 0.0000 0.0000 0.0000 11.8248 0.0000 0.0000
# 5 0.0000 0.0000 0.0000 0.0000 16.2202 0.0000
# 6 0.0000 0.0000 0.0000 0.0000 0.0000 28.1029
#
#
#
# Elastic Compliance Matrix: (Units=1/GPa)
#
#
# Indices 1 2 3 4 5 6 
#
# 1 0.056143 -0.002530 -0.005230 0.000000 0.000000 0.000000
# 2 -0.002530 0.009034 -0.002469 0.000000 0.000000 0.000000
# 3 -0.005230 -0.002469 0.010731 0.000000 0.000000 0.000000
# 4 0.000000 0.000000 0.000000 0.084568 0.000000 0.000000
# 5 0.000000 0.000000 0.000000 0.000000 0.061652 0.000000
# 6 0.000000 0.000000 0.000000 0.000000 0.000000 0.035583
#
#
# Mechanical properties :
#
#
# Convention : Reuss Voigt Hill
#
# Bulk Modulus (GPa) = 18.03381 39.02345 28.52863
# Shear Modulus (GPa) = 16.85476 24.24513 20.54994
#
# Velocity S-wave (km/s) = 3.03734 3.64287 3.35380
# Velocity P-wave (km/s) = 4.70865 6.24928 5.53285
#
# Compressibility (1/GPa) = 0.05545141
#
# Stress axis : x y z
#
# Youngs Moduli (GPa) = 17.81159 110.69851 93.18505
#
# Poissons Ratio (x) = 0.28003 0.48737
# Poissons Ratio (y) = 0.04506 0.23004
# Poissons Ratio (z) = 0.09316 0.27327
#
# Static dielectric constant tensor:
#      x y z
#    x 1.800660 0.000000 0.000000 
#    y 0.000000 1.675910 0.000000 
#    z 0.000000 0.000000 1.616120 
# 
# From -- ./inp_files/12654.got.cif
#   From: 2010.05.17/outbox.cif.g08.bks.cpg/sg22_7_cif.got.tgz:12654.got - 2010.06.03 23:40:54.
