data_PCOD9325738
_publ_section_title
;
Structure prediction by ZEFSAII (Michael W. Deem and Ramdas Pophale) SiO2 
 PCOD9325738
Probable space group: C 2 2 2
;
_chemical_formula_sum "Si O2"
_cell_formula_units_Z 28
_cell_length_a 17.971559
_cell_length_b 8.144909
_cell_length_c 7.047988
_cell_angle_alpha 90.000000
_cell_angle_beta 90.000000
_cell_angle_gamma 90.000000
_cell_volume 1031.661314
_symmetry_space_group_name_H-M "C 2 2 2"
_symmetry_group_IT_number 21
_symmetry_cell_setting 'orthorhombic'
loop_
_space_group_symop_operation_xyz
x,y,z
-x,-y,z
x,-y,-z
-x,y,-z
1/2+x,1/2+y,z
1/2-x,1/2-y,z
1/2+x,1/2-y,-z
1/2-x,1/2+y,-z
loop_
_atom_site_type_symbol
_atom_site_label
_atom_site_fract_x
_atom_site_fract_y
_atom_site_fract_z
Si Si1 0.409054 0.661705 0.241882
Si Si2 0.750000 0.750000 0.730866
Si Si3 0.924904 0.781574 0.212114
Si Si4 0.709433 0.076234 0.708628
O O1 0.335804 0.732188 0.341913
O O2 0.406661 0.466668 0.280810
O O3 0.490194 0.735568 0.281476
O O4 0.409306 0.696297 0.014247
O O5 0.760914 0.575781 0.832001
O O6 0.875785 0.626230 0.268278
O O7 0.750000 0.250000 0.734399
O O8 0.727281 0.000000 0.500000
#
# Coordination Sequence:
#
# PCOD9325738 Si02
#       4
#     8   4   8   8
#     4   9  20  39  68 105 137 174 220 290 357 413
#     4  12  24  38  68 102 132 174 234 284 346 402
#     4   9  20  41  67  99 143 177 222 285 354 412
#     4  12  25  44  68  95 139 186 236 285 330 410
#
# _framework density 27.140689999999999
#
# number of rings (size 3 to 8) (size 9 to 14) (size 15 to 20)
#    0.000    1.714    4.286    1.714    2.000    2.286 
#    0.000    5.714    0.000    5.143    0.000    0.000 
#    0.000    0.000    0.000    0.000    0.000    0.000 
#
# Total GULP energy -78095.733908 kJ/mol
# GULP energy per Si atom -5578.266708 kJ/mol
# Density = 2.707892 g / cm^3
# Si number density = 27.140690 Si / 1000 Ang^3
#
#
#
# Elastic Constant Matrix: (Units=GPa)
#
#
# Indices 1 2 3 4 5 6 
#
# 1 229.7830 92.6667 0.9127 0.0000 0.0000 0.0000
# 2 92.6667 211.1339 25.5561 0.0000 0.0000 0.0000
# 3 0.9127 25.5561 103.1329 0.0000 0.0000 0.0000
# 4 0.0000 0.0000 0.0000 35.9090 0.0000 0.0000
# 5 0.0000 0.0000 0.0000 0.0000 18.6526 0.0000
# 6 0.0000 0.0000 0.0000 0.0000 0.0000 65.5635
#
#
#
# Elastic Compliance Matrix: (Units=1/GPa)
#
#
# Indices 1 2 3 4 5 6 
#
# 1 0.005318 -0.002400 0.000548 0.000000 0.000000 0.000000
# 2 -0.002400 0.005966 -0.001457 0.000000 0.000000 0.000000
# 3 0.000548 -0.001457 0.010052 0.000000 0.000000 0.000000
# 4 0.000000 0.000000 0.000000 0.027848 0.000000 0.000000
# 5 0.000000 0.000000 0.000000 0.000000 0.053612 0.000000
# 6 0.000000 0.000000 0.000000 0.000000 0.000000 0.015252
#
#
# Mechanical properties :
#
#
# Convention : Reuss Voigt Hill
#
# Bulk Modulus (GPa) = 67.94873 86.92452 77.43663
# Shear Modulus (GPa) = 38.58807 52.35264 45.47036
#
# Velocity S-wave (km/s) = 3.77474 4.39673 4.09755
# Velocity P-wave (km/s) = 6.63990 7.60736 7.14003
#
# Compressibility (1/GPa) = 0.01471698
#
# Stress axis : x y z
#
# Youngs Moduli (GPa) = 188.05032 167.61149 99.47811
#
# Poissons Ratio (x) = 0.40231 -0.05449
# Poissons Ratio (y) = 0.45137 0.14496
# Poissons Ratio (z) = -0.10300 0.24424
#
# Static dielectric constant tensor:
#      x y z
#    x 2.139460 0.000000 0.000000 
#    y 0.000000 2.148020 0.000000 
#    z 0.000000 0.000000 2.309730 
# 
# From -- ./inp_files/15865.got.cif
#   From: 2010.05.17/outbox.cif.g08.bks.cpg/sg21_8_cif.got.tgz:15865.got - 2010.06.03 23:14:55.
