data_PCOD9325628
_publ_section_title
;
Structure prediction by ZEFSAII (Michael W. Deem and Ramdas Pophale) SiO2 
 PCOD9325628
Probable space group: C 2 2 2
;
_chemical_formula_sum "Si O2"
_cell_formula_units_Z 28
_cell_length_a 14.030771
_cell_length_b 14.210750
_cell_length_c 5.723416
_cell_angle_alpha 90.000000
_cell_angle_beta 90.000000
_cell_angle_gamma 90.000000
_cell_volume 1141.179204
_symmetry_space_group_name_H-M "C 2 2 2"
_symmetry_group_IT_number 21
_symmetry_cell_setting 'orthorhombic'
loop_
_space_group_symop_operation_xyz
x,y,z
-x,-y,z
x,-y,-z
-x,y,-z
1/2+x,1/2+y,z
1/2-x,1/2-y,z
1/2+x,1/2-y,-z
1/2-x,1/2+y,-z
loop_
_atom_site_type_symbol
_atom_site_label
_atom_site_fract_x
_atom_site_fract_y
_atom_site_fract_z
Si Si1 0.415478 0.340489 0.835105
Si Si2 0.245814 0.346862 0.209392
Si Si3 0.846837 0.000000 0.500000
Si Si4 0.978847 0.640795 0.245284
O O1 0.401367 0.416241 0.631877
O O2 0.459171 0.239388 0.756486
O O3 0.500000 0.378426 0.000000
O O4 0.316725 0.332035 0.985174
O O5 0.250000 0.250000 0.360547
O O6 0.282767 0.442872 0.318272
O O7 0.133211 0.350606 0.202583
O O8 0.000000 0.600460 0.500000
O O9 0.000000 0.593185 0.000000
#
# Coordination Sequence:
#
# PCOD9325628 Si02
#       4
#     8   8   4   8
#     4  11  26  49  75 121 163 213 274 341 418 496
#     4  12  25  50  79 116 163 219 267 345 413 498
#     4  12  30  47  81 120 166 208 283 346 423 488
#     4  11  25  49  82 118 157 218 277 332 410 495
#
# _framework density 24.536024999999999
#
# number of rings (size 3 to 8) (size 9 to 14) (size 15 to 20)
#    0.000    0.571    5.714    2.571    4.000    4.571 
#    0.000    0.714    0.000    0.000    0.000    0.000 
#    0.000    0.000    0.000    0.000    0.000    0.000 
#
# Total GULP energy -78029.405144 kJ/mol
# GULP energy per Si atom -5573.528939 kJ/mol
# Density = 2.448018 g / cm^3
# Si number density = 24.536025 Si / 1000 Ang^3
#
#
#
# Elastic Constant Matrix: (Units=GPa)
#
#
# Indices 1 2 3 4 5 6 
#
# 1 209.7936 65.1120 72.5047 0.0000 0.0000 0.0000
# 2 65.1120 199.9719 59.8242 0.0000 0.0000 0.0000
# 3 72.5047 59.8242 157.0100 0.0000 0.0000 0.0000
# 4 0.0000 0.0000 0.0000 -341.2755 0.0000 0.0000
# 5 0.0000 0.0000 0.0000 0.0000 16.5284 0.0000
# 6 0.0000 0.0000 0.0000 0.0000 0.0000 -11.8233
#
#
#
# Elastic Compliance Matrix: (Units=1/GPa)
#
#
# Indices 1 2 3 4 5 6 
#
# 1 0.005939 -0.001257 -0.002264 0.000000 0.000000 0.000000
# 2 -0.001257 0.005910 -0.001672 0.000000 0.000000 0.000000
# 3 -0.002264 -0.001672 0.008051 0.000000 0.000000 0.000000
# 4 0.000000 0.000000 0.000000 -0.002930 0.000000 0.000000
# 5 0.000000 0.000000 0.000000 0.000000 0.060502 0.000000
# 6 0.000000 0.000000 0.000000 0.000000 0.000000 -0.084579
#
#
# Mechanical properties :
#
#
# Convention : Reuss Voigt Hill
#
# Bulk Modulus (GPa) = 105.08104 106.85082 105.96593
# Shear Modulus (GPa) = 775.34741 -42.69177 366.32782
#
# Velocity S-wave (km/s) = 17.79578 -4.17581 12.23218
# Velocity P-wave (km/s) = 21.56787 4.51588 15.58150
#
# Compressibility (1/GPa) = 0.00951646
#
# Stress axis : x y z
#
# Youngs Moduli (GPa) = 168.38101 169.20759 124.20391
#
# Poissons Ratio (x) = 0.21261 0.28116
# Poissons Ratio (y) = 0.21157 0.20761
# Poissons Ratio (z) = 0.38117 0.28284
#
# Static dielectric constant tensor:
#      x y z
#    x 2.182310 0.000000 0.000000 
#    y 0.000000 1.949670 0.000000 
#    z 0.000000 0.000000 2.099040 
# 
# From -- ./inp_files/3325.got.cif
#   From: 2010.05.17/outbox.cif.g08.bks.cpg/sg21_2_cif.got.tgz:3325.got - 2010.06.03 23:14:55.
