data_PCOD9325381
_publ_section_title
;
Structure prediction by ZEFSAII (Michael W. Deem and Ramdas Pophale) SiO2 
 PCOD9325381
Probable space group: C 2 2 2
;
_chemical_formula_sum "Si O2"
_cell_formula_units_Z 40
_cell_length_a 7.898331
_cell_length_b 18.126911
_cell_length_c 12.596606
_cell_angle_alpha 90.000000
_cell_angle_beta 90.000000
_cell_angle_gamma 90.000000
_cell_volume 1803.485596
_symmetry_space_group_name_H-M "C 2 2 2"
_symmetry_group_IT_number 21
_symmetry_cell_setting 'orthorhombic'
loop_
_space_group_symop_operation_xyz
x,y,z
-x,-y,z
x,-y,-z
-x,y,-z
1/2+x,1/2+y,z
1/2-x,1/2-y,z
1/2+x,1/2-y,-z
1/2-x,1/2+y,-z
loop_
_atom_site_type_symbol
_atom_site_label
_atom_site_fract_x
_atom_site_fract_y
_atom_site_fract_z
Si Si1 0.676052 0.095341 0.936774
Si Si2 0.714630 0.164667 0.309285
Si Si3 0.829955 0.046420 0.140487
Si Si4 0.705853 0.916589 0.481922
Si Si5 0.312940 0.831439 0.721551
O O1 0.721401 0.152214 0.844690
O O2 0.685724 0.016691 0.874861
O O3 0.500000 0.108405 0.000000
O O4 0.814651 0.089175 0.029069
O O5 0.750000 0.250000 0.287971
O O6 0.799253 0.105420 0.231466
O O7 0.765157 0.140353 0.427970
O O8 0.513766 0.158944 0.291889
O O9 0.000000 0.000000 0.154479
O O10 0.500000 0.917822 0.500000
O O11 0.757073 0.888531 0.365595
O O12 0.764947 0.000000 0.500000
O O13 0.250000 0.750000 0.693970
#
# Coordination Sequence:
#
# PCOD9325381 Si02
#       5
#     8   8   8   8   8
#     4  11  22  42  67  94 129 176 238 294 340 409
#     4  11  24  42  66 100 145 179 224 288 357 426
#     4  11  24  42  68  97 133 182 231 288 347 413
#     4   9  19  40  70 100 128 175 230 281 345 423
#     4  11  24  41  68  99 136 183 227 285 357 427
#
# _framework density 22.179273999999999
#
# number of rings (size 3 to 8) (size 9 to 14) (size 15 to 20)
#    0.000    1.400    2.000    4.200    2.800    2.400 
#    0.000    0.000    0.000    0.000    0.000    0.000 
#    0.000    0.000    0.000    0.000    0.000    0.000 
#
# Total GULP energy -111720.606264 kJ/mol
# GULP energy per Si atom -5586.030313 kJ/mol
# Density = 2.212879 g / cm^3
# Si number density = 22.179274 Si / 1000 Ang^3
#
#
#
# Elastic Constant Matrix: (Units=GPa)
#
#
# Indices 1 2 3 4 5 6 
#
# 1 79.1040 30.2452 31.3981 0.0000 0.0000 0.0000
# 2 30.2452 124.1726 70.6332 0.0000 0.0000 0.0000
# 3 31.3981 70.6332 132.7235 0.0000 0.0000 0.0000
# 4 0.0000 0.0000 0.0000 77.0071 0.0000 0.0000
# 5 0.0000 0.0000 0.0000 0.0000 73.3340 0.0000
# 6 0.0000 0.0000 0.0000 0.0000 0.0000 25.7192
#
#
#
# Elastic Compliance Matrix: (Units=1/GPa)
#
#
# Indices 1 2 3 4 5 6 
#
# 1 0.014376 -0.002247 -0.002205 0.000000 0.000000 0.000000
# 2 -0.002247 0.011901 -0.005802 0.000000 0.000000 0.000000
# 3 -0.002205 -0.005802 0.011144 0.000000 0.000000 0.000000
# 4 0.000000 0.000000 0.000000 0.012986 0.000000 0.000000
# 5 0.000000 0.000000 0.000000 0.000000 0.013636 0.000000
# 6 0.000000 0.000000 0.000000 0.000000 0.000000 0.038881
#
#
# Mechanical properties :
#
#
# Convention : Reuss Voigt Hill
#
# Bulk Modulus (GPa) = 59.12798 66.72812 62.92805
# Shear Modulus (GPa) = 38.73867 48.79364 43.76616
#
# Velocity S-wave (km/s) = 4.18379 4.69547 4.44699
# Velocity P-wave (km/s) = 7.07501 7.71671 7.40282
#
# Compressibility (1/GPa) = 0.01691247
#
# Stress axis : x y z
#
# Youngs Moduli (GPa) = 69.56014 84.02665 89.73688
#
# Poissons Ratio (x) = 0.18885 0.19786
# Poissons Ratio (y) = 0.15633 0.52064
# Poissons Ratio (z) = 0.15337 0.48751
#
# Static dielectric constant tensor:
#      x y z
#    x 1.863160 0.000000 0.000000 
#    y 0.000000 1.754250 0.000000 
#    z 0.000000 0.000000 1.842850 
# 
# From -- ./inp_files/22271.got.cif
#   From: 2010.05.17/outbox.cif.g08.bks.cpg/sg21_12_cif.got.tgz:22271.got - 2010.06.03 23:14:55.
