data_PCOD9325255
_publ_section_title
;
Structure prediction by ZEFSAII (Michael W. Deem and Ramdas Pophale) SiO2 
 PCOD9325255
Probable space group: C 2 2 2
;
_chemical_formula_sum "Si O2"
_cell_formula_units_Z 64
_cell_length_a 22.495586
_cell_length_b 17.506886
_cell_length_c 9.565510
_cell_angle_alpha 90.000000
_cell_angle_beta 90.000000
_cell_angle_gamma 90.000000
_cell_volume 3767.162416
_symmetry_space_group_name_H-M "C 2 2 2"
_symmetry_group_IT_number 21
_symmetry_cell_setting 'orthorhombic'
loop_
_space_group_symop_operation_xyz
x,y,z
-x,-y,z
x,-y,-z
-x,y,-z
1/2+x,1/2+y,z
1/2-x,1/2-y,z
1/2+x,1/2-y,-z
1/2-x,1/2+y,-z
loop_
_atom_site_type_symbol
_atom_site_label
_atom_site_fract_x
_atom_site_fract_y
_atom_site_fract_z
Si Si1 0.689640 0.198754 0.398619
Si Si2 0.582656 0.569491 0.718507
Si Si3 0.873090 0.165731 0.541840
Si Si4 0.685426 0.791075 0.920593
Si Si5 0.447782 0.397014 0.231245
Si Si6 0.862861 0.131937 0.014585
Si Si7 0.264764 0.075331 0.091683
Si Si8 0.248293 0.077223 0.415164
O O1 0.750000 0.250000 0.393351
O O2 0.641581 0.253351 0.471766
O O3 0.674096 0.180838 0.237680
O O4 0.705244 0.126062 0.492874
O O5 0.601400 0.609814 0.576718
O O6 0.518547 0.601777 0.765472
O O7 0.574304 0.478871 0.708658
O O8 0.630664 0.590671 0.836344
O O9 0.919039 0.166454 0.669036
O O10 0.811271 0.128597 0.593734
O O11 0.750000 0.750000 0.917640
O O12 0.641460 0.722647 0.961481
O O13 0.692152 0.858558 0.032109
O O14 0.418966 0.389811 0.079524
O O15 0.802758 0.103400 0.940457
O O16 0.269711 0.062426 0.257326
O O17 0.274541 0.000000 0.000000
O O18 0.234837 0.000000 0.500000
#
# Coordination Sequence:
#
# PCOD9325255 Si02
#       8
#     8   8   8   8   8   8   8   8
#     4   9  19  34  51  72 101 134 170 209 253 306
#     4  11  22  36  49  72 103 141 178 219 256 286
#     4  11  21  34  53  72 102 142 176 210 257 299
#     4   9  19  34  51  72 101 134 170 209 253 306
#     4  11  22  34  51  74 103 135 182 223 246 294
#     4  11  21  34  53  72 102 142 176 210 257 299
#     4  11  22  33  53  78 105 134 170 209 254 312
#     4  11  22  33  53  78 105 134 170 209 254 312
#
# _framework density 16.988914999999999
#
# number of rings (size 3 to 8) (size 9 to 14) (size 15 to 20)
#    0.000    1.500    2.500    3.750    5.250    3.500 
#    0.000    0.000    0.000    0.000    0.000    0.000 
#    0.000    6.000    0.000    0.000    0.000    0.000 
#
# Total GULP energy -178684.210307 kJ/mol
# GULP energy per Si atom -5583.881572 kJ/mol
# Density = 1.695025 g / cm^3
# Si number density = 16.988915 Si / 1000 Ang^3
#
#
#
# Elastic Constant Matrix: (Units=GPa)
#
#
# Indices 1 2 3 4 5 6 
#
# 1 24.8002 8.9118 -12.8545 0.0000 0.0000 0.0000
# 2 8.9118 31.7911 3.6747 0.0000 0.0000 0.0000
# 3 -12.8545 3.6747 54.7965 0.0000 0.0000 0.0000
# 4 0.0000 0.0000 0.0000 24.5820 0.0000 0.0000
# 5 0.0000 0.0000 0.0000 0.0000 14.8086 0.0000
# 6 0.0000 0.0000 0.0000 0.0000 0.0000 17.5646
#
#
#
# Elastic Compliance Matrix: (Units=1/GPa)
#
#
# Indices 1 2 3 4 5 6 
#
# 1 0.053315 -0.016519 0.013615 0.000000 0.000000 0.000000
# 2 -0.016519 0.036820 -0.006344 0.000000 0.000000 0.000000
# 3 0.013615 -0.006344 0.021869 0.000000 0.000000 0.000000
# 4 0.000000 0.000000 0.000000 0.040680 0.000000 0.000000
# 5 0.000000 0.000000 0.000000 0.000000 0.067528 0.000000
# 6 0.000000 0.000000 0.000000 0.000000 0.000000 0.056933
#
#
# Mechanical properties :
#
#
# Convention : Reuss Voigt Hill
#
# Bulk Modulus (GPa) = 10.69453 12.31688 11.50571
# Shear Modulus (GPa) = 15.29936 18.83476 17.06706
#
# Velocity S-wave (km/s) = 3.00417 3.33325 3.17298
# Velocity P-wave (km/s) = 4.28276 4.69891 4.49566
#
# Compressibility (1/GPa) = 0.09350573
#
# Stress axis : x y z
#
# Youngs Moduli (GPa) = 18.75632 27.15952 45.72750
#
# Poissons Ratio (x) = 0.44866 -0.62258
# Poissons Ratio (y) = 0.30984 0.29011
# Poissons Ratio (z) = -0.25537 0.17231
#
# Static dielectric constant tensor:
#      x y z
#    x 1.561760 0.000000 0.000000 
#    y 0.000000 1.576970 0.000000 
#    z 0.000000 0.000000 1.586410 
# 
# From -- ./inp_files/16913.got.cif
#   From: 2010.05.17/outbox.cif.g08.bks.cpg/sg21_9_cif.got.tgz:16913.got - 2010.06.03 23:14:55.
