data_PCOD9325028
_publ_section_title
;
Structure prediction by ZEFSAII (Michael W. Deem and Ramdas Pophale) SiO2 
 PCOD9325028
Probable space group: C 2 2 2
;
_chemical_formula_sum "Si O2"
_cell_formula_units_Z 18
_cell_length_a 25.880886
_cell_length_b 5.115142
_cell_length_c 5.874170
_cell_angle_alpha 90.000000
_cell_angle_beta 90.000000
_cell_angle_gamma 90.000000
_cell_volume 777.648512
_symmetry_space_group_name_H-M "C 2 2 2"
_symmetry_group_IT_number 21
_symmetry_cell_setting 'orthorhombic'
loop_
_space_group_symop_operation_xyz
x,y,z
-x,-y,z
x,-y,-z
-x,y,-z
1/2+x,1/2+y,z
1/2-x,1/2-y,z
1/2+x,1/2-y,-z
1/2-x,1/2+y,-z
loop_
_atom_site_type_symbol
_atom_site_label
_atom_site_fract_x
_atom_site_fract_y
_atom_site_fract_z
Si Si1 0.750000 0.750000 0.158218
Si Si2 0.500000 0.000000 0.000000
Si Si3 0.400278 0.760924 0.146875
Si Si4 0.167671 0.000000 0.500000
O O1 0.795882 0.850923 0.321054
O O2 0.762254 0.500000 0.000000
O O3 0.538892 0.167460 0.156726
O O4 0.369507 0.705601 0.374430
O O5 0.395684 0.500000 0.000000
O O6 0.378389 0.000000 0.000000
#
# Coordination Sequence:
#
# PCOD9325028 Si02
#       4
#     4   2   8   4
#     4  12  30  52  78 112 168 200 262 336 378 468
#     4   8  22  52  76 116 168 192 250 338 378 442
#     4  10  24  46  80 111 161 202 252 323 379 463
#     4  12  28  50  83 118 152 217 262 304 414 458
#
# _framework density 23.146702000000001
#
# number of rings (size 3 to 8) (size 9 to 14) (size 15 to 20)
#    1.333    0.000    0.000    3.333    0.000   19.556 
#    0.000    6.667    9.778    0.000    0.000    0.000 
#    0.000    0.000    0.000    0.000    0.000    0.000 
#
# Total GULP energy -50349.316702 kJ/mol
# GULP energy per Si atom -5594.368522 kJ/mol
# Density = 2.309402 g / cm^3
# Si number density = 23.146702 Si / 1000 Ang^3
#
#
#
# Elastic Constant Matrix: (Units=GPa)
#
#
# Indices 1 2 3 4 5 6 
#
# 1 206.2815 74.4483 108.5094 0.0000 0.0000 0.0000
# 2 74.4483 201.8316 88.8992 0.0000 0.0000 0.0000
# 3 108.5094 88.8992 141.4910 0.0000 0.0000 0.0000
# 4 0.0000 0.0000 0.0000 53.0327 0.0000 0.0000
# 5 0.0000 0.0000 0.0000 0.0000 13.1532 0.0000
# 6 0.0000 0.0000 0.0000 0.0000 0.0000 -90.1490
#
#
#
# Elastic Compliance Matrix: (Units=1/GPa)
#
#
# Indices 1 2 3 4 5 6 
#
# 1 0.008144 -0.000350 -0.006025 0.000000 0.000000 0.000000
# 2 -0.000350 0.006865 -0.004045 0.000000 0.000000 0.000000
# 3 -0.006025 -0.004045 0.014230 0.000000 0.000000 0.000000
# 4 0.000000 0.000000 0.000000 0.018856 0.000000 0.000000
# 5 0.000000 0.000000 0.000000 0.000000 0.076027 0.000000
# 6 0.000000 0.000000 0.000000 0.000000 0.000000 -0.011093
#
#
# Mechanical properties :
#
#
# Convention : Reuss Voigt Hill
#
# Bulk Modulus (GPa) = 119.07635 121.47975 120.27805
# Shear Modulus (GPa) = 36.58432 13.72386 25.15409
#
# Velocity S-wave (km/s) = 3.97992 2.43761 3.30013
# Velocity P-wave (km/s) = 8.52499 7.77940 8.16072
#
# Compressibility (1/GPa) = 0.00839797
#
# Stress axis : x y z
#
# Youngs Moduli (GPa) = 122.79631 145.65638 70.27319
#
# Poissons Ratio (x) = 0.05096 0.42343
# Poissons Ratio (y) = 0.04296 0.28427
# Poissons Ratio (z) = 0.73991 0.58922
#
# Static dielectric constant tensor:
#      x y z
#    x 1.894670 0.000000 0.000000 
#    y 0.000000 1.835940 0.000000 
#    z 0.000000 0.000000 1.850060 
# 
# From -- ./inp_files/6272.got.cif
#   From: 2010.05.17/outbox.cif.g08.bks.cpg/sg21_4_cif.got.tgz:6272.got - 2010.06.03 23:14:55.
