data_PCOD9325703
_publ_section_title
;
Structure prediction by ZEFSAII (Michael W. Deem and Ramdas Pophale) SiO2 
 PCOD9325703
Probable space group: C 2 2 2
;
_chemical_formula_sum "Si O2"
_cell_formula_units_Z 22
_cell_length_a 15.005412
_cell_length_b 4.898994
_cell_length_c 12.479332
_cell_angle_alpha 90.000000
_cell_angle_beta 90.000000
_cell_angle_gamma 90.000000
_cell_volume 917.373458
_symmetry_space_group_name_H-M "C 2 2 2"
_symmetry_group_IT_number 21
_symmetry_cell_setting 'orthorhombic'
loop_
_space_group_symop_operation_xyz
x,y,z
-x,-y,z
x,-y,-z
-x,y,-z
1/2+x,1/2+y,z
1/2-x,1/2-y,z
1/2+x,1/2-y,-z
1/2-x,1/2+y,-z
loop_
_atom_site_type_symbol
_atom_site_label
_atom_site_fract_x
_atom_site_fract_y
_atom_site_fract_z
Si Si1 0.439385 0.235847 0.827367
Si Si2 0.808667 0.000000 0.000000
Si Si3 0.649755 0.156348 0.386658
Si Si4 0.000000 0.000000 0.500000
O O1 0.500000 0.500000 0.796883
O O2 0.368103 0.361065 0.908496
O O3 0.390102 0.076478 0.728739
O O4 0.500000 0.000000 0.877616
O O5 0.750000 0.250000 0.954830
O O6 0.750000 0.250000 0.363026
O O7 0.568752 0.346766 0.424149
O O8 0.661931 0.000000 0.500000
#
# Coordination Sequence:
#
# PCOD9325703 Si02
#       4
#     8   4   8   2
#     4  12  27  50  82 115 161 217 273 341 415 494
#     4  12  27  52  81 118 164 210 284 345 412 501
#     4  12  26  46  77 113 158 211 266 332 410 489
#     4  12  22  48  68 106 152 200 262 312 402 472
#
# _framework density 23.981508999999999
#
# number of rings (size 3 to 8) (size 9 to 14) (size 15 to 20)
#    0.000    0.000    3.636    6.545    0.000    1.455 
#    0.000    0.000    0.000    0.000    0.000    0.000 
#    0.000    0.000    0.000    0.000    0.000    0.000 
#
# Total GULP energy -61320.534797 kJ/mol
# GULP energy per Si atom -5574.594072 kJ/mol
# Density = 2.392693 g / cm^3
# Si number density = 23.981509 Si / 1000 Ang^3
#
#
#
# Elastic Constant Matrix: (Units=GPa)
#
#
# Indices 1 2 3 4 5 6 
#
# 1 173.5949 53.9996 44.6304 0.0000 0.0000 0.0000
# 2 53.9996 103.9366 29.2164 0.0000 0.0000 0.0000
# 3 44.6304 29.2164 142.9930 0.0000 0.0000 0.0000
# 4 0.0000 0.0000 0.0000 32.2667 0.0000 0.0000
# 5 0.0000 0.0000 0.0000 0.0000 22.1756 0.0000
# 6 0.0000 0.0000 0.0000 0.0000 0.0000 66.3362
#
#
#
# Elastic Compliance Matrix: (Units=1/GPa)
#
#
# Indices 1 2 3 4 5 6 
#
# 1 0.007189 -0.003293 -0.001571 0.000000 0.000000 0.000000
# 2 -0.003293 0.011716 -0.001366 0.000000 0.000000 0.000000
# 3 -0.001571 -0.001366 0.007763 0.000000 0.000000 0.000000
# 4 0.000000 0.000000 0.000000 0.030992 0.000000 0.000000
# 5 0.000000 0.000000 0.000000 0.000000 0.045095 0.000000
# 6 0.000000 0.000000 0.000000 0.000000 0.000000 0.015075
#
#
# Mechanical properties :
#
#
# Convention : Reuss Voigt Hill
#
# Bulk Modulus (GPa) = 70.38537 75.13525 72.76031
# Shear Modulus (GPa) = 37.03016 43.66757 40.34887
#
# Velocity S-wave (km/s) = 3.93378 4.27181 4.10628
# Velocity P-wave (km/s) = 7.07435 7.46523 7.27242
#
# Compressibility (1/GPa) = 0.01420750
#
# Stress axis : x y z
#
# Youngs Moduli (GPa) = 139.10431 85.35141 128.82057
#
# Poissons Ratio (x) = 0.28109 0.20236
# Poissons Ratio (y) = 0.45812 0.17596
# Poissons Ratio (z) = 0.21851 0.11659
#
# Static dielectric constant tensor:
#      x y z
#    x 1.884130 0.000000 0.000000 
#    y 0.000000 2.164060 0.000000 
#    z 0.000000 0.000000 2.008800 
# 
# From -- ./inp_files/20207.got.cif
#   From: 2010.05.17/outbox.cif.g08.bks.cpg/sg21_11_cif.got.tgz:20207.got - 2010.06.03 23:14:55.
