data_PCOD9325492
_publ_section_title
;
Structure prediction by ZEFSAII (Michael W. Deem and Ramdas Pophale) SiO2 
 PCOD9325492
Probable space group: C 2 2 2
;
_chemical_formula_sum "Si O2"
_cell_formula_units_Z 26
_cell_length_a 18.531925
_cell_length_b 9.880062
_cell_length_c 7.075947
_cell_angle_alpha 90.000000
_cell_angle_beta 90.000000
_cell_angle_gamma 90.000000
_cell_volume 1295.581611
_symmetry_space_group_name_H-M "C 2 2 2"
_symmetry_group_IT_number 21
_symmetry_cell_setting 'orthorhombic'
loop_
_space_group_symop_operation_xyz
x,y,z
-x,-y,z
x,-y,-z
-x,y,-z
1/2+x,1/2+y,z
1/2-x,1/2-y,z
1/2+x,1/2-y,-z
1/2-x,1/2+y,-z
loop_
_atom_site_type_symbol
_atom_site_label
_atom_site_fract_x
_atom_site_fract_y
_atom_site_fract_z
Si Si1 0.500000 0.500000 0.500000
Si Si2 0.087607 0.355464 0.889101
Si Si3 0.439516 0.744600 0.733498
Si Si4 0.315075 0.850629 0.463643
O O1 0.455325 0.601622 0.634470
O O2 0.153483 0.344766 0.747324
O O3 0.015260 0.325152 0.766026
O O4 0.085496 0.500000 0.000000
O O5 0.090157 0.242612 0.053154
O O6 0.382082 0.821847 0.603886
O O7 0.250000 0.750000 0.495788
O O8 0.287536 0.000000 0.500000
#
# Coordination Sequence:
#
# PCOD9325492 Si02
#       4
#     2   8   8   8
#     4  12  24  42  70 108 146 180 224 314 376 428
#     4  11  23  45  77 106 133 183 249 310 356 427
#     4  11  24  43  72 104 138 183 243 305 364 417
#     4  12  27  46  69 102 149 198 239 295 367 445
#
# _framework density 20.068204999999999
#
# number of rings (size 3 to 8) (size 9 to 14) (size 15 to 20)
#    0.000    0.615    6.154    1.846    2.154    4.923 
#    0.000    0.000    0.000    0.000    0.000    0.000 
#    0.000    0.000    0.000    0.000    0.000    0.000 
#
# Total GULP energy -72605.441454 kJ/mol
# GULP energy per Si atom -5585.033958 kJ/mol
# Density = 2.002253 g / cm^3
# Si number density = 20.068205 Si / 1000 Ang^3
#
#
#
# Elastic Constant Matrix: (Units=GPa)
#
#
# Indices 1 2 3 4 5 6 
#
# 1 59.1122 49.0656 60.0269 0.0000 0.0000 0.0000
# 2 49.0656 143.9188 57.2318 0.0000 0.0000 0.0000
# 3 60.0269 57.2318 126.1133 0.0000 0.0000 0.0000
# 4 0.0000 0.0000 0.0000 41.5620 0.0000 0.0000
# 5 0.0000 0.0000 0.0000 0.0000 -0.0818 0.0000
# 6 0.0000 0.0000 0.0000 0.0000 0.0000 45.5465
#
#
#
# Elastic Compliance Matrix: (Units=1/GPa)
#
#
# Indices 1 2 3 4 5 6 
#
# 1 0.037732 -0.006982 -0.014791 0.000000 0.000000 0.000000
# 2 -0.006982 0.009770 -0.001111 0.000000 0.000000 0.000000
# 3 -0.014791 -0.001111 0.015474 0.000000 0.000000 0.000000
# 4 0.000000 0.000000 0.000000 0.024060 0.000000 0.000000
# 5 0.000000 0.000000 0.000000 0.000000-12.222593 0.000000
# 6 0.000000 0.000000 0.000000 0.000000 0.000000 0.021956
#
#
# Mechanical properties :
#
#
# Convention : Reuss Voigt Hill
#
# Bulk Modulus (GPa) = 58.10993 73.53254 65.82123
# Shear Modulus (GPa) = -0.41452 28.25999 13.92273
#
# Velocity S-wave (km/s) = -0.45498 3.75667 2.63681
# Velocity P-wave (km/s) = 5.36126 7.45235 6.49156
#
# Compressibility (1/GPa) = 0.01720876
#
# Stress axis : x y z
#
# Youngs Moduli (GPa) = 26.50242 102.35034 64.62583
#
# Poissons Ratio (x) = 0.71460 0.95590
# Poissons Ratio (y) = 0.18504 0.07178
# Poissons Ratio (z) = 0.39200 0.11368
#
# Static dielectric constant tensor:
#      x y z
#    x 1.683540 0.000000 0.000000 
#    y 0.000000 1.718790 0.000000 
#    z 0.000000 0.000000 1.734430 
# 
# From -- ./inp_files/15860.got.cif
#   From: 2010.05.17/outbox.cif.g08.bks.cpg/sg21_8_cif.got.tgz:15860.got - 2010.06.03 23:14:55.
