data_PCOD9325517
_publ_section_title
;
Structure prediction by ZEFSAII (Michael W. Deem and Ramdas Pophale) SiO2 
 PCOD9325517
Probable space group: C 2 2 2
;
_chemical_formula_sum "Si O2"
_cell_formula_units_Z 30
_cell_length_a 14.970948
_cell_length_b 15.575203
_cell_length_c 5.469036
_cell_angle_alpha 90.000000
_cell_angle_beta 90.000000
_cell_angle_gamma 90.000000
_cell_volume 1275.245500
_symmetry_space_group_name_H-M "C 2 2 2"
_symmetry_group_IT_number 21
_symmetry_cell_setting 'orthorhombic'
loop_
_space_group_symop_operation_xyz
x,y,z
-x,-y,z
x,-y,-z
-x,y,-z
1/2+x,1/2+y,z
1/2-x,1/2-y,z
1/2+x,1/2-y,-z
1/2-x,1/2+y,-z
loop_
_atom_site_type_symbol
_atom_site_label
_atom_site_fract_x
_atom_site_fract_y
_atom_site_fract_z
Si Si1 0.097512 0.820280 0.092894
Si Si2 0.254492 0.589511 0.356982
Si Si3 0.500000 0.000000 0.500000
Si Si4 0.914712 0.638010 0.822582
Si Si5 0.250000 0.750000 0.721329
O O1 0.148934 0.893031 0.239431
O O2 0.083620 0.736080 0.262101
O O3 0.163622 0.778209 0.885877
O O4 0.000000 0.845882 0.000000
O O5 0.250457 0.500000 0.500000
O O6 0.186886 0.608468 0.127240
O O7 0.234151 0.667261 0.546981
O O8 0.563857 0.935284 0.633602
O O9 0.000000 0.631352 0.000000
#
# Coordination Sequence:
#
# PCOD9325517 Si02
#       5
#     8   8   2   8   4
#     4  11  26  48  74 105 150 203 254 310 379 450
#     4  12  26  48  75 112 149 199 253 312 384 458
#     4  12  26  36  68 122 142 186 234 312 400 442
#     4  11  24  41  69 108 154 184 242 307 387 453
#     4  12  24  48  74 104 148 194 252 314 388 434
#
# _framework density 23.524881000000001
#
# number of rings (size 3 to 8) (size 9 to 14) (size 15 to 20)
#    0.000    0.533    6.667    0.400    7.467    4.267 
#    0.000    4.000    0.000    0.000    3.467    0.000 
#    0.000    0.000    0.000    0.000    0.000    0.000 
#
# Total GULP energy -83641.056395 kJ/mol
# GULP energy per Si atom -5576.070426 kJ/mol
# Density = 2.347134 g / cm^3
# Si number density = 23.524881 Si / 1000 Ang^3
#
#
#
# Elastic Constant Matrix: (Units=GPa)
#
#
# Indices 1 2 3 4 5 6 
#
# 1 195.7023 56.6661 49.5835 0.0000 0.0000 0.0000
# 2 56.6661 142.2635 37.6941 0.0000 0.0000 0.0000
# 3 49.5835 37.6941 53.6327 0.0000 0.0000 0.0000
# 4 0.0000 0.0000 0.0000 38.5541 0.0000 0.0000
# 5 0.0000 0.0000 0.0000 0.0000 115.0994 0.0000
# 6 0.0000 0.0000 0.0000 0.0000 0.0000 43.2649
#
#
#
# Elastic Compliance Matrix: (Units=1/GPa)
#
#
# Indices 1 2 3 4 5 6 
#
# 1 0.006861 -0.001293 -0.005434 0.000000 0.000000 0.000000
# 2 -0.001293 0.008881 -0.005047 0.000000 0.000000 0.000000
# 3 -0.005434 -0.005047 0.027216 0.000000 0.000000 0.000000
# 4 0.000000 0.000000 0.000000 0.025938 0.000000 0.000000
# 5 0.000000 0.000000 0.000000 0.000000 0.008688 0.000000
# 6 0.000000 0.000000 0.000000 0.000000 0.000000 0.023113
#
#
# Mechanical properties :
#
#
# Convention : Reuss Voigt Hill
#
# Bulk Modulus (GPa) = 51.51772 75.49845 63.50808
# Shear Modulus (GPa) = 38.25089 55.89400 47.07244
#
# Velocity S-wave (km/s) = 4.03671 4.87966 4.47807
# Velocity P-wave (km/s) = 6.60860 7.99442 7.33432
#
# Compressibility (1/GPa) = 0.01941080
#
# Stress axis : x y z
#
# Youngs Moduli (GPa) = 145.75050 112.59501 36.74279
#
# Poissons Ratio (x) = 0.14559 0.19967
# Poissons Ratio (y) = 0.18846 0.18543
# Poissons Ratio (z) = 0.79205 0.56822
#
# Static dielectric constant tensor:
#      x y z
#    x 2.228120 0.000000 0.000000 
#    y 0.000000 1.717340 0.000000 
#    z 0.000000 0.000000 1.999870 
# 
# From -- ./inp_files/3455.got.cif
#   From: 2010.05.17/outbox.cif.g08.bks.cpg/sg21_2_cif.got.tgz:3455.got - 2010.06.03 23:14:55.
