data_PCOD9325883
_publ_section_title
;
Structure prediction by ZEFSAII (Michael W. Deem and Ramdas Pophale) SiO2 
 PCOD9325883
Probable space group: F 2 2 2
;
_chemical_formula_sum "Si O2"
_cell_formula_units_Z 128
_cell_length_a 17.931150
_cell_length_b 16.833356
_cell_length_c 21.323708
_cell_angle_alpha 90.000000
_cell_angle_beta 90.000000
_cell_angle_gamma 90.000000
_cell_volume 6436.378546
_symmetry_space_group_name_H-M "F 2 2 2"
_symmetry_group_IT_number 22
_symmetry_cell_setting 'orthorhombic'
loop_
_space_group_symop_operation_xyz
x,y,z
-x,-y,z
x,-y,-z
-x,y,-z
x,1/2+y,1/2+z
-x,1/2-y,1/2+z
x,1/2-y,1/2-z
-x,1/2+y,1/2-z
1/2+x,y,1/2+z
1/2-x,-y,1/2+z
1/2+x,-y,1/2-z
1/2-x,y,1/2-z
1/2+x,1/2+y,z
1/2-x,1/2-y,z
1/2+x,1/2-y,-z
1/2-x,1/2+y,-z
loop_
_atom_site_type_symbol
_atom_site_label
_atom_site_fract_x
_atom_site_fract_y
_atom_site_fract_z
Si Si1 0.862937 0.546064 0.062573
Si Si2 0.357901 0.732163 0.095025
Si Si3 0.976506 0.894543 0.334331
Si Si4 0.151582 0.908186 0.349878
Si Si5 0.174962 0.776737 0.540438
Si Si6 0.032391 0.226376 0.118355
Si Si7 0.147116 0.660664 0.278047
Si Si8 0.984240 0.413678 0.699218
O O1 0.929547 0.577654 0.106336
O O2 0.820893 0.481710 0.107656
O O3 0.823584 0.627120 0.039349
O O4 0.887575 0.500000 0.000000
O O5 0.342752 0.822670 0.116808
O O6 0.448034 0.720070 0.091604
O O7 0.326836 0.673709 0.149781
O O8 0.325669 0.730095 0.025755
O O9 0.973901 0.798966 0.332630
O O10 0.947011 0.924349 0.267319
O O11 0.061723 0.919609 0.344433
O O12 0.178612 0.894197 0.278266
O O13 0.250000 0.750000 0.575525
O O14 0.096823 0.751658 0.571195
O O15 0.055402 0.145327 0.152105
O O16 0.148490 0.750000 0.250000
O O17 0.062711 0.629873 0.286389
O O18 0.000000 0.500000 0.671970
#
# Coordination Sequence:
#
# PCOD9325883 Si02
#       8
#    16  16  16  16  16  16  16  16
#     4  11  20  31  50  83 117 147 177 224 281 350
#     4   9  16  32  56  81 108 146 184 229 277 340
#     4   9  17  27  47  85 118 147 167 217 297 356
#     4   9  15  27  47  84 121 137 167 217 283 342
#     4  11  23  38  56  79 111 159 196 228 279 352
#     4   9  19  33  54  79 112 149 192 233 278 343
#     4   8  15  27  50  79 111 144 174 218 281 345
#     4  10  16  27  49  77 112 146 186 234 278 322
#
# _framework density 19.886959999999998
#
# number of rings (size 3 to 8) (size 9 to 14) (size 15 to 20)
#    0.000    2.500    1.250    4.875    0.000    1.000 
#    2.250    0.000    5.500   12.375    3.250    0.000 
#    0.000    0.000    0.000    0.000    0.000    0.000 
#
# Total GULP energy -178186.204009 kJ/mol
# GULP energy per Si atom -5568.318875 kJ/mol
# Density = 1.984170 g / cm^3
# Si number density = 19.886960 Si / 1000 Ang^3
#
#
#
# Elastic Constant Matrix: (Units=GPa)
#
#
# Indices 1 2 3 4 5 6 
#
# 1 62.0925 -0.3545 17.7416 0.0000 0.0000 0.0000
# 2 -0.3545 101.0132 48.2529 0.0000 0.0000 0.0000
# 3 17.7416 48.2529 90.6047 0.0000 0.0000 0.0000
# 4 0.0000 0.0000 0.0000 25.5053 0.0000 0.0000
# 5 0.0000 0.0000 0.0000 0.0000 8.3253 0.0000
# 6 0.0000 0.0000 0.0000 0.0000 0.0000 -2.1674
#
#
#
# Elastic Compliance Matrix: (Units=1/GPa)
#
#
# Indices 1 2 3 4 5 6 
#
# 1 0.017439 0.002270 -0.004624 0.000000 0.000000 0.000000
# 2 0.002270 0.013573 -0.007673 0.000000 0.000000 0.000000
# 3 -0.004624 -0.007673 0.016029 0.000000 0.000000 0.000000
# 4 0.000000 0.000000 0.000000 0.039208 0.000000 0.000000
# 5 0.000000 0.000000 0.000000 0.000000 0.120116 0.000000
# 6 0.000000 0.000000 0.000000 0.000000 0.000000 -0.461373
#
#
# Mechanical properties :
#
#
# Convention : Reuss Voigt Hill
#
# Bulk Modulus (GPa) = 37.05457 42.77672 39.91564
# Shear Modulus (GPa) = -22.12789 18.87065 -1.62862
#
# Velocity S-wave (km/s) = -3.33931 3.08376 -0.90593
# Velocity P-wave (km/s) = 1.95066 5.85116 4.36126
#
# Compressibility (1/GPa) = 0.02698723
#
# Stress axis : x y z
#
# Youngs Moduli (GPa) = 57.34245 73.67600 62.38821
#
# Poissons Ratio (x) = -0.16724 0.28846
# Poissons Ratio (y) = -0.13016 0.47870
# Poissons Ratio (z) = 0.26513 0.56531
#
# Static dielectric constant tensor:
#      x y z
#    x 1.740000 0.000000 0.000000 
#    y 0.000000 1.739830 0.000000 
#    z 0.000000 0.000000 1.766800 
# 
# From -- ./inp_files/44982.got.cif
#   From: 2010.05.17/outbox.cif.g08.bks.cpg/sg22_23_cif.got.tgz:44982.got - 2010.06.03 23:40:54.
