data_PCOD9325446
_publ_section_title
;
Structure prediction by ZEFSAII (Michael W. Deem and Ramdas Pophale) SiO2 
 PCOD9325446
Probable space group: C 2 2 2
;
_chemical_formula_sum "Si O2"
_cell_formula_units_Z 38
_cell_length_a 25.086424
_cell_length_b 14.027412
_cell_length_c 5.815002
_cell_angle_alpha 90.000000
_cell_angle_beta 90.000000
_cell_angle_gamma 90.000000
_cell_volume 2046.285277
_symmetry_space_group_name_H-M "C 2 2 2"
_symmetry_group_IT_number 21
_symmetry_cell_setting 'orthorhombic'
loop_
_space_group_symop_operation_xyz
x,y,z
-x,-y,z
x,-y,-z
-x,y,-z
1/2+x,1/2+y,z
1/2-x,1/2-y,z
1/2+x,1/2-y,-z
1/2-x,1/2+y,-z
loop_
_atom_site_type_symbol
_atom_site_label
_atom_site_fract_x
_atom_site_fract_y
_atom_site_fract_z
Si Si1 0.557466 0.099482 0.891086
Si Si2 0.500000 0.000000 0.500000
Si Si3 0.169161 0.050800 0.249188
Si Si4 0.779938 0.601939 0.441739
Si Si5 0.750000 0.750000 0.810968
Si Si6 0.349526 0.757891 0.847887
O O1 0.539800 0.068816 0.637677
O O2 0.598840 0.183562 0.921701
O O3 0.500000 0.121739 0.000000
O O4 0.578190 0.000000 0.000000
O O5 0.232212 0.077821 0.265340
O O6 0.139101 0.152047 0.240909
O O7 0.158534 0.000000 0.500000
O O8 0.159790 0.000000 0.000000
O O9 0.804934 0.500000 0.500000
O O10 0.752252 0.655377 0.654685
O O11 0.821499 0.676908 0.344708
O O12 0.696038 0.749395 0.958021
#
# Coordination Sequence:
#
# PCOD9325446 Si02
#       6
#     8   2   8   8   4   8
#     4   9  22  41  61  94 123 166 210 266 332 387
#     4   8  18  44  60  90 126 152 218 264 324 400
#     4  11  23  42  60  87 130 173 213 266 317 385
#     4  11  24  35  54  88 130 170 212 256 318 385
#     4  12  22  40  52  94 134 164 216 258 316 410
#     4  12  23  37  62  91 124 172 216 265 323 394
#
# _framework density 18.570235
#
# number of rings (size 3 to 8) (size 9 to 14) (size 15 to 20)
#    0.000    1.474    4.211    2.526    4.421    1.684 
#    0.000    0.000    0.000    0.632    0.000    0.000 
#    0.000    0.000    0.000    0.000    0.000    0.000 
#
# Total GULP energy -105924.646562 kJ/mol
# GULP energy per Si atom -5574.981398 kJ/mol
# Density = 1.852797 g / cm^3
# Si number density = 18.570235 Si / 1000 Ang^3
#
#
#
# Elastic Constant Matrix: (Units=GPa)
#
#
# Indices 1 2 3 4 5 6 
#
# 1 71.8451 55.5461 30.4542 0.0000 0.0000 0.0000
# 2 55.5461 173.3451 67.9860 0.0000 0.0000 0.0000
# 3 30.4542 67.9860 97.3151 0.0000 0.0000 0.0000
# 4 0.0000 0.0000 0.0000 49.5511 0.0000 0.0000
# 5 0.0000 0.0000 0.0000 0.0000 -278.7587 0.0000
# 6 0.0000 0.0000 0.0000 0.0000 0.0000 25.2203
#
#
#
# Elastic Compliance Matrix: (Units=1/GPa)
#
#
# Indices 1 2 3 4 5 6 
#
# 1 0.018874 -0.005140 -0.002316 0.000000 0.000000 0.000000
# 2 -0.005140 0.009346 -0.004921 0.000000 0.000000 0.000000
# 3 -0.002316 -0.004921 0.014438 0.000000 0.000000 0.000000
# 4 0.000000 0.000000 0.000000 0.020181 0.000000 0.000000
# 5 0.000000 0.000000 0.000000 0.000000 -0.003587 0.000000
# 6 0.000000 0.000000 0.000000 0.000000 0.000000 0.039651
#
#
# Mechanical properties :
#
#
# Convention : Reuss Voigt Hill
#
# Bulk Modulus (GPa) = 55.84803 72.27532 64.06168
# Shear Modulus (GPa) = 38.57328 -28.22952 5.17188
#
# Velocity S-wave (km/s) = 4.56253 -3.90314 1.67065
# Velocity P-wave (km/s) = 7.60886 4.32340 6.18816
#
# Compressibility (1/GPa) = 0.01790573
#
# Stress axis : x y z
#
# Youngs Moduli (GPa) = 52.98241 107.00177 69.26049
#
# Poissons Ratio (x) = 0.54996 0.16040
# Poissons Ratio (y) = 0.27231 0.34080
# Poissons Ratio (z) = 0.12270 0.52651
#
# Static dielectric constant tensor:
#      x y z
#    x 1.607860 0.000000 0.000000 
#    y 0.000000 1.722380 0.000000 
#    z 0.000000 0.000000 2.081860 
# 
# From -- ./inp_files/2901.got.cif
#   From: 2010.05.17/outbox.cif.g08.bks.cpg/sg21_2_cif.got.tgz:2901.got - 2010.06.03 23:14:55.
