data_PCOD9325951
_publ_section_title
;
Structure prediction by ZEFSAII (Michael W. Deem and Ramdas Pophale) SiO2 
 PCOD9325951
Probable space group: F 2 2 2
;
_chemical_formula_sum "Si O2"
_cell_formula_units_Z 96
_cell_length_a 9.643764
_cell_length_b 27.782513
_cell_length_c 17.861536
_cell_angle_alpha 90.000000
_cell_angle_beta 90.000000
_cell_angle_gamma 90.000000
_cell_volume 4785.605594
_symmetry_space_group_name_H-M "F 2 2 2"
_symmetry_group_IT_number 22
_symmetry_cell_setting 'orthorhombic'
loop_
_space_group_symop_operation_xyz
x,y,z
-x,-y,z
x,-y,-z
-x,y,-z
x,1/2+y,1/2+z
-x,1/2-y,1/2+z
x,1/2-y,1/2-z
-x,1/2+y,1/2-z
1/2+x,y,1/2+z
1/2-x,-y,1/2+z
1/2+x,-y,1/2-z
1/2-x,y,1/2-z
1/2+x,1/2+y,z
1/2-x,1/2-y,z
1/2+x,1/2-y,-z
1/2-x,1/2+y,-z
loop_
_atom_site_type_symbol
_atom_site_label
_atom_site_fract_x
_atom_site_fract_y
_atom_site_fract_z
Si Si1 0.165811 0.399867 0.512512
Si Si2 0.853418 0.705920 0.462966
Si Si3 0.097645 0.301363 0.284855
Si Si4 0.728497 0.064209 0.859199
Si Si5 0.640004 0.032131 0.348859
Si Si6 0.977795 0.900669 0.247969
O O1 0.200495 0.343437 0.501693
O O2 0.244012 0.427016 0.445802
O O3 0.183208 0.428811 0.589147
O O4 0.000000 0.401718 0.500000
O O5 0.750000 0.750000 0.472209
O O6 0.881396 0.698886 0.374177
O O7 0.000000 0.717402 0.500000
O O8 0.056146 0.250000 0.250000
O O9 0.250000 0.311711 0.250000
O O10 0.995755 0.344269 0.260752
O O11 0.854404 0.089264 0.813059
O O12 0.587838 0.086113 0.827329
O O13 0.743596 0.008151 0.840526
O O14 0.595517 0.062822 0.277074
O O15 0.500000 0.000000 0.370483
#
# Coordination Sequence:
#
# PCOD9325951 Si02
#       6
#    16  16  16  16  16  16
#     4  11  17  30  50  81 108 137 186 245 281 339
#     4  11  22  36  58  90 121 156 200 253 304 355
#     4  11  18  32  58  85 109 144 201 249 289 343
#     4  10  18  26  47  77 111 133 176 230 288 325
#     4  10  19  29  50  78 113 142 180 233 299 330
#     4  10  17  30  45  78 114 136 176 241 282 329
#
# _framework density 20.060158000000001
#
# number of rings (size 3 to 8) (size 9 to 14) (size 15 to 20)
#    0.000    1.500    8.333    1.500    0.000    0.000 
#    0.000    0.000    0.000   12.500    0.000    0.000 
#    0.000    0.000    0.000    0.000    0.000    0.000 
#
# Total GULP energy -133954.321665 kJ/mol
# GULP energy per Si atom -5581.430069 kJ/mol
# Density = 2.001450 g / cm^3
# Si number density = 20.060158 Si / 1000 Ang^3
#
#
#
# Elastic Constant Matrix: (Units=GPa)
#
#
# Indices 1 2 3 4 5 6 
#
# 1 33.6821 35.2760 33.4463 0.0000 0.0000 0.0000
# 2 35.2760 191.6618 33.9489 0.0000 0.0000 0.0000
# 3 33.4463 33.9489 85.7193 0.0000 0.0000 0.0000
# 4 0.0000 0.0000 0.0000 34.2043 0.0000 0.0000
# 5 0.0000 0.0000 0.0000 0.0000 23.0307 0.0000
# 6 0.0000 0.0000 0.0000 0.0000 0.0000 16.8832
#
#
#
# Elastic Compliance Matrix: (Units=1/GPa)
#
#
# Indices 1 2 3 4 5 6 
#
# 1 0.055839 -0.006902 -0.019054 0.000000 0.000000 0.000000
# 2 -0.006902 0.006464 0.000133 0.000000 0.000000 0.000000
# 3 -0.019054 0.000133 0.019048 0.000000 0.000000 0.000000
# 4 0.000000 0.000000 0.000000 0.029236 0.000000 0.000000
# 5 0.000000 0.000000 0.000000 0.000000 0.043420 0.000000
# 6 0.000000 0.000000 0.000000 0.000000 0.000000 0.059231
#
#
# Mechanical properties :
#
#
# Convention : Reuss Voigt Hill
#
# Bulk Modulus (GPa) = 33.66475 57.37838 45.52157
# Shear Modulus (GPa) = 18.19603 28.71643 23.45623
#
# Velocity S-wave (km/s) = 3.01503 3.78764 3.42320
# Velocity P-wave (km/s) = 5.37949 6.91329 6.19405
#
# Compressibility (1/GPa) = 0.02970466
#
# Stress axis : x y z
#
# Youngs Moduli (GPa) = 17.90879 154.69433 52.49963
#
# Poissons Ratio (x) = 1.06775 1.00031
# Poissons Ratio (y) = 0.12361 -0.00698
# Poissons Ratio (z) = 0.34123 -0.02057
#
# Static dielectric constant tensor:
#      x y z
#    x 1.723320 0.000000 0.000000 
#    y 0.000000 1.758460 0.000000 
#    z 0.000000 0.000000 1.724630 
# 
# From -- ./inp_files/24610.got.cif
#   From: 2010.05.17/outbox.cif.g08.bks.cpg/sg22_13_cif.got.tgz:24610.got - 2010.06.03 23:40:54.
