data_PCOD9325808
_publ_section_title
;
Structure prediction by ZEFSAII (Michael W. Deem and Ramdas Pophale) SiO2 
 PCOD9325808
Probable space group: C 2 2 2
;
_chemical_formula_sum "Si O2"
_cell_formula_units_Z 28
_cell_length_a 14.028699
_cell_length_b 15.893198
_cell_length_c 4.945496
_cell_angle_alpha 90.000000
_cell_angle_beta 90.000000
_cell_angle_gamma 90.000000
_cell_volume 1102.652194
_symmetry_space_group_name_H-M "C 2 2 2"
_symmetry_group_IT_number 21
_symmetry_cell_setting 'orthorhombic'
loop_
_space_group_symop_operation_xyz
x,y,z
-x,-y,z
x,-y,-z
-x,y,-z
1/2+x,1/2+y,z
1/2-x,1/2-y,z
1/2+x,1/2-y,-z
1/2-x,1/2+y,-z
loop_
_atom_site_type_symbol
_atom_site_label
_atom_site_fract_x
_atom_site_fract_y
_atom_site_fract_z
Si Si1 0.654968 0.631797 0.410032
Si Si2 0.676212 0.923734 0.798416
Si Si3 0.500000 0.500000 0.500000
Si Si4 0.110462 0.757645 0.076430
Si Si5 0.500000 0.000000 0.500000
O O1 0.747251 0.592065 0.557898
O O2 0.573550 0.562066 0.352869
O O3 0.662773 0.680810 0.132191
O O4 0.620123 0.700752 0.628803
O O5 0.573060 0.947190 0.678367
O O6 0.654562 0.834534 0.934146
O O7 0.705670 0.000000 0.000000
O O8 0.000000 0.754136 0.000000
#
# Coordination Sequence:
#
# PCOD9325808 Si02
#       5
#     8   8   2   8   2
#     4  12  30  51  85 120 167 212 283 353 427 511
#     4  12  31  53  86 122 175 225 299 352 436 518
#     4  12  26  56  84 120 158 218 274 342 426 504
#     4  12  27  55  82 122 167 219 275 353 431 505
#     4  12  28  54  84 120 168 238 284 368 404 542
#
# _framework density 25.393321
#
# number of rings (size 3 to 8) (size 9 to 14) (size 15 to 20)
#    0.000    0.000    2.857    3.857   16.000    3.429 
#    0.000    0.000    0.000    0.000    0.000    0.000 
#    0.000    0.000    0.000    0.000    0.000    0.000 
#
# Total GULP energy -78535.093288 kJ/mol
# GULP energy per Si atom -5609.649521 kJ/mol
# Density = 2.533552 g / cm^3
# Si number density = 25.393321 Si / 1000 Ang^3
#
#
#
# Elastic Constant Matrix: (Units=GPa)
#
#
# Indices 1 2 3 4 5 6 
#
# 1 216.9044 52.2041 18.9280 0.0000 0.0000 0.0000
# 2 52.2041 169.5418 4.1930 0.0000 0.0000 0.0000
# 3 18.9280 4.1930 43.0548 0.0000 0.0000 0.0000
# 4 0.0000 0.0000 0.0000 -22.2839 0.0000 0.0000
# 5 0.0000 0.0000 0.0000 0.0000 41.0368 0.0000
# 6 0.0000 0.0000 0.0000 0.0000 0.0000 2.1894
#
#
#
# Elastic Compliance Matrix: (Units=1/GPa)
#
#
# Indices 1 2 3 4 5 6 
#
# 1 0.005166 -0.001538 -0.002121 0.000000 0.000000 0.000000
# 2 -0.001538 0.006370 0.000056 0.000000 0.000000 0.000000
# 3 -0.002121 0.000056 0.024153 0.000000 0.000000 0.000000
# 4 0.000000 0.000000 0.000000 -0.044875 0.000000 0.000000
# 5 0.000000 0.000000 0.000000 0.000000 0.024368 0.000000
# 6 0.000000 0.000000 0.000000 0.000000 0.000000 0.456754
#
#
# Mechanical properties :
#
#
# Convention : Reuss Voigt Hill
#
# Bulk Modulus (GPa) = 35.10930 64.46123 49.78526
# Shear Modulus (GPa) = 10.23254 27.80018 19.01636
#
# Velocity S-wave (km/s) = 2.00957 3.31234 2.73952
# Velocity P-wave (km/s) = 4.38642 6.33001 5.44563
#
# Compressibility (1/GPa) = 0.02848248
#
# Stress axis : x y z
#
# Youngs Moduli (GPa) = 193.58781 156.97419 41.40218
#
# Poissons Ratio (x) = 0.24144 0.08782
# Poissons Ratio (y) = 0.29776 -0.00231
# Poissons Ratio (z) = 0.41063 -0.00876
#
# Static dielectric constant tensor:
#      x y z
#    x 1.964400 0.000000 0.000000 
#    y 0.000000 2.005440 0.000000 
#    z 0.000000 0.000000 1.986710 
# 
# From -- ./inp_files/3351.got.cif
#   From: 2010.05.17/outbox.cif.g08.bks.cpg/sg21_2_cif.got.tgz:3351.got - 2010.06.03 23:14:55.
