data_PCOD9325277
_publ_section_title
;
Structure prediction by ZEFSAII (Michael W. Deem and Ramdas Pophale) SiO2 
 PCOD9325277
Probable space group: C 2 2 2
;
_chemical_formula_sum "Si O2"
_cell_formula_units_Z 40
_cell_length_a 15.955825
_cell_length_b 11.911465
_cell_length_c 10.369294
_cell_angle_alpha 90.000000
_cell_angle_beta 90.000000
_cell_angle_gamma 90.000000
_cell_volume 1970.759513
_symmetry_space_group_name_H-M "C 2 2 2"
_symmetry_group_IT_number 21
_symmetry_cell_setting 'orthorhombic'
loop_
_space_group_symop_operation_xyz
x,y,z
-x,-y,z
x,-y,-z
-x,y,-z
1/2+x,1/2+y,z
1/2-x,1/2-y,z
1/2+x,1/2-y,-z
1/2-x,1/2+y,-z
loop_
_atom_site_type_symbol
_atom_site_label
_atom_site_fract_x
_atom_site_fract_y
_atom_site_fract_z
Si Si1 0.667748 0.328111 0.935997
Si Si2 0.371249 0.969542 0.148049
Si Si3 0.535197 0.615677 0.644523
Si Si4 0.528500 0.183506 0.814097
Si Si5 0.309922 0.558531 0.209146
O O1 0.750000 0.250000 0.927318
O O2 0.583959 0.260107 0.907147
O O3 0.677452 0.428190 0.831685
O O4 0.662427 0.375748 0.080220
O O5 0.446178 0.881058 0.137370
O O6 0.289675 0.924593 0.219881
O O7 0.408510 0.080107 0.216849
O O8 0.346231 0.000000 0.000000
O O9 0.500000 0.500000 0.707836
O O10 0.500000 0.615466 0.500000
O O11 0.502121 0.730010 0.706431
O O12 0.634121 0.600443 0.672159
#
# Coordination Sequence:
#
# PCOD9325277 Si02
#       5
#     8   8   8   8   8
#     4  11  21  38  63 103 141 169 209 267 345 422
#     4  11  23  40  64 108 144 171 209 274 353 417
#     4  11  26  45  66  89 128 178 238 287 322 381
#     4  11  23  40  68  95 140 178 215 272 340 407
#     4  11  23  39  64  97 135 175 216 271 336 407
#
# _framework density 20.296744
#
# number of rings (size 3 to 8) (size 9 to 14) (size 15 to 20)
#    0.000    1.000    6.000    1.200    8.400    0.000 
#    0.000    2.000   22.000    0.000    0.000    0.000 
#    0.000    0.000    0.000    0.000    0.000    0.000 
#
# Total GULP energy -111684.895517 kJ/mol
# GULP energy per Si atom -5584.244776 kJ/mol
# Density = 2.025055 g / cm^3
# Si number density = 20.296744 Si / 1000 Ang^3
#
#
#
# Elastic Constant Matrix: (Units=GPa)
#
#
# Indices 1 2 3 4 5 6 
#
# 1 172.6115 48.7992 47.3714 0.0000 0.0000 0.0000
# 2 48.7992 118.2524 39.5507 0.0000 0.0000 0.0000
# 3 47.3714 39.5507 57.9391 0.0000 0.0000 0.0000
# 4 0.0000 0.0000 0.0000 19.0625 0.0000 0.0000
# 5 0.0000 0.0000 0.0000 0.0000 26.9787 0.0000
# 6 0.0000 0.0000 0.0000 0.0000 0.0000 35.4730
#
#
#
# Elastic Compliance Matrix: (Units=1/GPa)
#
#
# Indices 1 2 3 4 5 6 
#
# 1 0.007639 -0.001378 -0.005305 0.000000 0.000000 0.000000
# 2 -0.001378 0.011207 -0.006523 0.000000 0.000000 0.000000
# 3 -0.005305 -0.006523 0.026050 0.000000 0.000000 0.000000
# 4 0.000000 0.000000 0.000000 0.052459 0.000000 0.000000
# 5 0.000000 0.000000 0.000000 0.000000 0.037066 0.000000
# 6 0.000000 0.000000 0.000000 0.000000 0.000000 0.028190
#
#
# Mechanical properties :
#
#
# Convention : Reuss Voigt Hill
#
# Bulk Modulus (GPa) = 54.10396 68.91618 61.51007
# Shear Modulus (GPa) = 25.61668 30.50828 28.06248
#
# Velocity S-wave (km/s) = 3.55647 3.88121 3.72238
# Velocity P-wave (km/s) = 6.60144 7.35616 6.98899
#
# Compressibility (1/GPa) = 0.01848294
#
# Stress axis : x y z
#
# Youngs Moduli (GPa) = 130.91047 89.22988 38.38784
#
# Poissons Ratio (x) = 0.12296 0.20364
# Poissons Ratio (y) = 0.18040 0.25042
# Poissons Ratio (z) = 0.69446 0.58209
#
# Static dielectric constant tensor:
#      x y z
#    x 1.757540 0.000000 0.000000 
#    y 0.000000 1.780330 0.000000 
#    z 0.000000 0.000000 1.705620 
# 
# From -- ./inp_files/24978.got.cif
#   From: 2010.05.17/outbox.cif.g08.bks.cpg/sg21_13_cif.got.tgz:24978.got - 2010.06.03 23:14:55.
