data_PCOD9325075
_publ_section_title
;
Structure prediction by ZEFSAII (Michael W. Deem and Ramdas Pophale) SiO2 
 PCOD9325075
Probable space group: C 2 2 2
;
_chemical_formula_sum "Si O2"
_cell_formula_units_Z 58
_cell_length_a 18.331976
_cell_length_b 25.880991
_cell_length_c 5.313984
_cell_angle_alpha 90.000000
_cell_angle_beta 90.000000
_cell_angle_gamma 90.000000
_cell_volume 2521.218146
_symmetry_space_group_name_H-M "C 2 2 2"
_symmetry_group_IT_number 21
_symmetry_cell_setting 'orthorhombic'
loop_
_space_group_symop_operation_xyz
x,y,z
-x,-y,z
x,-y,-z
-x,y,-z
1/2+x,1/2+y,z
1/2-x,1/2-y,z
1/2+x,1/2-y,-z
1/2-x,1/2+y,-z
loop_
_atom_site_type_symbol
_atom_site_label
_atom_site_fract_x
_atom_site_fract_y
_atom_site_fract_z
Si Si1 0.717410 0.470316 0.749966
Si Si2 0.191319 0.129644 0.540461
Si Si3 0.378317 0.934165 0.752793
Si Si4 0.000000 0.500000 0.500000
Si Si5 0.924195 0.719961 0.581086
Si Si6 0.320407 0.274963 0.216989
Si Si7 0.155535 0.373573 0.751840
Si Si8 0.570598 0.671246 0.848712
O O1 0.692987 0.500000 0.500000
O O2 0.695761 0.411370 0.686315
O O3 0.805644 0.469351 0.753643
O O4 0.692045 0.500000 0.000000
O O5 0.207391 0.187139 0.438137
O O6 0.256668 0.119090 0.738814
O O7 0.110951 0.132308 0.660338
O O8 0.368325 0.894424 0.521695
O O9 0.448510 0.966572 0.680590
O O10 0.377794 0.905605 0.019333
O O11 0.874036 0.733804 0.343519
O O12 0.875788 0.684300 0.761732
O O13 0.946331 0.774646 0.707296
O O14 0.000000 0.693944 0.500000
O O15 0.250000 0.250000 0.092564
O O16 0.367157 0.311256 0.040643
O O17 0.500000 0.652996 0.000000
#
# Coordination Sequence:
#
# PCOD9325075 Si02
#       8
#     8   8   8   2   8   8   8   8
#     4  11  23  45  72 106 141 183 239 321 378 435
#     4  10  25  41  70 107 147 186 254 309 376 454
#     4  11  27  46  70  99 143 190 255 308 365 440
#     4  12  28  54  68 106 144 218 246 314 376 450
#     4  11  24  43  61  98 150 197 245 302 364 439
#     4  11  23  41  68 103 145 200 244 304 360 452
#     4  11  26  45  69 106 141 194 254 311 366 427
#     4  11  25  41  69 103 145 199 243 303 374 457
#
# _framework density 23.004750000000001
#
# number of rings (size 3 to 8) (size 9 to 14) (size 15 to 20)
#    0.000    1.103    3.448    1.655   10.621    1.103 
#    0.000    0.000    0.000    0.000    0.000    2.897 
#    2.069    0.000    0.000    0.000    0.000    0.000 
#
# Total GULP energy -162301.660348 kJ/mol
# GULP energy per Si atom -5596.608978 kJ/mol
# Density = 2.295239 g / cm^3
# Si number density = 23.004750 Si / 1000 Ang^3
#
#
#
# Elastic Constant Matrix: (Units=GPa)
#
#
# Indices 1 2 3 4 5 6 
#
# 1 120.9461 44.8140 41.1502 0.0000 0.0000 0.0000
# 2 44.8140 75.0053 46.8507 0.0000 0.0000 0.0000
# 3 41.1502 46.8507 124.2071 0.0000 0.0000 0.0000
# 4 0.0000 0.0000 0.0000 22.2121 0.0000 0.0000
# 5 0.0000 0.0000 0.0000 0.0000 31.9795 0.0000
# 6 0.0000 0.0000 0.0000 0.0000 0.0000 26.8273
#
#
#
# Elastic Compliance Matrix: (Units=1/GPa)
#
#
# Indices 1 2 3 4 5 6 
#
# 1 0.010829 -0.005533 -0.001501 0.000000 0.000000 0.000000
# 2 -0.005533 0.020268 -0.005812 0.000000 0.000000 0.000000
# 3 -0.001501 -0.005812 0.010741 0.000000 0.000000 0.000000
# 4 0.000000 0.000000 0.000000 0.045020 0.000000 0.000000
# 5 0.000000 0.000000 0.000000 0.000000 0.031270 0.000000
# 6 0.000000 0.000000 0.000000 0.000000 0.000000 0.037275
#
#
# Mechanical properties :
#
#
# Convention : Reuss Voigt Hill
#
# Bulk Modulus (GPa) = 61.93191 65.08760 63.50975
# Shear Modulus (GPa) = 26.81294 28.69336 27.75315
#
# Velocity S-wave (km/s) = 3.41770 3.53552 3.47711
# Velocity P-wave (km/s) = 6.52335 6.70977 6.61722
#
# Compressibility (1/GPa) = 0.01614677
#
# Stress axis : x y z
#
# Youngs Moduli (GPa) = 92.34718 49.33765 93.10414
#
# Poissons Ratio (x) = 0.27296 0.13972
# Poissons Ratio (y) = 0.51091 0.54115
# Poissons Ratio (z) = 0.13859 0.28677
#
# Static dielectric constant tensor:
#      x y z
#    x 1.868730 0.000000 0.000000 
#    y 0.000000 1.929970 0.000000 
#    z 0.000000 0.000000 1.930840 
# 
# From -- ./inp_files/5335.got.cif
#   From: 2010.05.17/outbox.cif.g08.bks.cpg/sg21_3_cif.got.tgz:5335.got - 2010.06.03 23:14:55.
