data_PCOD9325627
_publ_section_title
;
Structure prediction by ZEFSAII (Michael W. Deem and Ramdas Pophale) SiO2 
 PCOD9325627
Probable space group: C 2 2 2
;
_chemical_formula_sum "Si O2"
_cell_formula_units_Z 30
_cell_length_a 6.670714
_cell_length_b 18.730780
_cell_length_c 9.794081
_cell_angle_alpha 90.000000
_cell_angle_beta 90.000000
_cell_angle_gamma 90.000000
_cell_volume 1223.747663
_symmetry_space_group_name_H-M "C 2 2 2"
_symmetry_group_IT_number 21
_symmetry_cell_setting 'orthorhombic'
loop_
_space_group_symop_operation_xyz
x,y,z
-x,-y,z
x,-y,-z
-x,y,-z
1/2+x,1/2+y,z
1/2-x,1/2-y,z
1/2+x,1/2-y,-z
1/2-x,1/2+y,-z
loop_
_atom_site_type_symbol
_atom_site_label
_atom_site_fract_x
_atom_site_fract_y
_atom_site_fract_z
Si Si1 0.558282 0.084316 0.652230
Si Si2 0.500000 0.500000 0.000000
Si Si3 0.677834 0.895061 0.908732
Si Si4 0.590103 0.313503 0.650943
Si Si5 0.250000 0.750000 0.144609
O O1 0.500000 0.106606 0.500000
O O2 0.408860 0.118646 0.759583
O O3 0.780694 0.114204 0.685801
O O4 0.500000 0.000000 0.663057
O O5 0.360306 0.448646 0.911671
O O6 0.720503 0.816064 0.959099
O O7 0.500000 0.925228 0.000000
O O8 0.500000 0.325551 0.500000
O O9 0.750000 0.250000 0.639603
O O10 0.425612 0.283558 0.758146
#
# Coordination Sequence:
#
# PCOD9325627 Si02
#       5
#     8   2   8   8   4
#     4  11  25  49  77 112 158 201 262 326 388 472
#     4  12  30  52  88 104 160 218 258 326 412 474
#     4  12  29  51  76 115 155 205 263 324 399 480
#     4  12  23  45  74 114 161 204 258 325 401 467
#     4  12  28  42  78 116 148 206 262 326 392 466
#
# _framework density 24.514859000000001
#
# number of rings (size 3 to 8) (size 9 to 14) (size 15 to 20)
#    0.000    0.267    4.000    4.400    9.333    0.000 
#    0.000    1.333    0.000    0.000    0.000    0.000 
#    0.000    0.000    0.000    0.000    0.000    0.000 
#
# Total GULP energy -83865.668672 kJ/mol
# GULP energy per Si atom -5591.044578 kJ/mol
# Density = 2.445906 g / cm^3
# Si number density = 24.514859 Si / 1000 Ang^3
#
#
#
# Elastic Constant Matrix: (Units=GPa)
#
#
# Indices 1 2 3 4 5 6 
#
# 1 169.9203 81.2545 36.2803 0.0000 0.0000 0.0000
# 2 81.2545 179.6097 14.3377 0.0000 0.0000 0.0000
# 3 36.2803 14.3377 50.0940 0.0000 0.0000 0.0000
# 4 0.0000 0.0000 0.0000 21.4087 0.0000 0.0000
# 5 0.0000 0.0000 0.0000 0.0000 39.6597 0.0000
# 6 0.0000 0.0000 0.0000 0.0000 0.0000 -2.0548
#
#
#
# Elastic Compliance Matrix: (Units=1/GPa)
#
#
# Indices 1 2 3 4 5 6 
#
# 1 0.008694 -0.003511 -0.005292 0.000000 0.000000 0.000000
# 2 -0.003511 0.007115 0.000506 0.000000 0.000000 0.000000
# 3 -0.005292 0.000506 0.023650 0.000000 0.000000 0.000000
# 4 0.000000 0.000000 0.000000 0.046710 0.000000 0.000000
# 5 0.000000 0.000000 0.000000 0.000000 0.025215 0.000000
# 6 0.000000 0.000000 0.000000 0.000000 0.000000 -0.486659
#
#
# Mechanical properties :
#
#
# Convention : Reuss Voigt Hill
#
# Bulk Modulus (GPa) = 43.73156 73.70769 58.71963
# Shear Modulus (GPa) = -14.24253 29.65281 7.70514
#
# Velocity S-wave (km/s) = -2.41296 3.48168 1.77479
# Velocity P-wave (km/s) = 3.18031 6.80402 5.31079
#
# Compressibility (1/GPa) = 0.02286678
#
# Stress axis : x y z
#
# Youngs Moduli (GPa) = 115.02643 140.54027 42.28324
#
# Poissons Ratio (x) = 0.49337 0.22374
# Poissons Ratio (y) = 0.40381 -0.02139
# Poissons Ratio (z) = 0.60867 -0.07111
#
# Static dielectric constant tensor:
#      x y z
#    x 2.044620 0.000000 0.000000 
#    y 0.000000 2.088690 0.000000 
#    z 0.000000 0.000000 1.943730 
# 
# From -- ./inp_files/20665.got.cif
#   From: 2010.05.17/outbox.cif.g08.bks.cpg/sg21_11_cif.got.tgz:20665.got - 2010.06.03 23:14:55.
