data_PCOD9325241
_publ_section_title
;
Structure prediction by ZEFSAII (Michael W. Deem and Ramdas Pophale) SiO2 
 PCOD9325241
Probable space group: C 2 2 2
;
_chemical_formula_sum "Si O2"
_cell_formula_units_Z 56
_cell_length_a 21.351830
_cell_length_b 13.766121
_cell_length_c 10.092428
_cell_angle_alpha 90.000000
_cell_angle_beta 90.000000
_cell_angle_gamma 90.000000
_cell_volume 2966.486289
_symmetry_space_group_name_H-M "C 2 2 2"
_symmetry_group_IT_number 21
_symmetry_cell_setting 'orthorhombic'
loop_
_space_group_symop_operation_xyz
x,y,z
-x,-y,z
x,-y,-z
-x,y,-z
1/2+x,1/2+y,z
1/2-x,1/2-y,z
1/2+x,1/2-y,-z
1/2-x,1/2+y,-z
loop_
_atom_site_type_symbol
_atom_site_label
_atom_site_fract_x
_atom_site_fract_y
_atom_site_fract_z
Si Si1 0.742519 0.092011 0.592955
Si Si2 0.147565 0.764587 0.969934
Si Si3 0.243652 0.591150 0.905417
Si Si4 0.575257 0.005000 0.654831
Si Si5 0.093484 0.295433 0.749942
Si Si6 0.556828 0.782720 0.255350
Si Si7 0.647611 0.268052 0.525349
O O1 0.742941 0.067197 0.748954
O O2 0.690778 0.175415 0.565586
O O3 0.808715 0.140378 0.554056
O O4 0.731904 0.000000 0.500000
O O5 0.192050 0.674379 0.929933
O O6 0.190127 0.859173 0.945572
O O7 0.087979 0.763033 0.873582
O O8 0.124118 0.745997 0.117979
O O9 0.231764 0.500000 0.000000
O O10 0.602138 0.911991 0.730814
O O11 0.500000 0.000000 0.649807
O O12 0.594787 0.000000 0.500000
O O13 0.583198 0.106881 0.728642
O O14 0.125774 0.245375 0.624353
O O15 0.018153 0.281609 0.747857
O O16 0.586082 0.731374 0.383640
#
# Coordination Sequence:
#
# PCOD9325241 Si02
#       7
#     8   8   8   8   8   8   8
#     4  11  25  42  66  91 118 160 208 258 303 355
#     4  11  24  42  62  90 126 161 205 245 308 369
#     4  11  25  44  65  86 121 164 202 259 310 352
#     4   9  18  31  50  84 123 160 194 230 287 353
#     4  11  24  34  62  97 123 165 202 248 297 375
#     4  11  20  40  61  87 131 167 196 244 310 365
#     4  11  22  40  64  91 126 159 204 249 306 359
#
# _framework density 18.877551
#
# number of rings (size 3 to 8) (size 9 to 14) (size 15 to 20)
#    0.000    1.286    4.286    1.714    8.000    1.143 
#    0.000    2.143    0.000    5.143    0.000    0.000 
#    0.000    0.000    0.000    0.000    0.000    0.000 
#
# Total GULP energy -156418.650773 kJ/mol
# GULP energy per Si atom -5586.380385 kJ/mol
# Density = 1.883458 g / cm^3
# Si number density = 18.877551 Si / 1000 Ang^3
#
#
#
# Elastic Constant Matrix: (Units=GPa)
#
#
# Indices 1 2 3 4 5 6 
#
# 1 85.2128 10.9543 34.6649 0.0000 0.0000 0.0000
# 2 10.9543 46.5918 17.8431 0.0000 0.0000 0.0000
# 3 34.6649 17.8431 166.6748 0.0000 0.0000 0.0000
# 4 0.0000 0.0000 0.0000 20.8123 0.0000 0.0000
# 5 0.0000 0.0000 0.0000 0.0000 56.3645 0.0000
# 6 0.0000 0.0000 0.0000 0.0000 0.0000 21.2701
#
#
#
# Elastic Compliance Matrix: (Units=1/GPa)
#
#
# Indices 1 2 3 4 5 6 
#
# 1 0.013016 -0.002110 -0.002481 0.000000 0.000000 0.000000
# 2 -0.002110 0.022723 -0.001994 0.000000 0.000000 0.000000
# 3 -0.002481 -0.001994 0.006729 0.000000 0.000000 0.000000
# 4 0.000000 0.000000 0.000000 0.048049 0.000000 0.000000
# 5 0.000000 0.000000 0.000000 0.000000 0.017742 0.000000
# 6 0.000000 0.000000 0.000000 0.000000 0.000000 0.047014
#
#
# Mechanical properties :
#
#
# Convention : Reuss Voigt Hill
#
# Bulk Modulus (GPa) = 34.13203 47.26712 40.69957
# Shear Modulus (GPa) = 28.05708 35.35716 31.70712
#
# Velocity S-wave (km/s) = 3.85940 4.33248 4.10276
# Velocity P-wave (km/s) = 6.16278 7.07957 6.63703
#
# Compressibility (1/GPa) = 0.02929799
#
# Stress axis : x y z
#
# Youngs Moduli (GPa) = 76.82897 44.00901 148.60672
#
# Poissons Ratio (x) = 0.09286 0.36872
# Poissons Ratio (y) = 0.16211 0.29628
# Poissons Ratio (z) = 0.19063 0.08774
#
# Static dielectric constant tensor:
#      x y z
#    x 1.665040 0.000000 0.000000 
#    y 0.000000 1.652090 0.000000 
#    z 0.000000 0.000000 1.637150 
# 
# From -- ./inp_files/17700.got.cif
#   From: 2010.05.17/outbox.cif.g08.bks.cpg/sg21_9_cif.got.tgz:17700.got - 2010.06.03 23:14:55.
