data_PCOD9325650
_publ_section_title
;
Structure prediction by ZEFSAII (Michael W. Deem and Ramdas Pophale) SiO2 
 PCOD9325650
Probable space group: C 2 2 2
;
_chemical_formula_sum "Si O2"
_cell_formula_units_Z 24
_cell_length_a 11.341813
_cell_length_b 8.155889
_cell_length_c 9.473443
_cell_angle_alpha 90.000000
_cell_angle_beta 90.000000
_cell_angle_gamma 90.000000
_cell_volume 876.317804
_symmetry_space_group_name_H-M "C 2 2 2"
_symmetry_group_IT_number 21
_symmetry_cell_setting 'orthorhombic'
loop_
_space_group_symop_operation_xyz
x,y,z
-x,-y,z
x,-y,-z
-x,y,-z
1/2+x,1/2+y,z
1/2-x,1/2-y,z
1/2+x,1/2-y,-z
1/2-x,1/2+y,-z
loop_
_atom_site_type_symbol
_atom_site_label
_atom_site_fract_x
_atom_site_fract_y
_atom_site_fract_z
Si Si1 0.874006 0.334099 0.403579
Si Si2 0.563770 0.659293 0.231290
Si Si3 0.302807 0.038317 0.155416
O O1 0.885546 0.500000 0.500000
O O2 0.750000 0.250000 0.444589
O O3 0.856625 0.390382 0.240480
O O4 0.989873 0.221658 0.366456
O O5 0.500000 0.500000 0.169598
O O6 0.600913 0.817863 0.141158
O O7 0.695145 0.590366 0.256779
O O8 0.258032 0.000000 0.000000
#
# Coordination Sequence:
#
# PCOD9325650 Si02
#       3
#     8   8   8
#     4  12  29  54  81 121 178 234 289 361 438 521
#     4  11  26  51  86 123 168 231 285 359 431 522
#     4  11  28  52  83 129 171 217 292 364 439 521
#
# _framework density 27.387324
#
# number of rings (size 3 to 8) (size 9 to 14) (size 15 to 20)
#    0.000    0.667    3.333    1.000    9.333    8.667 
#    0.000    3.333    0.000    0.000    0.000    0.000 
#    0.000    0.000    0.000    0.000    0.000    0.000 
#
# Total GULP energy -66965.878911 kJ/mol
# GULP energy per Si atom -5580.489909 kJ/mol
# Density = 2.732499 g / cm^3
# Si number density = 27.387324 Si / 1000 Ang^3
#
#
#
# Elastic Constant Matrix: (Units=GPa)
#
#
# Indices 1 2 3 4 5 6 
#
# 1 224.2420 76.3409 58.7824 0.0000 0.0000 0.0000
# 2 76.3409 113.1281 47.2505 0.0000 0.0000 0.0000
# 3 58.7824 47.2505 156.3080 0.0000 0.0000 0.0000
# 4 0.0000 0.0000 0.0000 9.7778 0.0000 0.0000
# 5 0.0000 0.0000 0.0000 0.0000 -35.2411 0.0000
# 6 0.0000 0.0000 0.0000 0.0000 0.0000 68.2531
#
#
#
# Elastic Compliance Matrix: (Units=1/GPa)
#
#
# Indices 1 2 3 4 5 6 
#
# 1 0.005973 -0.003539 -0.001176 0.000000 0.000000 0.000000
# 2 -0.003539 0.012214 -0.002361 0.000000 0.000000 0.000000
# 3 -0.001176 -0.002361 0.007554 0.000000 0.000000 0.000000
# 4 0.000000 0.000000 0.000000 0.102272 0.000000 0.000000
# 5 0.000000 0.000000 0.000000 0.000000 -0.028376 0.000000
# 6 0.000000 0.000000 0.000000 0.000000 0.000000 0.014651
#
#
# Mechanical properties :
#
#
# Convention : Reuss Voigt Hill
#
# Bulk Modulus (GPa) = 86.30253 95.38064 90.84158
# Shear Modulus (GPa) = 37.79184 29.31159 33.55172
#
# Velocity S-wave (km/s) = 3.71873 3.27503 3.50391
# Velocity P-wave (km/s) = 7.07240 7.01451 7.04351
#
# Compressibility (1/GPa) = 0.01158715
#
# Stress axis : x y z
#
# Youngs Moduli (GPa) = 167.42867 81.87287 132.38440
#
# Poissons Ratio (x) = 0.28976 0.15572
# Poissons Ratio (y) = 0.59256 0.31259
# Poissons Ratio (z) = 0.19694 0.19332
#
# Static dielectric constant tensor:
#      x y z
#    x 2.195820 0.000000 0.000000 
#    y 0.000000 2.304530 0.000000 
#    z 0.000000 0.000000 2.086630 
# 
# From -- ./inp_files/23248.got.cif
#   From: 2010.05.17/outbox.cif.g08.bks.cpg/sg21_12_cif.got.tgz:23248.got - 2010.06.03 23:14:55.
