data_PCOD9325097
_publ_section_title
;
Structure prediction by ZEFSAII (Michael W. Deem and Ramdas Pophale) SiO2 
 PCOD9325097
Probable space group: C 2 2 2
;
_chemical_formula_sum "Si O2"
_cell_formula_units_Z 30
_cell_length_a 8.959084
_cell_length_b 11.988895
_cell_length_c 12.864322
_cell_angle_alpha 90.000000
_cell_angle_beta 90.000000
_cell_angle_gamma 90.000000
_cell_volume 1381.750617
_symmetry_space_group_name_H-M "C 2 2 2"
_symmetry_group_IT_number 21
_symmetry_cell_setting 'orthorhombic'
loop_
_space_group_symop_operation_xyz
x,y,z
-x,-y,z
x,-y,-z
-x,y,-z
1/2+x,1/2+y,z
1/2-x,1/2-y,z
1/2+x,1/2-y,-z
1/2-x,1/2+y,-z
loop_
_atom_site_type_symbol
_atom_site_label
_atom_site_fract_x
_atom_site_fract_y
_atom_site_fract_z
Si Si1 0.428048 0.882540 0.151017
Si Si2 0.000000 0.500000 0.500000
Si Si3 0.663077 0.457211 0.846920
Si Si4 0.170928 0.355960 0.333013
Si Si5 0.250000 0.250000 0.001019
O O1 0.534633 0.846371 0.246808
O O2 0.389328 0.784162 0.072328
O O3 0.500000 0.000000 0.112078
O O4 0.263635 0.932042 0.168884
O O5 0.103806 0.429965 0.423091
O O6 0.500000 0.500000 0.871910
O O7 0.691788 0.401597 0.735821
O O8 0.716648 0.360843 0.928902
O O9 0.250000 0.250000 0.382049
#
# Coordination Sequence:
#
# PCOD9325097 Si02
#       5
#     8   2   8   8   4
#     4  10  25  47  69 104 158 200 245 309 362 443
#     4  12  24  60  82 100 148 192 242 348 380 444
#     4  11  25  45  70 111 154 195 252 301 361 456
#     4  11  25  53  79 106 145 193 253 314 393 446
#     4  12  26  44  74 104 162 208 240 294 372 442
#
# _framework density 21.711587000000002
#
# number of rings (size 3 to 8) (size 9 to 14) (size 15 to 20)
#    0.000    1.067    5.333    0.800    3.733   13.867 
#   12.000    0.000    0.000    0.000    0.000    0.000 
#    0.000    0.000    0.000    0.000    0.000    0.000 
#
# Total GULP energy -83557.717782 kJ/mol
# GULP energy per Si atom -5570.514519 kJ/mol
# Density = 2.166217 g / cm^3
# Si number density = 21.711587 Si / 1000 Ang^3
#
#
#
# Elastic Constant Matrix: (Units=GPa)
#
#
# Indices 1 2 3 4 5 6 
#
# 1 115.7800 56.5721 47.1894 0.0000 0.0000 0.0000
# 2 56.5721 112.9609 61.3874 0.0000 0.0000 0.0000
# 3 47.1894 61.3874 140.6964 0.0000 0.0000 0.0000
# 4 0.0000 0.0000 0.0000 24.7763 0.0000 0.0000
# 5 0.0000 0.0000 0.0000 0.0000 2.5410 0.0000
# 6 0.0000 0.0000 0.0000 0.0000 0.0000 13.5402
#
#
#
# Elastic Compliance Matrix: (Units=1/GPa)
#
#
# Indices 1 2 3 4 5 6 
#
# 1 0.011775 -0.004916 -0.001804 0.000000 0.000000 0.000000
# 2 -0.004916 0.013657 -0.004310 0.000000 0.000000 0.000000
# 3 -0.001804 -0.004310 0.009593 0.000000 0.000000 0.000000
# 4 0.000000 0.000000 0.000000 0.040361 0.000000 0.000000
# 5 0.000000 0.000000 0.000000 0.000000 0.393540 0.000000
# 6 0.000000 0.000000 0.000000 0.000000 0.000000 0.073854
#
#
# Mechanical properties :
#
#
# Convention : Reuss Voigt Hill
#
# Bulk Modulus (GPa) = 77.13655 77.74834 77.44244
# Shear Modulus (GPa) = 8.78485 21.79075 15.28780
#
# Velocity S-wave (km/s) = 2.01369 3.17147 2.65643
# Velocity P-wave (km/s) = 6.40403 7.02128 6.71974
#
# Compressibility (1/GPa) = 0.01296402
#
# Stress axis : x y z
#
# Youngs Moduli (GPa) = 84.92823 73.22313 104.24322
#
# Poissons Ratio (x) = 0.36000 0.18806
# Poissons Ratio (y) = 0.41755 0.44925
# Poissons Ratio (z) = 0.15322 0.31557
#
# Static dielectric constant tensor:
#      x y z
#    x 1.881840 0.000000 0.000000 
#    y 0.000000 2.310280 0.000000 
#    z 0.000000 0.000000 1.804110 
# 
# From -- ./inp_files/21877.got.cif
#   From: 2010.05.17/outbox.cif.g08.bks.cpg/sg21_11_cif.got.tgz:21877.got - 2010.06.03 23:14:55.
