data_PCOD9325804
_publ_section_title
;
Structure prediction by ZEFSAII (Michael W. Deem and Ramdas Pophale) SiO2 
 PCOD9325804
Probable space group: C 2 2 2
;
_chemical_formula_sum "Si O2"
_cell_formula_units_Z 32
_cell_length_a 10.121773
_cell_length_b 15.107087
_cell_length_c 8.386049
_cell_angle_alpha 90.000000
_cell_angle_beta 90.000000
_cell_angle_gamma 90.000000
_cell_volume 1282.314990
_symmetry_space_group_name_H-M "C 2 2 2"
_symmetry_group_IT_number 21
_symmetry_cell_setting 'orthorhombic'
loop_
_space_group_symop_operation_xyz
x,y,z
-x,-y,z
x,-y,-z
-x,y,-z
1/2+x,1/2+y,z
1/2-x,1/2-y,z
1/2+x,1/2-y,-z
1/2-x,1/2+y,-z
loop_
_atom_site_type_symbol
_atom_site_label
_atom_site_fract_x
_atom_site_fract_y
_atom_site_fract_z
Si Si1 0.811402 0.519853 0.321168
Si Si2 0.937551 0.846052 0.323219
Si Si3 0.207926 0.846793 0.158883
Si Si4 0.612867 0.173175 0.868605
O O1 0.851309 0.500000 0.500000
O O2 0.676322 0.579820 0.328484
O O3 0.784082 0.427915 0.235457
O O4 0.908883 0.582030 0.222882
O O5 0.056331 0.865912 0.199702
O O6 0.000000 0.840851 0.500000
O O7 0.889702 0.749788 0.263532
O O8 0.250000 0.750000 0.226967
O O9 0.254424 0.841077 0.975321
O O10 0.500000 0.191164 0.000000
#
# Coordination Sequence:
#
# PCOD9325804 Si02
#       4
#     8   8   8   8
#     4  12  28  48  84 119 159 206 271 332 402 474
#     4  12  27  51  86 116 159 208 273 337 401 469
#     4  12  26  50  79 116 160 210 267 328 396 474
#     4  12  29  52  79 118 163 216 264 327 406 481
#
# _framework density 24.954867
#
# number of rings (size 3 to 8) (size 9 to 14) (size 15 to 20)
#    0.000    0.000    5.000    3.750    3.500    2.000 
#    0.000    3.750    0.000    0.000    0.000    0.000 
#    0.000    0.000    0.000    0.000    0.000    0.000 
#
# Total GULP energy -89670.609677 kJ/mol
# GULP energy per Si atom -5604.413105 kJ/mol
# Density = 2.489807 g / cm^3
# Si number density = 24.954867 Si / 1000 Ang^3
#
#
#
# Elastic Constant Matrix: (Units=GPa)
#
#
# Indices 1 2 3 4 5 6 
#
# 1 139.0989 20.4218 31.8830 0.0000 0.0000 0.0000
# 2 20.4218 212.9699 69.4756 0.0000 0.0000 0.0000
# 3 31.8830 69.4756 156.4344 0.0000 0.0000 0.0000
# 4 0.0000 0.0000 0.0000 44.8729 0.0000 0.0000
# 5 0.0000 0.0000 0.0000 0.0000 28.3978 0.0000
# 6 0.0000 0.0000 0.0000 0.0000 0.0000 33.4484
#
#
#
# Elastic Compliance Matrix: (Units=1/GPa)
#
#
# Indices 1 2 3 4 5 6 
#
# 1 0.007554 -0.000260 -0.001424 0.000000 0.000000 0.000000
# 2 -0.000260 0.005500 -0.002390 0.000000 0.000000 0.000000
# 3 -0.001424 -0.002390 0.007744 0.000000 0.000000 0.000000
# 4 0.000000 0.000000 0.000000 0.022285 0.000000 0.000000
# 5 0.000000 0.000000 0.000000 0.000000 0.035214 0.000000
# 6 0.000000 0.000000 0.000000 0.000000 0.000000 0.029897
#
#
# Mechanical properties :
#
#
# Convention : Reuss Voigt Hill
#
# Bulk Modulus (GPa) = 79.04837 83.56266 81.30552
# Shear Modulus (GPa) = 41.47392 47.12536 44.29964
#
# Velocity S-wave (km/s) = 4.08113 4.35031 4.21787
# Velocity P-wave (km/s) = 7.34526 7.66758 7.50815
#
# Compressibility (1/GPa) = 0.01265048
#
# Stress axis : x y z
#
# Youngs Moduli (GPa) = 132.38547 181.81875 129.13164
#
# Poissons Ratio (x) = 0.04722 0.18391
# Poissons Ratio (y) = 0.03438 0.30859
# Poissons Ratio (z) = 0.18854 0.43449
#
# Static dielectric constant tensor:
#      x y z
#    x 2.134670 0.000000 0.000000 
#    y 0.000000 1.968740 0.000000 
#    z 0.000000 0.000000 1.951610 
# 
# From -- ./inp_files/12310.got.cif
#   From: 2010.05.17/outbox.cif.g08.bks.cpg/sg21_7_cif.got.tgz:12310.got - 2010.06.03 23:14:55.
