data_PCOD9325550
_publ_section_title
;
Structure prediction by ZEFSAII (Michael W. Deem and Ramdas Pophale) SiO2 
 PCOD9325550
Probable space group: C 2 2 2
;
_chemical_formula_sum "Si O2"
_cell_formula_units_Z 38
_cell_length_a 18.141694
_cell_length_b 11.112010
_cell_length_c 9.354358
_cell_angle_alpha 90.000000
_cell_angle_beta 90.000000
_cell_angle_gamma 90.000000
_cell_volume 1885.751438
_symmetry_space_group_name_H-M "C 2 2 2"
_symmetry_group_IT_number 21
_symmetry_cell_setting 'orthorhombic'
loop_
_space_group_symop_operation_xyz
x,y,z
-x,-y,z
x,-y,-z
-x,y,-z
1/2+x,1/2+y,z
1/2-x,1/2-y,z
1/2+x,1/2-y,-z
1/2-x,1/2+y,-z
loop_
_atom_site_type_symbol
_atom_site_label
_atom_site_fract_x
_atom_site_fract_y
_atom_site_fract_z
Si Si1 0.579831 0.347816 0.735653
Si Si2 0.980921 0.636243 0.832160
Si Si3 0.697135 0.363361 0.518118
Si Si4 0.112823 0.000000 0.000000
Si Si5 0.164613 0.792886 0.211891
Si Si6 0.000000 0.000000 0.500000
O O1 0.537925 0.223469 0.752700
O O2 0.662605 0.344780 0.675874
O O3 0.545426 0.418142 0.604913
O O4 0.571005 0.420646 0.882066
O O5 0.897782 0.689301 0.812093
O O6 0.000000 0.500000 0.786949
O O7 0.000000 0.643579 0.000000
O O8 0.726765 0.500000 0.500000
O O9 0.750000 0.250000 0.504828
O O10 0.649537 0.345632 0.371417
O O11 0.154340 0.899696 0.096185
O O12 0.250000 0.750000 0.201956
#
# Coordination Sequence:
#
# PCOD9325550 Si02
#       6
#     8   8   8   4   8   2
#     4  12  23  41  70  99 132 178 233 291 345 413
#     4  11  25  44  67 102 142 181 225 292 358 420
#     4  11  24  45  67  99 142 184 229 287 356 430
#     4  12  22  41  70 100 133 174 240 288 343 408
#     4  11  25  45  68 101 140 183 229 293 352 426
#     4  12  24  38  70  96 136 166 236 292 340 402
#
# _framework density 20.151119999999999
#
# number of rings (size 3 to 8) (size 9 to 14) (size 15 to 20)
#    0.000    0.632    5.263    2.526    0.000    6.737 
#    0.000    3.684    0.000    0.000    0.000    0.000 
#    0.000    0.000    0.000    0.000    0.000    0.000 
#
# Total GULP energy -105883.915022 kJ/mol
# GULP energy per Si atom -5572.837633 kJ/mol
# Density = 2.010525 g / cm^3
# Si number density = 20.151120 Si / 1000 Ang^3
#
#
#
# Elastic Constant Matrix: (Units=GPa)
#
#
# Indices 1 2 3 4 5 6 
#
# 1 68.2740 80.5618 24.0364 0.0000 0.0000 0.0000
# 2 80.5618 203.3247 58.7664 0.0000 0.0000 0.0000
# 3 24.0364 58.7664 127.9555 0.0000 0.0000 0.0000
# 4 0.0000 0.0000 0.0000 57.0853 0.0000 0.0000
# 5 0.0000 0.0000 0.0000 0.0000 -11.8425 0.0000
# 6 0.0000 0.0000 0.0000 0.0000 0.0000 36.0850
#
#
#
# Elastic Compliance Matrix: (Units=1/GPa)
#
#
# Indices 1 2 3 4 5 6 
#
# 1 0.027511 -0.010847 -0.000186 0.000000 0.000000 0.000000
# 2 -0.010847 0.009948 -0.002531 0.000000 0.000000 0.000000
# 3 -0.000186 -0.002531 0.009013 0.000000 0.000000 0.000000
# 4 0.000000 0.000000 0.000000 0.017518 0.000000 0.000000
# 5 0.000000 0.000000 0.000000 0.000000 -0.084442 0.000000
# 6 0.000000 0.000000 0.000000 0.000000 0.000000 0.027712
#
#
# Mechanical properties :
#
#
# Convention : Reuss Voigt Hill
#
# Bulk Modulus (GPa) = 51.69781 80.69815 66.19798
# Shear Modulus (GPa) = 122.44168 32.01155 77.22662
#
# Velocity S-wave (km/s) = 7.80344 3.99002 6.19733
# Velocity P-wave (km/s) = 10.33936 7.83329 9.17231
#
# Compressibility (1/GPa) = 0.01934318
#
# Stress axis : x y z
#
# Youngs Moduli (GPa) = 36.34855 100.52764 110.95488
#
# Poissons Ratio (x) = 1.09040 0.02068
# Poissons Ratio (y) = 0.39426 0.28083
# Poissons Ratio (z) = 0.00678 0.25444
#
# Static dielectric constant tensor:
#      x y z
#    x 2.031830 0.000000 0.000000 
#    y 0.000000 1.736460 0.000000 
#    z 0.000000 0.000000 1.676610 
# 
# From -- ./inp_files/16149.got.cif
#   From: 2010.05.17/outbox.cif.g08.bks.cpg/sg21_9_cif.got.tgz:16149.got - 2010.06.03 23:14:55.
