data_PCOD9325144
_publ_section_title
;
Structure prediction by ZEFSAII (Michael W. Deem and Ramdas Pophale) SiO2 
 PCOD9325144
Probable space group: C 2 2 2
;
_chemical_formula_sum "Si O2"
_cell_formula_units_Z 18
_cell_length_a 26.743223
_cell_length_b 5.373136
_cell_length_c 5.271275
_cell_angle_alpha 90.000000
_cell_angle_beta 90.000000
_cell_angle_gamma 90.000000
_cell_volume 757.455725
_symmetry_space_group_name_H-M "C 2 2 2"
_symmetry_group_IT_number 21
_symmetry_cell_setting 'orthorhombic'
loop_
_space_group_symop_operation_xyz
x,y,z
-x,-y,z
x,-y,-z
-x,y,-z
1/2+x,1/2+y,z
1/2-x,1/2-y,z
1/2+x,1/2-y,-z
1/2-x,1/2+y,-z
loop_
_atom_site_type_symbol
_atom_site_label
_atom_site_fract_x
_atom_site_fract_y
_atom_site_fract_z
Si Si1 0.928051 0.151063 0.745415
Si Si2 0.750000 0.750000 0.836160
Si Si3 0.000000 0.500000 0.500000
Si Si4 0.168228 0.000000 0.500000
O O1 0.868663 0.153676 0.687655
O O2 0.959255 0.396330 0.704762
O O3 0.947074 0.000000 0.500000
O O4 0.937116 0.000000 0.000000
O O5 0.702945 0.683369 0.659463
O O6 0.758843 0.500000 0.000000
#
# Coordination Sequence:
#
# PCOD9325144 Si02
#       4
#     8   4   2   4
#     4  10  26  48  72 113 155 196 269 319 391 475
#     4  12  26  48  86 116 164 214 270 330 412 482
#     4  12  26  48  88 104 156 220 254 334 404 466
#     4  10  26  48  74 116 162 202 268 332 396 486
#
# _framework density 23.763766
#
# number of rings (size 3 to 8) (size 9 to 14) (size 15 to 20)
#    1.333    0.000    0.000    3.333    0.000   16.000 
#    0.000    0.000    0.000    0.000    0.000    0.000 
#    0.000    0.000    0.000    0.000    0.000    0.000 
#
# Total GULP energy -50191.610711 kJ/mol
# GULP energy per Si atom -5576.845635 kJ/mol
# Density = 2.370968 g / cm^3
# Si number density = 23.763766 Si / 1000 Ang^3
#
#
#
# Elastic Constant Matrix: (Units=GPa)
#
#
# Indices 1 2 3 4 5 6 
#
# 1 213.9106 73.4836 76.1835 0.0000 0.0000 0.0000
# 2 73.4836 96.5852 70.9359 0.0000 0.0000 0.0000
# 3 76.1835 70.9359 202.1229 0.0000 0.0000 0.0000
# 4 0.0000 0.0000 0.0000 23.8472 0.0000 0.0000
# 5 0.0000 0.0000 0.0000 0.0000 22.8883 0.0000
# 6 0.0000 0.0000 0.0000 0.0000 0.0000 64.8280
#
#
#
# Elastic Compliance Matrix: (Units=1/GPa)
#
#
# Indices 1 2 3 4 5 6 
#
# 1 0.006464 -0.004215 -0.000957 0.000000 0.000000 0.000000
# 2 -0.004215 0.016697 -0.004271 0.000000 0.000000 0.000000
# 3 -0.000957 -0.004271 0.006807 0.000000 0.000000 0.000000
# 4 0.000000 0.000000 0.000000 0.041934 0.000000 0.000000
# 5 0.000000 0.000000 0.000000 0.000000 0.043690 0.000000
# 6 0.000000 0.000000 0.000000 0.000000 0.000000 0.015425
#
#
# Mechanical properties :
#
#
# Convention : Reuss Voigt Hill
#
# Bulk Modulus (GPa) = 90.23796 105.98053 98.10925
# Shear Modulus (GPa) = 32.55258 41.78042 37.16650
#
# Velocity S-wave (km/s) = 3.70515 4.19759 3.95903
# Velocity P-wave (km/s) = 7.50730 8.25756 7.89135
#
# Compressibility (1/GPa) = 0.01108181
#
# Stress axis : x y z
#
# Youngs Moduli (GPa) = 154.71382 59.89030 146.90171
#
# Poissons Ratio (x) = 0.25242 0.14059
# Poissons Ratio (y) = 0.65207 0.62747
# Poissons Ratio (z) = 0.14807 0.25581
#
# Static dielectric constant tensor:
#      x y z
#    x 1.917010 0.000000 0.000000 
#    y 0.000000 1.825500 0.000000 
#    z 0.000000 0.000000 1.769030 
# 
# From -- ./inp_files/506.got.cif
#   From: 2010.05.17/outbox.cif.g08.bks.cpg/sg21_1_cif.got.tgz:506.got - 2010.06.03 23:14:55.
