data_PCOD9325089
_publ_section_title
;
Structure prediction by ZEFSAII (Michael W. Deem and Ramdas Pophale) SiO2 
 PCOD9325089
Probable space group: C 2 2 2
;
_chemical_formula_sum "Si O2"
_cell_formula_units_Z 28
_cell_length_a 7.764321
_cell_length_b 5.428590
_cell_length_c 26.864585
_cell_angle_alpha 90.000000
_cell_angle_beta 90.000000
_cell_angle_gamma 90.000000
_cell_volume 1132.323865
_symmetry_space_group_name_H-M "C 2 2 2"
_symmetry_group_IT_number 21
_symmetry_cell_setting 'orthorhombic'
loop_
_space_group_symop_operation_xyz
x,y,z
-x,-y,z
x,-y,-z
-x,y,-z
1/2+x,1/2+y,z
1/2-x,1/2-y,z
1/2+x,1/2-y,-z
1/2-x,1/2+y,-z
loop_
_atom_site_type_symbol
_atom_site_label
_atom_site_fract_x
_atom_site_fract_y
_atom_site_fract_z
Si Si1 0.000000 0.500000 0.849778
Si Si2 0.250000 0.750000 0.076628
Si Si3 0.500000 0.000000 0.500000
Si Si4 0.250000 0.750000 0.574855
Si Si5 0.000000 0.500000 0.293254
Si Si6 0.000000 0.000000 0.000000
Si Si7 0.750000 0.750000 0.219541
Si Si8 0.750000 0.250000 0.361643
O O1 0.156191 0.431539 0.885577
O O2 0.081850 0.726137 0.817266
O O3 0.389568 0.654674 0.038280
O O4 0.598552 0.180738 0.537280
O O5 0.271381 0.501604 0.607198
O O6 0.832365 0.557792 0.259015
O O7 0.922667 0.290433 0.328707
#
# Coordination Sequence:
#
# PCOD9325089 Si02
#       8
#     4   4   2   4   4   2   4   4
#     4  11  24  43  67  97 136 181 233 291 360 431
#     4  12  24  42  66  96 134 180 230 292 356 428
#     4  12  30  52  78 114 152 200 250 310 374 444
#     4  12  30  52  80 114 154 200 252 310 374 448
#     4  11  27  46  74 106 146 190 242 302 369 439
#     4  12  24  40  64  96 132 176 232 288 356 428
#     4  10  25  45  70 103 140 185 238 297 361 436
#     4  12  29  51  78 113 152 199 250 309 377 448
#
# _framework density 24.727909
#
# number of rings (size 3 to 8) (size 9 to 14) (size 15 to 20)
#    0.000    0.571    0.000    6.000    0.000   23.429 
#    0.000    0.000    0.000    0.000    0.000    0.000 
#    0.000    0.000    0.000    0.000    0.000    0.000 
#
# Total GULP energy -78039.346024 kJ/mol
# GULP energy per Si atom -5574.239002 kJ/mol
# Density = 2.467163 g / cm^3
# Si number density = 24.727909 Si / 1000 Ang^3
#
#
#
# Elastic Constant Matrix: (Units=GPa)
#
#
# Indices 1 2 3 4 5 6 
#
# 1 102.7528 61.1024 59.5225 0.0000 0.0000 0.0000
# 2 61.1024 143.3201 92.9839 0.0000 0.0000 0.0000
# 3 59.5225 92.9839 170.7795 0.0000 0.0000 0.0000
# 4 0.0000 0.0000 0.0000 76.9527 0.0000 0.0000
# 5 0.0000 0.0000 0.0000 0.0000 471.2030 0.0000
# 6 0.0000 0.0000 0.0000 0.0000 0.0000 57.5362
#
#
#
# Elastic Compliance Matrix: (Units=1/GPa)
#
#
# Indices 1 2 3 4 5 6 
#
# 1 0.013675 -0.004233 -0.002461 0.000000 0.000000 0.000000
# 2 -0.004233 0.012099 -0.005112 0.000000 0.000000 0.000000
# 3 -0.002461 -0.005112 0.009497 0.000000 0.000000 0.000000
# 4 0.000000 0.000000 0.000000 0.012995 0.000000 0.000000
# 5 0.000000 0.000000 0.000000 0.000000 0.002122 0.000000
# 6 0.000000 0.000000 0.000000 0.000000 0.000000 0.017380
#
#
# Mechanical properties :
#
#
# Convention : Reuss Voigt Hill
#
# Bulk Modulus (GPa) = 85.78237 93.78554 89.78396
# Shear Modulus (GPa) = 52.48384 134.68794 93.58589
#
# Velocity S-wave (km/s) = 4.61201 7.38825 6.15861
# Velocity P-wave (km/s) = 7.94523 10.52573 9.32517
#
# Compressibility (1/GPa) = 0.01165741
#
# Stress axis : x y z
#
# Youngs Moduli (GPa) = 73.12445 82.65313 105.30029
#
# Poissons Ratio (x) = 0.34990 0.25918
# Poissons Ratio (y) = 0.30956 0.53829
# Poissons Ratio (z) = 0.17999 0.42252
#
# Static dielectric constant tensor:
#      x y z
#    x 1.928020 0.000000 0.000000 
#    y 0.000000 1.913230 0.000000 
#    z 0.000000 0.000000 1.995690 
# 
# From -- ./inp_files/39188.got.cif
#   From: 2010.05.17/outbox.cif.g08.bks.cpg/sg21_20_cif.got.tgz:39188.got - 2010.06.03 23:14:55.
