data_PCOD9325942
_publ_section_title
;
Structure prediction by ZEFSAII (Michael W. Deem and Ramdas Pophale) SiO2 
 PCOD9325942
Probable space group: F 2 2 2
;
_chemical_formula_sum "Si O2"
_cell_formula_units_Z 120
_cell_length_a 11.388741
_cell_length_b 22.093872
_cell_length_c 26.464983
_cell_angle_alpha 90.000000
_cell_angle_beta 90.000000
_cell_angle_gamma 90.000000
_cell_volume 6659.155700
_symmetry_space_group_name_H-M "F 2 2 2"
_symmetry_group_IT_number 22
_symmetry_cell_setting 'orthorhombic'
loop_
_space_group_symop_operation_xyz
x,y,z
-x,-y,z
x,-y,-z
-x,y,-z
x,1/2+y,1/2+z
-x,1/2-y,1/2+z
x,1/2-y,1/2-z
-x,1/2+y,1/2-z
1/2+x,y,1/2+z
1/2-x,-y,1/2+z
1/2+x,-y,1/2-z
1/2-x,y,1/2-z
1/2+x,1/2+y,z
1/2-x,1/2-y,z
1/2+x,1/2-y,-z
1/2-x,1/2+y,-z
loop_
_atom_site_type_symbol
_atom_site_label
_atom_site_fract_x
_atom_site_fract_y
_atom_site_fract_z
Si Si1 0.987444 0.072653 0.700268
Si Si2 0.651863 0.395820 0.549884
Si Si3 0.583713 0.880075 0.902401
Si Si4 0.307594 0.000000 0.500000
Si Si5 0.008826 0.073328 0.812733
Si Si6 0.682093 0.547965 0.897113
Si Si7 0.621354 0.281047 0.477466
Si Si8 0.755553 0.418893 0.652700
O O1 0.848196 0.083873 0.693446
O O2 0.050703 0.108996 0.655717
O O3 0.036954 0.089956 0.755165
O O4 0.000000 0.000000 0.692613
O O5 0.519628 0.413187 0.566027
O O6 0.724391 0.448135 0.523039
O O7 0.641924 0.337848 0.514767
O O8 0.715720 0.382402 0.603152
O O9 0.707398 0.911440 0.910875
O O10 0.589636 0.811900 0.923566
O O11 0.372902 0.973193 0.450633
O O12 0.098198 0.083443 0.858556
O O13 0.881593 0.098964 0.826470
O O14 0.000000 0.000000 0.811340
O O15 0.728767 0.488171 0.867650
O O16 0.500000 0.250597 0.500000
O O17 0.750000 0.250000 0.474772
#
# Coordination Sequence:
#
# PCOD9325942 Si02
#       8
#    16  16  16   8  16  16  16  16
#     4  10  17  28  50  74 102 143 182 224 261 309
#     4   9  19  31  52  79 106 134 177 220 266 319
#     4  10  19  31  51  78 102 131 183 224 271 314
#     4  10  18  29  51  78 112 144 168 218 266 322
#     4   9  19  30  41  66 111 154 184 207 251 325
#     4  10  18  29  44  71 107 143 178 209 264 318
#     4  10  21  40  57  80 109 139 182 233 277 336
#     4   9  17  30  45  70 106 140 178 215 254 318
#
# _framework density 18.020302999999998
#
# number of rings (size 3 to 8) (size 9 to 14) (size 15 to 20)
#    0.000    2.400    2.667    0.400    0.000    1.067 
#    2.400    8.333    0.000    0.000    0.000    1.867 
#    0.000    1.333    0.000    0.000    0.000    0.000 
#
# Total GULP energy -167017.330596 kJ/mol
# GULP energy per Si atom -5567.244353 kJ/mol
# Density = 1.797929 g / cm^3
# Si number density = 18.020303 Si / 1000 Ang^3
#
#
#
# Elastic Constant Matrix: (Units=GPa)
#
#
# Indices 1 2 3 4 5 6 
#
# 1 94.2864 15.8625 59.7405 0.0000 0.0000 0.0000
# 2 15.8625 13.4160 18.8991 0.0000 0.0000 0.0000
# 3 59.7405 18.8991 138.6049 0.0000 0.0000 0.0000
# 4 0.0000 0.0000 0.0000 9.2431 0.0000 0.0000
# 5 0.0000 0.0000 0.0000 0.0000 20.6777 0.0000
# 6 0.0000 0.0000 0.0000 0.0000 0.0000 21.0083
#
#
#
# Elastic Compliance Matrix: (Units=1/GPa)
#
#
# Indices 1 2 3 4 5 6 
#
# 1 0.015862 -0.011293 -0.005297 0.000000 0.000000 0.000000
# 2 -0.011293 0.100299 -0.008809 0.000000 0.000000 0.000000
# 3 -0.005297 -0.008809 0.010699 0.000000 0.000000 0.000000
# 4 0.000000 0.000000 0.000000 0.108189 0.000000 0.000000
# 5 0.000000 0.000000 0.000000 0.000000 0.048361 0.000000
# 6 0.000000 0.000000 0.000000 0.000000 0.000000 0.047600
#
#
# Mechanical properties :
#
#
# Convention : Reuss Voigt Hill
#
# Bulk Modulus (GPa) = 13.14697 48.36795 30.75746
# Shear Modulus (GPa) = 12.28013 20.30616 16.29315
#
# Velocity S-wave (km/s) = 2.61331 3.36050 3.01018
# Velocity P-wave (km/s) = 4.05183 6.47737 5.40249
#
# Compressibility (1/GPa) = 0.07606313
#
# Stress axis : x y z
#
# Youngs Moduli (GPa) = 63.04360 9.97018 93.46758
#
# Poissons Ratio (x) = 0.11259 0.49509
# Poissons Ratio (y) = 0.71194 0.82333
# Poissons Ratio (z) = 0.33394 0.08782
#
# Static dielectric constant tensor:
#      x y z
#    x 1.670670 0.000000 0.000000 
#    y 0.000000 1.595250 0.000000 
#    z 0.000000 0.000000 1.694130 
# 
# From -- ./inp_files/23103.got.cif
#   From: 2010.05.17/outbox.cif.g08.bks.cpg/sg22_12_cif.got.tgz:23103.got - 2010.06.03 23:40:54.
