data_PCOD9325901
_publ_section_title
;
Structure prediction by ZEFSAII (Michael W. Deem and Ramdas Pophale) SiO2 
 PCOD9325901
Probable space group: F 2 2 2
;
_chemical_formula_sum "Si O2"
_cell_formula_units_Z 88
_cell_length_a 22.833539
_cell_length_b 22.901140
_cell_length_c 9.480748
_cell_angle_alpha 90.000000
_cell_angle_beta 90.000000
_cell_angle_gamma 90.000000
_cell_volume 4957.616555
_symmetry_space_group_name_H-M "F 2 2 2"
_symmetry_group_IT_number 22
_symmetry_cell_setting 'orthorhombic'
loop_
_space_group_symop_operation_xyz
x,y,z
-x,-y,z
x,-y,-z
-x,y,-z
x,1/2+y,1/2+z
-x,1/2-y,1/2+z
x,1/2-y,1/2-z
-x,1/2+y,1/2-z
1/2+x,y,1/2+z
1/2-x,-y,1/2+z
1/2+x,-y,1/2-z
1/2-x,y,1/2-z
1/2+x,1/2+y,z
1/2-x,1/2-y,z
1/2+x,1/2-y,-z
1/2-x,1/2+y,-z
loop_
_atom_site_type_symbol
_atom_site_label
_atom_site_fract_x
_atom_site_fract_y
_atom_site_fract_z
Si Si1 0.958280 0.886160 0.636835
Si Si2 0.399098 0.913897 0.656919
Si Si3 0.270469 0.941516 0.588754
Si Si4 0.646013 0.429622 0.525800
Si Si5 0.000000 0.500000 0.697164
Si Si6 0.979242 0.303263 0.654139
O O1 0.892367 0.893954 0.584642
O O2 0.000000 0.877021 0.500000
O O3 0.971345 0.836725 0.752533
O O4 0.973874 0.948501 0.706550
O O5 0.335412 0.915551 0.586019
O O6 0.384458 0.920661 0.822787
O O7 0.446378 0.964930 0.622242
O O8 0.430752 0.852924 0.631227
O O9 0.250000 0.954093 0.750000
O O10 0.213362 0.908985 0.528513
O O11 0.275337 0.000000 0.500000
O O12 0.645101 0.500000 0.500000
O O13 0.958126 0.250000 0.750000
O O14 0.000000 0.283582 0.500000
#
# Coordination Sequence:
#
# PCOD9325901 Si02
#       6
#    16  16  16  16   8  16
#     4  11  17  31  58  84 111 147 185 235 281 346
#     4  10  20  33  53  82 120 148 193 240 281 349
#     4   9  20  34  51  81 122 163 192 223 273 348
#     4  10  16  31  58  86 115 156 194 215 278 355
#     4  10  17  26  55  88 119 150 189 222 287 344
#     4  11  25  40  56  82 108 146 190 244 306 351
#
# _framework density 17.750465999999999
#
# number of rings (size 3 to 8) (size 9 to 14) (size 15 to 20)
#    0.000    1.818    5.455    0.818    0.000    2.909 
#    0.000    4.091    0.000    4.909    0.000    1.273 
#    0.000    0.000    0.000    0.000    0.000    0.000 
#
# Total GULP energy -122588.377598 kJ/mol
# GULP energy per Si atom -5572.198982 kJ/mol
# Density = 1.771007 g / cm^3
# Si number density = 17.750466 Si / 1000 Ang^3
#
#
#
# Elastic Constant Matrix: (Units=GPa)
#
#
# Indices 1 2 3 4 5 6 
#
# 1 161.2629 22.6209 37.1879 0.0000 0.0001 0.0000
# 2 22.6209 44.5820 26.6666 0.0000 0.0002 0.0000
# 3 37.1879 26.6666 58.9675 0.0000 0.0006 0.0001
# 4 0.0000 0.0000 0.0000 10.1768 0.0000 0.0000
# 5 0.0001 0.0002 0.0006 0.0000 22.7648 -0.0001
# 6 0.0000 0.0000 0.0001 0.0000 -0.0001 3.1536
#
#
#
# Elastic Compliance Matrix: (Units=1/GPa)
#
#
# Indices 1 2 3 4 5 6 
#
# 1 0.007311 -0.001305 -0.004021 0.000000 0.000000 0.000000
# 2 -0.001305 0.030981 -0.013187 0.000000 0.000000 0.000000
# 3 -0.004021 -0.013187 0.025458 0.000000 -0.000001 -0.000001
# 4 0.000000 0.000000 0.000000 0.098263 0.000000 0.000000
# 5 0.000000 0.000000 -0.000001 0.000000 0.043927 0.000002
# 6 0.000000 0.000000 -0.000001 0.000000 0.000002 0.317101
#
#
# Mechanical properties :
#
#
# Convention : Reuss Voigt Hill
#
# Bulk Modulus (GPa) = 37.41967 48.64035 43.03001
# Shear Modulus (GPa) = 8.78774 19.10818 13.94796
#
# Velocity S-wave (km/s) = 2.22743 3.28455 2.80622
# Velocity P-wave (km/s) = 5.26707 6.46886 5.89865
#
# Compressibility (1/GPa) = 0.02672391
#
# Stress axis : x y z
#
# Youngs Moduli (GPa) = 136.77466 32.27826 39.28050
#
# Poissons Ratio (x) = 0.04211 0.15794
# Poissons Ratio (y) = 0.17845 0.51801
# Poissons Ratio (z) = 0.54995 0.42567
#
# Static dielectric constant tensor:
#      x y z
#    x 1.652920 0.000000 0.000000 
#    y 0.000000 1.578720 0.000000 
#    z 0.000000 0.000000 1.664820 
# 
# From -- ./inp_files/13746.got.cif
#   From: 2010.05.17/outbox.cif.g08.bks.cpg/sg22_7_cif.got.tgz:13746.got - 2010.06.03 23:40:54.
