data_PCOD9325229
_publ_section_title
;
Structure prediction by ZEFSAII (Michael W. Deem and Ramdas Pophale) SiO2 
 PCOD9325229
Probable space group: C 2 2 2
;
_chemical_formula_sum "Si O2"
_cell_formula_units_Z 32
_cell_length_a 12.593658
_cell_length_b 18.848913
_cell_length_c 5.873711
_cell_angle_alpha 90.000000
_cell_angle_beta 90.000000
_cell_angle_gamma 90.000000
_cell_volume 1394.282510
_symmetry_space_group_name_H-M "C 2 2 2"
_symmetry_group_IT_number 21
_symmetry_cell_setting 'orthorhombic'
loop_
_space_group_symop_operation_xyz
x,y,z
-x,-y,z
x,-y,-z
-x,y,-z
1/2+x,1/2+y,z
1/2-x,1/2-y,z
1/2+x,1/2-y,-z
1/2-x,1/2+y,-z
loop_
_atom_site_type_symbol
_atom_site_label
_atom_site_fract_x
_atom_site_fract_y
_atom_site_fract_z
Si Si1 0.887553 0.797194 0.190206
Si Si2 0.699292 0.000000 0.000000
Si Si3 0.750000 0.250000 0.411588
Si Si4 0.819935 0.000000 0.500000
Si Si5 0.000000 0.881954 0.500000
Si Si6 0.827442 0.656525 0.967703
O O1 0.831701 0.791187 0.433954
O O2 0.993062 0.837693 0.261576
O O3 0.891793 0.715933 0.108117
O O4 0.797107 0.836786 0.045533
O O5 0.759187 0.000560 0.748325
O O6 0.639654 0.924256 0.992274
O O7 0.818277 0.308139 0.277663
O O8 0.897931 0.067283 0.498484
#
# Coordination Sequence:
#
# PCOD9325229 Si02
#       6
#     8   4   4   4   4   8
#     4   9  18  35  52  81 112 160 203 247 295 370
#     4  12  22  41  58  88 127 156 208 250 306 369
#     4   8  16  34  54  74 106 150 208 242 284 356
#     4  11  26  36  58  90 128 171 182 247 324 380
#     4  11  20  38  54  88 133 160 202 238 323 390
#     4   9  19  33  55  79 110 157 211 249 296 350
#
# _framework density 22.950873000000001
#
# number of rings (size 3 to 8) (size 9 to 14) (size 15 to 20)
#    0.000    2.750    2.500    1.500    3.500    2.000 
#    9.000    0.000    0.000    0.000    0.000    5.250 
#    0.000    0.000    0.000    0.000    0.000    0.000 
#
# Total GULP energy -89109.077037 kJ/mol
# GULP energy per Si atom -5569.317315 kJ/mol
# Density = 2.289864 g / cm^3
# Si number density = 22.950873 Si / 1000 Ang^3
#
#
#
# Elastic Constant Matrix: (Units=GPa)
#
#
# Indices 1 2 3 4 5 6 
#
# 1 47.4636 12.7972 17.7073 0.0000 0.0000 0.0000
# 2 12.7972 189.6532 13.9037 0.0000 0.0000 0.0000
# 3 17.7073 13.9037 98.6099 0.0000 0.0000 0.0000
# 4 0.0000 0.0000 0.0000 21.2980 0.0000 0.0000
# 5 0.0000 0.0000 0.0000 0.0000 31.3699 0.0000
# 6 0.0000 0.0000 0.0000 0.0000 0.0000 9.9139
#
#
#
# Elastic Compliance Matrix: (Units=1/GPa)
#
#
# Indices 1 2 3 4 5 6 
#
# 1 0.022874 -0.001255 -0.003930 0.000000 0.000000 0.000000
# 2 -0.001255 0.005397 -0.000536 0.000000 0.000000 0.000000
# 3 -0.003930 -0.000536 0.010922 0.000000 0.000000 0.000000
# 4 0.000000 0.000000 0.000000 0.046953 0.000000 0.000000
# 5 0.000000 0.000000 0.000000 0.000000 0.031878 0.000000
# 6 0.000000 0.000000 0.000000 0.000000 0.000000 0.100868
#
#
# Mechanical properties :
#
#
# Convention : Reuss Voigt Hill
#
# Bulk Modulus (GPa) = 36.03586 47.17146 41.60366
# Shear Modulus (GPa) = 20.86951 31.93758 26.40355
#
# Velocity S-wave (km/s) = 3.01875 3.73441 3.39549
# Velocity P-wave (km/s) = 5.28071 6.26038 5.79129
#
# Compressibility (1/GPa) = 0.02775014
#
# Stress axis : x y z
#
# Youngs Moduli (GPa) = 43.71865 185.29691 91.55617
#
# Poissons Ratio (x) = 0.23260 0.35985
# Poissons Ratio (y) = 0.05488 0.04903
# Poissons Ratio (z) = 0.17183 0.09923
#
# Static dielectric constant tensor:
#      x y z
#    x 2.049270 0.000000 0.000000 
#    y 0.000000 2.003760 0.000000 
#    z 0.000000 0.000000 2.098830 
# 
# From -- ./inp_files/3552.got.cif
#   From: 2010.05.17/outbox.cif.g08.bks.cpg/sg21_2_cif.got.tgz:3552.got - 2010.06.03 23:14:55.
