data_PCOD9325840
_publ_section_title
;
Structure prediction by ZEFSAII (Michael W. Deem and Ramdas Pophale) SiO2 
 PCOD9325840
Probable space group: C 2 2 2
;
_chemical_formula_sum "Si O2"
_cell_formula_units_Z 28
_cell_length_a 15.000000
_cell_length_b 9.000000
_cell_length_c 21.000000
_cell_angle_alpha 90.000000
_cell_angle_beta 90.000000
_cell_angle_gamma 90.000000
_cell_volume 2835.000000
_symmetry_space_group_name_H-M "C 2 2 2"
_symmetry_group_IT_number 21
_symmetry_cell_setting 'orthorhombic'
loop_
_space_group_symop_operation_xyz
x,y,z
-x,-y,z
x,-y,-z
-x,y,-z
1/2+x,1/2+y,z
1/2-x,1/2-y,z
1/2+x,1/2-y,-z
1/2-x,1/2+y,-z
loop_
_atom_site_type_symbol
_atom_site_label
_atom_site_fract_x
_atom_site_fract_y
_atom_site_fract_z
Si Si1 0.840006 0.827382 0.375843
Si Si2 0.892796 0.672344 0.504973
Si Si3 0.495810 0.169818 0.147592
Si Si4 0.157989 0.181117 0.639052
Si Si5 0.345752 0.674787 0.078775
Si Si6 0.994814 0.671565 0.297770
Si Si7 0.845785 0.175569 0.932490
O O1 0.750000 0.750000 0.353111
O O2 0.855623 0.772522 0.448009
O O3 0.918387 0.757124 0.334820
O O4 0.838159 0.004432 0.369560
O O5 0.862811 0.500000 0.500000
O O6 0.864114 0.742912 0.571356
O O7 0.000000 0.673351 0.500000
O O8 0.584902 0.255190 0.127360
O O9 0.480643 0.169138 0.222790
O O10 0.415076 0.250324 0.113812
O O11 0.500000 0.000000 0.125219
O O12 0.250000 0.250000 0.661653
O O13 0.083085 0.237061 0.686751
O O14 0.250000 0.750000 0.086776
O O15 0.338748 0.497900 0.083361
O O16 0.375873 0.699824 0.005591
O O17 0.000000 0.500000 0.321044
O O18 0.750000 0.250000 0.926348
#
# Coordination Sequence:
#
# PCOD9325840 Si02
#       7
#     8   8   8   8   8   8   8
#     4  12  25  42  66  93 123 160 204 251 305 364
#     4  11  22  39  66  94 127 161 195 249 308 360
#     4  11  24  40  62  89 122 163 204 250 303 362
#     4  12  25  42  66  93 123 160 204 251 305 364
#     4  10  21  38  62  92 125 160 201 250 302 358
#     4  11  25  45  63  87 122 161 207 254 303 359
#     4  10  21  38  62  92 125 160 201 250 302 358
#
# _framework density 9.8765429999999999
#
# number of rings (size 3 to 8) (size 9 to 14) (size 15 to 20)
#    0.000    1.000    1.429    5.571    0.000    7.429 
#    0.000    0.000    0.000    0.000    0.000    0.000 
#    0.000    0.000    0.000    0.000    0.000    0.000 
#
# Total GULP energy -156592.678797 kJ/mol
# GULP energy per Si atom -5592.595671 kJ/mol
# Density = 0.985406 g / cm^3
# Si number density = 9.876543 Si / 1000 Ang^3
#
#
#
# Elastic Constant Matrix: (Units=GPa)
#
#
# Indices 1 2 3 4 5 6 
#
# 1 49.3518 -6.3199 -1.3732 0.0000 0.0000 0.0000
# 2 -6.3199 105.7528 10.8322 0.0000 0.0000 0.0000
# 3 -1.3732 10.8322 27.4592 0.0000 0.0000 0.0000
# 4 0.0000 0.0000 0.0000 44.8604 0.0000 0.0000
# 5 0.0000 0.0000 0.0000 0.0000 132.2460 0.0000
# 6 0.0000 0.0000 0.0000 0.0000 0.0000 30.4154
#
#
#
# Elastic Compliance Matrix: (Units=1/GPa)
#
#
# Indices 1 2 3 4 5 6 
#
# 1 0.020427 0.001163 0.000563 0.000000 0.000000 0.000000
# 2 0.001163 0.009920 -0.003855 0.000000 0.000000 0.000000
# 3 0.000563 -0.003855 0.037967 0.000000 0.000000 0.000000
# 4 0.000000 0.000000 0.000000 0.022291 0.000000 0.000000
# 5 0.000000 0.000000 0.000000 0.000000 0.007562 0.000000
# 6 0.000000 0.000000 0.000000 0.000000 0.000000 0.032878
#
#
# Mechanical properties :
#
#
# Convention : Reuss Voigt Hill
#
# Bulk Modulus (GPa) = 15.61145 20.98244 18.29695
# Shear Modulus (GPa) = 31.91699 53.46600 42.69149
#
# Velocity S-wave (km/s) = 4.02406 5.20826 4.65398
# Velocity P-wave (km/s) = 5.43242 6.84203 6.17756
#
# Compressibility (1/GPa) = 0.06405554
#
# Stress axis : x y z
#
# Youngs Moduli (GPa) = 48.95407 100.80222 26.33885
#
# Poissons Ratio (x) = -0.11725 -0.01482
# Poissons Ratio (y) = -0.05694 0.10154
# Poissons Ratio (z) = -0.02755 0.38862
#
# Static dielectric constant tensor:
#      x y z
#    x 1.628970 0.000000 0.000000 
#    y 0.000000 1.647450 0.000000 
#    z 0.000000 0.000000 1.684550 
# 
# From -- ./inp_files/37596.got.cif
#   From: 2010.05.17/outbox.ucp.g08.bks.cvg/sg21_19_cif.got.tgz:37596.got - 2010.06.11 15:15:05.
