data_PCOD9325515
_publ_section_title
;
Structure prediction by ZEFSAII (Michael W. Deem and Ramdas Pophale) SiO2 
 PCOD9325515
Probable space group: C 2 2 2
;
_chemical_formula_sum "Si O2"
_cell_formula_units_Z 32
_cell_length_a 7.323033
_cell_length_b 13.691320
_cell_length_c 13.969310
_cell_angle_alpha 90.000000
_cell_angle_beta 90.000000
_cell_angle_gamma 90.000000
_cell_volume 1400.590794
_symmetry_space_group_name_H-M "C 2 2 2"
_symmetry_group_IT_number 21
_symmetry_cell_setting 'orthorhombic'
loop_
_space_group_symop_operation_xyz
x,y,z
-x,-y,z
x,-y,-z
-x,y,-z
1/2+x,1/2+y,z
1/2-x,1/2-y,z
1/2+x,1/2-y,-z
1/2-x,1/2+y,-z
loop_
_atom_site_type_symbol
_atom_site_label
_atom_site_fract_x
_atom_site_fract_y
_atom_site_fract_z
Si Si1 0.000000 0.000000 0.000000
Si Si2 0.516733 0.657549 0.360087
Si Si3 0.694584 0.636756 0.154750
Si Si4 0.000000 0.000000 0.500000
Si Si5 0.407957 0.862174 0.401936
Si Si6 0.000000 0.500000 0.236143
O O1 0.105056 0.924152 0.930901
O O2 0.563647 0.636676 0.249627
O O3 0.603199 0.571772 0.424847
O O4 0.546595 0.772742 0.375577
O O5 0.309364 0.657954 0.403196
O O6 0.750000 0.750000 0.135110
O O7 0.871648 0.571941 0.178152
O O8 0.500000 0.897575 0.500000
O O9 0.398880 0.930792 0.310165
#
# Coordination Sequence:
#
# PCOD9325515 Si02
#       6
#     2   8   8   2   8   4
#     4  12  30  54  84 112 152 190 254 340 428 486
#     4  11  25  43  67 104 160 208 253 322 386 453
#     4  12  28  55  80 116 154 201 261 335 410 487
#     4  12  22  36  66 100 156 216 260 296 372 450
#     4  11  24  41  67 108 157 214 263 307 372 460
#     4  12  25  45  80 106 152 198 264 314 394 464
#
# _framework density 22.8475
#
# number of rings (size 3 to 8) (size 9 to 14) (size 15 to 20)
#    0.000    0.500    3.750    4.125    7.000    2.500 
#    4.500    0.000    0.000    0.000    0.000    0.000 
#    0.000    0.000    0.000    0.000    0.000    0.000 
#
# Total GULP energy -89113.077934 kJ/mol
# GULP energy per Si atom -5569.567371 kJ/mol
# Density = 2.279550 g / cm^3
# Si number density = 22.847500 Si / 1000 Ang^3
#
#
#
# Elastic Constant Matrix: (Units=GPa)
#
#
# Indices 1 2 3 4 5 6 
#
# 1 93.4106 42.7533 45.2846 0.0000 0.0000 0.0000
# 2 42.7533 200.9823 89.2334 0.0000 0.0000 0.0000
# 3 45.2846 89.2334 156.8874 0.0000 0.0000 0.0000
# 4 0.0000 0.0000 0.0000 236.1879 0.0000 0.0000
# 5 0.0000 0.0000 0.0000 0.0000 -6.2499 0.0000
# 6 0.0000 0.0000 0.0000 0.0000 0.0000 28.8707
#
#
#
# Elastic Compliance Matrix: (Units=1/GPa)
#
#
# Indices 1 2 3 4 5 6 
#
# 1 0.012752 -0.001443 -0.002860 0.000000 0.000000 0.000000
# 2 -0.001443 0.006820 -0.003462 0.000000 0.000000 0.000000
# 3 -0.002860 -0.003462 0.009169 0.000000 0.000000 0.000000
# 4 0.000000 0.000000 0.000000 0.004234 0.000000 0.000000
# 5 0.000000 0.000000 0.000000 0.000000 -0.160002 0.000000
# 6 0.000000 0.000000 0.000000 0.000000 0.000000 0.034637
#
#
# Mechanical properties :
#
#
# Convention : Reuss Voigt Hill
#
# Bulk Modulus (GPa) = 75.69978 89.53587 82.61782
# Shear Modulus (GPa) = -69.00802 70.02901 0.51050
#
# Velocity S-wave (km/s) = -5.50176 5.54231 0.47320
# Velocity P-wave (km/s) = 2.67480 8.95711 6.04464
#
# Compressibility (1/GPa) = 0.01321008
#
# Stress axis : x y z
#
# Youngs Moduli (GPa) = 78.41653 146.63291 109.06378
#
# Poissons Ratio (x) = 0.21156 0.31195
# Poissons Ratio (y) = 0.11314 0.37763
# Poissons Ratio (z) = 0.22429 0.50771
#
# Static dielectric constant tensor:
#      x y z
#    x 0.446610 0.000000 0.000000 
#    y 0.000000 2.132360 0.000000 
#    z 0.000000 0.000000 1.833440 
# 
# From -- ./inp_files/22052.got.cif
#   From: 2010.05.17/outbox.cif.g08.bks.cpg/sg21_12_cif.got.tgz:22052.got - 2010.06.03 23:14:55.
