data_PCOD9325762
_publ_section_title
;
Structure prediction by ZEFSAII (Michael W. Deem and Ramdas Pophale) SiO2 
 PCOD9325762
Probable space group: C 2 2 2
;
_chemical_formula_sum "Si O2"
_cell_formula_units_Z 20
_cell_length_a 4.713461
_cell_length_b 19.547064
_cell_length_c 8.521468
_cell_angle_alpha 90.000000
_cell_angle_beta 90.000000
_cell_angle_gamma 90.000000
_cell_volume 785.119692
_symmetry_space_group_name_H-M "C 2 2 2"
_symmetry_group_IT_number 21
_symmetry_cell_setting 'orthorhombic'
loop_
_space_group_symop_operation_xyz
x,y,z
-x,-y,z
x,-y,-z
-x,y,-z
1/2+x,1/2+y,z
1/2-x,1/2-y,z
1/2+x,1/2-y,-z
1/2-x,1/2+y,-z
loop_
_atom_site_type_symbol
_atom_site_label
_atom_site_fract_x
_atom_site_fract_y
_atom_site_fract_z
Si Si1 0.000000 0.000000 0.000000
Si Si2 0.500000 0.000000 0.500000
Si Si3 0.100511 0.177661 0.317706
Si Si4 0.862867 0.593618 0.770166
O O1 0.780835 0.952969 0.901824
O O2 0.681299 0.951662 0.613522
O O3 0.250000 0.250000 0.298260
O O4 0.313613 0.118385 0.254306
O O5 0.000000 0.173120 0.500000
O O6 0.812398 0.163632 0.226275
#
# Coordination Sequence:
#
# PCOD9325762 Si02
#       4
#     2   2   8   8
#     4  12  32  52  76 122 180 208 264 316 428 472
#     4  12  24  48  80 114 152 216 276 324 392 464
#     4  12  24  47  79 119 155 201 270 345 392 460
#     4  12  27  47  79 114 164 212 260 337 389 491
#
# _framework density 25.473825999999999
#
# number of rings (size 3 to 8) (size 9 to 14) (size 15 to 20)
#    0.000    0.000    4.000    6.000    0.000    8.800 
#    0.000    4.000    0.000    0.000    0.000    0.000 
#    0.000    0.000    0.000    0.000    0.000    0.000 
#
# Total GULP energy -55889.840983 kJ/mol
# GULP energy per Si atom -5588.984098 kJ/mol
# Density = 2.541585 g / cm^3
# Si number density = 25.473826 Si / 1000 Ang^3
#
#
#
# Elastic Constant Matrix: (Units=GPa)
#
#
# Indices 1 2 3 4 5 6 
#
# 1 155.5395 48.3211 42.5865 0.0000 0.0000 0.0000
# 2 48.3211 142.1487 55.1294 0.0000 0.0000 0.0000
# 3 42.5865 55.1294 116.4469 0.0000 0.0000 0.0000
# 4 0.0000 0.0000 0.0000 12.2480 0.0000 0.0000
# 5 0.0000 0.0000 0.0000 0.0000 43.2666 0.0000
# 6 0.0000 0.0000 0.0000 0.0000 0.0000 48.2303
#
#
#
# Elastic Compliance Matrix: (Units=1/GPa)
#
#
# Indices 1 2 3 4 5 6 
#
# 1 0.007511 -0.001823 -0.001884 0.000000 0.000000 0.000000
# 2 -0.001823 0.009059 -0.003622 0.000000 0.000000 0.000000
# 3 -0.001884 -0.003622 0.010992 0.000000 0.000000 0.000000
# 4 0.000000 0.000000 0.000000 0.081646 0.000000 0.000000
# 5 0.000000 0.000000 0.000000 0.000000 0.023113 0.000000
# 6 0.000000 0.000000 0.000000 0.000000 0.000000 0.020734
#
#
# Mechanical properties :
#
#
# Convention : Reuss Voigt Hill
#
# Bulk Modulus (GPa) = 77.49551 78.46768 77.98160
# Shear Modulus (GPa) = 29.06734 38.62218 33.84476
#
# Velocity S-wave (km/s) = 3.38163 3.89800 3.64896
# Velocity P-wave (km/s) = 6.76276 7.15048 6.95932
#
# Compressibility (1/GPa) = 0.01290397
#
# Stress axis : x y z
#
# Youngs Moduli (GPa) = 133.13202 110.38346 90.97848
#
# Poissons Ratio (x) = 0.20119 0.17142
# Poissons Ratio (y) = 0.24265 0.32956
# Poissons Ratio (z) = 0.25084 0.39985
#
# Static dielectric constant tensor:
#      x y z
#    x 2.036830 0.000000 0.000000 
#    y 0.000000 2.005850 0.000000 
#    z 0.000000 0.000000 2.045640 
# 
# From -- ./inp_files/8454.got.cif
#   From: 2010.05.17/outbox.cif.g08.bks.cpg/sg21_5_cif.got.tgz:8454.got - 2010.06.03 23:14:55.
