data_PCOD9325386
_publ_section_title
;
Structure prediction by ZEFSAII (Michael W. Deem and Ramdas Pophale) SiO2 
 PCOD9325386
Probable space group: C 2 2 2
;
_chemical_formula_sum "Si O2"
_cell_formula_units_Z 18
_cell_length_a 4.646615
_cell_length_b 28.666050
_cell_length_c 5.918693
_cell_angle_alpha 90.000000
_cell_angle_beta 90.000000
_cell_angle_gamma 90.000000
_cell_volume 788.370487
_symmetry_space_group_name_H-M "C 2 2 2"
_symmetry_group_IT_number 21
_symmetry_cell_setting 'orthorhombic'
loop_
_space_group_symop_operation_xyz
x,y,z
-x,-y,z
x,-y,-z
-x,y,-z
1/2+x,1/2+y,z
1/2-x,1/2-y,z
1/2+x,1/2-y,-z
1/2-x,1/2+y,-z
loop_
_atom_site_type_symbol
_atom_site_label
_atom_site_fract_x
_atom_site_fract_y
_atom_site_fract_z
Si Si1 0.500000 0.652024 0.000000
Si Si2 0.257380 0.424945 0.667156
Si Si3 0.500000 0.216970 0.000000
Si Si4 0.000000 0.500000 0.000000
O O1 0.364162 0.619207 0.190293
O O2 0.236528 0.682168 0.891314
O O3 0.500000 0.442458 0.500000
O O4 0.000000 0.412132 0.500000
O O5 0.176105 0.465380 0.840431
O O6 0.750000 0.250000 0.117595
#
# Coordination Sequence:
#
# PCOD9325386 Si02
#       4
#     4   8   4   2
#     4  11  22  43  67  99 138 177 225 277 338 403
#     4  12  27  44  68  99 137 184 231 280 333 395
#     4   9  19  38  72 102 130 176 218 270 347 409
#     4  12  28  46  66 100 140 182 236 282 330 388
#
# _framework density 22.831901999999999
#
# number of rings (size 3 to 8) (size 9 to 14) (size 15 to 20)
#    0.000    0.889    0.000    7.333    0.000   13.333 
#    0.000    0.000    0.000   74.667    0.000    0.000 
#    0.000    0.000    0.000    0.000    0.000    0.000 
#
# Total GULP energy -50169.566334 kJ/mol
# GULP energy per Si atom -5574.396259 kJ/mol
# Density = 2.277994 g / cm^3
# Si number density = 22.831902 Si / 1000 Ang^3
#
#
#
# Elastic Constant Matrix: (Units=GPa)
#
#
# Indices 1 2 3 4 5 6 
#
# 1 210.1983 93.9103 80.3315 0.0000 0.0000 0.0000
# 2 93.9103 145.2343 58.6742 0.0000 0.0000 0.0000
# 3 80.3315 58.6742 125.6047 0.0000 0.0000 0.0000
# 4 0.0000 0.0000 0.0000 -4.4635 0.0000 0.0000
# 5 0.0000 0.0000 0.0000 0.0000 50.0324 0.0000
# 6 0.0000 0.0000 0.0000 0.0000 0.0000 3.6474
#
#
#
# Elastic Compliance Matrix: (Units=1/GPa)
#
#
# Indices 1 2 3 4 5 6 
#
# 1 0.007585 -0.003630 -0.003155 0.000000 0.000000 0.000000
# 2 -0.003630 0.010224 -0.002455 0.000000 0.000000 0.000000
# 3 -0.003155 -0.002455 0.011126 0.000000 0.000000 0.000000
# 4 0.000000 0.000000 0.000000 -0.224039 0.000000 0.000000
# 5 0.000000 0.000000 0.000000 0.000000 0.019987 0.000000
# 6 0.000000 0.000000 0.000000 0.000000 0.000000 0.274168
#
#
# Mechanical properties :
#
#
# Convention : Reuss Voigt Hill
#
# Bulk Modulus (GPa) = 95.64157 105.20768 100.42463
# Shear Modulus (GPa) = 41.31672 26.38468 33.85070
#
# Velocity S-wave (km/s) = 4.25856 3.40311 3.85464
# Velocity P-wave (km/s) = 8.13393 7.84989 7.99317
#
# Compressibility (1/GPa) = 0.01045570
#
# Stress axis : x y z
#
# Youngs Moduli (GPa) = 131.83907 97.80793 89.87785
#
# Poissons Ratio (x) = 0.35502 0.28361
# Poissons Ratio (y) = 0.47854 0.22061
# Poissons Ratio (z) = 0.41601 0.24008
#
# Static dielectric constant tensor:
#      x y z
#    x 2.116880 0.000000 0.000000 
#    y 0.000000 1.946170 0.000000 
#    z 0.000000 0.000000 1.791920 
# 
# From -- ./inp_files/567.got.cif
#   From: 2010.05.17/outbox.cif.g08.bks.cpg/sg21_1_cif.got.tgz:567.got - 2010.06.03 23:14:55.
