data_PCOD9325496
_publ_section_title
;
Structure prediction by ZEFSAII (Michael W. Deem and Ramdas Pophale) SiO2 
 PCOD9325496
Probable space group: C 2 2 2
;
_chemical_formula_sum "Si O2"
_cell_formula_units_Z 40
_cell_length_a 9.835608
_cell_length_b 22.671064
_cell_length_c 8.556600
_cell_angle_alpha 90.000000
_cell_angle_beta 90.000000
_cell_angle_gamma 90.000000
_cell_volume 1907.982314
_symmetry_space_group_name_H-M "C 2 2 2"
_symmetry_group_IT_number 21
_symmetry_cell_setting 'orthorhombic'
loop_
_space_group_symop_operation_xyz
x,y,z
-x,-y,z
x,-y,-z
-x,y,-z
1/2+x,1/2+y,z
1/2-x,1/2-y,z
1/2+x,1/2-y,-z
1/2-x,1/2+y,-z
loop_
_atom_site_type_symbol
_atom_site_label
_atom_site_fract_x
_atom_site_fract_y
_atom_site_fract_z
Si Si1 0.589179 0.247363 0.156207
Si Si2 0.957637 0.870236 0.678781
Si Si3 0.217648 0.558540 0.192994
Si Si4 0.778770 0.078035 0.831250
Si Si5 0.518615 0.128230 0.685707
O O1 0.750000 0.250000 0.120403
O O2 0.555964 0.303630 0.262479
O O3 0.547077 0.187528 0.244329
O O4 0.500000 0.250923 0.000000
O O5 0.069778 0.903038 0.785547
O O6 0.000000 0.872355 0.500000
O O7 0.815216 0.903347 0.697676
O O8 0.251669 0.490021 0.212359
O O9 0.064208 0.574341 0.236287
O O10 0.250022 0.579565 0.016462
O O11 0.673629 0.120064 0.740161
O O12 0.500000 0.126973 0.500000
#
# Coordination Sequence:
#
# PCOD9325496 Si02
#       5
#     8   8   8   8   8
#     4  12  27  48  74 100 134 179 230 280 338 413
#     4  12  26  44  69 102 139 176 223 284 343 400
#     4  11  23  46  67 102 137 181 231 273 330 407
#     4  11  25  42  73  98 137 183 227 277 332 403
#     4  12  26  44  69 102 139 176 223 284 343 400
#
# _framework density 20.964556000000002
#
# number of rings (size 3 to 8) (size 9 to 14) (size 15 to 20)
#    0.000    0.400    2.000    6.600    2.800    8.000 
#    0.000    0.000    0.000    0.000    0.000    0.000 
#    0.000    0.000    0.000    0.000    0.000    0.000 
#
# Total GULP energy -112047.657190 kJ/mol
# GULP energy per Si atom -5602.382859 kJ/mol
# Density = 2.091684 g / cm^3
# Si number density = 20.964556 Si / 1000 Ang^3
#
#
#
# Elastic Constant Matrix: (Units=GPa)
#
#
# Indices 1 2 3 4 5 6 
#
# 1 37.7145 -7.7075 -13.1388 0.0000 0.0000 0.0000
# 2 -7.7075 83.2513 22.0245 0.0000 0.0000 0.0000
# 3 -13.1388 22.0245 91.6988 0.0000 0.0000 0.0000
# 4 0.0000 0.0000 0.0000 -203.8866 0.0000 0.0000
# 5 0.0000 0.0000 0.0000 0.0000 35.5801 0.0000
# 6 0.0000 0.0000 0.0000 0.0000 0.0000 36.0700
#
#
#
# Elastic Compliance Matrix: (Units=1/GPa)
#
#
# Indices 1 2 3 4 5 6 
#
# 1 0.028117 0.001642 0.003634 0.000000 0.000000 0.000000
# 2 0.001642 0.012923 -0.002869 0.000000 0.000000 0.000000
# 3 0.003634 -0.002869 0.012115 0.000000 0.000000 0.000000
# 4 0.000000 0.000000 0.000000 -0.004905 0.000000 0.000000
# 5 0.000000 0.000000 0.000000 0.000000 0.028106 0.000000
# 6 0.000000 0.000000 0.000000 0.000000 0.000000 0.027724
#
#
# Mechanical properties :
#
#
# Convention : Reuss Voigt Hill
#
# Bulk Modulus (GPa) = 17.25061 23.89121 20.57091
# Shear Modulus (GPa) = 42.16298 -12.34821 14.90739
#
# Velocity S-wave (km/s) = 4.48946 -2.42957 2.66949
# Velocity P-wave (km/s) = 5.92621 1.88423 4.39717
#
# Compressibility (1/GPa) = 0.05796895
#
# Stress axis : x y z
#
# Youngs Moduli (GPa) = 35.56616 77.38320 82.54229
#
# Poissons Ratio (x) = -0.12703 -0.29999
# Poissons Ratio (y) = -0.05838 0.23678
# Poissons Ratio (z) = -0.12926 0.22198
#
# Static dielectric constant tensor:
#      x y z
#    x 1.714960 0.000000 0.000000 
#    y 0.000000 1.721430 0.000000 
#    z 0.000000 0.000000 1.717260 
# 
# From -- ./inp_files/10967.got.cif
#   From: 2010.05.17/outbox.cif.g08.bks.cpg/sg21_6_cif.got.tgz:10967.got - 2010.06.03 23:14:55.
