data_PCOD9325728
_publ_section_title
;
Structure prediction by ZEFSAII (Michael W. Deem and Ramdas Pophale) SiO2 
 PCOD9325728
Probable space group: C 2 2 2
;
_chemical_formula_sum "Si O2"
_cell_formula_units_Z 34
_cell_length_a 14.122670
_cell_length_b 6.137178
_cell_length_c 18.410048
_cell_angle_alpha 90.000000
_cell_angle_beta 90.000000
_cell_angle_gamma 90.000000
_cell_volume 1595.660343
_symmetry_space_group_name_H-M "C 2 2 2"
_symmetry_group_IT_number 21
_symmetry_cell_setting 'orthorhombic'
loop_
_space_group_symop_operation_xyz
x,y,z
-x,-y,z
x,-y,-z
-x,y,-z
1/2+x,1/2+y,z
1/2-x,1/2-y,z
1/2+x,1/2-y,-z
1/2-x,1/2+y,-z
loop_
_atom_site_type_symbol
_atom_site_label
_atom_site_fract_x
_atom_site_fract_y
_atom_site_fract_z
Si Si1 0.394292 0.917211 0.857728
Si Si2 0.250000 0.750000 0.192365
Si Si3 0.893416 0.921065 0.267329
Si Si4 0.000000 0.500000 0.500000
Si Si5 0.250000 0.750000 0.965456
Si Si6 0.142224 0.169606 0.434319
O O1 0.386640 0.802561 0.778482
O O2 0.345320 0.757515 0.915600
O O3 0.500000 0.000000 0.872536
O O4 0.325861 0.123652 0.855237
O O5 0.312310 0.582113 0.238718
O O6 0.878910 0.910132 0.353465
O O7 0.000000 0.000000 0.252053
O O8 0.931629 0.640758 0.450132
O O9 0.251229 0.500000 0.000000
O O10 0.250000 0.250000 0.437387
O O11 0.128688 0.000000 0.500000
#
# Coordination Sequence:
#
# PCOD9325728 Si02
#       6
#     8   4   8   2   4   8
#     4  12  26  48  78 116 149 203 255 314 382 462
#     4  12  23  46  74 109 158 190 244 330 373 454
#     4  12  26  43  76 111 150 195 258 319 387 454
#     4  12  26  48  72  92 160 188 260 320 384 472
#     4  12  29  54  84 117 168 212 256 322 399 484
#     4  12  27  46  69 105 145 203 253 316 394 465
#
# _framework density 21.307791000000002
#
# number of rings (size 3 to 8) (size 9 to 14) (size 15 to 20)
#    0.000    0.000    5.882    3.882    3.294    4.235 
#    0.000    3.529    0.000    0.000    0.000    0.000 
#    0.000    0.000    0.000    0.000    0.000    0.000 
#
# Total GULP energy -95000.851201 kJ/mol
# GULP energy per Si atom -5588.285365 kJ/mol
# Density = 2.125929 g / cm^3
# Si number density = 21.307791 Si / 1000 Ang^3
#
#
#
# Elastic Constant Matrix: (Units=GPa)
#
#
# Indices 1 2 3 4 5 6 
#
# 1 205.6655 62.1406 35.7000 0.0000 0.0000 0.0000
# 2 62.1406 88.6680 37.0264 0.0000 0.0000 0.0000
# 3 35.7000 37.0264 97.3677 0.0000 0.0000 0.0000
# 4 0.0000 0.0000 0.0000 40.8232 0.0000 0.0000
# 5 0.0000 0.0000 0.0000 0.0000 9.5601 0.0000
# 6 0.0000 0.0000 0.0000 0.0000 0.0000 50.5278
#
#
#
# Elastic Compliance Matrix: (Units=1/GPa)
#
#
# Indices 1 2 3 4 5 6 
#
# 1 0.006213 -0.004045 -0.000740 0.000000 0.000000 0.000000
# 2 -0.004045 0.016041 -0.004617 0.000000 0.000000 0.000000
# 3 -0.000740 -0.004617 0.012297 0.000000 0.000000 0.000000
# 4 0.000000 0.000000 0.000000 0.024496 0.000000 0.000000
# 5 0.000000 0.000000 0.000000 0.000000 0.104602 0.000000
# 6 0.000000 0.000000 0.000000 0.000000 0.000000 0.019791
#
#
# Mechanical properties :
#
#
# Convention : Reuss Voigt Hill
#
# Bulk Modulus (GPa) = 63.50156 73.49281 68.49718
# Shear Modulus (GPa) = 24.09727 37.30450 30.70088
#
# Velocity S-wave (km/s) = 3.36655 4.18873 3.79994
# Velocity P-wave (km/s) = 6.70659 7.61314 7.17420
#
# Compressibility (1/GPa) = 0.01574765
#
# Stress axis : x y z
#
# Youngs Moduli (GPa) = 160.95506 62.34051 81.31954
#
# Poissons Ratio (x) = 0.25219 0.06015
# Poissons Ratio (y) = 0.65111 0.37543
# Poissons Ratio (z) = 0.11905 0.28781
#
# Static dielectric constant tensor:
#      x y z
#    x 1.728900 0.000000 0.000000 
#    y 0.000000 1.884750 0.000000 
#    z 0.000000 0.000000 1.887280 
# 
# From -- ./inp_files/36509.got.cif
#   From: 2010.05.17/outbox.cif.g08.bks.cpg/sg21_19_cif.got.tgz:36509.got - 2010.06.03 23:14:55.
