data_PCOD9325364
_publ_section_title
;
Structure prediction by ZEFSAII (Michael W. Deem and Ramdas Pophale) SiO2 
 PCOD9325364
Probable space group: C 2 2 2
;
_chemical_formula_sum "Si O2"
_cell_formula_units_Z 34
_cell_length_a 16.127018
_cell_length_b 9.037520
_cell_length_c 10.894204
_cell_angle_alpha 90.000000
_cell_angle_beta 90.000000
_cell_angle_gamma 90.000000
_cell_volume 1587.811143
_symmetry_space_group_name_H-M "C 2 2 2"
_symmetry_group_IT_number 21
_symmetry_cell_setting 'orthorhombic'
loop_
_space_group_symop_operation_xyz
x,y,z
-x,-y,z
x,-y,-z
-x,y,-z
1/2+x,1/2+y,z
1/2-x,1/2-y,z
1/2+x,1/2-y,-z
1/2-x,1/2+y,-z
loop_
_atom_site_type_symbol
_atom_site_label
_atom_site_fract_x
_atom_site_fract_y
_atom_site_fract_z
Si Si1 0.500000 0.500000 0.500000
Si Si2 0.909202 0.424991 0.127942
Si Si3 0.832151 0.552193 0.365951
Si Si4 0.644171 0.615295 0.339114
Si Si5 0.090983 0.073178 0.881258
O O1 0.563399 0.594891 0.421563
O O2 0.855395 0.446146 0.252305
O O3 0.916331 0.248644 0.108788
O O4 0.000000 0.500000 0.148034
O O5 0.877394 0.500000 0.000000
O O6 0.866942 0.500000 0.500000
O O7 0.734973 0.581875 0.390962
O O8 0.859970 0.711154 0.310754
O O9 0.637116 0.491951 0.234849
O O10 0.000000 0.000000 0.872480
O O11 0.132139 0.000000 0.000000
#
# Coordination Sequence:
#
# PCOD9325364 Si02
#       5
#     2   8   8   8   8
#     4  12  24  44  72  96 130 192 234 270 332 428
#     4  11  24  43  69 100 140 186 234 288 351 418
#     4  11  26  44  67 103 144 178 226 293 348 409
#     4  11  25  43  69 100 139 179 231 282 352 411
#     4  11  22  40  68  97 131 178 235 287 340 413
#
# _framework density 21.413125999999998
#
# number of rings (size 3 to 8) (size 9 to 14) (size 15 to 20)
#    0.000    0.941    2.353    5.647    3.294    2.353 
#    0.000    0.000    0.000    0.000    0.000    0.000 
#    0.000    0.000    0.000    0.000    0.000    0.000 
#
# Total GULP energy -94743.722983 kJ/mol
# GULP energy per Si atom -5573.160175 kJ/mol
# Density = 2.136439 g / cm^3
# Si number density = 21.413126 Si / 1000 Ang^3
#
#
#
# Elastic Constant Matrix: (Units=GPa)
#
#
# Indices 1 2 3 4 5 6 
#
# 1 59.4490 20.2828 14.2469 0.0000 0.0000 0.0000
# 2 20.2828 205.1285 55.6947 0.0000 0.0000 0.0000
# 3 14.2469 55.6947 106.3411 0.0000 0.0000 0.0000
# 4 0.0000 0.0000 0.0000 16.9657 0.0000 0.0000
# 5 0.0000 0.0000 0.0000 0.0000 43.1913 0.0000
# 6 0.0000 0.0000 0.0000 0.0000 0.0000 24.8135
#
#
#
# Elastic Compliance Matrix: (Units=1/GPa)
#
#
# Indices 1 2 3 4 5 6 
#
# 1 0.017666 -0.001287 -0.001693 0.000000 0.000000 0.000000
# 2 -0.001287 0.005777 -0.002853 0.000000 0.000000 0.000000
# 3 -0.001693 -0.002853 0.011125 0.000000 0.000000 0.000000
# 4 0.000000 0.000000 0.000000 0.058943 0.000000 0.000000
# 5 0.000000 0.000000 0.000000 0.000000 0.023153 0.000000
# 6 0.000000 0.000000 0.000000 0.000000 0.000000 0.040301
#
#
# Mechanical properties :
#
#
# Convention : Reuss Voigt Hill
#
# Bulk Modulus (GPa) = 43.66488 61.26305 52.46396
# Shear Modulus (GPa) = 28.36664 35.70706 32.03685
#
# Velocity S-wave (km/s) = 3.64363 4.08797 3.87218
# Velocity P-wave (km/s) = 6.17554 7.13822 6.67426
#
# Compressibility (1/GPa) = 0.02290170
#
# Stress axis : x y z
#
# Youngs Moduli (GPa) = 56.60610 173.10238 89.88959
#
# Poissons Ratio (x) = 0.22282 0.15215
# Poissons Ratio (y) = 0.07286 0.25647
# Poissons Ratio (z) = 0.09581 0.49388
#
# Static dielectric constant tensor:
#      x y z
#    x 1.460070 0.000000 0.000000 
#    y 0.000000 1.769290 0.000000 
#    z 0.000000 0.000000 1.841110 
# 
# From -- ./inp_files/21997.got.cif
#   From: 2010.05.17/outbox.cif.g08.bks.cpg/sg21_11_cif.got.tgz:21997.got - 2010.06.03 23:14:55.
