data_PCOD9325115
_publ_section_title
;
Structure prediction by ZEFSAII (Michael W. Deem and Ramdas Pophale) SiO2 
 PCOD9325115
Probable space group: C 2 2 2
;
_chemical_formula_sum "Si O2"
_cell_formula_units_Z 22
_cell_length_a 13.588500
_cell_length_b 5.609281
_cell_length_c 12.490129
_cell_angle_alpha 90.000000
_cell_angle_beta 90.000000
_cell_angle_gamma 90.000000
_cell_volume 952.019051
_symmetry_space_group_name_H-M "C 2 2 2"
_symmetry_group_IT_number 21
_symmetry_cell_setting 'orthorhombic'
loop_
_space_group_symop_operation_xyz
x,y,z
-x,-y,z
x,-y,-z
-x,y,-z
1/2+x,1/2+y,z
1/2-x,1/2-y,z
1/2+x,1/2-y,-z
1/2-x,1/2+y,-z
loop_
_atom_site_type_symbol
_atom_site_label
_atom_site_fract_x
_atom_site_fract_y
_atom_site_fract_z
Si Si1 0.361202 0.251682 0.434176
Si Si2 0.854041 0.648946 0.889964
Si Si3 0.500000 0.000000 0.711632
Si Si4 0.500000 0.500000 0.000000
O O1 0.367178 0.500000 0.500000
O O2 0.250000 0.250000 0.383086
O O3 0.458049 0.215128 0.360837
O O4 0.361494 0.000000 0.500000
O O5 0.750000 0.750000 0.857065
O O6 0.929957 0.849006 0.925548
O O7 0.907500 0.531643 0.790378
O O8 0.840294 0.500000 0.000000
#
# Coordination Sequence:
#
# PCOD9325115 Si02
#       4
#     8   8   4   2
#     4  10  25  50  77 109 153 196 248 320 383 448
#     4  12  26  46  71 110 150 198 249 309 368 444
#     4  12  26  46  76 114 142 200 260 302 386 456
#     4  12  22  44  76  92 150 200 242 304 364 432
#
# _framework density 23.108779999999999
#
# number of rings (size 3 to 8) (size 9 to 14) (size 15 to 20)
#    0.000    0.727    5.455    0.545    0.000   14.545 
#    0.000    3.636    0.000    0.000    0.000    0.000 
#    0.000    0.000    0.000    0.000    0.000    0.000 
#
# Total GULP energy -61409.799984 kJ/mol
# GULP energy per Si atom -5582.709089 kJ/mol
# Density = 2.305618 g / cm^3
# Si number density = 23.108780 Si / 1000 Ang^3
#
#
#
# Elastic Constant Matrix: (Units=GPa)
#
#
# Indices 1 2 3 4 5 6 
#
# 1 186.9725 44.0284 54.4979 0.0000 0.0000 0.0000
# 2 44.0284 116.0031 46.2080 0.0000 0.0000 0.0000
# 3 54.4979 46.2080 76.9053 0.0000 0.0000 0.0000
# 4 0.0000 0.0000 0.0000 28.2728 0.0000 0.0000
# 5 0.0000 0.0000 0.0000 0.0000-1794.8181 0.0000
# 6 0.0000 0.0000 0.0000 0.0000 0.0000 45.5646
#
#
#
# Elastic Compliance Matrix: (Units=1/GPa)
#
#
# Indices 1 2 3 4 5 6 
#
# 1 0.006807 -0.000870 -0.004301 0.000000 0.000000 0.000000
# 2 -0.000870 0.011444 -0.006259 0.000000 0.000000 0.000000
# 3 -0.004301 -0.006259 0.019811 0.000000 0.000000 0.000000
# 4 0.000000 0.000000 0.000000 0.035370 0.000000 0.000000
# 5 0.000000 0.000000 0.000000 0.000000 -0.000557 0.000000
# 6 0.000000 0.000000 0.000000 0.000000 0.000000 0.021947
#
#
# Mechanical properties :
#
#
# Convention : Reuss Voigt Hill
#
# Bulk Modulus (GPa) = 65.78194 74.37219 70.07706
# Shear Modulus (GPa) = 40.73332 -328.51970 -143.89319
#
# Velocity S-wave (km/s) = 4.20298 -11.93612 -7.89955
# Velocity P-wave (km/s) = 7.21674 12.55818 7.26727
#
# Compressibility (1/GPa) = 0.01520174
#
# Stress axis : x y z
#
# Youngs Moduli (GPa) = 146.91038 87.38113 50.47598
#
# Poissons Ratio (x) = 0.07606 0.21708
# Poissons Ratio (y) = 0.12788 0.31594
# Poissons Ratio (z) = 0.63180 0.54694
#
# Static dielectric constant tensor:
#      x y z
#    x 1.838870 0.000000 0.000000 
#    y 0.000000 2.090450 0.000000 
#    z 0.000000 0.000000 2.083460 
# 
# From -- ./inp_files/20141.got.cif
#   From: 2010.05.17/outbox.cif.g08.bks.cpg/sg21_11_cif.got.tgz:20141.got - 2010.06.03 23:14:55.
