data_PCOD9325763
_publ_section_title
;
Structure prediction by ZEFSAII (Michael W. Deem and Ramdas Pophale) SiO2 
 PCOD9325763
Probable space group: C 2 2 2
;
_chemical_formula_sum "Si O2"
_cell_formula_units_Z 32
_cell_length_a 29.286851
_cell_length_b 8.673287
_cell_length_c 5.302681
_cell_angle_alpha 90.000000
_cell_angle_beta 90.000000
_cell_angle_gamma 90.000000
_cell_volume 1346.951309
_symmetry_space_group_name_H-M "C 2 2 2"
_symmetry_group_IT_number 21
_symmetry_cell_setting 'orthorhombic'
loop_
_space_group_symop_operation_xyz
x,y,z
-x,-y,z
x,-y,-z
-x,y,-z
1/2+x,1/2+y,z
1/2-x,1/2-y,z
1/2+x,1/2-y,-z
1/2-x,1/2+y,-z
loop_
_atom_site_type_symbol
_atom_site_label
_atom_site_fract_x
_atom_site_fract_y
_atom_site_fract_z
Si Si1 0.886753 0.323980 0.071113
Si Si2 0.206987 0.327896 0.595732
Si Si3 0.536659 0.627348 0.661399
Si Si4 0.664087 0.602233 0.250542
O O1 0.840321 0.324751 0.242873
O O2 0.929168 0.236454 0.197206
O O3 0.896419 0.500000 0.000000
O O4 0.876352 0.217285 0.830057
O O5 0.215403 0.500000 0.500000
O O6 0.250000 0.250000 0.736305
O O7 0.201221 0.222571 0.348030
O O8 0.500000 0.500000 0.767202
O O9 0.564530 0.500000 0.500000
O O10 0.500000 0.725712 0.500000
O O11 0.658491 0.500000 0.500000
O O12 0.672913 0.500000 0.000000
#
# Coordination Sequence:
#
# PCOD9325763 Si02
#       4
#     8   8   8   8
#     4  12  24  47  88 125 175 226 290 365 435 511
#     4  12  28  51  76 129 172 228 297 358 424 521
#     4   6  18  41  83 127 159 218 293 334 433 524
#     4  12  27  48  79 122 163 232 281 349 428 505
#
# _framework density 23.757352999999998
#
# number of rings (size 3 to 8) (size 9 to 14) (size 15 to 20)
#    1.500    0.000    5.000    0.750    3.500    1.000 
#    4.500    0.000    5.500    7.500    0.000    0.000 
#    0.000    0.000    0.000    0.000    0.000    0.000 
#
# Total GULP energy -89084.692730 kJ/mol
# GULP energy per Si atom -5567.793296 kJ/mol
# Density = 2.370328 g / cm^3
# Si number density = 23.757353 Si / 1000 Ang^3
#
#
#
# Elastic Constant Matrix: (Units=GPa)
#
#
# Indices 1 2 3 4 5 6 
#
# 1 192.6131 103.7456 65.1459 0.0000 0.0000 0.0000
# 2 103.7456 252.3329 96.7692 0.0000 0.0000 0.0000
# 3 65.1459 96.7692 135.0011 0.0000 0.0000 0.0000
# 4 0.0000 0.0000 0.0000 35.1134 0.0000 0.0000
# 5 0.0000 0.0000 0.0000 0.0000 43.1522 0.0000
# 6 0.0000 0.0000 0.0000 0.0000 0.0000 34.2881
#
#
#
# Elastic Compliance Matrix: (Units=1/GPa)
#
#
# Indices 1 2 3 4 5 6 
#
# 1 0.006974 -0.002174 -0.001807 0.000000 0.000000 0.000000
# 2 -0.002174 0.006143 -0.003354 0.000000 0.000000 0.000000
# 3 -0.001807 -0.003354 0.010684 0.000000 0.000000 0.000000
# 4 0.000000 0.000000 0.000000 0.028479 0.000000 0.000000
# 5 0.000000 0.000000 0.000000 0.000000 0.023174 0.000000
# 6 0.000000 0.000000 0.000000 0.000000 0.000000 0.029165
#
#
# Mechanical properties :
#
#
# Convention : Reuss Voigt Hill
#
# Bulk Modulus (GPa) = 109.52858 123.47429 116.50143
# Shear Modulus (GPa) = 40.87205 43.46316 42.16761
#
# Velocity S-wave (km/s) = 4.15227 4.28186 4.21756
# Velocity P-wave (km/s) = 8.31814 8.74824 8.53590
#
# Compressibility (1/GPa) = 0.00913004
#
# Stress axis : x y z
#
# Youngs Moduli (GPa) = 143.38875 162.77585 93.60169
#
# Poissons Ratio (x) = 0.35395 0.16911
# Poissons Ratio (y) = 0.31180 0.31397
# Poissons Ratio (z) = 0.25906 0.54600
#
# Static dielectric constant tensor:
#      x y z
#    x 1.855360 0.000000 0.000000 
#    y 0.000000 1.875000 0.000000 
#    z 0.000000 0.000000 2.136500 
# 
# From -- ./inp_files/7696.got.cif
#   From: 2010.05.17/outbox.cif.g08.bks.cpg/sg21_4_cif.got.tgz:7696.got - 2010.06.03 23:14:55.
