data_PCOD9325306
_publ_section_title
;
Structure prediction by ZEFSAII (Michael W. Deem and Ramdas Pophale) SiO2 
 PCOD9325306
Probable space group: C 2 2 2
;
_chemical_formula_sum "Si O2"
_cell_formula_units_Z 56
_cell_length_a 9.138479
_cell_length_b 21.139765
_cell_length_c 14.742271
_cell_angle_alpha 90.000000
_cell_angle_beta 90.000000
_cell_angle_gamma 90.000000
_cell_volume 2847.990024
_symmetry_space_group_name_H-M "C 2 2 2"
_symmetry_group_IT_number 21
_symmetry_cell_setting 'orthorhombic'
loop_
_space_group_symop_operation_xyz
x,y,z
-x,-y,z
x,-y,-z
-x,y,-z
1/2+x,1/2+y,z
1/2-x,1/2-y,z
1/2+x,1/2-y,-z
1/2-x,1/2+y,-z
loop_
_atom_site_type_symbol
_atom_site_label
_atom_site_fract_x
_atom_site_fract_y
_atom_site_fract_z
Si Si1 0.804588 0.597413 0.680520
Si Si2 0.464999 0.074224 0.168207
Si Si3 0.841268 0.981669 0.395297
Si Si4 0.750000 0.750000 0.906097
Si Si5 0.066184 0.190384 0.743859
Si Si6 0.508883 0.797998 0.603659
Si Si7 0.000000 0.334605 0.000000
Si Si8 0.740272 0.361814 0.700363
O O1 0.779869 0.526026 0.650282
O O2 0.652749 0.631270 0.702255
O O3 0.900716 0.598794 0.770829
O O4 0.892539 0.638721 0.607247
O O5 0.323944 0.092263 0.228865
O O6 0.500000 0.000000 0.150515
O O7 0.455173 0.118277 0.080759
O O8 0.839893 0.000000 0.500000
O O9 0.817248 0.908426 0.377745
O O10 0.000000 0.000000 0.357108
O O11 0.855941 0.789487 0.837481
O O12 0.862135 0.707777 0.965946
O O13 0.078768 0.247207 0.671519
O O14 0.894753 0.173097 0.748320
O O15 0.500000 0.775686 0.500000
O O16 0.355213 0.815870 0.651086
#
# Coordination Sequence:
#
# PCOD9325306 Si02
#       8
#     8   8   8   4   8   8   4   8
#     4  11  21  42  63  88 131 176 213 269 332 391
#     4  11  23  45  70  95 130 167 216 270 339 405
#     4  11  22  36  60  95 130 173 225 277 324 379
#     4  12  26  48  68 102 136 172 212 286 348 424
#     4  12  23  44  66  92 138 176 218 266 345 392
#     4  11  24  39  60  94 134 183 232 272 317 381
#     4  12  27  44  72 104 125 166 218 274 344 418
#     4  11  24  40  66  98 130 178 223 279 326 400
#
# _framework density 19.662991000000002
#
# number of rings (size 3 to 8) (size 9 to 14) (size 15 to 20)
#    0.000    0.714    5.714    2.357    2.000    3.429 
#    0.000    2.143    0.000    0.000    0.000    0.000 
#    0.000    0.000    0.000    0.000    0.000    0.000 
#
# Total GULP energy -156369.642853 kJ/mol
# GULP energy per Si atom -5584.630102 kJ/mol
# Density = 1.961824 g / cm^3
# Si number density = 19.662991 Si / 1000 Ang^3
#
#
#
# Elastic Constant Matrix: (Units=GPa)
#
#
# Indices 1 2 3 4 5 6 
#
# 1 119.2845 37.2284 37.1088 0.0000 0.0000 0.0000
# 2 37.2284 86.7399 33.8129 0.0000 0.0000 0.0000
# 3 37.1088 33.8129 97.8360 0.0000 0.0000 0.0000
# 4 0.0000 0.0000 0.0000 19.4060 0.0000 0.0000
# 5 0.0000 0.0000 0.0000 0.0000 20.0104 0.0000
# 6 0.0000 0.0000 0.0000 0.0000 0.0000 29.3293
#
#
#
# Elastic Compliance Matrix: (Units=1/GPa)
#
#
# Indices 1 2 3 4 5 6 
#
# 1 0.010280 -0.003343 -0.002744 0.000000 0.000000 0.000000
# 2 -0.003343 0.014411 -0.003713 0.000000 0.000000 0.000000
# 3 -0.002744 -0.003713 0.012545 0.000000 0.000000 0.000000
# 4 0.000000 0.000000 0.000000 0.051530 0.000000 0.000000
# 5 0.000000 0.000000 0.000000 0.000000 0.049974 0.000000
# 6 0.000000 0.000000 0.000000 0.000000 0.000000 0.034096
#
#
# Mechanical properties :
#
#
# Convention : Reuss Voigt Hill
#
# Bulk Modulus (GPa) = 56.69730 57.79561 57.24645
# Shear Modulus (GPa) = 25.21262 26.79648 26.00455
#
# Velocity S-wave (km/s) = 3.58472 3.69560 3.64058
# Velocity P-wave (km/s) = 6.78460 6.90412 6.84462
#
# Compressibility (1/GPa) = 0.01763752
#
# Stress axis : x y z
#
# Youngs Moduli (GPa) = 97.27464 69.39353 79.71245
#
# Poissons Ratio (x) = 0.23195 0.21873
# Poissons Ratio (y) = 0.32514 0.29594
# Poissons Ratio (z) = 0.26692 0.25763
#
# Static dielectric constant tensor:
#      x y z
#    x 1.730920 0.000000 0.000000 
#    y 0.000000 1.697740 0.000000 
#    z 0.000000 0.000000 1.849850 
# 
# From -- ./inp_files/30812.got.cif
#   From: 2010.05.17/outbox.cif.g08.bks.cpg/sg21_16_cif.got.tgz:30812.got - 2010.06.03 23:14:55.
