data_PCOD9325949
_publ_section_title
;
Structure prediction by ZEFSAII (Michael W. Deem and Ramdas Pophale) SiO2 
 PCOD9325949
Probable space group: F 2 2 2
;
_chemical_formula_sum "Si O2"
_cell_formula_units_Z 84
_cell_length_a 12.775604
_cell_length_b 20.292799
_cell_length_c 17.307052
_cell_angle_alpha 90.000000
_cell_angle_beta 90.000000
_cell_angle_gamma 90.000000
_cell_volume 4486.901069
_symmetry_space_group_name_H-M "F 2 2 2"
_symmetry_group_IT_number 22
_symmetry_cell_setting 'orthorhombic'
loop_
_space_group_symop_operation_xyz
x,y,z
-x,-y,z
x,-y,-z
-x,y,-z
x,1/2+y,1/2+z
-x,1/2-y,1/2+z
x,1/2-y,1/2-z
-x,1/2+y,1/2-z
1/2+x,y,1/2+z
1/2-x,-y,1/2+z
1/2+x,-y,1/2-z
1/2-x,y,1/2-z
1/2+x,1/2+y,z
1/2-x,1/2-y,z
1/2+x,1/2-y,-z
1/2-x,1/2+y,-z
loop_
_atom_site_type_symbol
_atom_site_label
_atom_site_fract_x
_atom_site_fract_y
_atom_site_fract_z
Si Si1 0.000000 0.500000 0.000000
Si Si2 0.799126 0.112265 0.984693
Si Si3 0.203974 0.507780 0.376444
Si Si4 0.500000 0.000000 0.727521
Si Si5 0.000000 0.304514 0.500000
Si Si6 0.909592 0.924585 0.645807
Si Si7 0.344052 0.707149 0.418565
O O1 0.938917 0.546635 0.939377
O O2 0.767963 0.061261 0.917946
O O3 0.817213 0.064207 0.058578
O O4 0.712204 0.166230 0.010576
O O5 0.907943 0.149281 0.966025
O O6 0.304845 0.535634 0.332738
O O7 0.101229 0.499058 0.326006
O O8 0.493279 0.060123 0.788477
O O9 0.935782 0.255945 0.444022
O O10 0.886433 0.848485 0.637334
O O11 0.250000 0.750000 0.384309
#
# Coordination Sequence:
#
# PCOD9325949 Si02
#       7
#     4  16  16   8   8  16  16
#     4  10  18  32  56  80 102 134 172 216 264 298
#     4   9  18  32  56  80 100 129 166 212 262 301
#     4  10  19  35  55  79 105 131 168 220 265 305
#     4  11  22  32  52  79 106 138 168 211 270 308
#     4  10  17  29  50  81 107 126 164 210 252 306
#     4  10  20  34  52  78 106 135 173 214 256 306
#     4   9  18  31  50  76 104 135 168 207 252 299
#
# _framework density 18.721160999999999
#
# number of rings (size 3 to 8) (size 9 to 14) (size 15 to 20)
#    0.000    2.286    0.000    4.571    0.000    3.048 
#    0.000    0.000    0.000   32.000    0.000    0.000 
#    0.000    0.000    0.000    0.000    0.000    0.000 
#
# Total GULP energy -117054.170100 kJ/mol
# GULP energy per Si atom -5574.008100 kJ/mol
# Density = 1.867855 g / cm^3
# Si number density = 18.721161 Si / 1000 Ang^3
#
#
#
# Elastic Constant Matrix: (Units=GPa)
#
#
# Indices 1 2 3 4 5 6 
#
# 1 65.9017 17.6110 9.8991 0.0000 0.0000 0.0000
# 2 17.6110 105.2501 5.6578 0.0000 0.0000 0.0000
# 3 9.8991 5.6578 53.1544 0.0000 0.0000 0.0000
# 4 0.0000 0.0000 0.0000 -3.3763 0.0000 0.0000
# 5 0.0000 0.0000 0.0000 0.0000 26.2095 0.0000
# 6 0.0000 0.0000 0.0000 0.0000 0.0000 39.6152
#
#
#
# Elastic Compliance Matrix: (Units=1/GPa)
#
#
# Indices 1 2 3 4 5 6 
#
# 1 0.016276 -0.002575 -0.002757 0.000000 0.000000 0.000000
# 2 -0.002575 0.009963 -0.000581 0.000000 0.000000 0.000000
# 3 -0.002757 -0.000581 0.019388 0.000000 0.000000 0.000000
# 4 0.000000 0.000000 0.000000 -0.296181 0.000000 0.000000
# 5 0.000000 0.000000 0.000000 0.000000 0.038154 0.000000
# 6 0.000000 0.000000 0.000000 0.000000 0.000000 0.025243
#
#
# Mechanical properties :
#
#
# Convention : Reuss Voigt Hill
#
# Bulk Modulus (GPa) = 29.58432 32.29353 30.93893
# Shear Modulus (GPa) = -30.47616 25.23226 -2.62195
#
# Velocity S-wave (km/s) = -4.03910 3.67521 -1.18472
# Velocity P-wave (km/s) = 2.43218 5.94111 3.83284
#
# Compressibility (1/GPa) = 0.03380168
#
# Stress axis : x y z
#
# Youngs Moduli (GPa) = 61.43853 100.36831 51.57719
#
# Poissons Ratio (x) = 0.25847 0.14220
# Poissons Ratio (y) = 0.15822 0.02996
# Poissons Ratio (z) = 0.16939 0.05830
#
# Static dielectric constant tensor:
#      x y z
#    x 1.694180 0.000000 0.000000 
#    y 0.000000 1.652430 0.000000 
#    z 0.000000 0.000000 1.662770 
# 
# From -- ./inp_files/36047.got.cif
#   From: 2010.05.17/outbox.cif.g08.bks.cpg/sg22_19_cif.got.tgz:36047.got - 2010.06.03 23:40:54.
