data_PCOD9325920
_publ_section_title
;
Structure prediction by ZEFSAII (Michael W. Deem and Ramdas Pophale) SiO2 
 PCOD9325920
Probable space group: F 2 2 2
;
_chemical_formula_sum "Si O2"
_cell_formula_units_Z 96
_cell_length_a 13.925119
_cell_length_b 20.864860
_cell_length_c 15.603811
_cell_angle_alpha 90.000000
_cell_angle_beta 90.000000
_cell_angle_gamma 90.000000
_cell_volume 4533.619541
_symmetry_space_group_name_H-M "F 2 2 2"
_symmetry_group_IT_number 22
_symmetry_cell_setting 'orthorhombic'
loop_
_space_group_symop_operation_xyz
x,y,z
-x,-y,z
x,-y,-z
-x,y,-z
x,1/2+y,1/2+z
-x,1/2-y,1/2+z
x,1/2-y,1/2-z
-x,1/2+y,1/2-z
1/2+x,y,1/2+z
1/2-x,-y,1/2+z
1/2+x,-y,1/2-z
1/2-x,y,1/2-z
1/2+x,1/2+y,z
1/2-x,1/2-y,z
1/2+x,1/2-y,-z
1/2-x,1/2+y,-z
loop_
_atom_site_type_symbol
_atom_site_label
_atom_site_fract_x
_atom_site_fract_y
_atom_site_fract_z
Si Si1 0.397441 0.095767 0.960690
Si Si2 0.895098 0.621068 0.521040
Si Si3 0.865371 0.761265 0.523266
Si Si4 0.254714 0.547929 0.154313
Si Si5 0.353169 0.715724 0.669372
Si Si6 0.755021 0.905017 0.381046
O O1 0.389363 0.170874 0.933867
O O2 0.352362 0.055676 0.884147
O O3 0.500000 0.081312 0.000000
O O4 0.324858 0.083532 0.038581
O O5 0.907189 0.694020 0.554053
O O6 0.830960 0.582101 0.590097
O O7 0.835892 0.626173 0.430937
O O8 0.000000 0.593424 0.500000
O O9 0.750000 0.750000 0.526423
O O10 0.897006 0.774338 0.424382
O O11 0.250000 0.574791 0.250000
O O12 0.276884 0.472384 0.156483
O O13 0.402842 0.750000 0.750000
O O14 0.250000 0.750000 0.663057
O O15 0.180179 0.858239 0.677860
#
# Coordination Sequence:
#
# PCOD9325920 Si02
#       6
#    16  16  16  16  16  16
#     4  10  20  39  65  89 118 163 211 252 303 381
#     4  11  21  39  63  87 120 165 209 249 305 383
#     4  10  16  35  61  89 116 155 209 254 310 369
#     4  11  25  41  60  88 129 165 209 254 310 364
#     4   9  16  29  56  84 112 136 187 255 316 348
#     4  10  21  37  58  86 116 163 203 250 312 379
#
# _framework density 21.175135000000001
#
# number of rings (size 3 to 8) (size 9 to 14) (size 15 to 20)
#    0.000    1.833    6.667    2.500    2.333    2.667 
#    0.000    8.333    0.000    0.000    0.000    0.000 
#    0.000    0.000    0.000    0.000    0.000    0.000 
#
# Total GULP energy -133716.298966 kJ/mol
# GULP energy per Si atom -5571.512457 kJ/mol
# Density = 2.112694 g / cm^3
# Si number density = 21.175135 Si / 1000 Ang^3
#
#
#
# Elastic Constant Matrix: (Units=GPa)
#
#
# Indices 1 2 3 4 5 6 
#
# 1 103.8670 -4.8225 11.6535 0.0000 0.0000 0.0000
# 2 -4.8225 123.7649 18.9795 0.0000 0.0000 0.0000
# 3 11.6535 18.9795 57.3217 0.0000 0.0000 0.0000
# 4 0.0000 0.0000 0.0000 17.7375 0.0000 0.0000
# 5 0.0000 0.0000 0.0000 0.0000 12.0688 0.0000
# 6 0.0000 0.0000 0.0000 0.0000 0.0000 -18.6098
#
#
#
# Elastic Compliance Matrix: (Units=1/GPa)
#
#
# Indices 1 2 3 4 5 6 
#
# 1 0.009915 0.000733 -0.002258 0.000000 0.000000 0.000000
# 2 0.000733 0.008566 -0.002985 0.000000 0.000000 0.000000
# 3 -0.002258 -0.002985 0.018893 0.000000 0.000000 0.000000
# 4 0.000000 0.000000 0.000000 0.056378 0.000000 0.000000
# 5 0.000000 0.000000 0.000000 0.000000 0.082858 0.000000
# 6 0.000000 0.000000 0.000000 0.000000 0.000000 -0.053735
#
#
# Mechanical properties :
#
#
# Convention : Reuss Voigt Hill
#
# Bulk Modulus (GPa) = 35.27042 37.39719 36.33380
# Shear Modulus (GPa) = 35.37383 19.51552 27.44468
#
# Velocity S-wave (km/s) = 4.09165 3.03912 3.60402
# Velocity P-wave (km/s) = 6.24619 5.47853 5.87491
#
# Compressibility (1/GPa) = 0.02835237
#
# Stress axis : x y z
#
# Youngs Moduli (GPa) = 100.85638 116.73828 52.92983
#
# Poissons Ratio (x) = -0.08553 0.11953
# Poissons Ratio (y) = -0.07389 0.15801
# Poissons Ratio (z) = 0.22777 0.34849
#
# Static dielectric constant tensor:
#      x y z
#    x 1.819120 0.000000 0.000000 
#    y 0.000000 1.843300 0.000000 
#    z 0.000000 0.000000 1.857460 
# 
# From -- ./inp_files/29368.got.cif
#   From: 2010.05.17/outbox.cif.g08.bks.cpg/sg22_15_cif.got.tgz:29368.got - 2010.06.03 23:40:54.
