data_PCOD9325093
_publ_section_title
;
Structure prediction by ZEFSAII (Michael W. Deem and Ramdas Pophale) SiO2 
 PCOD9325093
Probable space group: C 2 2 2
;
_chemical_formula_sum "Si O2"
_cell_formula_units_Z 40
_cell_length_a 5.812301
_cell_length_b 19.152343
_cell_length_c 16.854257
_cell_angle_alpha 90.000000
_cell_angle_beta 90.000000
_cell_angle_gamma 90.000000
_cell_volume 1876.202109
_symmetry_space_group_name_H-M "C 2 2 2"
_symmetry_group_IT_number 21
_symmetry_cell_setting 'orthorhombic'
loop_
_space_group_symop_operation_xyz
x,y,z
-x,-y,z
x,-y,-z
-x,y,-z
1/2+x,1/2+y,z
1/2-x,1/2-y,z
1/2+x,1/2-y,-z
1/2-x,1/2+y,-z
loop_
_atom_site_type_symbol
_atom_site_label
_atom_site_fract_x
_atom_site_fract_y
_atom_site_fract_z
Si Si1 0.236139 0.171368 0.737825
Si Si2 0.252665 0.169026 0.043863
Si Si3 0.623570 0.070928 0.672216
Si Si4 0.910840 0.070962 0.827547
Si Si5 0.397891 0.320068 0.412548
O O1 0.250000 0.250000 0.769698
O O2 0.462234 0.131124 0.709627
O O3 0.113935 0.122849 0.802122
O O4 0.083392 0.178114 0.657952
O O5 0.250000 0.250000 0.070467
O O6 0.252282 0.114752 0.115770
O O7 0.500000 0.160050 0.000000
O O8 0.000000 0.158325 0.000000
O O9 0.789554 0.050539 0.744899
O O10 0.751895 0.109863 0.601230
O O11 0.500000 0.000000 0.647295
O O12 0.000000 0.000000 0.866208
O O13 0.500000 0.318212 0.500000
O O14 0.250000 0.250000 0.401615
#
# Coordination Sequence:
#
# PCOD9325093 Si02
#       5
#     8   8   8   8   8
#     4  11  23  41  68 100 130 177 232 285 347 412
#     4  10  25  46  71 107 146 185 236 293 351 427
#     4  11  24  44  67  98 139 174 224 293 350 414
#     4  11  25  42  70 101 135 181 227 287 345 419
#     4  11  24  41  68  96 130 177 233 288 347 422
#
# _framework density 21.319662999999998
#
# number of rings (size 3 to 8) (size 9 to 14) (size 15 to 20)
#    0.000    1.200    4.000    0.600    5.600    1.200 
#    0.000    4.000    0.000    0.000    0.000    0.000 
#    0.000    0.000    0.000    0.000    0.000    0.000 
#
# Total GULP energy -111746.308138 kJ/mol
# GULP energy per Si atom -5587.315407 kJ/mol
# Density = 2.127114 g / cm^3
# Si number density = 21.319663 Si / 1000 Ang^3
#
#
#
# Elastic Constant Matrix: (Units=GPa)
#
#
# Indices 1 2 3 4 5 6 
#
# 1 80.2822 39.1365 15.3872 0.0000 0.0000 0.0000
# 2 39.1365 132.6639 36.2606 0.0000 0.0000 0.0000
# 3 15.3872 36.2606 55.7271 0.0000 0.0000 0.0000
# 4 0.0000 0.0000 0.0000 13.9174 0.0000 0.0000
# 5 0.0000 0.0000 0.0000 0.0000 17.3358 0.0000
# 6 0.0000 0.0000 0.0000 0.0000 0.0000 49.3663
#
#
#
# Elastic Compliance Matrix: (Units=1/GPa)
#
#
# Indices 1 2 3 4 5 6 
#
# 1 0.014651 -0.003912 -0.001500 0.000000 0.000000 0.000000
# 2 -0.003912 0.010213 -0.005565 0.000000 0.000000 0.000000
# 3 -0.001500 -0.005565 0.021980 0.000000 0.000000 0.000000
# 4 0.000000 0.000000 0.000000 0.071853 0.000000 0.000000
# 5 0.000000 0.000000 0.000000 0.000000 0.057684 0.000000
# 6 0.000000 0.000000 0.000000 0.000000 0.000000 0.020257
#
#
# Mechanical properties :
#
#
# Convention : Reuss Voigt Hill
#
# Bulk Modulus (GPa) = 40.17779 50.02687 45.10233
# Shear Modulus (GPa) = 22.03732 27.98315 25.01023
#
# Velocity S-wave (km/s) = 3.21855 3.62685 3.42878
# Velocity P-wave (km/s) = 5.71825 6.40740 6.07261
#
# Compressibility (1/GPa) = 0.02488937
#
# Stress axis : x y z
#
# Youngs Moduli (GPa) = 68.25661 97.91378 45.49610
#
# Poissons Ratio (x) = 0.38305 0.06823
# Poissons Ratio (y) = 0.26703 0.25320
# Poissons Ratio (z) = 0.10237 0.54492
#
# Static dielectric constant tensor:
#      x y z
#    x 1.828050 0.000000 0.000000 
#    y 0.000000 1.767940 0.000000 
#    z 0.000000 0.000000 1.733820 
# 
# From -- ./inp_files/34650.got.cif
#   From: 2010.05.17/outbox.cif.g08.bks.cpg/sg21_18_cif.got.tgz:34650.got - 2010.06.03 23:14:55.
