data_PCOD9325716
_publ_section_title
;
Structure prediction by ZEFSAII (Michael W. Deem and Ramdas Pophale) SiO2 
 PCOD9325716
Probable space group: C 2 2 2
;
_chemical_formula_sum "Si O2"
_cell_formula_units_Z 34
_cell_length_a 11.611018
_cell_length_b 25.485485
_cell_length_c 5.547064
_cell_angle_alpha 90.000000
_cell_angle_beta 90.000000
_cell_angle_gamma 90.000000
_cell_volume 1641.445160
_symmetry_space_group_name_H-M "C 2 2 2"
_symmetry_group_IT_number 21
_symmetry_cell_setting 'orthorhombic'
loop_
_space_group_symop_operation_xyz
x,y,z
-x,-y,z
x,-y,-z
-x,y,-z
1/2+x,1/2+y,z
1/2-x,1/2-y,z
1/2+x,1/2-y,-z
1/2-x,1/2+y,-z
loop_
_atom_site_type_symbol
_atom_site_label
_atom_site_fract_x
_atom_site_fract_y
_atom_site_fract_z
Si Si1 0.000000 0.000000 0.000000
Si Si2 0.804283 0.168170 0.709283
Si Si3 0.037731 0.317753 0.248034
Si Si4 0.126685 0.944557 0.615507
Si Si5 0.130330 0.218527 0.792795
O O1 0.912125 0.038913 0.876772
O O2 0.674526 0.189895 0.739069
O O3 0.796756 0.106353 0.645418
O O4 0.862661 0.189796 0.465330
O O5 0.868440 0.182385 0.963060
O O6 0.000000 0.343302 0.500000
O O7 0.967235 0.263070 0.231778
O O8 0.000000 0.345962 0.000000
O O9 0.000000 0.932252 0.500000
O O10 0.168091 0.000000 0.500000
O O11 0.250000 0.250000 0.809563
#
# Coordination Sequence:
#
# PCOD9325716 Si02
#       5
#     2   8   8   8   8
#     4   8  18  44  64  90 134 148 210 292 338 382
#     4  12  25  42  67  98 127 181 221 265 340 387
#     4  12  23  41  60  89 133 179 216 269 306 391
#     4   9  22  43  68  98 127 164 218 285 338 395
#     4  12  24  41  61  93 138 180 217 263 315 394
#
# _framework density 20.713456000000001
#
# number of rings (size 3 to 8) (size 9 to 14) (size 15 to 20)
#    0.000    1.176    4.706    2.118    6.588    2.824 
#    0.000    0.000    0.000    0.706    0.000    0.000 
#    0.000    0.000    0.000    0.000    0.000    0.000 
#
# Total GULP energy -94698.385897 kJ/mol
# GULP energy per Si atom -5570.493288 kJ/mol
# Density = 2.066631 g / cm^3
# Si number density = 20.713456 Si / 1000 Ang^3
#
#
#
# Elastic Constant Matrix: (Units=GPa)
#
#
# Indices 1 2 3 4 5 6 
#
# 1 108.3319 42.0309 22.9383 0.0000 0.0000 0.0000
# 2 42.0309 113.6647 32.6678 0.0000 0.0000 0.0000
# 3 22.9383 32.6678 159.0960 0.0000 0.0000 0.0000
# 4 0.0000 0.0000 0.0000 35.8144 0.0000 0.0000
# 5 0.0000 0.0000 0.0000 0.0000 33.1055 0.0000
# 6 0.0000 0.0000 0.0000 0.0000 0.0000 10.5765
#
#
#
# Elastic Compliance Matrix: (Units=1/GPa)
#
#
# Indices 1 2 3 4 5 6 
#
# 1 0.010869 -0.003793 -0.000788 0.000000 0.000000 0.000000
# 2 -0.003793 0.010673 -0.001645 0.000000 0.000000 0.000000
# 3 -0.000788 -0.001645 0.006737 0.000000 0.000000 0.000000
# 4 0.000000 0.000000 0.000000 0.027922 0.000000 0.000000
# 5 0.000000 0.000000 0.000000 0.000000 0.030206 0.000000
# 6 0.000000 0.000000 0.000000 0.000000 0.000000 0.094549
#
#
# Mechanical properties :
#
#
# Convention : Reuss Voigt Hill
#
# Bulk Modulus (GPa) = 63.18040 64.04075 63.61058
# Shear Modulus (GPa) = 25.16563 34.79633 29.98098
#
# Velocity S-wave (km/s) = 3.48938 4.10309 3.80862
# Velocity P-wave (km/s) = 6.84125 7.30970 7.07935
#
# Compressibility (1/GPa) = 0.01582769
#
# Stress axis : x y z
#
# Youngs Moduli (GPa) = 92.00217 93.69477 148.43648
#
# Poissons Ratio (x) = 0.35535 0.11702
# Poissons Ratio (y) = 0.34893 0.24413
# Poissons Ratio (z) = 0.07253 0.15410
#
# Static dielectric constant tensor:
#      x y z
#    x 1.755130 0.000000 0.000000 
#    y 0.000000 1.686910 0.000000 
#    z 0.000000 0.000000 1.905840 
# 
# From -- ./inp_files/2677.got.cif
#   From: 2010.05.17/outbox.cif.g08.bks.cpg/sg21_2_cif.got.tgz:2677.got - 2010.06.03 23:14:55.
