data_PCOD9325894
_publ_section_title
;
Structure prediction by ZEFSAII (Michael W. Deem and Ramdas Pophale) SiO2 
 PCOD9325894
Probable space group: F 2 2 2
;
_chemical_formula_sum "Si O2"
_cell_formula_units_Z 100
_cell_length_a 22.284099
_cell_length_b 13.749123
_cell_length_c 14.534466
_cell_angle_alpha 90.000000
_cell_angle_beta 90.000000
_cell_angle_gamma 90.000000
_cell_volume 4453.168790
_symmetry_space_group_name_H-M "F 2 2 2"
_symmetry_group_IT_number 22
_symmetry_cell_setting 'orthorhombic'
loop_
_space_group_symop_operation_xyz
x,y,z
-x,-y,z
x,-y,-z
-x,y,-z
x,1/2+y,1/2+z
-x,1/2-y,1/2+z
x,1/2-y,1/2-z
-x,1/2+y,1/2-z
1/2+x,y,1/2+z
1/2-x,-y,1/2+z
1/2+x,-y,1/2-z
1/2-x,y,1/2-z
1/2+x,1/2+y,z
1/2-x,1/2-y,z
1/2+x,1/2-y,-z
1/2-x,1/2+y,-z
loop_
_atom_site_type_symbol
_atom_site_label
_atom_site_fract_x
_atom_site_fract_y
_atom_site_fract_z
Si Si1 0.925299 0.879305 0.319291
Si Si2 0.750000 0.750000 0.750000
Si Si3 0.334381 0.386250 0.805415
Si Si4 0.438672 0.615596 0.310956
Si Si5 0.312183 0.116823 0.303148
Si Si6 0.635413 0.118698 0.008688
Si Si7 0.274910 0.381457 0.996008
O O1 0.874116 0.853108 0.245334
O O2 0.898840 0.848276 0.417260
O O3 0.993751 0.847065 0.307651
O O4 0.933383 0.997348 0.317952
O O5 0.701064 0.668377 0.723477
O O6 0.402796 0.364039 0.783076
O O7 0.318392 0.499296 0.800791
O O8 0.309220 0.350810 0.903167
O O9 0.402902 0.647773 0.402191
O O10 0.250000 0.140496 0.250000
O O11 0.304669 0.149814 0.408109
O O12 0.705258 0.147873 0.007649
O O13 0.636474 0.000000 0.000000
O O14 0.276300 0.500000 0.000000
#
# Coordination Sequence:
#
# PCOD9325894 Si02
#       7
#    16   4  16  16  16  16  16
#     4   9  16  25  41  66  95 133 159 192 252 313
#     4  12  20  32  52  72 102 148 178 210 244 284
#     4  10  20  30  45  70 102 135 169 203 248 302
#     4   9  17  27  39  62 101 130 161 200 246 306
#     4  10  16  29  47  72 105 131 158 204 258 311
#     4   9  14  21  38  62  93 126 156 194 247 300
#     4   9  17  27  44  69  99 130 159 207 262 302
#
# _framework density 22.455919000000002
#
# number of rings (size 3 to 8) (size 9 to 14) (size 15 to 20)
#    0.000    2.560    2.400    1.440    4.480    1.920 
#    0.000    0.800    0.000    4.800    0.000    9.520 
#    0.000    0.000    0.000    0.000    0.000    0.000 
#
# Total GULP energy -139442.476186 kJ/mol
# GULP energy per Si atom -5577.699047 kJ/mol
# Density = 2.240481 g / cm^3
# Si number density = 22.455919 Si / 1000 Ang^3
#
#
#
# Elastic Constant Matrix: (Units=GPa)
#
#
# Indices 1 2 3 4 5 6 
#
# 1 258.4592 12.5125 142.4924 0.0000 0.0000 0.0000
# 2 12.5125 83.9314 27.9574 0.0000 0.0000 0.0000
# 3 142.4924 27.9574 185.3287 0.0000 0.0000 0.0000
# 4 0.0000 0.0000 0.0000 11.6329 0.0000 0.0000
# 5 0.0000 0.0000 0.0000 0.0000 34.7631 0.0000
# 6 0.0000 0.0000 0.0000 0.0000 0.0000 -8.2866
#
#
#
# Elastic Compliance Matrix: (Units=1/GPa)
#
#
# Indices 1 2 3 4 5 6 
#
# 1 0.006762 0.000762 -0.005314 0.000000 0.000000 0.000000
# 2 0.000762 0.012631 -0.002491 0.000000 0.000000 0.000000
# 3 -0.005314 -0.002491 0.009857 0.000000 0.000000 0.000000
# 4 0.000000 0.000000 0.000000 0.085963 0.000000 0.000000
# 5 0.000000 0.000000 0.000000 0.000000 0.028766 0.000000
# 6 0.000000 0.000000 0.000000 0.000000 0.000000 -0.120676
#
#
# Mechanical properties :
#
#
# Convention : Reuss Voigt Hill
#
# Bulk Modulus (GPa) = 65.94759 99.29379 82.62069
# Shear Modulus (GPa) = 117.80304 30.60566 74.20435
#
# Velocity S-wave (km/s) = 7.25076 3.69578 5.75467
# Velocity P-wave (km/s) = 9.97644 7.90727 9.00151
#
# Compressibility (1/GPa) = 0.01516356
#
# Stress axis : x y z
#
# Youngs Moduli (GPa) = 147.88973 79.17201 101.44814
#
# Poissons Ratio (x) = -0.06033 0.53908
# Poissons Ratio (y) = -0.11269 0.25273
# Poissons Ratio (z) = 0.78586 0.19724
#
# Static dielectric constant tensor:
#      x y z
#    x 1.807000 0.000000 0.000000 
#    y 0.000000 1.860200 0.000000 
#    z 0.000000 0.000000 1.910200 
# 
# From -- ./inp_files/32479.got.cif
#   From: 2010.05.17/outbox.cif.g08.bks.cpg/sg22_17_cif.got.tgz:32479.got - 2010.06.03 23:40:54.
