data_PCOD9325353
_publ_section_title
;
Structure prediction by ZEFSAII (Michael W. Deem and Ramdas Pophale) SiO2 
 PCOD9325353
Probable space group: C 2 2 2
;
_chemical_formula_sum "Si O2"
_cell_formula_units_Z 54
_cell_length_a 15.092578
_cell_length_b 14.198668
_cell_length_c 11.347155
_cell_angle_alpha 90.000000
_cell_angle_beta 90.000000
_cell_angle_gamma 90.000000
_cell_volume 2431.632956
_symmetry_space_group_name_H-M "C 2 2 2"
_symmetry_group_IT_number 21
_symmetry_cell_setting 'orthorhombic'
loop_
_space_group_symop_operation_xyz
x,y,z
-x,-y,z
x,-y,-z
-x,y,-z
1/2+x,1/2+y,z
1/2-x,1/2-y,z
1/2+x,1/2-y,-z
1/2-x,1/2+y,-z
loop_
_atom_site_type_symbol
_atom_site_label
_atom_site_fract_x
_atom_site_fract_y
_atom_site_fract_z
Si Si1 0.752718 0.057291 0.379870
Si Si2 0.396691 0.846807 0.846059
Si Si3 0.953008 0.097398 0.346307
Si Si4 0.037428 0.863484 0.878441
Si Si5 0.933237 0.281809 0.591417
Si Si6 0.274047 0.547507 0.868055
Si Si7 0.750000 0.250000 0.468556
Si Si8 0.500000 0.000000 0.000000
O O1 0.856126 0.083276 0.394412
O O2 0.716223 0.163099 0.388361
O O3 0.726117 0.000000 0.500000
O O4 0.743388 0.010874 0.250252
O O5 0.433840 0.745674 0.886157
O O6 0.417532 0.844639 0.706681
O O7 0.292951 0.864056 0.868483
O O8 0.443041 0.931495 0.916452
O O9 0.955746 0.116113 0.207619
O O10 0.010427 0.187328 0.382500
O O11 0.000000 0.000000 0.371368
O O12 0.126252 0.918283 0.842305
O O13 0.000000 0.896052 0.000000
O O14 0.836814 0.243930 0.551403
O O15 0.000000 0.332530 0.500000
O O16 0.270455 0.500000 0.000000
#
# Coordination Sequence:
#
# PCOD9325353 Si02
#       8
#     8   8   8   8   8   8   4   2
#     4  12  26  45  73 110 150 194 238 307 376 442
#     4  11  26  47  75  99 143 190 252 298 364 435
#     4  11  22  39  68 106 144 184 231 292 370 440
#     4  11  24  42  71 104 145 190 242 301 376 438
#     4  11  25  44  71 107 141 194 234 300 371 440
#     4  12  26  48  72 109 145 190 244 307 367 443
#     4  12  26  46  72 110 158 182 250 298 372 460
#     4  12  24  56  70 100 132 196 252 302 348 456
#
# _framework density 22.207298000000002
#
# number of rings (size 3 to 8) (size 9 to 14) (size 15 to 20)
#    0.000    0.593    4.444    3.111    6.222    1.185 
#    5.333    1.852    0.000    0.000    0.000    0.000 
#    0.000    0.000    0.000    0.000    0.000    0.000 
#
# Total GULP energy -150573.499031 kJ/mol
# GULP energy per Si atom -5576.796260 kJ/mol
# Density = 2.215675 g / cm^3
# Si number density = 22.207298 Si / 1000 Ang^3
#
#
#
# Elastic Constant Matrix: (Units=GPa)
#
#
# Indices 1 2 3 4 5 6 
#
# 1 53.1403 -5.6101 -3.1157 0.0000 0.0000 0.0000
# 2 -5.6101 111.0040 39.1125 0.0000 0.0000 0.0000
# 3 -3.1157 39.1125 142.5047 0.0000 0.0000 0.0000
# 4 0.0000 0.0000 0.0000 55.4732 0.0000 0.0000
# 5 0.0000 0.0000 0.0000 0.0000 -3.9954 0.0000
# 6 0.0000 0.0000 0.0000 0.0000 0.0000 83.0391
#
#
#
# Elastic Compliance Matrix: (Units=1/GPa)
#
#
# Indices 1 2 3 4 5 6 
#
# 1 0.018923 0.000897 0.000167 0.000000 0.000000 0.000000
# 2 0.000897 0.010016 -0.002729 0.000000 0.000000 0.000000
# 3 0.000167 -0.002729 0.007770 0.000000 0.000000 0.000000
# 4 0.000000 0.000000 0.000000 0.018027 0.000000 0.000000
# 5 0.000000 0.000000 0.000000 0.000000 -0.250286 0.000000
# 6 0.000000 0.000000 0.000000 0.000000 0.000000 0.012043
#
#
# Mechanical properties :
#
#
# Convention : Reuss Voigt Hill
#
# Bulk Modulus (GPa) = 29.95863 40.82471 35.39167
# Shear Modulus (GPa) = -29.57655 45.32086 7.87216
#
# Velocity S-wave (km/s) = -3.65340 4.52243 1.88482
# Velocity P-wave (km/s) = 2.06801 6.75968 4.55064
#
# Compressibility (1/GPa) = 0.03337936
#
# Stress axis : x y z
#
# Youngs Moduli (GPa) = 52.84665 99.84295 128.69874
#
# Poissons Ratio (x) = -0.08959 -0.02155
# Poissons Ratio (y) = -0.04742 0.35126
# Poissons Ratio (z) = -0.00885 0.27251
#
# Static dielectric constant tensor:
#      x y z
#    x 1.831200 0.000000 0.000000 
#    y 0.000000 2.166940 0.000000 
#    z 0.000000 0.000000 1.925250 
# 
# From -- ./inp_files/25310.got.cif
#   From: 2010.05.17/outbox.cif.g08.bks.cpg/sg21_13_cif.got.tgz:25310.got - 2010.06.03 23:14:55.
