data_PCOD9325128
_publ_section_title
;
Structure prediction by ZEFSAII (Michael W. Deem and Ramdas Pophale) SiO2 
 PCOD9325128
Probable space group: C 2 2 2
;
_chemical_formula_sum "Si O2"
_cell_formula_units_Z 44
_cell_length_a 5.249815
_cell_length_b 26.602063
_cell_length_c 15.902354
_cell_angle_alpha 90.000000
_cell_angle_beta 90.000000
_cell_angle_gamma 90.000000
_cell_volume 2220.857709
_symmetry_space_group_name_H-M "C 2 2 2"
_symmetry_group_IT_number 21
_symmetry_cell_setting 'orthorhombic'
loop_
_space_group_symop_operation_xyz
x,y,z
-x,-y,z
x,-y,-z
-x,y,-z
1/2+x,1/2+y,z
1/2-x,1/2-y,z
1/2+x,1/2-y,-z
1/2-x,1/2+y,-z
loop_
_atom_site_type_symbol
_atom_site_label
_atom_site_fract_x
_atom_site_fract_y
_atom_site_fract_z
Si Si1 0.250000 0.250000 0.796895
Si Si2 0.500000 0.000000 0.772635
Si Si3 0.500000 0.500000 0.878546
Si Si4 0.441991 0.111159 0.257703
Si Si5 0.948490 0.168948 0.319905
Si Si6 0.605087 0.155669 0.091155
Si Si7 0.500000 0.283928 0.500000
Si Si8 0.000000 0.914354 0.000000
O O1 0.059055 0.220492 0.734892
O O2 0.349396 0.206352 0.857445
O O3 0.566870 0.051714 0.725681
O O4 0.245174 0.015345 0.824361
O O5 0.615452 0.455157 0.935560
O O6 0.698934 0.137036 0.293282
O O7 0.443783 0.122465 0.157018
O O8 0.198713 0.138315 0.296324
O O9 0.946608 0.183476 0.417194
O O10 0.840153 0.121234 0.061538
O O11 0.500000 0.169504 0.000000
O O12 0.750000 0.250000 0.515545
#
# Coordination Sequence:
#
# PCOD9325128 Si02
#       8
#     4   4   4   8   8   8   4   4
#     4  10  26  42  60  92 132 174 230 264 340 400
#     4  12  22  43  66  97 126 182 226 282 348 405
#     4  11  24  38  66  90 124 171 236 309 338 384
#     4  11  25  43  69  96 141 174 232 280 344 402
#     4  11  25  46  68 105 135 174 212 288 341 423
#     4  11  25  39  58  85 129 186 228 279 327 395
#     4  12  24  44  78 109 136 173 224 274 354 422
#     4  11  24  40  56  90 126 170 240 293 348 374
#
# _framework density 19.812166000000001
#
# number of rings (size 3 to 8) (size 9 to 14) (size 15 to 20)
#    0.000    0.909    2.727    3.273   11.455    0.727 
#    0.000    0.000    0.000    3.273    0.000    0.000 
#    0.000    0.000    0.000    0.000    0.000    0.000 
#
# Total GULP energy -122741.040672 kJ/mol
# GULP energy per Si atom -5579.138212 kJ/mol
# Density = 1.976707 g / cm^3
# Si number density = 19.812166 Si / 1000 Ang^3
#
#
#
# Elastic Constant Matrix: (Units=GPa)
#
#
# Indices 1 2 3 4 5 6 
#
# 1 95.5876 35.9447 26.8267 0.0000 0.0000 0.0000
# 2 35.9447 156.3715 51.5372 0.0000 0.0000 0.0000
# 3 26.8267 51.5372 132.3981 0.0000 0.0000 0.0000
# 4 0.0000 0.0000 0.0000 34.7321 0.0000 0.0000
# 5 0.0000 0.0000 0.0000 0.0000 28.6026 0.0000
# 6 0.0000 0.0000 0.0000 0.0000 0.0000 31.1472
#
#
#
# Elastic Compliance Matrix: (Units=1/GPa)
#
#
# Indices 1 2 3 4 5 6 
#
# 1 0.011712 -0.002191 -0.001520 0.000000 0.000000 0.000000
# 2 -0.002191 0.007746 -0.002571 0.000000 0.000000 0.000000
# 3 -0.001520 -0.002571 0.008862 0.000000 0.000000 0.000000
# 4 0.000000 0.000000 0.000000 0.028792 0.000000 0.000000
# 5 0.000000 0.000000 0.000000 0.000000 0.034962 0.000000
# 6 0.000000 0.000000 0.000000 0.000000 0.000000 0.032106
#
#
# Mechanical properties :
#
#
# Convention : Reuss Voigt Hill
#
# Bulk Modulus (GPa) = 63.47234 68.10826 65.79030
# Shear Modulus (GPa) = 35.21211 36.89963 36.05587
#
# Velocity S-wave (km/s) = 4.22037 4.32032 4.27064
# Velocity P-wave (km/s) = 7.47364 7.70315 7.58926
#
# Compressibility (1/GPa) = 0.01575490
#
# Stress axis : x y z
#
# Youngs Moduli (GPa) = 85.38079 129.09613 112.84273
#
# Poissons Ratio (x) = 0.28288 0.17154
# Poissons Ratio (y) = 0.18709 0.29015
# Poissons Ratio (z) = 0.12980 0.33194
#
# Static dielectric constant tensor:
#      x y z
#    x 1.688850 0.000000 0.000000 
#    y 0.000000 1.712290 0.000000 
#    z 0.000000 0.000000 1.685490 
# 
# From -- ./inp_files/29349.got.cif
#   From: 2010.05.17/outbox.cif.g08.bks.cpg/sg21_15_cif.got.tgz:29349.got - 2010.06.03 23:14:55.
