data_PCOD9325687
_publ_section_title
;
Structure prediction by ZEFSAII (Michael W. Deem and Ramdas Pophale) SiO2 
 PCOD9325687
Probable space group: C 2 2 2
;
_chemical_formula_sum "Si O2"
_cell_formula_units_Z 32
_cell_length_a 20.052872
_cell_length_b 8.380494
_cell_length_c 7.948310
_cell_angle_alpha 90.000000
_cell_angle_beta 90.000000
_cell_angle_gamma 90.000000
_cell_volume 1335.737130
_symmetry_space_group_name_H-M "C 2 2 2"
_symmetry_group_IT_number 21
_symmetry_cell_setting 'orthorhombic'
loop_
_space_group_symop_operation_xyz
x,y,z
-x,-y,z
x,-y,-z
-x,y,-z
1/2+x,1/2+y,z
1/2-x,1/2-y,z
1/2+x,1/2-y,-z
1/2-x,1/2+y,-z
loop_
_atom_site_type_symbol
_atom_site_label
_atom_site_fract_x
_atom_site_fract_y
_atom_site_fract_z
Si Si1 0.068719 0.793559 0.198608
Si Si2 0.695459 0.122473 0.363326
Si Si3 0.790948 0.893305 0.149311
Si Si4 0.426660 0.676387 0.799229
O O1 0.132947 0.711144 0.278608
O O2 0.994901 0.745191 0.267202
O O3 0.068140 0.984807 0.224152
O O4 0.071982 0.772445 0.996296
O O5 0.750000 0.250000 0.429618
O O6 0.668666 0.000000 0.500000
O O7 0.741064 0.010289 0.244136
O O8 0.750000 0.750000 0.069029
O O9 0.849735 0.807406 0.255498
O O10 0.820841 0.000000 0.000000
#
# Coordination Sequence:
#
# PCOD9325687 Si02
#       4
#     8   8   8   8
#     4   9  17  34  64 101 133 167 218 293 349 412
#     4  12  24  42  63  97 146 190 234 284 346 426
#     4  12  22  37  65 102 137 179 232 294 352 410
#     4   9  16  33  66 103 129 162 225 292 353 402
#
# _framework density 23.956810999999998
#
# number of rings (size 3 to 8) (size 9 to 14) (size 15 to 20)
#    0.000    1.500    5.000    4.500    0.000    0.000 
#    0.000    1.250    0.000   16.500    0.000    0.000 
#    0.000    0.000    0.000    0.000    0.000    0.000 
#
# Total GULP energy -89192.064220 kJ/mol
# GULP energy per Si atom -5574.504014 kJ/mol
# Density = 2.390228 g / cm^3
# Si number density = 23.956811 Si / 1000 Ang^3
#
#
#
# Elastic Constant Matrix: (Units=GPa)
#
#
# Indices 1 2 3 4 5 6 
#
# 1 255.1942 66.0512 45.1300 0.0000 0.0000 0.0000
# 2 66.0512 81.4913 34.0091 0.0000 0.0000 0.0000
# 3 45.1300 34.0091 42.2553 0.0000 0.0000 0.0000
# 4 0.0000 0.0000 0.0000 37.2274 0.0000 0.0000
# 5 0.0000 0.0000 0.0000 0.0000 13.4838 0.0000
# 6 0.0000 0.0000 0.0000 0.0000 0.0000 9.2349
#
#
#
# Elastic Compliance Matrix: (Units=1/GPa)
#
#
# Indices 1 2 3 4 5 6 
#
# 1 0.005245 -0.002881 -0.003283 0.000000 0.000000 0.000000
# 2 -0.002881 0.020060 -0.013068 0.000000 0.000000 0.000000
# 3 -0.003283 -0.013068 0.037690 0.000000 0.000000 0.000000
# 4 0.000000 0.000000 0.000000 0.026862 0.000000 0.000000
# 5 0.000000 0.000000 0.000000 0.000000 0.074163 0.000000
# 6 0.000000 0.000000 0.000000 0.000000 0.000000 0.108285
#
#
# Mechanical properties :
#
#
# Convention : Reuss Voigt Hill
#
# Bulk Modulus (GPa) = 40.76570 74.36906 57.56738
# Shear Modulus (GPa) = 15.67660 27.57258 21.62459
#
# Velocity S-wave (km/s) = 2.56084 3.39621 3.00767
# Velocity P-wave (km/s) = 5.07909 6.81831 6.01193
#
# Compressibility (1/GPa) = 0.02453042
#
# Stress axis : x y z
#
# Youngs Moduli (GPa) = 190.66368 49.84954 26.53226
#
# Poissons Ratio (x) = 0.14362 0.08710
# Poissons Ratio (y) = 0.54931 0.34674
# Poissons Ratio (z) = 0.62592 0.65146
#
# Static dielectric constant tensor:
#      x y z
#    x 2.014560 0.000000 0.000000 
#    y 0.000000 1.892450 0.000000 
#    z 0.000000 0.000000 1.960540 
# 
# From -- ./inp_files/17097.got.cif
#   From: 2010.05.17/outbox.cif.g08.bks.cpg/sg21_9_cif.got.tgz:17097.got - 2010.06.03 23:14:55.
