data_PCOD9325983
_publ_section_title
;
Structure prediction by ZEFSAII (Michael W. Deem and Ramdas Pophale) SiO2 
 PCOD9325983
Probable space group: F 2 2 2
;
_chemical_formula_sum "Si O2"
_cell_formula_units_Z 112
_cell_length_a 18.213368
_cell_length_b 15.783883
_cell_length_c 20.485043
_cell_angle_alpha 90.000000
_cell_angle_beta 90.000000
_cell_angle_gamma 90.000000
_cell_volume 5888.992422
_symmetry_space_group_name_H-M "F 2 2 2"
_symmetry_group_IT_number 22
_symmetry_cell_setting 'orthorhombic'
loop_
_space_group_symop_operation_xyz
x,y,z
-x,-y,z
x,-y,-z
-x,y,-z
x,1/2+y,1/2+z
-x,1/2-y,1/2+z
x,1/2-y,1/2-z
-x,1/2+y,1/2-z
1/2+x,y,1/2+z
1/2-x,-y,1/2+z
1/2+x,-y,1/2-z
1/2-x,y,1/2-z
1/2+x,1/2+y,z
1/2-x,1/2-y,z
1/2+x,1/2-y,-z
1/2-x,1/2+y,-z
loop_
_atom_site_type_symbol
_atom_site_label
_atom_site_fract_x
_atom_site_fract_y
_atom_site_fract_z
Si Si1 0.084683 0.405549 0.863754
Si Si2 0.809986 0.368173 0.501194
Si Si3 0.080652 0.604720 0.899978
Si Si4 0.817050 0.005348 0.887292
Si Si5 0.146002 0.814513 0.480723
Si Si6 0.303585 0.104323 0.196312
Si Si7 0.586443 0.481710 0.231867
O O1 0.090545 0.502716 0.891327
O O2 0.135983 0.346999 0.907248
O O3 0.100422 0.410187 0.786694
O O4 0.000379 0.377697 0.873583
O O5 0.804768 0.433247 0.441011
O O6 0.835844 0.413750 0.567418
O O7 0.858545 0.286360 0.485532
O O8 0.725712 0.339630 0.508071
O O9 0.146557 0.648857 0.858589
O O10 0.089051 0.635547 0.973695
O O11 0.879876 0.971583 0.839235
O O12 0.747927 0.036029 0.842676
O O13 0.250000 0.146592 0.250000
O O14 0.366919 0.059764 0.239013
O O15 0.500000 0.500000 0.231365
#
# Coordination Sequence:
#
# PCOD9325983 Si02
#       7
#    16  16  16  16  16  16  16
#     4  10  19  32  56  89 117 141 178 231 303 353
#     4  10  22  37  53  82 109 153 200 227 283 329
#     4  10  17  32  54  90 116 139 177 226 299 350
#     4  10  20  37  61  78 110 153 196 238 271 345
#     4  11  21  33  55  83 121 145 178 244 284 347
#     4   9  16  29  57  87 110 136 181 232 281 332
#     4  10  18  34  56  87 109 142 193 236 278 340
#
# _framework density 19.018533000000001
#
# number of rings (size 3 to 8) (size 9 to 14) (size 15 to 20)
#    0.000    2.000    4.286    2.571    2.000    1.143 
#    0.000    5.000    0.000   12.000    0.000    0.000 
#    0.000    0.000    0.000    0.000    0.000    0.000 
#
# Total GULP energy -155893.881229 kJ/mol
# GULP energy per Si atom -5567.638615 kJ/mol
# Density = 1.897525 g / cm^3
# Si number density = 19.018533 Si / 1000 Ang^3
#
#
#
# Elastic Constant Matrix: (Units=GPa)
#
#
# Indices 1 2 3 4 5 6 
#
# 1 72.8741 11.4237 41.3649 0.0000 0.0000 0.0000
# 2 11.4237 56.5901 28.2959 0.0000 0.0000 0.0000
# 3 41.3649 28.2959 109.1525 0.0000 0.0000 0.0000
# 4 0.0000 0.0000 0.0000 3.3470 0.0000 0.0000
# 5 0.0000 0.0000 0.0000 0.0000 39.0980 0.0000
# 6 0.0000 0.0000 0.0000 0.0000 0.0000 13.0570
#
#
#
# Elastic Compliance Matrix: (Units=1/GPa)
#
#
# Indices 1 2 3 4 5 6 
#
# 1 0.017486 -0.000249 -0.006562 0.000000 0.000000 0.000000
# 2 -0.000249 0.020306 -0.005170 0.000000 0.000000 0.000000
# 3 -0.006562 -0.005170 0.012988 0.000000 0.000000 0.000000
# 4 0.000000 0.000000 0.000000 0.298777 0.000000 0.000000
# 5 0.000000 0.000000 0.000000 0.000000 0.025577 0.000000
# 6 0.000000 0.000000 0.000000 0.000000 0.000000 0.076588
#
#
# Mechanical properties :
#
#
# Convention : Reuss Voigt Hill
#
# Bulk Modulus (GPa) = 37.28634 44.53175 40.90904
# Shear Modulus (GPa) = 10.31729 21.60254 15.95992
#
# Velocity S-wave (km/s) = 2.33166 3.37392 2.90000
# Velocity P-wave (km/s) = 5.18620 6.21639 5.72452
#
# Compressibility (1/GPa) = 0.02681947
#
# Stress axis : x y z
#
# Youngs Moduli (GPa) = 57.18830 49.24634 76.99131
#
# Poissons Ratio (x) = 0.01225 0.50523
# Poissons Ratio (y) = 0.01422 0.39803
# Poissons Ratio (z) = 0.37528 0.25459
#
# Static dielectric constant tensor:
#      x y z
#    x 1.681390 0.000000 0.000000 
#    y 0.000000 1.669910 0.000000 
#    z 0.000000 0.000000 1.716270 
# 
# From -- ./inp_files/44942.got.cif
#   From: 2010.05.17/outbox.cif.g08.bks.cpg/sg22_23_cif.got.tgz:44942.got - 2010.06.03 23:40:54.
