data_PCOD9325906
_publ_section_title
;
Structure prediction by ZEFSAII (Michael W. Deem and Ramdas Pophale) SiO2 
 PCOD9325906
Probable space group: F 2 2 2
;
_chemical_formula_sum "Si O2"
_cell_formula_units_Z 64
_cell_length_a 7.834671
_cell_length_b 21.097934
_cell_length_c 15.897764
_cell_angle_alpha 90.000000
_cell_angle_beta 90.000000
_cell_angle_gamma 90.000000
_cell_volume 2627.826809
_symmetry_space_group_name_H-M "F 2 2 2"
_symmetry_group_IT_number 22
_symmetry_cell_setting 'orthorhombic'
loop_
_space_group_symop_operation_xyz
x,y,z
-x,-y,z
x,-y,-z
-x,y,-z
x,1/2+y,1/2+z
-x,1/2-y,1/2+z
x,1/2-y,1/2-z
-x,1/2+y,1/2-z
1/2+x,y,1/2+z
1/2-x,-y,1/2+z
1/2+x,-y,1/2-z
1/2-x,y,1/2-z
1/2+x,1/2+y,z
1/2-x,1/2-y,z
1/2+x,1/2-y,-z
1/2-x,1/2+y,-z
loop_
_atom_site_type_symbol
_atom_site_label
_atom_site_fract_x
_atom_site_fract_y
_atom_site_fract_z
Si Si1 0.413025 0.625932 0.698784
Si Si2 0.404705 0.907093 0.360216
Si Si3 0.000000 0.325076 0.500000
Si Si4 0.250000 0.250000 0.121079
Si Si5 0.264365 0.972674 0.906842
O O1 0.250000 0.599743 0.750000
O O2 0.556775 0.624431 0.770225
O O3 0.356229 0.695892 0.670643
O O4 0.412474 0.575286 0.622881
O O5 0.365167 0.860380 0.437238
O O6 0.584774 0.934557 0.398212
O O7 0.275289 0.964945 0.351913
O O8 0.113937 0.285825 0.435874
O O9 0.286245 0.000000 0.000000
#
# Coordination Sequence:
#
# PCOD9325906 Si02
#       5
#    16  16   8   8  16
#     4  10  20  34  63  89 121 168 215 254 315 381
#     4  10  18  33  62  93 116 163 207 265 309 383
#     4  12  22  37  68  90 129 164 222 252 320 374
#     4  12  23  40  64  93 122 172 212 269 302 394
#     4  10  16  32  61  91 118 155 209 261 310 373
#
# _framework density 24.354727
#
# number of rings (size 3 to 8) (size 9 to 14) (size 15 to 20)
#    0.000    1.500    7.500    1.125    0.000    0.000 
#    0.000    0.000   60.500    1.500    0.000    0.000 
#    0.000    0.000    0.000    0.000    0.000    0.000 
#
# Total GULP energy -89320.238195 kJ/mol
# GULP energy per Si atom -5582.514887 kJ/mol
# Density = 2.429929 g / cm^3
# Si number density = 24.354727 Si / 1000 Ang^3
#
#
#
# Elastic Constant Matrix: (Units=GPa)
#
#
# Indices 1 2 3 4 5 6 
#
# 1 63.6866 20.1845 15.9235 0.0000 0.0000 0.0000
# 2 20.1845 163.5064 108.2013 0.0000 0.0000 0.0000
# 3 15.9235 108.2013 172.0310 0.0000 0.0000 0.0000
# 4 0.0000 0.0000 0.0000 50.5809 0.0000 0.0000
# 5 0.0000 0.0000 0.0000 0.0000 9.6061 0.0000
# 6 0.0000 0.0000 0.0000 0.0000 0.0000 5.2214
#
#
#
# Elastic Compliance Matrix: (Units=1/GPa)
#
#
# Indices 1 2 3 4 5 6 
#
# 1 0.016359 -0.001743 -0.000418 0.000000 0.000000 0.000000
# 2 -0.001743 0.010662 -0.006545 0.000000 0.000000 0.000000
# 3 -0.000418 -0.006545 0.009968 0.000000 0.000000 0.000000
# 4 0.000000 0.000000 0.000000 0.019770 0.000000 0.000000
# 5 0.000000 0.000000 0.000000 0.000000 0.104100 0.000000
# 6 0.000000 0.000000 0.000000 0.000000 0.000000 0.191520
#
#
# Mechanical properties :
#
#
# Convention : Reuss Voigt Hill
#
# Bulk Modulus (GPa) = 51.07858 76.42697 63.75277
# Shear Modulus (GPa) = 13.28669 30.07601 21.68135
#
# Velocity S-wave (km/s) = 2.33823 3.51795 2.98691
# Velocity P-wave (km/s) = 5.32053 6.92460 6.17488
#
# Compressibility (1/GPa) = 0.01957768
#
# Stress axis : x y z
#
# Youngs Moduli (GPa) = 61.12934 93.78944 100.32051
#
# Poissons Ratio (x) = 0.16346 0.04194
# Poissons Ratio (y) = 0.10654 0.65658
# Poissons Ratio (z) = 0.02555 0.61383
#
# Static dielectric constant tensor:
#      x y z
#    x 2.039190 0.000000 0.000000 
#    y 0.000000 2.014310 0.000000 
#    z 0.000000 0.000000 2.009730 
# 
# From -- ./inp_files/26892.got.cif
#   From: 2010.05.17/outbox.cif.g08.bks.cpg/sg22_14_cif.got.tgz:26892.got - 2010.06.03 23:40:54.
