data_PCOD9325159
_publ_section_title
;
Structure prediction by ZEFSAII (Michael W. Deem and Ramdas Pophale) SiO2 
 PCOD9325159
Probable space group: C 2 2 2
;
_chemical_formula_sum "Si O2"
_cell_formula_units_Z 26
_cell_length_a 8.273943
_cell_length_b 5.191117
_cell_length_c 25.045648
_cell_angle_alpha 90.000000
_cell_angle_beta 90.000000
_cell_angle_gamma 90.000000
_cell_volume 1075.735782
_symmetry_space_group_name_H-M "C 2 2 2"
_symmetry_group_IT_number 21
_symmetry_cell_setting 'orthorhombic'
loop_
_space_group_symop_operation_xyz
x,y,z
-x,-y,z
x,-y,-z
-x,y,-z
1/2+x,1/2+y,z
1/2-x,1/2-y,z
1/2+x,1/2-y,-z
1/2-x,1/2+y,-z
loop_
_atom_site_type_symbol
_atom_site_label
_atom_site_fract_x
_atom_site_fract_y
_atom_site_fract_z
Si Si1 0.000000 0.000000 0.269760
Si Si2 0.250000 0.250000 0.349043
Si Si3 0.500000 0.000000 0.577370
Si Si4 0.500000 0.500000 0.500000
Si Si5 0.250000 0.750000 0.963310
Si Si6 0.250000 0.250000 0.811280
Si Si7 0.500000 0.000000 0.109639
O O1 0.107176 0.166733 0.309744
O O2 0.875619 0.126636 0.229255
O O3 0.160180 0.450540 0.387753
O O4 0.467699 0.266033 0.544229
O O5 0.088600 0.708284 0.927873
O O6 0.265019 0.500000 0.000000
O O7 0.356158 0.082172 0.851378
#
# Coordination Sequence:
#
# PCOD9325159 Si02
#       7
#     4   4   4   2   4   4   4
#     4  12  25  46  74 109 149 196 248 311 378 450
#     4  12  26  47  76 111 151 198 251 310 378 452
#     4  11  26  49  78 115 155 202 255 314 379 454
#     4  10  26  50  80 112 156 202 256 314 380 450
#     4  12  29  51  78 114 156 204 257 317 382 454
#     4  12  25  46  74 109 149 196 250 311 378 450
#     4  12  27  47  76 111 151 200 253 313 378 452
#
# _framework density 24.169502999999999
#
# number of rings (size 3 to 8) (size 9 to 14) (size 15 to 20)
#    0.000    0.308    0.000    7.846    0.000   13.538 
#    0.000    0.000    0.000    0.000    0.000    0.000 
#    0.000    0.000    0.000    0.000    0.000    0.000 
#
# Total GULP energy -72545.351792 kJ/mol
# GULP energy per Si atom -5580.411676 kJ/mol
# Density = 2.411449 g / cm^3
# Si number density = 24.169503 Si / 1000 Ang^3
#
#
#
# Elastic Constant Matrix: (Units=GPa)
#
#
# Indices 1 2 3 4 5 6 
#
# 1 178.4064 83.6151 92.7092 0.0000 0.0000 0.0000
# 2 83.6151 181.4070 118.9274 0.0000 0.0000 0.0000
# 3 92.7092 118.9274 202.8140 0.0000 0.0000 0.0000
# 4 0.0000 0.0000 0.0000 31.9930 0.0000 0.0000
# 5 0.0000 0.0000 0.0000 0.0000 715.0399 0.0000
# 6 0.0000 0.0000 0.0000 0.0000 0.0000 59.6699
#
#
#
# Elastic Compliance Matrix: (Units=1/GPa)
#
#
# Indices 1 2 3 4 5 6 
#
# 1 0.007790 -0.002041 -0.002364 0.000000 0.000000 0.000000
# 2 -0.002041 0.009490 -0.004632 0.000000 0.000000 0.000000
# 3 -0.002364 -0.004632 0.008727 0.000000 0.000000 0.000000
# 4 0.000000 0.000000 0.000000 0.031257 0.000000 0.000000
# 5 0.000000 0.000000 0.000000 0.000000 0.001399 0.000000
# 6 0.000000 0.000000 0.000000 0.000000 0.000000 0.016759
#
#
# Mechanical properties :
#
#
# Convention : Reuss Voigt Hill
#
# Bulk Modulus (GPa) = 126.04602 128.12565 127.08584
# Shear Modulus (GPa) = 52.00769 179.16560 115.58664
#
# Velocity S-wave (km/s) = 4.64377 8.61915 6.92294
# Velocity P-wave (km/s) = 9.00094 12.33610 10.79806
#
# Compressibility (1/GPa) = 0.00793361
#
# Stress axis : x y z
#
# Youngs Moduli (GPa) = 128.36527 105.37917 114.58134
#
# Poissons Ratio (x) = 0.21504 0.27092
# Poissons Ratio (y) = 0.26195 0.53071
# Poissons Ratio (z) = 0.30351 0.48809
#
# Static dielectric constant tensor:
#      x y z
#    x 1.861980 0.000000 0.000000 
#    y 0.000000 1.961100 0.000000 
#    z 0.000000 0.000000 1.962170 
# 
# From -- ./inp_files/38386.got.cif
#   From: 2010.05.17/outbox.cif.g08.bks.cpg/sg21_20_cif.got.tgz:38386.got - 2010.06.03 23:14:55.
