data_PCOD9325005
_publ_section_title
;
Structure prediction by ZEFSAII (Michael W. Deem and Ramdas Pophale) SiO2 
 PCOD9325005
Probable space group: C 2 2 2
;
_chemical_formula_sum "Si O2"
_cell_formula_units_Z 58
_cell_length_a 9.321850
_cell_length_b 26.498820
_cell_length_c 11.508961
_cell_angle_alpha 90.000000
_cell_angle_beta 90.000000
_cell_angle_gamma 90.000000
_cell_volume 2842.920819
_symmetry_space_group_name_H-M "C 2 2 2"
_symmetry_group_IT_number 21
_symmetry_cell_setting 'orthorhombic'
loop_
_space_group_symop_operation_xyz
x,y,z
-x,-y,z
x,-y,-z
-x,y,-z
1/2+x,1/2+y,z
1/2-x,1/2-y,z
1/2+x,1/2-y,-z
1/2-x,1/2+y,-z
loop_
_atom_site_type_symbol
_atom_site_label
_atom_site_fract_x
_atom_site_fract_y
_atom_site_fract_z
Si Si1 0.205526 0.616393 0.225894
Si Si2 0.071160 0.621060 0.618361
Si Si3 0.515481 0.639889 0.633887
Si Si4 0.221467 0.809148 0.765468
Si Si5 0.302332 0.545560 0.656987
Si Si6 0.328122 0.803606 0.018673
Si Si7 0.500000 0.500000 0.500000
Si Si8 0.170842 0.506168 0.136323
O O1 0.325137 0.630506 0.321070
O O2 0.198778 0.657862 0.123692
O O3 0.226877 0.561155 0.172373
O O4 0.053213 0.613539 0.289044
O O5 0.179566 0.660883 0.674947
O O6 0.162033 0.569938 0.597988
O O7 0.000000 0.638940 0.500000
O O8 0.500000 0.657419 0.500000
O O9 0.438023 0.676971 0.724906
O O10 0.425685 0.587523 0.638272
O O11 0.250000 0.750000 0.757660
O O12 0.261774 0.824050 0.897149
O O13 0.372123 0.496810 0.598861
O O14 0.257018 0.534567 0.787951
O O15 0.250000 0.750000 0.041161
O O16 0.500000 0.796793 0.000000
O O17 0.000000 0.500000 0.161356
O O18 0.189925 0.500000 0.000000
#
# Coordination Sequence:
#
# PCOD9325005 Si02
#       8
#     8   8   8   8   8   8   2   8
#     4  12  25  43  72 104 133 186 231 292 351 423
#     4  11  24  42  68  99 135 178 235 282 345 417
#     4  11  25  46  68  99 144 182 233 287 350 417
#     4  10  24  45  70  98 140 180 226 294 354 411
#     4  11  24  44  65  96 137 182 224 288 333 409
#     4  11  26  46  75 105 139 179 236 293 356 424
#     4  12  24  40  72  88 136 176 234 278 328 404
#     4  11  26  43  68 100 139 178 233 288 355 415
#
# _framework density 20.401553
#
# number of rings (size 3 to 8) (size 9 to 14) (size 15 to 20)
#    0.000    0.966    3.448    2.483   11.586    0.552 
#    0.000    3.793    0.000    0.000    0.000    0.000 
#    0.000    0.000    0.000    0.000    0.000    0.000 
#
# Total GULP energy -161752.645124 kJ/mol
# GULP energy per Si atom -5577.677418 kJ/mol
# Density = 2.035512 g / cm^3
# Si number density = 20.401553 Si / 1000 Ang^3
#
#
#
# Elastic Constant Matrix: (Units=GPa)
#
#
# Indices 1 2 3 4 5 6 
#
# 1 110.8407 19.2901 35.5747 0.0000 0.0000 0.0000
# 2 19.2901 35.2392 19.3054 0.0000 0.0000 0.0000
# 3 35.5747 19.3054 110.8459 0.0000 0.0000 0.0000
# 4 0.0000 0.0000 0.0000 31.9917 0.0000 0.0000
# 5 0.0000 0.0000 0.0000 0.0000 39.4842 0.0000
# 6 0.0000 0.0000 0.0000 0.0000 0.0000 32.5313
#
#
#
# Elastic Compliance Matrix: (Units=1/GPa)
#
#
# Indices 1 2 3 4 5 6 
#
# 1 0.010633 -0.004368 -0.002652 0.000000 0.000000 0.000000
# 2 -0.004368 0.033165 -0.004374 0.000000 0.000000 0.000000
# 3 -0.002652 -0.004374 0.010634 0.000000 0.000000 0.000000
# 4 0.000000 0.000000 0.000000 0.031258 0.000000 0.000000
# 5 0.000000 0.000000 0.000000 0.000000 0.025327 0.000000
# 6 0.000000 0.000000 0.000000 0.000000 0.000000 0.030740
#
#
# Mechanical properties :
#
#
# Convention : Reuss Voigt Hill
#
# Bulk Modulus (GPa) = 31.60110 45.02959 38.31535
# Shear Modulus (GPa) = 28.55619 32.98515 30.77067
#
# Velocity S-wave (km/s) = 3.74532 4.02530 3.88783
# Velocity P-wave (km/s) = 5.85034 6.61239 6.24300
#
# Compressibility (1/GPa) = 0.03164446
#
# Stress axis : x y z
#
# Youngs Moduli (GPa) = 94.04467 30.15230 94.03380
#
# Poissons Ratio (x) = 0.13170 0.24937
# Poissons Ratio (y) = 0.41078 0.41134
# Poissons Ratio (z) = 0.24940 0.13190
#
# Static dielectric constant tensor:
#      x y z
#    x 1.700330 0.000000 0.000000 
#    y 0.000000 1.884230 0.000000 
#    z 0.000000 0.000000 1.705860 
# 
# From -- ./inp_files/23001.got.cif
#   From: 2010.05.17/outbox.cif.g08.bks.cpg/sg21_12_cif.got.tgz:23001.got - 2010.06.03 23:14:55.
