data_PCOD9325239
_publ_section_title
;
Structure prediction by ZEFSAII (Michael W. Deem and Ramdas Pophale) SiO2 
 PCOD9325239
Probable space group: C 2 2 2
;
_chemical_formula_sum "Si O2"
_cell_formula_units_Z 48
_cell_length_a 31.222059
_cell_length_b 8.644465
_cell_length_c 7.797105
_cell_angle_alpha 90.000000
_cell_angle_beta 90.000000
_cell_angle_gamma 90.000000
_cell_volume 2104.423016
_symmetry_space_group_name_H-M "C 2 2 2"
_symmetry_group_IT_number 21
_symmetry_cell_setting 'orthorhombic'
loop_
_space_group_symop_operation_xyz
x,y,z
-x,-y,z
x,-y,-z
-x,y,-z
1/2+x,1/2+y,z
1/2-x,1/2-y,z
1/2+x,1/2-y,-z
1/2-x,1/2+y,-z
loop_
_atom_site_type_symbol
_atom_site_label
_atom_site_fract_x
_atom_site_fract_y
_atom_site_fract_z
Si Si1 0.047754 0.545987 0.702059
Si Si2 0.670039 0.674653 0.309917
Si Si3 0.391261 0.796890 0.185884
Si Si4 0.739473 0.500000 0.500000
Si Si5 0.805431 0.483894 0.198233
Si Si6 0.575915 0.338738 0.540546
Si Si7 0.140569 0.000000 0.000000
O O1 0.054274 0.500000 0.500000
O O2 0.081407 0.457299 0.822668
O O3 0.052902 0.729581 0.678606
O O4 0.000000 0.500000 0.751925
O O5 0.707745 0.636088 0.440362
O O6 0.673874 0.850731 0.249740
O O7 0.623615 0.641916 0.386316
O O8 0.671132 0.556734 0.152159
O O9 0.414109 0.729980 0.354007
O O10 0.342632 0.855640 0.210654
O O11 0.387182 0.652055 0.054822
O O12 0.768668 0.457552 0.337286
O O13 0.791251 0.500000 0.000000
O O14 0.553829 0.500000 0.500000
#
# Coordination Sequence:
#
# PCOD9325239 Si02
#       7
#     8   8   8   4   8   8   4
#     4   9  20  39  69 107 142 181 243 300 369 451
#     4  12  24  45  67 100 140 186 240 304 361 435
#     4  11  22  41  70 102 140 186 245 296 363 450
#     4  12  28  46  68 108 147 181 256 306 368 438
#     4  12  26  47  72 101 140 199 243 304 374 440
#     4  11  20  39  72 102 138 189 234 295 370 438
#     4  12  24  40  70 101 138 190 244 302 363 438
#
# _framework density 22.809101999999999
#
# number of rings (size 3 to 8) (size 9 to 14) (size 15 to 20)
#    0.000    0.833    5.833    1.500    2.333    1.333 
#    0.000    6.667    0.000    5.500    0.000    0.000 
#    0.000    0.000    0.000    0.000    0.000    0.000 
#
# Total GULP energy -134026.069322 kJ/mol
# GULP energy per Si atom -5584.419555 kJ/mol
# Density = 2.275719 g / cm^3
# Si number density = 22.809102 Si / 1000 Ang^3
#
#
#
# Elastic Constant Matrix: (Units=GPa)
#
#
# Indices 1 2 3 4 5 6 
#
# 1 107.4900 46.4555 31.1927 0.0000 0.0000 0.0000
# 2 46.4555 158.2172 43.3185 0.0000 0.0000 0.0000
# 3 31.1927 43.3185 80.9682 0.0000 0.0000 0.0000
# 4 0.0000 0.0000 0.0000 17.1426 0.0000 0.0000
# 5 0.0000 0.0000 0.0000 0.0000 -296.6643 0.0000
# 6 0.0000 0.0000 0.0000 0.0000 0.0000 15.7733
#
#
#
# Elastic Compliance Matrix: (Units=1/GPa)
#
#
# Indices 1 2 3 4 5 6 
#
# 1 0.011247 -0.002479 -0.003007 0.000000 0.000000 0.000000
# 2 -0.002479 0.007952 -0.003299 0.000000 0.000000 0.000000
# 3 -0.003007 -0.003299 0.015274 0.000000 0.000000 0.000000
# 4 0.000000 0.000000 0.000000 0.058334 0.000000 0.000000
# 5 0.000000 0.000000 0.000000 0.000000 -0.003371 0.000000
# 6 0.000000 0.000000 0.000000 0.000000 0.000000 0.063398
#
#
# Mechanical properties :
#
#
# Convention : Reuss Voigt Hill
#
# Bulk Modulus (GPa) = 59.16122 65.40097 62.28109
# Shear Modulus (GPa) = 28.40297 -37.70241 -4.64972
#
# Velocity S-wave (km/s) = 3.53263 -4.07007 -1.42932
# Velocity P-wave (km/s) = 6.52941 2.57841 4.96394
#
# Compressibility (1/GPa) = 0.01690297
#
# Stress axis : x y z
#
# Youngs Moduli (GPa) = 88.91156 125.76057 65.47159
#
# Poissons Ratio (x) = 0.31179 0.19684
# Poissons Ratio (y) = 0.22043 0.21599
# Poissons Ratio (z) = 0.26732 0.41489
#
# Static dielectric constant tensor:
#      x y z
#    x 1.799380 0.000000 0.000000 
#    y 0.000000 7.745340 0.000000 
#    z 0.000000 0.000000 1.871710 
# 
# From -- ./inp_files/19693.got.cif
#   From: 2010.05.17/outbox.cif.g08.bks.cpg/sg21_10_cif.got.tgz:19693.got - 2010.06.03 23:14:55.
