data_PCOD9325640
_publ_section_title
;
Structure prediction by ZEFSAII (Michael W. Deem and Ramdas Pophale) SiO2 
 PCOD9325640
Probable space group: C 2 2 2
;
_chemical_formula_sum "Si O2"
_cell_formula_units_Z 30
_cell_length_a 9.347293
_cell_length_b 15.108443
_cell_length_c 9.557731
_cell_angle_alpha 90.000000
_cell_angle_beta 90.000000
_cell_angle_gamma 90.000000
_cell_volume 1349.771861
_symmetry_space_group_name_H-M "C 2 2 2"
_symmetry_group_IT_number 21
_symmetry_cell_setting 'orthorhombic'
loop_
_space_group_symop_operation_xyz
x,y,z
-x,-y,z
x,-y,-z
-x,y,-z
1/2+x,1/2+y,z
1/2-x,1/2-y,z
1/2+x,1/2-y,-z
1/2-x,1/2+y,-z
loop_
_atom_site_type_symbol
_atom_site_label
_atom_site_fract_x
_atom_site_fract_y
_atom_site_fract_z
Si Si1 0.144725 0.170267 0.409804
Si Si2 0.336777 0.888942 0.229038
Si Si3 0.500000 0.000000 0.000000
Si Si4 0.309085 0.000000 0.500000
Si Si5 0.460113 0.696354 0.163013
O O1 0.250000 0.250000 0.451412
O O2 0.000000 0.176455 0.500000
O O3 0.102146 0.177605 0.249086
O O4 0.215458 0.075517 0.428271
O O5 0.375372 0.941142 0.372536
O O6 0.407126 0.792207 0.216710
O O7 0.166840 0.871458 0.207205
O O8 0.399962 0.942531 0.099967
O O9 0.500000 0.696477 0.000000
#
# Coordination Sequence:
#
# PCOD9325640 Si02
#       5
#     8   8   2   4   8
#     4  12  27  49  77 113 155 207 265 328 399 471
#     4  11  27  49  74 113 154 205 264 331 396 476
#     4  12  28  50  74 112 156 200 276 322 408 474
#     4  12  27  49  74 114 155 202 267 328 387 478
#     4  11  26  49  76 108 157 206 262 326 407 475
#
# _framework density 22.225978999999999
#
# number of rings (size 3 to 8) (size 9 to 14) (size 15 to 20)
#    0.000    0.533    4.000    2.000   11.200    0.533 
#    0.000    0.000    0.000    0.000    0.000    0.000 
#    0.000    0.000    0.000    0.000    0.000    0.000 
#
# Total GULP energy -83910.783560 kJ/mol
# GULP energy per Si atom -5594.052237 kJ/mol
# Density = 2.217539 g / cm^3
# Si number density = 22.225979 Si / 1000 Ang^3
#
#
#
# Elastic Constant Matrix: (Units=GPa)
#
#
# Indices 1 2 3 4 5 6 
#
# 1 57.8618 38.4011 22.7380 0.0000 0.0000 0.0000
# 2 38.4011 124.7047 43.4539 0.0000 0.0000 0.0000
# 3 22.7380 43.4539 177.9918 0.0000 0.0000 0.0000
# 4 0.0000 0.0000 0.0000 31.9133 0.0000 0.0000
# 5 0.0000 0.0000 0.0000 0.0000 7.3826 0.0000
# 6 0.0000 0.0000 0.0000 0.0000 0.0000 -659.0607
#
#
#
# Elastic Compliance Matrix: (Units=1/GPa)
#
#
# Indices 1 2 3 4 5 6 
#
# 1 0.021978 -0.006328 -0.001263 0.000000 0.000000 0.000000
# 2 -0.006328 0.010586 -0.001776 0.000000 0.000000 0.000000
# 3 -0.001263 -0.001776 0.006213 0.000000 0.000000 0.000000
# 4 0.000000 0.000000 0.000000 0.031335 0.000000 0.000000
# 5 0.000000 0.000000 0.000000 0.000000 0.135453 0.000000
# 6 0.000000 0.000000 0.000000 0.000000 0.000000 -0.001517
#
#
# Mechanical properties :
#
#
# Convention : Reuss Voigt Hill
#
# Bulk Modulus (GPa) = 49.88948 63.30492 56.59720
# Shear Modulus (GPa) = 21.78987 -106.88860 -42.54937
#
# Velocity S-wave (km/s) = 3.13450 -6.94234 -4.38013
# Velocity P-wave (km/s) = 5.96618 5.97639 0.24698
#
# Compressibility (1/GPa) = 0.02004431
#
# Stress axis : x y z
#
# Youngs Moduli (GPa) = 45.49904 94.46042 160.94831
#
# Poissons Ratio (x) = 0.59774 0.20325
# Poissons Ratio (y) = 0.28791 0.28587
# Poissons Ratio (z) = 0.05746 0.16777
#
# Static dielectric constant tensor:
#      x y z
#    x 1.878210 0.000000 0.000000 
#    y 0.000000 1.803510 0.000000 
#    z 0.000000 0.000000 1.868160 
# 
# From -- ./inp_files/12201.got.cif
#   From: 2010.05.17/outbox.cif.g08.bks.cpg/sg21_7_cif.got.tgz:12201.got - 2010.06.03 23:14:55.
