data_PCOD9325501
_publ_section_title
;
Structure prediction by ZEFSAII (Michael W. Deem and Ramdas Pophale) SiO2 
 PCOD9325501
Probable space group: C 2 2 2
;
_chemical_formula_sum "Si O2"
_cell_formula_units_Z 24
_cell_length_a 16.796458
_cell_length_b 8.595351
_cell_length_c 8.016365
_cell_angle_alpha 90.000000
_cell_angle_beta 90.000000
_cell_angle_gamma 90.000000
_cell_volume 1157.334255
_symmetry_space_group_name_H-M "C 2 2 2"
_symmetry_group_IT_number 21
_symmetry_cell_setting 'orthorhombic'
loop_
_space_group_symop_operation_xyz
x,y,z
-x,-y,z
x,-y,-z
-x,y,-z
1/2+x,1/2+y,z
1/2-x,1/2-y,z
1/2+x,1/2-y,-z
1/2-x,1/2+y,-z
loop_
_atom_site_type_symbol
_atom_site_label
_atom_site_fract_x
_atom_site_fract_y
_atom_site_fract_z
Si Si1 0.350804 0.000000 0.000000
Si Si2 0.544981 0.841401 0.281099
Si Si3 0.900424 0.835110 0.587484
Si Si4 0.750000 0.250000 0.206995
O O1 0.295319 0.883437 0.103836
O O2 0.405589 0.112240 0.116687
O O3 0.599628 0.788138 0.434775
O O4 0.473228 0.714099 0.288920
O O5 0.500000 0.000000 0.319615
O O6 0.818139 0.829522 0.683122
O O7 0.912427 0.000000 0.500000
#
# Coordination Sequence:
#
# PCOD9325501 Si02
#       4
#     4   8   8   4
#     4  12  29  48  72 111 148 196 234 305 380 420
#     4  11  23  47  77 101 136 194 249 290 360 438
#     4  11  26  45  76 109 136 192 251 303 354 437
#     4  12  30  44  72 108 154 190 234 314 370 428
#
# _framework density 20.737313
#
# number of rings (size 3 to 8) (size 9 to 14) (size 15 to 20)
#    0.000    0.667    3.333    4.500    9.333    0.000 
#    0.000    0.000    0.000    0.000    0.000    0.000 
#    0.000    0.000    0.000    0.000    0.000    0.000 
#
# Total GULP energy -66981.123965 kJ/mol
# GULP energy per Si atom -5581.760330 kJ/mol
# Density = 2.069011 g / cm^3
# Si number density = 20.737313 Si / 1000 Ang^3
#
#
#
# Elastic Constant Matrix: (Units=GPa)
#
#
# Indices 1 2 3 4 5 6 
#
# 1 179.7444 77.7174 111.2824 0.0000 0.0000 0.0000
# 2 77.7174 148.5204 63.3526 0.0000 0.0000 0.0000
# 3 111.2824 63.3526 133.0274 0.0000 0.0000 0.0000
# 4 0.0000 0.0000 0.0000 25.7304 0.0000 0.0000
# 5 0.0000 0.0000 0.0000 0.0000 64.2635 0.0000
# 6 0.0000 0.0000 0.0000 0.0000 0.0000 22.5854
#
#
#
# Elastic Compliance Matrix: (Units=1/GPa)
#
#
# Indices 1 2 3 4 5 6 
#
# 1 0.012272 -0.002563 -0.009045 0.000000 0.000000 0.000000
# 2 -0.002563 0.008985 -0.002135 0.000000 0.000000 0.000000
# 3 -0.009045 -0.002135 0.016100 0.000000 0.000000 0.000000
# 4 0.000000 0.000000 0.000000 0.038864 0.000000 0.000000
# 5 0.000000 0.000000 0.000000 0.000000 0.015561 0.000000
# 6 0.000000 0.000000 0.000000 0.000000 0.000000 0.044276
#
#
# Mechanical properties :
#
#
# Convention : Reuss Voigt Hill
#
# Bulk Modulus (GPa) = 101.30630 107.33300 104.31965
# Shear Modulus (GPa) = 29.96975 36.44519 33.20747
#
# Velocity S-wave (km/s) = 3.80571 4.19677 4.00601
# Velocity P-wave (km/s) = 8.26254 8.68070 8.47420
#
# Compressibility (1/GPa) = 0.00987105
#
# Stress axis : x y z
#
# Youngs Moduli (GPa) = 81.48901 111.29717 62.11066
#
# Poissons Ratio (x) = 0.28528 0.56179
# Poissons Ratio (y) = 0.20888 0.13259
# Poissons Ratio (z) = 0.73706 0.23759
#
# Static dielectric constant tensor:
#      x y z
#    x 1.747120 0.000000 0.000000 
#    y 0.000000 1.767020 0.000000 
#    z 0.000000 0.000000 1.786350 
# 
# From -- ./inp_files/9820.got.cif
#   From: 2010.05.17/outbox.cif.g08.bks.cpg/sg21_5_cif.got.tgz:9820.got - 2010.06.03 23:14:55.
