data_PCOD9325192
_publ_section_title
;
Structure prediction by ZEFSAII (Michael W. Deem and Ramdas Pophale) SiO2 
 PCOD9325192
Probable space group: C 2 2 2
;
_chemical_formula_sum "Si O2"
_cell_formula_units_Z 40
_cell_length_a 15.598342
_cell_length_b 12.201603
_cell_length_c 10.820348
_cell_angle_alpha 90.000000
_cell_angle_beta 90.000000
_cell_angle_gamma 90.000000
_cell_volume 2059.380315
_symmetry_space_group_name_H-M "C 2 2 2"
_symmetry_group_IT_number 21
_symmetry_cell_setting 'orthorhombic'
loop_
_space_group_symop_operation_xyz
x,y,z
-x,-y,z
x,-y,-z
-x,y,-z
1/2+x,1/2+y,z
1/2-x,1/2-y,z
1/2+x,1/2-y,-z
1/2-x,1/2+y,-z
loop_
_atom_site_type_symbol
_atom_site_label
_atom_site_fract_x
_atom_site_fract_y
_atom_site_fract_z
Si Si1 0.902238 0.360106 0.542763
Si Si2 0.467765 0.322979 0.296433
Si Si3 0.373007 0.468234 0.645621
Si Si4 0.532044 0.118055 0.140800
Si Si5 0.678517 0.064469 0.307241
O O1 0.911516 0.244211 0.606280
O O2 0.847170 0.355749 0.419243
O O3 0.859903 0.449221 0.635911
O O4 0.000000 0.387486 0.500000
O O5 0.411654 0.431107 0.273316
O O6 0.557029 0.372293 0.345004
O O7 0.492293 0.227463 0.200146
O O8 0.366392 0.500000 0.500000
O O9 0.279976 0.441828 0.698259
O O10 0.631123 0.106687 0.183580
O O11 0.500000 0.000000 0.191941
O O12 0.500000 0.119484 0.000000
#
# Coordination Sequence:
#
# PCOD9325192 Si02
#       5
#     8   8   8   8   8
#     4  11  18  35  61  92 129 162 206 254 337 390
#     4  11  23  41  64  91 138 182 210 258 339 411
#     4  11  24  40  60 103 143 172 210 269 339 411
#     4  11  23  43  71  91 122 174 231 280 325 378
#     4  11  21  37  62  99 128 162 217 275 320 390
#
# _framework density 19.423318999999999
#
# number of rings (size 3 to 8) (size 9 to 14) (size 15 to 20)
#    0.000    1.000    6.000    3.600    0.000    1.600 
#    3.600    2.000   17.600    0.000    0.000    0.000 
#    0.000    0.000    0.000    0.000    0.000    0.000 
#
# Total GULP energy -111411.785513 kJ/mol
# GULP energy per Si atom -5570.589276 kJ/mol
# Density = 1.937911 g / cm^3
# Si number density = 19.423319 Si / 1000 Ang^3
#
#
#
# Elastic Constant Matrix: (Units=GPa)
#
#
# Indices 1 2 3 4 5 6 
#
# 1 149.9875 27.4598 49.0424 0.0000 0.0000 0.0000
# 2 27.4598 99.9236 32.8439 0.0000 0.0000 0.0000
# 3 49.0424 32.8439 76.2689 0.0000 0.0000 0.0000
# 4 0.0000 0.0000 0.0000 23.3718 0.0000 0.0000
# 5 0.0000 0.0000 0.0000 0.0000 12.6840 0.0000
# 6 0.0000 0.0000 0.0000 0.0000 0.0000 145.3271
#
#
#
# Elastic Compliance Matrix: (Units=1/GPa)
#
#
# Indices 1 2 3 4 5 6 
#
# 1 0.008476 -0.000626 -0.005180 0.000000 0.000000 0.000000
# 2 -0.000626 0.011704 -0.004637 0.000000 0.000000 0.000000
# 3 -0.005180 -0.004637 0.018440 0.000000 0.000000 0.000000
# 4 0.000000 0.000000 0.000000 0.042787 0.000000 0.000000
# 5 0.000000 0.000000 0.000000 0.000000 0.078839 0.000000
# 6 0.000000 0.000000 0.000000 0.000000 0.000000 0.006881
#
#
# Mechanical properties :
#
#
# Convention : Reuss Voigt Hill
#
# Bulk Modulus (GPa) = 56.39796 60.54137 58.46967
# Shear Modulus (GPa) = 25.78321 50.73218 38.25769
#
# Velocity S-wave (km/s) = 3.64735 5.11624 4.44292
# Velocity P-wave (km/s) = 6.84374 8.13255 7.51582
#
# Compressibility (1/GPa) = 0.01773114
#
# Stress axis : x y z
#
# Youngs Moduli (GPa) = 117.98366 85.44050 54.23141
#
# Poissons Ratio (x) = 0.05353 0.28093
# Poissons Ratio (y) = 0.07392 0.25149
# Poissons Ratio (z) = 0.61119 0.39621
#
# Static dielectric constant tensor:
#      x y z
#    x 1.701720 0.000000 0.000000 
#    y 0.000000 1.755810 0.000000 
#    z 0.000000 0.000000 1.694240 
# 
# From -- ./inp_files/24992.got.cif
#   From: 2010.05.17/outbox.cif.g08.bks.cpg/sg21_13_cif.got.tgz:24992.got - 2010.06.03 23:14:55.
