data_PCOD9325701
_publ_section_title
;
Structure prediction by ZEFSAII (Michael W. Deem and Ramdas Pophale) SiO2 
 PCOD9325701
Probable space group: C 2 2 2
;
_chemical_formula_sum "Si O2"
_cell_formula_units_Z 32
_cell_length_a 12.881382
_cell_length_b 17.071754
_cell_length_c 6.579544
_cell_angle_alpha 90.000000
_cell_angle_beta 90.000000
_cell_angle_gamma 90.000000
_cell_volume 1446.892945
_symmetry_space_group_name_H-M "C 2 2 2"
_symmetry_group_IT_number 21
_symmetry_cell_setting 'orthorhombic'
loop_
_space_group_symop_operation_xyz
x,y,z
-x,-y,z
x,-y,-z
-x,y,-z
1/2+x,1/2+y,z
1/2-x,1/2-y,z
1/2+x,1/2-y,-z
1/2-x,1/2+y,-z
loop_
_atom_site_type_symbol
_atom_site_label
_atom_site_fract_x
_atom_site_fract_y
_atom_site_fract_z
Si Si1 0.408981 0.895661 0.838072
Si Si2 0.250000 0.250000 0.771065
Si Si3 0.500000 0.000000 0.500000
Si Si4 0.819971 0.876603 0.095559
Si Si5 0.000000 0.000000 0.000000
Si Si6 0.107904 0.242540 0.414569
O O1 0.293901 0.914218 0.913871
O O2 0.411238 0.806381 0.759593
O O3 0.431009 0.947041 0.643051
O O4 0.500000 0.907509 0.000000
O O5 0.164569 0.280691 0.610002
O O6 0.190442 0.186440 0.910239
O O7 0.915649 0.937396 0.092137
O O8 0.829627 0.826357 0.303178
O O9 0.000000 0.210920 0.500000
#
# Coordination Sequence:
#
# PCOD9325701 Si02
#       6
#     8   4   2   8   2   8
#     4  12  26  47  77 111 148 201 260 336 397 466
#     4  12  22  46  84 108 152 202 260 320 378 484
#     4  12  30  44  72 112 148 190 254 340 402 450
#     4  12  27  51  74 117 159 205 260 326 400 488
#     4  12  32  48  76 112 168 216 244 330 430 468
#     4  12  24  45  78 115 145 204 270 316 390 479
#
# _framework density 22.116356
#
# number of rings (size 3 to 8) (size 9 to 14) (size 15 to 20)
#    0.000    0.000    6.250    3.375    5.250    0.000 
#    4.500    1.250    0.000    0.000    0.000    0.000 
#    0.000    0.000    0.000    0.000    0.000    0.000 
#
# Total GULP energy -89318.285958 kJ/mol
# GULP energy per Si atom -5582.392872 kJ/mol
# Density = 2.206602 g / cm^3
# Si number density = 22.116356 Si / 1000 Ang^3
#
#
#
# Elastic Constant Matrix: (Units=GPa)
#
#
# Indices 1 2 3 4 5 6 
#
# 1 168.7886 37.8262 58.8800 0.0000 0.0000 0.0000
# 2 37.8262 97.5939 40.6658 0.0000 0.0000 0.0000
# 3 58.8800 40.6658 112.0547 0.0000 0.0000 0.0000
# 4 0.0000 0.0000 0.0000 137.6480 0.0000 0.0000
# 5 0.0000 0.0000 0.0000 0.0000 33.6642 0.0000
# 6 0.0000 0.0000 0.0000 0.0000 0.0000 52.0370
#
#
#
# Elastic Compliance Matrix: (Units=1/GPa)
#
#
# Indices 1 2 3 4 5 6 
#
# 1 0.007431 -0.001476 -0.003369 0.000000 0.000000 0.000000
# 2 -0.001476 0.012365 -0.003712 0.000000 0.000000 0.000000
# 3 -0.003369 -0.003712 0.012041 0.000000 0.000000 0.000000
# 4 0.000000 0.000000 0.000000 0.007265 0.000000 0.000000
# 5 0.000000 0.000000 0.000000 0.000000 0.029705 0.000000
# 6 0.000000 0.000000 0.000000 0.000000 0.000000 0.019217
#
#
# Mechanical properties :
#
#
# Convention : Reuss Voigt Hill
#
# Bulk Modulus (GPa) = 67.91750 72.57567 70.24658
# Shear Modulus (GPa) = 45.43559 60.74084 53.08822
#
# Velocity S-wave (km/s) = 4.53745 5.24632 4.90471
# Velocity P-wave (km/s) = 7.63067 8.34177 7.99413
#
# Compressibility (1/GPa) = 0.01472375
#
# Stress axis : x y z
#
# Youngs Moduli (GPa) = 134.57971 80.87088 83.04718
#
# Poissons Ratio (x) = 0.11939 0.27976
# Poissons Ratio (y) = 0.19868 0.30825
# Poissons Ratio (z) = 0.45335 0.30018
#
# Static dielectric constant tensor:
#      x y z
#    x 1.963580 0.000000 0.000000 
#    y 0.000000 1.852120 0.000000 
#    z 0.000000 0.000000 1.747490 
# 
# From -- ./inp_files/3490.got.cif
#   From: 2010.05.17/outbox.cif.g08.bks.cpg/sg21_2_cif.got.tgz:3490.got - 2010.06.03 23:14:55.
