data_PCOD9325767
_publ_section_title
;
Structure prediction by ZEFSAII (Michael W. Deem and Ramdas Pophale) SiO2 
 PCOD9325767
Probable space group: C 2 2 2
;
_chemical_formula_sum "Si O2"
_cell_formula_units_Z 18
_cell_length_a 4.868807
_cell_length_b 20.967993
_cell_length_c 6.893788
_cell_angle_alpha 90.000000
_cell_angle_beta 90.000000
_cell_angle_gamma 90.000000
_cell_volume 703.780689
_symmetry_space_group_name_H-M "C 2 2 2"
_symmetry_group_IT_number 21
_symmetry_cell_setting 'orthorhombic'
loop_
_space_group_symop_operation_xyz
x,y,z
-x,-y,z
x,-y,-z
-x,y,-z
1/2+x,1/2+y,z
1/2-x,1/2-y,z
1/2+x,1/2-y,-z
1/2-x,1/2+y,-z
loop_
_atom_site_type_symbol
_atom_site_label
_atom_site_fract_x
_atom_site_fract_y
_atom_site_fract_z
Si Si1 0.500000 0.500000 0.000000
Si Si2 0.396830 0.811578 0.785738
Si Si3 0.396449 0.601411 0.289894
O O1 0.324331 0.543979 0.146311
O O2 0.250000 0.750000 0.692903
O O3 0.655552 0.846611 0.689197
O O4 0.158118 0.863366 0.802297
O O5 0.500000 0.792473 0.000000
O O6 0.500000 0.579376 0.500000
#
# Coordination Sequence:
#
# PCOD9325767 Si02
#       3
#     2   8   8
#     4  12  26  54  76 112 156 210 254 324 364 468
#     4  12  24  48  77 112 153 202 247 316 389 460
#     4  12  27  47  79 114 151 200 259 313 382 449
#
# _framework density 25.576152
#
# number of rings (size 3 to 8) (size 9 to 14) (size 15 to 20)
#    0.000    0.000    4.444    6.000    0.000    7.111 
#    0.000    6.667    0.000    0.000    0.000    0.000 
#    0.000    0.000    0.000    0.000    0.000    0.000 
#
# Total GULP energy -50433.169003 kJ/mol
# GULP energy per Si atom -5603.685445 kJ/mol
# Density = 2.551794 g / cm^3
# Si number density = 25.576152 Si / 1000 Ang^3
#
#
#
# Elastic Constant Matrix: (Units=GPa)
#
#
# Indices 1 2 3 4 5 6 
#
# 1 158.9014 51.9362 44.3009 0.0000 0.0000 0.0000
# 2 51.9362 138.9671 78.7692 0.0000 0.0000 0.0000
# 3 44.3009 78.7692 150.5832 0.0000 0.0000 0.0000
# 4 0.0000 0.0000 0.0000 27.7117 0.0000 0.0000
# 5 0.0000 0.0000 0.0000 0.0000 34.9133 0.0000
# 6 0.0000 0.0000 0.0000 0.0000 0.0000 20.7241
#
#
#
# Elastic Compliance Matrix: (Units=1/GPa)
#
#
# Indices 1 2 3 4 5 6 
#
# 1 0.007278 -0.002141 -0.001021 0.000000 0.000000 0.000000
# 2 -0.002141 0.010859 -0.005050 0.000000 0.000000 0.000000
# 3 -0.001021 -0.005050 0.009583 0.000000 0.000000 0.000000
# 4 0.000000 0.000000 0.000000 0.036086 0.000000 0.000000
# 5 0.000000 0.000000 0.000000 0.000000 0.028642 0.000000
# 6 0.000000 0.000000 0.000000 0.000000 0.000000 0.048253
#
#
# Mechanical properties :
#
#
# Convention : Reuss Voigt Hill
#
# Bulk Modulus (GPa) = 88.53811 88.71826 88.62818
# Shear Modulus (GPa) = 31.07709 34.89952 32.98831
#
# Velocity S-wave (km/s) = 3.48958 3.69797 3.59528
# Velocity P-wave (km/s) = 7.13645 7.27987 7.20851
#
# Compressibility (1/GPa) = 0.01129457
#
# Stress axis : x y z
#
# Youngs Moduli (GPa) = 137.40614 92.09189 104.35177
#
# Poissons Ratio (x) = 0.19718 0.10655
# Poissons Ratio (y) = 0.29421 0.52700
# Poissons Ratio (z) = 0.14030 0.46508
#
# Static dielectric constant tensor:
#      x y z
#    x 1.923180 0.000000 0.000000 
#    y 0.000000 2.019600 0.000000 
#    z 0.000000 0.000000 2.076950 
# 
# From -- ./inp_files/8504.got.cif
#   From: 2010.05.17/outbox.cif.g08.bks.cpg/sg21_5_cif.got.tgz:8504.got - 2010.06.03 23:14:55.
