data_PCOD9325590
_publ_section_title
;
Structure prediction by ZEFSAII (Michael W. Deem and Ramdas Pophale) SiO2 
 PCOD9325590
Probable space group: C 2 2 2
;
_chemical_formula_sum "Si O2"
_cell_formula_units_Z 24
_cell_length_a 5.834500
_cell_length_b 14.375324
_cell_length_c 12.656911
_cell_angle_alpha 90.000000
_cell_angle_beta 90.000000
_cell_angle_gamma 90.000000
_cell_volume 1061.570918
_symmetry_space_group_name_H-M "C 2 2 2"
_symmetry_group_IT_number 21
_symmetry_cell_setting 'orthorhombic'
loop_
_space_group_symop_operation_xyz
x,y,z
-x,-y,z
x,-y,-z
-x,y,-z
1/2+x,1/2+y,z
1/2-x,1/2-y,z
1/2+x,1/2-y,-z
1/2-x,1/2+y,-z
loop_
_atom_site_type_symbol
_atom_site_label
_atom_site_fract_x
_atom_site_fract_y
_atom_site_fract_z
Si Si1 0.420353 0.103202 0.792605
Si Si2 0.069540 0.102216 0.622695
Si Si3 0.750000 0.750000 0.271493
Si Si4 0.750000 0.250000 0.057393
O O1 0.324287 0.108450 0.671657
O O2 0.636772 0.170012 0.796367
O O3 0.244689 0.156421 0.869214
O O4 0.500000 0.000000 0.819557
O O5 0.000000 0.098240 0.500000
O O6 0.935695 0.192830 0.662147
O O7 0.000000 0.000000 0.667110
O O8 0.500000 0.247625 0.000000
#
# Coordination Sequence:
#
# PCOD9325590 Si02
#       4
#     8   8   4   4
#     4  12  26  49  75 107 152 201 245 320 387 456
#     4  11  25  43  70 110 154 201 254 304 367 457
#     4  12  23  43  72 102 148 204 245 301 372 448
#     4  12  29  53  84 116 148 196 265 331 396 466
#
# _framework density 22.608004999999999
#
# number of rings (size 3 to 8) (size 9 to 14) (size 15 to 20)
#    0.000    0.333    6.667    1.000    4.667    0.667 
#    0.000    5.000    0.000    0.000    0.000    0.000 
#    0.000    0.000    0.000    0.000    0.000    0.000 
#
# Total GULP energy -66867.035961 kJ/mol
# GULP energy per Si atom -5572.252997 kJ/mol
# Density = 2.255655 g / cm^3
# Si number density = 22.608005 Si / 1000 Ang^3
#
#
#
# Elastic Constant Matrix: (Units=GPa)
#
#
# Indices 1 2 3 4 5 6 
#
# 1 83.3701 49.3024 36.3055 0.0000 0.0000 0.0000
# 2 49.3024 236.3372 38.4085 0.0000 0.0000 0.0000
# 3 36.3055 38.4085 85.0997 0.0000 0.0000 0.0000
# 4 0.0000 0.0000 0.0000 3.5874 0.0000 0.0000
# 5 0.0000 0.0000 0.0000 0.0000 16.6087 0.0000
# 6 0.0000 0.0000 0.0000 0.0000 0.0000 49.4068
#
#
#
# Elastic Compliance Matrix: (Units=1/GPa)
#
#
# Indices 1 2 3 4 5 6 
#
# 1 0.015890 -0.002388 -0.005701 0.000000 0.000000 0.000000
# 2 -0.002388 0.004925 -0.001204 0.000000 0.000000 0.000000
# 3 -0.005701 -0.001204 0.014727 0.000000 0.000000 0.000000
# 4 0.000000 0.000000 0.000000 0.278756 0.000000 0.000000
# 5 0.000000 0.000000 0.000000 0.000000 0.060209 0.000000
# 6 0.000000 0.000000 0.000000 0.000000 0.000000 0.020240
#
#
# Mechanical properties :
#
#
# Convention : Reuss Voigt Hill
#
# Bulk Modulus (GPa) = 58.98029 72.53774 65.75902
# Shear Modulus (GPa) = 11.93360 32.63995 22.28677
#
# Velocity S-wave (km/s) = 2.29999 3.80377 3.14314
# Velocity P-wave (km/s) = 5.76178 7.17260 6.50555
#
# Compressibility (1/GPa) = 0.01695482
#
# Stress axis : x y z
#
# Youngs Moduli (GPa) = 62.93391 203.04047 67.90476
#
# Poissons Ratio (x) = 0.48491 0.38712
# Poissons Ratio (y) = 0.15030 0.08176
# Poissons Ratio (z) = 0.35879 0.24446
#
# Static dielectric constant tensor:
#      x y z
#    x 2.231280 0.000000 0.000000 
#    y 0.000000 1.820000 0.000000 
#    z 0.000000 0.000000 1.960270 
# 
# From -- ./inp_files/28381.got.cif
#   From: 2010.05.17/outbox.cif.g08.bks.cpg/sg21_15_cif.got.tgz:28381.got - 2010.06.03 23:14:55.
