data_PCOD9325705
_publ_section_title
;
Structure prediction by ZEFSAII (Michael W. Deem and Ramdas Pophale) SiO2 
 PCOD9325705
Probable space group: C 2 2 2
;
_chemical_formula_sum "Si O2"
_cell_formula_units_Z 38
_cell_length_a 8.723644
_cell_length_b 11.803055
_cell_length_c 15.407323
_cell_angle_alpha 90.000000
_cell_angle_beta 90.000000
_cell_angle_gamma 90.000000
_cell_volume 1586.425026
_symmetry_space_group_name_H-M "C 2 2 2"
_symmetry_group_IT_number 21
_symmetry_cell_setting 'orthorhombic'
loop_
_space_group_symop_operation_xyz
x,y,z
-x,-y,z
x,-y,-z
-x,y,-z
1/2+x,1/2+y,z
1/2-x,1/2-y,z
1/2+x,1/2-y,-z
1/2-x,1/2+y,-z
loop_
_atom_site_type_symbol
_atom_site_label
_atom_site_fract_x
_atom_site_fract_y
_atom_site_fract_z
Si Si1 0.649843 0.544842 0.752902
Si Si2 0.250000 0.750000 0.365757
Si Si3 0.083954 0.301174 0.391085
Si Si4 0.907263 0.617194 0.200113
Si Si5 0.500000 0.000000 0.500000
Si Si6 0.422269 0.704707 0.086371
O O1 0.500000 0.500000 0.703694
O O2 0.739136 0.635573 0.693023
O O3 0.738501 0.434161 0.787650
O O4 0.599272 0.614948 0.837169
O O5 0.413194 0.754885 0.416439
O O6 0.250000 0.250000 0.406524
O O7 0.065636 0.312351 0.287422
O O8 0.096170 0.423168 0.435623
O O9 0.000000 0.500000 0.198255
O O10 0.966950 0.694438 0.121854
O O11 0.250000 0.750000 0.068696
O O12 0.500000 0.657931 0.000000
#
# Coordination Sequence:
#
# PCOD9325705 Si02
#       6
#     8   4   8   8   2   8
#     4  12  24  43  74 105 137 191 248 297 368 433
#     4  12  22  50  78 110 150 184 250 308 350 444
#     4  12  26  47  81 111 148 196 238 297 366 437
#     4  12  22  48  76  98 140 191 239 299 363 421
#     4  12  28  52  74 118 158 182 240 300 358 446
#     4  12  27  46  64 101 149 189 247 313 358 425
#
# _framework density 23.953226999999998
#
# number of rings (size 3 to 8) (size 9 to 14) (size 15 to 20)
#    0.000    0.000    8.421    1.263    4.421    0.842 
#    0.000    1.053    0.000    0.000    0.000    0.000 
#    0.000    0.000    0.000    0.000    0.000    0.000 
#
# Total GULP energy -106223.262786 kJ/mol
# GULP energy per Si atom -5590.698041 kJ/mol
# Density = 2.389871 g / cm^3
# Si number density = 23.953227 Si / 1000 Ang^3
#
#
#
# Elastic Constant Matrix: (Units=GPa)
#
#
# Indices 1 2 3 4 5 6 
#
# 1 203.5963 55.7729 32.0726 0.0000 0.0000 0.0000
# 2 55.7729 73.7240 18.0318 0.0000 0.0000 0.0000
# 3 32.0726 18.0318 71.9277 0.0000 0.0000 0.0000
# 4 0.0000 0.0000 0.0000 22.6552 0.0000 0.0000
# 5 0.0000 0.0000 0.0000 0.0000 30.6870 0.0000
# 6 0.0000 0.0000 0.0000 0.0000 0.0000 57.5202
#
#
#
# Elastic Compliance Matrix: (Units=1/GPa)
#
#
# Indices 1 2 3 4 5 6 
#
# 1 0.006395 -0.004411 -0.001746 0.000000 0.000000 0.000000
# 2 -0.004411 0.017492 -0.002418 0.000000 0.000000 0.000000
# 3 -0.001746 -0.002418 0.015288 0.000000 0.000000 0.000000
# 4 0.000000 0.000000 0.000000 0.044140 0.000000 0.000000
# 5 0.000000 0.000000 0.000000 0.000000 0.032587 0.000000
# 6 0.000000 0.000000 0.000000 0.000000 0.000000 0.017385
#
#
# Mechanical properties :
#
#
# Convention : Reuss Voigt Hill
#
# Bulk Modulus (GPa) = 45.40314 62.33362 53.86838
# Shear Modulus (GPa) = 31.68986 38.39718 35.04352
#
# Velocity S-wave (km/s) = 3.64124 4.00810 3.82907
# Velocity P-wave (km/s) = 6.05592 6.89198 6.48743
#
# Compressibility (1/GPa) = 0.02202491
#
# Stress axis : x y z
#
# Youngs Moduli (GPa) = 156.37209 57.16737 65.41267
#
# Poissons Ratio (x) = 0.25216 0.11419
# Poissons Ratio (y) = 0.68974 0.15820
# Poissons Ratio (z) = 0.27299 0.13826
#
# Static dielectric constant tensor:
#      x y z
#    x 2.055820 0.000000 0.000000 
#    y 0.000000 1.902180 0.000000 
#    z 0.000000 0.000000 1.895970 
# 
# From -- ./inp_files/35521.got.cif
#   From: 2010.05.17/outbox.cif.g08.bks.cpg/sg21_18_cif.got.tgz:35521.got - 2010.06.03 23:14:55.
