data_PCOD9325000
_publ_section_title
;
Structure prediction by ZEFSAII (Michael W. Deem and Ramdas Pophale) SiO2 
 PCOD9325000
Probable space group: C 2 2 2
;
_chemical_formula_sum "Si O2"
_cell_formula_units_Z 22
_cell_length_a 5.044462
_cell_length_b 31.948962
_cell_length_c 5.658796
_cell_angle_alpha 90.000000
_cell_angle_beta 90.000000
_cell_angle_gamma 90.000000
_cell_volume 912.001695
_symmetry_space_group_name_H-M "C 2 2 2"
_symmetry_group_IT_number 21
_symmetry_cell_setting 'orthorhombic'
loop_
_space_group_symop_operation_xyz
x,y,z
-x,-y,z
x,-y,-z
-x,y,-z
1/2+x,1/2+y,z
1/2-x,1/2-y,z
1/2+x,1/2-y,-z
1/2-x,1/2+y,-z
loop_
_atom_site_type_symbol
_atom_site_label
_atom_site_fract_x
_atom_site_fract_y
_atom_site_fract_z
Si Si1 0.000000 0.000000 0.500000
Si Si2 0.249863 0.296042 0.828565
Si Si3 0.746576 0.431585 0.826969
Si Si4 0.000000 0.137141 0.500000
O O1 0.194051 0.028512 0.340473
O O2 0.250000 0.250000 0.709967
O O3 0.307409 0.333175 0.650290
O O4 0.500000 0.294994 0.000000
O O5 0.000000 0.302099 0.000000
O O6 0.691388 0.391705 0.660135
O O7 0.500000 0.431734 0.000000
O O8 0.000000 0.431458 0.000000
#
# Coordination Sequence:
#
# PCOD9325000 Si02
#       4
#     2   8   8   4
#     4  10  26  50  84 108 144 198 238 294 372 438
#     4  10  24  45  70 104 144 192 254 311 359 426
#     4  11  27  49  75 112 150 188 242 301 362 443
#     4  11  26  47  76 106 150 202 242 301 378 431
#
# _framework density 24.122762999999999
#
# number of rings (size 3 to 8) (size 9 to 14) (size 15 to 20)
#    0.000    1.455    0.000    1.636    0.000   24.727 
#    0.000    9.091    0.000    0.000    0.000    0.000 
#    0.000    0.000    0.000    0.000    0.000    0.000 
#
# Total GULP energy -61644.490188 kJ/mol
# GULP energy per Si atom -5604.044563 kJ/mol
# Density = 2.406786 g / cm^3
# Si number density = 24.122763 Si / 1000 Ang^3
#
#
#
# Elastic Constant Matrix: (Units=GPa)
#
#
# Indices 1 2 3 4 5 6 
#
# 1 229.6880 86.6754 95.0840 0.0000 0.0000 0.0000
# 2 86.6754 237.5941 136.9663 0.0000 0.0000 0.0000
# 3 95.0840 136.9663 159.4764 0.0000 0.0000 0.0000
# 4 0.0000 0.0000 0.0000 38.9518 0.0000 0.0000
# 5 0.0000 0.0000 0.0000 0.0000 60.3699 0.0000
# 6 0.0000 0.0000 0.0000 0.0000 0.0000 14.7559
#
#
#
# Elastic Compliance Matrix: (Units=1/GPa)
#
#
# Indices 1 2 3 4 5 6 
#
# 1 0.005787 -0.000242 -0.003243 0.000000 0.000000 0.000000
# 2 -0.000242 0.008346 -0.007024 0.000000 0.000000 0.000000
# 3 -0.003243 -0.007024 0.014237 0.000000 0.000000 0.000000
# 4 0.000000 0.000000 0.000000 0.025673 0.000000 0.000000
# 5 0.000000 0.000000 0.000000 0.000000 0.016565 0.000000
# 6 0.000000 0.000000 0.000000 0.000000 0.000000 0.067769
#
#
# Mechanical properties :
#
#
# Convention : Reuss Voigt Hill
#
# Bulk Modulus (GPa) = 136.00280 140.46777 138.23529
# Shear Modulus (GPa) = 30.89372 43.35105 37.12239
#
# Velocity S-wave (km/s) = 3.58255 4.24382 3.92713
# Velocity P-wave (km/s) = 8.57990 9.07580 8.83133
#
# Compressibility (1/GPa) = 0.00735279
#
# Stress axis : x y z
#
# Youngs Moduli (GPa) = 172.78707 119.81534 70.24173
#
# Poissons Ratio (x) = 0.02897 0.22779
# Poissons Ratio (y) = 0.04178 0.49337
# Poissons Ratio (z) = 0.56034 0.84157
#
# Static dielectric constant tensor:
#      x y z
#    x 1.855860 0.000000 0.000000 
#    y 0.000000 2.165290 0.000000 
#    z 0.000000 0.000000 1.813280 
# 
# From -- ./inp_files/743.got.cif
#   From: 2010.05.17/outbox.cif.g08.bks.cpg/sg21_1_cif.got.tgz:743.got - 2010.06.03 23:14:55.
