data_PCOD9325575
_publ_section_title
;
Structure prediction by ZEFSAII (Michael W. Deem and Ramdas Pophale) SiO2 
 PCOD9325575
Probable space group: C 2 2 2
;
_chemical_formula_sum "Si O2"
_cell_formula_units_Z 32
_cell_length_a 13.299441
_cell_length_b 8.972128
_cell_length_c 10.926184
_cell_angle_alpha 90.000000
_cell_angle_beta 90.000000
_cell_angle_gamma 90.000000
_cell_volume 1303.759115
_symmetry_space_group_name_H-M "C 2 2 2"
_symmetry_group_IT_number 21
_symmetry_cell_setting 'orthorhombic'
loop_
_space_group_symop_operation_xyz
x,y,z
-x,-y,z
x,-y,-z
-x,y,-z
1/2+x,1/2+y,z
1/2-x,1/2-y,z
1/2+x,1/2-y,-z
1/2-x,1/2+y,-z
loop_
_atom_site_type_symbol
_atom_site_label
_atom_site_fract_x
_atom_site_fract_y
_atom_site_fract_z
Si Si1 0.764986 0.576883 0.629630
Si Si2 0.855726 0.818571 0.274605
Si Si3 0.960865 0.346871 0.217581
Si Si4 0.352400 0.676649 0.011391
O O1 0.782708 0.500000 0.500000
O O2 0.750000 0.750000 0.606498
O O3 0.669080 0.491559 0.693443
O O4 0.863717 0.584557 0.713463
O O5 0.750000 0.750000 0.319531
O O6 0.960686 0.738577 0.309699
O O7 0.860084 0.778677 0.130360
O O8 0.931119 0.232254 0.110814
O O9 0.000000 0.500000 0.158358
O O10 0.250000 0.750000 0.058129
O O11 0.348847 0.500000 0.000000
#
# Coordination Sequence:
#
# PCOD9325575 Si02
#       4
#     8   8   8   8
#     4  12  28  53  81 116 161 217 277 343 405 479
#     4  11  24  47  73 113 159 202 266 331 395 488
#     4  12  26  47  83 116 164 212 275 328 417 488
#     4  11  25  44  77 114 159 208 262 329 407 489
#
# _framework density 24.544409999999999
#
# number of rings (size 3 to 8) (size 9 to 14) (size 15 to 20)
#    0.000    0.500    2.500    5.250    3.500    6.500 
#    0.000    1.250    0.000    0.000    0.000    0.000 
#    0.000    0.000    0.000    0.000    0.000    0.000 
#
# Total GULP energy -89316.402762 kJ/mol
# GULP energy per Si atom -5582.275173 kJ/mol
# Density = 2.448855 g / cm^3
# Si number density = 24.544410 Si / 1000 Ang^3
#
#
#
# Elastic Constant Matrix: (Units=GPa)
#
#
# Indices 1 2 3 4 5 6 
#
# 1 123.2506 65.3340 48.3406 0.0000 0.0000 0.0000
# 2 65.3340 213.5383 40.9851 0.0000 0.0000 0.0000
# 3 48.3406 40.9851 100.3779 0.0000 0.0000 0.0000
# 4 0.0000 0.0000 0.0000 95.6181 0.0000 0.0000
# 5 0.0000 0.0000 0.0000 0.0000 5.0786 0.0000
# 6 0.0000 0.0000 0.0000 0.0000 0.0000 46.2793
#
#
#
# Elastic Compliance Matrix: (Units=1/GPa)
#
#
# Indices 1 2 3 4 5 6 
#
# 1 0.011185 -0.002591 -0.004328 0.000000 0.000000 0.000000
# 2 -0.002591 0.005682 -0.001072 0.000000 0.000000 0.000000
# 3 -0.004328 -0.001072 0.012485 0.000000 0.000000 0.000000
# 4 0.000000 0.000000 0.000000 0.010458 0.000000 0.000000
# 5 0.000000 0.000000 0.000000 0.000000 0.196906 0.000000
# 6 0.000000 0.000000 0.000000 0.000000 0.000000 0.021608
#
#
# Mechanical properties :
#
#
# Convention : Reuss Voigt Hill
#
# Bulk Modulus (GPa) = 74.80726 82.94292 78.87509
# Shear Modulus (GPa) = 17.93641 48.22902 33.08271
#
# Velocity S-wave (km/s) = 2.70622 4.43761 3.67532
# Velocity P-wave (km/s) = 6.34896 7.75389 7.08633
#
# Compressibility (1/GPa) = 0.01336769
#
# Stress axis : x y z
#
# Youngs Moduli (GPa) = 89.40656 176.00756 80.09923
#
# Poissons Ratio (x) = 0.45610 0.34670
# Poissons Ratio (y) = 0.23168 0.08586
# Poissons Ratio (z) = 0.38699 0.18866
#
# Static dielectric constant tensor:
#      x y z
#    x 2.165500 0.000000 0.000000 
#    y 0.000000 2.064310 0.000000 
#    z 0.000000 0.000000 1.937180 
# 
# From -- ./inp_files/24768.got.cif
#   From: 2010.05.17/outbox.cif.g08.bks.cpg/sg21_13_cif.got.tgz:24768.got - 2010.06.03 23:14:55.
