data_PCOD9325665
_publ_section_title
;
Structure prediction by ZEFSAII (Michael W. Deem and Ramdas Pophale) SiO2 
 PCOD9325665
Probable space group: C 2 2 2
;
_chemical_formula_sum "Si O2"
_cell_formula_units_Z 34
_cell_length_a 22.766342
_cell_length_b 11.785520
_cell_length_c 6.844148
_cell_angle_alpha 90.000000
_cell_angle_beta 90.000000
_cell_angle_gamma 90.000000
_cell_volume 1836.375107
_symmetry_space_group_name_H-M "C 2 2 2"
_symmetry_group_IT_number 21
_symmetry_cell_setting 'orthorhombic'
loop_
_space_group_symop_operation_xyz
x,y,z
-x,-y,z
x,-y,-z
-x,y,-z
1/2+x,1/2+y,z
1/2-x,1/2-y,z
1/2+x,1/2-y,-z
1/2-x,1/2+y,-z
loop_
_atom_site_type_symbol
_atom_site_label
_atom_site_fract_x
_atom_site_fract_y
_atom_site_fract_z
Si Si1 0.500000 0.500000 0.000000
Si Si2 0.839233 0.276645 0.836514
Si Si3 0.203697 0.891087 0.185811
Si Si4 0.099168 0.937726 0.705152
Si Si5 0.250000 0.250000 0.470402
Si Si6 0.316892 0.000000 0.000000
O O1 0.544588 0.561397 0.146908
O O2 0.880527 0.193071 0.712872
O O3 0.790068 0.316895 0.681818
O O4 0.814442 0.196352 0.012774
O O5 0.857068 0.396147 0.928185
O O6 0.154070 0.986747 0.214032
O O7 0.210636 0.825735 0.388911
O O8 0.268258 0.941926 0.143312
O O9 0.084488 0.000000 0.500000
#
# Coordination Sequence:
#
# PCOD9325665 Si02
#       6
#     2   8   8   8   4   4
#     4  12  24  44  68  84 120 156 204 300 330 336
#     4  12  22  36  54  86 129 168 207 252 306 386
#     4  12  21  35  55  85 128 162 208 253 301 378
#     4  12  24  40  64  91 117 159 217 269 319 374
#     4  12  20  34  58  84 124 180 198 244 308 374
#     4  12  21  34  52  88 134 172 195 238 320 388
#
# _framework density 18.514735999999999
#
# number of rings (size 3 to 8) (size 9 to 14) (size 15 to 20)
#    0.000    0.000   11.765    0.353    0.000    0.000 
#    0.000    0.000    0.000    0.706    0.000    0.000 
#    7.059    0.000    0.000    0.000    0.000    0.000 
#
# Total GULP energy -94646.781680 kJ/mol
# GULP energy per Si atom -5567.457746 kJ/mol
# Density = 1.847260 g / cm^3
# Si number density = 18.514736 Si / 1000 Ang^3
#
#
#
# Elastic Constant Matrix: (Units=GPa)
#
#
# Indices 1 2 3 4 5 6 
#
# 1 45.5215 20.4761 12.7497 0.0000 0.0000 0.0000
# 2 20.4761 132.5875 39.2953 0.0000 0.0000 0.0000
# 3 12.7497 39.2953 103.4173 0.0000 0.0000 0.0000
# 4 0.0000 0.0000 0.0000 24.9832 0.0000 0.0000
# 5 0.0000 0.0000 0.0000 0.0000 31.1113 0.0000
# 6 0.0000 0.0000 0.0000 0.0000 0.0000 3.3427
#
#
#
# Elastic Compliance Matrix: (Units=1/GPa)
#
#
# Indices 1 2 3 4 5 6 
#
# 1 0.023882 -0.003173 -0.001739 0.000000 0.000000 0.000000
# 2 -0.003173 0.008921 -0.002998 0.000000 0.000000 0.000000
# 3 -0.001739 -0.002998 0.011023 0.000000 0.000000 0.000000
# 4 0.000000 0.000000 0.000000 0.040027 0.000000 0.000000
# 5 0.000000 0.000000 0.000000 0.000000 0.032143 0.000000
# 6 0.000000 0.000000 0.000000 0.000000 0.000000 0.299162
#
#
# Mechanical properties :
#
#
# Convention : Reuss Voigt Hill
#
# Bulk Modulus (GPa) = 35.70680 47.39653 41.55166
# Shear Modulus (GPa) = 11.35557 25.82112 18.58835
#
# Velocity S-wave (km/s) = 2.47923 3.73852 3.17200
# Velocity P-wave (km/s) = 5.24623 6.65510 5.99221
#
# Compressibility (1/GPa) = 0.02800587
#
# Stress axis : x y z
#
# Youngs Moduli (GPa) = 41.87284 112.09683 90.71746
#
# Poissons Ratio (x) = 0.35567 0.15773
# Poissons Ratio (y) = 0.13286 0.27201
# Poissons Ratio (z) = 0.07280 0.33612
#
# Static dielectric constant tensor:
#      x y z
#    x 1.658120 0.000000 0.000000 
#    y 0.000000 1.718020 0.000000 
#    z 0.000000 0.000000 1.714130 
# 
# From -- ./inp_files/6589.got.cif
#   From: 2010.05.17/outbox.cif.g08.bks.cpg/sg21_4_cif.got.tgz:6589.got - 2010.06.03 23:14:55.
