data_PCOD9325189
_publ_section_title
;
Structure prediction by ZEFSAII (Michael W. Deem and Ramdas Pophale) SiO2 
 PCOD9325189
Probable space group: C 2 2 2
;
_chemical_formula_sum "Si O2"
_cell_formula_units_Z 38
_cell_length_a 15.522806
_cell_length_b 16.082971
_cell_length_c 7.927451
_cell_angle_alpha 90.000000
_cell_angle_beta 90.000000
_cell_angle_gamma 90.000000
_cell_volume 1979.110646
_symmetry_space_group_name_H-M "C 2 2 2"
_symmetry_group_IT_number 21
_symmetry_cell_setting 'orthorhombic'
loop_
_space_group_symop_operation_xyz
x,y,z
-x,-y,z
x,-y,-z
-x,y,-z
1/2+x,1/2+y,z
1/2-x,1/2-y,z
1/2+x,1/2-y,-z
1/2-x,1/2+y,-z
loop_
_atom_site_type_symbol
_atom_site_label
_atom_site_fract_x
_atom_site_fract_y
_atom_site_fract_z
Si Si1 0.000000 0.720698 0.500000
Si Si2 0.000000 0.500000 0.000000
Si Si3 0.666884 0.689399 0.669453
Si Si4 0.900138 0.813128 0.028861
Si Si5 0.781291 0.848245 0.328163
Si Si6 0.396745 0.863982 0.804059
O O1 0.922241 0.769617 0.596415
O O2 0.951113 0.669433 0.355252
O O3 0.056950 0.559643 0.887033
O O4 0.750000 0.750000 0.684281
O O5 0.693057 0.628233 0.517241
O O6 0.648277 0.660789 0.858581
O O7 0.858997 0.852827 0.196073
O O8 0.890652 0.713555 0.064334
O O9 0.000000 0.830964 0.000000
O O10 0.750000 0.750000 0.332810
O O11 0.697158 0.891118 0.257148
#
# Coordination Sequence:
#
# PCOD9325189 Si02
#       6
#     4   2   8   8   8   8
#     4  12  18  33  54  74 112 140 195 236 276 348
#     4  12  24  38  56  72 114 174 192 234 270 328
#     4  11  17  28  49  74 101 147 173 222 295 326
#     4  11  18  30  52  81 109 141 183 232 284 340
#     4   9  18  32  47  74 106 140 183 233 280 334
#     4  11  21  36  49  77 112 153 201 229 270 341
#
# _framework density 19.200544000000001
#
# number of rings (size 3 to 8) (size 9 to 14) (size 15 to 20)
#    0.000    1.263    9.474    1.895    0.000    0.421 
#    0.000    0.000    0.000    0.000    0.000    0.737 
#    0.000    0.000    0.000    0.000    0.000    0.000 
#
# Total GULP energy -105916.252834 kJ/mol
# GULP energy per Si atom -5574.539623 kJ/mol
# Density = 1.915684 g / cm^3
# Si number density = 19.200544 Si / 1000 Ang^3
#
#
#
# Elastic Constant Matrix: (Units=GPa)
#
#
# Indices 1 2 3 4 5 6 
#
# 1 110.5943 -2.9260 29.9181 0.0000 0.0000 0.0000
# 2 -2.9260 13.3654 3.4263 0.0000 0.0000 0.0000
# 3 29.9181 3.4263 135.9497 0.0000 0.0000 0.0000
# 4 0.0000 0.0000 0.0000 5.8767 0.0000 0.0000
# 5 0.0000 0.0000 0.0000 0.0000 37.9548 0.0000
# 6 0.0000 0.0000 0.0000 0.0000 0.0000 3.6094
#
#
#
# Elastic Compliance Matrix: (Units=1/GPa)
#
#
# Indices 1 2 3 4 5 6 
#
# 1 0.009710 0.002691 -0.002205 0.000000 0.000000 0.000000
# 2 0.002691 0.076052 -0.002509 0.000000 0.000000 0.000000
# 3 -0.002205 -0.002509 0.007904 0.000000 0.000000 0.000000
# 4 0.000000 0.000000 0.000000 0.170164 0.000000 0.000000
# 5 0.000000 0.000000 0.000000 0.000000 0.026347 0.000000
# 6 0.000000 0.000000 0.000000 0.000000 0.000000 0.277051
#
#
# Mechanical properties :
#
#
# Convention : Reuss Voigt Hill
#
# Bulk Modulus (GPa) = 11.15816 35.63847 23.39832
# Shear Modulus (GPa) = 8.31744 24.78759 16.55252
#
# Velocity S-wave (km/s) = 2.08357 3.59692 2.93931
# Velocity P-wave (km/s) = 3.40769 5.98765 4.87157
#
# Compressibility (1/GPa) = 0.08962050
#
# Stress axis : x y z
#
# Youngs Moduli (GPa) = 102.99049 13.14887 126.51743
#
# Poissons Ratio (x) = -0.03538 0.27892
# Poissons Ratio (y) = -0.27713 0.31742
# Poissons Ratio (z) = 0.22705 0.03299
#
# Static dielectric constant tensor:
#      x y z
#    x 1.695760 0.000000 0.000000 
#    y 0.000000 1.655350 0.000000 
#    z 0.000000 0.000000 1.693890 
# 
# From -- ./inp_files/14810.got.cif
#   From: 2010.05.17/outbox.cif.g08.bks.cpg/sg21_8_cif.got.tgz:14810.got - 2010.06.03 23:14:55.
