data_PCOD9325060
_publ_section_title
;
Structure prediction by ZEFSAII (Michael W. Deem and Ramdas Pophale) SiO2 
 PCOD9325060
Probable space group: C 2 2 2
;
_chemical_formula_sum "Si O2"
_cell_formula_units_Z 22
_cell_length_a 35.196161
_cell_length_b 5.489450
_cell_length_c 4.902208
_cell_angle_alpha 90.000000
_cell_angle_beta 90.000000
_cell_angle_gamma 90.000000
_cell_volume 947.143676
_symmetry_space_group_name_H-M "C 2 2 2"
_symmetry_group_IT_number 21
_symmetry_cell_setting 'orthorhombic'
loop_
_space_group_symop_operation_xyz
x,y,z
-x,-y,z
x,-y,-z
-x,y,-z
1/2+x,1/2+y,z
1/2-x,1/2-y,z
1/2+x,1/2-y,-z
1/2-x,1/2+y,-z
loop_
_atom_site_type_symbol
_atom_site_label
_atom_site_fract_x
_atom_site_fract_y
_atom_site_fract_z
Si Si1 0.350295 0.000000 0.500000
Si Si2 0.446522 0.500000 0.000000
Si Si3 0.097289 0.500000 0.000000
Si Si4 0.788781 0.147508 0.758788
Si Si5 0.000000 0.000000 0.500000
O O1 0.377089 0.084838 0.744896
O O2 0.321198 0.814025 0.637376
O O3 0.470417 0.595178 0.266386
O O4 0.424977 0.750984 0.915533
O O5 0.750000 0.250000 0.886893
O O6 0.773899 0.000000 0.500000
O O7 0.807776 0.000000 0.000000
#
# Coordination Sequence:
#
# PCOD9325060 Si02
#       5
#     4   4   4   8   2
#     4  12  28  46  68 104 142 208 232 318 384 454
#     4  11  26  48  74 117 142 199 232 309 348 461
#     4  12  28  47  74 109 162 185 252 291 390 453
#     4  12  26  45  69  99 138 188 262 324 382 445
#     4  10  24  48  84 106 152 184 252 284 372 418
#
# _framework density 23.227732
#
# number of rings (size 3 to 8) (size 9 to 14) (size 15 to 20)
#    0.000    0.364    1.818    5.455   10.182    4.364 
#    0.000    0.000    0.000    0.000    0.000    0.000 
#    0.000    0.000    0.000    0.000    0.000    0.000 
#
# Total GULP energy -61260.293713 kJ/mol
# GULP energy per Si atom -5569.117610 kJ/mol
# Density = 2.317486 g / cm^3
# Si number density = 23.227732 Si / 1000 Ang^3
#
#
#
# Elastic Constant Matrix: (Units=GPa)
#
#
# Indices 1 2 3 4 5 6 
#
# 1 88.2410 39.5171 29.9529 0.0000 0.0000 0.0000
# 2 39.5171 109.4401 29.7852 0.0000 0.0000 0.0000
# 3 29.9529 29.7852 161.5704 0.0000 0.0000 0.0000
# 4 0.0000 0.0000 0.0000 53.0412 0.0000 0.0000
# 5 0.0000 0.0000 0.0000 0.0000 56.9316 0.0000
# 6 0.0000 0.0000 0.0000 0.0000 0.0000 109.2778
#
#
#
# Elastic Compliance Matrix: (Units=1/GPa)
#
#
# Indices 1 2 3 4 5 6 
#
# 1 0.013972 -0.004569 -0.001748 0.000000 0.000000 0.000000
# 2 -0.004569 0.011114 -0.001202 0.000000 0.000000 0.000000
# 3 -0.001748 -0.001202 0.006735 0.000000 0.000000 0.000000
# 4 0.000000 0.000000 0.000000 0.018853 0.000000 0.000000
# 5 0.000000 0.000000 0.000000 0.000000 0.017565 0.000000
# 6 0.000000 0.000000 0.000000 0.000000 0.000000 0.009151
#
#
# Mechanical properties :
#
#
# Convention : Reuss Voigt Hill
#
# Bulk Modulus (GPa) = 59.58328 61.97355 60.77842
# Shear Modulus (GPa) = 51.00818 61.18320 56.09569
#
# Velocity S-wave (km/s) = 4.69124 5.13788 4.91963
# Velocity P-wave (km/s) = 7.41964 7.86993 7.64810
#
# Compressibility (1/GPa) = 0.01678323
#
# Stress axis : x y z
#
# Youngs Moduli (GPa) = 71.57038 89.97283 148.48161
#
# Poissons Ratio (x) = 0.41113 0.25953
# Poissons Ratio (y) = 0.32704 0.17845
# Poissons Ratio (z) = 0.12510 0.10813
#
# Static dielectric constant tensor:
#      x y z
#    x 1.945950 0.000000 0.000000 
#    y 0.000000 2.050010 0.000000 
#    z 0.000000 0.000000 1.900140 
# 
# From -- ./inp_files/7601.got.cif
#   From: 2010.05.17/outbox.cif.g08.bks.cpg/sg21_4_cif.got.tgz:7601.got - 2010.06.03 23:14:55.
