data_PCOD9325788
_publ_section_title
;
Structure prediction by ZEFSAII (Michael W. Deem and Ramdas Pophale) SiO2 
 PCOD9325788
Probable space group: C 2 2 2
;
_chemical_formula_sum "Si O2"
_cell_formula_units_Z 32
_cell_length_a 13.831563
_cell_length_b 5.862931
_cell_length_c 16.165134
_cell_angle_alpha 90.000000
_cell_angle_beta 90.000000
_cell_angle_gamma 90.000000
_cell_volume 1310.887286
_symmetry_space_group_name_H-M "C 2 2 2"
_symmetry_group_IT_number 21
_symmetry_cell_setting 'orthorhombic'
loop_
_space_group_symop_operation_xyz
x,y,z
-x,-y,z
x,-y,-z
-x,y,-z
1/2+x,1/2+y,z
1/2-x,1/2-y,z
1/2+x,1/2-y,-z
1/2-x,1/2+y,-z
loop_
_atom_site_type_symbol
_atom_site_label
_atom_site_fract_x
_atom_site_fract_y
_atom_site_fract_z
Si Si1 0.389553 0.550407 0.743229
Si Si2 0.250000 0.250000 0.633035
Si Si3 0.500000 0.500000 0.500000
Si Si4 0.500000 0.000000 0.000000
Si Si5 0.354823 0.352110 0.917806
Si Si6 0.396963 0.878421 0.609995
O O1 0.500000 0.500000 0.722639
O O2 0.325586 0.373619 0.692768
O O3 0.379405 0.512278 0.840345
O O4 0.367685 0.792681 0.701686
O O5 0.186927 0.442686 0.586173
O O6 0.426547 0.661963 0.552597
O O7 0.433002 0.157543 0.940833
O O8 0.250000 0.250000 0.900143
O O9 0.348006 0.500000 0.000000
O O10 0.500000 0.000000 0.614656
#
# Coordination Sequence:
#
# PCOD9325788 Si02
#       6
#     8   4   2   2   8   8
#     4  12  25  49  82 117 164 213 274 344 407 493
#     4  12  26  48  86 122 158 218 276 326 422 508
#     4  12  26  56  96 118 170 216 272 360 434 500
#     4  12  26  52  80 108 168 218 274 348 420 468
#     4  12  27  50  77 115 162 217 277 340 406 488
#     4  12  26  52  90 120 164 219 271 344 426 506
#
# _framework density 24.410948999999999
#
# number of rings (size 3 to 8) (size 9 to 14) (size 15 to 20)
#    0.000    0.000    6.250    3.000    0.000    6.000 
#    6.750    0.000   77.000    0.000    0.000    0.000 
#    0.000    0.000    0.000    0.000    0.000    0.000 
#
# Total GULP energy -89623.989166 kJ/mol
# GULP energy per Si atom -5601.499323 kJ/mol
# Density = 2.435539 g / cm^3
# Si number density = 24.410949 Si / 1000 Ang^3
#
#
#
# Elastic Constant Matrix: (Units=GPa)
#
#
# Indices 1 2 3 4 5 6 
#
# 1 176.7148 57.3356 46.4118 0.0000 0.0000 0.0000
# 2 57.3356 122.3321 71.4586 0.0000 0.0000 0.0000
# 3 46.4118 71.4586 169.4239 0.0000 0.0000 0.0000
# 4 0.0000 0.0000 0.0000 17.6218 0.0000 0.0000
# 5 0.0000 0.0000 0.0000 0.0000 -22.4235 0.0000
# 6 0.0000 0.0000 0.0000 0.0000 0.0000 46.7488
#
#
#
# Elastic Compliance Matrix: (Units=1/GPa)
#
#
# Indices 1 2 3 4 5 6 
#
# 1 0.006732 -0.002757 -0.000681 0.000000 0.000000 0.000000
# 2 -0.002757 0.011976 -0.004296 0.000000 0.000000 0.000000
# 3 -0.000681 -0.004296 0.007901 0.000000 0.000000 0.000000
# 4 0.000000 0.000000 0.000000 0.056748 0.000000 0.000000
# 5 0.000000 0.000000 0.000000 0.000000 -0.044596 0.000000
# 6 0.000000 0.000000 0.000000 0.000000 0.000000 0.021391
#
#
# Mechanical properties :
#
#
# Convention : Reuss Voigt Hill
#
# Bulk Modulus (GPa) = 89.76393 90.98697 90.37545
# Shear Modulus (GPa) = 63.02396 27.94040 45.48218
#
# Velocity S-wave (km/s) = 5.08664 3.38684 4.32115
# Velocity P-wave (km/s) = 8.44692 7.25591 7.87396
#
# Compressibility (1/GPa) = 0.01114033
#
# Stress axis : x y z
#
# Youngs Moduli (GPa) = 148.53489 83.49865 126.56836
#
# Poissons Ratio (x) = 0.23024 0.08622
# Poissons Ratio (y) = 0.40958 0.54372
# Poissons Ratio (z) = 0.10119 0.35870
#
# Static dielectric constant tensor:
#      x y z
#    x 2.162870 0.000000 0.000000 
#    y 0.000000 2.028570 0.000000 
#    z 0.000000 0.000000 1.927760 
# 
# From -- ./inp_files/36471.got.cif
#   From: 2010.05.17/outbox.cif.g08.bks.cpg/sg21_19_cif.got.tgz:36471.got - 2010.06.03 23:14:55.
