data_PCOD9325129
_publ_section_title
;
Structure prediction by ZEFSAII (Michael W. Deem and Ramdas Pophale) SiO2 
 PCOD9325129
Probable space group: C 2 2 2
;
_chemical_formula_sum "Si O2"
_cell_formula_units_Z 26
_cell_length_a 5.265533
_cell_length_b 26.610374
_cell_length_c 8.089289
_cell_angle_alpha 90.000000
_cell_angle_beta 90.000000
_cell_angle_gamma 90.000000
_cell_volume 1133.453398
_symmetry_space_group_name_H-M "C 2 2 2"
_symmetry_group_IT_number 21
_symmetry_cell_setting 'orthorhombic'
loop_
_space_group_symop_operation_xyz
x,y,z
-x,-y,z
x,-y,-z
-x,y,-z
1/2+x,1/2+y,z
1/2-x,1/2-y,z
1/2+x,1/2-y,-z
1/2-x,1/2+y,-z
loop_
_atom_site_type_symbol
_atom_site_label
_atom_site_fract_x
_atom_site_fract_y
_atom_site_fract_z
Si Si1 0.750000 0.750000 0.259186
Si Si2 0.000000 0.000000 0.500000
Si Si3 0.000000 0.183523 0.000000
Si Si4 0.000000 0.671664 0.500000
Si Si5 0.663115 0.076539 0.345376
Si Si6 0.500000 0.112683 0.000000
O O1 0.632038 0.793295 0.369379
O O2 0.538550 0.721880 0.150856
O O3 0.900137 0.959027 0.636305
O O4 0.750625 0.148101 0.998851
O O5 0.193171 0.634172 0.405364
O O6 0.500000 0.055305 0.500000
O O7 0.528685 0.080146 0.168095
#
# Coordination Sequence:
#
# PCOD9325129 Si02
#       6
#     4   2   4   4   8   4
#     4  12  26  40  78 112 170 220 266 314 398 476
#     4  12  26  50  94 102 160 208 278 340 424 478
#     4  12  27  48  72 120 158 222 264 318 377 490
#     4  10  26  42  70 116 158 212 260 328 388 480
#     4  10  26  51  75 117 151 208 263 341 401 478
#     4  12  27  52  81 113 166 205 266 337 401 468
#
# _framework density 22.938746999999999
#
# number of rings (size 3 to 8) (size 9 to 14) (size 15 to 20)
#    0.923    0.000    3.077    1.385   12.923    0.000 
#    0.000    4.615    0.000    0.000    0.000    0.000 
#    0.000    0.000    0.000    0.000    0.000    0.000 
#
# Total GULP energy -72484.374076 kJ/mol
# GULP energy per Si atom -5575.721083 kJ/mol
# Density = 2.288654 g / cm^3
# Si number density = 22.938747 Si / 1000 Ang^3
#
#
#
# Elastic Constant Matrix: (Units=GPa)
#
#
# Indices 1 2 3 4 5 6 
#
# 1 95.4337 62.6899 48.9687 0.0000 0.0000 0.0000
# 2 62.6899 175.0046 84.8121 0.0000 0.0000 0.0000
# 3 48.9687 84.8121 198.8455 0.0000 0.0000 0.0000
# 4 0.0000 0.0000 0.0000 -22.5150 0.0000 0.0000
# 5 0.0000 0.0000 0.0000 0.0000 14.2073 0.0000
# 6 0.0000 0.0000 0.0000 0.0000 0.0000 34.8051
#
#
#
# Elastic Compliance Matrix: (Units=1/GPa)
#
#
# Indices 1 2 3 4 5 6 
#
# 1 0.014127 -0.004254 -0.001665 0.000000 0.000000 0.000000
# 2 -0.004254 0.008484 -0.002571 0.000000 0.000000 0.000000
# 3 -0.001665 -0.002571 0.006536 0.000000 0.000000 0.000000
# 4 0.000000 0.000000 0.000000 -0.044415 0.000000 0.000000
# 5 0.000000 0.000000 0.000000 0.000000 0.070386 0.000000
# 6 0.000000 0.000000 0.000000 0.000000 0.000000 0.028731
#
#
# Mechanical properties :
#
#
# Convention : Reuss Voigt Hill
#
# Bulk Modulus (GPa) = 82.18605 95.80281 88.99443
# Shear Modulus (GPa) = 47.67175 23.48703 35.57939
#
# Velocity S-wave (km/s) = 4.56370 3.20332 3.94262
# Velocity P-wave (km/s) = 7.97973 7.45231 7.72052
#
# Compressibility (1/GPa) = 0.01216751
#
# Stress axis : x y z
#
# Youngs Moduli (GPa) = 70.78676 117.87012 153.00888
#
# Poissons Ratio (x) = 0.50140 0.25470
# Poissons Ratio (y) = 0.30111 0.39339
# Poissons Ratio (z) = 0.11783 0.30305
#
# Static dielectric constant tensor:
#      x y z
#    x 2.056450 0.000000 0.000000 
#    y 0.000000 1.817630 0.000000 
#    z 0.000000 0.000000 2.044390 
# 
# From -- ./inp_files/8918.got.cif
#   From: 2010.05.17/outbox.cif.g08.bks.cpg/sg21_5_cif.got.tgz:8918.got - 2010.06.03 23:14:55.
