data_PCOD9325268
_publ_section_title
;
Structure prediction by ZEFSAII (Michael W. Deem and Ramdas Pophale) SiO2 
 PCOD9325268
Probable space group: C 2 2 2
;
_chemical_formula_sum "Si O2"
_cell_formula_units_Z 58
_cell_length_a 9.125402
_cell_length_b 16.000704
_cell_length_c 19.349344
_cell_angle_alpha 90.000000
_cell_angle_beta 90.000000
_cell_angle_gamma 90.000000
_cell_volume 2825.252985
_symmetry_space_group_name_H-M "C 2 2 2"
_symmetry_group_IT_number 21
_symmetry_cell_setting 'orthorhombic'
loop_
_space_group_symop_operation_xyz
x,y,z
-x,-y,z
x,-y,-z
-x,y,-z
1/2+x,1/2+y,z
1/2-x,1/2-y,z
1/2+x,1/2-y,-z
1/2-x,1/2+y,-z
loop_
_atom_site_type_symbol
_atom_site_label
_atom_site_fract_x
_atom_site_fract_y
_atom_site_fract_z
Si Si1 0.000000 0.500000 0.000000
Si Si2 0.878317 0.318013 0.685172
Si Si3 0.999100 0.141464 0.079151
Si Si4 0.425179 0.734494 0.425561
Si Si5 0.172666 0.505899 0.730341
Si Si6 0.922577 0.910057 0.681108
Si Si7 0.265999 0.494596 0.110080
Si Si8 0.423771 0.267157 0.790073
O O1 0.127457 0.501250 0.060741
O O2 0.750000 0.250000 0.681580
O O3 0.800028 0.406594 0.691940
O O4 0.988358 0.302191 0.621516
O O5 0.977745 0.302604 0.753376
O O6 0.969916 0.216416 0.131715
O O7 0.147592 0.091280 0.095083
O O8 0.872576 0.072248 0.091903
O O9 0.000000 0.168669 0.000000
O O10 0.500000 0.733043 0.500000
O O11 0.250000 0.750000 0.428388
O O12 0.449326 0.646790 0.385381
O O13 0.251448 0.432309 0.689058
O O14 0.230734 0.503405 0.808610
O O15 0.000000 0.500000 0.731662
O O16 0.958731 0.851681 0.746878
O O17 0.000000 0.000000 0.683121
O O18 0.250000 0.250000 0.784502
#
# Coordination Sequence:
#
# PCOD9325268 Si02
#       8
#     2   8   8   8   8   8   8   8
#     4  12  20  34  52  96 136 158 214 292 350 418
#     4  11  23  41  63  97 134 170 212 268 330 404
#     4  11  21  39  62  82 124 175 229 268 340 417
#     4  11  24  45  70  96 136 185 218 258 330 412
#     4  12  22  35  63  98 128 160 217 287 325 372
#     4  11  22  41  68  98 127 166 225 274 320 391
#     4  11  21  36  59  93 125 172 220 284 348 401
#     4  11  23  41  64  90 129 177 220 272 337 405
#
# _framework density 20.529135
#
# number of rings (size 3 to 8) (size 9 to 14) (size 15 to 20)
#    0.000    0.828    3.448    7.448    0.000    0.276 
#    0.000    2.069    1.517    2.897    0.000    0.000 
#    0.000    0.000    0.000    0.000    0.000    0.000 
#
# Total GULP energy -161947.096297 kJ/mol
# GULP energy per Si atom -5584.382631 kJ/mol
# Density = 2.048241 g / cm^3
# Si number density = 20.529135 Si / 1000 Ang^3
#
#
#
# Elastic Constant Matrix: (Units=GPa)
#
#
# Indices 1 2 3 4 5 6 
#
# 1 116.2177 -0.3458 26.1682 0.0000 0.0000 0.0000
# 2 -0.3458 60.4844 26.8005 0.0000 0.0000 0.0000
# 3 26.1682 26.8005 140.1918 0.0000 0.0000 0.0000
# 4 0.0000 0.0000 0.0000 14.3329 0.0000 0.0000
# 5 0.0000 0.0000 0.0000 0.0000 34.9014 0.0000
# 6 0.0000 0.0000 0.0000 0.0000 0.0000 32.4647
#
#
#
# Elastic Compliance Matrix: (Units=1/GPa)
#
#
# Indices 1 2 3 4 5 6 
#
# 1 0.009024 0.000872 -0.001851 0.000000 0.000000 0.000000
# 2 0.000872 0.018148 -0.003632 0.000000 0.000000 0.000000
# 3 -0.001851 -0.003632 0.008173 0.000000 0.000000 0.000000
# 4 0.000000 0.000000 0.000000 0.069770 0.000000 0.000000
# 5 0.000000 0.000000 0.000000 0.000000 0.028652 0.000000
# 6 0.000000 0.000000 0.000000 0.000000 0.000000 0.030803
#
#
# Mechanical properties :
#
#
# Convention : Reuss Voigt Hill
#
# Bulk Modulus (GPa) = 38.28213 46.90441 42.59327
# Shear Modulus (GPa) = 27.39746 33.95785 30.67765
#
# Velocity S-wave (km/s) = 3.65713 4.07151 3.86987
# Velocity P-wave (km/s) = 6.04326 6.70822 6.38441
#
# Compressibility (1/GPa) = 0.02612185
#
# Stress axis : x y z
#
# Youngs Moduli (GPa) = 110.81637 55.10395 122.35501
#
# Poissons Ratio (x) = -0.04804 0.22649
# Poissons Ratio (y) = -0.09661 0.44439
# Poissons Ratio (z) = 0.20513 0.20014
#
# Static dielectric constant tensor:
#      x y z
#    x 1.759010 0.000000 0.000000 
#    y 0.000000 1.757240 0.000000 
#    z 0.000000 0.000000 1.710560 
# 
# From -- ./inp_files/35846.got.cif
#   From: 2010.05.17/outbox.cif.g08.bks.cpg/sg21_18_cif.got.tgz:35846.got - 2010.06.03 23:14:55.
