data_PCOD9325098
_publ_section_title
;
Structure prediction by ZEFSAII (Michael W. Deem and Ramdas Pophale) SiO2 
 PCOD9325098
Probable space group: C 2 2 2
;
_chemical_formula_sum "Si O2"
_cell_formula_units_Z 40
_cell_length_a 12.074907
_cell_length_b 8.697971
_cell_length_c 17.938081
_cell_angle_alpha 90.000000
_cell_angle_beta 90.000000
_cell_angle_gamma 90.000000
_cell_volume 1883.986258
_symmetry_space_group_name_H-M "C 2 2 2"
_symmetry_group_IT_number 21
_symmetry_cell_setting 'orthorhombic'
loop_
_space_group_symop_operation_xyz
x,y,z
-x,-y,z
x,-y,-z
-x,y,-z
1/2+x,1/2+y,z
1/2-x,1/2-y,z
1/2+x,1/2-y,-z
1/2-x,1/2+y,-z
loop_
_atom_site_type_symbol
_atom_site_label
_atom_site_fract_x
_atom_site_fract_y
_atom_site_fract_z
Si Si1 0.634098 0.162410 0.707577
Si Si2 0.516616 0.317707 0.830861
Si Si3 0.194851 0.890946 0.940076
Si Si4 0.676147 0.893486 0.823768
Si Si5 0.875757 0.328452 0.530965
O O1 0.750000 0.250000 0.718203
O O2 0.542375 0.266825 0.747268
O O3 0.612740 0.154404 0.620188
O O4 0.642609 0.005016 0.755292
O O5 0.500000 0.500000 0.833832
O O6 0.620908 0.296526 0.882990
O O7 0.425571 0.199414 0.858455
O O8 0.250000 0.750000 0.984028
O O9 0.264973 0.004331 0.886803
O O10 0.136713 0.000000 0.000000
O O11 0.750000 0.750000 0.795429
O O12 0.865575 0.500000 0.500000
O O13 0.750000 0.250000 0.517366
O O14 0.000000 0.268744 0.500000
#
# Coordination Sequence:
#
# PCOD9325098 Si02
#       5
#     8   8   8   8   8
#     4  11  22  46  72 101 145 184 241 308 347 447
#     4  12  24  43  70 100 132 177 237 291 360 431
#     4  12  26  48  66  97 142 179 235 299 359 428
#     4  12  23  43  70 103 132 184 240 290 364 430
#     4  10  25  47  71 110 154 198 246 306 382 442
#
# _framework density 21.231576
#
# number of rings (size 3 to 8) (size 9 to 14) (size 15 to 20)
#    0.000    0.600    6.000    1.200    5.600    1.600 
#    7.200    1.000    0.000    0.000    0.000    0.000 
#    0.000    0.000    0.000    0.000    0.000    0.000 
#
# Total GULP energy -111392.425291 kJ/mol
# GULP energy per Si atom -5569.621265 kJ/mol
# Density = 2.118325 g / cm^3
# Si number density = 21.231576 Si / 1000 Ang^3
#
#
#
# Elastic Constant Matrix: (Units=GPa)
#
#
# Indices 1 2 3 4 5 6 
#
# 1 113.6499 50.2995 32.4733 0.0000 0.0000 0.0000
# 2 50.2995 101.8695 28.5913 0.0000 0.0000 0.0000
# 3 32.4733 28.5913 98.1974 0.0000 0.0000 0.0000
# 4 0.0000 0.0000 0.0000 22.7738 0.0000 0.0000
# 5 0.0000 0.0000 0.0000 0.0000 -205.6731 0.0000
# 6 0.0000 0.0000 0.0000 0.0000 0.0000 49.6604
#
#
#
# Elastic Compliance Matrix: (Units=1/GPa)
#
#
# Indices 1 2 3 4 5 6 
#
# 1 0.011754 -0.005132 -0.002393 0.000000 0.000000 0.000000
# 2 -0.005132 0.012931 -0.002068 0.000000 0.000000 0.000000
# 3 -0.002393 -0.002068 0.011577 0.000000 0.000000 0.000000
# 4 0.000000 0.000000 0.000000 0.043910 0.000000 0.000000
# 5 0.000000 0.000000 0.000000 0.000000 -0.004862 0.000000
# 6 0.000000 0.000000 0.000000 0.000000 0.000000 0.020137
#
#
# Mechanical properties :
#
#
# Convention : Reuss Voigt Hill
#
# Bulk Modulus (GPa) = 58.56006 59.60501 59.08254
# Shear Modulus (GPa) = 41.55444 -13.15760 14.19842
#
# Velocity S-wave (km/s) = 4.42882 -2.49211 2.58881
# Velocity P-wave (km/s) = 7.33445 4.45577 6.06828
#
# Compressibility (1/GPa) = 0.01707648
#
# Stress axis : x y z
#
# Youngs Moduli (GPa) = 85.07723 77.33399 86.37901
#
# Poissons Ratio (x) = 0.39689 0.20668
# Poissons Ratio (y) = 0.43663 0.17862
# Poissons Ratio (z) = 0.20356 0.15991
#
# Static dielectric constant tensor:
#      x y z
#    x 2.046590 0.000000 0.000000 
#    y 0.000000 1.941150 0.000000 
#    z 0.000000 0.000000 1.708400 
# 
# From -- ./inp_files/35454.got.cif
#   From: 2010.05.17/outbox.cif.g08.bks.cpg/sg21_18_cif.got.tgz:35454.got - 2010.06.03 23:14:55.
