data_PCOD9325723
_publ_section_title
;
Structure prediction by ZEFSAII (Michael W. Deem and Ramdas Pophale) SiO2 
 PCOD9325723
Probable space group: C 2 2 2
;
_chemical_formula_sum "Si O2"
_cell_formula_units_Z 38
_cell_length_a 8.109729
_cell_length_b 13.176750
_cell_length_c 15.628904
_cell_angle_alpha 90.000000
_cell_angle_beta 90.000000
_cell_angle_gamma 90.000000
_cell_volume 1670.102675
_symmetry_space_group_name_H-M "C 2 2 2"
_symmetry_group_IT_number 21
_symmetry_cell_setting 'orthorhombic'
loop_
_space_group_symop_operation_xyz
x,y,z
-x,-y,z
x,-y,-z
-x,y,-z
1/2+x,1/2+y,z
1/2-x,1/2-y,z
1/2+x,1/2-y,-z
1/2-x,1/2+y,-z
loop_
_atom_site_type_symbol
_atom_site_label
_atom_site_fract_x
_atom_site_fract_y
_atom_site_fract_z
Si Si1 0.000000 0.500000 0.000000
Si Si2 0.948736 0.754682 0.401884
Si Si3 0.750000 0.250000 0.159128
Si Si4 0.615304 0.917890 0.287912
Si Si5 0.389186 0.822967 0.887924
Si Si6 0.627684 0.577184 0.713908
O O1 0.893754 0.573919 0.059100
O O2 0.750000 0.750000 0.394722
O O3 0.988235 0.648982 0.354542
O O4 0.000000 0.756116 0.500000
O O5 0.035851 0.847459 0.352453
O O6 0.574969 0.223860 0.113820
O O7 0.712622 0.347780 0.219006
O O8 0.665659 0.846583 0.210038
O O9 0.500000 0.000000 0.243531
O O10 0.753088 0.991596 0.328023
O O11 0.250000 0.750000 0.924577
O O12 0.500000 0.500000 0.759098
#
# Coordination Sequence:
#
# PCOD9325723 Si02
#       6
#     2   8   4   8   8   8
#     4  12  28  52  78 118 158 198 240 300 378 450
#     4  12  28  46  65 103 151 192 255 319 365 440
#     4  12  24  46  84 112 146 200 250 308 374 450
#     4  12  23  47  75 103 142 194 244 306 370 441
#     4  12  26  49  80 114 156 194 249 307 368 452
#     4  12  23  44  75 104 139 192 251 303 375 439
#
# _framework density 22.753091999999999
#
# number of rings (size 3 to 8) (size 9 to 14) (size 15 to 20)
#    0.000    0.000    7.368    1.895    5.895    0.842 
#    0.000    1.053    0.000    0.000    0.000    0.000 
#    0.000    0.000    0.000    0.000    0.000    0.000 
#
# Total GULP energy -106057.513178 kJ/mol
# GULP energy per Si atom -5581.974378 kJ/mol
# Density = 2.270130 g / cm^3
# Si number density = 22.753092 Si / 1000 Ang^3
#
#
#
# Elastic Constant Matrix: (Units=GPa)
#
#
# Indices 1 2 3 4 5 6 
#
# 1 125.3824 85.9346 50.6822 0.0000 0.0000 0.0000
# 2 85.9346 179.2164 51.1926 0.0000 0.0000 0.0000
# 3 50.6822 51.1926 83.0241 0.0000 0.0000 0.0000
# 4 0.0000 0.0000 0.0000 15.1516 0.0000 0.0000
# 5 0.0000 0.0000 0.0000 0.0000 9.1887 0.0000
# 6 0.0000 0.0000 0.0000 0.0000 0.0000 73.2470
#
#
#
# Elastic Compliance Matrix: (Units=1/GPa)
#
#
# Indices 1 2 3 4 5 6 
#
# 1 0.013479 -0.004992 -0.005150 0.000000 0.000000 0.000000
# 2 -0.004992 0.008622 -0.002269 0.000000 0.000000 0.000000
# 3 -0.005150 -0.002269 0.016587 0.000000 0.000000 0.000000
# 4 0.000000 0.000000 0.000000 0.066000 0.000000 0.000000
# 5 0.000000 0.000000 0.000000 0.000000 0.108829 0.000000
# 6 0.000000 0.000000 0.000000 0.000000 0.000000 0.013652
#
#
# Mechanical properties :
#
#
# Convention : Reuss Voigt Hill
#
# Bulk Modulus (GPa) = 72.11749 84.80466 78.46108
# Shear Modulus (GPa) = 19.48463 32.83838 26.16151
#
# Velocity S-wave (km/s) = 2.92952 3.80313 3.39455
# Velocity P-wave (km/s) = 6.57323 7.52580 7.06559
#
# Compressibility (1/GPa) = 0.01386626
#
# Stress axis : x y z
#
# Youngs Moduli (GPa) = 74.19062 115.98832 60.28663
#
# Poissons Ratio (x) = 0.57901 0.31048
# Poissons Ratio (y) = 0.37036 0.13677
# Poissons Ratio (z) = 0.38209 0.26314
#
# Static dielectric constant tensor:
#      x y z
#    x 2.051550 0.000000 0.000000 
#    y 0.000000 1.867530 0.000000 
#    z 0.000000 0.000000 1.795520 
# 
# From -- ./inp_files/35515.got.cif
#   From: 2010.05.17/outbox.cif.g08.bks.cpg/sg21_18_cif.got.tgz:35515.got - 2010.06.03 23:14:55.
