data_PCOD9325792
_publ_section_title
;
Structure prediction by ZEFSAII (Michael W. Deem and Ramdas Pophale) SiO2 
 PCOD9325792
Probable space group: C 2 2 2
;
_chemical_formula_sum "Si O2"
_cell_formula_units_Z 32
_cell_length_a 13.465474
_cell_length_b 18.764098
_cell_length_c 5.391350
_cell_angle_alpha 90.000000
_cell_angle_beta 90.000000
_cell_angle_gamma 90.000000
_cell_volume 1362.218785
_symmetry_space_group_name_H-M "C 2 2 2"
_symmetry_group_IT_number 21
_symmetry_cell_setting 'orthorhombic'
loop_
_space_group_symop_operation_xyz
x,y,z
-x,-y,z
x,-y,-z
-x,y,-z
1/2+x,1/2+y,z
1/2-x,1/2-y,z
1/2+x,1/2-y,-z
1/2-x,1/2+y,-z
loop_
_atom_site_type_symbol
_atom_site_label
_atom_site_fract_x
_atom_site_fract_y
_atom_site_fract_z
Si Si1 0.651660 0.928270 0.657477
Si Si2 0.365032 0.620003 0.259078
Si Si3 0.639332 0.286990 0.768490
Si Si4 0.500000 0.500000 0.500000
Si Si5 0.500000 0.187663 0.500000
Si Si6 0.000000 0.500000 0.000000
O O1 0.754526 0.909248 0.777288
O O2 0.597591 0.861534 0.532631
O O3 0.666092 0.000000 0.500000
O O4 0.569583 0.949542 0.849936
O O5 0.359131 0.667541 0.511112
O O6 0.435814 0.553532 0.327099
O O7 0.382386 0.664760 0.009336
O O8 0.750000 0.250000 0.796564
O O9 0.543539 0.236501 0.720351
#
# Coordination Sequence:
#
# PCOD9325792 Si02
#       6
#     8   8   8   2   4   2
#     4  12  26  50  78 124 161 216 277 349 419 489
#     4  12  30  54  84 120 164 220 279 339 419 498
#     4  12  29  53  80 122 165 217 273 339 414 506
#     4  12  30  58  88 118 172 222 274 362 408 510
#     4  12  26  52  80 114 166 214 270 350 412 492
#     4  12  26  40  80 124 160 208 278 342 430 482
#
# _framework density 23.491085999999999
#
# number of rings (size 3 to 8) (size 9 to 14) (size 15 to 20)
#    0.000    0.000    6.250    1.500    7.000    6.000 
#    0.000    0.000    0.000    0.000    0.000    0.000 
#    0.000    0.000    0.000    0.000    0.000    0.000 
#
# Total GULP energy -89457.134641 kJ/mol
# GULP energy per Si atom -5591.070915 kJ/mol
# Density = 2.343762 g / cm^3
# Si number density = 23.491086 Si / 1000 Ang^3
#
#
#
# Elastic Constant Matrix: (Units=GPa)
#
#
# Indices 1 2 3 4 5 6 
#
# 1 146.4801 70.2779 37.5175 0.0000 0.0000 0.0000
# 2 70.2779 140.2798 88.6586 0.0000 0.0000 0.0000
# 3 37.5175 88.6586 159.2751 0.0000 0.0000 0.0000
# 4 0.0000 0.0000 0.0000 61.0212 0.0000 0.0000
# 5 0.0000 0.0000 0.0000 0.0000 38.2796 0.0000
# 6 0.0000 0.0000 0.0000 0.0000 0.0000 150.6237
#
#
#
# Elastic Compliance Matrix: (Units=1/GPa)
#
#
# Indices 1 2 3 4 5 6 
#
# 1 0.009024 -0.004902 0.000603 0.000000 0.000000 0.000000
# 2 -0.004902 0.013661 -0.006449 0.000000 0.000000 0.000000
# 3 0.000603 -0.006449 0.009726 0.000000 0.000000 0.000000
# 4 0.000000 0.000000 0.000000 0.016388 0.000000 0.000000
# 5 0.000000 0.000000 0.000000 0.000000 0.026124 0.000000
# 6 0.000000 0.000000 0.000000 0.000000 0.000000 0.006639
#
#
# Mechanical properties :
#
#
# Convention : Reuss Voigt Hill
#
# Bulk Modulus (GPa) = 91.62210 93.21588 92.41899
# Shear Modulus (GPa) = 46.86184 66.62362 56.74273
#
# Velocity S-wave (km/s) = 4.47125 5.33130 4.92011
# Velocity P-wave (km/s) = 8.10825 8.81275 8.46783
#
# Compressibility (1/GPa) = 0.01091440
#
# Stress axis : x y z
#
# Youngs Moduli (GPa) = 110.81094 73.20345 102.81395
#
# Poissons Ratio (x) = 0.35886 -0.06200
# Poissons Ratio (y) = 0.54322 0.66307
# Poissons Ratio (z) = -0.06682 0.47211
#
# Static dielectric constant tensor:
#      x y z
#    x 1.848700 0.000000 0.000000 
#    y 0.000000 2.349770 0.000000 
#    z 0.000000 0.000000 1.652030 
# 
# From -- ./inp_files/3479.got.cif
#   From: 2010.05.17/outbox.cif.g08.bks.cpg/sg21_2_cif.got.tgz:3479.got - 2010.06.03 23:14:55.
