data_PCOD9325972
_publ_section_title
;
Structure prediction by ZEFSAII (Michael W. Deem and Ramdas Pophale) SiO2 
 PCOD9325972
Probable space group: F 2 2 2
;
_chemical_formula_sum "Si O2"
_cell_formula_units_Z 88
_cell_length_a 15.743161
_cell_length_b 11.555228
_cell_length_c 19.983022
_cell_angle_alpha 90.000000
_cell_angle_beta 90.000000
_cell_angle_gamma 90.000000
_cell_volume 3635.227729
_symmetry_space_group_name_H-M "F 2 2 2"
_symmetry_group_IT_number 22
_symmetry_cell_setting 'orthorhombic'
loop_
_space_group_symop_operation_xyz
x,y,z
-x,-y,z
x,-y,-z
-x,y,-z
x,1/2+y,1/2+z
-x,1/2-y,1/2+z
x,1/2-y,1/2-z
-x,1/2+y,1/2-z
1/2+x,y,1/2+z
1/2-x,-y,1/2+z
1/2+x,-y,1/2-z
1/2-x,y,1/2-z
1/2+x,1/2+y,z
1/2-x,1/2-y,z
1/2+x,1/2-y,-z
1/2-x,1/2+y,-z
loop_
_atom_site_type_symbol
_atom_site_label
_atom_site_fract_x
_atom_site_fract_y
_atom_site_fract_z
Si Si1 0.332175 0.671259 0.095609
Si Si2 0.068943 0.330427 0.814751
Si Si3 0.781862 0.008247 0.355547
Si Si4 0.138213 0.500000 0.000000
Si Si5 0.618312 0.700259 0.324121
Si Si6 0.088944 0.735966 0.530404
O O1 0.250000 0.750000 0.110104
O O2 0.410336 0.744150 0.123996
O O3 0.312467 0.559146 0.140633
O O4 0.343173 0.668626 0.015969
O O5 0.071907 0.250000 0.750000
O O6 0.147276 0.419585 0.814204
O O7 0.972018 0.371249 0.824685
O O8 0.809960 0.021492 0.432756
O O9 0.799050 0.878285 0.334883
O O10 0.093725 0.623989 0.984192
O O11 0.622182 0.750000 0.250000
O O12 0.607601 0.778027 0.390912
O O13 0.000000 0.694060 0.500000
#
# Coordination Sequence:
#
# PCOD9325972 Si02
#       6
#    16  16  16   8  16  16
#     4  10  19  34  55  92 133 178 227 289 346 404
#     4  10  19  34  60  96 133 176 226 287 340 407
#     4  10  20  34  59  92 137 175 227 278 359 402
#     4  10  17  30  56  96 127 164 222 282 327 404
#     4  10  21  36  61  97 139 186 234 288 347 424
#     4  11  18  32  60  95 133 180 239 292 343 409
#
# _framework density 24.207563
#
# number of rings (size 3 to 8) (size 9 to 14) (size 15 to 20)
#    0.000    1.818    5.455    0.818    0.000    6.182 
#    0.000    0.000    8.000    0.545    0.000    0.636 
#    0.000    0.000    0.000    0.000    0.000    0.000 
#
# Total GULP energy -122707.043418 kJ/mol
# GULP energy per Si atom -5577.592883 kJ/mol
# Density = 2.415247 g / cm^3
# Si number density = 24.207563 Si / 1000 Ang^3
#
#
#
# Elastic Constant Matrix: (Units=GPa)
#
#
# Indices 1 2 3 4 5 6 
#
# 1 56.8903 35.6947 14.3342 0.0000 0.0000 0.0000
# 2 35.6947 56.7711 28.2144 0.0000 0.0000 0.0000
# 3 14.3342 28.2144 164.3382 0.0000 0.0000 0.0000
# 4 0.0000 0.0000 0.0000 22.5301 0.0000 0.0000
# 5 0.0000 0.0000 0.0000 0.0000 11.6329 0.0000
# 6 0.0000 0.0000 0.0000 0.0000 0.0000 28.1582
#
#
#
# Elastic Compliance Matrix: (Units=1/GPa)
#
#
# Indices 1 2 3 4 5 6 
#
# 1 0.029095 -0.018621 0.000659 0.000000 0.000000 0.000000
# 2 -0.018621 0.031175 -0.003728 0.000000 0.000000 0.000000
# 3 0.000659 -0.003728 0.006668 0.000000 0.000000 0.000000
# 4 0.000000 0.000000 0.000000 0.044385 0.000000 0.000000
# 5 0.000000 0.000000 0.000000 0.000000 0.085963 0.000000
# 6 0.000000 0.000000 0.000000 0.000000 0.000000 0.035514
#
#
# Mechanical properties :
#
#
# Convention : Reuss Voigt Hill
#
# Bulk Modulus (GPa) = 42.44853 48.27628 45.36240
# Shear Modulus (GPa) = 17.60362 25.78132 21.69247
#
# Velocity S-wave (km/s) = 2.69958 3.26699 2.99675
# Velocity P-wave (km/s) = 5.22401 5.84952 5.54559
#
# Compressibility (1/GPa) = 0.02355794
#
# Stress axis : x y z
#
# Youngs Moduli (GPa) = 34.37020 32.07662 149.97937
#
# Poissons Ratio (x) = 0.59730 -0.09886
# Poissons Ratio (y) = 0.64001 0.55915
# Poissons Ratio (z) = -0.02266 0.11959
#
# Static dielectric constant tensor:
#      x y z
#    x 2.018140 0.000000 0.000000 
#    y 0.000000 2.072210 0.000000 
#    z 0.000000 0.000000 1.937890 
# 
# From -- ./inp_files/44128.got.cif
#   From: 2010.05.17/outbox.cif.g08.bks.cpg/sg22_23_cif.got.tgz:44128.got - 2010.06.03 23:40:54.
