data_PCOD9325902
_publ_section_title
;
Structure prediction by ZEFSAII (Michael W. Deem and Ramdas Pophale) SiO2 
 PCOD9325902
Probable space group: F 2 2 2
;
_chemical_formula_sum "Si O2"
_cell_formula_units_Z 80
_cell_length_a 22.457507
_cell_length_b 17.883082
_cell_length_c 10.060015
_cell_angle_alpha 90.000000
_cell_angle_beta 90.000000
_cell_angle_gamma 90.000000
_cell_volume 4040.196982
_symmetry_space_group_name_H-M "F 2 2 2"
_symmetry_group_IT_number 22
_symmetry_cell_setting 'orthorhombic'
loop_
_space_group_symop_operation_xyz
x,y,z
-x,-y,z
x,-y,-z
-x,y,-z
x,1/2+y,1/2+z
-x,1/2-y,1/2+z
x,1/2-y,1/2-z
-x,1/2+y,1/2-z
1/2+x,y,1/2+z
1/2-x,-y,1/2+z
1/2+x,-y,1/2-z
1/2-x,y,1/2-z
1/2+x,1/2+y,z
1/2-x,1/2-y,z
1/2+x,1/2-y,-z
1/2-x,1/2+y,-z
loop_
_atom_site_type_symbol
_atom_site_label
_atom_site_fract_x
_atom_site_fract_y
_atom_site_fract_z
Si Si1 0.532923 0.250000 0.750000
Si Si2 0.143276 0.587543 0.957791
Si Si3 0.000000 0.500000 0.334212
Si Si4 0.539037 0.617656 0.623377
Si Si5 0.730346 0.430598 0.901031
Si Si6 0.100120 0.614233 0.657951
O O1 0.492032 0.306786 0.669376
O O2 0.573204 0.302760 0.843384
O O3 0.211194 0.614516 0.946944
O O4 0.111261 0.595955 0.814977
O O5 0.143602 0.500000 0.000000
O O6 0.104607 0.628811 0.067580
O O7 0.963961 0.441899 0.241445
O O8 0.949234 0.555229 0.396150
O O9 0.500000 0.587503 0.500000
O O10 0.750000 0.453625 0.750000
O O11 0.665999 0.392268 0.901195
O O12 0.725006 0.500000 0.000000
#
# Coordination Sequence:
#
# PCOD9325902 Si02
#       6
#     8  16   8  16  16  16
#     4  10  22  30  51  84 122 147 196 238 304 344
#     4  10  16  31  62  85 103 140 205 252 280 331
#     4  10  17  28  59  90 106 140 198 246 290 340
#     4  11  17  31  54  82 112 145 194 250 284 347
#     4   9  20  36  60  88 118 152 197 249 296 344
#     4  10  19  34  52  86 116 151 187 242 296 360
#
# _framework density 19.801015
#
# number of rings (size 3 to 8) (size 9 to 14) (size 15 to 20)
#    0.000    2.000    6.000    0.300    0.000    0.000 
#    0.000    9.000    0.000    0.000    0.000    5.600 
#    0.000    0.000    0.000    0.000    0.000    0.000 
#
# Total GULP energy -111499.984530 kJ/mol
# GULP energy per Si atom -5574.999226 kJ/mol
# Density = 1.975595 g / cm^3
# Si number density = 19.801015 Si / 1000 Ang^3
#
#
#
# Elastic Constant Matrix: (Units=GPa)
#
#
# Indices 1 2 3 4 5 6 
#
# 1 186.9307 55.4637 31.7178 0.0000 0.0000 0.0000
# 2 55.4637 101.9696 16.3824 0.0000 0.0000 0.0000
# 3 31.7178 16.3824 33.4881 0.0000 0.0000 0.0000
# 4 0.0000 0.0000 0.0000 12.8351 0.0000 0.0000
# 5 0.0000 0.0000 0.0000 0.0000 31.7456 0.0000
# 6 0.0000 0.0000 0.0000 0.0000 0.0000 18.5298
#
#
#
# Elastic Compliance Matrix: (Units=1/GPa)
#
#
# Indices 1 2 3 4 5 6 
#
# 1 0.007148 -0.003039 -0.005283 0.000000 0.000000 0.000000
# 2 -0.003039 0.011935 -0.002960 0.000000 0.000000 0.000000
# 3 -0.005283 -0.002960 0.036314 0.000000 0.000000 0.000000
# 4 0.000000 0.000000 0.000000 0.077911 0.000000 0.000000
# 5 0.000000 0.000000 0.000000 0.000000 0.031500 0.000000
# 6 0.000000 0.000000 0.000000 0.000000 0.000000 0.053967
#
#
# Mechanical properties :
#
#
# Convention : Reuss Voigt Hill
#
# Bulk Modulus (GPa) = 30.45866 58.83513 44.64690
# Shear Modulus (GPa) = 19.81888 27.21040 23.51464
#
# Velocity S-wave (km/s) = 3.16714 3.71103 3.44982
# Velocity P-wave (km/s) = 5.36564 6.93830 6.20202
#
# Compressibility (1/GPa) = 0.03283138
#
# Stress axis : x y z
#
# Youngs Moduli (GPa) = 139.90495 83.78396 27.53796
#
# Poissons Ratio (x) = 0.25462 0.14549
# Poissons Ratio (y) = 0.42517 0.08152
# Poissons Ratio (z) = 0.73914 0.24804
#
# Static dielectric constant tensor:
#      x y z
#    x 1.758540 0.000000 0.000000 
#    y 0.000000 1.670880 0.000000 
#    z 0.000000 0.000000 1.794970 
# 
# From -- ./inp_files/23734.got.cif
#   From: 2010.05.17/outbox.cif.g08.bks.cpg/sg22_12_cif.got.tgz:23734.got - 2010.06.03 23:40:54.
