data_PCOD9325545
_publ_section_title
;
Structure prediction by ZEFSAII (Michael W. Deem and Ramdas Pophale) SiO2 
 PCOD9325545
Probable space group: C 2 2 2
;
_chemical_formula_sum "Si O2"
_cell_formula_units_Z 30
_cell_length_a 5.060080
_cell_length_b 14.003493
_cell_length_c 18.581190
_cell_angle_alpha 90.000000
_cell_angle_beta 90.000000
_cell_angle_gamma 90.000000
_cell_volume 1316.640730
_symmetry_space_group_name_H-M "C 2 2 2"
_symmetry_group_IT_number 21
_symmetry_cell_setting 'orthorhombic'
loop_
_space_group_symop_operation_xyz
x,y,z
-x,-y,z
x,-y,-z
-x,y,-z
1/2+x,1/2+y,z
1/2-x,1/2-y,z
1/2+x,1/2-y,-z
1/2-x,1/2+y,-z
loop_
_atom_site_type_symbol
_atom_site_label
_atom_site_fract_x
_atom_site_fract_y
_atom_site_fract_z
Si Si1 0.000000 0.000000 0.500000
Si Si2 0.002298 0.680573 0.729353
Si Si3 0.231525 0.438594 0.857803
Si Si4 0.750000 0.250000 0.049968
Si Si5 0.132564 0.646040 0.423018
O O1 0.836937 0.935761 0.556231
O O2 0.750000 0.750000 0.730018
O O3 0.923859 0.601321 0.787464
O O4 0.033534 0.632697 0.649972
O O5 0.250000 0.750000 0.745352
O O6 0.500000 0.500000 0.844595
O O7 0.304553 0.343494 0.901954
O O8 0.000000 0.500000 0.896185
O O9 0.500000 0.230615 0.000000
O O10 0.250000 0.750000 0.411827
O O11 0.000000 0.654658 0.500000
#
# Coordination Sequence:
#
# PCOD9325545 Si02
#       5
#     2   8   8   4   8
#     4  12  26  40  72 100 140 196 260 312 402 450
#     4  11  25  46  78 104 152 201 251 316 385 453
#     4  12  27  47  79 116 154 195 257 309 376 455
#     4  12  28  50  80 110 160 202 246 306 382 456
#     4  11  24  44  69  99 144 191 255 315 382 452
#
# _framework density 22.785260999999998
#
# number of rings (size 3 to 8) (size 9 to 14) (size 15 to 20)
#    0.000    0.533    2.667    4.400    7.467    5.333 
#    0.000    0.000    0.000    0.000    0.000    0.000 
#    0.000    0.000    0.000    0.000    0.000    0.000 
#
# Total GULP energy -83744.639664 kJ/mol
# GULP energy per Si atom -5582.975978 kJ/mol
# Density = 2.273340 g / cm^3
# Si number density = 22.785261 Si / 1000 Ang^3
#
#
#
# Elastic Constant Matrix: (Units=GPa)
#
#
# Indices 1 2 3 4 5 6 
#
# 1 140.1883 55.7922 34.9242 0.0000 0.0000 0.0000
# 2 55.7922 154.1534 55.2678 0.0000 0.0000 0.0000
# 3 34.9242 55.2678 126.2798 0.0000 0.0000 0.0000
# 4 0.0000 0.0000 0.0000 4.0200 0.0000 0.0000
# 5 0.0000 0.0000 0.0000 0.0000 29.3715 0.0000
# 6 0.0000 0.0000 0.0000 0.0000 0.0000 32.5786
#
#
#
# Elastic Compliance Matrix: (Units=1/GPa)
#
#
# Indices 1 2 3 4 5 6 
#
# 1 0.008481 -0.002643 -0.001189 0.000000 0.000000 0.000000
# 2 -0.002643 0.008518 -0.002997 0.000000 0.000000 0.000000
# 3 -0.001189 -0.002997 0.009559 0.000000 0.000000 0.000000
# 4 0.000000 0.000000 0.000000 0.248758 0.000000 0.000000
# 5 0.000000 0.000000 0.000000 0.000000 0.034047 0.000000
# 6 0.000000 0.000000 0.000000 0.000000 0.000000 0.030695
#
#
# Mechanical properties :
#
#
# Convention : Reuss Voigt Hill
#
# Bulk Modulus (GPa) = 77.51536 79.17663 78.34600
# Shear Modulus (GPa) = 13.96580 31.50316 22.73448
#
# Velocity S-wave (km/s) = 2.47843 3.72238 3.16218
# Velocity P-wave (km/s) = 6.50261 7.30064 6.91315
#
# Compressibility (1/GPa) = 0.01290067
#
# Stress axis : x y z
#
# Youngs Moduli (GPa) = 117.90433 117.39423 104.60951
#
# Poissons Ratio (x) = 0.31033 0.12435
# Poissons Ratio (y) = 0.31168 0.31352
# Poissons Ratio (z) = 0.14015 0.35184
#
# Static dielectric constant tensor:
#      x y z
#    x 1.700880 0.000000 0.000000 
#    y 0.000000 1.829770 0.000000 
#    z 0.000000 0.000000 1.948990 
# 
# From -- ./inp_files/34338.got.cif
#   From: 2010.05.17/outbox.cif.g08.bks.cpg/sg21_18_cif.got.tgz:34338.got - 2010.06.03 23:14:55.
