data_PCOD9325917
_publ_section_title
;
Structure prediction by ZEFSAII (Michael W. Deem and Ramdas Pophale) SiO2 
 PCOD9325917
Probable space group: F 2 2 2
;
_chemical_formula_sum "Si O2"
_cell_formula_units_Z 104
_cell_length_a 22.086117
_cell_length_b 19.215495
_cell_length_c 13.493259
_cell_angle_alpha 90.000000
_cell_angle_beta 90.000000
_cell_angle_gamma 90.000000
_cell_volume 5726.480704
_symmetry_space_group_name_H-M "F 2 2 2"
_symmetry_group_IT_number 22
_symmetry_cell_setting 'orthorhombic'
loop_
_space_group_symop_operation_xyz
x,y,z
-x,-y,z
x,-y,-z
-x,y,-z
x,1/2+y,1/2+z
-x,1/2-y,1/2+z
x,1/2-y,1/2-z
-x,1/2+y,1/2-z
1/2+x,y,1/2+z
1/2-x,-y,1/2+z
1/2+x,-y,1/2-z
1/2-x,y,1/2-z
1/2+x,1/2+y,z
1/2-x,1/2-y,z
1/2+x,1/2-y,-z
1/2-x,1/2+y,-z
loop_
_atom_site_type_symbol
_atom_site_label
_atom_site_fract_x
_atom_site_fract_y
_atom_site_fract_z
Si Si1 0.885147 0.024044 0.153013
Si Si2 0.033157 0.795884 0.896768
Si Si3 0.136278 0.392147 0.463464
Si Si4 0.342813 0.148167 0.774350
Si Si5 0.732451 0.322819 0.089929
Si Si6 0.500000 0.500000 0.287795
Si Si7 0.516135 0.345573 0.311104
O O1 0.846471 0.071569 0.226255
O O2 0.855179 0.954323 0.113224
O O3 0.899344 0.072649 0.057175
O O4 0.942946 0.001921 0.215116
O O5 0.099812 0.827539 0.916669
O O6 0.020434 0.714653 0.869354
O O7 0.004628 0.836889 0.803503
O O8 0.000000 0.808845 0.000000
O O9 0.199151 0.370095 0.511605
O O10 0.315693 0.191020 0.680224
O O11 0.292837 0.148580 0.859357
O O12 0.410855 0.167129 0.809232
O O13 0.750000 0.250000 0.042962
O O14 0.502853 0.425254 0.343237
#
# Coordination Sequence:
#
# PCOD9325917 Si02
#       7
#    16  16  16  16  16   8  16
#     4   9  18  31  54  81 111 143 183 245 288 348
#     4  11  21  33  52  86 123 153 179 244 290 355
#     4  10  20  32  51  84 113 145 190 236 300 339
#     4   9  18  33  51  82 109 142 188 239 290 330
#     4  10  20  31  53  79 110 146 187 244 284 340
#     4  10  16  35  51  84 114 150 186 224 290 366
#     4  10  22  33  58  86 120 152 190 236 305 354
#
# _framework density 18.161242000000001
#
# number of rings (size 3 to 8) (size 9 to 14) (size 15 to 20)
#    0.000    2.154    1.538    3.692    6.462    0.615 
#    0.000    0.385    0.000   20.308    0.000    0.000 
#    0.000    0.000    0.000    0.000    0.000    0.000 
#
# Total GULP energy -144806.883272 kJ/mol
# GULP energy per Si atom -5569.495510 kJ/mol
# Density = 1.811991 g / cm^3
# Si number density = 18.161242 Si / 1000 Ang^3
#
#
#
# Elastic Constant Matrix: (Units=GPa)
#
#
# Indices 1 2 3 4 5 6 
#
# 1 76.6522 42.8334 25.4614 0.0000 0.0000 0.0000
# 2 42.8334 130.1043 24.7398 0.0000 0.0000 0.0000
# 3 25.4614 24.7398 43.3950 0.0000 0.0000 0.0000
# 4 0.0000 0.0000 0.0000 22.9169 0.0000 0.0000
# 5 0.0000 0.0000 0.0000 0.0000 23.5128 0.0000
# 6 0.0000 0.0000 0.0000 0.0000 0.0000 24.2482
#
#
#
# Elastic Compliance Matrix: (Units=1/GPa)
#
#
# Indices 1 2 3 4 5 6 
#
# 1 0.018248 -0.004455 -0.008167 0.000000 0.000000 0.000000
# 2 -0.004455 0.009708 -0.002921 0.000000 0.000000 0.000000
# 3 -0.008167 -0.002921 0.029501 0.000000 0.000000 0.000000
# 4 0.000000 0.000000 0.000000 0.043636 0.000000 0.000000
# 5 0.000000 0.000000 0.000000 0.000000 0.042530 0.000000
# 6 0.000000 0.000000 0.000000 0.000000 0.000000 0.041240
#
#
# Mechanical properties :
#
#
# Convention : Reuss Voigt Hill
#
# Bulk Modulus (GPa) = 37.91904 48.46897 43.19401
# Shear Modulus (GPa) = 22.24791 24.61002 23.42897
#
# Velocity S-wave (km/s) = 3.50383 3.68514 3.59563
# Velocity P-wave (km/s) = 6.10684 6.69725 6.40885
#
# Compressibility (1/GPa) = 0.02637198
#
# Stress axis : x y z
#
# Youngs Moduli (GPa) = 54.80023 103.00609 33.89675
#
# Poissons Ratio (x) = 0.45886 0.27684
# Poissons Ratio (y) = 0.24412 0.09901
# Poissons Ratio (z) = 0.44756 0.30088
#
# Static dielectric constant tensor:
#      x y z
#    x 1.638880 0.000000 0.000000 
#    y 0.000000 1.733960 0.000000 
#    z 0.000000 0.000000 1.619020 
# 
# From -- ./inp_files/31824.got.cif
#   From: 2010.05.17/outbox.cif.g08.bks.cpg/sg22_16_cif.got.tgz:31824.got - 2010.06.03 23:40:54.
