data_PCOD9325722
_publ_section_title
;
Structure prediction by ZEFSAII (Michael W. Deem and Ramdas Pophale) SiO2 
 PCOD9325722
Probable space group: C 2 2 2
;
_chemical_formula_sum "Si O2"
_cell_formula_units_Z 30
_cell_length_a 19.226517
_cell_length_b 6.558385
_cell_length_c 11.187196
_cell_angle_alpha 90.000000
_cell_angle_beta 90.000000
_cell_angle_gamma 90.000000
_cell_volume 1410.648369
_symmetry_space_group_name_H-M "C 2 2 2"
_symmetry_group_IT_number 21
_symmetry_cell_setting 'orthorhombic'
loop_
_space_group_symop_operation_xyz
x,y,z
-x,-y,z
x,-y,-z
-x,y,-z
1/2+x,1/2+y,z
1/2-x,1/2-y,z
1/2+x,1/2-y,-z
1/2-x,1/2+y,-z
loop_
_atom_site_type_symbol
_atom_site_label
_atom_site_fract_x
_atom_site_fract_y
_atom_site_fract_z
Si Si1 0.000000 0.500000 0.500000
Si Si2 0.099180 0.326638 0.700508
Si Si3 0.103031 0.331772 0.097438
Si Si4 0.750000 0.750000 0.779434
Si Si5 0.710949 0.500000 0.000000
Si Si6 0.500000 0.500000 0.824906
O O1 0.053461 0.375411 0.583902
O O2 0.102086 0.536073 0.779729
O O3 0.180287 0.260481 0.700859
O O4 0.057723 0.136154 0.757050
O O5 0.166222 0.194732 0.045114
O O6 0.088478 0.500000 0.000000
O O7 0.043302 0.167352 0.106878
O O8 0.748321 0.565648 0.876566
#
# Coordination Sequence:
#
# PCOD9325722 Si02
#       6
#     2   8   8   4   4   4
#     4  12  28  58  74 100 142 202 268 344 348 432
#     4  12  27  49  77 105 151 194 263 309 385 438
#     4  12  23  44  72 115 157 197 239 305 377 476
#     4  12  24  48  72 114 150 204 230 306 390 476
#     4  12  24  43  74 113 168 188 234 302 396 475
#     4  12  24  46  72 114 150 203 247 306 368 468
#
# _framework density 21.266815999999999
#
# number of rings (size 3 to 8) (size 9 to 14) (size 15 to 20)
#    0.000    0.000    8.000    1.600    0.000    8.533 
#    0.000    5.333    0.000    0.000    0.000    0.000 
#    0.000    0.000    0.000    0.000    0.000    0.000 
#
# Total GULP energy -83700.915450 kJ/mol
# GULP energy per Si atom -5580.061030 kJ/mol
# Density = 2.121841 g / cm^3
# Si number density = 21.266816 Si / 1000 Ang^3
#
#
#
# Elastic Constant Matrix: (Units=GPa)
#
#
# Indices 1 2 3 4 5 6 
#
# 1 181.0523 50.8084 62.3760 0.0000 0.0000 0.0000
# 2 50.8084 148.0933 37.8231 0.0000 0.0000 0.0000
# 3 62.3760 37.8231 89.1914 0.0000 0.0000 0.0000
# 4 0.0000 0.0000 0.0000 2.4036 0.0000 0.0000
# 5 0.0000 0.0000 0.0000 0.0000 37.0355 0.0000
# 6 0.0000 0.0000 0.0000 0.0000 0.0000 37.3025
#
#
#
# Elastic Compliance Matrix: (Units=1/GPa)
#
#
# Indices 1 2 3 4 5 6 
#
# 1 0.007522 -0.001387 -0.004672 0.000000 0.000000 0.000000
# 2 -0.001387 0.007829 -0.002350 0.000000 0.000000 0.000000
# 3 -0.004672 -0.002350 0.015476 0.000000 0.000000 0.000000
# 4 0.000000 0.000000 0.000000 0.416050 0.000000 0.000000
# 5 0.000000 0.000000 0.000000 0.000000 0.027001 0.000000
# 6 0.000000 0.000000 0.000000 0.000000 0.000000 0.026808
#
#
# Mechanical properties :
#
#
# Convention : Reuss Voigt Hill
#
# Bulk Modulus (GPa) = 71.38761 80.03912 75.71336
# Shear Modulus (GPa) = 9.57535 33.17028 21.37281
#
# Velocity S-wave (km/s) = 2.12421 3.95361 3.17359
# Velocity P-wave (km/s) = 6.29737 7.65237 7.00770
#
# Compressibility (1/GPa) = 0.01400803
#
# Stress axis : x y z
#
# Youngs Moduli (GPa) = 132.93720 127.73703 64.61698
#
# Poissons Ratio (x) = 0.17723 0.30191
# Poissons Ratio (y) = 0.18445 0.15182
# Poissons Ratio (z) = 0.62113 0.30012
#
# Static dielectric constant tensor:
#      x y z
#    x 1.851320 0.000000 0.000000 
#    y 0.000000 1.870660 0.000000 
#    z 0.000000 0.000000 1.781110 
# 
# From -- ./inp_files/26442.got.cif
#   From: 2010.05.17/outbox.cif.g08.bks.cpg/sg21_14_cif.got.tgz:26442.got - 2010.06.03 23:14:55.
