data_PCOD9325817
_publ_section_title
;
Structure prediction by ZEFSAII (Michael W. Deem and Ramdas Pophale) SiO2 
 PCOD9325817
Probable space group: C 2 2 2
;
_chemical_formula_sum "Si O2"
_cell_formula_units_Z 32
_cell_length_a 27.614319
_cell_length_b 5.191881
_cell_length_c 9.048224
_cell_angle_alpha 90.000000
_cell_angle_beta 90.000000
_cell_angle_gamma 90.000000
_cell_volume 1297.246211
_symmetry_space_group_name_H-M "C 2 2 2"
_symmetry_group_IT_number 21
_symmetry_cell_setting 'orthorhombic'
loop_
_space_group_symop_operation_xyz
x,y,z
-x,-y,z
x,-y,-z
-x,y,-z
1/2+x,1/2+y,z
1/2-x,1/2-y,z
1/2+x,1/2-y,-z
1/2-x,1/2+y,-z
loop_
_atom_site_type_symbol
_atom_site_label
_atom_site_fract_x
_atom_site_fract_y
_atom_site_fract_z
Si Si1 0.500000 0.500000 0.000000
Si Si2 0.877786 0.500000 0.000000
Si Si3 0.750000 0.750000 0.239887
Si Si4 0.342991 0.247180 0.411070
Si Si5 0.065501 0.285506 0.241401
Si Si6 0.500000 0.000000 0.500000
Si Si7 0.189854 0.000000 0.000000
O O1 0.534385 0.651168 0.114154
O O2 0.911155 0.519073 0.853383
O O3 0.843765 0.748975 0.999307
O O4 0.705088 0.855473 0.332229
O O5 0.774742 0.965906 0.138620
O O6 0.328238 0.500000 0.500000
O O7 0.385917 0.344797 0.303841
O O8 0.362811 0.000000 0.500000
O O9 0.032830 0.341087 0.384265
#
# Coordination Sequence:
#
# PCOD9325817 Si02
#       7
#     2   4   4   8   8   2   4
#     4  12  30  52  86 126 160 226 276 352 412 506
#     4  12  27  53  81 123 166 214 268 337 411 484
#     4  12  28  50  80 116 162 206 270 328 404 490
#     4  12  30  50  79 114 162 213 266 332 410 484
#     4  12  28  51  83 119 166 211 276 339 414 489
#     4  12  28  48  80 116 162 214 274 344 414 496
#     4  12  28  46  82 120 158 214 268 327 405 488
#
# _framework density 24.667636999999999
#
# number of rings (size 3 to 8) (size 9 to 14) (size 15 to 20)
#    0.000    0.000    3.750    3.750    7.000    2.000 
#    0.000    0.000    0.000    0.000    0.000    0.000 
#    0.000    0.000    0.000    0.000    0.000    0.000 
#
# Total GULP energy -89538.816822 kJ/mol
# GULP energy per Si atom -5596.176051 kJ/mol
# Density = 2.461149 g / cm^3
# Si number density = 24.667637 Si / 1000 Ang^3
#
#
#
# Elastic Constant Matrix: (Units=GPa)
#
#
# Indices 1 2 3 4 5 6 
#
# 1 193.1212 53.7094 91.8133 0.0000 0.0000 0.0000
# 2 53.7094 125.1979 52.6446 0.0000 0.0000 0.0000
# 3 91.8133 52.6446 175.1124 0.0000 0.0000 0.0000
# 4 0.0000 0.0000 0.0000 32.3513 0.0000 0.0000
# 5 0.0000 0.0000 0.0000 0.0000 128.8769 0.0000
# 6 0.0000 0.0000 0.0000 0.0000 0.0000 29.1175
#
#
#
# Elastic Compliance Matrix: (Units=1/GPa)
#
#
# Indices 1 2 3 4 5 6 
#
# 1 0.007207 -0.001720 -0.003262 0.000000 0.000000 0.000000
# 2 -0.001720 0.009554 -0.001970 0.000000 0.000000 0.000000
# 3 -0.003262 -0.001970 0.008013 0.000000 0.000000 0.000000
# 4 0.000000 0.000000 0.000000 0.030911 0.000000 0.000000
# 5 0.000000 0.000000 0.000000 0.000000 0.007759 0.000000
# 6 0.000000 0.000000 0.000000 0.000000 0.000000 0.034344
#
#
# Mechanical properties :
#
#
# Convention : Reuss Voigt Hill
#
# Bulk Modulus (GPa) = 91.99886 98.86290 95.43088
# Shear Modulus (GPa) = 43.35943 57.75343 50.55643
#
# Velocity S-wave (km/s) = 4.19710 4.84391 4.53206
# Velocity P-wave (km/s) = 7.80153 8.45279 8.13368
#
# Compressibility (1/GPa) = 0.01086970
#
# Stress axis : x y z
#
# Youngs Moduli (GPa) = 138.75060 104.67002 124.79700
#
# Poissons Ratio (x) = 0.18007 0.40704
# Poissons Ratio (y) = 0.23870 0.24587
# Poissons Ratio (z) = 0.45255 0.20622
#
# Static dielectric constant tensor:
#      x y z
#    x 1.951610 0.000000 0.000000 
#    y 0.000000 1.845890 0.000000 
#    z 0.000000 0.000000 2.061120 
# 
# From -- ./inp_files/19470.got.cif
#   From: 2010.05.17/outbox.cif.g08.bks.cpg/sg21_10_cif.got.tgz:19470.got - 2010.06.03 23:14:55.
