data_PCOD9325110
_publ_section_title
;
Structure prediction by ZEFSAII (Michael W. Deem and Ramdas Pophale) SiO2 
 PCOD9325110
Probable space group: C 2 2 2
;
_chemical_formula_sum "Si O2"
_cell_formula_units_Z 22
_cell_length_a 5.372386
_cell_length_b 16.915821
_cell_length_c 11.360642
_cell_angle_alpha 90.000000
_cell_angle_beta 90.000000
_cell_angle_gamma 90.000000
_cell_volume 1032.436058
_symmetry_space_group_name_H-M "C 2 2 2"
_symmetry_group_IT_number 21
_symmetry_cell_setting 'orthorhombic'
loop_
_space_group_symop_operation_xyz
x,y,z
-x,-y,z
x,-y,-z
-x,y,-z
1/2+x,1/2+y,z
1/2-x,1/2-y,z
1/2+x,1/2-y,-z
1/2-x,1/2+y,-z
loop_
_atom_site_type_symbol
_atom_site_label
_atom_site_fract_x
_atom_site_fract_y
_atom_site_fract_z
Si Si1 0.748268 0.845367 0.569835
Si Si2 0.640935 0.419506 0.184037
Si Si3 0.000000 0.500000 0.000000
Si Si4 0.500000 0.300948 0.000000
O O1 0.500000 0.868873 0.500000
O O2 0.750000 0.750000 0.579698
O O3 0.748149 0.882011 0.699256
O O4 0.000000 0.868383 0.500000
O O5 0.500000 0.500000 0.215439
O O6 0.471696 0.355862 0.115719
O O7 0.837633 0.445495 0.085239
O O8 0.750000 0.250000 0.015055
#
# Coordination Sequence:
#
# PCOD9325110 Si02
#       4
#     8   8   2   4
#     4  10  25  48  73 104 141 188 243 293 350 425
#     4  12  26  46  72 105 149 189 236 305 360 429
#     4  12  24  48  70 104 156 178 242 296 366 434
#     4  12  26  44  73 109 144 192 246 290 366 432
#
# _framework density 21.308827000000001
#
# number of rings (size 3 to 8) (size 9 to 14) (size 15 to 20)
#    0.000    0.727    3.636    2.182    5.091    5.091 
#    0.000    0.000    0.000    0.000    0.000    0.000 
#    0.000    0.000    0.000    0.000    0.000    0.000 
#
# Total GULP energy -61578.042365 kJ/mol
# GULP energy per Si atom -5598.003851 kJ/mol
# Density = 2.126033 g / cm^3
# Si number density = 21.308827 Si / 1000 Ang^3
#
#
#
# Elastic Constant Matrix: (Units=GPa)
#
#
# Indices 1 2 3 4 5 6 
#
# 1 125.5727 35.3172 66.5522 0.0000 0.0000 0.0000
# 2 35.3172 67.0209 45.4870 0.0000 0.0000 0.0000
# 3 66.5522 45.4870 191.0181 0.0000 0.0000 0.0000
# 4 0.0000 0.0000 0.0000 49.9840 0.0000 0.0000
# 5 0.0000 0.0000 0.0000 0.0000 21.8936 0.0000
# 6 0.0000 0.0000 0.0000 0.0000 0.0000 26.2352
#
#
#
# Elastic Compliance Matrix: (Units=1/GPa)
#
#
# Indices 1 2 3 4 5 6 
#
# 1 0.010456 -0.003623 -0.002780 0.000000 0.000000 0.000000
# 2 -0.003623 0.019052 -0.003275 0.000000 0.000000 0.000000
# 3 -0.002780 -0.003275 0.006984 0.000000 0.000000 0.000000
# 4 0.000000 0.000000 0.000000 0.020006 0.000000 0.000000
# 5 0.000000 0.000000 0.000000 0.000000 0.045675 0.000000
# 6 0.000000 0.000000 0.000000 0.000000 0.000000 0.038117
#
#
# Mechanical properties :
#
#
# Convention : Reuss Voigt Hill
#
# Bulk Modulus (GPa) = 58.35585 75.36941 66.86263
# Shear Modulus (GPa) = 30.23742 35.37292 32.80517
#
# Velocity S-wave (km/s) = 3.77106 4.07875 3.92792
# Velocity P-wave (km/s) = 6.81223 7.59134 7.21231
#
# Compressibility (1/GPa) = 0.01713624
#
# Stress axis : x y z
#
# Youngs Moduli (GPa) = 95.63944 52.48696 143.19370
#
# Poissons Ratio (x) = 0.19016 0.39811
# Poissons Ratio (y) = 0.34649 0.46891
# Poissons Ratio (z) = 0.26590 0.17188
#
# Static dielectric constant tensor:
#      x y z
#    x 1.804820 0.000000 0.000000 
#    y 0.000000 1.812820 0.000000 
#    z 0.000000 0.000000 1.749720 
# 
# From -- ./inp_files/20184.got.cif
#   From: 2010.05.17/outbox.cif.g08.bks.cpg/sg21_11_cif.got.tgz:20184.got - 2010.06.03 23:14:55.
