data_PCOD9325620
_publ_section_title
;
Structure prediction by ZEFSAII (Michael W. Deem and Ramdas Pophale) SiO2 
 PCOD9325620
Probable space group: C 2 2 2
;
_chemical_formula_sum "Si O2"
_cell_formula_units_Z 22
_cell_length_a 13.282731
_cell_length_b 5.896405
_cell_length_c 11.142122
_cell_angle_alpha 90.000000
_cell_angle_beta 90.000000
_cell_angle_gamma 90.000000
_cell_volume 872.655023
_symmetry_space_group_name_H-M "C 2 2 2"
_symmetry_group_IT_number 21
_symmetry_cell_setting 'orthorhombic'
loop_
_space_group_symop_operation_xyz
x,y,z
-x,-y,z
x,-y,-z
-x,y,-z
1/2+x,1/2+y,z
1/2-x,1/2-y,z
1/2+x,1/2-y,-z
1/2-x,1/2+y,-z
loop_
_atom_site_type_symbol
_atom_site_label
_atom_site_fract_x
_atom_site_fract_y
_atom_site_fract_z
Si Si1 0.104790 0.368365 0.833814
Si Si2 0.750000 0.250000 0.810304
Si Si3 0.619575 0.464231 0.365696
Si Si4 0.000000 0.000000 0.000000
O O1 0.192404 0.541580 0.873142
O O2 0.000000 0.500000 0.825392
O O3 0.135128 0.273645 0.702691
O O4 0.073249 0.159201 0.920128
O O5 0.666029 0.353786 0.723524
O O6 0.500000 0.500000 0.369698
O O7 0.659333 0.500000 0.500000
#
# Coordination Sequence:
#
# PCOD9325620 Si02
#       4
#     8   4   8   2
#     4  12  25  51  83 114 160 217 269 339 401 480
#     4  12  26  46  84 114 158 214 270 328 412 478
#     4  11  25  47  77 118 162 208 259 330 401 485
#     4  12  26  52  90 106 164 220 276 346 406 472
#
# _framework density 25.210422000000001
#
# number of rings (size 3 to 8) (size 9 to 14) (size 15 to 20)
#    0.000    0.364    5.455    1.636    5.091    0.000 
#    0.000    0.000  112.000    0.000    0.000    0.000 
#    0.000    0.000    0.000    0.000    0.000    0.000 
#
# Total GULP energy -61618.507186 kJ/mol
# GULP energy per Si atom -5601.682471 kJ/mol
# Density = 2.515304 g / cm^3
# Si number density = 25.210422 Si / 1000 Ang^3
#
#
#
# Elastic Constant Matrix: (Units=GPa)
#
#
# Indices 1 2 3 4 5 6 
#
# 1 139.3361 64.4073 55.3869 0.0000 0.0000 0.0000
# 2 64.4073 173.6780 99.5134 0.0000 0.0000 0.0000
# 3 55.3869 99.5134 192.0246 0.0000 0.0000 0.0000
# 4 0.0000 0.0000 0.0000 17.0051 0.0000 0.0000
# 5 0.0000 0.0000 0.0000 0.0000 6.5481 0.0000
# 6 0.0000 0.0000 0.0000 0.0000 0.0000 70.7448
#
#
#
# Elastic Compliance Matrix: (Units=1/GPa)
#
#
# Indices 1 2 3 4 5 6 
#
# 1 0.008856 -0.002589 -0.001212 0.000000 0.000000 0.000000
# 2 -0.002589 0.008947 -0.003890 0.000000 0.000000 0.000000
# 3 -0.001212 -0.003890 0.007573 0.000000 0.000000 0.000000
# 4 0.000000 0.000000 0.000000 0.058806 0.000000 0.000000
# 5 0.000000 0.000000 0.000000 0.000000 0.152717 0.000000
# 6 0.000000 0.000000 0.000000 0.000000 0.000000 0.014135
#
#
# Mechanical properties :
#
#
# Convention : Reuss Voigt Hill
#
# Bulk Modulus (GPa) = 100.07286 104.85044 102.46165
# Shear Modulus (GPa) = 18.53584 37.90834 28.22209
#
# Velocity S-wave (km/s) = 2.71448 3.88193 3.34946
# Velocity P-wave (km/s) = 7.04314 7.85958 7.46253
#
# Compressibility (1/GPa) = 0.00999272
#
# Stress axis : x y z
#
# Youngs Moduli (GPa) = 112.92063 111.77325 132.04682
#
# Poissons Ratio (x) = 0.28943 0.16009
# Poissons Ratio (y) = 0.29240 0.51361
# Poissons Ratio (z) = 0.13691 0.43475
#
# Static dielectric constant tensor:
#      x y z
#    x 1.974600 0.000000 0.000000 
#    y 0.000000 2.089770 0.000000 
#    z 0.000000 0.000000 1.984120 
# 
# From -- ./inp_files/20203.got.cif
#   From: 2010.05.17/outbox.cif.g08.bks.cpg/sg21_11_cif.got.tgz:20203.got - 2010.06.03 23:14:55.
