data_PCOD9325359
_publ_section_title
;
Structure prediction by ZEFSAII (Michael W. Deem and Ramdas Pophale) SiO2 
 PCOD9325359
Probable space group: C 2 2 2
;
_chemical_formula_sum "Si O2"
_cell_formula_units_Z 36
_cell_length_a 17.419929
_cell_length_b 5.339821
_cell_length_c 19.693774
_cell_angle_alpha 90.000000
_cell_angle_beta 90.000000
_cell_angle_gamma 90.000000
_cell_volume 1831.901125
_symmetry_space_group_name_H-M "C 2 2 2"
_symmetry_group_IT_number 21
_symmetry_cell_setting 'orthorhombic'
loop_
_space_group_symop_operation_xyz
x,y,z
-x,-y,z
x,-y,-z
-x,y,-z
1/2+x,1/2+y,z
1/2-x,1/2-y,z
1/2+x,1/2-y,-z
1/2-x,1/2+y,-z
loop_
_atom_site_type_symbol
_atom_site_label
_atom_site_fract_x
_atom_site_fract_y
_atom_site_fract_z
Si Si1 0.250000 0.750000 0.114108
Si Si2 0.843793 0.000000 0.000000
Si Si3 0.050277 0.250151 0.096438
Si Si4 0.802806 0.499529 0.647530
Si Si5 0.197381 0.500000 0.500000
Si Si6 0.832605 0.392353 0.793447
O O1 0.185383 0.635909 0.161870
O O2 0.290096 0.559687 0.063263
O O3 0.897100 0.220660 0.970871
O O4 0.102956 0.251524 0.164036
O O5 0.000000 0.500000 0.095570
O O6 0.000000 0.000000 0.097297
O O7 0.750000 0.250000 0.644896
O O8 0.843248 0.509308 0.573601
O O9 0.851349 0.465390 0.716127
O O10 0.750000 0.750000 0.655090
O O11 0.250000 0.750000 0.499801
O O12 0.750000 0.250000 0.792677
#
# Coordination Sequence:
#
# PCOD9325359 Si02
#       6
#     4   4   8   8   4   8
#     4  12  22  40  62  90 112 144 204 256 294 354
#     4  12  25  42  64  84 113 156 196 256 303 354
#     4  12  28  45  61  85 119 155 198 248 303 357
#     4   9  17  29  53  81 117 149 183 229 284 338
#     4   8  14  26  44  80 117 148 175 220 284 338
#     4  11  22  40  61  86 115 154 197 242 291 351
#
# _framework density 19.651716
#
# number of rings (size 3 to 8) (size 9 to 14) (size 15 to 20)
#    0.000    1.333    3.333    3.000    0.000    5.333 
#    0.000    0.000    0.000    0.000    0.000    0.778 
#    0.000    5.333    0.000    0.000    0.000    0.000 
#
# Total GULP energy -100410.708870 kJ/mol
# GULP energy per Si atom -5578.372715 kJ/mol
# Density = 1.960699 g / cm^3
# Si number density = 19.651716 Si / 1000 Ang^3
#
#
#
# Elastic Constant Matrix: (Units=GPa)
#
#
# Indices 1 2 3 4 5 6 
#
# 1 44.8213 21.1305 25.0709 0.0000 0.0000 0.0000
# 2 21.1305 108.3620 15.7051 0.0000 0.0000 0.0000
# 3 25.0709 15.7051 197.8159 0.0000 0.0000 0.0000
# 4 0.0000 0.0000 0.0000 27.5464 0.0000 0.0000
# 5 0.0000 0.0000 0.0000 0.0000 5.9164 0.0000
# 6 0.0000 0.0000 0.0000 0.0000 0.0000 21.9076
#
#
#
# Elastic Compliance Matrix: (Units=1/GPa)
#
#
# Indices 1 2 3 4 5 6 
#
# 1 0.026162 -0.004675 -0.002945 0.000000 0.000000 0.000000
# 2 -0.004675 0.010171 -0.000215 0.000000 0.000000 0.000000
# 3 -0.002945 -0.000215 0.005445 0.000000 0.000000 0.000000
# 4 0.000000 0.000000 0.000000 0.036302 0.000000 0.000000
# 5 0.000000 0.000000 0.000000 0.000000 0.169020 0.000000
# 6 0.000000 0.000000 0.000000 0.000000 0.000000 0.045646
#
#
# Mechanical properties :
#
#
# Convention : Reuss Voigt Hill
#
# Bulk Modulus (GPa) = 38.30015 52.75690 45.52852
# Shear Modulus (GPa) = 15.76695 30.34694 23.05694
#
# Velocity S-wave (km/s) = 2.83560 3.93394 3.42903
# Velocity P-wave (km/s) = 5.50024 6.89484 6.23664
#
# Compressibility (1/GPa) = 0.02610956
#
# Stress axis : x y z
#
# Youngs Moduli (GPa) = 38.22378 98.31810 183.63892
#
# Poissons Ratio (x) = 0.45961 0.54074
# Poissons Ratio (y) = 0.17869 0.03949
# Poissons Ratio (z) = 0.11255 0.02114
#
# Static dielectric constant tensor:
#      x y z
#    x 1.677150 0.000000 0.000000 
#    y 0.000000 1.748150 0.000000 
#    z 0.000000 0.000000 1.737480 
# 
# From -- ./inp_files/37633.got.cif
#   From: 2010.05.17/outbox.cif.g08.bks.cpg/sg21_19_cif.got.tgz:37633.got - 2010.06.03 23:14:55.
