data_PCOD9325362
_publ_section_title
;
Structure prediction by ZEFSAII (Michael W. Deem and Ramdas Pophale) SiO2 
 PCOD9325362
Probable space group: C 2 2 2
;
_chemical_formula_sum "Si O2"
_cell_formula_units_Z 58
_cell_length_a 27.656645
_cell_length_b 10.475085
_cell_length_c 9.520767
_cell_angle_alpha 90.000000
_cell_angle_beta 90.000000
_cell_angle_gamma 90.000000
_cell_volume 2758.220537
_symmetry_space_group_name_H-M "C 2 2 2"
_symmetry_group_IT_number 21
_symmetry_cell_setting 'orthorhombic'
loop_
_space_group_symop_operation_xyz
x,y,z
-x,-y,z
x,-y,-z
-x,y,-z
1/2+x,1/2+y,z
1/2-x,1/2-y,z
1/2+x,1/2-y,-z
1/2-x,1/2+y,-z
loop_
_atom_site_type_symbol
_atom_site_label
_atom_site_fract_x
_atom_site_fract_y
_atom_site_fract_z
Si Si1 0.510331 0.849238 0.160222
Si Si2 0.358424 0.313448 0.898691
Si Si3 0.378483 0.776758 0.795185
Si Si4 0.564793 0.686754 0.683104
Si Si5 0.000000 0.000000 0.500000
Si Si6 0.225858 0.117455 0.722141
Si Si7 0.682057 0.029099 0.159309
Si Si8 0.351997 0.352488 0.491853
O O1 0.563845 0.802729 0.204149
O O2 0.471667 0.793938 0.267892
O O3 0.500000 0.000000 0.158652
O O4 0.500000 0.804433 0.000000
O O5 0.407350 0.358084 0.823058
O O6 0.316375 0.402703 0.835795
O O7 0.344865 0.167032 0.848210
O O8 0.364735 0.299715 0.063656
O O9 0.356418 0.701382 0.663270
O O10 0.354540 0.916850 0.802422
O O11 0.533372 0.584550 0.600375
O O12 0.609148 0.726144 0.582641
O O13 0.250000 0.250000 0.765936
O O14 0.271514 0.025189 0.737442
O O15 0.199283 0.141572 0.573515
O O16 0.699411 0.000000 0.000000
O O17 0.367860 0.500000 0.500000
#
# Coordination Sequence:
#
# PCOD9325362 Si02
#       8
#     8   8   8   8   2   8   8   8
#     4  11  23  40  71 106 137 169 223 288 355 417
#     4   9  19  39  67  95 134 166 220 282 341 400
#     4  11  22  40  66 103 132 175 228 287 344 411
#     4  11  22  44  64  91 134 184 217 278 333 410
#     4  12  24  40  68  84 140 184 234 262 332 396
#     4   9  20  40  62  91 128 177 215 271 343 406
#     4   9  19  37  69 100 130 168 220 285 349 405
#     4  11  25  43  61  86 136 179 225 281 335 394
#
# _framework density 21.028051000000001
#
# number of rings (size 3 to 8) (size 9 to 14) (size 15 to 20)
#    0.000    1.793    2.069    1.655    3.862    2.207 
#    0.000   21.379    0.000    0.000    0.000    0.000 
#    0.000    0.000    0.000    0.000    0.000    0.000 
#
# Total GULP energy -161781.589625 kJ/mol
# GULP energy per Si atom -5578.675504 kJ/mol
# Density = 2.098019 g / cm^3
# Si number density = 21.028051 Si / 1000 Ang^3
#
#
#
# Elastic Constant Matrix: (Units=GPa)
#
#
# Indices 1 2 3 4 5 6 
#
# 1 129.0300 15.0690 51.4275 0.0000 0.0000 0.0000
# 2 15.0690 35.3207 28.0161 0.0000 0.0000 0.0000
# 3 51.4275 28.0161 138.3041 0.0000 0.0000 0.0000
# 4 0.0000 0.0000 0.0000 47.0698 0.0000 0.0000
# 5 0.0000 0.0000 0.0000 0.0000 78.2296 0.0000
# 6 0.0000 0.0000 0.0000 0.0000 0.0000 40.1817
#
#
#
# Elastic Compliance Matrix: (Units=1/GPa)
#
#
# Indices 1 2 3 4 5 6 
#
# 1 0.009159 -0.001437 -0.003115 0.000000 0.000000 0.000000
# 2 -0.001437 0.033957 -0.006344 0.000000 0.000000 0.000000
# 3 -0.003115 -0.006344 0.009674 0.000000 0.000000 0.000000
# 4 0.000000 0.000000 0.000000 0.021245 0.000000 0.000000
# 5 0.000000 0.000000 0.000000 0.000000 0.012783 0.000000
# 6 0.000000 0.000000 0.000000 0.000000 0.000000 0.024887
#
#
# Mechanical properties :
#
#
# Convention : Reuss Voigt Hill
#
# Bulk Modulus (GPa) = 32.25994 54.63110 43.44552
# Shear Modulus (GPa) = 34.76313 46.97236 40.86774
#
# Velocity S-wave (km/s) = 4.07034 4.73143 4.41328
# Velocity P-wave (km/s) = 6.12086 7.47563 6.83191
#
# Compressibility (1/GPa) = 0.03099820
#
# Stress axis : x y z
#
# Youngs Moduli (GPa) = 109.17725 29.44872 103.37198
#
# Poissons Ratio (x) = 0.04232 0.32198
# Poissons Ratio (y) = 0.15690 0.65582
# Poissons Ratio (z) = 0.34006 0.18683
#
# Static dielectric constant tensor:
#      x y z
#    x 1.787020 0.000000 0.000000 
#    y 0.000000 1.672650 0.000000 
#    z 0.000000 0.000000 1.777600 
# 
# From -- ./inp_files/19173.got.cif
#   From: 2010.05.17/outbox.cif.g08.bks.cpg/sg21_10_cif.got.tgz:19173.got - 2010.06.03 23:14:55.
