data_PCOD9325797
_publ_section_title
;
Structure prediction by ZEFSAII (Michael W. Deem and Ramdas Pophale) SiO2 
 PCOD9325797
Probable space group: C 2 2 2
;
_chemical_formula_sum "Si O2"
_cell_formula_units_Z 32
_cell_length_a 13.855760
_cell_length_b 15.847847
_cell_length_c 6.228935
_cell_angle_alpha 90.000000
_cell_angle_beta 90.000000
_cell_angle_gamma 90.000000
_cell_volume 1367.774242
_symmetry_space_group_name_H-M "C 2 2 2"
_symmetry_group_IT_number 21
_symmetry_cell_setting 'orthorhombic'
loop_
_space_group_symop_operation_xyz
x,y,z
-x,-y,z
x,-y,-z
-x,y,-z
1/2+x,1/2+y,z
1/2-x,1/2-y,z
1/2+x,1/2-y,-z
1/2-x,1/2+y,-z
loop_
_atom_site_type_symbol
_atom_site_label
_atom_site_fract_x
_atom_site_fract_y
_atom_site_fract_z
Si Si1 0.338684 0.887443 0.712043
Si Si2 0.250000 0.250000 0.953852
Si Si3 0.500000 0.000000 0.500000
Si Si4 0.858059 0.934022 0.325800
Si Si5 0.000000 0.000000 0.000000
Si Si6 0.113037 0.237196 0.567084
O O1 0.252317 0.954536 0.724550
O O2 0.340128 0.824671 0.507947
O O3 0.435046 0.941794 0.661626
O O4 0.305646 0.822200 0.903865
O O5 0.161121 0.218952 0.799575
O O6 0.859080 0.841321 0.420137
O O7 0.893018 0.000000 0.500000
O O8 0.930134 0.940726 0.132702
O O9 0.000000 0.247211 0.500000
#
# Coordination Sequence:
#
# PCOD9325797 Si02
#       6
#     8   4   2   8   2   8
#     4  12  26  50  84 114 164 216 270 343 408 501
#     4  12  26  50  84 120 152 226 272 328 424 502
#     4  12  28  60  78 130 176 220 272 354 428 474
#     4  12  26  48  73 114 158 205 263 350 405 483
#     4  12  30  44  76 116 148 214 270 324 424 492
#     4  12  26  49  78 113 159 202 273 344 406 481
#
# _framework density 23.395674
#
# number of rings (size 3 to 8) (size 9 to 14) (size 15 to 20)
#    0.000    0.000    7.500    1.875    7.000    1.000 
#    0.000    1.250    0.000    0.000    0.000    0.000 
#    0.000    0.000    0.000    0.000    0.000    0.000 
#
# Total GULP energy -89117.423276 kJ/mol
# GULP energy per Si atom -5569.838955 kJ/mol
# Density = 2.334242 g / cm^3
# Si number density = 23.395674 Si / 1000 Ang^3
#
#
#
# Elastic Constant Matrix: (Units=GPa)
#
#
# Indices 1 2 3 4 5 6 
#
# 1 222.3050 54.4256 78.7209 0.0000 0.0000 0.0000
# 2 54.4256 96.5408 36.3482 0.0000 0.0000 0.0000
# 3 78.7209 36.3482 108.0577 0.0000 0.0000 0.0000
# 4 0.0000 0.0000 0.0000 23.8671 0.0000 0.0000
# 5 0.0000 0.0000 0.0000 0.0000 50.1213 0.0000
# 6 0.0000 0.0000 0.0000 0.0000 0.0000 45.9317
#
#
#
# Elastic Compliance Matrix: (Units=1/GPa)
#
#
# Indices 1 2 3 4 5 6 
#
# 1 0.006423 -0.002129 -0.003963 0.000000 0.000000 0.000000
# 2 -0.002129 0.012566 -0.002676 0.000000 0.000000 0.000000
# 3 -0.003963 -0.002676 0.013042 0.000000 0.000000 0.000000
# 4 0.000000 0.000000 0.000000 0.041899 0.000000 0.000000
# 5 0.000000 0.000000 0.000000 0.000000 0.019952 0.000000
# 6 0.000000 0.000000 0.000000 0.000000 0.000000 0.021771
#
#
# Mechanical properties :
#
#
# Convention : Reuss Voigt Hill
#
# Bulk Modulus (GPa) = 68.99101 85.09919 77.04510
# Shear Modulus (GPa) = 36.22678 41.14463 38.68570
#
# Velocity S-wave (km/s) = 3.93929 4.19817 4.07079
# Velocity P-wave (km/s) = 7.08826 7.74289 7.42280
#
# Compressibility (1/GPa) = 0.01449464
#
# Stress axis : x y z
#
# Youngs Moduli (GPa) = 155.69365 79.57971 76.67791
#
# Poissons Ratio (x) = 0.16941 0.30388
# Poissons Ratio (y) = 0.33145 0.20519
# Poissons Ratio (z) = 0.61702 0.21296
#
# Static dielectric constant tensor:
#      x y z
#    x 2.054410 0.000000 0.000000 
#    y 0.000000 1.861490 0.000000 
#    z 0.000000 0.000000 1.916560 
# 
# From -- ./inp_files/3489.got.cif
#   From: 2010.05.17/outbox.cif.g08.bks.cpg/sg21_2_cif.got.tgz:3489.got - 2010.06.03 23:14:55.
