data_PCOD9325526
_publ_section_title
;
Structure prediction by ZEFSAII (Michael W. Deem and Ramdas Pophale) SiO2 
 PCOD9325526
Probable space group: C 2 2 2
;
_chemical_formula_sum "Si O2"
_cell_formula_units_Z 40
_cell_length_a 10.973382
_cell_length_b 8.893169
_cell_length_c 18.641510
_cell_angle_alpha 90.000000
_cell_angle_beta 90.000000
_cell_angle_gamma 90.000000
_cell_volume 1819.190299
_symmetry_space_group_name_H-M "C 2 2 2"
_symmetry_group_IT_number 21
_symmetry_cell_setting 'orthorhombic'
loop_
_space_group_symop_operation_xyz
x,y,z
-x,-y,z
x,-y,-z
-x,y,-z
1/2+x,1/2+y,z
1/2-x,1/2-y,z
1/2+x,1/2-y,-z
1/2-x,1/2+y,-z
loop_
_atom_site_type_symbol
_atom_site_label
_atom_site_fract_x
_atom_site_fract_y
_atom_site_fract_z
Si Si1 0.413103 0.293913 0.683501
Si Si2 0.865233 0.429902 0.194513
Si Si3 0.314839 0.398683 0.294950
Si Si4 0.122553 0.667590 0.467417
Si Si5 0.128428 0.666844 0.029909
O O1 0.363847 0.206706 0.751064
O O2 0.336302 0.443905 0.663183
O O3 0.546588 0.343222 0.709867
O O4 0.407707 0.180956 0.616897
O O5 0.762568 0.548494 0.224084
O O6 0.860035 0.360987 0.115059
O O7 0.000000 0.500000 0.201016
O O8 0.250000 0.250000 0.326541
O O9 0.130234 0.500000 0.500000
O O10 0.250000 0.750000 0.482143
O O11 0.000000 0.741922 0.500000
O O12 0.250000 0.750000 0.004569
O O13 0.131076 0.500000 0.000000
O O14 0.000000 0.734119 0.000000
#
# Coordination Sequence:
#
# PCOD9325526 Si02
#       5
#     8   8   8   8   8
#     4  11  26  46  71 107 143 185 245 304 369 444
#     4  12  23  44  75 105 145 188 242 312 374 435
#     4  11  24  42  72 106 140 185 235 303 370 432
#     4  11  28  49  74 106 147 195 246 301 376 445
#     4  11  25  46  69 103 150 199 247 302 366 442
#
# _framework density 21.987801999999999
#
# number of rings (size 3 to 8) (size 9 to 14) (size 15 to 20)
#    0.000    0.800    4.000    3.000    2.800   12.000 
#    0.000    0.000    0.000    0.000    0.000    0.000 
#    0.000    0.000    0.000    0.000    0.000    0.000 
#
# Total GULP energy -111488.544592 kJ/mol
# GULP energy per Si atom -5574.427230 kJ/mol
# Density = 2.193776 g / cm^3
# Si number density = 21.987802 Si / 1000 Ang^3
#
#
#
# Elastic Constant Matrix: (Units=GPa)
#
#
# Indices 1 2 3 4 5 6 
#
# 1 226.9273 47.6195 37.1139 0.0000 0.0000 0.0000
# 2 47.6195 97.9126 31.6282 0.0000 0.0000 0.0000
# 3 37.1139 31.6282 137.3259 0.0000 0.0000 0.0000
# 4 0.0000 0.0000 0.0000 -124.8459 0.0000 0.0000
# 5 0.0000 0.0000 0.0000 0.0000 19.5943 0.0000
# 6 0.0000 0.0000 0.0000 0.0000 0.0000 51.8303
#
#
#
# Elastic Compliance Matrix: (Units=1/GPa)
#
#
# Indices 1 2 3 4 5 6 
#
# 1 0.004999 -0.002155 -0.000855 0.000000 0.000000 0.000000
# 2 -0.002155 0.011963 -0.002173 0.000000 0.000000 0.000000
# 3 -0.000855 -0.002173 0.008013 0.000000 0.000000 0.000000
# 4 0.000000 0.000000 0.000000 -0.008010 0.000000 0.000000
# 5 0.000000 0.000000 0.000000 0.000000 0.051035 0.000000
# 6 0.000000 0.000000 0.000000 0.000000 0.000000 0.019294
#
#
# Mechanical properties :
#
#
# Convention : Reuss Voigt Hill
#
# Bulk Modulus (GPa) = 68.44543 77.20989 72.82766
# Shear Modulus (GPa) = 48.76647 12.36934 30.56790
#
# Velocity S-wave (km/s) = 4.71455 2.37440 3.73261
# Velocity P-wave (km/s) = 7.79951 6.53514 7.19516
#
# Compressibility (1/GPa) = 0.01461018
#
# Stress axis : x y z
#
# Youngs Moduli (GPa) = 200.05227 83.58983 124.79153
#
# Poissons Ratio (x) = 0.18014 0.10665
# Poissons Ratio (y) = 0.43112 0.27116
# Poissons Ratio (z) = 0.17097 0.18163
#
# Static dielectric constant tensor:
#      x y z
#    x 2.671760 0.000000 0.000000 
#    y 0.000000 1.828850 0.000000 
#    z 0.000000 0.000000 2.617490 
# 
# From -- ./inp_files/36054.got.cif
#   From: 2010.05.17/outbox.cif.g08.bks.cpg/sg21_19_cif.got.tgz:36054.got - 2010.06.03 23:14:55.
