data_PCOD9325965
_publ_section_title
;
Structure prediction by ZEFSAII (Michael W. Deem and Ramdas Pophale) SiO2 
 PCOD9325965
Probable space group: F 2 2 2
;
_chemical_formula_sum "Si O2"
_cell_formula_units_Z 104
_cell_length_a 18.459302
_cell_length_b 25.010480
_cell_length_c 11.745423
_cell_angle_alpha 90.000000
_cell_angle_beta 90.000000
_cell_angle_gamma 90.000000
_cell_volume 5422.579950
_symmetry_space_group_name_H-M "F 2 2 2"
_symmetry_group_IT_number 22
_symmetry_cell_setting 'orthorhombic'
loop_
_space_group_symop_operation_xyz
x,y,z
-x,-y,z
x,-y,-z
-x,y,-z
x,1/2+y,1/2+z
-x,1/2-y,1/2+z
x,1/2-y,1/2-z
-x,1/2+y,1/2-z
1/2+x,y,1/2+z
1/2-x,-y,1/2+z
1/2+x,-y,1/2-z
1/2-x,y,1/2-z
1/2+x,1/2+y,z
1/2-x,1/2-y,z
1/2+x,1/2-y,-z
1/2-x,1/2+y,-z
loop_
_atom_site_type_symbol
_atom_site_label
_atom_site_fract_x
_atom_site_fract_y
_atom_site_fract_z
Si Si1 0.001305 0.377684 0.125980
Si Si2 0.573084 0.033421 0.253936
Si Si3 0.283006 0.063217 0.505912
Si Si4 0.418095 0.614828 0.039217
Si Si5 0.250000 0.381692 0.750000
Si Si6 0.893912 0.187766 0.229250
Si Si7 0.863618 0.956162 0.397500
O O1 0.077020 0.410250 0.128414
O O2 0.945325 0.426135 0.150842
O O3 0.968393 0.334118 0.212315
O O4 0.000000 0.354655 0.000000
O O5 0.586855 0.069752 0.361907
O O6 0.500000 0.000000 0.274509
O O7 0.635226 0.993756 0.214025
O O8 0.352163 0.096459 0.460753
O O9 0.262535 0.084294 0.633894
O O10 0.211730 0.069831 0.430236
O O11 0.299346 0.000000 0.500000
O O12 0.401479 0.671278 0.097321
O O13 0.500000 0.613383 0.000000
O O14 0.178154 0.344941 0.768145
O O15 0.885024 0.250000 0.250000
O O16 0.879629 0.000000 0.500000
#
# Coordination Sequence:
#
# PCOD9325965 Si02
#       7
#    16  16  16  16   8  16  16
#     4  10  17  30  53  84 111 144 181 237 298 356
#     4   9  19  30  54  76 112 160 194 226 288 360
#     4  10  23  33  56  85 122 159 197 242 289 372
#     4  10  23  40  56  81 121 161 207 243 300 377
#     4  10  21  42  56  86 120 156 195 250 314 362
#     4  10  22  39  62  84 108 151 206 263 309 351
#     4  10  18  31  52  85 123 150 187 239 292 352
#
# _framework density 19.179062999999999
#
# number of rings (size 3 to 8) (size 9 to 14) (size 15 to 20)
#    0.000    2.154    1.538    1.154   12.923    0.615 
#    0.000    0.000    0.000    0.000    0.000    1.077 
#    0.000    0.000    0.000    0.000    0.000    0.000 
#
# Total GULP energy -144754.458664 kJ/mol
# GULP energy per Si atom -5567.479179 kJ/mol
# Density = 1.913541 g / cm^3
# Si number density = 19.179063 Si / 1000 Ang^3
#
#
#
# Elastic Constant Matrix: (Units=GPa)
#
#
# Indices 1 2 3 4 5 6 
#
# 1 149.3407 61.8366 29.1300 0.0000 0.0000 0.0000
# 2 61.8366 106.5443 20.8529 0.0000 0.0000 0.0000
# 3 29.1300 20.8529 26.0356 0.0000 0.0000 0.0000
# 4 0.0000 0.0000 0.0000 15.1502 0.0000 0.0000
# 5 0.0000 0.0000 0.0000 0.0000 30.2142 0.0000
# 6 0.0000 0.0000 0.0000 0.0000 0.0000 19.9981
#
#
#
# Elastic Compliance Matrix: (Units=1/GPa)
#
#
# Indices 1 2 3 4 5 6 
#
# 1 0.009975 -0.004275 -0.007737 0.000000 0.000000 0.000000
# 2 -0.004275 0.012963 -0.005599 0.000000 0.000000 0.000000
# 3 -0.007737 -0.005599 0.051550 0.000000 0.000000 0.000000
# 4 0.000000 0.000000 0.000000 0.066006 0.000000 0.000000
# 5 0.000000 0.000000 0.000000 0.000000 0.033097 0.000000
# 6 0.000000 0.000000 0.000000 0.000000 0.000000 0.050005
#
#
# Mechanical properties :
#
#
# Convention : Reuss Voigt Hill
#
# Bulk Modulus (GPa) = 25.46740 56.17329 40.82035
# Shear Modulus (GPa) = 18.38863 24.41257 21.40060
#
# Velocity S-wave (km/s) = 3.09979 3.57161 3.34403
# Velocity P-wave (km/s) = 5.11069 6.80889 6.01997
#
# Compressibility (1/GPa) = 0.03926588
#
# Stress axis : x y z
#
# Youngs Moduli (GPa) = 100.24570 77.14285 19.39869
#
# Poissons Ratio (x) = 0.32981 0.15008
# Poissons Ratio (y) = 0.42859 0.10861
# Poissons Ratio (z) = 0.77558 0.43193
#
# Static dielectric constant tensor:
#      x y z
#    x 1.762890 0.000000 0.000000 
#    y 0.000000 1.656050 0.000000 
#    z 0.000000 0.000000 1.743580 
# 
# From -- ./inp_files/30953.got.cif
#   From: 2010.05.17/outbox.cif.g08.bks.cpg/sg22_16_cif.got.tgz:30953.got - 2010.06.03 23:40:54.
