data_PCOD9325800
_publ_section_title
;
Structure prediction by ZEFSAII (Michael W. Deem and Ramdas Pophale) SiO2 
 PCOD9325800
Probable space group: C 2 2 2
;
_chemical_formula_sum "Si O2"
_cell_formula_units_Z 26
_cell_length_a 5.278547
_cell_length_b 8.394385
_cell_length_c 24.326591
_cell_angle_alpha 90.000000
_cell_angle_beta 90.000000
_cell_angle_gamma 90.000000
_cell_volume 1077.915036
_symmetry_space_group_name_H-M "C 2 2 2"
_symmetry_group_IT_number 21
_symmetry_cell_setting 'orthorhombic'
loop_
_space_group_symop_operation_xyz
x,y,z
-x,-y,z
x,-y,-z
-x,y,-z
1/2+x,1/2+y,z
1/2-x,1/2-y,z
1/2+x,1/2-y,-z
1/2-x,1/2+y,-z
loop_
_atom_site_type_symbol
_atom_site_label
_atom_site_fract_x
_atom_site_fract_y
_atom_site_fract_z
Si Si1 0.250000 0.250000 0.921423
Si Si2 0.000000 0.000000 0.226913
Si Si3 0.250000 0.250000 0.463203
Si Si4 0.750000 0.750000 0.692085
Si Si5 0.750000 0.750000 0.151751
Si Si6 0.500000 0.500000 0.000000
Si Si7 0.500000 0.000000 0.388739
O O1 0.498497 0.224277 0.884339
O O2 0.322967 0.394822 0.961011
O O3 0.100083 0.864207 0.267119
O O4 0.801730 0.907078 0.188347
O O5 0.500000 0.267687 0.500000
O O6 0.202575 0.408301 0.426772
O O7 0.902393 0.636969 0.651306
#
# Coordination Sequence:
#
# PCOD9325800 Si02
#       7
#     4   4   4   4   4   2   4
#     4  12  30  52  80 115 155 204 256 316 382 454
#     4  12  27  48  78 113 153 200 254 315 380 454
#     4  12  29  51  80 115 155 204 257 317 382 454
#     4  12  26  48  76 111 151 200 252 312 380 452
#     4  12  29  51  80 115 155 202 255 317 382 454
#     4  12  30  52  80 114 156 204 256 316 380 456
#     4  12  27  48  78 112 154 202 254 315 380 454
#
# _framework density 24.120642
#
# number of rings (size 3 to 8) (size 9 to 14) (size 15 to 20)
#    0.000    0.000    0.000    7.846    0.000   24.000 
#    0.000    0.000    0.000    0.000    0.000    0.000 
#    0.000    0.000    0.000    0.000    0.000    0.000 
#
# Total GULP energy -72988.022889 kJ/mol
# GULP energy per Si atom -5614.463299 kJ/mol
# Density = 2.406574 g / cm^3
# Si number density = 24.120642 Si / 1000 Ang^3
#
#
#
# Elastic Constant Matrix: (Units=GPa)
#
#
# Indices 1 2 3 4 5 6 
#
# 1 194.4303 99.9088 128.8728 0.0000 0.0000 0.0000
# 2 99.9088 204.9418 114.2233 0.0000 0.0000 0.0000
# 3 128.8728 114.2233 200.3692 0.0000 0.0000 0.0000
# 4 0.0000 0.0000 0.0000 63.7684 0.0000 0.0000
# 5 0.0000 0.0000 0.0000 0.0000 36.6299 0.0000
# 6 0.0000 0.0000 0.0000 0.0000 0.0000 64.9967
#
#
#
# Elastic Compliance Matrix: (Units=1/GPa)
#
#
# Indices 1 2 3 4 5 6 
#
# 1 0.009386 -0.001775 -0.005025 0.000000 0.000000 0.000000
# 2 -0.001775 0.007487 -0.003127 0.000000 0.000000 0.000000
# 3 -0.005025 -0.003127 0.010005 0.000000 0.000000 0.000000
# 4 0.000000 0.000000 0.000000 0.015682 0.000000 0.000000
# 5 0.000000 0.000000 0.000000 0.000000 0.027300 0.000000
# 6 0.000000 0.000000 0.000000 0.000000 0.000000 0.015385
#
#
# Mechanical properties :
#
#
# Convention : Reuss Voigt Hill
#
# Bulk Modulus (GPa) = 142.34415 142.86125 142.60270
# Shear Modulus (GPa) = 46.53727 50.19475 48.36601
#
# Velocity S-wave (km/s) = 4.39721 4.56673 4.48277
# Velocity P-wave (km/s) = 9.21532 9.33612 9.27592
#
# Compressibility (1/GPa) = 0.00702523
#
# Stress axis : x y z
#
# Youngs Moduli (GPa) = 106.54162 133.55836 99.94875
#
# Poissons Ratio (x) = 0.23707 0.50224
# Poissons Ratio (y) = 0.18911 0.31250
# Poissons Ratio (z) = 0.53537 0.41759
#
# Static dielectric constant tensor:
#      x y z
#    x 1.896110 0.000000 0.000000 
#    y 0.000000 1.857990 0.000000 
#    z 0.000000 0.000000 1.919950 
# 
# From -- ./inp_files/38051.got.cif
#   From: 2010.05.17/outbox.cif.g08.bks.cpg/sg21_20_cif.got.tgz:38051.got - 2010.06.03 23:14:55.
