data_PCOD9325087
_publ_section_title
;
Structure prediction by ZEFSAII (Michael W. Deem and Ramdas Pophale) SiO2 
 PCOD9325087
Probable space group: C 2 2 2
;
_chemical_formula_sum "Si O2"
_cell_formula_units_Z 32
_cell_length_a 8.288913
_cell_length_b 14.426126
_cell_length_c 11.105064
_cell_angle_alpha 90.000000
_cell_angle_beta 90.000000
_cell_angle_gamma 90.000000
_cell_volume 1327.909165
_symmetry_space_group_name_H-M "C 2 2 2"
_symmetry_group_IT_number 21
_symmetry_cell_setting 'orthorhombic'
loop_
_space_group_symop_operation_xyz
x,y,z
-x,-y,z
x,-y,-z
-x,y,-z
1/2+x,1/2+y,z
1/2-x,1/2-y,z
1/2+x,1/2-y,-z
1/2-x,1/2+y,-z
loop_
_atom_site_type_symbol
_atom_site_label
_atom_site_fract_x
_atom_site_fract_y
_atom_site_fract_z
Si Si1 0.626693 0.677862 0.900998
Si Si2 0.500000 0.724446 0.500000
Si Si3 0.408531 0.805288 0.743411
Si Si4 0.343135 0.568848 0.335809
Si Si5 0.000000 0.500000 0.302098
O O1 0.750000 0.750000 0.963213
O O2 0.547143 0.750650 0.809407
O O3 0.674570 0.598420 0.805509
O O4 0.500000 0.643333 0.000000
O O5 0.423208 0.790003 0.600418
O O6 0.385620 0.654828 0.423464
O O7 0.250000 0.750000 0.776909
O O8 0.430100 0.912472 0.771391
O O9 0.500000 0.500000 0.345157
O O10 0.164652 0.532275 0.368343
#
# Coordination Sequence:
#
# PCOD9325087 Si02
#       5
#     8   4   8   8   4
#     4  11  23  46  73  97 141 186 238 301 381 444
#     4  10  25  45  64 100 154 190 234 299 369 442
#     4  11  25  44  70 104 146 191 242 307 369 439
#     4  11  25  48  72 106 150 192 245 314 378 453
#     4  12  24  45  77 106 138 206 257 309 370 462
#
# _framework density 24.098033000000001
#
# number of rings (size 3 to 8) (size 9 to 14) (size 15 to 20)
#    0.000    1.000    2.500    4.125    3.500    1.000 
#    0.000    0.625    0.000    0.000    0.000    0.000 
#    0.000    0.000    0.000    0.000    0.000    0.000 
#
# Total GULP energy -89265.919731 kJ/mol
# GULP energy per Si atom -5579.119983 kJ/mol
# Density = 2.404319 g / cm^3
# Si number density = 24.098033 Si / 1000 Ang^3
#
#
#
# Elastic Constant Matrix: (Units=GPa)
#
#
# Indices 1 2 3 4 5 6 
#
# 1 133.9254 48.7107 23.8794 0.0000 0.0000 0.0000
# 2 48.7107 123.7221 13.4841 0.0000 0.0000 0.0000
# 3 23.8794 13.4841 143.5118 0.0000 0.0000 0.0000
# 4 0.0000 0.0000 0.0000 31.7066 0.0000 0.0000
# 5 0.0000 0.0000 0.0000 0.0000 18.2531 0.0000
# 6 0.0000 0.0000 0.0000 0.0000 0.0000 38.8868
#
#
#
# Elastic Compliance Matrix: (Units=1/GPa)
#
#
# Indices 1 2 3 4 5 6 
#
# 1 0.008903 -0.003378 -0.001164 0.000000 0.000000 0.000000
# 2 -0.003378 0.009448 -0.000326 0.000000 0.000000 0.000000
# 3 -0.001164 -0.000326 0.007192 0.000000 0.000000 0.000000
# 4 0.000000 0.000000 0.000000 0.031539 0.000000 0.000000
# 5 0.000000 0.000000 0.000000 0.000000 0.054785 0.000000
# 6 0.000000 0.000000 0.000000 0.000000 0.000000 0.025716
#
#
# Mechanical properties :
#
#
# Convention : Reuss Voigt Hill
#
# Bulk Modulus (GPa) = 63.26015 63.70084 63.48049
# Shear Modulus (GPa) = 32.76772 38.77496 35.77134
#
# Velocity S-wave (km/s) = 3.69150 4.01565 3.85698
# Velocity P-wave (km/s) = 6.66916 6.92763 6.79962
#
# Compressibility (1/GPa) = 0.01580774
#
# Stress axis : x y z
#
# Youngs Moduli (GPa) = 112.31962 105.83991 139.03679
#
# Poissons Ratio (x) = 0.35757 0.16184
# Poissons Ratio (y) = 0.37946 0.04527
# Poissons Ratio (z) = 0.13074 0.03446
#
# Static dielectric constant tensor:
#      x y z
#    x 1.910000 0.000000 0.000000 
#    y 0.000000 1.908360 0.000000 
#    z 0.000000 0.000000 1.913780 
# 
# From -- ./inp_files/22003.got.cif
#   From: 2010.05.17/outbox.cif.g08.bks.cpg/sg21_12_cif.got.tgz:22003.got - 2010.06.03 23:14:55.
