data_PCOD9325848
_publ_section_title
;
Structure prediction by ZEFSAII (Michael W. Deem and Ramdas Pophale) SiO2 
 PCOD9325848
Probable space group: C 2 2 2
;
_chemical_formula_sum "Si O2"
_cell_formula_units_Z 26
_cell_length_a 15.000000
_cell_length_b 30.000000
_cell_length_c 6.000000
_cell_angle_alpha 90.000000
_cell_angle_beta 90.000000
_cell_angle_gamma 90.000000
_cell_volume 2700.000000
_symmetry_space_group_name_H-M "C 2 2 2"
_symmetry_group_IT_number 21
_symmetry_cell_setting 'orthorhombic'
loop_
_space_group_symop_operation_xyz
x,y,z
-x,-y,z
x,-y,-z
-x,y,-z
1/2+x,1/2+y,z
1/2-x,1/2-y,z
1/2+x,1/2-y,-z
1/2-x,1/2+y,-z
loop_
_atom_site_type_symbol
_atom_site_label
_atom_site_fract_x
_atom_site_fract_y
_atom_site_fract_z
Si Si1 0.262613 0.621280 0.257384
Si Si2 0.076242 0.737057 0.179214
Si Si3 0.095445 0.879748 0.877700
Si Si4 0.856715 0.807204 0.456186
Si Si5 0.547857 0.133811 0.252622
Si Si6 0.107962 0.947281 0.524578
Si Si7 0.250000 0.250000 0.098798
O O1 0.284417 0.663998 0.408949
O O2 0.153580 0.617213 0.243072
O O3 0.321965 0.580425 0.368052
O O4 0.319736 0.631521 0.033307
O O5 0.093347 0.773242 0.375490
O O6 0.048872 0.687835 0.260088
O O7 0.171287 0.730901 0.055329
O O8 0.000000 0.752025 0.000000
O O9 0.085707 0.843907 0.677830
O O10 0.121276 0.927116 0.769965
O O11 0.000000 0.881703 0.000000
O O12 0.803638 0.781637 0.265267
O O13 0.500000 0.120491 0.500000
O O14 0.500000 0.123461 0.000000
O O15 0.000000 0.939379 0.500000
O O16 0.122754 0.000000 0.500000
#
# Coordination Sequence:
#
# PCOD9325848 Si02
#       7
#     8   8   8   8   8   8   4
#     4  11  24  43  67  99 133 179 219 283 345 407
#     4  11  26  42  60  89 124 180 234 295 346 392
#     4  11  23  41  65  99 136 175 215 268 341 422
#     4  11  25  39  63  86 135 170 232 280 346 407
#     4  11  27  46  69  96 133 184 251 298 344 397
#     4  10  22  43  70 106 143 170 206 259 336 435
#     4  12  24  42  60  88 126 174 228 294 346 398
#
# _framework density 9.6296300000000006
#
# number of rings (size 3 to 8) (size 9 to 14) (size 15 to 20)
#    0.000    1.077    1.538    4.154   12.923    4.308 
#    0.000    0.000    0.000    0.462    0.000    0.000 
#    0.000    0.000    0.000    0.000    0.000    0.000 
#
# Total GULP energy -145002.347880 kJ/mol
# GULP energy per Si atom -5577.013380 kJ/mol
# Density = 0.960771 g / cm^3
# Si number density = 9.629630 Si / 1000 Ang^3
#
#
#
# Elastic Constant Matrix: (Units=GPa)
#
#
# Indices 1 2 3 4 5 6 
#
# 1 149.8220 26.0177 58.7621 0.0000 0.0000 0.0000
# 2 26.0177 85.4093 34.1159 0.0000 0.0000 0.0000
# 3 58.7621 34.1159 123.5149 0.0000 0.0000 0.0000
# 4 0.0000 0.0000 0.0000 21.8079 0.0000 0.0000
# 5 0.0000 0.0000 0.0000 0.0000 45.0539 0.0000
# 6 0.0000 0.0000 0.0000 0.0000 0.0000 26.2654
#
#
#
# Elastic Compliance Matrix: (Units=1/GPa)
#
#
# Indices 1 2 3 4 5 6 
#
# 1 0.008292 -0.001068 -0.003650 0.000000 0.000000 0.000000
# 2 -0.001068 0.013298 -0.003165 0.000000 0.000000 0.000000
# 3 -0.003650 -0.003165 0.010707 0.000000 0.000000 0.000000
# 4 0.000000 0.000000 0.000000 0.045855 0.000000 0.000000
# 5 0.000000 0.000000 0.000000 0.000000 0.022196 0.000000
# 6 0.000000 0.000000 0.000000 0.000000 0.000000 0.038073
#
#
# Mechanical properties :
#
#
# Convention : Reuss Voigt Hill
#
# Bulk Modulus (GPa) = 60.49263 66.28196 63.38729
# Shear Modulus (GPa) = 31.30969 34.61547 32.96258
#
# Velocity S-wave (km/s) = 4.03637 4.24411 4.14154
# Velocity P-wave (km/s) = 7.29389 7.64898 7.47354
#
# Compressibility (1/GPa) = 0.01653094
#
# Stress axis : x y z
#
# Youngs Moduli (GPa) = 120.60535 75.20017 93.39942
#
# Poissons Ratio (x) = 0.08031 0.34088
# Poissons Ratio (y) = 0.12880 0.29560
# Poissons Ratio (z) = 0.44017 0.23800
#
# Static dielectric constant tensor:
#      x y z
#    x 1.689900 0.000000 0.000000 
#    y 0.000000 1.688120 0.000000 
#    z 0.000000 0.000000 1.780260 
# 
# From -- ./inp_files/4311.got.cif
#   From: 2010.05.17/outbox.ucp.g08.bks.cvg/sg21_3_cif.got.tgz:4311.got - 2010.06.11 15:15:05.
