data_PCOD9325928
_publ_section_title
;
Structure prediction by ZEFSAII (Michael W. Deem and Ramdas Pophale) SiO2 
 PCOD9325928
Probable space group: F 2 2 2
;
_chemical_formula_sum "Si O2"
_cell_formula_units_Z 52
_cell_length_a 5.295963
_cell_length_b 14.046824
_cell_length_c 28.913139
_cell_angle_alpha 90.000000
_cell_angle_beta 90.000000
_cell_angle_gamma 90.000000
_cell_volume 2150.890628
_symmetry_space_group_name_H-M "F 2 2 2"
_symmetry_group_IT_number 22
_symmetry_cell_setting 'orthorhombic'
loop_
_space_group_symop_operation_xyz
x,y,z
-x,-y,z
x,-y,-z
-x,y,-z
x,1/2+y,1/2+z
-x,1/2-y,1/2+z
x,1/2-y,1/2-z
-x,1/2+y,1/2-z
1/2+x,y,1/2+z
1/2-x,-y,1/2+z
1/2+x,-y,1/2-z
1/2-x,y,1/2-z
1/2+x,1/2+y,z
1/2-x,1/2-y,z
1/2+x,1/2-y,-z
1/2-x,1/2+y,-z
loop_
_atom_site_type_symbol
_atom_site_label
_atom_site_fract_x
_atom_site_fract_y
_atom_site_fract_z
Si Si1 0.500000 0.000000 0.000000
Si Si2 0.773428 0.861889 0.126466
Si Si3 0.236475 0.133595 0.576276
Si Si4 0.007622 0.141144 0.229105
O O1 0.344276 0.927336 0.032265
O O2 0.750000 0.750000 0.119901
O O3 0.482579 0.890639 0.115344
O O4 0.982025 0.896386 0.090648
O O5 0.925674 0.867707 0.175238
O O6 0.250000 0.250000 0.569771
O O7 0.008396 0.250000 0.250000
O O8 0.750000 0.104266 0.250000
O O9 0.250000 0.092785 0.250000
#
# Coordination Sequence:
#
# PCOD9325928 Si02
#       4
#     4  16  16  16
#     4  12  28  54  76 108 140 202 248 310 396 432
#     4  10  19  37  57  99 144 176 229 297 350 411
#     4  10  25  42  71  98 141 183 238 306 359 447
#     4  10  17  25  51  91 138 178 223 282 332 424
#
# _framework density 24.176033
#
# number of rings (size 3 to 8) (size 9 to 14) (size 15 to 20)
#    0.000    1.846    3.077    1.846    8.615    7.385 
#    0.000    0.000    0.000    0.000    0.000   21.538 
#    0.000    0.000    0.000    0.000    0.000    0.000 
#
# Total GULP energy -72369.005610 kJ/mol
# GULP energy per Si atom -5566.846585 kJ/mol
# Density = 2.412101 g / cm^3
# Si number density = 24.176033 Si / 1000 Ang^3
#
#
#
# Elastic Constant Matrix: (Units=GPa)
#
#
# Indices 1 2 3 4 5 6 
#
# 1 224.8137 18.9891 58.5050 0.0000 0.0000 0.0000
# 2 18.9891 157.8153 38.3139 0.0000 0.0000 0.0000
# 3 58.5050 38.3139 130.1057 0.0000 0.0000 0.0000
# 4 0.0000 0.0000 0.0000 145.7295 0.0000 0.0000
# 5 0.0000 0.0000 0.0000 0.0000 18.7860 0.0000
# 6 0.0000 0.0000 0.0000 0.0000 0.0000 3.3908
#
#
#
# Elastic Compliance Matrix: (Units=1/GPa)
#
#
# Indices 1 2 3 4 5 6 
#
# 1 0.005038 -0.000061 -0.002248 0.000000 0.000000 0.000000
# 2 -0.000061 0.006825 -0.001983 0.000000 0.000000 0.000000
# 3 -0.002248 -0.001983 0.009281 0.000000 0.000000 0.000000
# 4 0.000000 0.000000 0.000000 0.006862 0.000000 0.000000
# 5 0.000000 0.000000 0.000000 0.000000 0.053231 0.000000
# 6 0.000000 0.000000 0.000000 0.000000 0.000000 0.294914
#
#
# Mechanical properties :
#
#
# Convention : Reuss Voigt Hill
#
# Bulk Modulus (GPa) = 79.60409 82.70564 81.15487
# Shear Modulus (GPa) = 12.85609 60.04305 36.44957
#
# Velocity S-wave (km/s) = 2.30852 4.98896 3.88709
# Velocity P-wave (km/s) = 6.33277 8.21403 7.33397
#
# Compressibility (1/GPa) = 0.01256217
#
# Stress axis : x y z
#
# Youngs Moduli (GPa) = 198.48444 146.51690 107.75100
#
# Poissons Ratio (x) = 0.00887 0.24219
# Poissons Ratio (y) = 0.01201 0.21364
# Poissons Ratio (z) = 0.44614 0.29050
#
# Static dielectric constant tensor:
#      x y z
#    x 1.936290 0.000000 0.000000 
#    y 0.000000 1.909030 0.000000 
#    z 0.000000 0.000000 0.938560 
# 
# From -- ./inp_files/50986.got.cif
#   From: 2010.05.17/outbox.cif.g08.bks.cpg/sg22_26_cif.got.tgz:50986.got - 2010.06.03 23:40:54.
