data_PCOD9325945
_publ_section_title
;
Structure prediction by ZEFSAII (Michael W. Deem and Ramdas Pophale) SiO2 
 PCOD9325945
Probable space group: F 2 2 2
;
_chemical_formula_sum "Si O2"
_cell_formula_units_Z 60
_cell_length_a 5.569975
_cell_length_b 15.852021
_cell_length_c 30.839306
_cell_angle_alpha 90.000000
_cell_angle_beta 90.000000
_cell_angle_gamma 90.000000
_cell_volume 2722.967646
_symmetry_space_group_name_H-M "F 2 2 2"
_symmetry_group_IT_number 22
_symmetry_cell_setting 'orthorhombic'
loop_
_space_group_symop_operation_xyz
x,y,z
-x,-y,z
x,-y,-z
-x,y,-z
x,1/2+y,1/2+z
-x,1/2-y,1/2+z
x,1/2-y,1/2-z
-x,1/2+y,1/2-z
1/2+x,y,1/2+z
1/2-x,-y,1/2+z
1/2+x,-y,1/2-z
1/2-x,y,1/2-z
1/2+x,1/2+y,z
1/2-x,1/2-y,z
1/2+x,1/2-y,-z
1/2-x,1/2+y,-z
loop_
_atom_site_type_symbol
_atom_site_label
_atom_site_fract_x
_atom_site_fract_y
_atom_site_fract_z
Si Si1 0.899165 0.167036 0.181387
Si Si2 0.996921 0.341125 0.051555
Si Si3 0.750000 0.250000 0.750000
Si Si4 0.750000 0.451813 0.250000
Si Si5 0.006843 0.147337 0.085500
O O1 0.750000 0.250000 0.169494
O O2 0.726448 0.103418 0.206427
O O3 0.011269 0.134537 0.137078
O O4 0.089402 0.193927 0.218015
O O5 0.245129 0.385278 0.065293
O O6 0.002930 0.247896 0.073642
O O7 0.747950 0.383470 0.066578
O O8 0.000000 0.329048 0.000000
O O9 0.500000 0.500000 0.244529
#
# Coordination Sequence:
#
# PCOD9325945 Si02
#       5
#    16  16   4   8  16
#     4  12  23  39  64  91 117 164 218 265 307 379
#     4  10  17  29  46  79 128 159 174 231 318 371
#     4  12  20  36  64  92 116 150 210 274 314 358
#     4  12  28  46  61  87 128 172 212 266 328 378
#     4  10  19  29  49  79 111 156 193 238 287 366
#
# _framework density 22.034783000000001
#
# number of rings (size 3 to 8) (size 9 to 14) (size 15 to 20)
#    0.000    1.067    5.333    6.400    0.000    0.000 
#    0.000    0.000    0.000    0.000    0.000    0.000 
#    0.000   25.600    0.000    0.000    0.000    0.000 
#
# Total GULP energy -83789.773562 kJ/mol
# GULP energy per Si atom -5585.984904 kJ/mol
# Density = 2.198463 g / cm^3
# Si number density = 22.034783 Si / 1000 Ang^3
#
#
#
# Elastic Constant Matrix: (Units=GPa)
#
#
# Indices 1 2 3 4 5 6 
#
# 1 179.6881 4.3465 42.4994 0.0000 0.0000 0.0000
# 2 4.3465 25.6177 2.8726 0.0000 0.0000 0.0000
# 3 42.4994 2.8726 184.7764 0.0000 0.0000 0.0000
# 4 0.0000 0.0000 0.0000 -23.1633 0.0000 0.0000
# 5 0.0000 0.0000 0.0000 0.0000 82.3779 0.0000
# 6 0.0000 0.0000 0.0000 0.0000 0.0000 8.0830
#
#
#
# Elastic Compliance Matrix: (Units=1/GPa)
#
#
# Indices 1 2 3 4 5 6 
#
# 1 0.005904 -0.000851 -0.001345 0.000000 0.000000 0.000000
# 2 -0.000851 0.039226 -0.000414 0.000000 0.000000 0.000000
# 3 -0.001345 -0.000414 0.005728 0.000000 0.000000 0.000000
# 4 0.000000 0.000000 0.000000 -0.043172 0.000000 0.000000
# 5 0.000000 0.000000 0.000000 0.000000 0.012139 0.000000
# 6 0.000000 0.000000 0.000000 0.000000 0.000000 0.123716
#
#
# Mechanical properties :
#
#
# Convention : Reuss Voigt Hill
#
# Bulk Modulus (GPa) = 21.91138 54.39101 38.15120
# Shear Modulus (GPa) = 30.49272 36.15045 33.32159
#
# Velocity S-wave (km/s) = 3.72404 4.05484 3.89295
# Velocity P-wave (km/s) = 5.33450 6.83081 6.12850
#
# Compressibility (1/GPa) = 0.04563838
#
# Stress axis : x y z
#
# Youngs Moduli (GPa) = 169.38184 25.49313 174.59113
#
# Poissons Ratio (x) = 0.02169 0.23477
# Poissons Ratio (y) = 0.14413 0.07230
# Poissons Ratio (z) = 0.22776 0.01056
#
# Static dielectric constant tensor:
#      x y z
#    x 1.914830 0.000000 0.000000 
#    y 0.000000 1.842820 0.000000 
#    z 0.000000 0.000000 1.746990 
# 
# From -- ./inp_files/2804.got.cif
#   From: 2010.05.17/outbox.cif.g08.bks.cpg/sg22_2_cif.got.tgz:2804.got - 2010.06.03 23:40:54.
