data_PCOD9325806
_publ_section_title
;
Structure prediction by ZEFSAII (Michael W. Deem and Ramdas Pophale) SiO2 
 PCOD9325806
Probable space group: C 2 2 2
;
_chemical_formula_sum "Si O2"
_cell_formula_units_Z 22
_cell_length_a 4.896188
_cell_length_b 30.255055
_cell_length_c 6.211701
_cell_angle_alpha 90.000000
_cell_angle_beta 90.000000
_cell_angle_gamma 90.000000
_cell_volume 920.166832
_symmetry_space_group_name_H-M "C 2 2 2"
_symmetry_group_IT_number 21
_symmetry_cell_setting 'orthorhombic'
loop_
_space_group_symop_operation_xyz
x,y,z
-x,-y,z
x,-y,-z
-x,y,-z
1/2+x,1/2+y,z
1/2-x,1/2-y,z
1/2+x,1/2-y,-z
1/2-x,1/2+y,-z
loop_
_atom_site_type_symbol
_atom_site_label
_atom_site_fract_x
_atom_site_fract_y
_atom_site_fract_z
Si Si1 0.243268 0.656377 0.352952
Si Si2 0.500000 0.500000 0.500000
Si Si3 0.000000 0.779235 0.000000
Si Si4 0.762309 0.563612 0.847432
O O1 0.500000 0.643917 0.500000
O O2 0.145523 0.611123 0.243263
O O3 0.000000 0.674688 0.500000
O O4 0.355829 0.690573 0.178812
O O5 0.680191 0.531165 0.654564
O O6 0.750000 0.750000 0.090950
O O7 0.500000 0.570097 0.000000
O O8 0.000000 0.546679 0.000000
#
# Coordination Sequence:
#
# PCOD9325806 Si02
#       4
#     8   2   4   8
#     4  12  26  50  83 114 155 209 256 316 394 463
#     4  12  30  54  76 124 156 202 270 322 384 452
#     4  12  28  50  82 117 156 201 260 326 384 464
#     4  12  28  51  81 115 157 210 259 320 389 462
#
# _framework density 23.908709000000002
#
# number of rings (size 3 to 8) (size 9 to 14) (size 15 to 20)
#    0.000    0.000    3.636    4.909    2.545    7.273 
#    0.000    0.000    0.000    0.000    0.000    0.000 
#    0.000    0.000    0.000    0.000    0.000    0.000 
#
# Total GULP energy -61747.984591 kJ/mol
# GULP energy per Si atom -5613.453145 kJ/mol
# Density = 2.385429 g / cm^3
# Si number density = 23.908709 Si / 1000 Ang^3
#
#
#
# Elastic Constant Matrix: (Units=GPa)
#
#
# Indices 1 2 3 4 5 6 
#
# 1 142.8595 44.8282 70.1539 0.0000 0.0000 0.0000
# 2 44.8282 153.7602 80.9140 0.0000 0.0000 0.0000
# 3 70.1539 80.9140 161.0457 0.0000 0.0000 0.0000
# 4 0.0000 0.0000 0.0000 32.5558 0.0000 0.0000
# 5 0.0000 0.0000 0.0000 0.0000 74.9238 0.0000
# 6 0.0000 0.0000 0.0000 0.0000 0.0000 3.4143
#
#
#
# Elastic Compliance Matrix: (Units=1/GPa)
#
#
# Indices 1 2 3 4 5 6 
#
# 1 0.008970 -0.000760 -0.003526 0.000000 0.000000 0.000000
# 2 -0.000760 0.008906 -0.004143 0.000000 0.000000 0.000000
# 3 -0.003526 -0.004143 0.009827 0.000000 0.000000 0.000000
# 4 0.000000 0.000000 0.000000 0.030717 0.000000 0.000000
# 5 0.000000 0.000000 0.000000 0.000000 0.013347 0.000000
# 6 0.000000 0.000000 0.000000 0.000000 0.000000 0.292885
#
#
# Mechanical properties :
#
#
# Convention : Reuss Voigt Hill
#
# Bulk Modulus (GPa) = 92.21187 94.38420 93.29804
# Shear Modulus (GPa) = 12.98286 39.63005 26.30645
#
# Velocity S-wave (km/s) = 2.33280 4.07573 3.32066
# Velocity P-wave (km/s) = 6.77554 7.85566 7.33551
#
# Compressibility (1/GPa) = 0.01084459
#
# Stress axis : x y z
#
# Youngs Moduli (GPa) = 111.48783 112.28925 101.76054
#
# Poissons Ratio (x) = 0.08532 0.35876
# Poissons Ratio (y) = 0.08471 0.42164
# Poissons Ratio (z) = 0.39306 0.46526
#
# Static dielectric constant tensor:
#      x y z
#    x 1.835140 0.000000 0.000000 
#    y 0.000000 1.897210 0.000000 
#    z 0.000000 0.000000 1.896900 
# 
# From -- ./inp_files/749.got.cif
#   From: 2010.05.17/outbox.cif.g08.bks.cpg/sg21_1_cif.got.tgz:749.got - 2010.06.03 23:14:55.
