data_PCOD9325363
_publ_section_title
;
Structure prediction by ZEFSAII (Michael W. Deem and Ramdas Pophale) SiO2 
 PCOD9325363
Probable space group: C 2 2 2
;
_chemical_formula_sum "Si O2"
_cell_formula_units_Z 34
_cell_length_a 8.477821
_cell_length_b 19.729387
_cell_length_c 10.005986
_cell_angle_alpha 90.000000
_cell_angle_beta 90.000000
_cell_angle_gamma 90.000000
_cell_volume 1673.623346
_symmetry_space_group_name_H-M "C 2 2 2"
_symmetry_group_IT_number 21
_symmetry_cell_setting 'orthorhombic'
loop_
_space_group_symop_operation_xyz
x,y,z
-x,-y,z
x,-y,-z
-x,y,-z
1/2+x,1/2+y,z
1/2-x,1/2-y,z
1/2+x,1/2-y,-z
1/2-x,1/2+y,-z
loop_
_atom_site_type_symbol
_atom_site_label
_atom_site_fract_x
_atom_site_fract_y
_atom_site_fract_z
Si Si1 0.137081 0.886465 0.698015
Si Si2 0.185958 0.421775 0.032695
Si Si3 0.500000 0.500000 0.500000
Si Si4 0.309493 0.327718 0.804494
Si Si5 0.178662 0.322065 0.541051
O O1 0.254188 0.906805 0.817650
O O2 0.225691 0.843115 0.587696
O O3 0.086924 0.950578 0.606015
O O4 0.988999 0.842881 0.755673
O O5 0.222696 0.500000 0.000000
O O6 0.279672 0.371683 0.935396
O O7 0.000000 0.411466 0.000000
O O8 0.250000 0.250000 0.833635
O O9 0.207672 0.359942 0.681058
O O10 0.250000 0.250000 0.577453
O O11 0.000000 0.320002 0.500000
#
# Coordination Sequence:
#
# PCOD9325363 Si02
#       5
#     8   8   2   8   8
#     4  12  24  44  71 101 140 187 239 294 353 432
#     4  11  26  45  66 100 144 189 236 291 353 424
#     4  12  24  44  72 108 140 192 252 286 364 428
#     4  11  23  43  69 103 140 181 235 296 359 428
#     4  11  22  40  66  99 136 176 227 293 355 417
#
# _framework density 20.315204000000001
#
# number of rings (size 3 to 8) (size 9 to 14) (size 15 to 20)
#    0.000    0.706    2.353    6.353    0.000    3.765 
#    0.000    0.000    0.000    0.000    0.000    0.000 
#    0.000    0.000    0.000    0.000    0.000    0.000 
#
# Total GULP energy -94791.558007 kJ/mol
# GULP energy per Si atom -5575.974000 kJ/mol
# Density = 2.026897 g / cm^3
# Si number density = 20.315204 Si / 1000 Ang^3
#
#
#
# Elastic Constant Matrix: (Units=GPa)
#
#
# Indices 1 2 3 4 5 6 
#
# 1 81.6155 33.5693 22.2750 0.0000 0.0000 0.0000
# 2 33.5693 81.3618 39.0923 0.0000 0.0000 0.0000
# 3 22.2750 39.0923 157.9390 0.0000 0.0000 0.0000
# 4 0.0000 0.0000 0.0000 38.2452 0.0000 0.0000
# 5 0.0000 0.0000 0.0000 0.0000 -41.4988 0.0000
# 6 0.0000 0.0000 0.0000 0.0000 0.0000 44.3846
#
#
#
# Elastic Compliance Matrix: (Units=1/GPa)
#
#
# Indices 1 2 3 4 5 6 
#
# 1 0.014816 -0.005799 -0.000654 0.000000 0.000000 0.000000
# 2 -0.005799 0.016219 -0.003197 0.000000 0.000000 0.000000
# 3 -0.000654 -0.003197 0.007215 0.000000 0.000000 0.000000
# 4 0.000000 0.000000 0.000000 0.026147 0.000000 0.000000
# 5 0.000000 0.000000 0.000000 0.000000 -0.024097 0.000000
# 6 0.000000 0.000000 0.000000 0.000000 0.000000 0.022530
#
#
# Mechanical properties :
#
#
# Convention : Reuss Voigt Hill
#
# Bulk Modulus (GPa) = 52.76743 56.75439 54.76091
# Shear Modulus (GPa) = 56.53084 23.29150 39.91117
#
# Velocity S-wave (km/s) = 5.28084 3.38968 4.43719
# Velocity P-wave (km/s) = 7.95071 6.58160 7.29833
#
# Compressibility (1/GPa) = 0.01895108
#
# Stress axis : x y z
#
# Youngs Moduli (GPa) = 67.49354 61.65532 138.59880
#
# Poissons Ratio (x) = 0.35752 0.09069
# Poissons Ratio (y) = 0.39137 0.44306
# Poissons Ratio (z) = 0.04416 0.19709
#
# Static dielectric constant tensor:
#      x y z
#    x 1.836240 0.000000 0.000000 
#    y 0.000000 6.969540 0.000000 
#    z 0.000000 0.000000 1.348650 
# 
# From -- ./inp_files/10567.got.cif
#   From: 2010.05.17/outbox.cif.g08.bks.cpg/sg21_6_cif.got.tgz:10567.got - 2010.06.03 23:14:55.
