data_PCOD9325130
_publ_section_title
;
Structure prediction by ZEFSAII (Michael W. Deem and Ramdas Pophale) SiO2 
 PCOD9325130
Probable space group: C 2 2 2
;
_chemical_formula_sum "Si O2"
_cell_formula_units_Z 40
_cell_length_a 10.971220
_cell_length_b 21.825068
_cell_length_c 7.927942
_cell_angle_alpha 90.000000
_cell_angle_beta 90.000000
_cell_angle_gamma 90.000000
_cell_volume 1898.326864
_symmetry_space_group_name_H-M "C 2 2 2"
_symmetry_group_IT_number 21
_symmetry_cell_setting 'orthorhombic'
loop_
_space_group_symop_operation_xyz
x,y,z
-x,-y,z
x,-y,-z
-x,y,-z
1/2+x,1/2+y,z
1/2-x,1/2-y,z
1/2+x,1/2-y,-z
1/2-x,1/2+y,-z
loop_
_atom_site_type_symbol
_atom_site_label
_atom_site_fract_x
_atom_site_fract_y
_atom_site_fract_z
Si Si1 0.103862 0.178185 0.687950
Si Si2 0.500000 0.500000 0.500000
Si Si3 0.000000 0.709568 0.500000
Si Si4 0.390892 0.888887 0.707295
Si Si5 0.500000 0.000000 0.500000
Si Si6 0.625314 0.609333 0.329204
Si Si7 0.250000 0.250000 0.930092
Si Si8 0.000000 0.684132 0.000000
O O1 0.052925 0.245201 0.639593
O O2 0.136155 0.145302 0.510469
O O3 0.210585 0.191846 0.815917
O O4 0.989313 0.140891 0.760342
O O5 0.584404 0.542156 0.384225
O O6 0.897339 0.664447 0.433080
O O7 0.251722 0.890006 0.767843
O O8 0.424879 0.953239 0.619941
O O9 0.486055 0.863040 0.843134
O O10 0.377026 0.226407 0.014066
#
# Coordination Sequence:
#
# PCOD9325130 Si02
#       8
#     8   2   4   8   2   8   4   4
#     4   9  19  34  60  96 125 169 214 277 314 399
#     4   8  16  36  54 106 112 158 212 304 322 366
#     4   9  17  35  60  89 125 163 224 262 322 373
#     4  11  22  42  60  99 118 181 212 284 323 395
#     4  10  26  42  74  82 128 166 248 290 322 354
#     4   9  19  33  66  92 127 159 224 282 328 377
#     4  12  24  44  56  98 140 184 202 264 324 424
#     4  12  30  39  70  92 152 175 218 248 356 410
#
# _framework density 21.071187999999999
#
# number of rings (size 3 to 8) (size 9 to 14) (size 15 to 20)
#    0.000    2.400    2.000    1.800    5.600    2.800 
#    0.000    0.000    0.000    0.000    0.000    0.000 
#    0.000    0.000    0.000    0.000    0.000    0.000 
#
# Total GULP energy -111432.337988 kJ/mol
# GULP energy per Si atom -5571.616899 kJ/mol
# Density = 2.102323 g / cm^3
# Si number density = 21.071188 Si / 1000 Ang^3
#
#
#
# Elastic Constant Matrix: (Units=GPa)
#
#
# Indices 1 2 3 4 5 6 
#
# 1 124.7878 35.0306 17.7659 0.0000 0.0000 0.0000
# 2 35.0306 126.4637 19.0040 0.0000 0.0000 0.0000
# 3 17.7659 19.0040 31.3280 0.0000 0.0000 0.0000
# 4 0.0000 0.0000 0.0000 23.3001 0.0000 0.0000
# 5 0.0000 0.0000 0.0000 0.0000 26.6689 0.0000
# 6 0.0000 0.0000 0.0000 0.0000 0.0000 6.3807
#
#
#
# Elastic Compliance Matrix: (Units=1/GPa)
#
#
# Indices 1 2 3 4 5 6 
#
# 1 0.009125 -0.001925 -0.004006 0.000000 0.000000 0.000000
# 2 -0.001925 0.009107 -0.004432 0.000000 0.000000 0.000000
# 3 -0.004006 -0.004432 0.036881 0.000000 0.000000 0.000000
# 4 0.000000 0.000000 0.000000 0.042918 0.000000 0.000000
# 5 0.000000 0.000000 0.000000 0.000000 0.037497 0.000000
# 6 0.000000 0.000000 0.000000 0.000000 0.000000 0.156723
#
#
# Mechanical properties :
#
#
# Convention : Reuss Voigt Hill
#
# Bulk Modulus (GPa) = 29.08340 47.35339 38.21839
# Shear Modulus (GPa) = 15.41115 25.32187 20.36651
#
# Velocity S-wave (km/s) = 2.70735 3.47036 3.11232
# Velocity P-wave (km/s) = 4.85854 6.21125 5.57607
#
# Compressibility (1/GPa) = 0.03438388
#
# Stress axis : x y z
#
# Youngs Moduli (GPa) = 109.59485 109.80777 27.11410
#
# Poissons Ratio (x) = 0.21143 0.10863
# Poissons Ratio (y) = 0.21102 0.12018
# Poissons Ratio (z) = 0.43909 0.48671
#
# Static dielectric constant tensor:
#      x y z
#    x 1.831480 0.000000 0.000000 
#    y 0.000000 1.731250 0.000000 
#    z 0.000000 0.000000 1.876130 
# 
# From -- ./inp_files/13138.got.cif
#   From: 2010.05.17/outbox.cif.g08.bks.cpg/sg21_7_cif.got.tgz:13138.got - 2010.06.03 23:14:55.
