data_PCOD9325899
_publ_section_title
;
Structure prediction by ZEFSAII (Michael W. Deem and Ramdas Pophale) SiO2 
 PCOD9325899
Probable space group: F 2 2 2
;
_chemical_formula_sum "Si O2"
_cell_formula_units_Z 96
_cell_length_a 15.003449
_cell_length_b 12.030536
_cell_length_c 25.330064
_cell_angle_alpha 90.000000
_cell_angle_beta 90.000000
_cell_angle_gamma 90.000000
_cell_volume 4572.064731
_symmetry_space_group_name_H-M "F 2 2 2"
_symmetry_group_IT_number 22
_symmetry_cell_setting 'orthorhombic'
loop_
_space_group_symop_operation_xyz
x,y,z
-x,-y,z
x,-y,-z
-x,y,-z
x,1/2+y,1/2+z
-x,1/2-y,1/2+z
x,1/2-y,1/2-z
-x,1/2+y,1/2-z
1/2+x,y,1/2+z
1/2-x,-y,1/2+z
1/2+x,-y,1/2-z
1/2-x,y,1/2-z
1/2+x,1/2+y,z
1/2-x,1/2-y,z
1/2+x,1/2-y,-z
1/2-x,1/2+y,-z
loop_
_atom_site_type_symbol
_atom_site_label
_atom_site_fract_x
_atom_site_fract_y
_atom_site_fract_z
Si Si1 0.255864 0.130994 0.858882
Si Si2 0.840882 0.857851 0.216232
Si Si3 0.914867 0.597717 0.707055
Si Si4 0.453590 0.174245 0.823679
Si Si5 0.250000 0.750000 0.615900
Si Si6 0.692874 0.466531 0.558824
Si Si7 0.000000 0.500000 0.099522
O O1 0.250000 0.250000 0.886732
O O2 0.187840 0.125865 0.810125
O O3 0.356278 0.129557 0.839779
O O4 0.244862 0.033424 0.900057
O O5 0.873779 0.750000 0.250000
O O6 0.750000 0.890781 0.250000
O O7 0.812866 0.814052 0.158517
O O8 0.906364 0.963542 0.208725
O O9 0.960820 0.692705 0.669864
O O10 0.949851 0.636062 0.763521
O O11 0.516976 0.104217 0.861166
O O12 0.297290 0.660274 0.577964
O O13 0.719767 0.500000 0.500000
O O14 0.590364 0.507647 0.566189
#
# Coordination Sequence:
#
# PCOD9325899 Si02
#       7
#    16  16  16  16   8  16   8
#     4   9  17  30  54  86 113 143 188 261 311 357
#     4   9  18  28  52  88 125 163 193 242 329 383
#     4  10  16  31  53  86 118 151 203 247 311 361
#     4   9  19  30  55  81 119 161 201 243 294 380
#     4  10  21  38  58  96 120 154 209 278 322 372
#     4  11  23  39  63  85 120 156 212 267 326 374
#     4  10  23  42  56  86 122 174 211 248 318 400
#
# _framework density 20.99708
#
# number of rings (size 3 to 8) (size 9 to 14) (size 15 to 20)
#    0.000    2.500    1.667    1.750    8.167    3.333 
#    0.000    3.333    0.000    0.000    0.000    0.000 
#    0.000    0.000    0.000    0.000    0.000    0.000 
#
# Total GULP energy -133615.580048 kJ/mol
# GULP energy per Si atom -5567.315835 kJ/mol
# Density = 2.094929 g / cm^3
# Si number density = 20.997080 Si / 1000 Ang^3
#
#
#
# Elastic Constant Matrix: (Units=GPa)
#
#
# Indices 1 2 3 4 5 6 
#
# 1 40.0716 21.8183 20.1745 0.0000 0.0000 0.0000
# 2 21.8183 170.6171 41.7484 0.0000 0.0000 0.0000
# 3 20.1745 41.7484 87.9018 0.0000 0.0000 0.0000
# 4 0.0000 0.0000 0.0000 17.0810 0.0000 0.0000
# 5 0.0000 0.0000 0.0000 0.0000 -12.4221 0.0000
# 6 0.0000 0.0000 0.0000 0.0000 0.0000 41.6109
#
#
#
# Elastic Compliance Matrix: (Units=1/GPa)
#
#
# Indices 1 2 3 4 5 6 
#
# 1 0.029029 -0.002356 -0.005544 0.000000 0.000000 0.000000
# 2 -0.002356 0.006823 -0.002700 0.000000 0.000000 0.000000
# 3 -0.005544 -0.002700 0.013931 0.000000 0.000000 0.000000
# 4 0.000000 0.000000 0.000000 0.058545 0.000000 0.000000
# 5 0.000000 0.000000 0.000000 0.000000 -0.080502 0.000000
# 6 0.000000 0.000000 0.000000 0.000000 0.000000 0.024032
#
#
# Mechanical properties :
#
#
# Convention : Reuss Voigt Hill
#
# Bulk Modulus (GPa) = 34.98411 51.78590 43.38500
# Shear Modulus (GPa) = 60.54398 23.57724 42.06061
#
# Velocity S-wave (km/s) = 5.37560 3.35458 4.48053
# Velocity P-wave (km/s) = 7.43149 6.30247 6.89015
#
# Compressibility (1/GPa) = 0.02858441
#
# Stress axis : x y z
#
# Youngs Moduli (GPa) = 34.44835 146.56413 71.78262
#
# Poissons Ratio (x) = 0.34526 0.39794
# Poissons Ratio (y) = 0.08115 0.19380
# Poissons Ratio (z) = 0.19097 0.39570
#
# Static dielectric constant tensor:
#      x y z
#    x 1.862890 0.000000 0.000000 
#    y 0.000000 1.874050 0.000000 
#    z 0.000000 0.000000 1.749630 
# 
# From -- ./inp_files/49407.got.cif
#   From: 2010.05.17/outbox.cif.g08.bks.cpg/sg22_25_cif.got.tgz:49407.got - 2010.06.03 23:40:54.
