data_PCOD9325732
_publ_section_title
;
Structure prediction by ZEFSAII (Michael W. Deem and Ramdas Pophale) SiO2 
 PCOD9325732
Probable space group: C 2 2 2
;
_chemical_formula_sum "Si O2"
_cell_formula_units_Z 30
_cell_length_a 4.724937
_cell_length_b 18.008867
_cell_length_c 12.956378
_cell_angle_alpha 90.000000
_cell_angle_beta 90.000000
_cell_angle_gamma 90.000000
_cell_volume 1102.468077
_symmetry_space_group_name_H-M "C 2 2 2"
_symmetry_group_IT_number 21
_symmetry_cell_setting 'orthorhombic'
loop_
_space_group_symop_operation_xyz
x,y,z
-x,-y,z
x,-y,-z
-x,y,-z
1/2+x,1/2+y,z
1/2-x,1/2-y,z
1/2+x,1/2-y,-z
1/2-x,1/2+y,-z
loop_
_atom_site_type_symbol
_atom_site_label
_atom_site_fract_x
_atom_site_fract_y
_atom_site_fract_z
Si Si1 0.148605 0.375407 0.153957
Si Si2 0.250000 0.250000 0.370245
Si Si3 0.641573 0.423420 0.279203
Si Si4 0.500000 0.000000 0.000000
Si Si5 0.750000 0.750000 0.797015
Si Si6 0.000000 0.125237 0.500000
O O1 0.956851 0.414885 0.241181
O O2 0.174714 0.439711 0.067503
O O3 0.949505 0.304040 0.126431
O O4 0.457654 0.363899 0.208323
O O5 0.512901 0.237263 0.296348
O O6 0.283830 0.320326 0.443325
O O7 0.500000 0.500000 0.250531
O O8 0.626211 0.416848 0.402090
#
# Coordination Sequence:
#
# PCOD9325732 Si02
#       6
#     8   4   8   2   4   4
#     4  12  26  48  79 108 152 199 264 333 393 481
#     4  12  25  40  73 104 158 206 255 294 387 476
#     4  12  25  46  71 114 154 203 256 319 390 475
#     4  12  28  54  88 108 148 204 272 338 436 464
#     4  12  23  50  69 112 154 202 251 332 377 464
#     4  12  25  42  72 112 157 210 250 304 388 477
#
# _framework density 27.211670999999999
#
# number of rings (size 3 to 8) (size 9 to 14) (size 15 to 20)
#    0.000    0.000    8.000    1.200    0.000    5.333 
#    0.000    6.667    0.000    0.000    0.000    0.000 
#    0.000    0.000    0.000    0.000    0.000    0.000 
#
# Total GULP energy -83535.530261 kJ/mol
# GULP energy per Si atom -5569.035351 kJ/mol
# Density = 2.714974 g / cm^3
# Si number density = 27.211671 Si / 1000 Ang^3
#
#
#
# Elastic Constant Matrix: (Units=GPa)
#
#
# Indices 1 2 3 4 5 6 
#
# 1 136.5188 -49.1271 24.6349 0.0000 0.0000 0.0000
# 2 -49.1271 63.9800 12.0681 0.0000 0.0000 0.0000
# 3 24.6349 12.0681 146.1483 0.0000 0.0000 0.0000
# 4 0.0000 0.0000 0.0000 68.9648 0.0000 0.0000
# 5 0.0000 0.0000 0.0000 0.0000 20.1400 0.0000
# 6 0.0000 0.0000 0.0000 0.0000 0.0000 7.1416
#
#
#
# Elastic Compliance Matrix: (Units=1/GPa)
#
#
# Indices 1 2 3 4 5 6 
#
# 1 0.011012 0.008945 -0.002595 0.000000 0.000000 0.000000
# 2 0.008945 0.023143 -0.003419 0.000000 0.000000 0.000000
# 3 -0.002595 -0.003419 0.007562 0.000000 0.000000 0.000000
# 4 0.000000 0.000000 0.000000 0.014500 0.000000 0.000000
# 5 0.000000 0.000000 0.000000 0.000000 0.049652 0.000000
# 6 0.000000 0.000000 0.000000 0.000000 0.000000 0.140025
#
#
# Mechanical properties :
#
#
# Convention : Reuss Voigt Hill
#
# Bulk Modulus (GPa) = 21.01695 35.75543 28.38619
# Shear Modulus (GPa) = 19.53944 43.18735 31.36339
#
# Velocity S-wave (km/s) = 2.68256 3.98815 3.39864
# Velocity P-wave (km/s) = 4.16354 5.86305 5.08481
#
# Compressibility (1/GPa) = 0.04758065
#
# Stress axis : x y z
#
# Youngs Moduli (GPa) = 90.80802 43.20890 132.23887
#
# Poissons Ratio (x) = -0.38651 0.34314
# Poissons Ratio (y) = -0.81230 0.45211
# Poissons Ratio (z) = 0.23564 0.14773
#
# Static dielectric constant tensor:
#      x y z
#    x 2.140870 0.000000 0.000000 
#    y 0.000000 1.780570 0.000000 
#    z 0.000000 0.000000 2.140830 
# 
# From -- ./inp_files/20735.got.cif
#   From: 2010.05.17/outbox.cif.g08.bks.cpg/sg21_11_cif.got.tgz:20735.got - 2010.06.03 23:14:55.
