data_PCOD9325186
_publ_section_title
;
Structure prediction by ZEFSAII (Michael W. Deem and Ramdas Pophale) SiO2 
 PCOD9325186
Probable space group: C 2 2 2
;
_chemical_formula_sum "Si O2"
_cell_formula_units_Z 40
_cell_length_a 11.094123
_cell_length_b 19.758691
_cell_length_c 8.818267
_cell_angle_alpha 90.000000
_cell_angle_beta 90.000000
_cell_angle_gamma 90.000000
_cell_volume 1933.011289
_symmetry_space_group_name_H-M "C 2 2 2"
_symmetry_group_IT_number 21
_symmetry_cell_setting 'orthorhombic'
loop_
_space_group_symop_operation_xyz
x,y,z
-x,-y,z
x,-y,-z
-x,y,-z
1/2+x,1/2+y,z
1/2-x,1/2-y,z
1/2+x,1/2-y,-z
1/2-x,1/2+y,-z
loop_
_atom_site_type_symbol
_atom_site_label
_atom_site_fract_x
_atom_site_fract_y
_atom_site_fract_z
Si Si1 0.806084 0.958513 0.278267
Si Si2 0.357938 0.124664 0.482638
Si Si3 0.863453 0.160815 0.945114
Si Si4 0.000000 0.000000 0.500000
Si Si5 0.250000 0.750000 0.704020
Si Si6 0.703039 0.908215 0.826366
Si Si7 0.500000 0.000000 0.000000
O O1 0.687896 0.937045 0.374790
O O2 0.831469 0.905896 0.148763
O O3 0.797896 0.031308 0.201686
O O4 0.913834 0.955552 0.397055
O O5 0.500000 0.127512 0.500000
O O6 0.303582 0.190617 0.399749
O O7 0.317401 0.116844 0.655706
O O8 0.846852 0.220213 0.822561
O O9 0.762525 0.152620 0.076964
O O10 0.000000 0.160527 0.000000
O O11 0.588669 0.948684 0.903865
#
# Coordination Sequence:
#
# PCOD9325186 Si02
#       7
#     8   8   8   2   4   8   2
#     4  11  22  41  65 107 134 172 210 266 333 403
#     4  11  25  45  69  94 134 174 227 272 322 387
#     4  11  25  45  68  94 137 170 224 274 328 385
#     4  12  20  36  68  96 144 164 218 250 326 404
#     4  10  28  48  62  98 124 180 236 274 316 378
#     4  12  23  41  71 102 135 175 206 267 346 394
#     4  12  24  40  68 108 144 156 214 262 338 420
#
# _framework density 20.693100999999999
#
# number of rings (size 3 to 8) (size 9 to 14) (size 15 to 20)
#    0.000    0.800    4.000    2.400    2.800    5.600 
#    3.600    0.000    0.000    0.000    0.000    0.000 
#    0.000    0.000    0.000    0.000    0.000    0.000 
#
# Total GULP energy -111613.664626 kJ/mol
# GULP energy per Si atom -5580.683231 kJ/mol
# Density = 2.064600 g / cm^3
# Si number density = 20.693101 Si / 1000 Ang^3
#
#
#
# Elastic Constant Matrix: (Units=GPa)
#
#
# Indices 1 2 3 4 5 6 
#
# 1 84.6503 -2.1144 30.7722 0.0000 0.0000 0.0000
# 2 -2.1144 45.4298 24.2088 0.0000 0.0000 0.0000
# 3 30.7722 24.2088 126.4300 0.0000 0.0000 0.0000
# 4 0.0000 0.0000 0.0000 -41.5100 0.0000 0.0000
# 5 0.0000 0.0000 0.0000 0.0000 107.7404 0.0000
# 6 0.0000 0.0000 0.0000 0.0000 0.0000 5.3030
#
#
#
# Elastic Compliance Matrix: (Units=1/GPa)
#
#
# Indices 1 2 3 4 5 6 
#
# 1 0.013229 0.002597 -0.003717 0.000000 0.000000 0.000000
# 2 0.002597 0.025023 -0.005423 0.000000 0.000000 0.000000
# 3 -0.003717 -0.005423 0.009853 0.000000 0.000000 0.000000
# 4 0.000000 0.000000 0.000000 -0.024091 0.000000 0.000000
# 5 0.000000 0.000000 0.000000 0.000000 0.009282 0.000000
# 6 0.000000 0.000000 0.000000 0.000000 0.000000 0.188571
#
#
# Mechanical properties :
#
#
# Convention : Reuss Voigt Hill
#
# Bulk Modulus (GPa) = 28.55752 40.24925 34.40338
# Shear Modulus (GPa) = 20.27352 27.88292 24.07822
#
# Velocity S-wave (km/s) = 3.13345 3.67475 3.41484
# Velocity P-wave (km/s) = 5.18862 6.12354 5.67537
#
# Compressibility (1/GPa) = 0.03501705
#
# Stress axis : x y z
#
# Youngs Moduli (GPa) = 75.58915 39.96347 101.49502
#
# Poissons Ratio (x) = -0.10377 0.37727
# Poissons Ratio (y) = -0.19627 0.55044
# Poissons Ratio (z) = 0.28097 0.21674
#
# Static dielectric constant tensor:
#      x y z
#    x 1.789370 0.000000 0.000000 
#    y 0.000000 1.711160 0.000000 
#    z 0.000000 0.000000 1.631760 
# 
# From -- ./inp_files/13133.got.cif
#   From: 2010.05.17/outbox.cif.g08.bks.cpg/sg21_7_cif.got.tgz:13133.got - 2010.06.03 23:14:55.
