data_PCOD9325739
_publ_section_title
;
Structure prediction by ZEFSAII (Michael W. Deem and Ramdas Pophale) SiO2 
 PCOD9325739
Probable space group: C 2 2 2
;
_chemical_formula_sum "Si O2"
_cell_formula_units_Z 28
_cell_length_a 27.910890
_cell_length_b 7.173633
_cell_length_c 7.291246
_cell_angle_alpha 90.000000
_cell_angle_beta 90.000000
_cell_angle_gamma 90.000000
_cell_volume 1459.871368
_symmetry_space_group_name_H-M "C 2 2 2"
_symmetry_group_IT_number 21
_symmetry_cell_setting 'orthorhombic'
loop_
_space_group_symop_operation_xyz
x,y,z
-x,-y,z
x,-y,-z
-x,y,-z
1/2+x,1/2+y,z
1/2-x,1/2-y,z
1/2+x,1/2-y,-z
1/2-x,1/2+y,-z
loop_
_atom_site_type_symbol
_atom_site_label
_atom_site_fract_x
_atom_site_fract_y
_atom_site_fract_z
Si Si1 0.359176 0.500000 0.500000
Si Si2 0.000000 0.500000 0.500000
Si Si3 0.696987 0.665818 0.845812
Si Si4 0.632610 0.000000 0.000000
Si Si5 0.568556 0.250898 0.740754
Si Si6 0.500000 0.500000 0.000000
O O1 0.325622 0.406748 0.655233
O O2 0.394694 0.635068 0.613204
O O3 0.967363 0.366766 0.619551
O O4 0.750000 0.750000 0.822404
O O5 0.696732 0.500000 0.000000
O O6 0.664685 0.837555 0.913378
O O7 0.599305 0.895255 0.143989
O O8 0.535905 0.379543 0.872732
#
# Coordination Sequence:
#
# PCOD9325739 Si02
#       6
#     4   2   8   4   8   2
#     4  12  26  45  73 108 142 186 239 299 350 420
#     4  12  24  40  62 100 140 184 238 288 340 420
#     4  12  26  48  73 107 144 182 238 298 358 428
#     4  12  24  45  75  98 142 190 235 289 358 422
#     4  12  24  43  68 103 142 189 239 287 355 413
#     4  12  24  44  70 100 152 188 234 296 348 416
#
# _framework density 19.179773000000001
#
# number of rings (size 3 to 8) (size 9 to 14) (size 15 to 20)
#    0.000    0.000    4.286    6.857    0.000    3.429 
#    0.000    0.000    0.000    0.000    0.000    0.000 
#    0.000    0.000    0.000    0.000    0.000    0.000 
#
# Total GULP energy -78320.896261 kJ/mol
# GULP energy per Si atom -5594.349733 kJ/mol
# Density = 1.913612 g / cm^3
# Si number density = 19.179773 Si / 1000 Ang^3
#
#
#
# Elastic Constant Matrix: (Units=GPa)
#
#
# Indices 1 2 3 4 5 6 
#
# 1 210.5152 126.0357 134.3414 0.0000 0.0000 0.0000
# 2 126.0357 181.4545 129.5731 0.0000 0.0000 0.0000
# 3 134.3414 129.5731 193.9085 0.0000 0.0000 0.0000
# 4 0.0000 0.0000 0.0000 60.4007 0.0000 0.0000
# 5 0.0000 0.0000 0.0000 0.0000 32.1931 0.0000
# 6 0.0000 0.0000 0.0000 0.0000 0.0000 69.1144
#
#
#
# Elastic Compliance Matrix: (Units=1/GPa)
#
#
# Indices 1 2 3 4 5 6 
#
# 1 0.009654 -0.003691 -0.004223 0.000000 0.000000 0.000000
# 2 -0.003691 0.011951 -0.005429 0.000000 0.000000 0.000000
# 3 -0.004223 -0.005429 0.011710 0.000000 0.000000 0.000000
# 4 0.000000 0.000000 0.000000 0.016556 0.000000 0.000000
# 5 0.000000 0.000000 0.000000 0.000000 0.031063 0.000000
# 6 0.000000 0.000000 0.000000 0.000000 0.000000 0.014469
#
#
# Mechanical properties :
#
#
# Convention : Reuss Voigt Hill
#
# Bulk Modulus (GPa) = 150.79690 151.75318 151.27504
# Shear Modulus (GPa) = 40.22559 45.40351 42.81455
#
# Velocity S-wave (km/s) = 4.58459 4.87073 4.72982
# Velocity P-wave (km/s) = 10.33529 10.53210 10.43416
#
# Compressibility (1/GPa) = 0.00663144
#
# Stress axis : x y z
#
# Youngs Moduli (GPa) = 103.57899 83.67237 85.39406
#
# Poissons Ratio (x) = 0.30880 0.36058
# Poissons Ratio (y) = 0.38227 0.46363
# Poissons Ratio (z) = 0.43737 0.45428
#
# Static dielectric constant tensor:
#      x y z
#    x 1.623770 0.000000 0.000000 
#    y 0.000000 1.634810 0.000000 
#    z 0.000000 0.000000 1.667790 
# 
# From -- ./inp_files/1381.got.cif
#   From: 2010.05.17/outbox.cif.g08.bks.cpg/sg21_1_cif.got.tgz:1381.got - 2010.06.03 23:14:55.
