data_PCOD9325867
_publ_section_title
;
Structure prediction by ZEFSAII (Michael W. Deem and Ramdas Pophale) SiO2 
 PCOD9325867
Probable space group: F 2 2 2
;
_chemical_formula_sum "Si O2"
_cell_formula_units_Z 48
_cell_length_a 5.040258
_cell_length_b 27.045253
_cell_length_c 13.381380
_cell_angle_alpha 90.000000
_cell_angle_beta 90.000000
_cell_angle_gamma 90.000000
_cell_volume 1824.083521
_symmetry_space_group_name_H-M "F 2 2 2"
_symmetry_group_IT_number 22
_symmetry_cell_setting 'orthorhombic'
loop_
_space_group_symop_operation_xyz
x,y,z
-x,-y,z
x,-y,-z
-x,y,-z
x,1/2+y,1/2+z
-x,1/2-y,1/2+z
x,1/2-y,1/2-z
-x,1/2+y,1/2-z
1/2+x,y,1/2+z
1/2-x,-y,1/2+z
1/2+x,-y,1/2-z
1/2-x,y,1/2-z
1/2+x,1/2+y,z
1/2-x,1/2-y,z
1/2+x,1/2-y,-z
1/2-x,1/2+y,-z
loop_
_atom_site_type_symbol
_atom_site_label
_atom_site_fract_x
_atom_site_fract_y
_atom_site_fract_z
Si Si1 0.250000 0.750000 0.750000
Si Si2 0.000000 0.500000 0.000000
Si Si3 0.284323 0.920186 0.632410
Si Si4 0.215576 0.144973 0.629727
Si Si5 0.750000 0.750000 0.890723
O O1 0.477940 0.762600 0.831657
O O2 0.814242 0.465981 0.931357
O O3 0.250000 0.932036 0.750000
O O4 0.576729 0.899460 0.611615
O O5 0.077737 0.875485 0.613238
O O6 0.250000 0.155119 0.750000
O O7 0.288856 0.194521 0.570015
#
# Coordination Sequence:
#
# PCOD9325867 Si02
#       5
#     4   4  16  16   8
#     4  10  16  22  48  94 126 196 224 258 346 414
#     4  12  28  54  76 100 148 194 248 334 376 426
#     4  10  25  42  70 102 138 184 246 297 369 434
#     4  10  19  36  60 102 143 182 232 291 348 442
#     4  11  18  28  58  96 151 187 227 286 355 430
#
# _framework density 26.314585000000001
#
# number of rings (size 3 to 8) (size 9 to 14) (size 15 to 20)
#    0.000    1.667    3.333    2.000    4.667    8.000 
#    0.000    0.000    0.000    4.000    0.000    0.000 
#    0.000    0.000    0.000    0.000    0.000    0.000 
#
# Total GULP energy -66988.513989 kJ/mol
# GULP energy per Si atom -5582.376166 kJ/mol
# Density = 2.625469 g / cm^3
# Si number density = 26.314585 Si / 1000 Ang^3
#
#
#
# Elastic Constant Matrix: (Units=GPa)
#
#
# Indices 1 2 3 4 5 6 
#
# 1 159.7325 20.3550 32.4300 0.0000 0.0000 0.0000
# 2 20.3550 174.7679 58.0272 0.0000 0.0000 0.0000
# 3 32.4300 58.0272 112.4799 0.0000 0.0000 0.0000
# 4 0.0000 0.0000 0.0000 37.3634 0.0000 0.0000
# 5 0.0000 0.0000 0.0000 0.0000 54.1435 0.0000
# 6 0.0000 0.0000 0.0000 0.0000 0.0000 18.3213
#
#
#
# Elastic Compliance Matrix: (Units=1/GPa)
#
#
# Indices 1 2 3 4 5 6 
#
# 1 0.006654 -0.000167 -0.001832 0.000000 0.000000 0.000000
# 2 -0.000167 0.006909 -0.003516 0.000000 0.000000 0.000000
# 3 -0.001832 -0.003516 0.011233 0.000000 0.000000 0.000000
# 4 0.000000 0.000000 0.000000 0.026764 0.000000 0.000000
# 5 0.000000 0.000000 0.000000 0.000000 0.018469 0.000000
# 6 0.000000 0.000000 0.000000 0.000000 0.000000 0.054581
#
#
# Mechanical properties :
#
#
# Convention : Reuss Voigt Hill
#
# Bulk Modulus (GPa) = 72.64838 74.28941 73.46890
# Shear Modulus (GPa) = 35.65606 44.37684 40.01645
#
# Velocity S-wave (km/s) = 3.68502 4.11103 3.90384
# Velocity P-wave (km/s) = 6.76560 7.12928 6.94982
#
# Compressibility (1/GPa) = 0.01376493
#
# Stress axis : x y z
#
# Youngs Moduli (GPa) = 150.29156 144.74497 89.02544
#
# Poissons Ratio (x) = 0.02410 0.16314
# Poissons Ratio (y) = 0.02503 0.31302
# Poissons Ratio (z) = 0.27541 0.50894
#
# Static dielectric constant tensor:
#      x y z
#    x 1.957550 0.000000 0.000000 
#    y 0.000000 1.894900 0.000000 
#    z 0.000000 0.000000 2.275010 
# 
# From -- ./inp_files/25975.got.cif
#   From: 2010.05.17/outbox.cif.g08.bks.cpg/sg22_13_cif.got.tgz:25975.got - 2010.06.03 23:40:54.
