data_PCOD9325440
_publ_section_title
;
Structure prediction by ZEFSAII (Michael W. Deem and Ramdas Pophale) SiO2 
 PCOD9325440
Probable space group: C 2 2 2
;
_chemical_formula_sum "Si O2"
_cell_formula_units_Z 40
_cell_length_a 17.441237
_cell_length_b 8.884441
_cell_length_c 12.821685
_cell_angle_alpha 90.000000
_cell_angle_beta 90.000000
_cell_angle_gamma 90.000000
_cell_volume 1986.792419
_symmetry_space_group_name_H-M "C 2 2 2"
_symmetry_group_IT_number 21
_symmetry_cell_setting 'orthorhombic'
loop_
_space_group_symop_operation_xyz
x,y,z
-x,-y,z
x,-y,-z
-x,y,-z
1/2+x,1/2+y,z
1/2-x,1/2-y,z
1/2+x,1/2-y,-z
1/2-x,1/2+y,-z
loop_
_atom_site_type_symbol
_atom_site_label
_atom_site_fract_x
_atom_site_fract_y
_atom_site_fract_z
Si Si1 0.905522 0.148611 0.127830
Si Si2 0.581430 0.099082 0.710680
Si Si3 0.335062 0.187740 0.673676
Si Si4 0.410602 0.668687 0.523932
Si Si5 0.410963 0.688993 0.895818
O O1 0.880475 0.238755 0.229058
O O2 0.997267 0.161071 0.114245
O O3 0.880190 0.974554 0.140412
O O4 0.880618 0.207767 0.013737
O O5 0.588119 0.244285 0.634421
O O6 0.597632 0.165467 0.824809
O O7 0.500000 0.000000 0.702476
O O8 0.650503 0.988423 0.683203
O O9 0.250000 0.250000 0.679844
O O10 0.370455 0.231162 0.562924
O O11 0.379505 0.500000 0.500000
O O12 0.500000 0.659598 0.500000
#
# Coordination Sequence:
#
# PCOD9325440 Si02
#       5
#     8   8   8   8   8
#     4   9  18  38  62  94 131 165 224 278 338 394
#     4  12  22  39  67  99 131 170 234 288 332 409
#     4  12  26  41  60  95 142 175 213 285 355 404
#     4  11  23  41  68  94 124 174 233 285 335 404
#     4   9  18  36  67  94 121 172 226 283 319 396
#
# _framework density 20.132953000000001
#
# number of rings (size 3 to 8) (size 9 to 14) (size 15 to 20)
#    0.000    1.400    4.000    3.000    0.000    5.600 
#    0.000    7.000    0.000    0.000    0.000    0.000 
#    0.000    0.000    0.000    0.000    0.000    0.000 
#
# Total GULP energy -111356.042744 kJ/mol
# GULP energy per Si atom -5567.802137 kJ/mol
# Density = 2.008713 g / cm^3
# Si number density = 20.132953 Si / 1000 Ang^3
#
#
#
# Elastic Constant Matrix: (Units=GPa)
#
#
# Indices 1 2 3 4 5 6 
#
# 1 42.6267 3.2322 3.6068 0.0000 0.0000 0.0000
# 2 3.2322 79.6560 10.0421 0.0000 0.0000 0.0000
# 3 3.6068 10.0421 62.3819 0.0000 0.0000 0.0000
# 4 0.0000 0.0000 0.0000 33.7955 0.0000 0.0000
# 5 0.0000 0.0000 0.0000 0.0000 7.0756 0.0000
# 6 0.0000 0.0000 0.0000 0.0000 0.0000 8.5597
#
#
#
# Elastic Compliance Matrix: (Units=1/GPa)
#
#
# Indices 1 2 3 4 5 6 
#
# 1 0.023625 -0.000803 -0.001237 0.000000 0.000000 0.000000
# 2 -0.000803 0.012841 -0.002021 0.000000 0.000000 0.000000
# 3 -0.001237 -0.002021 0.016427 0.000000 0.000000 0.000000
# 4 0.000000 0.000000 0.000000 0.029590 0.000000 0.000000
# 5 0.000000 0.000000 0.000000 0.000000 0.141330 0.000000
# 6 0.000000 0.000000 0.000000 0.000000 0.000000 0.116826
#
#
# Mechanical properties :
#
#
# Convention : Reuss Voigt Hill
#
# Bulk Modulus (GPa) = 22.33489 24.26964 23.30226
# Shear Modulus (GPa) = 13.74818 21.07174 17.40996
#
# Velocity S-wave (km/s) = 2.61601 3.23867 2.94385
# Velocity P-wave (km/s) = 4.49916 5.10551 4.81190
#
# Compressibility (1/GPa) = 0.04477301
#
# Stress axis : x y z
#
# Youngs Moduli (GPa) = 42.32805 77.87366 60.87502
#
# Poissons Ratio (x) = 0.06251 0.07529
# Poissons Ratio (y) = 0.03398 0.12301
# Poissons Ratio (z) = 0.05235 0.15736
#
# Static dielectric constant tensor:
#      x y z
#    x 1.721580 0.000000 0.000000 
#    y 0.000000 1.855410 0.000000 
#    z 0.000000 0.000000 1.793640 
# 
# From -- ./inp_files/22291.got.cif
#   From: 2010.05.17/outbox.cif.g08.bks.cpg/sg21_12_cif.got.tgz:22291.got - 2010.06.03 23:14:55.
