data_PCOD9325518
_publ_section_title
;
Structure prediction by ZEFSAII (Michael W. Deem and Ramdas Pophale) SiO2 
 PCOD9325518
Probable space group: C 2 2 2
;
_chemical_formula_sum "Si O2"
_cell_formula_units_Z 64
_cell_length_a 12.296745
_cell_length_b 14.796885
_cell_length_c 17.378686
_cell_angle_alpha 90.000000
_cell_angle_beta 90.000000
_cell_angle_gamma 90.000000
_cell_volume 3162.113119
_symmetry_space_group_name_H-M "C 2 2 2"
_symmetry_group_IT_number 21
_symmetry_cell_setting 'orthorhombic'
loop_
_space_group_symop_operation_xyz
x,y,z
-x,-y,z
x,-y,-z
-x,y,-z
1/2+x,1/2+y,z
1/2-x,1/2-y,z
1/2+x,1/2-y,-z
1/2-x,1/2+y,-z
loop_
_atom_site_type_symbol
_atom_site_label
_atom_site_fract_x
_atom_site_fract_y
_atom_site_fract_z
Si Si1 0.128702 0.502824 0.786130
Si Si2 0.994399 0.107867 0.086937
Si Si3 0.783416 0.853827 0.817299
Si Si4 0.814215 0.905733 0.486179
Si Si5 0.397447 0.058898 0.385291
Si Si6 0.332572 0.668478 0.347461
Si Si7 0.417645 0.275487 0.359473
Si Si8 0.192362 0.839907 0.801689
O O1 0.179023 0.415918 0.827050
O O2 0.130931 0.505162 0.692904
O O3 0.213140 0.584201 0.804066
O O4 0.000000 0.500000 0.805130
O O5 0.879335 0.132262 0.123516
O O6 0.091021 0.137502 0.143860
O O7 0.000000 0.000000 0.083207
O O8 0.000000 0.144347 0.000000
O O9 0.750000 0.750000 0.818954
O O10 0.826458 0.884792 0.732639
O O11 0.704098 0.932499 0.442009
O O12 0.795543 0.873071 0.572445
O O13 0.869045 0.827087 0.434488
O O14 0.877620 0.000000 0.500000
O O15 0.416578 0.165666 0.363994
O O16 0.500000 0.000000 0.415281
O O17 0.250000 0.750000 0.335801
O O18 0.456565 0.698610 0.355137
O O19 0.353418 0.315248 0.284699
O O20 0.250000 0.750000 0.830465
#
# Coordination Sequence:
#
# PCOD9325518 Si02
#       8
#     8   8   8   8   8   8   8   8
#     4  11  24  41  70 108 142 183 237 292 345 419
#     4  11  25  46  73 105 142 186 235 290 355 432
#     4  11  25  44  72 103 141 184 234 293 350 421
#     4  12  26  44  62  96 137 182 239 293 354 413
#     4  11  25  43  70  97 142 184 242 293 354 421
#     4  11  26  40  65  93 135 178 233 285 352 403
#     4  12  24  45  68 102 136 186 235 301 353 425
#     4  12  23  43  76 108 140 188 238 288 359 431
#
# _framework density 20.239629999999998
#
# number of rings (size 3 to 8) (size 9 to 14) (size 15 to 20)
#    0.000    0.625    5.000    2.250   10.500    1.750 
#    0.000    0.625    0.000    0.750    0.000    0.000 
#    0.000    0.000    0.000    0.000    0.000    0.000 
#
# Total GULP energy -178579.456754 kJ/mol
# GULP energy per Si atom -5580.608024 kJ/mol
# Density = 2.019356 g / cm^3
# Si number density = 20.239630 Si / 1000 Ang^3
#
#
#
# Elastic Constant Matrix: (Units=GPa)
#
#
# Indices 1 2 3 4 5 6 
#
# 1 184.9808 62.0407 62.7865 0.0000 0.0000 0.0000
# 2 62.0407 118.0275 36.7718 0.0000 0.0000 0.0000
# 3 62.7865 36.7718 125.8174 0.0000 0.0000 0.0000
# 4 0.0000 0.0000 0.0000 -30.9176 0.0000 0.0000
# 5 0.0000 0.0000 0.0000 0.0000 14.1996 0.0000
# 6 0.0000 0.0000 0.0000 0.0000 0.0000 27.3714
#
#
#
# Elastic Compliance Matrix: (Units=1/GPa)
#
#
# Indices 1 2 3 4 5 6 
#
# 1 0.007361 -0.002998 -0.002797 0.000000 0.000000 0.000000
# 2 -0.002998 0.010542 -0.001585 0.000000 0.000000 0.000000
# 3 -0.002797 -0.001585 0.009807 0.000000 0.000000 0.000000
# 4 0.000000 0.000000 0.000000 -0.032344 0.000000 0.000000
# 5 0.000000 0.000000 0.000000 0.000000 0.070425 0.000000
# 6 0.000000 0.000000 0.000000 0.000000 0.000000 0.036535
#
#
# Mechanical properties :
#
#
# Convention : Reuss Voigt Hill
#
# Bulk Modulus (GPa) = 77.21913 83.55818 80.38866
# Shear Modulus (GPa) = 41.18553 19.94578 30.56566
#
# Velocity S-wave (km/s) = 4.51588 3.14264 3.89033
# Velocity P-wave (km/s) = 8.08864 7.38528 7.74495
#
# Compressibility (1/GPa) = 0.01295016
#
# Stress axis : x y z
#
# Youngs Moduli (GPa) = 135.85536 94.85690 101.96641
#
# Poissons Ratio (x) = 0.28435 0.28521
# Poissons Ratio (y) = 0.40726 0.16163
# Poissons Ratio (z) = 0.38000 0.15036
#
# Static dielectric constant tensor:
#      x y z
#    x 1.773580 0.000000 0.000000 
#    y 0.000000 1.763830 0.000000 
#    z 0.000000 0.000000 1.775160 
# 
# From -- ./inp_files/36243.got.cif
#   From: 2010.05.17/outbox.cif.g08.bks.cpg/sg21_19_cif.got.tgz:36243.got - 2010.06.03 23:14:55.
