data_PCOD9325538
_publ_section_title
;
Structure prediction by ZEFSAII (Michael W. Deem and Ramdas Pophale) SiO2 
 PCOD9325538
Probable space group: C 2 2 2
;
_chemical_formula_sum "Si O2"
_cell_formula_units_Z 40
_cell_length_a 11.290982
_cell_length_b 10.302726
_cell_length_c 15.327250
_cell_angle_alpha 90.000000
_cell_angle_beta 90.000000
_cell_angle_gamma 90.000000
_cell_volume 1782.986711
_symmetry_space_group_name_H-M "C 2 2 2"
_symmetry_group_IT_number 21
_symmetry_cell_setting 'orthorhombic'
loop_
_space_group_symop_operation_xyz
x,y,z
-x,-y,z
x,-y,-z
-x,y,-z
1/2+x,1/2+y,z
1/2-x,1/2-y,z
1/2+x,1/2-y,-z
1/2-x,1/2+y,-z
loop_
_atom_site_type_symbol
_atom_site_label
_atom_site_fract_x
_atom_site_fract_y
_atom_site_fract_z
Si Si1 0.555504 0.683908 0.594261
Si Si2 0.493300 0.359313 0.849699
Si Si3 0.320484 0.631003 0.004891
Si Si4 0.122136 0.698317 0.718947
Si Si5 0.299867 0.045516 0.601071
O O1 0.500000 0.657548 0.500000
O O2 0.438084 0.702634 0.651076
O O3 0.619922 0.824791 0.602212
O O4 0.662587 0.586347 0.618490
O O5 0.500000 0.500000 0.800836
O O6 0.368470 0.342550 0.898093
O O7 0.533995 0.229700 0.799596
O O8 0.579310 0.385320 0.931793
O O9 0.250000 0.750000 0.972708
O O10 0.246687 0.500000 0.000000
O O11 0.250000 0.750000 0.746461
O O12 0.147099 0.562187 0.668248
O O13 0.304923 0.000000 0.500000
#
# Coordination Sequence:
#
# PCOD9325538 Si02
#       5
#     8   8   8   8   8
#     4  11  24  44  66  91 131 180 233 292 359 424
#     4   9  21  41  65  96 141 179 225 282 349 424
#     4   9  18  41  71  99 132 184 228 278 349 428
#     4  12  25  39  65 100 132 175 230 293 345 413
#     4  11  24  44  66  92 129 180 233 291 361 424
#
# _framework density 22.434266000000001
#
# number of rings (size 3 to 8) (size 9 to 14) (size 15 to 20)
#    0.000    1.600    2.000    3.600    2.800    2.000 
#    3.600    8.000    0.000    0.000    0.000    0.000 
#    0.000    0.000    0.000    0.000    0.000    0.000 
#
# Total GULP energy -111377.988557 kJ/mol
# GULP energy per Si atom -5568.899428 kJ/mol
# Density = 2.238321 g / cm^3
# Si number density = 22.434266 Si / 1000 Ang^3
#
#
#
# Elastic Constant Matrix: (Units=GPa)
#
#
# Indices 1 2 3 4 5 6 
#
# 1 79.6736 47.6019 13.5620 0.0000 0.0000 0.0000
# 2 47.6019 162.1801 44.3581 0.0000 0.0000 0.0000
# 3 13.5620 44.3581 76.8727 0.0000 0.0000 0.0000
# 4 0.0000 0.0000 0.0000 3.2803 0.0000 0.0000
# 5 0.0000 0.0000 0.0000 0.0000 18.5838 0.0000
# 6 0.0000 0.0000 0.0000 0.0000 0.0000 36.2082
#
#
#
# Elastic Compliance Matrix: (Units=1/GPa)
#
#
# Indices 1 2 3 4 5 6 
#
# 1 0.015221 -0.004433 -0.000128 0.000000 0.000000 0.000000
# 2 -0.004433 0.008612 -0.004188 0.000000 0.000000 0.000000
# 3 -0.000128 -0.004188 0.015447 0.000000 0.000000 0.000000
# 4 0.000000 0.000000 0.000000 0.304846 0.000000 0.000000
# 5 0.000000 0.000000 0.000000 0.000000 0.053810 0.000000
# 6 0.000000 0.000000 0.000000 0.000000 0.000000 0.027618
#
#
# Mechanical properties :
#
#
# Convention : Reuss Voigt Hill
#
# Bulk Modulus (GPa) = 45.90242 58.86336 52.38289
# Shear Modulus (GPa) = 11.10339 25.82810 18.46574
#
# Velocity S-wave (km/s) = 2.22712 3.39673 2.87209
# Velocity P-wave (km/s) = 5.20756 6.45591 5.86504
#
# Compressibility (1/GPa) = 0.02178534
#
# Stress axis : x y z
#
# Youngs Moduli (GPa) = 65.69735 116.11143 64.73584
#
# Poissons Ratio (x) = 0.51469 0.00825
# Poissons Ratio (y) = 0.29122 0.27109
# Poissons Ratio (z) = 0.00838 0.48623
#
# Static dielectric constant tensor:
#      x y z
#    x 1.911900 0.000000 0.000000 
#    y 0.000000 1.931830 0.000000 
#    z 0.000000 0.000000 1.921740 
# 
# From -- ./inp_files/31377.got.cif
#   From: 2010.05.17/outbox.cif.g08.bks.cpg/sg21_16_cif.got.tgz:31377.got - 2010.06.03 23:14:55.
