data_PCOD9325256
_publ_section_title
;
Structure prediction by ZEFSAII (Michael W. Deem and Ramdas Pophale) SiO2 
 PCOD9325256
Probable space group: C 2 2 2
;
_chemical_formula_sum "Si O2"
_cell_formula_units_Z 48
_cell_length_a 12.978494
_cell_length_b 16.670438
_cell_length_c 10.374146
_cell_angle_alpha 90.000000
_cell_angle_beta 90.000000
_cell_angle_gamma 90.000000
_cell_volume 2244.520969
_symmetry_space_group_name_H-M "C 2 2 2"
_symmetry_group_IT_number 21
_symmetry_cell_setting 'orthorhombic'
loop_
_space_group_symop_operation_xyz
x,y,z
-x,-y,z
x,-y,-z
-x,y,-z
1/2+x,1/2+y,z
1/2-x,1/2-y,z
1/2+x,1/2-y,-z
1/2-x,1/2+y,-z
loop_
_atom_site_type_symbol
_atom_site_label
_atom_site_fract_x
_atom_site_fract_y
_atom_site_fract_z
Si Si1 0.205599 0.949223 0.128944
Si Si2 0.632644 0.279733 0.528079
Si Si3 0.929456 0.391729 0.618513
Si Si4 0.440370 0.882396 0.132194
Si Si5 0.866558 0.215556 0.228673
Si Si6 0.307203 0.554486 0.621292
O O1 0.326962 0.922691 0.134053
O O2 0.141038 0.867481 0.150839
O O3 0.178574 0.006337 0.248228
O O4 0.187925 0.000000 0.000000
O O5 0.750000 0.250000 0.517429
O O6 0.581901 0.204210 0.598235
O O7 0.601287 0.296025 0.378960
O O8 0.633764 0.361530 0.608214
O O9 0.815345 0.427079 0.612495
O O10 0.000000 0.417301 0.500000
O O11 0.988735 0.409962 0.749456
O O12 0.426585 0.786768 0.157149
O O13 0.500000 0.897775 0.000000
O O14 0.750000 0.250000 0.235410
O O15 0.335962 0.500000 0.500000
#
# Coordination Sequence:
#
# PCOD9325256 Si02
#       6
#     8   8   8   8   8   8
#     4  11  23  38  58  85 119 155 188 233 290 346
#     4   9  18  35  57  82 111 149 200 238 270 337
#     4  11  21  34  57  85 114 150 190 237 288 337
#     4  11  23  38  58  85 119 155 188 233 290 346
#     4   9  18  37  59  78 109 155 198 232 276 337
#     4  11  21  34  57  85 114 150 190 237 288 337
#
# _framework density 21.385408999999999
#
# number of rings (size 3 to 8) (size 9 to 14) (size 15 to 20)
#    0.000    1.667    3.333    2.000    0.000    5.333 
#    0.000    5.000    0.000    6.000    0.000    0.000 
#    0.000    0.000    0.000    0.000    0.000    0.000 
#
# Total GULP energy -134148.709635 kJ/mol
# GULP energy per Si atom -5589.529568 kJ/mol
# Density = 2.133674 g / cm^3
# Si number density = 21.385409 Si / 1000 Ang^3
#
#
#
# Elastic Constant Matrix: (Units=GPa)
#
#
# Indices 1 2 3 4 5 6 
#
# 1 33.1867 12.1564 5.4849 0.0000 0.0000 0.0000
# 2 12.1564 183.6505 68.9850 0.0000 0.0000 0.0000
# 3 5.4849 68.9850 172.7775 0.0000 0.0000 0.0000
# 4 0.0000 0.0000 0.0000 61.4018 0.0000 0.0000
# 5 0.0000 0.0000 0.0000 0.0000 0.2684 0.0000
# 6 0.0000 0.0000 0.0000 0.0000 0.0000 37.5604
#
#
#
# Elastic Compliance Matrix: (Units=1/GPa)
#
#
# Indices 1 2 3 4 5 6 
#
# 1 0.030887 -0.001972 -0.000193 0.000000 0.000000 0.000000
# 2 -0.001972 0.006532 -0.002545 0.000000 0.000000 0.000000
# 3 -0.000193 -0.002545 0.006810 0.000000 0.000000 0.000000
# 4 0.000000 0.000000 0.000000 0.016286 0.000000 0.000000
# 5 0.000000 0.000000 0.000000 0.000000 3.725283 0.000000
# 6 0.000000 0.000000 0.000000 0.000000 0.000000 0.026624
#
#
# Mechanical properties :
#
#
# Convention : Reuss Voigt Hill
#
# Bulk Modulus (GPa) = 28.72916 62.54081 45.63499
# Shear Modulus (GPa) = 1.30431 40.04536 20.67484
#
# Velocity S-wave (km/s) = 0.78181 4.33200 3.11267
# Velocity P-wave (km/s) = 3.77864 7.37087 5.85696
#
# Compressibility (1/GPa) = 0.03480784
#
# Stress axis : x y z
#
# Youngs Moduli (GPa) = 32.37632 153.09795 146.83849
#
# Poissons Ratio (x) = 0.30190 0.02837
# Poissons Ratio (y) = 0.06384 0.37375
# Poissons Ratio (z) = 0.00625 0.38969
#
# Static dielectric constant tensor:
#      x y z
#    x 1.789480 0.000000 0.000000 
#    y 0.000000 1.783000 0.000000 
#    z 0.000000 0.000000 1.717220 
# 
# From -- ./inp_files/14944.got.cif
#   From: 2010.05.17/outbox.cif.g08.bks.cpg/sg21_8_cif.got.tgz:14944.got - 2010.06.03 23:14:55.
