data_PCOD9325916
_publ_section_title
;
Structure prediction by ZEFSAII (Michael W. Deem and Ramdas Pophale) SiO2 
 PCOD9325916
Probable space group: F 2 2 2
;
_chemical_formula_sum "Si O2"
_cell_formula_units_Z 104
_cell_length_a 14.729670
_cell_length_b 16.551283
_cell_length_c 20.215041
_cell_angle_alpha 90.000000
_cell_angle_beta 90.000000
_cell_angle_gamma 90.000000
_cell_volume 4928.324640
_symmetry_space_group_name_H-M "F 2 2 2"
_symmetry_group_IT_number 22
_symmetry_cell_setting 'orthorhombic'
loop_
_space_group_symop_operation_xyz
x,y,z
-x,-y,z
x,-y,-z
-x,y,-z
x,1/2+y,1/2+z
-x,1/2-y,1/2+z
x,1/2-y,1/2-z
-x,1/2+y,1/2-z
1/2+x,y,1/2+z
1/2-x,-y,1/2+z
1/2+x,-y,1/2-z
1/2-x,y,1/2-z
1/2+x,1/2+y,z
1/2-x,1/2-y,z
1/2+x,1/2-y,-z
1/2-x,1/2+y,-z
loop_
_atom_site_type_symbol
_atom_site_label
_atom_site_fract_x
_atom_site_fract_y
_atom_site_fract_z
Si Si1 0.239144 0.912202 0.600307
Si Si2 0.250000 0.250000 0.031281
Si Si3 0.750000 0.077854 0.750000
Si Si4 0.683627 0.909621 0.877784
Si Si5 0.586150 0.045407 0.244462
Si Si6 0.916189 0.271102 0.047866
Si Si7 0.598366 0.382684 0.115986
Si Si8 0.380026 0.500000 0.000000
O O1 0.210835 0.828019 0.568203
O O2 0.252078 0.884695 0.676930
O O3 0.319473 0.946355 0.552109
O O4 0.179077 0.994374 0.605504
O O5 0.164906 0.222851 0.988202
O O6 0.662379 0.021406 0.744289
O O7 0.634834 0.895835 0.807471
O O8 0.629744 0.853510 0.928109
O O9 0.790832 0.887789 0.876236
O O10 0.561249 0.082990 0.314958
O O11 0.500000 0.000000 0.214393
O O12 0.938254 0.207782 0.105777
O O13 0.000000 0.284152 0.000000
O O14 0.573660 0.437958 0.052149
#
# Coordination Sequence:
#
# PCOD9325916 Si02
#       8
#    16   8   8  16  16  16  16   8
#     4  10  20  36  71  89 130 181 234 278 362 421
#     4  12  22  43  62  97 136 180 226 314 338 427
#     4  10  20  41  58  93 134 180 228 290 353 435
#     4  10  21  45  67  94 137 194 234 287 365 440
#     4  11  22  38  68 100 136 181 243 297 346 439
#     4  12  26  41  67 102 141 178 246 302 355 424
#     4  11  20  40  68  97 135 187 233 297 363 423
#     4  10  16  34  67  92 123 180 222 276 361 424
#
# _framework density 21.102505000000001
#
# number of rings (size 3 to 8) (size 9 to 14) (size 15 to 20)
#    0.000    1.231    7.692    0.923    0.000    5.846 
#    0.000    2.308    0.000    5.538    0.000    0.000 
#    0.000    0.000    0.000    0.000    0.000    0.000 
#
# Total GULP energy -144792.654218 kJ/mol
# GULP energy per Si atom -5568.948239 kJ/mol
# Density = 2.105447 g / cm^3
# Si number density = 21.102505 Si / 1000 Ang^3
#
#
#
# Elastic Constant Matrix: (Units=GPa)
#
#
# Indices 1 2 3 4 5 6 
#
# 1 57.8185 0.1566 5.7372 0.0000 0.0000 0.0000
# 2 0.1566 87.9730 25.7152 0.0000 0.0000 0.0000
# 3 5.7372 25.7152 128.0833 0.0000 0.0000 0.0000
# 4 0.0000 0.0000 0.0000 24.0219 0.0000 0.0000
# 5 0.0000 0.0000 0.0000 0.0000 25.6582 0.0000
# 6 0.0000 0.0000 0.0000 0.0000 0.0000 14.5524
#
#
#
# Elastic Compliance Matrix: (Units=1/GPa)
#
#
# Indices 1 2 3 4 5 6 
#
# 1 0.017376 0.000209 -0.000820 0.000000 0.000000 0.000000
# 2 0.000209 0.012078 -0.002434 0.000000 0.000000 0.000000
# 3 -0.000820 -0.002434 0.008333 0.000000 0.000000 0.000000
# 4 0.000000 0.000000 0.000000 0.041629 0.000000 0.000000
# 5 0.000000 0.000000 0.000000 0.000000 0.038974 0.000000
# 6 0.000000 0.000000 0.000000 0.000000 0.000000 0.068717
#
#
# Mechanical properties :
#
#
# Convention : Reuss Voigt Hill
#
# Bulk Modulus (GPa) = 31.54964 37.45475 34.50220
# Shear Modulus (GPa) = 24.53817 28.99755 26.76786
#
# Velocity S-wave (km/s) = 3.41370 3.71095 3.56542
# Velocity P-wave (km/s) = 5.52457 6.01240 5.77364
#
# Compressibility (1/GPa) = 0.03169608
#
# Stress axis : x y z
#
# Youngs Moduli (GPa) = 57.54950 82.79299 120.00629
#
# Poissons Ratio (x) = -0.01729 0.09844
# Poissons Ratio (y) = -0.01202 0.29213
# Poissons Ratio (z) = 0.04721 0.20154
#
# Static dielectric constant tensor:
#      x y z
#    x 1.726630 0.000000 0.000000 
#    y 0.000000 1.782380 0.000000 
#    z 0.000000 0.000000 2.018780 
# 
# From -- ./inp_files/43660.got.cif
#   From: 2010.05.17/outbox.cif.g08.bks.cpg/sg22_22_cif.got.tgz:43660.got - 2010.06.03 23:40:54.
