data_PCOD9325378
_publ_section_title
;
Structure prediction by ZEFSAII (Michael W. Deem and Ramdas Pophale) SiO2 
 PCOD9325378
Probable space group: C 2 2 2
;
_chemical_formula_sum "Si O2"
_cell_formula_units_Z 58
_cell_length_a 26.747589
_cell_length_b 11.171571
_cell_length_c 8.970676
_cell_angle_alpha 90.000000
_cell_angle_beta 90.000000
_cell_angle_gamma 90.000000
_cell_volume 2680.550926
_symmetry_space_group_name_H-M "C 2 2 2"
_symmetry_group_IT_number 21
_symmetry_cell_setting 'orthorhombic'
loop_
_space_group_symop_operation_xyz
x,y,z
-x,-y,z
x,-y,-z
-x,y,-z
1/2+x,1/2+y,z
1/2-x,1/2-y,z
1/2+x,1/2-y,-z
1/2-x,1/2+y,-z
loop_
_atom_site_type_symbol
_atom_site_label
_atom_site_fract_x
_atom_site_fract_y
_atom_site_fract_z
Si Si1 0.424430 0.040543 0.263138
Si Si2 0.696199 0.757667 0.480160
Si Si3 0.301518 0.543126 0.756018
Si Si4 0.554961 0.805884 0.546222
Si Si5 0.128992 0.184838 0.731133
Si Si6 0.500000 0.000000 0.000000
Si Si7 0.810310 0.547826 0.229095
Si Si8 0.194393 0.242210 0.991865
O O1 0.421792 0.149915 0.384792
O O2 0.460496 0.061902 0.118836
O O3 0.367266 0.003426 0.221993
O O4 0.445503 0.926151 0.353161
O O5 0.750000 0.750000 0.552074
O O6 0.692965 0.639278 0.377617
O O7 0.656777 0.763908 0.607609
O O8 0.692548 0.872183 0.377470
O O9 0.343841 0.443857 0.734072
O O10 0.245080 0.488343 0.765000
O O11 0.307494 0.624833 0.903053
O O12 0.500000 0.770501 0.500000
O O13 0.575196 0.701771 0.658194
O O14 0.146175 0.237547 0.887825
O O15 0.807384 0.641014 0.093480
O O16 0.250000 0.250000 0.921705
#
# Coordination Sequence:
#
# PCOD9325378 Si02
#       8
#     8   8   8   8   8   2   8   8
#     4  11  22  42  64  91 125 164 211 271 331 384
#     4   9  18  34  56  84 120 162 208 246 311 387
#     4   9  20  38  56  86 137 173 205 261 315 389
#     4  11  24  44  60  85 129 162 208 284 329 369
#     4  12  21  34  60  90 118 172 217 256 321 385
#     4  12  24  38  72  92 112 168 224 256 332 408
#     4   9  19  38  58  86 127 174 202 260 325 378
#     4   9  20  36  56  89 138 174 209 258 312 384
#
# _framework density 21.637343000000001
#
# number of rings (size 3 to 8) (size 9 to 14) (size 15 to 20)
#    0.000    1.931    2.759    3.310    1.931    2.207 
#    4.966    0.000    0.000    1.655    0.000    0.000 
#    8.276    0.000    0.000    0.000    0.000    0.000 
#
# Total GULP energy -161557.675197 kJ/mol
# GULP energy per Si atom -5570.954317 kJ/mol
# Density = 2.158810 g / cm^3
# Si number density = 21.637343 Si / 1000 Ang^3
#
#
#
# Elastic Constant Matrix: (Units=GPa)
#
#
# Indices 1 2 3 4 5 6 
#
# 1 132.8701 35.0921 39.7458 0.0000 0.0000 0.0000
# 2 35.0921 83.5802 32.4604 0.0000 0.0000 0.0000
# 3 39.7458 32.4604 108.5516 0.0000 0.0000 0.0000
# 4 0.0000 0.0000 0.0000 14.0238 0.0000 0.0000
# 5 0.0000 0.0000 0.0000 0.0000 82.0187 0.0000
# 6 0.0000 0.0000 0.0000 0.0000 0.0000 104.2508
#
#
#
# Elastic Compliance Matrix: (Units=1/GPa)
#
#
# Indices 1 2 3 4 5 6 
#
# 1 0.009007 -0.002829 -0.002452 0.000000 0.000000 0.000000
# 2 -0.002829 0.014426 -0.003278 0.000000 0.000000 0.000000
# 3 -0.002452 -0.003278 0.011090 0.000000 0.000000 0.000000
# 4 0.000000 0.000000 0.000000 0.071307 0.000000 0.000000
# 5 0.000000 0.000000 0.000000 0.000000 0.012192 0.000000
# 6 0.000000 0.000000 0.000000 0.000000 0.000000 0.009592
#
#
# Mechanical properties :
#
#
# Convention : Reuss Voigt Hill
#
# Bulk Modulus (GPa) = 57.45594 59.95540 58.70567
# Shear Modulus (GPa) = 33.21515 54.57220 43.89368
#
# Velocity S-wave (km/s) = 3.92227 5.02753 4.50889
# Velocity P-wave (km/s) = 6.86469 7.84033 7.36867
#
# Compressibility (1/GPa) = 0.01740464
#
# Stress axis : x y z
#
# Youngs Moduli (GPa) = 111.02700 69.32163 90.17096
#
# Poissons Ratio (x) = 0.19614 0.22107
# Poissons Ratio (y) = 0.31414 0.29555
# Poissons Ratio (z) = 0.27221 0.22722
#
# Static dielectric constant tensor:
#      x y z
#    x 2.050040 0.000000 0.000000 
#    y 0.000000 1.789500 0.000000 
#    z 0.000000 0.000000 1.839860 
# 
# From -- ./inp_files/19188.got.cif
#   From: 2010.05.17/outbox.cif.g08.bks.cpg/sg21_10_cif.got.tgz:19188.got - 2010.06.03 23:14:55.
