data_PCOD9325477
_publ_section_title
;
Structure prediction by ZEFSAII (Michael W. Deem and Ramdas Pophale) SiO2 
 PCOD9325477
Probable space group: C 2 2 2
;
_chemical_formula_sum "Si O2"
_cell_formula_units_Z 44
_cell_length_a 15.724597
_cell_length_b 26.955701
_cell_length_c 5.200651
_cell_angle_alpha 90.000000
_cell_angle_beta 90.000000
_cell_angle_gamma 90.000000
_cell_volume 2204.387120
_symmetry_space_group_name_H-M "C 2 2 2"
_symmetry_group_IT_number 21
_symmetry_cell_setting 'orthorhombic'
loop_
_space_group_symop_operation_xyz
x,y,z
-x,-y,z
x,-y,-z
-x,y,-z
1/2+x,1/2+y,z
1/2-x,1/2-y,z
1/2+x,1/2-y,-z
1/2-x,1/2+y,-z
loop_
_atom_site_type_symbol
_atom_site_label
_atom_site_fract_x
_atom_site_fract_y
_atom_site_fract_z
Si Si1 0.812045 0.500000 0.500000
Si Si2 0.315107 0.447561 0.126434
Si Si3 0.729741 0.692521 0.336266
Si Si4 0.058137 0.862297 0.749639
Si Si5 0.557469 0.930070 0.753286
Si Si6 0.789042 0.363739 0.153512
O O1 0.752785 0.538704 0.348266
O O2 0.874815 0.526564 0.699055
O O3 0.392742 0.415062 0.231282
O O4 0.339774 0.500000 0.000000
O O5 0.268501 0.411466 0.922925
O O6 0.750000 0.750000 0.371415
O O7 0.632043 0.679017 0.270631
O O8 0.753264 0.662758 0.594266
O O9 0.782341 0.671382 0.094452
O O10 0.000000 0.860876 0.500000
O O11 0.000000 0.855803 0.000000
O O12 0.500000 0.925577 0.500000
O O13 0.615711 0.882075 0.798366
O O14 0.500000 0.939235 0.000000
#
# Coordination Sequence:
#
# PCOD9325477 Si02
#       6
#     4   8   8   8   8   8
#     4  12  25  40  65  90 136 188 248 264 311 412
#     4  11  24  41  68  95 136 192 225 265 329 412
#     4  11  24  47  77  97 125 182 231 274 349 426
#     4  11  25  45  66 102 141 168 218 290 342 391
#     4  12  25  40  60  94 134 177 224 287 341 378
#     4  11  23  44  66  98 136 173 231 283 330 418
#
# _framework density 19.960194999999999
#
# number of rings (size 3 to 8) (size 9 to 14) (size 15 to 20)
#    0.000    0.727    1.818    7.364    2.545    2.545 
#    0.000    5.455    0.000    0.000    0.000    0.000 
#    0.000    0.000    0.000    0.000    0.000    0.000 
#
# Total GULP energy -123148.989601 kJ/mol
# GULP energy per Si atom -5597.681345 kJ/mol
# Density = 1.991476 g / cm^3
# Si number density = 19.960195 Si / 1000 Ang^3
#
#
#
# Elastic Constant Matrix: (Units=GPa)
#
#
# Indices 1 2 3 4 5 6 
#
# 1 124.3487 75.1335 81.5001 0.0000 0.0000 0.0000
# 2 75.1335 139.7552 69.4176 0.0000 0.0000 0.0000
# 3 81.5001 69.4176 191.1819 0.0000 0.0000 0.0000
# 4 0.0000 0.0000 0.0000 23.0736 0.0000 0.0000
# 5 0.0000 0.0000 0.0000 0.0000 37.3908 0.0000
# 6 0.0000 0.0000 0.0000 0.0000 0.0000 28.9895
#
#
#
# Elastic Compliance Matrix: (Units=1/GPa)
#
#
# Indices 1 2 3 4 5 6 
#
# 1 0.013986 -0.005560 -0.003943 0.000000 0.000000 0.000000
# 2 -0.005560 0.010940 -0.001602 0.000000 0.000000 0.000000
# 3 -0.003943 -0.001602 0.007493 0.000000 0.000000 0.000000
# 4 0.000000 0.000000 0.000000 0.043340 0.000000 0.000000
# 5 0.000000 0.000000 0.000000 0.000000 0.026745 0.000000
# 6 0.000000 0.000000 0.000000 0.000000 0.000000 0.034495
#
#
# Mechanical properties :
#
#
# Convention : Reuss Voigt Hill
#
# Bulk Modulus (GPa) = 97.95835 100.82091 99.38963
# Shear Modulus (GPa) = 30.74779 33.17309 31.96044
#
# Velocity S-wave (km/s) = 3.92912 4.08114 4.00585
# Velocity P-wave (km/s) = 8.35269 8.53395 8.44380
#
# Compressibility (1/GPa) = 0.01020842
#
# Stress axis : x y z
#
# Youngs Moduli (GPa) = 71.49995 91.40409 133.45232
#
# Poissons Ratio (x) = 0.50824 0.52623
# Poissons Ratio (y) = 0.39757 0.21380
# Poissons Ratio (z) = 0.28194 0.14644
#
# Static dielectric constant tensor:
#      x y z
#    x 1.686180 0.000000 0.000000 
#    y 0.000000 1.716180 0.000000 
#    z 0.000000 0.000000 1.708330 
# 
# From -- ./inp_files/4027.got.cif
#   From: 2010.05.17/outbox.cif.g08.bks.cpg/sg21_3_cif.got.tgz:4027.got - 2010.06.03 23:14:55.
