data_PCOD9325889
_publ_section_title
;
Structure prediction by ZEFSAII (Michael W. Deem and Ramdas Pophale) SiO2 
 PCOD9325889
Probable space group: F 2 2 2
;
_chemical_formula_sum "Si O2"
_cell_formula_units_Z 100
_cell_length_a 24.009862
_cell_length_b 12.664604
_cell_length_c 14.378771
_cell_angle_alpha 90.000000
_cell_angle_beta 90.000000
_cell_angle_gamma 90.000000
_cell_volume 4372.230462
_symmetry_space_group_name_H-M "F 2 2 2"
_symmetry_group_IT_number 22
_symmetry_cell_setting 'orthorhombic'
loop_
_space_group_symop_operation_xyz
x,y,z
-x,-y,z
x,-y,-z
-x,y,-z
x,1/2+y,1/2+z
-x,1/2-y,1/2+z
x,1/2-y,1/2-z
-x,1/2+y,1/2-z
1/2+x,y,1/2+z
1/2-x,-y,1/2+z
1/2+x,-y,1/2-z
1/2-x,y,1/2-z
1/2+x,1/2+y,z
1/2-x,1/2-y,z
1/2+x,1/2-y,-z
1/2-x,1/2+y,-z
loop_
_atom_site_type_symbol
_atom_site_label
_atom_site_fract_x
_atom_site_fract_y
_atom_site_fract_z
Si Si1 0.750000 0.250000 0.750000
Si Si2 0.361640 0.362334 0.853521
Si Si3 0.818864 0.575682 0.151720
Si Si4 0.984463 0.650715 0.688584
Si Si5 0.000000 0.764753 0.500000
Si Si6 0.750000 0.597195 0.750000
Si Si7 0.605414 0.584094 0.167745
Si Si8 0.880798 0.284183 0.969931
O O1 0.782588 0.325629 0.817279
O O2 0.418321 0.361500 0.789402
O O3 0.303183 0.350138 0.799990
O O4 0.368491 0.484334 0.887182
O O5 0.364367 0.276457 0.935546
O O6 0.780240 0.475034 0.170768
O O7 0.866372 0.576921 0.231331
O O8 0.843817 0.614945 0.055154
O O9 0.003784 0.750000 0.750000
O O10 0.982180 0.688457 0.582625
O O11 0.039045 0.575993 0.685626
O O12 0.055608 0.825529 0.525021
O O13 0.617604 0.692289 0.110831
#
# Coordination Sequence:
#
# PCOD9325889 Si02
#       8
#     4  16  16  16   8   8  16  16
#     4  10  16  28  48  84 114 146 186 248 284 344
#     4  10  21  35  55  82 118 159 192 246 299 357
#     4  10  18  31  57  85 114 149 198 250 294 357
#     4  10  19  33  58  84 117 155 199 239 298 369
#     4   8  18  30  51  88 113 136 180 240 286 354
#     4   9  22  39  57  82 119 158 206 249 295 350
#     4  10  17  31  54  90 118 144 183 242 310 361
#     4  10  17  31  55  87 117 146 186 238 305 356
#
# _framework density 22.871621000000001
#
# number of rings (size 3 to 8) (size 9 to 14) (size 15 to 20)
#    0.000    2.240    1.600    2.880    0.000    0.000 
#    0.000    5.200    7.040    0.000    0.000   20.160 
#    0.000    0.000    0.000    0.000    0.000    0.000 
#
# Total GULP energy -139204.991966 kJ/mol
# GULP energy per Si atom -5568.199679 kJ/mol
# Density = 2.281956 g / cm^3
# Si number density = 22.871621 Si / 1000 Ang^3
#
#
#
# Elastic Constant Matrix: (Units=GPa)
#
#
# Indices 1 2 3 4 5 6 
#
# 1 181.7899 42.2833 49.4142 0.0000 0.0000 0.0000
# 2 42.2833 60.6138 41.9520 0.0000 0.0000 0.0000
# 3 49.4142 41.9520 52.6710 0.0000 0.0000 0.0000
# 4 0.0000 0.0000 0.0000 40.9089 0.0000 0.0000
# 5 0.0000 0.0000 0.0000 0.0000 28.7510 0.0000
# 6 0.0000 0.0000 0.0000 0.0000 0.0000 64.2295
#
#
#
# Elastic Compliance Matrix: (Units=1/GPa)
#
#
# Indices 1 2 3 4 5 6 
#
# 1 0.007401 -0.000796 -0.006309 0.000000 0.000000 0.000000
# 2 -0.000796 0.036851 -0.028605 0.000000 0.000000 0.000000
# 3 -0.006309 -0.028605 0.047689 0.000000 0.000000 0.000000
# 4 0.000000 0.000000 0.000000 0.024445 0.000000 0.000000
# 5 0.000000 0.000000 0.000000 0.000000 0.034781 0.000000
# 6 0.000000 0.000000 0.000000 0.000000 0.000000 0.015569
#
#
# Mechanical properties :
#
#
# Convention : Reuss Voigt Hill
#
# Bulk Modulus (GPa) = 48.73235 62.48600 55.60917
# Shear Modulus (GPa) = 20.40843 37.53955 28.97399
#
# Velocity S-wave (km/s) = 2.99039 4.05571 3.56309
# Velocity P-wave (km/s) = 5.76857 7.02220 6.42603
#
# Compressibility (1/GPa) = 0.02052025
#
# Stress axis : x y z
#
# Youngs Moduli (GPa) = 135.11646 27.13614 20.96933
#
# Poissons Ratio (x) = 0.02160 0.13230
# Poissons Ratio (y) = 0.10755 0.59983
# Poissons Ratio (z) = 0.85250 0.77623
#
# Static dielectric constant tensor:
#      x y z
#    x 1.949390 0.000000 0.000000 
#    y 0.000000 1.933100 0.000000 
#    z 0.000000 0.000000 1.868870 
# 
# From -- ./inp_files/32502.got.cif
#   From: 2010.05.17/outbox.cif.g08.bks.cpg/sg22_17_cif.got.tgz:32502.got - 2010.06.03 23:40:54.
