data_PCOD9325634
_publ_section_title
;
Structure prediction by ZEFSAII (Michael W. Deem and Ramdas Pophale) SiO2 
 PCOD9325634
Probable space group: C 2 2 2
;
_chemical_formula_sum "Si O2"
_cell_formula_units_Z 28
_cell_length_a 10.115395
_cell_length_b 10.572478
_cell_length_c 8.876810
_cell_angle_alpha 90.000000
_cell_angle_beta 90.000000
_cell_angle_gamma 90.000000
_cell_volume 949.328591
_symmetry_space_group_name_H-M "C 2 2 2"
_symmetry_group_IT_number 21
_symmetry_cell_setting 'orthorhombic'
loop_
_space_group_symop_operation_xyz
x,y,z
-x,-y,z
x,-y,-z
-x,y,-z
1/2+x,1/2+y,z
1/2-x,1/2-y,z
1/2+x,1/2-y,-z
1/2-x,1/2+y,-z
loop_
_atom_site_type_symbol
_atom_site_label
_atom_site_fract_x
_atom_site_fract_y
_atom_site_fract_z
Si Si1 0.145680 0.670498 0.940600
Si Si2 0.326646 0.500000 0.000000
Si Si3 0.470291 0.177149 0.664889
Si Si4 0.181122 0.935104 0.334767
O O1 0.160818 0.500000 0.000000
O O2 0.307532 0.665905 0.977811
O O3 0.895906 0.663603 0.236629
O O4 0.000000 0.687742 0.000000
O O5 0.364803 0.504293 0.177455
O O6 0.500000 0.131223 0.500000
O O7 0.330881 0.111117 0.707477
O O8 0.421045 0.320143 0.651379
O O9 0.184003 0.000000 0.500000
#
# Coordination Sequence:
#
# PCOD9325634 Si02
#       4
#     8   4   8   8
#     4  12  26  47  76 113 155 204 263 327 396 475
#     4  12  25  46  81 110 147 200 269 318 391 474
#     4  11  26  47  74 107 157 202 256 328 391 464
#     4  11  26  49  76 113 152 203 266 321 393 472
#
# _framework density 29.494529
#
# number of rings (size 3 to 8) (size 9 to 14) (size 15 to 20)
#    0.000    0.571    2.857    3.857    8.000    3.429 
#    0.000    5.000    0.000    0.000    0.000    0.000 
#    0.000    0.000    0.000    0.000    0.000    0.000 
#
# Total GULP energy -77984.317458 kJ/mol
# GULP energy per Si atom -5570.308390 kJ/mol
# Density = 2.942740 g / cm^3
# Si number density = 29.494529 Si / 1000 Ang^3
#
#
#
# Elastic Constant Matrix: (Units=GPa)
#
#
# Indices 1 2 3 4 5 6 
#
# 1 266.0607 64.6636 62.2205 0.0000 0.0000 0.0000
# 2 64.6636 215.1561 73.1470 0.0000 0.0000 0.0000
# 3 62.2205 73.1470 260.8837 0.0000 0.0000 0.0000
# 4 0.0000 0.0000 0.0000 48.4744 0.0000 0.0000
# 5 0.0000 0.0000 0.0000 0.0000 -100.7534 0.0000
# 6 0.0000 0.0000 0.0000 0.0000 0.0000 59.4821
#
#
#
# Elastic Compliance Matrix: (Units=1/GPa)
#
#
# Indices 1 2 3 4 5 6 
#
# 1 0.004171 -0.001012 -0.000711 0.000000 0.000000 0.000000
# 2 -0.001012 0.005383 -0.001268 0.000000 0.000000 0.000000
# 3 -0.000711 -0.001268 0.004358 0.000000 0.000000 0.000000
# 4 0.000000 0.000000 0.000000 0.020629 0.000000 0.000000
# 5 0.000000 0.000000 0.000000 0.000000 -0.009925 0.000000
# 6 0.000000 0.000000 0.000000 0.000000 0.000000 0.016812
#
#
# Mechanical properties :
#
#
# Convention : Reuss Voigt Hill
#
# Bulk Modulus (GPa) = 126.09766 126.90695 126.50231
# Shear Modulus (GPa) = 99.89435 37.57856 68.73646
#
# Velocity S-wave (km/s) = 5.82600 3.57331 4.83274
# Velocity P-wave (km/s) = 9.38627 7.75535 8.60951
#
# Compressibility (1/GPa) = 0.00793036
#
# Stress axis : x y z
#
# Youngs Moduli (GPa) = 239.76683 185.77218 229.45125
#
# Poissons Ratio (x) = 0.18795 0.16315
# Poissons Ratio (y) = 0.24258 0.29094
# Poissons Ratio (z) = 0.17048 0.23555
#
# Static dielectric constant tensor:
#      x y z
#    x 2.030130 0.000000 0.000000 
#    y 0.000000 5.383740 0.000000 
#    z 0.000000 0.000000 -6.118070 
# 
# From -- ./inp_files/13949.got.cif
#   From: 2010.05.17/outbox.cif.g08.bks.cpg/sg21_7_cif.got.tgz:13949.got - 2010.06.03 23:14:55.
