data_PCOD9325692
_publ_section_title
;
Structure prediction by ZEFSAII (Michael W. Deem and Ramdas Pophale) SiO2 
 PCOD9325692
Probable space group: C 2 2 2
;
_chemical_formula_sum "Si O2"
_cell_formula_units_Z 32
_cell_length_a 18.621555
_cell_length_b 16.413922
_cell_length_c 4.708470
_cell_angle_alpha 90.000000
_cell_angle_beta 90.000000
_cell_angle_gamma 90.000000
_cell_volume 1439.156810
_symmetry_space_group_name_H-M "C 2 2 2"
_symmetry_group_IT_number 21
_symmetry_cell_setting 'orthorhombic'
loop_
_space_group_symop_operation_xyz
x,y,z
-x,-y,z
x,-y,-z
-x,y,-z
1/2+x,1/2+y,z
1/2-x,1/2-y,z
1/2+x,1/2-y,-z
1/2-x,1/2+y,-z
loop_
_atom_site_type_symbol
_atom_site_label
_atom_site_fract_x
_atom_site_fract_y
_atom_site_fract_z
Si Si1 0.193538 0.313271 0.659489
Si Si2 0.427865 0.692596 0.153303
Si Si3 0.890631 0.081886 0.652091
Si Si4 0.771997 0.418002 0.827802
O O1 0.250000 0.250000 0.522063
O O2 0.128545 0.266225 0.812009
O O3 0.176664 0.379904 0.415610
O O4 0.236009 0.354625 0.916796
O O5 0.422043 0.655673 0.467739
O O6 0.500000 0.723048 0.000000
O O7 0.409694 0.611217 0.967912
O O8 0.804429 0.074105 0.671250
O O9 0.916988 0.000000 0.500000
O O10 0.792387 0.500000 0.000000
#
# Coordination Sequence:
#
# PCOD9325692 Si02
#       4
#     8   8   8   8
#     4  12  22  42  67  95 138 180 234 292 348 409
#     4  12  26  41  62  95 135 189 233 277 342 418
#     4  12  23  40  62  94 138 182 230 276 338 425
#     4  12  23  40  67 102 133 176 234 293 357 416
#
# _framework density 22.235240999999998
#
# number of rings (size 3 to 8) (size 9 to 14) (size 15 to 20)
#    0.000    0.000    5.000    7.500    0.000    3.000 
#    0.000    0.000    0.000    0.750    0.000    7.000 
#    0.000    0.000    0.000    0.000    0.000    0.000 
#
# Total GULP energy -89225.993697 kJ/mol
# GULP energy per Si atom -5576.624606 kJ/mol
# Density = 2.218463 g / cm^3
# Si number density = 22.235241 Si / 1000 Ang^3
#
#
#
# Elastic Constant Matrix: (Units=GPa)
#
#
# Indices 1 2 3 4 5 6 
#
# 1 81.7115 55.1196 25.8385 0.0000 0.0000 0.0000
# 2 55.1196 106.3722 43.0835 0.0000 0.0000 0.0000
# 3 25.8385 43.0835 131.5491 0.0000 0.0000 0.0000
# 4 0.0000 0.0000 0.0000 56.8768 0.0000 0.0000
# 5 0.0000 0.0000 0.0000 0.0000 19.8474 0.0000
# 6 0.0000 0.0000 0.0000 0.0000 0.0000 7.9499
#
#
#
# Elastic Compliance Matrix: (Units=1/GPa)
#
#
# Indices 1 2 3 4 5 6 
#
# 1 0.018853 -0.009534 -0.000581 0.000000 0.000000 0.000000
# 2 -0.009534 0.015660 -0.003256 0.000000 0.000000 0.000000
# 3 -0.000581 -0.003256 0.008782 0.000000 0.000000 0.000000
# 4 0.000000 0.000000 0.000000 0.017582 0.000000 0.000000
# 5 0.000000 0.000000 0.000000 0.000000 0.050384 0.000000
# 6 0.000000 0.000000 0.000000 0.000000 0.000000 0.125787
#
#
# Mechanical properties :
#
#
# Convention : Reuss Voigt Hill
#
# Bulk Modulus (GPa) = 60.40928 63.07956 61.74442
# Shear Modulus (GPa) = 18.56606 29.97423 24.27015
#
# Velocity S-wave (km/s) = 2.89274 3.67556 3.30740
# Velocity P-wave (km/s) = 6.19552 6.81497 6.51262
#
# Compressibility (1/GPa) = 0.01655375
#
# Stress axis : x y z
#
# Youngs Moduli (GPa) = 53.04157 63.85639 113.86686
#
# Poissons Ratio (x) = 0.60881 0.06611
# Poissons Ratio (y) = 0.50570 0.37077
# Poissons Ratio (z) = 0.03079 0.20793
#
# Static dielectric constant tensor:
#      x y z
#    x 1.869500 0.000000 0.000000 
#    y 0.000000 1.903870 0.000000 
#    z 0.000000 0.000000 1.832370 
# 
# From -- ./inp_files/4595.got.cif
#   From: 2010.05.17/outbox.cif.g08.bks.cpg/sg21_3_cif.got.tgz:4595.got - 2010.06.03 23:14:55.
