data_PCOD9325915
_publ_section_title
;
Structure prediction by ZEFSAII (Michael W. Deem and Ramdas Pophale) SiO2 
 PCOD9325915
Probable space group: F 2 2 2
;
_chemical_formula_sum "Si O2"
_cell_formula_units_Z 84
_cell_length_a 11.618962
_cell_length_b 11.066258
_cell_length_c 30.161349
_cell_angle_alpha 90.000000
_cell_angle_beta 90.000000
_cell_angle_gamma 90.000000
_cell_volume 3878.098937
_symmetry_space_group_name_H-M "F 2 2 2"
_symmetry_group_IT_number 22
_symmetry_cell_setting 'orthorhombic'
loop_
_space_group_symop_operation_xyz
x,y,z
-x,-y,z
x,-y,-z
-x,y,-z
x,1/2+y,1/2+z
-x,1/2-y,1/2+z
x,1/2-y,1/2-z
-x,1/2+y,1/2-z
1/2+x,y,1/2+z
1/2-x,-y,1/2+z
1/2+x,-y,1/2-z
1/2-x,y,1/2-z
1/2+x,1/2+y,z
1/2-x,1/2-y,z
1/2+x,1/2-y,-z
1/2-x,1/2+y,-z
loop_
_atom_site_type_symbol
_atom_site_label
_atom_site_fract_x
_atom_site_fract_y
_atom_site_fract_z
Si Si1 0.255355 0.550872 0.665340
Si Si2 0.500000 0.000000 0.000000
Si Si3 0.000000 0.000000 0.651791
Si Si4 0.250000 0.750000 0.911063
Si Si5 0.578577 0.617022 0.871017
Si Si6 0.549299 0.364687 0.781736
Si Si7 0.991601 0.314107 0.072088
O O1 0.385517 0.527675 0.678501
O O2 0.243795 0.636739 0.622387
O O3 0.199113 0.426824 0.648325
O O4 0.180200 0.609413 0.703804
O O5 0.555276 0.096202 0.034285
O O6 0.986519 0.890315 0.617379
O O7 0.126344 0.727314 0.935425
O O8 0.500000 0.500000 0.881307
O O9 0.512959 0.671060 0.828241
O O10 0.580898 0.697301 0.914693
O O11 0.500000 0.500000 0.770681
O O12 0.535774 0.250000 0.750000
#
# Coordination Sequence:
#
# PCOD9325915 Si02
#       7
#    16   4   8   8  16  16  16
#     4   9  18  34  61  92 125 167 223 266 328 390
#     4  10  24  40  54  92 144 170 204 282 320 398
#     4   9  20  33  60  92 120 170 212 268 318 399
#     4  10  16  34  65  86 116 170 216 264 313 406
#     4   9  17  35  63  91 119 169 219 272 322 390
#     4   9  18  36  62  99 135 169 226 289 337 398
#     4  10  19  38  60  87 130 168 215 264 326 390
#
# _framework density 21.660097
#
# number of rings (size 3 to 8) (size 9 to 14) (size 15 to 20)
#    0.000    3.048    3.810    0.000    0.000    0.762 
#    3.429    6.667    0.000    4.571    0.000    0.000 
#    0.000    0.190    0.000    0.000    0.000    0.000 
#
# Total GULP energy -116973.721355 kJ/mol
# GULP energy per Si atom -5570.177207 kJ/mol
# Density = 2.161080 g / cm^3
# Si number density = 21.660097 Si / 1000 Ang^3
#
#
#
# Elastic Constant Matrix: (Units=GPa)
#
#
# Indices 1 2 3 4 5 6 
#
# 1 99.5922 23.8481 17.5109 0.0000 0.0000 0.0000
# 2 23.8481 112.0508 60.3414 0.0000 0.0000 0.0000
# 3 17.5109 60.3414 82.9063 0.0000 0.0000 0.0000
# 4 0.0000 0.0000 0.0000 62.9194 0.0000 0.0000
# 5 0.0000 0.0000 0.0000 0.0000 5.3575 0.0000
# 6 0.0000 0.0000 0.0000 0.0000 0.0000 9.6889
#
#
#
# Elastic Compliance Matrix: (Units=1/GPa)
#
#
# Indices 1 2 3 4 5 6 
#
# 1 0.010629 -0.001732 -0.000984 0.000000 0.000000 0.000000
# 2 -0.001732 0.014960 -0.010522 0.000000 0.000000 0.000000
# 3 -0.000984 -0.010522 0.019928 0.000000 0.000000 0.000000
# 4 0.000000 0.000000 0.000000 0.015893 0.000000 0.000000
# 5 0.000000 0.000000 0.000000 0.000000 0.186654 0.000000
# 6 0.000000 0.000000 0.000000 0.000000 0.000000 0.103211
#
#
# Mechanical properties :
#
#
# Convention : Reuss Voigt Hill
#
# Bulk Modulus (GPa) = 52.52287 55.32779 53.92533
# Shear Modulus (GPa) = 13.01750 28.44975 20.73362
#
# Velocity S-wave (km/s) = 2.45417 3.62811 3.09726
# Velocity P-wave (km/s) = 5.68612 6.56886 6.14337
#
# Compressibility (1/GPa) = 0.01903932
#
# Stress axis : x y z
#
# Youngs Moduli (GPa) = 94.08429 66.84711 50.18080
#
# Poissons Ratio (x) = 0.11579 0.04939
# Poissons Ratio (y) = 0.16297 0.52801
# Poissons Ratio (z) = 0.09260 0.70337
#
# Static dielectric constant tensor:
#      x y z
#    x 1.853800 0.000000 0.000000 
#    y 0.000000 1.864790 0.000000 
#    z 0.000000 0.000000 1.776420 
# 
# From -- ./inp_files/55978.got.cif
#   From: 2010.05.17/outbox.cif.g08.bks.cpg/sg22_28_cif.got.tgz:55978.got - 2010.06.03 23:40:54.
