data_PCOD9325276
_publ_section_title
;
Structure prediction by ZEFSAII (Michael W. Deem and Ramdas Pophale) SiO2 
 PCOD9325276
Probable space group: C 2 2 2
;
_chemical_formula_sum "Si O2"
_cell_formula_units_Z 40
_cell_length_a 23.734280
_cell_length_b 9.025226
_cell_length_c 7.536110
_cell_angle_alpha 90.000000
_cell_angle_beta 90.000000
_cell_angle_gamma 90.000000
_cell_volume 1614.289331
_symmetry_space_group_name_H-M "C 2 2 2"
_symmetry_group_IT_number 21
_symmetry_cell_setting 'orthorhombic'
loop_
_space_group_symop_operation_xyz
x,y,z
-x,-y,z
x,-y,-z
-x,y,-z
1/2+x,1/2+y,z
1/2-x,1/2-y,z
1/2+x,1/2-y,-z
1/2-x,1/2+y,-z
loop_
_atom_site_type_symbol
_atom_site_label
_atom_site_fract_x
_atom_site_fract_y
_atom_site_fract_z
Si Si1 0.932680 0.338987 0.279732
Si Si2 0.254847 0.072121 0.189141
Si Si3 0.854387 0.883225 0.367723
Si Si4 0.444315 0.180829 0.286619
Si Si5 0.689225 0.808161 0.685046
O O1 0.934674 0.512403 0.228847
O O2 0.937332 0.327246 0.496481
O O3 0.871540 0.280471 0.222839
O O4 0.993108 0.273107 0.226785
O O5 0.250000 0.250000 0.177835
O O6 0.193479 0.029874 0.263582
O O7 0.300764 0.985870 0.308389
O O8 0.265372 0.000000 0.000000
O O9 0.896373 0.797167 0.240155
O O10 0.820761 0.768302 0.494499
O O11 0.884191 0.000000 0.500000
O O12 0.750000 0.750000 0.751287
#
# Coordination Sequence:
#
# PCOD9325276 Si02
#       5
#     8   8   8   8   8
#     4   8  15  29  53  83 128 158 209 267 319 388
#     4  12  27  43  64  96 140 181 223 279 345 412
#     4  11  22  36  65  97 136 172 221 281 331 406
#     4   8  15  30  51  87 122 161 207 268 328 367
#     4  11  21  38  61  94 133 170 216 270 328 397
#
# _framework density 24.778706
#
# number of rings (size 3 to 8) (size 9 to 14) (size 15 to 20)
#    0.000    2.000    2.000    3.600    0.000    6.400 
#    0.000    8.000    0.000    0.000    0.000   25.200 
#    0.000    0.000    0.000    0.000    0.000    0.000 
#
# Total GULP energy -111542.896163 kJ/mol
# GULP energy per Si atom -5577.144808 kJ/mol
# Density = 2.472231 g / cm^3
# Si number density = 24.778706 Si / 1000 Ang^3
#
#
#
# Elastic Constant Matrix: (Units=GPa)
#
#
# Indices 1 2 3 4 5 6 
#
# 1 210.9206 40.3318 12.8265 0.0000 0.0000 0.0000
# 2 40.3318 113.7011 24.4004 0.0000 0.0000 0.0000
# 3 12.8265 24.4004 67.1157 0.0000 0.0000 0.0000
# 4 0.0000 0.0000 0.0000 17.3209 0.0000 0.0000
# 5 0.0000 0.0000 0.0000 0.0000 -14.5934 0.0000
# 6 0.0000 0.0000 0.0000 0.0000 0.0000 46.9987
#
#
#
# Elastic Compliance Matrix: (Units=1/GPa)
#
#
# Indices 1 2 3 4 5 6 
#
# 1 0.005093 -0.001733 -0.000343 0.000000 0.000000 0.000000
# 2 -0.001733 0.010129 -0.003351 0.000000 0.000000 0.000000
# 3 -0.000343 -0.003351 0.016184 0.000000 0.000000 0.000000
# 4 0.000000 0.000000 0.000000 0.057734 0.000000 0.000000
# 5 0.000000 0.000000 0.000000 0.000000 -0.068524 0.000000
# 6 0.000000 0.000000 0.000000 0.000000 0.000000 0.021277
#
#
# Mechanical properties :
#
#
# Convention : Reuss Voigt Hill
#
# Bulk Modulus (GPa) = 48.66016 60.76163 54.71090
# Shear Modulus (GPa) = 83.89547 30.89048 57.39298
#
# Velocity S-wave (km/s) = 5.82507 3.53463 4.81794
# Velocity P-wave (km/s) = 8.05744 6.42130 7.28545
#
# Compressibility (1/GPa) = 0.02055069
#
# Stress axis : x y z
#
# Youngs Moduli (GPa) = 196.33298 98.72735 61.79091
#
# Poissons Ratio (x) = 0.17110 0.02122
# Poissons Ratio (y) = 0.34025 0.20708
# Poissons Ratio (z) = 0.06741 0.33086
#
# Static dielectric constant tensor:
#      x y z
#    x 2.013640 0.000000 0.000000 
#    y 0.000000 2.067980 0.000000 
#    z 0.000000 0.000000 1.979840 
# 
# From -- ./inp_files/18232.got.cif
#   From: 2010.05.17/outbox.cif.g08.bks.cpg/sg21_10_cif.got.tgz:18232.got - 2010.06.03 23:14:55.
