data_PCOD9325862
_publ_section_title
;
Structure prediction by ZEFSAII (Michael W. Deem and Ramdas Pophale) SiO2 
 PCOD9325862
Probable space group: F 2 2 2
;
_chemical_formula_sum "Si O2"
_cell_formula_units_Z 96
_cell_length_a 23.158185
_cell_length_b 8.741170
_cell_length_c 23.374332
_cell_angle_alpha 90.000000
_cell_angle_beta 90.000000
_cell_angle_gamma 90.000000
_cell_volume 4731.657424
_symmetry_space_group_name_H-M "F 2 2 2"
_symmetry_group_IT_number 22
_symmetry_cell_setting 'orthorhombic'
loop_
_space_group_symop_operation_xyz
x,y,z
-x,-y,z
x,-y,-z
-x,y,-z
x,1/2+y,1/2+z
-x,1/2-y,1/2+z
x,1/2-y,1/2-z
-x,1/2+y,1/2-z
1/2+x,y,1/2+z
1/2-x,-y,1/2+z
1/2+x,-y,1/2-z
1/2-x,y,1/2-z
1/2+x,1/2+y,z
1/2-x,1/2-y,z
1/2+x,1/2-y,-z
1/2-x,1/2+y,-z
loop_
_atom_site_type_symbol
_atom_site_label
_atom_site_fract_x
_atom_site_fract_y
_atom_site_fract_z
Si Si1 0.500000 0.000000 0.100967
Si Si2 0.946786 0.702616 0.534815
Si Si3 0.183124 0.565604 0.260400
Si Si4 0.750000 0.750000 0.958475
Si Si5 0.623395 0.992735 0.148689
Si Si6 0.851507 0.148562 0.118042
Si Si7 0.352664 0.855695 0.966854
O O1 0.475797 0.856082 0.064151
O O2 0.444337 0.038746 0.139516
O O3 0.910278 0.613939 0.583537
O O4 0.897088 0.727943 0.486773
O O5 0.000000 0.641696 0.500000
O O6 0.179701 0.750000 0.250000
O O7 0.250000 0.524073 0.250000
O O8 0.145561 0.478722 0.212988
O O9 0.160176 0.551987 0.325025
O O10 0.792461 0.852069 0.919141
O O11 0.706758 0.834226 0.000638
O O12 0.639371 0.169286 0.132068
O O13 0.652750 0.889317 0.099687
O O14 0.380242 0.000000 0.000000
#
# Coordination Sequence:
#
# PCOD9325862 Si02
#       7
#     8  16  16   8  16  16  16
#     4  10  15  22  40  68  92 116 147 186 236 292
#     4  10  15  23  41  67 100 122 143 186 241 293
#     4   9  17  28  42  62  93 120 152 191 235 282
#     4  10  18  26  43  70 101 122 150 196 226 290
#     4  10  17  26  43  67  95 126 149 190 245 283
#     4   9  17  26  40  65  96 122 150 194 239 278
#     4  11  17  26  42  68 102 127 148 188 244 283
#
# _framework density 20.288875000000001
#
# number of rings (size 3 to 8) (size 9 to 14) (size 15 to 20)
#    0.000    2.167    6.667    2.250    0.000    0.000 
#    0.000    0.000    0.000    0.000    8.667    0.583 
#    0.000    6.000    0.000    0.000    0.000    0.000 
#
# Total GULP energy -133605.642961 kJ/mol
# GULP energy per Si atom -5566.901790 kJ/mol
# Density = 2.024270 g / cm^3
# Si number density = 20.288875 Si / 1000 Ang^3
#
#
#
# Elastic Constant Matrix: (Units=GPa)
#
#
# Indices 1 2 3 4 5 6 
#
# 1 164.8775 22.2217 104.6957 0.0000 0.0000 0.0000
# 2 22.2217 19.1466 32.0256 0.0001 0.0000 0.0000
# 3 104.6957 32.0256 197.7441 0.0000 0.0000 0.0000
# 4 0.0000 0.0001 0.0000 65.9429 0.0000 0.0000
# 5 0.0000 0.0000 0.0000 0.0000 33.6074 0.0000
# 6 0.0000 0.0000 0.0000 0.0000 0.0000 -0.4101
#
#
#
# Elastic Compliance Matrix: (Units=1/GPa)
#
#
# Indices 1 2 3 4 5 6 
#
# 1 0.009306 -0.003510 -0.004358 0.000000 0.000000 0.000000
# 2 -0.003510 0.072958 -0.009957 0.000000 0.000000 0.000004
# 3 -0.004358 -0.009957 0.008977 0.000000 0.000000 -0.000001
# 4 0.000000 0.000000 0.000000 0.015165 0.000000 -0.000002
# 5 0.000000 0.000000 0.000000 0.000000 0.029755 0.000000
# 6 0.000000 0.000004 -0.000001 -0.000002 0.000000 -2.438584
#
#
# Mechanical properties :
#
#
# Convention : Reuss Voigt Hill
#
# Bulk Modulus (GPa) = 17.98919 77.73932 47.86426
# Shear Modulus (GPa) = -2.22396 34.68306 16.22955
#
# Velocity S-wave (km/s) = -1.04811 4.13905 2.83136
# Velocity P-wave (km/s) = 2.72416 7.82571 5.85930
#
# Compressibility (1/GPa) = 0.05558894
#
# Stress axis : x y z
#
# Youngs Moduli (GPa) = 107.46009 13.70652 111.39239
#
# Poissons Ratio (x) = 0.04811 0.48550
# Poissons Ratio (y) = 0.37720 1.10918
# Poissons Ratio (z) = 0.46836 0.13648
#
# Static dielectric constant tensor:
#      x y z
#    x 1.641740 0.000000 0.000000 
#    y 0.000000 1.944390 0.000000 
#    z 0.000000 0.000000 1.773840 
# 
# From -- ./inp_files/49936.got.cif
#   From: 2010.05.17/outbox.cif.g08.bks.cpg/sg22_25_cif.got.tgz:49936.got - 2010.06.03 23:40:54.
