data_PCOD9325929
_publ_section_title
;
Structure prediction by ZEFSAII (Michael W. Deem and Ramdas Pophale) SiO2 
 PCOD9325929
Probable space group: F 2 2 2
;
_chemical_formula_sum "Si O2"
_cell_formula_units_Z 92
_cell_length_a 9.167132
_cell_length_b 27.837508
_cell_length_c 19.226458
_cell_angle_alpha 90.000000
_cell_angle_beta 90.000000
_cell_angle_gamma 90.000000
_cell_volume 4906.401939
_symmetry_space_group_name_H-M "F 2 2 2"
_symmetry_group_IT_number 22
_symmetry_cell_setting 'orthorhombic'
loop_
_space_group_symop_operation_xyz
x,y,z
-x,-y,z
x,-y,-z
-x,y,-z
x,1/2+y,1/2+z
-x,1/2-y,1/2+z
x,1/2-y,1/2-z
-x,1/2+y,1/2-z
1/2+x,y,1/2+z
1/2-x,-y,1/2+z
1/2+x,-y,1/2-z
1/2-x,y,1/2-z
1/2+x,1/2+y,z
1/2-x,1/2-y,z
1/2+x,1/2-y,-z
1/2-x,1/2+y,-z
loop_
_atom_site_type_symbol
_atom_site_label
_atom_site_fract_x
_atom_site_fract_y
_atom_site_fract_z
Si Si1 0.000000 0.569262 0.500000
Si Si2 0.250000 0.750000 0.750000
Si Si3 0.702780 0.084415 0.375978
Si Si4 0.203802 0.470113 0.378312
Si Si5 0.557800 0.110238 0.706544
Si Si6 0.527154 0.905989 0.080030
Si Si7 0.175499 0.163021 0.338643
O O1 0.109497 0.595449 0.446319
O O2 0.107773 0.541306 0.552788
O O3 0.163224 0.785437 0.697701
O O4 0.610005 0.108307 0.314357
O O5 0.869923 0.097510 0.384438
O O6 0.703150 0.026620 0.367028
O O7 0.125085 0.441065 0.316106
O O8 0.362471 0.446743 0.390904
O O9 0.654148 0.148100 0.661454
O O10 0.597817 0.126659 0.783554
O O11 0.606532 0.854344 0.089949
O O12 0.500000 0.917639 0.000000
#
# Coordination Sequence:
#
# PCOD9325929 Si02
#       7
#     8   4  16  16  16  16  16
#     4  10  17  26  44  66  96 148 206 230 246 296
#     4   8  16  40  76  82  92 136 168 212 288 376
#     4  11  19  29  48  72 111 156 195 225 263 300
#     4  10  18  30  46  70 106 157 200 231 253 302
#     4   8  17  33  52  76 104 135 192 235 265 318
#     4  11  22  33  49  79 120 147 182 231 270 311
#     4   9  19  38  61  84 102 131 175 226 291 355
#
# _framework density 18.751010999999998
#
# number of rings (size 3 to 8) (size 9 to 14) (size 15 to 20)
#    0.000    2.435    1.739    3.652    0.000    1.391 
#    0.000   12.174    0.000   12.522    0.000    0.000 
#    0.000    0.000    0.000    0.000    0.000    0.000 
#
# Total GULP energy -128098.347701 kJ/mol
# GULP energy per Si atom -5569.493378 kJ/mol
# Density = 1.870833 g / cm^3
# Si number density = 18.751011 Si / 1000 Ang^3
#
#
#
# Elastic Constant Matrix: (Units=GPa)
#
#
# Indices 1 2 3 4 5 6 
#
# 1 145.4550 19.6201 19.6682 0.0000 0.0000 0.0000
# 2 19.6201 61.0500 18.7945 0.0000 0.0000 0.0000
# 3 19.6682 18.7945 33.5934 0.0000 0.0000 0.0000
# 4 0.0000 0.0000 0.0000 22.8926 0.0000 0.0000
# 5 0.0000 0.0000 0.0000 0.0000 35.6599 0.0000
# 6 0.0000 0.0000 0.0000 0.0000 0.0000 8.5443
#
#
#
# Elastic Compliance Matrix: (Units=1/GPa)
#
#
# Indices 1 2 3 4 5 6 
#
# 1 0.007549 -0.001287 -0.003700 0.000000 0.000000 0.000000
# 2 -0.001287 0.020008 -0.010440 0.000000 0.000000 0.000000
# 3 -0.003700 -0.010440 0.037775 0.000000 0.000000 0.000000
# 4 0.000000 0.000000 0.000000 0.043682 0.000000 0.000000
# 5 0.000000 0.000000 0.000000 0.000000 0.028043 0.000000
# 6 0.000000 0.000000 0.000000 0.000000 0.000000 0.117037
#
#
# Mechanical properties :
#
#
# Convention : Reuss Voigt Hill
#
# Bulk Modulus (GPa) = 29.00433 39.58489 34.29461
# Shear Modulus (GPa) = 16.86688 25.55374 21.21031
#
# Velocity S-wave (km/s) = 3.00245 3.69561 3.36691
# Velocity P-wave (km/s) = 5.24608 6.27429 5.78308
#
# Compressibility (1/GPa) = 0.03447761
#
# Stress axis : x y z
#
# Youngs Moduli (GPa) = 132.47059 49.98080 26.47275
#
# Poissons Ratio (x) = 0.06433 0.09794
# Poissons Ratio (y) = 0.17050 0.27638
# Poissons Ratio (z) = 0.49009 0.52181
#
# Static dielectric constant tensor:
#      x y z
#    x 1.691780 0.000000 0.000000 
#    y 0.000000 1.649810 0.000000 
#    z 0.000000 0.000000 1.731840 
# 
# From -- ./inp_files/42082.got.cif
#   From: 2010.05.17/outbox.cif.g08.bks.cpg/sg22_22_cif.got.tgz:42082.got - 2010.06.03 23:40:54.
