data_PCOD9325258
_publ_section_title
;
Structure prediction by ZEFSAII (Michael W. Deem and Ramdas Pophale) SiO2 
 PCOD9325258
Probable space group: C 2 2 2
;
_chemical_formula_sum "Si O2"
_cell_formula_units_Z 56
_cell_length_a 11.712261
_cell_length_b 20.708216
_cell_length_c 11.772795
_cell_angle_alpha 90.000000
_cell_angle_beta 90.000000
_cell_angle_gamma 90.000000
_cell_volume 2855.374060
_symmetry_space_group_name_H-M "C 2 2 2"
_symmetry_group_IT_number 21
_symmetry_cell_setting 'orthorhombic'
loop_
_space_group_symop_operation_xyz
x,y,z
-x,-y,z
x,-y,-z
-x,y,-z
1/2+x,1/2+y,z
1/2-x,1/2-y,z
1/2+x,1/2-y,-z
1/2-x,1/2+y,-z
loop_
_atom_site_type_symbol
_atom_site_label
_atom_site_fract_x
_atom_site_fract_y
_atom_site_fract_z
Si Si1 0.895101 0.918311 0.782312
Si Si2 0.841775 0.063240 0.786103
Si Si3 0.750636 0.660675 0.359641
Si Si4 0.049232 0.251236 0.296193
Si Si5 0.407103 0.209613 0.927551
Si Si6 0.169611 0.191685 0.613607
Si Si7 0.173866 0.846735 0.007045
O O1 0.833779 0.870809 0.694004
O O2 0.904085 0.882932 0.902608
O O3 0.026570 0.927497 0.746990
O O4 0.834152 0.986578 0.803138
O O5 0.762316 0.088747 0.685236
O O6 0.816293 0.107465 0.897311
O O7 0.877024 0.687870 0.338057
O O8 0.653975 0.699949 0.285657
O O9 0.713751 0.673320 0.488760
O O10 0.969250 0.268607 0.188296
O O11 0.957852 0.220513 0.381732
O O12 0.293402 0.167317 0.927683
O O13 0.375263 0.273992 0.001655
O O14 0.500000 0.171690 0.000000
O O15 0.250000 0.250000 0.656895
#
# Coordination Sequence:
#
# PCOD9325258 Si02
#       7
#     8   8   8   8   8   8   8
#     4  11  23  38  62  90 124 173 205 264 313 386
#     4  11  23  39  60  89 131 165 213 252 321 390
#     4  11  23  37  62  91 128 172 202 274 312 386
#     4  11  21  38  59  95 128 162 214 256 332 374
#     4  11  21  34  60  91 126 162 206 264 314 381
#     4  12  23  40  63  92 129 162 218 265 324 373
#     4  11  21  38  58  90 123 166 202 259 321 374
#
# _framework density 19.61214
#
# number of rings (size 3 to 8) (size 9 to 14) (size 15 to 20)
#    0.000    0.857    4.286    4.714    0.000    4.000 
#    0.000    1.429    0.000   10.286    0.000    4.000 
#    0.000    0.000    0.000    0.000    0.000    0.000 
#
# Total GULP energy -156099.023144 kJ/mol
# GULP energy per Si atom -5574.965112 kJ/mol
# Density = 1.956750 g / cm^3
# Si number density = 19.612140 Si / 1000 Ang^3
#
#
#
# Elastic Constant Matrix: (Units=GPa)
#
#
# Indices 1 2 3 4 5 6 
#
# 1 92.0453 22.3527 29.7656 0.0000 0.0000 0.0000
# 2 22.3527 107.0717 39.9093 0.0000 0.0000 0.0000
# 3 29.7656 39.9093 108.3534 0.0000 0.0000 0.0000
# 4 0.0000 0.0000 0.0000 4.4808 0.0000 0.0000
# 5 0.0000 0.0000 0.0000 0.0000 21.4522 0.0000
# 6 0.0000 0.0000 0.0000 0.0000 0.0000 30.5258
#
#
#
# Elastic Compliance Matrix: (Units=1/GPa)
#
#
# Indices 1 2 3 4 5 6 
#
# 1 0.012126 -0.001495 -0.002781 0.000000 0.000000 0.000000
# 2 -0.001495 0.011010 -0.003645 0.000000 0.000000 0.000000
# 3 -0.002781 -0.003645 0.011335 0.000000 0.000000 0.000000
# 4 0.000000 0.000000 0.000000 0.223176 0.000000 0.000000
# 5 0.000000 0.000000 0.000000 0.000000 0.046615 0.000000
# 6 0.000000 0.000000 0.000000 0.000000 0.000000 0.032759
#
#
# Mechanical properties :
#
#
# Convention : Reuss Voigt Hill
#
# Bulk Modulus (GPa) = 53.67304 54.61397 54.14351
# Shear Modulus (GPa) = 13.92473 25.65459 19.78966
#
# Velocity S-wave (km/s) = 2.66748 3.62069 3.18000
# Velocity P-wave (km/s) = 6.07569 6.73696 6.41485
#
# Compressibility (1/GPa) = 0.01863133
#
# Stress axis : x y z
#
# Youngs Moduli (GPa) = 82.46414 90.82541 88.22012
#
# Poissons Ratio (x) = 0.13580 0.24530
# Poissons Ratio (y) = 0.12330 0.32152
# Poissons Ratio (z) = 0.22929 0.33102
#
# Static dielectric constant tensor:
#      x y z
#    x 1.746140 0.000000 0.000000 
#    y 0.000000 1.721190 0.000000 
#    z 0.000000 0.000000 1.740980 
# 
# From -- ./inp_files/24237.got.cif
#   From: 2010.05.17/outbox.cif.g08.bks.cpg/sg21_13_cif.got.tgz:24237.got - 2010.06.03 23:14:55.
