data_PCOD9325135
_publ_section_title
;
Structure prediction by ZEFSAII (Michael W. Deem and Ramdas Pophale) SiO2 
 PCOD9325135
Probable space group: C 2 2 2
;
_chemical_formula_sum "Si O2"
_cell_formula_units_Z 28
_cell_length_a 24.204228
_cell_length_b 9.330134
_cell_length_c 4.910586
_cell_angle_alpha 90.000000
_cell_angle_beta 90.000000
_cell_angle_gamma 90.000000
_cell_volume 1108.951206
_symmetry_space_group_name_H-M "C 2 2 2"
_symmetry_group_IT_number 21
_symmetry_cell_setting 'orthorhombic'
loop_
_space_group_symop_operation_xyz
x,y,z
-x,-y,z
x,-y,-z
-x,y,-z
1/2+x,1/2+y,z
1/2-x,1/2-y,z
1/2+x,1/2-y,-z
1/2-x,1/2+y,-z
loop_
_atom_site_type_symbol
_atom_site_label
_atom_site_fract_x
_atom_site_fract_y
_atom_site_fract_z
Si Si1 0.000000 0.500000 0.500000
Si Si2 0.250000 0.750000 0.124794
Si Si3 0.500000 0.500000 0.500000
Si Si4 0.646640 0.236634 0.765534
Si Si5 0.073052 0.756556 0.264462
Si Si6 0.295038 0.000000 0.500000
O O1 0.960183 0.388969 0.337769
O O2 0.237122 0.619278 0.329252
O O3 0.300031 0.702385 0.923699
O O4 0.535673 0.393675 0.316422
O O5 0.625701 0.280073 0.466680
O O6 0.665773 0.075024 0.718143
O O7 0.594667 0.250284 0.960006
#
# Coordination Sequence:
#
# PCOD9325135 Si02
#       6
#     2   4   2   8   8   4
#     4  10  26  44  80 110 144 200 264 338 392 466
#     4  12  28  50  80 120 170 212 270 334 388 498
#     4  10  28  58  76 122 164 208 278 336 408 474
#     4  12  27  49  79 116 159 209 263 323 401 477
#     4  11  27  49  81 114 157 209 265 336 403 477
#     4  12  27  53  76 117 170 213 267 323 396 482
#
# _framework density 25.249082999999999
#
# number of rings (size 3 to 8) (size 9 to 14) (size 15 to 20)
#    0.000    0.571    2.857    2.571    4.000    9.143 
#   10.286    0.000    0.000    0.000    0.000    0.000 
#    0.000    0.000    0.000    0.000    0.000    0.000 
#
# Total GULP energy -78445.512161 kJ/mol
# GULP energy per Si atom -5603.250869 kJ/mol
# Density = 2.519161 g / cm^3
# Si number density = 25.249083 Si / 1000 Ang^3
#
#
#
# Elastic Constant Matrix: (Units=GPa)
#
#
# Indices 1 2 3 4 5 6 
#
# 1 92.0591 43.2123 9.0499 0.0000 0.0000 0.0000
# 2 43.2123 144.1761 21.4960 0.0000 0.0000 0.0000
# 3 9.0499 21.4960 100.9923 0.0000 0.0000 0.0000
# 4 0.0000 0.0000 0.0000 30.0282 0.0000 0.0000
# 5 0.0000 0.0000 0.0000 0.0000 -30.3018 0.0000
# 6 0.0000 0.0000 0.0000 0.0000 0.0000 32.7081
#
#
#
# Elastic Compliance Matrix: (Units=1/GPa)
#
#
# Indices 1 2 3 4 5 6 
#
# 1 0.012652 -0.003742 -0.000337 0.000000 0.000000 0.000000
# 2 -0.003742 0.008270 -0.001425 0.000000 0.000000 0.000000
# 3 -0.000337 -0.001425 0.010235 0.000000 0.000000 0.000000
# 4 0.000000 0.000000 0.000000 0.033302 0.000000 0.000000
# 5 0.000000 0.000000 0.000000 0.000000 -0.033001 0.000000
# 6 0.000000 0.000000 0.000000 0.000000 0.000000 0.030573
#
#
# Mechanical properties :
#
#
# Convention : Reuss Voigt Hill
#
# Bulk Modulus (GPa) = 49.62974 53.86044 51.74509
# Shear Modulus (GPa) = 62.69124 24.05152 43.37138
#
# Velocity S-wave (km/s) = 4.98829 3.08972 4.14906
# Velocity P-wave (km/s) = 7.27159 5.84007 6.59479
#
# Compressibility (1/GPa) = 0.02014921
#
# Stress axis : x y z
#
# Youngs Moduli (GPa) = 79.03807 120.92046 97.70147
#
# Poissons Ratio (x) = 0.45246 0.03296
# Poissons Ratio (y) = 0.29574 0.13922
# Poissons Ratio (z) = 0.02666 0.17230
#
# Static dielectric constant tensor:
#      x y z
#    x 2.058240 0.000000 0.000000 
#    y 0.000000 1.949320 0.000000 
#    z 0.000000 0.000000 1.992920 
# 
# From -- ./inp_files/7047.got.cif
#   From: 2010.05.17/outbox.cif.g08.bks.cpg/sg21_4_cif.got.tgz:7047.got - 2010.06.03 23:14:55.
