data_PCOD9325752
_publ_section_title
;
Structure prediction by ZEFSAII (Michael W. Deem and Ramdas Pophale) SiO2 
 PCOD9325752
Probable space group: C 2 2 2
;
_chemical_formula_sum "Si O2"
_cell_formula_units_Z 30
_cell_length_a 6.887282
_cell_length_b 30.365284
_cell_length_c 7.453298
_cell_angle_alpha 90.000000
_cell_angle_beta 90.000000
_cell_angle_gamma 90.000000
_cell_volume 1558.740066
_symmetry_space_group_name_H-M "C 2 2 2"
_symmetry_group_IT_number 21
_symmetry_cell_setting 'orthorhombic'
loop_
_space_group_symop_operation_xyz
x,y,z
-x,-y,z
x,-y,-z
-x,y,-z
1/2+x,1/2+y,z
1/2-x,1/2-y,z
1/2+x,1/2-y,-z
1/2-x,1/2+y,-z
loop_
_atom_site_type_symbol
_atom_site_label
_atom_site_fract_x
_atom_site_fract_y
_atom_site_fract_z
Si Si1 0.873367 0.958404 0.679915
Si Si2 0.847008 0.134560 0.155905
Si Si3 0.250000 0.250000 0.267131
Si Si4 0.500000 0.683845 0.500000
Si Si5 0.500000 0.000000 0.500000
Si Si6 0.000000 0.690481 0.000000
O O1 0.851227 0.917835 0.813821
O O2 0.655644 0.972420 0.618423
O O3 0.000000 0.946139 0.500000
O O4 0.000000 0.000000 0.751285
O O5 0.902406 0.154530 0.347728
O O6 0.650564 0.158158 0.096961
O O7 0.000000 0.146093 0.000000
O O8 0.353695 0.284934 0.394085
O O9 0.395578 0.222670 0.141096
#
# Coordination Sequence:
#
# PCOD9325752 Si02
#       6
#     8   8   4   4   2   4
#     4   9  20  40  68  97 137 180 228 285 335 412
#     4  12  25  45  66 104 138 177 235 287 343 412
#     4  12  24  46  68 102 134 180 228 288 360 410
#     4  12  24  44  72  94 132 182 229 269 354 418
#     4   8  18  36  66 100 124 180 232 266 340 412
#     4  12  26  44  70 103 142 174 235 298 344 426
#
# _framework density 19.246312
#
# number of rings (size 3 to 8) (size 9 to 14) (size 15 to 20)
#    0.000    1.333    4.000    3.200    0.000    6.933 
#    0.000    0.000    0.000    0.000    0.000    0.000 
#    0.000    0.000    0.000    0.000    0.000    0.000 
#
# Total GULP energy -83734.586647 kJ/mol
# GULP energy per Si atom -5582.305776 kJ/mol
# Density = 1.920251 g / cm^3
# Si number density = 19.246312 Si / 1000 Ang^3
#
#
#
# Elastic Constant Matrix: (Units=GPa)
#
#
# Indices 1 2 3 4 5 6 
#
# 1 152.8731 70.7646 73.5018 0.0000 0.0000 0.0000
# 2 70.7646 139.8287 65.8204 0.0000 0.0000 0.0000
# 3 73.5018 65.8204 130.0624 0.0000 0.0000 0.0000
# 4 0.0000 0.0000 0.0000 81.6924 0.0000 0.0000
# 5 0.0000 0.0000 0.0000 0.0000 41.7462 0.0000
# 6 0.0000 0.0000 0.0000 0.0000 0.0000 26.0564
#
#
#
# Elastic Compliance Matrix: (Units=1/GPa)
#
#
# Indices 1 2 3 4 5 6 
#
# 1 0.009925 -0.003128 -0.004026 0.000000 0.000000 0.000000
# 2 -0.003128 0.010374 -0.003482 0.000000 0.000000 0.000000
# 3 -0.004026 -0.003482 0.011726 0.000000 0.000000 0.000000
# 4 0.000000 0.000000 0.000000 0.012241 0.000000 0.000000
# 5 0.000000 0.000000 0.000000 0.000000 0.023954 0.000000
# 6 0.000000 0.000000 0.000000 0.000000 0.000000 0.038378
#
#
# Mechanical properties :
#
#
# Convention : Reuss Voigt Hill
#
# Bulk Modulus (GPa) = 92.99930 93.65974 93.32952
# Shear Modulus (GPa) = 38.03604 44.07748 41.05676
#
# Velocity S-wave (km/s) = 4.45036 4.79077 4.62370
# Velocity P-wave (km/s) = 8.65061 8.90906 8.78079
#
# Compressibility (1/GPa) = 0.01075277
#
# Stress axis : x y z
#
# Youngs Moduli (GPa) = 100.75695 96.39837 85.28006
#
# Poissons Ratio (x) = 0.30150 0.34334
# Poissons Ratio (y) = 0.31513 0.29696
# Poissons Ratio (z) = 0.40565 0.33568
#
# Static dielectric constant tensor:
#      x y z
#    x 1.635970 0.000000 0.000000 
#    y 0.000000 1.711210 0.000000 
#    z 0.000000 0.000000 1.637210 
# 
# From -- ./inp_files/9123.got.cif
#   From: 2010.05.17/outbox.cif.g08.bks.cpg/sg21_5_cif.got.tgz:9123.got - 2010.06.03 23:14:55.
