data_PCOD9325152
_publ_section_title
;
Structure prediction by ZEFSAII (Michael W. Deem and Ramdas Pophale) SiO2 
 PCOD9325152
Probable space group: C 2 2 2
;
_chemical_formula_sum "Si O2"
_cell_formula_units_Z 18
_cell_length_a 15.299487
_cell_length_b 8.928807
_cell_length_c 5.727732
_cell_angle_alpha 90.000000
_cell_angle_beta 90.000000
_cell_angle_gamma 90.000000
_cell_volume 782.443512
_symmetry_space_group_name_H-M "C 2 2 2"
_symmetry_group_IT_number 21
_symmetry_cell_setting 'orthorhombic'
loop_
_space_group_symop_operation_xyz
x,y,z
-x,-y,z
x,-y,-z
-x,y,-z
1/2+x,1/2+y,z
1/2-x,1/2-y,z
1/2+x,1/2-y,-z
1/2-x,1/2+y,-z
loop_
_atom_site_type_symbol
_atom_site_label
_atom_site_fract_x
_atom_site_fract_y
_atom_site_fract_z
Si Si1 0.750000 0.750000 0.687886
Si Si2 0.000000 0.500000 0.500000
Si Si3 0.822846 0.000000 0.000000
Si Si4 0.416376 0.718161 0.642011
O O1 0.740071 0.602865 0.844522
O O2 0.665475 0.737322 0.527974
O O3 0.053149 0.610138 0.672514
O O4 0.884273 0.113501 0.851735
O O5 0.500000 0.656054 0.500000
#
# Coordination Sequence:
#
# PCOD9325152 Si02
#       4
#     4   2   4   8
#     4  12  28  44  78 116 162 208 270 328 384 496
#     4   8  24  52  80 108 164 198 260 342 384 450
#     4  12  28  47  82 117 160 220 258 319 426 447
#     4  10  26  49  78 110 166 206 268 328 386 481
#
# _framework density 23.004856
#
# number of rings (size 3 to 8) (size 9 to 14) (size 15 to 20)
#    1.333    0.000    0.000    2.667   12.444    7.111 
#    0.000    2.222    0.000    0.000    0.000    0.000 
#    0.000    0.000    0.000    0.000    0.000    0.000 
#
# Total GULP energy -50225.504429 kJ/mol
# GULP energy per Si atom -5580.611603 kJ/mol
# Density = 2.295250 g / cm^3
# Si number density = 23.004856 Si / 1000 Ang^3
#
#
#
# Elastic Constant Matrix: (Units=GPa)
#
#
# Indices 1 2 3 4 5 6 
#
# 1 170.6576 63.4601 77.3857 0.0000 0.0000 0.0000
# 2 63.4601 205.6034 92.2949 0.0000 0.0000 0.0000
# 3 77.3857 92.2949 117.9771 0.0000 0.0000 0.0000
# 4 0.0000 0.0000 0.0000 85.0777 0.0000 0.0000
# 5 0.0000 0.0000 0.0000 0.0000 0.3068 0.0000
# 6 0.0000 0.0000 0.0000 0.0000 0.0000 55.4321
#
#
#
# Elastic Compliance Matrix: (Units=1/GPa)
#
#
# Indices 1 2 3 4 5 6 
#
# 1 0.008345 -0.000183 -0.005331 0.000000 0.000000 0.000000
# 2 -0.000183 0.007500 -0.005748 0.000000 0.000000 0.000000
# 3 -0.005331 -0.005748 0.016469 0.000000 0.000000 0.000000
# 4 0.000000 0.000000 0.000000 0.011754 0.000000 0.000000
# 5 0.000000 0.000000 0.000000 0.000000 3.259749 0.000000
# 6 0.000000 0.000000 0.000000 0.000000 0.000000 0.018040
#
#
# Mechanical properties :
#
#
# Convention : Reuss Voigt Hill
#
# Bulk Modulus (GPa) = 102.12275 106.72438 104.42356
# Shear Modulus (GPa) = 1.49359 45.56982 23.53170
#
# Velocity S-wave (km/s) = 0.80663 4.45553 3.20175
# Velocity P-wave (km/s) = 6.73467 8.54177 7.69148
#
# Compressibility (1/GPa) = 0.00979214
#
# Stress axis : x y z
#
# Youngs Moduli (GPa) = 119.83341 133.32888 60.71857
#
# Poissons Ratio (x) = 0.02436 0.32368
# Poissons Ratio (y) = 0.02189 0.34899
# Poissons Ratio (z) = 0.63881 0.76634
#
# Static dielectric constant tensor:
#      x y z
#    x 1.840040 0.000000 0.000000 
#    y 0.000000 1.976450 0.000000 
#    z 0.000000 0.000000 1.823040 
# 
# From -- ./inp_files/910.got.cif
#   From: 2010.05.17/outbox.cif.g08.bks.cpg/sg21_1_cif.got.tgz:910.got - 2010.06.03 23:14:55.
