data_PCOD9325520
_publ_section_title
;
Structure prediction by ZEFSAII (Michael W. Deem and Ramdas Pophale) SiO2 
 PCOD9325520
Probable space group: C 2 2 2
;
_chemical_formula_sum "Si O2"
_cell_formula_units_Z 48
_cell_length_a 15.013895
_cell_length_b 9.617417
_cell_length_c 17.710378
_cell_angle_alpha 90.000000
_cell_angle_beta 90.000000
_cell_angle_gamma 90.000000
_cell_volume 2557.288066
_symmetry_space_group_name_H-M "C 2 2 2"
_symmetry_group_IT_number 21
_symmetry_cell_setting 'orthorhombic'
loop_
_space_group_symop_operation_xyz
x,y,z
-x,-y,z
x,-y,-z
-x,y,-z
1/2+x,1/2+y,z
1/2-x,1/2-y,z
1/2+x,1/2-y,-z
1/2-x,1/2+y,-z
loop_
_atom_site_type_symbol
_atom_site_label
_atom_site_fract_x
_atom_site_fract_y
_atom_site_fract_z
Si Si1 0.999237 0.668186 0.912180
Si Si2 0.648013 0.210078 0.799843
Si Si3 0.249198 0.418709 0.421553
Si Si4 0.146550 0.775341 0.206870
Si Si5 0.395620 0.971621 0.307660
Si Si6 0.900349 0.961725 0.299249
O O1 0.090101 0.720421 0.874322
O O2 0.000000 0.500000 0.906752
O O3 0.918735 0.728313 0.860971
O O4 0.000000 0.706512 0.000000
O O5 0.750000 0.250000 0.809227
O O6 0.639058 0.057641 0.764877
O O7 0.604170 0.309632 0.737288
O O8 0.255694 0.500000 0.500000
O O9 0.250000 0.250000 0.429310
O O10 0.161129 0.472316 0.377747
O O11 0.330885 0.461988 0.367421
O O12 0.250000 0.750000 0.188282
O O13 0.122585 0.685644 0.282106
O O14 0.129633 0.932854 0.233030
O O15 0.500000 0.000000 0.317326
O O16 0.000000 0.000000 0.322643
#
# Coordination Sequence:
#
# PCOD9325520 Si02
#       6
#     8   8   8   8   8   8
#     4  11  24  42  64  97 136 171 216 276 330 385
#     4  12  20  41  68  94 124 176 220 262 315 393
#     4  12  28  47  65  98 136 169 211 275 335 381
#     4  12  22  37  68 100 125 165 224 267 312 382
#     4  12  21  42  70  94 123 174 227 256 305 399
#     4  12  23  40  68  98 125 168 215 268 321 380
#
# _framework density 18.769883
#
# number of rings (size 3 to 8) (size 9 to 14) (size 15 to 20)
#    0.000    0.167   10.000    0.000    2.333    1.333 
#    0.000    3.333    0.000    0.000    0.000    0.000 
#    0.000    0.000    0.000    0.000    0.000    0.000 
#
# Total GULP energy -134134.813528 kJ/mol
# GULP energy per Si atom -5588.950564 kJ/mol
# Density = 1.872716 g / cm^3
# Si number density = 18.769883 Si / 1000 Ang^3
#
#
#
# Elastic Constant Matrix: (Units=GPa)
#
#
# Indices 1 2 3 4 5 6 
#
# 1 166.1823 12.0969 52.7231 0.0000 0.0000 0.0000
# 2 12.0969 40.7850 12.5680 0.0000 0.0000 0.0000
# 3 52.7231 12.5680 131.5903 0.0000 0.0000 0.0000
# 4 0.0000 0.0000 0.0000 26.8219 0.0000 0.0000
# 5 0.0000 0.0000 0.0000 0.0000 27.1315 0.0000
# 6 0.0000 0.0000 0.0000 0.0000 0.0000 26.6863
#
#
#
# Elastic Compliance Matrix: (Units=1/GPa)
#
#
# Indices 1 2 3 4 5 6 
#
# 1 0.006954 -0.001241 -0.002668 0.000000 0.000000 0.000000
# 2 -0.001241 0.025484 -0.001937 0.000000 0.000000 0.000000
# 3 -0.002668 -0.001937 0.008853 0.000000 0.000000 0.000000
# 4 0.000000 0.000000 0.000000 0.037283 0.000000 0.000000
# 5 0.000000 0.000000 0.000000 0.000000 0.036857 0.000000
# 6 0.000000 0.000000 0.000000 0.000000 0.000000 0.037472
#
#
# Mechanical properties :
#
#
# Convention : Reuss Voigt Hill
#
# Bulk Modulus (GPa) = 33.78310 54.81486 44.29898
# Shear Modulus (GPa) = 28.65968 33.53925 31.09946
#
# Velocity S-wave (km/s) = 3.91179 4.23172 4.07490
# Velocity P-wave (km/s) = 6.20004 7.28997 6.76698
#
# Compressibility (1/GPa) = 0.02960060
#
# Stress axis : x y z
#
# Youngs Moduli (GPa) = 143.79852 39.24092 112.95333
#
# Poissons Ratio (x) = 0.04868 0.30134
# Poissons Ratio (y) = 0.17839 0.21878
# Poissons Ratio (z) = 0.38362 0.07600
#
# Static dielectric constant tensor:
#      x y z
#    x 1.661580 0.000000 0.000000 
#    y 0.000000 1.647060 0.000000 
#    z 0.000000 0.000000 1.614330 
# 
# From -- ./inp_files/35643.got.cif
#   From: 2010.05.17/outbox.cif.g08.bks.cpg/sg21_18_cif.got.tgz:35643.got - 2010.06.03 23:14:55.
