data_PCOD9325134
_publ_section_title
;
Structure prediction by ZEFSAII (Michael W. Deem and Ramdas Pophale) SiO2 
 PCOD9325134
Probable space group: C 2 2 2
;
_chemical_formula_sum "Si O2"
_cell_formula_units_Z 22
_cell_length_a 7.258653
_cell_length_b 7.386788
_cell_length_c 16.206520
_cell_angle_alpha 90.000000
_cell_angle_beta 90.000000
_cell_angle_gamma 90.000000
_cell_volume 868.963310
_symmetry_space_group_name_H-M "C 2 2 2"
_symmetry_group_IT_number 21
_symmetry_cell_setting 'orthorhombic'
loop_
_space_group_symop_operation_xyz
x,y,z
-x,-y,z
x,-y,-z
-x,y,-z
1/2+x,1/2+y,z
1/2-x,1/2-y,z
1/2+x,1/2-y,-z
1/2-x,1/2+y,-z
loop_
_atom_site_type_symbol
_atom_site_label
_atom_site_fract_x
_atom_site_fract_y
_atom_site_fract_z
Si Si1 0.457325 0.786827 0.119470
Si Si2 0.000000 0.000000 0.000000
Si Si3 0.750000 0.750000 0.723321
Si Si4 0.283195 0.457378 0.407989
O O1 0.250000 0.750000 0.085738
O O2 0.424679 0.730875 0.214868
O O3 0.500000 0.000000 0.112335
O O4 0.577524 0.644862 0.067865
O O5 0.791658 0.584575 0.663382
O O6 0.500000 0.500000 0.409693
O O7 0.211007 0.500000 0.500000
O O8 0.250000 0.250000 0.390164
#
# Coordination Sequence:
#
# PCOD9325134 Si02
#       4
#     8   2   4   8
#     4  10  27  44  71 105 144 191 248 306 380 444
#     4  12  26  44  74  98 150 188 254 310 384 454
#     4  10  26  44  74 106 148 194 248 312 368 454
#     4  11  25  44  70 106 147 198 251 307 371 442
#
# _framework density 25.317525
#
# number of rings (size 3 to 8) (size 9 to 14) (size 15 to 20)
#    1.091    0.364    1.818    0.545   12.727    0.000 
#    0.000    0.000    0.000    0.000    0.000    0.000 
#    0.000    0.000    0.000    0.000    0.000    0.000 
#
# Total GULP energy -61406.793855 kJ/mol
# GULP energy per Si atom -5582.435805 kJ/mol
# Density = 2.525990 g / cm^3
# Si number density = 25.317525 Si / 1000 Ang^3
#
#
#
# Elastic Constant Matrix: (Units=GPa)
#
#
# Indices 1 2 3 4 5 6 
#
# 1 85.8451 36.5032 14.9609 0.0000 0.0000 0.0000
# 2 36.5032 293.9226 123.8840 0.0000 0.0000 0.0000
# 3 14.9609 123.8840 256.8107 0.0000 0.0000 0.0000
# 4 0.0000 0.0000 0.0000 51.9005 0.0000 0.0000
# 5 0.0000 0.0000 0.0000 0.0000 36.6250 0.0000
# 6 0.0000 0.0000 0.0000 0.0000 0.0000 41.7074
#
#
#
# Elastic Compliance Matrix: (Units=1/GPa)
#
#
# Indices 1 2 3 4 5 6 
#
# 1 0.012298 -0.001538 0.000026 0.000000 0.000000 0.000000
# 2 -0.001538 0.004463 -0.002063 0.000000 0.000000 0.000000
# 3 0.000026 -0.002063 0.004888 0.000000 0.000000 0.000000
# 4 0.000000 0.000000 0.000000 0.019268 0.000000 0.000000
# 5 0.000000 0.000000 0.000000 0.000000 0.027304 0.000000
# 6 0.000000 0.000000 0.000000 0.000000 0.000000 0.023977
#
#
# Mechanical properties :
#
#
# Convention : Reuss Voigt Hill
#
# Bulk Modulus (GPa) = 68.97811 109.69717 89.33764
# Shear Modulus (GPa) = 47.99321 56.79526 52.39423
#
# Velocity S-wave (km/s) = 4.35863 4.74151 4.55409
# Velocity P-wave (km/s) = 7.25497 8.56729 7.93829
#
# Compressibility (1/GPa) = 0.01449735
#
# Stress axis : x y z
#
# Youngs Moduli (GPa) = 81.31081 224.06820 204.59323
#
# Poissons Ratio (x) = 0.34465 -0.00522
# Poissons Ratio (y) = 0.12507 0.42213
# Poissons Ratio (z) = -0.00208 0.46232
#
# Static dielectric constant tensor:
#      x y z
#    x 2.388050 0.000000 0.000000 
#    y 0.000000 1.921350 0.000000 
#    z 0.000000 0.000000 2.008230 
# 
# From -- ./inp_files/31090.got.cif
#   From: 2010.05.17/outbox.cif.g08.bks.cpg/sg21_16_cif.got.tgz:31090.got - 2010.06.03 23:14:55.
