data_PCOD9325106
_publ_section_title
;
Structure prediction by ZEFSAII (Michael W. Deem and Ramdas Pophale) SiO2 
 PCOD9325106
Probable space group: C 2 2 2
;
_chemical_formula_sum "Si O2"
_cell_formula_units_Z 32
_cell_length_a 10.101730
_cell_length_b 15.151044
_cell_length_c 8.365500
_cell_angle_alpha 90.000000
_cell_angle_beta 90.000000
_cell_angle_gamma 90.000000
_cell_volume 1280.354462
_symmetry_space_group_name_H-M "C 2 2 2"
_symmetry_group_IT_number 21
_symmetry_cell_setting 'orthorhombic'
loop_
_space_group_symop_operation_xyz
x,y,z
-x,-y,z
x,-y,-z
-x,y,-z
1/2+x,1/2+y,z
1/2-x,1/2-y,z
1/2+x,1/2-y,-z
1/2-x,1/2+y,-z
loop_
_atom_site_type_symbol
_atom_site_label
_atom_site_fract_x
_atom_site_fract_y
_atom_site_fract_z
Si Si1 0.172302 0.408355 0.095221
Si Si2 0.184623 0.977523 0.324346
Si Si3 0.563190 0.154184 0.324143
Si Si4 0.884144 0.823814 0.874729
O O1 0.275810 0.434271 0.232416
O O2 0.042878 0.376584 0.189182
O O3 0.247932 0.657715 0.024629
O O4 0.150414 0.500000 0.000000
O O5 0.319463 0.917664 0.337705
O O6 0.092653 0.916420 0.216246
O O7 0.140241 0.000000 0.500000
O O8 0.500000 0.160547 0.500000
O O9 0.610384 0.249354 0.261691
O O10 0.000000 0.806184 0.000000
#
# Coordination Sequence:
#
# PCOD9325106 Si02
#       4
#     8   8   8   8
#     4  10  25  47  81 111 151 198 256 317 372 455
#     4  11  24  48  80 111 151 193 261 318 382 444
#     4  12  26  47  81 117 151 195 259 324 385 440
#     4  11  29  49  74 115 158 207 250 306 395 461
#
# _framework density 24.993079000000002
#
# number of rings (size 3 to 8) (size 9 to 14) (size 15 to 20)
#    0.000    1.000    2.500    1.500   10.500    9.500 
#    4.500    1.250    0.000    0.000    0.000    0.000 
#    0.000    0.000    0.000    0.000    0.000    0.000 
#
# Total GULP energy -89678.859569 kJ/mol
# GULP energy per Si atom -5604.928723 kJ/mol
# Density = 2.493619 g / cm^3
# Si number density = 24.993079 Si / 1000 Ang^3
#
#
#
# Elastic Constant Matrix: (Units=GPa)
#
#
# Indices 1 2 3 4 5 6 
#
# 1 147.5914 35.7900 44.2671 0.0000 0.0000 0.0000
# 2 35.7900 109.8881 39.5129 0.0000 0.0000 0.0000
# 3 44.2671 39.5129 174.7077 0.0000 0.0000 0.0000
# 4 0.0000 0.0000 0.0000 45.9429 0.0000 0.0000
# 5 0.0000 0.0000 0.0000 0.0000 19.5151 0.0000
# 6 0.0000 0.0000 0.0000 0.0000 0.0000 41.1715
#
#
#
# Elastic Compliance Matrix: (Units=1/GPa)
#
#
# Indices 1 2 3 4 5 6 
#
# 1 0.007705 -0.001967 -0.001507 0.000000 0.000000 0.000000
# 2 -0.001967 0.010408 -0.001855 0.000000 0.000000 0.000000
# 3 -0.001507 -0.001855 0.006525 0.000000 0.000000 0.000000
# 4 0.000000 0.000000 0.000000 0.021766 0.000000 0.000000
# 5 0.000000 0.000000 0.000000 0.000000 0.051242 0.000000
# 6 0.000000 0.000000 0.000000 0.000000 0.000000 0.024289
#
#
# Mechanical properties :
#
#
# Convention : Reuss Voigt Hill
#
# Bulk Modulus (GPa) = 71.54126 74.59190 73.06658
# Shear Modulus (GPa) = 36.42864 42.16706 39.29785
#
# Velocity S-wave (km/s) = 3.82193 4.11195 3.96959
# Velocity P-wave (km/s) = 6.93994 7.24251 7.09284
#
# Compressibility (1/GPa) = 0.01397795
#
# Stress axis : x y z
#
# Youngs Moduli (GPa) = 129.79258 96.07894 153.24763
#
# Poissons Ratio (x) = 0.18902 0.23098
# Poissons Ratio (y) = 0.25535 0.28435
# Poissons Ratio (z) = 0.19563 0.17827
#
# Static dielectric constant tensor:
#      x y z
#    x 2.075570 0.000000 0.000000 
#    y 0.000000 1.964810 0.000000 
#    z 0.000000 0.000000 1.952300 
# 
# From -- ./inp_files/12328.got.cif
#   From: 2010.05.17/outbox.cif.g08.bks.cpg/sg21_7_cif.got.tgz:12328.got - 2010.06.03 23:14:55.
