data_PCOD9325873
_publ_section_title
;
Structure prediction by ZEFSAII (Michael W. Deem and Ramdas Pophale) SiO2 
 PCOD9325873
Probable space group: F 2 2 2
;
_chemical_formula_sum "Si O2"
_cell_formula_units_Z 56
_cell_length_a 31.678881
_cell_length_b 5.309364
_cell_length_c 14.395739
_cell_angle_alpha 90.000000
_cell_angle_beta 90.000000
_cell_angle_gamma 90.000000
_cell_volume 2421.287151
_symmetry_space_group_name_H-M "F 2 2 2"
_symmetry_group_IT_number 22
_symmetry_cell_setting 'orthorhombic'
loop_
_space_group_symop_operation_xyz
x,y,z
-x,-y,z
x,-y,-z
-x,y,-z
x,1/2+y,1/2+z
-x,1/2-y,1/2+z
x,1/2-y,1/2-z
-x,1/2+y,1/2-z
1/2+x,y,1/2+z
1/2-x,-y,1/2+z
1/2+x,-y,1/2-z
1/2-x,y,1/2-z
1/2+x,1/2+y,z
1/2-x,1/2-y,z
1/2+x,1/2-y,-z
1/2-x,1/2+y,-z
loop_
_atom_site_type_symbol
_atom_site_label
_atom_site_fract_x
_atom_site_fract_y
_atom_site_fract_z
Si Si1 0.820290 0.497801 0.188252
Si Si2 0.413645 0.990703 0.860804
Si Si3 0.250000 0.750000 0.444046
Si Si4 0.549975 0.497410 0.150599
O O1 0.810228 0.750000 0.250000
O O2 0.863696 0.548003 0.133821
O O3 0.783859 0.396502 0.120360
O O4 0.829398 0.250000 0.250000
O O5 0.431401 0.251705 0.896712
O O6 0.427184 0.996510 0.751438
O O7 0.437340 0.751212 0.899650
O O8 0.232269 0.500000 0.500000
O O9 0.500000 0.500000 0.165135
#
# Coordination Sequence:
#
# PCOD9325873 Si02
#       4
#    16  16   8  16
#     4  12  22  42  69  94 121 165 224 272 318 392
#     4  10  16  28  46  80 116 158 202 247 303 373
#     4  12  29  48  65  94 134 172 218 278 349 402
#     4  10  16  25  43  77 132 166 184 239 331 379
#
# _framework density 23.128193
#
# number of rings (size 3 to 8) (size 9 to 14) (size 15 to 20)
#    0.000    1.143    5.714    6.429    0.000    1.143 
#    0.000    0.000    0.000    0.000    0.000    0.000 
#    0.000   27.429    0.000    0.000    0.000    0.000 
#
# Total GULP energy -78106.000605 kJ/mol
# GULP energy per Si atom -5579.000043 kJ/mol
# Density = 2.307555 g / cm^3
# Si number density = 23.128193 Si / 1000 Ang^3
#
#
#
# Elastic Constant Matrix: (Units=GPa)
#
#
# Indices 1 2 3 4 5 6 
#
# 1 184.1608 50.9055 27.0286 -0.0003 -0.0003 0.0002
# 2 50.9055 258.5110 28.3722 -0.0003 -0.0002 0.0004
# 3 27.0286 28.3722 76.8661 -0.0001 0.0000 0.0001
# 4 -0.0003 -0.0003 -0.0001 -3.9737 -0.0002 0.0004
# 5 -0.0003 -0.0002 0.0000 -0.0002 -59.4001 0.0002
# 6 0.0002 0.0004 0.0001 0.0004 0.0002 73.7458
#
#
#
# Elastic Compliance Matrix: (Units=1/GPa)
#
#
# Indices 1 2 3 4 5 6 
#
# 1 0.005956 -0.000983 -0.001732 0.000000 0.000000 0.000000
# 2 -0.000983 0.004194 -0.001202 0.000000 0.000000 0.000000
# 3 -0.001732 -0.001202 0.014062 0.000000 0.000000 0.000000
# 4 0.000000 0.000000 0.000000 -0.251657 0.000001 0.000001
# 5 0.000000 0.000000 0.000000 0.000001 -0.016835 0.000000
# 6 0.000000 0.000000 0.000000 0.000001 0.000000 0.013560
#
#
# Mechanical properties :
#
#
# Convention : Reuss Voigt Hill
#
# Bulk Modulus (GPa) = 61.05543 81.35006 71.20275
# Shear Modulus (GPa) = -22.99622 29.62317 3.31348
#
# Velocity S-wave (km/s) = -3.15666 3.58274 1.19824
# Velocity P-wave (km/s) = 3.62905 7.23634 5.72427
#
# Compressibility (1/GPa) = 0.01637856
#
# Stress axis : x y z
#
# Youngs Moduli (GPa) = 167.90302 238.44722 71.11206
#
# Poissons Ratio (x) = 0.23434 0.12313
# Poissons Ratio (y) = 0.16501 0.08551
# Poissons Ratio (z) = 0.29072 0.28671
#
# Static dielectric constant tensor:
#      x y z
#    x 1.845710 0.000000 0.000000 
#    y 0.000000 1.768440 0.000000 
#    z 0.000000 0.000000 1.868960 
# 
# From -- ./inp_files/5989.got.cif
#   From: 2010.05.17/outbox.cif.g08.bks.cpg/sg22_3_cif.got.tgz:5989.got - 2010.06.03 23:40:54.
