data_PCOD9325466
_publ_section_title
;
Structure prediction by ZEFSAII (Michael W. Deem and Ramdas Pophale) SiO2 
 PCOD9325466
Probable space group: C 2 2 2
;
_chemical_formula_sum "Si O2"
_cell_formula_units_Z 32
_cell_length_a 5.494055
_cell_length_b 14.009801
_cell_length_c 19.117292
_cell_angle_alpha 90.000000
_cell_angle_beta 90.000000
_cell_angle_gamma 90.000000
_cell_volume 1471.469765
_symmetry_space_group_name_H-M "C 2 2 2"
_symmetry_group_IT_number 21
_symmetry_cell_setting 'orthorhombic'
loop_
_space_group_symop_operation_xyz
x,y,z
-x,-y,z
x,-y,-z
-x,y,-z
1/2+x,1/2+y,z
1/2-x,1/2-y,z
1/2+x,1/2-y,-z
1/2-x,1/2+y,-z
loop_
_atom_site_type_symbol
_atom_site_label
_atom_site_fract_x
_atom_site_fract_y
_atom_site_fract_z
Si Si1 0.500000 0.312920 0.000000
Si Si2 0.675169 0.644687 0.559731
Si Si3 0.498707 0.312756 0.848063
Si Si4 0.634123 0.643778 0.299688
Si Si5 0.500000 0.000000 0.368480
O O1 0.250000 0.250000 0.999771
O O2 0.504943 0.363439 0.075833
O O3 0.500000 0.605833 0.500000
O O4 0.750000 0.750000 0.537121
O O5 0.543820 0.649828 0.634623
O O6 0.897489 0.578893 0.579077
O O7 0.250000 0.250000 0.843440
O O8 0.514269 0.371236 0.776155
O O9 0.750000 0.250000 0.849359
O O10 0.750000 0.750000 0.297287
O O11 0.814864 0.558084 0.319316
#
# Coordination Sequence:
#
# PCOD9325466 Si02
#       5
#     4   8   8   8   4
#     4   8  14  28  50  94 135 173 228 280 336 405
#     4  12  27  49  71  97 133 176 225 290 344 418
#     4   9  18  32  61  94 140 180 228 287 341 408
#     4  11  23  43  68  97 137 178 228 286 344 413
#     4  12  28  47  70  98 135 180 230 280 357 416
#
# _framework density 21.746962
#
# number of rings (size 3 to 8) (size 9 to 14) (size 15 to 20)
#    0.000    1.500    2.500    2.250    3.500    3.000 
#    0.000    0.000    0.000    0.000    0.000    5.250 
#    0.000    0.000    0.000    0.000    0.000    0.000 
#
# Total GULP energy -89280.579293 kJ/mol
# GULP energy per Si atom -5580.036206 kJ/mol
# Density = 2.169746 g / cm^3
# Si number density = 21.746962 Si / 1000 Ang^3
#
#
#
# Elastic Constant Matrix: (Units=GPa)
#
#
# Indices 1 2 3 4 5 6 
#
# 1 97.0107 21.6070 24.6650 0.0000 0.0000 0.0000
# 2 21.6070 86.8718 8.3898 0.0000 0.0000 0.0000
# 3 24.6650 8.3898 209.2852 0.0000 0.0000 0.0000
# 4 0.0000 0.0000 0.0000 -22.5736 0.0000 0.0000
# 5 0.0000 0.0000 0.0000 0.0000 220.5425 0.0000
# 6 0.0000 0.0000 0.0000 0.0000 0.0000 -6.6125
#
#
#
# Elastic Compliance Matrix: (Units=1/GPa)
#
#
# Indices 1 2 3 4 5 6 
#
# 1 0.011212 -0.002671 -0.001214 0.000000 0.000000 0.000000
# 2 -0.002671 0.012192 -0.000174 0.000000 0.000000 0.000000
# 3 -0.001214 -0.000174 0.004928 0.000000 0.000000 0.000000
# 4 0.000000 0.000000 0.000000 -0.044300 0.000000 0.000000
# 5 0.000000 0.000000 0.000000 0.000000 0.004534 0.000000
# 6 0.000000 0.000000 0.000000 0.000000 0.000000 -0.151230
#
#
# Mechanical properties :
#
#
# Convention : Reuss Voigt Hill
#
# Bulk Modulus (GPa) = 49.47216 55.83237 52.65226
# Shear Modulus (GPa) = -33.82821 60.83836 13.50508
#
# Velocity S-wave (km/s) = -3.94831 5.29493 2.49471
# Velocity P-wave (km/s) = 1.41875 7.94425 5.70631
#
# Compressibility (1/GPa) = 0.02021339
#
# Stress axis : x y z
#
# Youngs Moduli (GPa) = 89.19131 82.01797 202.91191
#
# Poissons Ratio (x) = 0.21910 0.24639
# Poissons Ratio (y) = 0.23826 0.03529
# Poissons Ratio (z) = 0.10830 0.01427
#
# Static dielectric constant tensor:
#      x y z
#    x 1.816230 0.000000 0.000000 
#    y 0.000000 0.002860 0.000000 
#    z 0.000000 0.000000 1.819680 
# 
# From -- ./inp_files/34492.got.cif
#   From: 2010.05.17/outbox.cif.g08.bks.cpg/sg21_18_cif.got.tgz:34492.got - 2010.06.03 23:14:55.
