data_PCOD9325708
_publ_section_title
;
Structure prediction by ZEFSAII (Michael W. Deem and Ramdas Pophale) SiO2 
 PCOD9325708
Probable space group: C 2 2 2
;
_chemical_formula_sum "Si O2"
_cell_formula_units_Z 34
_cell_length_a 14.821207
_cell_length_b 14.655659
_cell_length_c 5.840047
_cell_angle_alpha 90.000000
_cell_angle_beta 90.000000
_cell_angle_gamma 90.000000
_cell_volume 1268.543215
_symmetry_space_group_name_H-M "C 2 2 2"
_symmetry_group_IT_number 21
_symmetry_cell_setting 'orthorhombic'
loop_
_space_group_symop_operation_xyz
x,y,z
-x,-y,z
x,-y,-z
-x,y,-z
1/2+x,1/2+y,z
1/2-x,1/2-y,z
1/2+x,1/2-y,-z
1/2-x,1/2+y,-z
loop_
_atom_site_type_symbol
_atom_site_label
_atom_site_fract_x
_atom_site_fract_y
_atom_site_fract_z
Si Si1 0.000000 0.000000 0.000000
Si Si2 0.430644 0.145935 0.309784
Si Si3 0.265036 0.115245 0.625751
Si Si4 0.750000 0.750000 0.982168
Si Si5 0.650418 0.000000 0.000000
Si Si6 0.109663 0.850375 0.713231
O O1 0.057241 0.933563 0.831010
O O2 0.500000 0.109535 0.500000
O O3 0.332435 0.137158 0.422852
O O4 0.447266 0.254988 0.284727
O O5 0.413800 0.081370 0.092132
O O6 0.303011 0.189646 0.804195
O O7 0.163278 0.125110 0.524757
O O8 0.286049 0.027344 0.781766
O O9 0.811026 0.818563 0.118445
#
# Coordination Sequence:
#
# PCOD9325708 Si02
#       6
#     2   8   8   4   4   8
#     4  12  36  54  98 142 192 234 318 398 472 550
#     4  12  28  50  85 122 177 227 298 386 453 545
#     4  12  25  51  86 124 172 231 308 358 452 555
#     4  12  22  50  90 118 164 236 306 344 454 546
#     4  12  28  50  84 132 164 236 306 384 450 553
#     4  12  27  59  84 134 178 249 294 381 466 563
#
# _framework density 26.802402000000001
#
# number of rings (size 3 to 8) (size 9 to 14) (size 15 to 20)
#    0.000    0.000    7.059    0.706    3.294    9.412 
#    0.000    6.471    0.000    0.706    0.000    0.000 
#    0.000    0.000    0.000    0.000    0.000    0.000 
#
# Total GULP energy -94910.910204 kJ/mol
# GULP energy per Si atom -5582.994718 kJ/mol
# Density = 2.674140 g / cm^3
# Si number density = 26.802402 Si / 1000 Ang^3
#
#
#
# Elastic Constant Matrix: (Units=GPa)
#
#
# Indices 1 2 3 4 5 6 
#
# 1 104.9426 67.7257 65.8598 0.0000 0.0000 0.0000
# 2 67.7257 217.1168 83.7937 0.0000 0.0000 0.0000
# 3 65.8598 83.7937 116.4793 0.0000 0.0000 0.0000
# 4 0.0000 0.0000 0.0000 58.4384 0.0000 0.0000
# 5 0.0000 0.0000 0.0000 0.0000 62.1485 0.0000
# 6 0.0000 0.0000 0.0000 0.0000 0.0000 30.7659
#
#
#
# Elastic Compliance Matrix: (Units=1/GPa)
#
#
# Indices 1 2 3 4 5 6 
#
# 1 0.015369 -0.001994 -0.007256 0.000000 0.000000 0.000000
# 2 -0.001994 0.006635 -0.003646 0.000000 0.000000 0.000000
# 3 -0.007256 -0.003646 0.015310 0.000000 0.000000 0.000000
# 4 0.000000 0.000000 0.000000 0.017112 0.000000 0.000000
# 5 0.000000 0.000000 0.000000 0.000000 0.016090 0.000000
# 6 0.000000 0.000000 0.000000 0.000000 0.000000 0.032504
#
#
# Mechanical properties :
#
#
# Convention : Reuss Voigt Hill
#
# Bulk Modulus (GPa) = 86.77546 97.03302 91.90424
# Shear Modulus (GPa) = 37.69251 45.01451 41.35351
#
# Velocity S-wave (km/s) = 3.75415 4.10261 3.93224
# Velocity P-wave (km/s) = 7.15806 7.66313 7.41490
#
# Compressibility (1/GPa) = 0.01152400
#
# Stress axis : x y z
#
# Youngs Moduli (GPa) = 65.06439 150.72187 65.31539
#
# Poissons Ratio (x) = 0.30053 0.47391
# Poissons Ratio (y) = 0.12973 0.23811
# Poissons Ratio (z) = 0.47209 0.54946
#
# Static dielectric constant tensor:
#      x y z
#    x 2.123140 0.000000 0.000000 
#    y 0.000000 2.374900 0.000000 
#    z 0.000000 0.000000 2.135550 
# 
# From -- ./inp_files/4709.got.cif
#   From: 2010.05.17/outbox.cif.g08.bks.cpg/sg21_3_cif.got.tgz:4709.got - 2010.06.03 23:14:55.
