data_PCOD9325886
_publ_section_title
;
Structure prediction by ZEFSAII (Michael W. Deem and Ramdas Pophale) SiO2 
 PCOD9325886
Probable space group: F 2 2 2
;
_chemical_formula_sum "Si O2"
_cell_formula_units_Z 52
_cell_length_a 5.069584
_cell_length_b 28.263970
_cell_length_c 21.677850
_cell_angle_alpha 90.000000
_cell_angle_beta 90.000000
_cell_angle_gamma 90.000000
_cell_volume 3106.144773
_symmetry_space_group_name_H-M "F 2 2 2"
_symmetry_group_IT_number 22
_symmetry_cell_setting 'orthorhombic'
loop_
_space_group_symop_operation_xyz
x,y,z
-x,-y,z
x,-y,-z
-x,y,-z
x,1/2+y,1/2+z
-x,1/2-y,1/2+z
x,1/2-y,1/2-z
-x,1/2+y,1/2-z
1/2+x,y,1/2+z
1/2-x,-y,1/2+z
1/2+x,-y,1/2-z
1/2-x,y,1/2-z
1/2+x,1/2+y,z
1/2-x,1/2-y,z
1/2+x,1/2-y,-z
1/2-x,1/2+y,-z
loop_
_atom_site_type_symbol
_atom_site_label
_atom_site_fract_x
_atom_site_fract_y
_atom_site_fract_z
Si Si1 0.612759 0.322705 0.648533
Si Si2 0.750000 0.250000 0.750000
Si Si3 0.862193 0.376462 0.316404
Si Si4 0.250000 0.031921 0.750000
Si Si5 0.750000 0.750000 0.457019
O O1 0.588688 0.283406 0.703053
O O2 0.346614 0.352201 0.638356
O O3 0.694431 0.294164 0.587983
O O4 0.846652 0.357941 0.670124
O O5 0.750000 0.359484 0.250000
O O6 0.836236 0.432720 0.305747
O O7 0.500000 0.000000 0.766454
O O8 0.500000 0.758830 0.500000
#
# Coordination Sequence:
#
# PCOD9325886 Si02
#       5
#    16   4  16   8   8
#     4  11  20  32  51  70 103 135 168 218 240 305
#     4  10  16  28  44  74  88 128 160 190 260 280
#     4  10  19  31  47  75 107 128 169 194 251 308
#     4  10  18  29  48  73 116 143 148 193 252 332
#     4  11  24  39  50  71 102 141 186 220 252 285
#
# _framework density 16.741009999999999
#
# number of rings (size 3 to 8) (size 9 to 14) (size 15 to 20)
#    0.923    0.615    3.077    3.692    0.000    4.923 
#    0.000    0.000    0.000    0.000    0.000    0.000 
#    0.000   86.154    0.000    0.000    0.000    0.000 
#
# Total GULP energy -72400.080131 kJ/mol
# GULP energy per Si atom -5569.236933 kJ/mol
# Density = 1.670291 g / cm^3
# Si number density = 16.741010 Si / 1000 Ang^3
#
#
#
# Elastic Constant Matrix: (Units=GPa)
#
#
# Indices 1 2 3 4 5 6 
#
# 1 72.0397 30.7408 3.3301 0.0000 0.0000 0.0000
# 2 30.7408 103.8321 18.4353 0.0000 0.0000 0.0000
# 3 3.3301 18.4353 64.1763 0.0000 0.0000 0.0000
# 4 0.0000 0.0000 0.0000 10.5226 0.0000 0.0000
# 5 0.0000 0.0000 0.0000 0.0000 24.9799 0.0000
# 6 0.0000 0.0000 0.0000 0.0000 0.0000 18.9791
#
#
#
# Elastic Compliance Matrix: (Units=1/GPa)
#
#
# Indices 1 2 3 4 5 6 
#
# 1 0.015907 -0.004808 0.000556 0.000000 0.000000 0.000000
# 2 -0.004808 0.011602 -0.003083 0.000000 0.000000 0.000000
# 3 0.000556 -0.003083 0.016439 0.000000 0.000000 0.000000
# 4 0.000000 0.000000 0.000000 0.095033 0.000000 0.000000
# 5 0.000000 0.000000 0.000000 0.000000 0.040032 0.000000
# 6 0.000000 0.000000 0.000000 0.000000 0.000000 0.052690
#
#
# Mechanical properties :
#
#
# Convention : Reuss Voigt Hill
#
# Bulk Modulus (GPa) = 34.15684 38.34005 36.24845
# Shear Modulus (GPa) = 19.52107 23.39913 21.46010
#
# Velocity S-wave (km/s) = 3.41847 3.74266 3.58423
# Velocity P-wave (km/s) = 6.00239 6.45199 6.23125
#
# Compressibility (1/GPa) = 0.02927671
#
# Stress axis : x y z
#
# Youngs Moduli (GPa) = 62.86423 86.19286 60.83122
#
# Poissons Ratio (x) = 0.41443 -0.03381
# Poissons Ratio (y) = 0.30227 0.18756
# Poissons Ratio (z) = -0.03494 0.26575
#
# Static dielectric constant tensor:
#      x y z
#    x 1.597950 0.000000 0.000000 
#    y 0.000000 1.590130 0.000000 
#    z 0.000000 0.000000 1.575320 
# 
# From -- ./inp_files/3333.got.cif
#   From: 2010.05.17/outbox.cif.g08.bks.cpg/sg22_2_cif.got.tgz:3333.got - 2010.06.03 23:40:54.
