data_PCOD9325176
_publ_section_title
;
Structure prediction by ZEFSAII (Michael W. Deem and Ramdas Pophale) SiO2 
 PCOD9325176
Probable space group: C 2 2 2
;
_chemical_formula_sum "Si O2"
_cell_formula_units_Z 48
_cell_length_a 18.605236
_cell_length_b 14.630661
_cell_length_c 7.892758
_cell_angle_alpha 90.000000
_cell_angle_beta 90.000000
_cell_angle_gamma 90.000000
_cell_volume 2148.463193
_symmetry_space_group_name_H-M "C 2 2 2"
_symmetry_group_IT_number 21
_symmetry_cell_setting 'orthorhombic'
loop_
_space_group_symop_operation_xyz
x,y,z
-x,-y,z
x,-y,-z
-x,y,-z
1/2+x,1/2+y,z
1/2-x,1/2-y,z
1/2+x,1/2-y,-z
1/2-x,1/2+y,-z
loop_
_atom_site_type_symbol
_atom_site_label
_atom_site_fract_x
_atom_site_fract_y
_atom_site_fract_z
Si Si1 0.081719 0.163887 0.020906
Si Si2 0.500000 0.000000 0.000000
Si Si3 0.608058 0.645818 0.637914
Si Si4 0.946367 0.649329 0.230960
Si Si5 0.000000 0.000000 0.500000
Si Si6 0.690847 0.500000 0.000000
Si Si7 0.902237 0.663034 0.580871
Si Si8 0.238027 0.432683 0.656077
O O1 0.104386 0.185114 0.827936
O O2 0.137859 0.082696 0.063849
O O3 0.075794 0.255026 0.138375
O O4 0.000000 0.128444 0.000000
O O5 0.552305 0.932343 0.099801
O O6 0.551990 0.564569 0.609945
O O7 0.590055 0.731420 0.522996
O O8 0.688290 0.616328 0.600954
O O9 0.903101 0.617515 0.396208
O O10 0.028194 0.648843 0.303723
O O11 0.739393 0.526244 0.838543
O O12 0.829048 0.635421 0.670763
O O13 0.222961 0.500000 0.500000
#
# Coordination Sequence:
#
# PCOD9325176 Si02
#       8
#     8   2   8   8   2   4   8   8
#     4  11  22  42  71 115 142 185 234 319 379 451
#     4  12  24  44  64 102 146 182 236 326 362 440
#     4  11  24  42  72 104 149 188 241 305 385 445
#     4  11  25  43  74 106 143 188 256 309 384 428
#     4  12  24  40  78 112 142 188 248 316 376 462
#     4  10  27  45  78 108 156 190 256 302 392 459
#     4  11  25  45  71 102 146 196 248 301 371 460
#     4  11  26  47  68 106 147 203 246 298 367 456
#
# _framework density 22.341550999999999
#
# number of rings (size 3 to 8) (size 9 to 14) (size 15 to 20)
#    0.000    1.000    3.333    1.750    9.333    1.333 
#    3.000    0.000    0.000    0.000    0.000    0.000 
#    0.000    0.000    0.000    0.000    0.000    0.000 
#
# Total GULP energy -133943.300478 kJ/mol
# GULP energy per Si atom -5580.970853 kJ/mol
# Density = 2.229070 g / cm^3
# Si number density = 22.341551 Si / 1000 Ang^3
#
#
#
# Elastic Constant Matrix: (Units=GPa)
#
#
# Indices 1 2 3 4 5 6 
#
# 1 145.5496 70.1044 45.1005 0.0000 0.0000 0.0000
# 2 70.1044 113.6353 74.7541 0.0000 0.0000 0.0000
# 3 45.1005 74.7541 99.7818 0.0000 0.0000 0.0000
# 4 0.0000 0.0000 0.0000 19.2993 0.0000 0.0000
# 5 0.0000 0.0000 0.0000 0.0000 21.0642 0.0000
# 6 0.0000 0.0000 0.0000 0.0000 0.0000 27.7812
#
#
#
# Elastic Compliance Matrix: (Units=1/GPa)
#
#
# Indices 1 2 3 4 5 6 
#
# 1 0.009777 -0.006161 0.000197 0.000000 0.000000 0.000000
# 2 -0.006161 0.021234 -0.013123 0.000000 0.000000 0.000000
# 3 0.000197 -0.013123 0.019765 0.000000 0.000000 0.000000
# 4 0.000000 0.000000 0.000000 0.051815 0.000000 0.000000
# 5 0.000000 0.000000 0.000000 0.000000 0.047474 0.000000
# 6 0.000000 0.000000 0.000000 0.000000 0.000000 0.035996
#
#
# Mechanical properties :
#
#
# Convention : Reuss Voigt Hill
#
# Bulk Modulus (GPa) = 79.36354 82.09829 80.73092
# Shear Modulus (GPa) = 21.88794 24.89610 23.39202
#
# Velocity S-wave (km/s) = 3.13341 3.34180 3.23928
# Velocity P-wave (km/s) = 6.97789 7.19144 7.08547
#
# Compressibility (1/GPa) = 0.01260024
#
# Stress axis : x y z
#
# Youngs Moduli (GPa) = 102.27995 47.09426 50.59527
#
# Poissons Ratio (x) = 0.29015 -0.00994
# Poissons Ratio (y) = 0.63015 0.66398
# Poissons Ratio (z) = -0.02010 0.61803
#
# Static dielectric constant tensor:
#      x y z
#    x 1.813310 0.000000 0.000000 
#    y 0.000000 1.951940 0.000000 
#    z 0.000000 0.000000 1.849720 
# 
# From -- ./inp_files/16499.got.cif
#   From: 2010.05.17/outbox.cif.g08.bks.cpg/sg21_9_cif.got.tgz:16499.got - 2010.06.03 23:14:55.
