data_PCOD9325669
_publ_section_title
;
Structure prediction by ZEFSAII (Michael W. Deem and Ramdas Pophale) SiO2 
 PCOD9325669
Probable space group: C 2 2 2
;
_chemical_formula_sum "Si O2"
_cell_formula_units_Z 22
_cell_length_a 14.280933
_cell_length_b 12.071148
_cell_length_c 6.308184
_cell_angle_alpha 90.000000
_cell_angle_beta 90.000000
_cell_angle_gamma 90.000000
_cell_volume 1087.450529
_symmetry_space_group_name_H-M "C 2 2 2"
_symmetry_group_IT_number 21
_symmetry_cell_setting 'orthorhombic'
loop_
_space_group_symop_operation_xyz
x,y,z
-x,-y,z
x,-y,-z
-x,y,-z
1/2+x,1/2+y,z
1/2-x,1/2-y,z
1/2+x,1/2-y,-z
1/2-x,1/2+y,-z
loop_
_atom_site_type_symbol
_atom_site_label
_atom_site_fract_x
_atom_site_fract_y
_atom_site_fract_z
Si Si1 0.750000 0.250000 0.102204
Si Si2 0.360727 0.662818 0.716924
Si Si3 0.165121 0.377491 0.516048
Si Si4 0.000000 0.000000 0.500000
O O1 0.808629 0.333471 0.250760
O O2 0.675181 0.313803 0.954025
O O3 0.266241 0.621570 0.600306
O O4 0.387891 0.780645 0.610405
O O5 0.438534 0.575598 0.656201
O O6 0.124393 0.500000 0.500000
#
# Coordination Sequence:
#
# PCOD9325669 Si02
#       4
#     4   8   8   2
#     4   8  18  36  56  90 110 158 210 226 296 348
#     4   9  20  32  55  83 123 159 190 244 288 355
#     4   9  17  37  57  82 114 152 208 248 278 341
#     4  12  20  40  52  92 138 154 180 248 312 332
#
# _framework density 20.230803999999999
#
# number of rings (size 3 to 8) (size 9 to 14) (size 15 to 20)
#    0.000    3.636    1.818    0.000    0.000    5.818 
#    0.000   15.455    0.000    0.000    0.000   20.364 
#    0.000    0.000    0.000    0.000    0.000    0.000 
#
# Total GULP energy -61309.807467 kJ/mol
# GULP energy per Si atom -5573.618861 kJ/mol
# Density = 2.018476 g / cm^3
# Si number density = 20.230804 Si / 1000 Ang^3
#
#
#
# Elastic Constant Matrix: (Units=GPa)
#
#
# Indices 1 2 3 4 5 6 
#
# 1 51.4810 32.8763 20.4917 0.0000 0.0000 0.0000
# 2 32.8763 157.4019 45.0617 0.0000 0.0000 0.0000
# 3 20.4917 45.0617 141.1731 0.0000 0.0000 0.0000
# 4 0.0000 0.0000 0.0000 3.2491 0.0000 0.0000
# 5 0.0000 0.0000 0.0000 0.0000 -0.6412 0.0000
# 6 0.0000 0.0000 0.0000 0.0000 0.0000 42.6091
#
#
#
# Elastic Compliance Matrix: (Units=1/GPa)
#
#
# Indices 1 2 3 4 5 6 
#
# 1 0.022906 -0.004218 -0.001979 0.000000 0.000000 0.000000
# 2 -0.004218 0.007769 -0.001868 0.000000 0.000000 0.000000
# 3 -0.001979 -0.001868 0.007967 0.000000 0.000000 0.000000
# 4 0.000000 0.000000 0.000000 0.307777 0.000000 0.000000
# 5 0.000000 0.000000 0.000000 0.000000 -1.559553 0.000000
# 6 0.000000 0.000000 0.000000 0.000000 0.000000 0.023469
#
#
# Mechanical properties :
#
#
# Convention : Reuss Voigt Hill
#
# Bulk Modulus (GPa) = 44.41776 60.76837 52.59306
# Shear Modulus (GPa) = -4.28804 25.81848 10.76522
#
# Velocity S-wave (km/s) = -1.45745 3.57626 2.30928
# Velocity P-wave (km/s) = 4.37846 6.86700 5.75876
#
# Compressibility (1/GPa) = 0.02251352
#
# Stress axis : x y z
#
# Youngs Moduli (GPa) = 43.65715 128.72031 125.52105
#
# Poissons Ratio (x) = 0.54293 0.24835
# Poissons Ratio (y) = 0.18414 0.23441
# Poissons Ratio (z) = 0.08638 0.24039
#
# Static dielectric constant tensor:
#      x y z
#    x 1.718570 0.000000 0.000000 
#    y 0.000000 1.795230 0.000000 
#    z 0.000000 0.000000 1.737230 
# 
# From -- ./inp_files/1953.got.cif
#   From: 2010.05.17/outbox.cif.g08.bks.cpg/sg21_1_cif.got.tgz:1953.got - 2010.06.03 23:14:55.
