data_PCOD9325638
_publ_section_title
;
Structure prediction by ZEFSAII (Michael W. Deem and Ramdas Pophale) SiO2 
 PCOD9325638
Probable space group: C 2 2 2
;
_chemical_formula_sum "Si O2"
_cell_formula_units_Z 36
_cell_length_a 25.103472
_cell_length_b 6.882981
_cell_length_c 10.148150
_cell_angle_alpha 90.000000
_cell_angle_beta 90.000000
_cell_angle_gamma 90.000000
_cell_volume 1753.465561
_symmetry_space_group_name_H-M "C 2 2 2"
_symmetry_group_IT_number 21
_symmetry_cell_setting 'orthorhombic'
loop_
_space_group_symop_operation_xyz
x,y,z
-x,-y,z
x,-y,-z
-x,y,-z
1/2+x,1/2+y,z
1/2-x,1/2-y,z
1/2+x,1/2-y,-z
1/2-x,1/2+y,-z
loop_
_atom_site_type_symbol
_atom_site_label
_atom_site_fract_x
_atom_site_fract_y
_atom_site_fract_z
Si Si1 0.134106 0.978702 0.158107
Si Si2 0.305281 0.195375 0.326274
Si Si3 0.601966 0.000000 0.500000
Si Si4 0.057166 0.890617 0.379929
Si Si5 0.701281 0.121538 0.119051
O O1 0.169351 0.143530 0.228426
O O2 0.080639 0.951490 0.239889
O O3 0.162107 0.773841 0.180990
O O4 0.129588 0.000000 0.000000
O O5 0.250000 0.250000 0.402132
O O6 0.355852 0.115056 0.407159
O O7 0.283232 0.026365 0.231426
O O8 0.565971 0.162171 0.420482
O O9 0.087460 0.000000 0.500000
O O10 0.000000 0.000000 0.377724
O O11 0.750000 0.250000 0.064945
O O12 0.676919 0.000000 0.000000
#
# Coordination Sequence:
#
# PCOD9325638 Si02
#       5
#     8   8   4   8   8
#     4  12  24  42  70 105 145 182 238 297 362 430
#     4  12  25  40  66 105 145 196 232 291 353 438
#     4  12  26  47  74 104 144 188 253 300 362 438
#     4  11  26  48  75 102 132 185 246 310 373 424
#     4  12  22  37  63  99 142 193 235 278 344 435
#
# _framework density 20.530771999999999
#
# number of rings (size 3 to 8) (size 9 to 14) (size 15 to 20)
#    0.000    0.222    8.889    1.333    0.000    4.889 
#    0.000    0.000    0.000    0.000    0.000    0.000 
#    0.000    0.000    0.000    0.000    0.000    0.000 
#
# Total GULP energy -100216.492926 kJ/mol
# GULP energy per Si atom -5567.582940 kJ/mol
# Density = 2.048404 g / cm^3
# Si number density = 20.530772 Si / 1000 Ang^3
#
#
#
# Elastic Constant Matrix: (Units=GPa)
#
#
# Indices 1 2 3 4 5 6 
#
# 1 119.0397 62.0520 50.8644 0.0000 0.0000 0.0000
# 2 62.0520 126.9176 35.4288 0.0000 0.0000 0.0000
# 3 50.8644 35.4288 68.5100 0.0000 0.0000 0.0000
# 4 0.0000 0.0000 0.0000 20.2505 0.0000 0.0000
# 5 0.0000 0.0000 0.0000 0.0000 29.4200 0.0000
# 6 0.0000 0.0000 0.0000 0.0000 0.0000 29.0000
#
#
#
# Elastic Compliance Matrix: (Units=1/GPa)
#
#
# Indices 1 2 3 4 5 6 
#
# 1 0.014387 -0.004736 -0.008232 0.000000 0.000000 0.000000
# 2 -0.004736 0.010767 -0.002052 0.000000 0.000000 0.000000
# 3 -0.008232 -0.002052 0.021769 0.000000 0.000000 0.000000
# 4 0.000000 0.000000 0.000000 0.049381 0.000000 0.000000
# 5 0.000000 0.000000 0.000000 0.000000 0.033991 0.000000
# 6 0.000000 0.000000 0.000000 0.000000 0.000000 0.034483
#
#
# Mechanical properties :
#
#
# Convention : Reuss Voigt Hill
#
# Bulk Modulus (GPa) = 59.23001 67.90644 63.56822
# Shear Modulus (GPa) = 24.94431 26.80891 25.87661
#
# Velocity S-wave (km/s) = 3.48943 3.61749 3.55404
# Velocity P-wave (km/s) = 6.71914 7.11306 6.91890
#
# Compressibility (1/GPa) = 0.01688333
#
# Stress axis : x y z
#
# Youngs Moduli (GPa) = 69.50826 92.87271 45.93588
#
# Poissons Ratio (x) = 0.43984 0.37815
# Poissons Ratio (y) = 0.32919 0.09426
# Poissons Ratio (z) = 0.57220 0.19058
#
# Static dielectric constant tensor:
#      x y z
#    x 4.593520 0.000000 0.000000 
#    y 0.000000 1.774360 0.000000 
#    z 0.000000 0.000000 1.744670 
# 
# From -- ./inp_files/27145.got.cif
#   From: 2010.05.17/outbox.cif.g08.bks.cpg/sg21_14_cif.got.tgz:27145.got - 2010.06.03 23:14:55.
