data_PCOD9325987
_publ_section_title
;
Structure prediction by ZEFSAII (Michael W. Deem and Ramdas Pophale) SiO2 
 PCOD9325987
Probable space group: F 2 2 2
;
_chemical_formula_sum "Si O2"
_cell_formula_units_Z 52
_cell_length_a 17.641405
_cell_length_b 21.822694
_cell_length_c 7.341919
_cell_angle_alpha 90.000000
_cell_angle_beta 90.000000
_cell_angle_gamma 90.000000
_cell_volume 2826.513878
_symmetry_space_group_name_H-M "F 2 2 2"
_symmetry_group_IT_number 22
_symmetry_cell_setting 'orthorhombic'
loop_
_space_group_symop_operation_xyz
x,y,z
-x,-y,z
x,-y,-z
-x,y,-z
x,1/2+y,1/2+z
-x,1/2-y,1/2+z
x,1/2-y,1/2-z
-x,1/2+y,1/2-z
1/2+x,y,1/2+z
1/2-x,-y,1/2+z
1/2+x,-y,1/2-z
1/2-x,y,1/2-z
1/2+x,1/2+y,z
1/2-x,1/2-y,z
1/2+x,1/2-y,-z
1/2-x,1/2+y,-z
loop_
_atom_site_type_symbol
_atom_site_label
_atom_site_fract_x
_atom_site_fract_y
_atom_site_fract_z
Si Si1 0.780970 0.657465 0.941333
Si Si2 0.179088 0.556259 0.623449
Si Si3 0.412734 0.572474 0.536294
Si Si4 0.250000 0.750000 0.750000
O O1 0.750000 0.682173 0.750000
O O2 0.855903 0.615555 0.923149
O O3 0.715514 0.611331 0.010826
O O4 0.793127 0.705953 0.105579
O O5 0.154314 0.500000 0.500000
O O6 0.250000 0.534386 0.750000
O O7 0.386661 0.579710 0.745079
O O8 0.400416 0.500000 0.500000
O O9 0.500000 0.586544 0.500000
#
# Coordination Sequence:
#
# PCOD9325987 Si02
#       4
#    16  16  16   4
#     4  11  21  38  63  87 115 155 205 246 289 348
#     4  10  17  32  58  89 118 153 198 246 293 349
#     4  10  20  36  58  90 127 154 187 241 306 362
#     4  12  22  40  64  86 116 152 216 246 284 338
#
# _framework density 18.397221999999999
#
# number of rings (size 3 to 8) (size 9 to 14) (size 15 to 20)
#    0.000    1.538    4.615    6.923    0.000    0.000 
#    0.000   10.769    6.769    0.000    0.000    0.000 
#    0.000    0.000    0.000    0.000    0.000    0.000 
#
# Total GULP energy -72465.353738 kJ/mol
# GULP energy per Si atom -5574.257980 kJ/mol
# Density = 1.835535 g / cm^3
# Si number density = 18.397222 Si / 1000 Ang^3
#
#
#
# Elastic Constant Matrix: (Units=GPa)
#
#
# Indices 1 2 3 4 5 6 
#
# 1 126.6618 43.6756 54.7162 0.0000 0.0001 0.0000
# 2 43.6756 84.8921 31.2363 0.0000 0.0001 0.0000
# 3 54.7162 31.2363 105.9895 0.0000 0.0001 0.0001
# 4 0.0000 0.0000 0.0000 40.4906 0.0000 0.0000
# 5 0.0001 0.0001 0.0001 0.0000 14.8640 -0.0001
# 6 0.0000 0.0000 0.0001 0.0000 -0.0001 1.9049
#
#
#
# Elastic Compliance Matrix: (Units=1/GPa)
#
#
# Indices 1 2 3 4 5 6 
#
# 1 0.011314 -0.004118 -0.004627 0.000000 0.000000 0.000000
# 2 -0.004118 0.014711 -0.002210 0.000000 0.000000 0.000000
# 3 -0.004627 -0.002210 0.012475 0.000000 0.000000 0.000000
# 4 0.000000 0.000000 0.000000 0.024697 0.000000 0.000000
# 5 0.000000 0.000000 0.000000 0.000000 0.067277 0.000002
# 6 0.000000 0.000000 0.000000 0.000000 0.000002 0.524959
#
#
# Mechanical properties :
#
#
# Convention : Reuss Voigt Hill
#
# Bulk Modulus (GPa) = 60.27610 64.08885 62.18247
# Shear Modulus (GPa) = 7.32200 23.97960 15.65080
#
# Velocity S-wave (km/s) = 1.99715 3.61423 2.91987
# Velocity P-wave (km/s) = 6.17681 7.23385 6.72613
#
# Compressibility (1/GPa) = 0.01659032
#
# Stress axis : x y z
#
# Youngs Moduli (GPa) = 88.38669 67.97414 80.16194
#
# Poissons Ratio (x) = 0.27994 0.37091
# Poissons Ratio (y) = 0.36400 0.17713
# Poissons Ratio (z) = 0.40897 0.15020
#
# Static dielectric constant tensor:
#      x y z
#    x 1.606930 0.000000 0.000000 
#    y 0.000000 1.672770 0.000000 
#    z 0.000000 0.000000 1.696490 
# 
# From -- ./inp_files/9641.got.cif
#   From: 2010.05.17/outbox.cif.g08.bks.cpg/sg22_5_cif.got.tgz:9641.got - 2010.06.03 23:40:54.
