data_PCOD9325967
_publ_section_title
;
Structure prediction by ZEFSAII (Michael W. Deem and Ramdas Pophale) SiO2 
 PCOD9325967
Probable space group: F 2 2 2
;
_chemical_formula_sum "Si O2"
_cell_formula_units_Z 104
_cell_length_a 8.378861
_cell_length_b 19.812431
_cell_length_c 32.912373
_cell_angle_alpha 90.000000
_cell_angle_beta 90.000000
_cell_angle_gamma 90.000000
_cell_volume 5463.638406
_symmetry_space_group_name_H-M "F 2 2 2"
_symmetry_group_IT_number 22
_symmetry_cell_setting 'orthorhombic'
loop_
_space_group_symop_operation_xyz
x,y,z
-x,-y,z
x,-y,-z
-x,y,-z
x,1/2+y,1/2+z
-x,1/2-y,1/2+z
x,1/2-y,1/2-z
-x,1/2+y,1/2-z
1/2+x,y,1/2+z
1/2-x,-y,1/2+z
1/2+x,-y,1/2-z
1/2-x,y,1/2-z
1/2+x,1/2+y,z
1/2-x,1/2-y,z
1/2+x,1/2-y,-z
1/2-x,1/2+y,-z
loop_
_atom_site_type_symbol
_atom_site_label
_atom_site_fract_x
_atom_site_fract_y
_atom_site_fract_z
Si Si1 0.443795 0.329352 0.244471
Si Si2 0.971745 0.634313 0.828281
Si Si3 0.403484 0.701336 0.459149
Si Si4 0.496534 0.769684 0.619777
Si Si5 0.000000 0.000000 0.886544
Si Si6 0.757025 0.109190 0.102539
Si Si7 0.838694 0.881206 0.161780
O O1 0.476957 0.250000 0.250000
O O2 0.250000 0.335259 0.250000
O O3 0.550509 0.363173 0.279664
O O4 0.452859 0.360392 0.199644
O O5 0.153118 0.608426 0.830220
O O6 0.972633 0.710563 0.847424
O O7 0.853716 0.594557 0.858183
O O8 0.500000 0.689939 0.500000
O O9 0.250000 0.750000 0.466504
O O10 0.510895 0.737221 0.424592
O O11 0.342369 0.634437 0.436112
O O12 0.639191 0.825013 0.616203
O O13 0.349462 0.815781 0.632821
O O14 0.906780 0.053177 0.859053
O O15 0.128161 0.047423 0.908783
#
# Coordination Sequence:
#
# PCOD9325967 Si02
#       7
#    16  16  16  16   8  16  16
#     4   9  16  28  48  79 113 142 177 238 295 333
#     4  10  17  30  54  81 105 140 194 242 283 326
#     4   9  18  32  54  88 119 136 165 226 293 346
#     4   9  17  32  52  81 116 139 171 225 291 343
#     4  10  22  40  52  68 115 160 196 232 269 330
#     4   9  20  36  55  79 114 153 189 232 275 340
#     4  10  19  32  53  79 107 151 192 228 279 339
#
# _framework density 19.034934
#
# number of rings (size 3 to 8) (size 9 to 14) (size 15 to 20)
#    0.000    2.615    1.538    1.846    0.000    3.077 
#    0.000    7.692    0.000    0.000    0.000  121.154 
#    0.000    0.000    0.000    0.000    0.000    0.000 
#
# Total GULP energy -144755.530253 kJ/mol
# GULP energy per Si atom -5567.520394 kJ/mol
# Density = 1.899161 g / cm^3
# Si number density = 19.034934 Si / 1000 Ang^3
#
#
#
# Elastic Constant Matrix: (Units=GPa)
#
#
# Indices 1 2 3 4 5 6 
#
# 1 41.9053 13.5095 38.3661 0.0000 0.0000 0.0000
# 2 13.5095 70.7003 29.6637 0.0000 0.0000 0.0000
# 3 38.3661 29.6637 128.9743 0.0000 0.0000 0.0000
# 4 0.0000 0.0000 0.0000 10.9520 0.0000 0.0000
# 5 0.0000 0.0000 0.0000 0.0000 23.2505 0.0000
# 6 0.0000 0.0000 0.0000 0.0000 0.0000 25.0152
#
#
#
# Elastic Compliance Matrix: (Units=1/GPa)
#
#
# Indices 1 2 3 4 5 6 
#
# 1 0.033169 -0.002433 -0.009307 0.000000 0.000000 0.000000
# 2 -0.002433 0.015833 -0.002918 0.000000 0.000000 0.000000
# 3 -0.009307 -0.002918 0.011193 0.000000 0.000000 0.000000
# 4 0.000000 0.000000 0.000000 0.091308 0.000000 0.000000
# 5 0.000000 0.000000 0.000000 0.000000 0.043010 0.000000
# 6 0.000000 0.000000 0.000000 0.000000 0.000000 0.039976
#
#
# Mechanical properties :
#
#
# Convention : Reuss Voigt Hill
#
# Bulk Modulus (GPa) = 32.38413 44.96206 38.67310
# Shear Modulus (GPa) = 18.24168 22.51292 20.37730
#
# Velocity S-wave (km/s) = 3.09904 3.44279 3.27543
# Velocity P-wave (km/s) = 5.46401 6.28298 5.88775
#
# Compressibility (1/GPa) = 0.03087932
#
# Stress axis : x y z
#
# Youngs Moduli (GPa) = 30.14888 63.15775 89.34002
#
# Poissons Ratio (x) = 0.15366 0.83150
# Poissons Ratio (y) = 0.07335 0.26069
# Poissons Ratio (z) = 0.28060 0.18429
#
# Static dielectric constant tensor:
#      x y z
#    x 1.758040 0.000000 0.000000 
#    y 0.000000 1.659220 0.000000 
#    z 0.000000 0.000000 1.690510 
# 
# From -- ./inp_files/55608.got.cif
#   From: 2010.05.17/outbox.cif.g08.bks.cpg/sg22_28_cif.got.tgz:55608.got - 2010.06.03 23:40:54.
