data_PCOD9325522
_publ_section_title
;
Structure prediction by ZEFSAII (Michael W. Deem and Ramdas Pophale) SiO2 
 PCOD9325522
Probable space group: C 2 2 2
;
_chemical_formula_sum "Si O2"
_cell_formula_units_Z 26
_cell_length_a 20.946075
_cell_length_b 12.286317
_cell_length_c 4.796436
_cell_angle_alpha 90.000000
_cell_angle_beta 90.000000
_cell_angle_gamma 90.000000
_cell_volume 1234.363367
_symmetry_space_group_name_H-M "C 2 2 2"
_symmetry_group_IT_number 21
_symmetry_cell_setting 'orthorhombic'
loop_
_space_group_symop_operation_xyz
x,y,z
-x,-y,z
x,-y,-z
-x,y,-z
1/2+x,1/2+y,z
1/2-x,1/2-y,z
1/2+x,1/2-y,-z
1/2-x,1/2+y,-z
loop_
_atom_site_type_symbol
_atom_site_label
_atom_site_fract_x
_atom_site_fract_y
_atom_site_fract_z
Si Si1 0.151205 0.212236 0.359226
Si Si2 0.226445 0.424113 0.267116
Si Si3 0.000000 0.000000 0.500000
Si Si4 0.563941 0.683785 0.864072
O O1 0.180961 0.320721 0.220852
O O2 0.209730 0.129208 0.402546
O O3 0.109780 0.239775 0.633447
O O4 0.106297 0.158017 0.130375
O O5 0.195769 0.500000 0.500000
O O6 0.239256 0.500000 0.000000
O O7 0.959763 0.921553 0.698848
O O8 0.500000 0.738121 0.000000
#
# Coordination Sequence:
#
# PCOD9325522 Si02
#       4
#     8   8   2   8
#     4  11  25  41  65  99 133 170 217 268 331 391
#     4  11  24  42  67  96 130 176 220 270 326 388
#     4  12  26  36  62 104 120 176 206 252 352 396
#     4  12  24  40  62  95 137 164 213 262 331 401
#
# _framework density 21.063490999999999
#
# number of rings (size 3 to 8) (size 9 to 14) (size 15 to 20)
#    0.000    0.615    3.077    4.154    6.462    4.923 
#    0.000    0.000    0.000   13.846    0.000    0.000 
#    0.000    0.000    0.000    0.000    0.000    0.000 
#
# Total GULP energy -72555.164660 kJ/mol
# GULP energy per Si atom -5581.166512 kJ/mol
# Density = 2.101555 g / cm^3
# Si number density = 21.063491 Si / 1000 Ang^3
#
#
#
# Elastic Constant Matrix: (Units=GPa)
#
#
# Indices 1 2 3 4 5 6 
#
# 1 97.9824 23.1572 35.2620 0.0000 0.0000 0.0000
# 2 23.1572 86.8168 17.6172 0.0000 0.0000 0.0000
# 3 35.2620 17.6172 122.4344 0.0000 0.0000 0.0000
# 4 0.0000 0.0000 0.0000 30.9701 0.0000 0.0000
# 5 0.0000 0.0000 0.0000 0.0000 42.3153 0.0000
# 6 0.0000 0.0000 0.0000 0.0000 0.0000 19.3907
#
#
#
# Elastic Compliance Matrix: (Units=1/GPa)
#
#
# Indices 1 2 3 4 5 6 
#
# 1 0.011912 -0.002556 -0.003063 0.000000 0.000000 0.000000
# 2 -0.002556 0.012413 -0.001050 0.000000 0.000000 0.000000
# 3 -0.003063 -0.001050 0.009201 0.000000 0.000000 0.000000
# 4 0.000000 0.000000 0.000000 0.032289 0.000000 0.000000
# 5 0.000000 0.000000 0.000000 0.000000 0.023632 0.000000
# 6 0.000000 0.000000 0.000000 0.000000 0.000000 0.051571
#
#
# Mechanical properties :
#
#
# Convention : Reuss Voigt Hill
#
# Bulk Modulus (GPa) = 49.53296 51.03402 50.28349
# Shear Modulus (GPa) = 31.03924 33.94838 32.49381
#
# Velocity S-wave (km/s) = 3.84292 4.01897 3.93193
# Velocity P-wave (km/s) = 6.57707 6.76886 6.67365
#
# Compressibility (1/GPa) = 0.02018858
#
# Stress axis : x y z
#
# Youngs Moduli (GPa) = 83.94677 80.55854 108.68482
#
# Poissons Ratio (x) = 0.20590 0.33291
# Poissons Ratio (y) = 0.21456 0.11412
# Poissons Ratio (z) = 0.25713 0.08459
#
# Static dielectric constant tensor:
#      x y z
#    x 1.833100 0.000000 0.000000 
#    y 0.000000 1.736170 0.000000 
#    z 0.000000 0.000000 1.773520 
# 
# From -- ./inp_files/4563.got.cif
#   From: 2010.05.17/outbox.cif.g08.bks.cpg/sg21_3_cif.got.tgz:4563.got - 2010.06.03 23:14:55.
