data_PCOD9325336
_publ_section_title
;
Structure prediction by ZEFSAII (Michael W. Deem and Ramdas Pophale) SiO2 
 PCOD9325336
Probable space group: C 2 2 2
;
_chemical_formula_sum "Si O2"
_cell_formula_units_Z 40
_cell_length_a 4.801562
_cell_length_b 31.559553
_cell_length_c 11.323185
_cell_angle_alpha 90.000000
_cell_angle_beta 90.000000
_cell_angle_gamma 90.000000
_cell_volume 1715.860542
_symmetry_space_group_name_H-M "C 2 2 2"
_symmetry_group_IT_number 21
_symmetry_cell_setting 'orthorhombic'
loop_
_space_group_symop_operation_xyz
x,y,z
-x,-y,z
x,-y,-z
-x,y,-z
1/2+x,1/2+y,z
1/2-x,1/2-y,z
1/2+x,1/2-y,-z
1/2-x,1/2+y,-z
loop_
_atom_site_type_symbol
_atom_site_label
_atom_site_fract_x
_atom_site_fract_y
_atom_site_fract_z
Si Si1 0.033496 0.340929 0.809999
Si Si2 0.031461 0.046174 0.709776
Si Si3 0.024917 0.563678 0.866218
Si Si4 0.236599 0.125559 0.422166
Si Si5 0.565977 0.286601 0.870015
O O1 0.086887 0.387831 0.857392
O O2 0.294664 0.308535 0.811806
O O3 0.881252 0.347759 0.682954
O O4 0.787749 0.323311 0.890489
O O5 0.837570 0.054558 0.824537
O O6 0.936178 0.085782 0.630358
O O7 0.340054 0.044511 0.761799
O O8 0.000000 0.000000 0.653287
O O9 0.000000 0.549150 0.000000
O O10 0.500000 0.111329 0.500000
O O11 0.000000 0.149044 0.500000
O O12 0.750000 0.250000 0.805736
O O13 0.500000 0.269836 0.000000
#
# Coordination Sequence:
#
# PCOD9325336 Si02
#       5
#     8   8   8   8   8
#     4  11  23  40  63  92 129 168 216 267 309 378
#     4  11  24  40  59  91 128 164 217 275 326 383
#     4  11  22  38  61  90 127 174 214 251 314 391
#     4  11  23  43  67  91 121 169 228 280 331 375
#     4  12  23  39  64 100 138 171 201 242 313 389
#
# _framework density 23.311917999999999
#
# number of rings (size 3 to 8) (size 9 to 14) (size 15 to 20)
#    0.000    0.800    0.000   10.800    0.000    2.800 
#    0.000    3.000    0.000    3.600    0.000    4.200 
#    0.000    0.000    0.000    0.000    0.000    0.000 
#
# Total GULP energy -111594.201778 kJ/mol
# GULP energy per Si atom -5579.710089 kJ/mol
# Density = 2.325886 g / cm^3
# Si number density = 23.311918 Si / 1000 Ang^3
#
#
#
# Elastic Constant Matrix: (Units=GPa)
#
#
# Indices 1 2 3 4 5 6 
#
# 1 137.0880 46.7142 25.4225 0.0000 0.0000 0.0000
# 2 46.7142 94.4080 13.5967 0.0000 0.0000 0.0000
# 3 25.4225 13.5967 86.8879 0.0000 0.0000 0.0000
# 4 0.0000 0.0000 0.0000 13.6847 0.0000 0.0000
# 5 0.0000 0.0000 0.0000 0.0000 33.1741 0.0000
# 6 0.0000 0.0000 0.0000 0.0000 0.0000 48.2346
#
#
#
# Elastic Compliance Matrix: (Units=1/GPa)
#
#
# Indices 1 2 3 4 5 6 
#
# 1 0.009103 -0.004216 -0.002004 0.000000 0.000000 0.000000
# 2 -0.004216 0.012789 -0.000768 0.000000 0.000000 0.000000
# 3 -0.002004 -0.000768 0.012215 0.000000 0.000000 0.000000
# 4 0.000000 0.000000 0.000000 0.073074 0.000000 0.000000
# 5 0.000000 0.000000 0.000000 0.000000 0.030144 0.000000
# 6 0.000000 0.000000 0.000000 0.000000 0.000000 0.020732
#
#
# Mechanical properties :
#
#
# Convention : Reuss Voigt Hill
#
# Bulk Modulus (GPa) = 49.67005 54.42785 52.04895
# Shear Modulus (GPa) = 27.97323 34.52872 31.25098
#
# Velocity S-wave (km/s) = 3.46779 3.85276 3.66534
# Velocity P-wave (km/s) = 6.11450 6.57191 6.34733
#
# Compressibility (1/GPa) = 0.02013286
#
# Stress axis : x y z
#
# Youngs Moduli (GPa) = 109.85821 78.19342 81.86330
#
# Poissons Ratio (x) = 0.32963 0.16403
# Poissons Ratio (y) = 0.46311 0.06286
# Poissons Ratio (z) = 0.22012 0.06004
#
# Static dielectric constant tensor:
#      x y z
#    x 1.899860 0.000000 0.000000 
#    y 0.000000 1.984300 0.000000 
#    z 0.000000 0.000000 1.929050 
# 
# From -- ./inp_files/21392.got.cif
#   From: 2010.05.17/outbox.cif.g08.bks.cpg/sg21_11_cif.got.tgz:21392.got - 2010.06.03 23:14:55.
