data_PCOD9325566
_publ_section_title
;
Structure prediction by ZEFSAII (Michael W. Deem and Ramdas Pophale) SiO2 
 PCOD9325566
Probable space group: C 2 2 2
;
_chemical_formula_sum "Si O2"
_cell_formula_units_Z 48
_cell_length_a 24.039293
_cell_length_b 9.329866
_cell_length_c 8.706967
_cell_angle_alpha 90.000000
_cell_angle_beta 90.000000
_cell_angle_gamma 90.000000
_cell_volume 1952.828009
_symmetry_space_group_name_H-M "C 2 2 2"
_symmetry_group_IT_number 21
_symmetry_cell_setting 'orthorhombic'
loop_
_space_group_symop_operation_xyz
x,y,z
-x,-y,z
x,-y,-z
-x,y,-z
1/2+x,1/2+y,z
1/2-x,1/2-y,z
1/2+x,1/2-y,-z
1/2-x,1/2+y,-z
loop_
_atom_site_type_symbol
_atom_site_label
_atom_site_fract_x
_atom_site_fract_y
_atom_site_fract_z
Si Si1 0.722028 0.893444 0.875224
Si Si2 0.556135 0.213748 0.895630
Si Si3 0.908034 0.068211 0.660072
Si Si4 0.619047 0.725368 0.808085
Si Si5 0.783834 0.897445 0.354492
Si Si6 0.064869 0.471199 0.664464
O O1 0.750000 0.750000 0.945913
O O2 0.674514 0.816802 0.774367
O O3 0.764460 0.997253 0.784648
O O4 0.696645 0.000000 0.000000
O O5 0.551451 0.332922 0.760787
O O6 0.578064 0.072430 0.808779
O O7 0.500000 0.194760 0.000000
O O8 0.603388 0.262512 0.014058
O O9 0.886044 0.936497 0.761018
O O10 0.928790 0.000000 0.500000
O O11 0.848987 0.147126 0.632564
O O12 0.573504 0.809020 0.709740
O O13 0.750000 0.750000 0.352440
O O14 0.772866 0.000000 0.500000
O O15 0.092338 0.500000 0.500000
O O16 0.000000 0.500000 0.649141
#
# Coordination Sequence:
#
# PCOD9325566 Si02
#       6
#     8   8   8   8   8   8
#     4  12  26  44  70 107 146 193 248 307 380 456
#     4  12  26  49  75 108 146 196 249 314 384 453
#     4  11  27  49  74 109 152 195 253 315 382 459
#     4  12  26  45  73 106 145 196 247 309 375 451
#     4  11  26  47  75 110 154 202 254 314 380 466
#     4  11  24  46  74 108 146 187 243 308 369 443
#
# _framework density 24.579736
#
# number of rings (size 3 to 8) (size 9 to 14) (size 15 to 20)
#    0.000    0.500    3.333    4.000    9.333    2.000 
#    0.000    0.833    0.000    0.000    0.000    0.000 
#    0.000    0.000    0.000    0.000    0.000    0.000 
#
# Total GULP energy -134142.207586 kJ/mol
# GULP energy per Si atom -5589.258649 kJ/mol
# Density = 2.452379 g / cm^3
# Si number density = 24.579736 Si / 1000 Ang^3
#
#
#
# Elastic Constant Matrix: (Units=GPa)
#
#
# Indices 1 2 3 4 5 6 
#
# 1 60.1485 31.4423 2.9023 0.0000 0.0000 0.0000
# 2 31.4423 128.0409 26.5405 0.0000 0.0000 0.0000
# 3 2.9023 26.5405 105.8399 0.0000 0.0000 0.0000
# 4 0.0000 0.0000 0.0000 51.6142 0.0000 0.0000
# 5 0.0000 0.0000 0.0000 0.0000 17.8550 0.0000
# 6 0.0000 0.0000 0.0000 0.0000 0.0000 29.6788
#
#
#
# Elastic Compliance Matrix: (Units=1/GPa)
#
#
# Indices 1 2 3 4 5 6 
#
# 1 0.019122 -0.004838 0.000689 0.000000 0.000000 0.000000
# 2 -0.004838 0.009462 -0.002240 0.000000 0.000000 0.000000
# 3 0.000689 -0.002240 0.009991 0.000000 0.000000 0.000000
# 4 0.000000 0.000000 0.000000 0.019375 0.000000 0.000000
# 5 0.000000 0.000000 0.000000 0.000000 0.056007 0.000000
# 6 0.000000 0.000000 0.000000 0.000000 0.000000 0.033694
#
#
# Mechanical properties :
#
#
# Convention : Reuss Voigt Hill
#
# Bulk Modulus (GPa) = 38.76583 46.19995 42.48289
# Shear Modulus (GPa) = 29.58087 35.37255 32.47671
#
# Velocity S-wave (km/s) = 3.47286 3.79765 3.63888
# Velocity P-wave (km/s) = 5.64683 6.16979 5.91410
#
# Compressibility (1/GPa) = 0.02579592
#
# Stress axis : x y z
#
# Youngs Moduli (GPa) = 52.29709 105.68051 100.08923
#
# Poissons Ratio (x) = 0.51132 -0.06896
# Poissons Ratio (y) = 0.25303 0.22421
# Poissons Ratio (z) = -0.03603 0.23674
#
# Static dielectric constant tensor:
#      x y z
#    x 2.021730 0.000000 0.000000 
#    y 0.000000 1.919140 0.000000 
#    z 0.000000 0.000000 2.032230 
# 
# From -- ./inp_files/19686.got.cif
#   From: 2010.05.17/outbox.cif.g08.bks.cpg/sg21_10_cif.got.tgz:19686.got - 2010.06.03 23:14:55.
