data_PCOD9325335
_publ_section_title
;
Structure prediction by ZEFSAII (Michael W. Deem and Ramdas Pophale) SiO2 
 PCOD9325335
Probable space group: C 2 2 2
;
_chemical_formula_sum "Si O2"
_cell_formula_units_Z 38
_cell_length_a 25.207193
_cell_length_b 13.183914
_cell_length_c 5.755569
_cell_angle_alpha 90.000000
_cell_angle_beta 90.000000
_cell_angle_gamma 90.000000
_cell_volume 1912.745165
_symmetry_space_group_name_H-M "C 2 2 2"
_symmetry_group_IT_number 21
_symmetry_cell_setting 'orthorhombic'
loop_
_space_group_symop_operation_xyz
x,y,z
-x,-y,z
x,-y,-z
-x,y,-z
1/2+x,1/2+y,z
1/2-x,1/2-y,z
1/2+x,1/2-y,-z
1/2-x,1/2+y,-z
loop_
_atom_site_type_symbol
_atom_site_label
_atom_site_fract_x
_atom_site_fract_y
_atom_site_fract_z
Si Si1 0.944896 0.612097 0.611767
Si Si2 0.190332 0.455271 0.250256
Si Si3 0.000000 0.500000 0.000000
Si Si4 0.654803 0.235247 0.544297
Si Si5 0.750000 0.250000 0.193116
Si Si6 0.693097 0.590161 0.147758
O O1 0.934926 0.500000 0.500000
O O2 0.899217 0.694129 0.570147
O O3 0.000000 0.649810 0.500000
O O4 0.960802 0.576868 0.867455
O O5 0.172847 0.500000 0.500000
O O6 0.167741 0.341975 0.247791
O O7 0.254107 0.457196 0.260296
O O8 0.174679 0.500000 0.000000
O O9 0.702855 0.215601 0.364133
O O10 0.660230 0.346644 0.659858
O O11 0.720909 0.332373 0.033456
O O12 0.665727 0.500000 0.000000
#
# Coordination Sequence:
#
# PCOD9325335 Si02
#       6
#     8   8   2   8   4   8
#     4   9  21  41  63  92 130 168 217 271 334 393
#     4  11  22  38  60  89 134 176 219 268 317 393
#     4   8  18  44  60  90 124 168 220 276 334 410
#     4  12  22  38  59  93 129 178 225 264 332 402
#     4  12  22  40  58  90 130 176 222 274 332 406
#     4  11  24  38  55  86 132 176 221 273 325 397
#
# _framework density 19.866734999999998
#
# number of rings (size 3 to 8) (size 9 to 14) (size 15 to 20)
#    0.000    1.474    4.211    3.158    0.000    3.368 
#   15.158    0.000    0.000    0.000    0.000    4.421 
#    0.000    0.000    0.000    0.000    0.000    0.000 
#
# Total GULP energy -105861.019098 kJ/mol
# GULP energy per Si atom -5571.632584 kJ/mol
# Density = 1.982152 g / cm^3
# Si number density = 19.866735 Si / 1000 Ang^3
#
#
#
# Elastic Constant Matrix: (Units=GPa)
#
#
# Indices 1 2 3 4 5 6 
#
# 1 135.1306 27.0110 37.1011 0.0000 0.0000 0.0000
# 2 27.0110 70.6608 44.2934 0.0000 0.0000 0.0000
# 3 37.1011 44.2934 113.6802 0.0000 0.0000 0.0000
# 4 0.0000 0.0000 0.0000 28.1710 0.0000 0.0000
# 5 0.0000 0.0000 0.0000 0.0000 -62.7002 0.0000
# 6 0.0000 0.0000 0.0000 0.0000 0.0000 33.2237
#
#
#
# Elastic Compliance Matrix: (Units=1/GPa)
#
#
# Indices 1 2 3 4 5 6 
#
# 1 0.008328 -0.001958 -0.001955 0.000000 0.000000 0.000000
# 2 -0.001958 0.019186 -0.006836 0.000000 0.000000 0.000000
# 3 -0.001955 -0.006836 0.012098 0.000000 0.000000 0.000000
# 4 0.000000 0.000000 0.000000 0.035498 0.000000 0.000000
# 5 0.000000 0.000000 0.000000 0.000000 -0.015949 0.000000
# 6 0.000000 0.000000 0.000000 0.000000 0.000000 0.030099
#
#
# Mechanical properties :
#
#
# Convention : Reuss Voigt Hill
#
# Bulk Modulus (GPa) = 55.20744 59.58695 57.39719
# Shear Modulus (GPa) = 42.80911 13.80998 28.30955
#
# Velocity S-wave (km/s) = 4.64703 2.63939 3.77898
# Velocity P-wave (km/s) = 7.52612 6.27272 6.92782
#
# Compressibility (1/GPa) = 0.01811350
#
# Stress axis : x y z
#
# Youngs Moduli (GPa) = 120.07039 52.12135 82.65562
#
# Poissons Ratio (x) = 0.10206 0.16161
# Poissons Ratio (y) = 0.23510 0.56507
# Poissons Ratio (z) = 0.23476 0.35632
#
# Static dielectric constant tensor:
#      x y z
#    x 1.714870 0.000000 0.000000 
#    y 0.000000 1.816880 0.000000 
#    z 0.000000 0.000000 1.811540 
# 
# From -- ./inp_files/3881.got.cif
#   From: 2010.05.17/outbox.cif.g08.bks.cpg/sg21_2_cif.got.tgz:3881.got - 2010.06.03 23:14:55.
