data_PCOD9325781
_publ_section_title
;
Structure prediction by ZEFSAII (Michael W. Deem and Ramdas Pophale) SiO2 
 PCOD9325781
Probable space group: C 2 2 2
;
_chemical_formula_sum "Si O2"
_cell_formula_units_Z 20
_cell_length_a 15.107711
_cell_length_b 4.843525
_cell_length_c 11.604736
_cell_angle_alpha 90.000000
_cell_angle_beta 90.000000
_cell_angle_gamma 90.000000
_cell_volume 849.171635
_symmetry_space_group_name_H-M "C 2 2 2"
_symmetry_group_IT_number 21
_symmetry_cell_setting 'orthorhombic'
loop_
_space_group_symop_operation_xyz
x,y,z
-x,-y,z
x,-y,-z
-x,y,-z
1/2+x,1/2+y,z
1/2-x,1/2-y,z
1/2+x,1/2-y,-z
1/2-x,1/2+y,-z
loop_
_atom_site_type_symbol
_atom_site_label
_atom_site_fract_x
_atom_site_fract_y
_atom_site_fract_z
Si Si1 0.327870 0.473954 0.377728
Si Si2 0.395964 0.989319 0.242894
Si Si3 0.814811 0.500000 0.000000
O O1 0.377651 0.500000 0.500000
O O2 0.250000 0.250000 0.415452
O O3 0.338865 0.782587 0.324049
O O4 0.366730 0.297560 0.273443
O O5 0.372890 0.925060 0.111049
O O6 0.500000 0.000000 0.265850
O O7 0.750000 0.250000 0.968604
#
# Coordination Sequence:
#
# PCOD9325781 Si02
#       3
#     8   8   4
#     4  12  25  44  70  99 136 182 231 280 336 410
#     4  12  26  44  68 101 139 177 226 287 350 407
#     4  12  25  44  71  96 130 178 230 280 337 412
#
# _framework density 23.552361999999999
#
# number of rings (size 3 to 8) (size 9 to 14) (size 15 to 20)
#    0.000    0.000    0.000   12.600    0.000    4.800 
#    0.000    6.000    0.000    0.000    0.000    0.000 
#    0.000    0.000    0.000    0.000    0.000    0.000 
#
# Total GULP energy -55669.740747 kJ/mol
# GULP energy per Si atom -5566.974075 kJ/mol
# Density = 2.349876 g / cm^3
# Si number density = 23.552362 Si / 1000 Ang^3
#
#
#
# Elastic Constant Matrix: (Units=GPa)
#
#
# Indices 1 2 3 4 5 6 
#
# 1 77.2076 8.0200 -5.2425 0.0000 0.0000 0.0000
# 2 8.0200 157.1260 6.2643 0.0000 0.0000 0.0000
# 3 -5.2425 6.2643 144.4480 0.0000 0.0000 0.0000
# 4 0.0000 0.0000 0.0000 46.5858 0.0000 0.0000
# 5 0.0000 0.0000 0.0000 0.0000 -3.7217 0.0000
# 6 0.0000 0.0000 0.0000 0.0000 0.0000 13.0946
#
#
#
# Elastic Compliance Matrix: (Units=1/GPa)
#
#
# Indices 1 2 3 4 5 6 
#
# 1 0.013058 -0.000687 0.000504 0.000000 0.000000 0.000000
# 2 -0.000687 0.006411 -0.000303 0.000000 0.000000 0.000000
# 3 0.000504 -0.000303 0.006954 0.000000 0.000000 0.000000
# 4 0.000000 0.000000 0.000000 0.021466 0.000000 0.000000
# 5 0.000000 0.000000 0.000000 0.000000 -0.268692 0.000000
# 6 0.000000 0.000000 0.000000 0.000000 0.000000 0.076367
#
#
# Mechanical properties :
#
#
# Convention : Reuss Voigt Hill
#
# Bulk Modulus (GPa) = 39.29014 44.09613 41.69314
# Shear Modulus (GPa) = -37.04259 35.84106 -0.60077
#
# Velocity S-wave (km/s) = -3.97013 3.90521 -0.50560
# Velocity P-wave (km/s) = 2.07307 6.25279 4.17132
#
# Compressibility (1/GPa) = 0.02545168
#
# Stress axis : x y z
#
# Youngs Moduli (GPa) = 76.58370 155.97116 143.79536
#
# Poissons Ratio (x) = 0.10708 -0.07243
# Poissons Ratio (y) = 0.05258 0.04357
# Poissons Ratio (z) = -0.03857 0.04725
#
# Static dielectric constant tensor:
#      x y z
#    x 1.927460 0.000000 0.000000 
#    y 0.000000 1.856150 0.000000 
#    z 0.000000 0.000000 1.776560 
# 
# From -- ./inp_files/8415.got.cif
#   From: 2010.05.17/outbox.cif.g08.bks.cpg/sg21_5_cif.got.tgz:8415.got - 2010.06.03 23:14:55.
