data_PCOD9325516
_publ_section_title
;
Structure prediction by ZEFSAII (Michael W. Deem and Ramdas Pophale) SiO2 
 PCOD9325516
Probable space group: C 2 2 2
;
_chemical_formula_sum "Si O2"
_cell_formula_units_Z 40
_cell_length_a 11.672979
_cell_length_b 16.841312
_cell_length_c 8.685777
_cell_angle_alpha 90.000000
_cell_angle_beta 90.000000
_cell_angle_gamma 90.000000
_cell_volume 1707.521972
_symmetry_space_group_name_H-M "C 2 2 2"
_symmetry_group_IT_number 21
_symmetry_cell_setting 'orthorhombic'
loop_
_space_group_symop_operation_xyz
x,y,z
-x,-y,z
x,-y,-z
-x,y,-z
1/2+x,1/2+y,z
1/2-x,1/2-y,z
1/2+x,1/2-y,-z
1/2-x,1/2+y,-z
loop_
_atom_site_type_symbol
_atom_site_label
_atom_site_fract_x
_atom_site_fract_y
_atom_site_fract_z
Si Si1 0.937822 0.415224 0.147138
Si Si2 0.969678 0.712461 0.331852
Si Si3 0.505542 0.630983 0.180813
Si Si4 0.222572 0.934943 0.294180
Si Si5 0.743968 0.383798 0.634732
O O1 0.800631 0.413429 0.145731
O O2 0.000000 0.500000 0.156366
O O3 0.963884 0.369051 0.302722
O O4 0.000000 0.376749 0.000000
O O5 0.839122 0.681091 0.318644
O O6 0.000000 0.744023 0.500000
O O7 0.019730 0.776171 0.213120
O O8 0.410257 0.573416 0.253187
O O9 0.626485 0.626542 0.270389
O O10 0.500000 0.615570 0.000000
O O11 0.232285 0.882640 0.449568
O O12 0.268987 0.023392 0.330102
#
# Coordination Sequence:
#
# PCOD9325516 Si02
#       5
#     8   8   8   8   8
#     4  11  24  41  69 106 146 183 234 298 368 434
#     4  12  24  46  74 103 141 190 246 298 361 435
#     4  12  29  46  68 105 150 196 240 301 379 441
#     4  11  24  46  75 105 142 190 245 303 361 442
#     4  11  24  46  75 105 142 188 250 302 358 444
#
# _framework density 23.42576
#
# number of rings (size 3 to 8) (size 9 to 14) (size 15 to 20)
#    0.000    0.600    4.000    3.600    2.800    4.400 
#    3.600    0.000    0.000    0.000    0.000    0.000 
#    0.000    0.000    0.000    0.000    0.000    0.000 
#
# Total GULP energy -111553.730168 kJ/mol
# GULP energy per Si atom -5577.686508 kJ/mol
# Density = 2.337244 g / cm^3
# Si number density = 23.425760 Si / 1000 Ang^3
#
#
#
# Elastic Constant Matrix: (Units=GPa)
#
#
# Indices 1 2 3 4 5 6 
#
# 1 151.7482 -0.8477 35.3945 0.0000 0.0000 0.0000
# 2 -0.8477 48.7583 -5.9717 0.0000 0.0000 0.0000
# 3 35.3945 -5.9717 101.1335 0.0000 0.0000 0.0000
# 4 0.0000 0.0000 0.0000 29.1457 0.0000 0.0000
# 5 0.0000 0.0000 0.0000 0.0000 38.6837 0.0000
# 6 0.0000 0.0000 0.0000 0.0000 0.0000 27.7696
#
#
#
# Elastic Compliance Matrix: (Units=1/GPa)
#
#
# Indices 1 2 3 4 5 6 
#
# 1 0.007177 -0.000184 -0.002523 0.000000 0.000000 0.000000
# 2 -0.000184 0.020663 0.001285 0.000000 0.000000 0.000000
# 3 -0.002523 0.001285 0.010847 0.000000 0.000000 0.000000
# 4 0.000000 0.000000 0.000000 0.034310 0.000000 0.000000
# 5 0.000000 0.000000 0.000000 0.000000 0.025851 0.000000
# 6 0.000000 0.000000 0.000000 0.000000 0.000000 0.036011
#
#
# Mechanical properties :
#
#
# Convention : Reuss Voigt Hill
#
# Bulk Modulus (GPa) = 27.89970 39.86557 33.88264
# Shear Modulus (GPa) = 33.41100 37.32414 35.36757
#
# Velocity S-wave (km/s) = 3.78067 3.99594 3.88979
# Velocity P-wave (km/s) = 5.56719 6.19232 5.88806
#
# Compressibility (1/GPa) = 0.03584268
#
# Stress axis : x y z
#
# Youngs Moduli (GPa) = 139.32898 48.39464 92.19409
#
# Poissons Ratio (x) = 0.00891 0.23258
# Poissons Ratio (y) = 0.02566 -0.11843
# Poissons Ratio (z) = 0.35149 -0.06217
#
# Static dielectric constant tensor:
#      x y z
#    x 2.007090 0.000000 0.000000 
#    y 0.000000 2.039010 0.000000 
#    z 0.000000 0.000000 1.927020 
# 
# From -- ./inp_files/12694.got.cif
#   From: 2010.05.17/outbox.cif.g08.bks.cpg/sg21_7_cif.got.tgz:12694.got - 2010.06.03 23:14:55.
