data_PCOD9325863
_publ_section_title
;
Structure prediction by ZEFSAII (Michael W. Deem and Ramdas Pophale) SiO2 
 PCOD9325863
Probable space group: F 2 2 2
;
_chemical_formula_sum "Si O2"
_cell_formula_units_Z 96
_cell_length_a 26.949356
_cell_length_b 20.276812
_cell_length_c 7.170964
_cell_angle_alpha 90.000000
_cell_angle_beta 90.000000
_cell_angle_gamma 90.000000
_cell_volume 3918.551945
_symmetry_space_group_name_H-M "F 2 2 2"
_symmetry_group_IT_number 22
_symmetry_cell_setting 'orthorhombic'
loop_
_space_group_symop_operation_xyz
x,y,z
-x,-y,z
x,-y,-z
-x,y,-z
x,1/2+y,1/2+z
-x,1/2-y,1/2+z
x,1/2-y,1/2-z
-x,1/2+y,1/2-z
1/2+x,y,1/2+z
1/2-x,-y,1/2+z
1/2+x,-y,1/2-z
1/2-x,y,1/2-z
1/2+x,1/2+y,z
1/2-x,1/2-y,z
1/2+x,1/2-y,-z
1/2-x,1/2+y,-z
loop_
_atom_site_type_symbol
_atom_site_label
_atom_site_fract_x
_atom_site_fract_y
_atom_site_fract_z
Si Si1 0.056420 0.701878 0.002884
Si Si2 0.810413 0.819404 0.962531
Si Si3 0.609204 0.089319 0.874555
Si Si4 0.555638 0.028020 0.241582
Si Si5 0.418804 0.156793 0.583892
Si Si6 0.299661 0.333864 0.514662
O O1 0.056432 0.780368 0.987095
O O2 0.082804 0.683993 0.199847
O O3 0.084087 0.660116 0.846860
O O4 0.000000 0.679030 0.000000
O O5 0.863364 0.852108 0.996531
O O6 0.757839 0.844010 0.039066
O O7 0.814178 0.742690 0.026716
O O8 0.803932 0.829964 0.739664
O O9 0.595190 0.031585 0.731939
O O10 0.578154 0.062691 0.055864
O O11 0.664907 0.109842 0.930410
O O12 0.554800 0.086810 0.392187
O O13 0.500000 0.000000 0.221239
#
# Coordination Sequence:
#
# PCOD9325863 Si02
#       6
#    16  16  16  16  16  16
#     4  10  17  26  45  68  94 130 162 219 258 293
#     4   9  14  24  38  66  95 129 152 198 261 313
#     4  10  15  26  40  67  99 125 155 209 261 293
#     4  10  19  27  40  62  99 139 163 197 253 314
#     4  10  17  30  43  66 106 133 166 208 268 308
#     4   9  14  21  41  63  96 121 156 197 264 299
#
# _framework density 24.498847000000001
#
# number of rings (size 3 to 8) (size 9 to 14) (size 15 to 20)
#    0.000    2.333    5.000    5.000    0.000    0.000 
#    0.000    0.000    0.000    0.500    0.000    7.000 
#    0.000    0.000    0.000    9.000    0.000    0.000 
#
# Total GULP energy -133847.364531 kJ/mol
# GULP energy per Si atom -5576.973522 kJ/mol
# Density = 2.444309 g / cm^3
# Si number density = 24.498847 Si / 1000 Ang^3
#
#
#
# Elastic Constant Matrix: (Units=GPa)
#
#
# Indices 1 2 3 4 5 6 
#
# 1 220.6925 75.6900 6.8351 -0.0008 0.0004 0.0001
# 2 75.6900 166.6264 28.8300 0.0005 -0.0004 -0.0002
# 3 6.8351 28.8300 72.5044 0.0057 -0.0042 -0.0012
# 4 -0.0008 0.0005 0.0057 19.0931 -0.0029 -0.0009
# 5 0.0004 -0.0004 -0.0042 -0.0029 4.7568 0.0005
# 6 0.0001 -0.0002 -0.0012 -0.0009 0.0005 49.5909
#
#
#
# Elastic Compliance Matrix: (Units=1/GPa)
#
#
# Indices 1 2 3 4 5 6 
#
# 1 0.005384 -0.002532 0.000499 0.000000 0.000000 0.000000
# 2 -0.002532 0.007636 -0.002797 0.000001 -0.000002 0.000000
# 3 0.000499 -0.002797 0.014858 -0.000004 0.000013 0.000000
# 4 0.000000 0.000001 -0.000004 0.052375 0.000032 0.000001
# 5 0.000000 -0.000002 0.000013 0.000032 0.210225 -0.000002
# 6 0.000000 0.000000 0.000000 0.000001 -0.000002 0.020165
#
#
# Mechanical properties :
#
#
# Convention : Reuss Voigt Hill
#
# Bulk Modulus (GPa) = 54.89454 75.83707 65.36581
# Shear Modulus (GPa) = 15.31977 37.91936 26.61957
#
# Velocity S-wave (km/s) = 2.50337 3.93848 3.29988
# Velocity P-wave (km/s) = 5.55080 7.19060 6.42324
#
# Compressibility (1/GPa) = 0.01821675
#
# Stress axis : x y z
#
# Youngs Moduli (GPa) = 185.72977 130.96371 67.30579
#
# Poissons Ratio (x) = 0.33162 -0.03360
# Poissons Ratio (y) = 0.47029 0.18829
# Poissons Ratio (z) = -0.09273 0.36637
#
# Static dielectric constant tensor:
#      x y z
#    x 1.924190 0.000000 0.000000 
#    y 0.000000 2.011810 0.000000 
#    z 0.000000 0.000000 2.085030 
# 
# From -- ./inp_files/23901.got.cif
#   From: 2010.05.17/outbox.cif.g08.bks.cpg/sg22_12_cif.got.tgz:23901.got - 2010.06.03 23:40:54.
