data_PCOD9325791
_publ_section_title
;
Structure prediction by ZEFSAII (Michael W. Deem and Ramdas Pophale) SiO2 
 PCOD9325791
Probable space group: C 2 2 2
;
_chemical_formula_sum "Si O2"
_cell_formula_units_Z 32
_cell_length_a 16.013135
_cell_length_b 16.295649
_cell_length_c 5.366154
_cell_angle_alpha 90.000000
_cell_angle_beta 90.000000
_cell_angle_gamma 90.000000
_cell_volume 1400.267983
_symmetry_space_group_name_H-M "C 2 2 2"
_symmetry_group_IT_number 21
_symmetry_cell_setting 'orthorhombic'
loop_
_space_group_symop_operation_xyz
x,y,z
-x,-y,z
x,-y,-z
-x,y,-z
1/2+x,1/2+y,z
1/2-x,1/2-y,z
1/2+x,1/2-y,-z
1/2-x,1/2+y,-z
loop_
_atom_site_type_symbol
_atom_site_label
_atom_site_fract_x
_atom_site_fract_y
_atom_site_fract_z
Si Si1 0.500000 0.500000 0.500000
Si Si2 0.296637 0.164193 0.766121
Si Si3 0.404476 0.852160 0.732210
Si Si4 0.500000 0.000000 0.500000
Si Si5 0.500000 0.280120 0.000000
Si Si6 0.872914 0.083647 0.155682
O O1 0.438239 0.561586 0.365734
O O2 0.250000 0.250000 0.806290
O O3 0.347283 0.166996 0.507991
O O4 0.219730 0.101252 0.752513
O O5 0.352644 0.145643 0.009087
O O6 0.445765 0.939447 0.671154
O O7 0.474749 0.782467 0.779143
O O8 0.581307 0.338588 0.027338
O O9 0.871655 0.000000 0.000000
#
# Coordination Sequence:
#
# PCOD9325791 Si02
#       6
#     2   8   8   2   4   8
#     4  12  26  44  76 118 160 224 266 344 400 490
#     4  12  29  50  81 119 162 215 271 334 411 485
#     4  12  30  53  81 116 160 215 271 343 400 492
#     4  12  32  54  84 122 158 220 284 338 414 476
#     4  12  25  55  78 116 158 214 276 335 409 488
#     4  12  28  48  77 120 164 214 271 337 412 488
#
# _framework density 22.852767
#
# number of rings (size 3 to 8) (size 9 to 14) (size 15 to 20)
#    0.000    0.000    5.000    2.250   10.500    3.500 
#    0.000    0.000    0.000    0.000    0.000    0.000 
#    0.000    0.000    0.000    0.000    0.000    0.000 
#
# Total GULP energy -89528.177475 kJ/mol
# GULP energy per Si atom -5595.511092 kJ/mol
# Density = 2.280075 g / cm^3
# Si number density = 22.852767 Si / 1000 Ang^3
#
#
#
# Elastic Constant Matrix: (Units=GPa)
#
#
# Indices 1 2 3 4 5 6 
#
# 1 148.5360 63.8148 86.6982 0.0000 0.0000 0.0000
# 2 63.8148 158.3215 57.9513 0.0000 0.0000 0.0000
# 3 86.6982 57.9513 159.8877 0.0000 0.0000 0.0000
# 4 0.0000 0.0000 0.0000 54.7480 0.0000 0.0000
# 5 0.0000 0.0000 0.0000 0.0000 57.8300 0.0000
# 6 0.0000 0.0000 0.0000 0.0000 0.0000 53.2706
#
#
#
# Elastic Compliance Matrix: (Units=1/GPa)
#
#
# Indices 1 2 3 4 5 6 
#
# 1 0.010651 -0.002513 -0.004865 0.000000 0.000000 0.000000
# 2 -0.002513 0.007875 -0.001492 0.000000 0.000000 0.000000
# 3 -0.004865 -0.001492 0.009433 0.000000 0.000000 0.000000
# 4 0.000000 0.000000 0.000000 0.018266 0.000000 0.000000
# 5 0.000000 0.000000 0.000000 0.000000 0.017292 0.000000
# 6 0.000000 0.000000 0.000000 0.000000 0.000000 0.018772
#
#
# Mechanical properties :
#
#
# Convention : Reuss Voigt Hill
#
# Bulk Modulus (GPa) = 97.84001 98.18596 98.01299
# Shear Modulus (GPa) = 48.33943 50.38844 49.36394
#
# Velocity S-wave (km/s) = 4.60418 4.70075 4.65271
# Velocity P-wave (km/s) = 8.43628 8.51590 8.47618
#
# Compressibility (1/GPa) = 0.01022077
#
# Stress axis : x y z
#
# Youngs Moduli (GPa) = 93.88386 126.98284 106.00897
#
# Poissons Ratio (x) = 0.31905 0.51574
# Poissons Ratio (y) = 0.23589 0.15816
# Poissons Ratio (z) = 0.45675 0.18945
#
# Static dielectric constant tensor:
#      x y z
#    x 1.838350 0.000000 0.000000 
#    y 0.000000 1.882240 0.000000 
#    z 0.000000 0.000000 1.897440 
# 
# From -- ./inp_files/3472.got.cif
#   From: 2010.05.17/outbox.cif.g08.bks.cpg/sg21_2_cif.got.tgz:3472.got - 2010.06.03 23:14:55.
