data_PCOD9325394
_publ_section_title
;
Structure prediction by ZEFSAII (Michael W. Deem and Ramdas Pophale) SiO2 
 PCOD9325394
Probable space group: C 2 2 2
;
_chemical_formula_sum "Si O2"
_cell_formula_units_Z 40
_cell_length_a 15.285557
_cell_length_b 12.879934
_cell_length_c 9.441716
_cell_angle_alpha 90.000000
_cell_angle_beta 90.000000
_cell_angle_gamma 90.000000
_cell_volume 1858.856393
_symmetry_space_group_name_H-M "C 2 2 2"
_symmetry_group_IT_number 21
_symmetry_cell_setting 'orthorhombic'
loop_
_space_group_symop_operation_xyz
x,y,z
-x,-y,z
x,-y,-z
-x,y,-z
1/2+x,1/2+y,z
1/2-x,1/2-y,z
1/2+x,1/2-y,-z
1/2-x,1/2+y,-z
loop_
_atom_site_type_symbol
_atom_site_label
_atom_site_fract_x
_atom_site_fract_y
_atom_site_fract_z
Si Si1 0.715371 0.925818 0.864285
Si Si2 0.905292 0.539394 0.337985
Si Si3 0.981679 0.878820 0.340095
Si Si4 0.645766 0.741641 0.207203
Si Si5 0.116448 0.791837 0.114577
O O1 0.814119 0.885691 0.868917
O O2 0.660005 0.819592 0.856999
O O3 0.679632 0.988484 0.732400
O O4 0.698392 0.000000 0.000000
O O5 0.905527 0.500000 0.500000
O O6 0.892925 0.659523 0.292446
O O7 0.000000 0.500000 0.279093
O O8 0.042061 0.817433 0.228153
O O9 0.000000 0.844618 0.500000
O O10 0.881432 0.855905 0.301523
O O11 0.000000 0.000000 0.327650
O O12 0.750000 0.750000 0.184904
O O13 0.601912 0.720859 0.053941
#
# Coordination Sequence:
#
# PCOD9325394 Si02
#       5
#     8   8   8   8   8
#     4  11  22  44  71 104 140 181 243 302 363 437
#     4  11  26  44  71 105 149 192 237 303 377 447
#     4  11  29  49  72 105 149 195 247 303 378 454
#     4  12  25  48  73 111 146 186 252 309 365 444
#     4  11  24  44  74 102 139 189 241 303 362 440
#
# _framework density 21.518605999999998
#
# number of rings (size 3 to 8) (size 9 to 14) (size 15 to 20)
#    0.000    0.800    4.000    1.800   11.200    2.800 
#    0.000    0.000    0.000    0.000    0.000    0.000 
#    0.000    0.000    0.000    0.000    0.000    0.000 
#
# Total GULP energy -111597.772156 kJ/mol
# GULP energy per Si atom -5579.888608 kJ/mol
# Density = 2.146963 g / cm^3
# Si number density = 21.518606 Si / 1000 Ang^3
#
#
#
# Elastic Constant Matrix: (Units=GPa)
#
#
# Indices 1 2 3 4 5 6 
#
# 1 91.9400 47.1216 75.7884 0.0000 0.0000 0.0000
# 2 47.1216 99.4225 49.4225 0.0000 0.0000 0.0000
# 3 75.7884 49.4225 144.5440 0.0000 0.0000 0.0000
# 4 0.0000 0.0000 0.0000 59.3007 0.0000 0.0000
# 5 0.0000 0.0000 0.0000 0.0000 2.5235 0.0000
# 6 0.0000 0.0000 0.0000 0.0000 0.0000 47.3383
#
#
#
# Elastic Compliance Matrix: (Units=1/GPa)
#
#
# Indices 1 2 3 4 5 6 
#
# 1 0.021390 -0.005497 -0.009336 0.000000 0.000000 0.000000
# 2 -0.005497 0.013530 -0.001744 0.000000 0.000000 0.000000
# 3 -0.009336 -0.001744 0.012410 0.000000 0.000000 0.000000
# 4 0.000000 0.000000 0.000000 0.016863 0.000000 0.000000
# 5 0.000000 0.000000 0.000000 0.000000 0.396268 0.000000
# 6 0.000000 0.000000 0.000000 0.000000 0.000000 0.021125
#
#
# Mechanical properties :
#
#
# Convention : Reuss Voigt Hill
#
# Bulk Modulus (GPa) = 70.54096 75.61907 73.08002
# Shear Modulus (GPa) = 9.62530 32.73743 21.18137
#
# Velocity S-wave (km/s) = 2.11724 3.90469 3.14080
# Velocity P-wave (km/s) = 6.23133 7.45294 6.86935
#
# Compressibility (1/GPa) = 0.01417616
#
# Stress axis : x y z
#
# Youngs Moduli (GPa) = 46.75167 73.90775 80.58289
#
# Poissons Ratio (x) = 0.40627 0.75229
# Poissons Ratio (y) = 0.25699 0.14054
# Poissons Ratio (z) = 0.43646 0.12890
#
# Static dielectric constant tensor:
#      x y z
#    x 1.373770 0.000000 0.000000 
#    y 0.000000 1.838450 0.000000 
#    z 0.000000 0.000000 1.799340 
# 
# From -- ./inp_files/16108.got.cif
#   From: 2010.05.17/outbox.cif.g08.bks.cpg/sg21_9_cif.got.tgz:16108.got - 2010.06.03 23:14:55.
