data_PCOD9325478
_publ_section_title
;
Structure prediction by ZEFSAII (Michael W. Deem and Ramdas Pophale) SiO2 
 PCOD9325478
Probable space group: C 2 2 2
;
_chemical_formula_sum "Si O2"
_cell_formula_units_Z 54
_cell_length_a 13.547348
_cell_length_b 16.576656
_cell_length_c 11.823330
_cell_angle_alpha 90.000000
_cell_angle_beta 90.000000
_cell_angle_gamma 90.000000
_cell_volume 2655.161996
_symmetry_space_group_name_H-M "C 2 2 2"
_symmetry_group_IT_number 21
_symmetry_cell_setting 'orthorhombic'
loop_
_space_group_symop_operation_xyz
x,y,z
-x,-y,z
x,-y,-z
-x,y,-z
1/2+x,1/2+y,z
1/2-x,1/2-y,z
1/2+x,1/2-y,-z
1/2-x,1/2+y,-z
loop_
_atom_site_type_symbol
_atom_site_label
_atom_site_fract_x
_atom_site_fract_y
_atom_site_fract_z
Si Si1 0.409713 0.747419 0.202108
Si Si2 0.000000 0.500000 0.500000
Si Si3 0.249401 0.621882 0.231295
Si Si4 0.614015 0.023758 0.854262
Si Si5 0.338973 0.584265 0.477254
Si Si6 0.059329 0.233315 0.402394
Si Si7 0.154021 0.608442 0.632920
Si Si8 0.500000 0.855056 0.000000
O O1 0.336247 0.673529 0.168673
O O2 0.337047 0.813559 0.259384
O O3 0.490056 0.718585 0.294067
O O4 0.462144 0.796898 0.100621
O O5 0.934925 0.443036 0.579774
O O6 0.192069 0.550669 0.163410
O O7 0.300861 0.594720 0.348763
O O8 0.657795 0.084173 0.762318
O O9 0.500000 0.000000 0.822858
O O10 0.587405 0.082431 0.961476
O O11 0.391494 0.500000 0.500000
O O12 0.400086 0.657687 0.528869
O O13 0.244896 0.582187 0.558366
O O14 0.142613 0.296011 0.369791
O O15 0.000000 0.279924 0.500000
#
# Coordination Sequence:
#
# PCOD9325478 Si02
#       8
#     8   2   8   8   8   8   8   4
#     4  11  25  44  70  99 143 185 242 293 365 428
#     4  12  20  32  64  90 136 168 204 272 374 408
#     4  11  23  44  67 106 142 185 226 297 372 443
#     4  12  22  40  71 101 138 174 229 301 368 420
#     4  12  25  40  64 101 145 186 236 279 348 444
#     4  12  23  41  65  97 136 193 226 283 354 433
#     4  12  22  36  61 102 136 170 219 288 352 417
#     4  12  25  44  74 106 133 186 252 309 360 428
#
# _framework density 20.337741999999999
#
# number of rings (size 3 to 8) (size 9 to 14) (size 15 to 20)
#    0.000    0.296    8.148    1.556    2.074    0.296 
#    0.000    2.963    3.259    0.000    0.000    0.000 
#    0.000    0.000    0.000    0.000    0.000    0.000 
#
# Total GULP energy -150437.152344 kJ/mol
# GULP energy per Si atom -5571.746383 kJ/mol
# Density = 2.029145 g / cm^3
# Si number density = 20.337742 Si / 1000 Ang^3
#
#
#
# Elastic Constant Matrix: (Units=GPa)
#
#
# Indices 1 2 3 4 5 6 
#
# 1 98.9215 58.5458 50.0244 0.0000 0.0000 0.0000
# 2 58.5458 146.0975 58.9271 0.0000 0.0000 0.0000
# 3 50.0244 58.9271 118.8676 0.0000 0.0000 0.0000
# 4 0.0000 0.0000 0.0000 21.1843 0.0000 0.0000
# 5 0.0000 0.0000 0.0000 0.0000 27.3162 0.0000
# 6 0.0000 0.0000 0.0000 0.0000 0.0000 95.4005
#
#
#
# Elastic Compliance Matrix: (Units=1/GPa)
#
#
# Indices 1 2 3 4 5 6 
#
# 1 0.014679 -0.004238 -0.004076 0.000000 0.000000 0.000000
# 2 -0.004238 0.009779 -0.003064 0.000000 0.000000 0.000000
# 3 -0.004076 -0.003064 0.011647 0.000000 0.000000 0.000000
# 4 0.000000 0.000000 0.000000 0.047205 0.000000 0.000000
# 5 0.000000 0.000000 0.000000 0.000000 0.036608 0.000000
# 6 0.000000 0.000000 0.000000 0.000000 0.000000 0.010482
#
#
# Mechanical properties :
#
#
# Convention : Reuss Voigt Hill
#
# Bulk Modulus (GPa) = 74.92020 77.65346 76.28683
# Shear Modulus (GPa) = 31.72449 41.87283 36.79866
#
# Velocity S-wave (km/s) = 3.95382 4.54240 4.25829
# Velocity P-wave (km/s) = 7.60010 8.11025 7.85931
#
# Compressibility (1/GPa) = 0.01334754
#
# Stress axis : x y z
#
# Youngs Moduli (GPa) = 68.12588 102.26002 85.85645
#
# Poissons Ratio (x) = 0.43338 0.34999
# Poissons Ratio (y) = 0.28872 0.26309
# Poissons Ratio (z) = 0.27771 0.31335
#
# Static dielectric constant tensor:
#      x y z
#    x 1.753120 0.000000 0.000000 
#    y 0.000000 1.844890 0.000000 
#    z 0.000000 0.000000 1.726850 
# 
# From -- ./inp_files/25325.got.cif
#   From: 2010.05.17/outbox.cif.g08.bks.cpg/sg21_13_cif.got.tgz:25325.got - 2010.06.03 23:14:55.
