data_PCOD9325347
_publ_section_title
;
Structure prediction by ZEFSAII (Michael W. Deem and Ramdas Pophale) SiO2 
 PCOD9325347
Probable space group: C 2 2 2
;
_chemical_formula_sum "Si O2"
_cell_formula_units_Z 28
_cell_length_a 7.802955
_cell_length_b 20.383975
_cell_length_c 8.311404
_cell_angle_alpha 90.000000
_cell_angle_beta 90.000000
_cell_angle_gamma 90.000000
_cell_volume 1321.972355
_symmetry_space_group_name_H-M "C 2 2 2"
_symmetry_group_IT_number 21
_symmetry_cell_setting 'orthorhombic'
loop_
_space_group_symop_operation_xyz
x,y,z
-x,-y,z
x,-y,-z
-x,y,-z
1/2+x,1/2+y,z
1/2-x,1/2-y,z
1/2+x,1/2-y,-z
1/2-x,1/2+y,-z
loop_
_atom_site_type_symbol
_atom_site_label
_atom_site_fract_x
_atom_site_fract_y
_atom_site_fract_z
Si Si1 0.058450 0.075374 0.171622
Si Si2 0.342769 0.810566 0.387741
Si Si3 0.000000 0.140039 0.500000
Si Si4 0.535893 0.925234 0.190400
O O1 0.260279 0.083017 0.197992
O O2 0.974671 0.103402 0.331289
O O3 0.000000 0.000000 0.165231
O O4 0.000000 0.105063 0.000000
O O5 0.500000 0.788252 0.500000
O O6 0.250000 0.750000 0.293024
O O7 0.188985 0.828954 0.508741
O O8 0.576885 0.870519 0.716257
O O9 0.500000 0.000000 0.248279
O O10 0.500000 0.922321 0.000000
#
# Coordination Sequence:
#
# PCOD9325347 Si02
#       4
#     8   8   4   8
#     4  11  22  39  65 103 146 189 239 308 374 440
#     4  12  25  46  70 102 146 195 246 303 370 451
#     4  12  23  42  68  96 141 192 246 296 368 442
#     4  11  23  44  72 109 146 188 247 313 376 448
#
# _framework density 21.180475000000001
#
# number of rings (size 3 to 8) (size 9 to 14) (size 15 to 20)
#    0.000    0.571    4.286    7.286    0.000    0.571 
#    0.000    5.714    0.000    0.000    0.000    0.000 
#    0.000    0.000    0.000    0.000    0.000    0.000 
#
# Total GULP energy -77970.375171 kJ/mol
# GULP energy per Si atom -5569.312512 kJ/mol
# Density = 2.113227 g / cm^3
# Si number density = 21.180475 Si / 1000 Ang^3
#
#
#
# Elastic Constant Matrix: (Units=GPa)
#
#
# Indices 1 2 3 4 5 6 
#
# 1 188.3888 70.4346 47.3838 0.0000 0.0000 0.0000
# 2 70.4346 118.7461 52.6945 0.0000 0.0000 0.0000
# 3 47.3838 52.6945 99.4902 0.0000 0.0000 0.0000
# 4 0.0000 0.0000 0.0000 19.7861 0.0000 0.0000
# 5 0.0000 0.0000 0.0000 0.0000 33.7705 0.0000
# 6 0.0000 0.0000 0.0000 0.0000 0.0000 42.4551
#
#
#
# Elastic Compliance Matrix: (Units=1/GPa)
#
#
# Indices 1 2 3 4 5 6 
#
# 1 0.006984 -0.003486 -0.001480 0.000000 0.000000 0.000000
# 2 -0.003486 0.012748 -0.005092 0.000000 0.000000 0.000000
# 3 -0.001480 -0.005092 0.013453 0.000000 0.000000 0.000000
# 4 0.000000 0.000000 0.000000 0.050541 0.000000 0.000000
# 5 0.000000 0.000000 0.000000 0.000000 0.029612 0.000000
# 6 0.000000 0.000000 0.000000 0.000000 0.000000 0.023554
#
#
# Mechanical properties :
#
#
# Convention : Reuss Voigt Hill
#
# Bulk Modulus (GPa) = 76.51157 83.07233 79.79195
# Shear Modulus (GPa) = 30.98593 34.94315 32.96454
#
# Velocity S-wave (km/s) = 3.82900 4.06616 3.94936
# Velocity P-wave (km/s) = 7.46662 7.83270 7.65185
#
# Compressibility (1/GPa) = 0.01306992
#
# Stress axis : x y z
#
# Youngs Moduli (GPa) = 143.19259 78.44067 74.33241
#
# Poissons Ratio (x) = 0.27341 0.11001
# Poissons Ratio (y) = 0.49912 0.37851
# Poissons Ratio (z) = 0.21191 0.39943
#
# Static dielectric constant tensor:
#      x y z
#    x 1.731900 0.000000 0.000000 
#    y 0.000000 1.920080 0.000000 
#    z 0.000000 0.000000 1.869810 
# 
# From -- ./inp_files/10304.got.cif
#   From: 2010.05.17/outbox.cif.g08.bks.cpg/sg21_6_cif.got.tgz:10304.got - 2010.06.03 23:14:55.
