data_PCOD9325570
_publ_section_title
;
Structure prediction by ZEFSAII (Michael W. Deem and Ramdas Pophale) SiO2 
 PCOD9325570
Probable space group: C 2 2 2
;
_chemical_formula_sum "Si O2"
_cell_formula_units_Z 26
_cell_length_a 16.645807
_cell_length_b 8.075989
_cell_length_c 8.619260
_cell_angle_alpha 90.000000
_cell_angle_beta 90.000000
_cell_angle_gamma 90.000000
_cell_volume 1158.698794
_symmetry_space_group_name_H-M "C 2 2 2"
_symmetry_group_IT_number 21
_symmetry_cell_setting 'orthorhombic'
loop_
_space_group_symop_operation_xyz
x,y,z
-x,-y,z
x,-y,-z
-x,y,-z
1/2+x,1/2+y,z
1/2-x,1/2-y,z
1/2+x,1/2-y,-z
1/2-x,1/2+y,-z
loop_
_atom_site_type_symbol
_atom_site_label
_atom_site_fract_x
_atom_site_fract_y
_atom_site_fract_z
Si Si1 0.859002 0.000000 0.000000
Si Si2 0.250000 0.750000 0.796760
Si Si3 0.000000 0.000000 0.500000
Si Si4 0.395266 0.936703 0.674281
Si Si5 0.947902 0.769524 0.761391
O O1 0.917965 0.111523 0.104525
O O2 0.801650 0.878404 0.099534
O O3 0.312027 0.846204 0.688635
O O4 0.054029 0.882783 0.392383
O O5 0.463723 0.815895 0.746198
O O6 0.413866 0.000000 0.500000
O O7 0.392577 0.107915 0.767958
#
# Coordination Sequence:
#
# PCOD9325570 Si02
#       5
#     4   4   2   8   8
#     4  12  28  49  72 117 148 210 236 317 374 458
#     4  12  28  46  72 110 164 194 246 294 402 454
#     4  12  20  40  76 108 128 188 244 330 336 428
#     4  11  24  49  75 111 144 202 248 319 364 443
#     4  11  24  46  78 105 148 188 266 302 367 431
#
# _framework density 22.438965
#
# number of rings (size 3 to 8) (size 9 to 14) (size 15 to 20)
#    0.000    0.615    3.077    4.615    0.000    8.000 
#    2.769    6.154    0.000    0.000    0.000    0.000 
#    0.000    0.000    0.000    0.000    0.000    0.000 
#
# Total GULP energy -72691.473611 kJ/mol
# GULP energy per Si atom -5591.651816 kJ/mol
# Density = 2.238789 g / cm^3
# Si number density = 22.438965 Si / 1000 Ang^3
#
#
#
# Elastic Constant Matrix: (Units=GPa)
#
#
# Indices 1 2 3 4 5 6 
#
# 1 148.8065 91.5874 59.5979 0.0000 0.0000 0.0000
# 2 91.5874 193.1899 71.4352 0.0000 0.0000 0.0000
# 3 59.5979 71.4352 92.5492 0.0000 0.0000 0.0000
# 4 0.0000 0.0000 0.0000 46.0129 0.0000 0.0000
# 5 0.0000 0.0000 0.0000 0.0000 30.8861 0.0000
# 6 0.0000 0.0000 0.0000 0.0000 0.0000 40.4643
#
#
#
# Elastic Compliance Matrix: (Units=1/GPa)
#
#
# Indices 1 2 3 4 5 6 
#
# 1 0.010485 -0.003462 -0.004080 0.000000 0.000000 0.000000
# 2 -0.003462 0.008387 -0.004244 0.000000 0.000000 0.000000
# 3 -0.004080 -0.004244 0.016708 0.000000 0.000000 0.000000
# 4 0.000000 0.000000 0.000000 0.021733 0.000000 0.000000
# 5 0.000000 0.000000 0.000000 0.000000 0.032377 0.000000
# 6 0.000000 0.000000 0.000000 0.000000 0.000000 0.024713
#
#
# Mechanical properties :
#
#
# Convention : Reuss Voigt Hill
#
# Bulk Modulus (GPa) = 83.27606 97.75406 90.51506
# Shear Modulus (GPa) = 35.21693 37.60101 36.40897
#
# Velocity S-wave (km/s) = 3.96593 4.09797 4.03249
# Velocity P-wave (km/s) = 7.62655 8.12713 7.88082
#
# Compressibility (1/GPa) = 0.01200825
#
# Stress axis : x y z
#
# Youngs Moduli (GPa) = 95.37499 119.23333 59.85195
#
# Poissons Ratio (x) = 0.41281 0.24417
# Poissons Ratio (y) = 0.33021 0.25401
# Poissons Ratio (z) = 0.38908 0.50603
#
# Static dielectric constant tensor:
#      x y z
#    x 1.812150 0.000000 0.000000 
#    y 0.000000 1.955360 0.000000 
#    z 0.000000 0.000000 1.872210 
# 
# From -- ./inp_files/10196.got.cif
#   From: 2010.05.17/outbox.cif.g08.bks.cpg/sg21_6_cif.got.tgz:10196.got - 2010.06.03 23:14:55.
