data_PCOD9325302
_publ_section_title
;
Structure prediction by ZEFSAII (Michael W. Deem and Ramdas Pophale) SiO2 
 PCOD9325302
Probable space group: C 2 2 2
;
_chemical_formula_sum "Si O2"
_cell_formula_units_Z 56
_cell_length_a 15.833489
_cell_length_b 9.109102
_cell_length_c 18.569040
_cell_angle_alpha 90.000000
_cell_angle_beta 90.000000
_cell_angle_gamma 90.000000
_cell_volume 2678.191588
_symmetry_space_group_name_H-M "C 2 2 2"
_symmetry_group_IT_number 21
_symmetry_cell_setting 'orthorhombic'
loop_
_space_group_symop_operation_xyz
x,y,z
-x,-y,z
x,-y,-z
-x,y,-z
1/2+x,1/2+y,z
1/2-x,1/2-y,z
1/2+x,1/2-y,-z
1/2-x,1/2+y,-z
loop_
_atom_site_type_symbol
_atom_site_label
_atom_site_fract_x
_atom_site_fract_y
_atom_site_fract_z
Si Si1 0.015424 0.174262 0.419698
Si Si2 0.801772 0.122823 0.557394
Si Si3 0.996103 0.825560 0.854816
Si Si4 0.265376 0.992770 0.301065
Si Si5 0.109671 0.781991 0.290066
Si Si6 0.414615 0.929521 0.078898
Si Si7 0.674029 0.156761 0.836354
O O1 0.114785 0.188860 0.405769
O O2 0.000000 0.234999 0.500000
O O3 0.951617 0.227490 0.359030
O O4 0.000000 0.000000 0.421253
O O5 0.750000 0.250000 0.518052
O O6 0.827403 0.000000 0.500000
O O7 0.742753 0.055649 0.618826
O O8 0.089689 0.754815 0.846401
O O9 0.947702 0.790928 0.780475
O O10 0.938452 0.740966 0.914852
O O11 0.000000 0.000000 0.866490
O O12 0.171863 0.923568 0.287860
O O13 0.330327 0.858823 0.293705
O O14 0.297473 0.113012 0.244148
O O15 0.500000 0.000000 0.111715
O O16 0.340120 0.999221 0.125129
O O17 0.406718 0.000000 0.000000
O O18 0.750000 0.250000 0.869678
#
# Coordination Sequence:
#
# PCOD9325302 Si02
#       7
#     8   8   8   8   8   8   8
#     4  11  21  41  64  88 126 177 227 277 347 407
#     4  12  27  43  65  91 127 179 231 289 348 411
#     4  11  23  41  69 102 134 180 230 279 335 416
#     4  11  24  41  63  95 133 172 219 285 344 407
#     4  11  23  39  66  98 131 173 223 286 346 405
#     4   9  20  44  70  96 137 184 218 275 346 405
#     4  11  23  42  64  97 137 175 219 273 337 403
#
# _framework density 20.90963
#
# number of rings (size 3 to 8) (size 9 to 14) (size 15 to 20)
#    0.000    1.143    4.286    1.714    8.000    0.000 
#    0.000    8.571    0.000    0.000    0.000    0.000 
#    0.000    0.000    0.000    0.000    0.000    0.000 
#
# Total GULP energy -156229.949609 kJ/mol
# GULP energy per Si atom -5579.641057 kJ/mol
# Density = 2.086204 g / cm^3
# Si number density = 20.909630 Si / 1000 Ang^3
#
#
#
# Elastic Constant Matrix: (Units=GPa)
#
#
# Indices 1 2 3 4 5 6 
#
# 1 118.5896 57.6967 36.4455 0.0000 0.0000 0.0000
# 2 57.6967 100.7419 39.4525 0.0000 0.0000 0.0000
# 3 36.4455 39.4525 96.0589 0.0000 0.0000 0.0000
# 4 0.0000 0.0000 0.0000 23.0032 0.0000 0.0000
# 5 0.0000 0.0000 0.0000 0.0000 -6.9036 0.0000
# 6 0.0000 0.0000 0.0000 0.0000 0.0000 24.2833
#
#
#
# Elastic Compliance Matrix: (Units=1/GPa)
#
#
# Indices 1 2 3 4 5 6 
#
# 1 0.012024 -0.006077 -0.002066 0.000000 0.000000 0.000000
# 2 -0.006077 0.014901 -0.003814 0.000000 0.000000 0.000000
# 3 -0.002066 -0.003814 0.012761 0.000000 0.000000 0.000000
# 4 0.000000 0.000000 0.000000 0.043472 0.000000 0.000000
# 5 0.000000 0.000000 0.000000 0.000000 -0.144852 0.000000
# 6 0.000000 0.000000 0.000000 0.000000 0.000000 0.041181
#
#
# Mechanical properties :
#
#
# Convention : Reuss Voigt Hill
#
# Bulk Modulus (GPa) = 63.40940 64.73107 64.07023
# Shear Modulus (GPa) = 577.52904 20.19631 298.86267
#
# Velocity S-wave (km/s) = 16.63737 3.11124 11.96833
# Velocity P-wave (km/s) = 19.98651 6.62806 14.88946
#
# Compressibility (1/GPa) = 0.01577053
#
# Stress axis : x y z
#
# Youngs Moduli (GPa) = 83.16585 67.11123 78.36606
#
# Poissons Ratio (x) = 0.40786 0.16191
# Poissons Ratio (y) = 0.50543 0.29889
# Poissons Ratio (z) = 0.17182 0.25597
#
# Static dielectric constant tensor:
#      x y z
#    x 1.773210 0.000000 0.000000 
#    y 0.000000 1.819770 0.000000 
#    z 0.000000 0.000000 1.775860 
# 
# From -- ./inp_files/37585.got.cif
#   From: 2010.05.17/outbox.cif.g08.bks.cpg/sg21_19_cif.got.tgz:37585.got - 2010.06.03 23:14:55.
