data_PCOD9325981
_publ_section_title
;
Structure prediction by ZEFSAII (Michael W. Deem and Ramdas Pophale) SiO2 
 PCOD9325981
Probable space group: F 2 2 2
;
_chemical_formula_sum "Si O2"
_cell_formula_units_Z 88
_cell_length_a 5.254778
_cell_length_b 27.014636
_cell_length_c 27.627713
_cell_angle_alpha 90.000000
_cell_angle_beta 90.000000
_cell_angle_gamma 90.000000
_cell_volume 3921.917276
_symmetry_space_group_name_H-M "F 2 2 2"
_symmetry_group_IT_number 22
_symmetry_cell_setting 'orthorhombic'
loop_
_space_group_symop_operation_xyz
x,y,z
-x,-y,z
x,-y,-z
-x,y,-z
x,1/2+y,1/2+z
-x,1/2-y,1/2+z
x,1/2-y,1/2-z
-x,1/2+y,1/2-z
1/2+x,y,1/2+z
1/2-x,-y,1/2+z
1/2+x,-y,1/2-z
1/2-x,y,1/2-z
1/2+x,1/2+y,z
1/2-x,1/2-y,z
1/2+x,1/2-y,-z
1/2-x,1/2+y,-z
loop_
_atom_site_type_symbol
_atom_site_label
_atom_site_fract_x
_atom_site_fract_y
_atom_site_fract_z
Si Si1 0.499747 0.695461 0.227369
Si Si2 0.072832 0.567198 0.368061
Si Si3 0.570521 0.552298 0.423635
Si Si4 0.000000 0.500000 0.718862
Si Si5 0.463207 0.829971 0.944347
Si Si6 0.539726 0.183030 0.383929
O O1 0.499933 0.750000 0.250000
O O2 0.750000 0.670254 0.250000
O O3 0.493798 0.704919 0.169701
O O4 0.250000 0.669983 0.250000
O O5 0.861699 0.549184 0.406639
O O6 0.360623 0.552357 0.380713
O O7 0.992778 0.546469 0.316934
O O8 0.052216 0.625362 0.370426
O O9 0.500000 0.500000 0.449236
O O10 0.536692 0.608742 0.444077
O O11 0.250000 0.497836 0.750000
O O12 0.695801 0.808814 0.912186
O O13 0.201449 0.811768 0.919605
O O14 0.500000 0.814947 0.000000
#
# Coordination Sequence:
#
# PCOD9325981 Si02
#       6
#    16  16  16   8  16  16
#     4  10  21  38  63  95 120 145 185 238 294 357
#     4  10  20  33  47  69 101 146 191 234 289 343
#     4  10  17  32  53  67 101 147 193 247 285 324
#     4  12  22  30  44  66  95 138 189 238 286 338
#     4  10  21  35  55  87 118 156 204 238 289 358
#     4  10  21  37  59  83 119 156 188 246 300 336
#
# _framework density 22.438006000000001
#
# number of rings (size 3 to 8) (size 9 to 14) (size 15 to 20)
#    0.000    1.818    1.818    2.727    0.000    1.818 
#    0.000    0.000    0.000    6.545    0.000   50.909 
#    0.000    0.000    0.000    0.000    0.000    0.000 
#
# Total GULP energy -122733.885588 kJ/mol
# GULP energy per Si atom -5578.812981 kJ/mol
# Density = 2.238694 g / cm^3
# Si number density = 22.438006 Si / 1000 Ang^3
#
#
#
# Elastic Constant Matrix: (Units=GPa)
#
#
# Indices 1 2 3 4 5 6 
#
# 1 171.6471 3.4361 61.0064 0.0000 0.0000 0.0000
# 2 3.4361 38.7537 -1.1598 0.0000 0.0000 0.0000
# 3 61.0064 -1.1598 160.7279 0.0000 0.0000 0.0000
# 4 0.0000 0.0000 0.0000 21.5747 0.0000 0.0000
# 5 0.0000 0.0000 0.0000 0.0000 21.0016 0.0000
# 6 0.0000 0.0000 0.0000 0.0000 0.0000 4.2825
#
#
#
# Elastic Compliance Matrix: (Units=1/GPa)
#
#
# Indices 1 2 3 4 5 6 
#
# 1 0.006752 -0.000676 -0.002568 0.000000 0.000000 0.000000
# 2 -0.000676 0.025877 0.000443 0.000000 0.000000 0.000000
# 3 -0.002568 0.000443 0.007199 0.000000 0.000000 0.000000
# 4 0.000000 0.000000 0.000000 0.046351 0.000000 0.000000
# 5 0.000000 0.000000 0.000000 0.000000 0.047615 0.000000
# 6 0.000000 0.000000 0.000000 0.000000 0.000000 0.233508
#
#
# Mechanical properties :
#
#
# Convention : Reuss Voigt Hill
#
# Bulk Modulus (GPa) = 29.21543 55.29934 42.25739
# Shear Modulus (GPa) = 13.01024 29.89482 21.45253
#
# Velocity S-wave (km/s) = 2.41058 3.65407 3.09541
# Velocity P-wave (km/s) = 4.56033 6.51934 5.62577
#
# Compressibility (1/GPa) = 0.03422848
#
# Stress axis : x y z
#
# Youngs Moduli (GPa) = 148.10350 38.64416 138.89858
#
# Poissons Ratio (x) = 0.02610 0.35665
# Poissons Ratio (y) = 0.10005 -0.06155
# Poissons Ratio (z) = 0.38029 -0.01712
#
# Static dielectric constant tensor:
#      x y z
#    x 2.459560 0.000000 0.000000 
#    y 0.000000 1.831820 0.000000 
#    z 0.000000 0.000000 1.802310 
# 
# From -- ./inp_files/46692.got.cif
#   From: 2010.05.17/outbox.cif.g08.bks.cpg/sg22_24_cif.got.tgz:46692.got - 2010.06.03 23:40:54.
