data_PCOD9325564
_publ_section_title
;
Structure prediction by ZEFSAII (Michael W. Deem and Ramdas Pophale) SiO2 
 PCOD9325564
Probable space group: C 2 2 2
;
_chemical_formula_sum "Si O2"
_cell_formula_units_Z 32
_cell_length_a 29.492891
_cell_length_b 8.946568
_cell_length_c 5.220835
_cell_angle_alpha 90.000000
_cell_angle_beta 90.000000
_cell_angle_gamma 90.000000
_cell_volume 1377.570332
_symmetry_space_group_name_H-M "C 2 2 2"
_symmetry_group_IT_number 21
_symmetry_cell_setting 'orthorhombic'
loop_
_space_group_symop_operation_xyz
x,y,z
-x,-y,z
x,-y,-z
-x,y,-z
1/2+x,1/2+y,z
1/2-x,1/2-y,z
1/2+x,1/2-y,-z
1/2-x,1/2+y,-z
loop_
_atom_site_type_symbol
_atom_site_label
_atom_site_fract_x
_atom_site_fract_y
_atom_site_fract_z
Si Si1 0.946363 0.320991 0.526213
Si Si2 0.777640 0.598372 0.260282
Si Si3 0.618248 0.599826 0.748725
Si Si4 0.629860 0.835133 0.097570
O O1 0.937966 0.500000 0.500000
O O2 0.923989 0.203880 0.331325
O O3 0.917478 0.282718 0.779950
O O4 0.000000 0.302114 0.500000
O O5 0.761951 0.500000 0.500000
O O6 0.750000 0.750000 0.233765
O O7 0.830169 0.647136 0.302093
O O8 0.775750 0.500000 0.000000
O O9 0.631319 0.500000 0.500000
O O10 0.610116 0.500000 0.000000
O O11 0.649744 0.728098 0.875326
O O12 0.620781 0.000000 0.000000
#
# Coordination Sequence:
#
# PCOD9325564 Si02
#       4
#     8   8   8   8
#     4  11  24  46  74 103 140 195 253 296 353 443
#     4  11  26  49  78 111 147 191 238 305 367 437
#     4  12  26  46  68 106 144 188 238 305 364 422
#     4  11  24  47  78 100 148 195 249 292 367 438
#
# _framework density 23.229303999999999
#
# number of rings (size 3 to 8) (size 9 to 14) (size 15 to 20)
#    0.000    0.750    5.000    1.500    3.500    2.500 
#    9.000    0.000    0.000    0.000    0.000    0.000 
#    0.000    0.000    0.000    0.000    0.000    0.000 
#
# Total GULP energy -89221.389050 kJ/mol
# GULP energy per Si atom -5576.336816 kJ/mol
# Density = 2.317643 g / cm^3
# Si number density = 23.229304 Si / 1000 Ang^3
#
#
#
# Elastic Constant Matrix: (Units=GPa)
#
#
# Indices 1 2 3 4 5 6 
#
# 1 67.5484 11.3421 22.9362 0.0000 0.0000 0.0000
# 2 11.3421 143.0016 84.2060 0.0000 0.0000 0.0000
# 3 22.9362 84.2060 169.4339 0.0000 0.0000 0.0000
# 4 0.0000 0.0000 0.0000 51.0219 0.0000 0.0000
# 5 0.0000 0.0000 0.0000 0.0000 17.1724 0.0000
# 6 0.0000 0.0000 0.0000 0.0000 0.0000 -52.0687
#
#
#
# Elastic Compliance Matrix: (Units=1/GPa)
#
#
# Indices 1 2 3 4 5 6 
#
# 1 0.015517 0.000009 -0.002105 0.000000 0.000000 0.000000
# 2 0.000009 0.009886 -0.004914 0.000000 0.000000 0.000000
# 3 -0.002105 -0.004914 0.008629 0.000000 0.000000 0.000000
# 4 0.000000 0.000000 0.000000 0.019599 0.000000 0.000000
# 5 0.000000 0.000000 0.000000 0.000000 0.058233 0.000000
# 6 0.000000 0.000000 0.000000 0.000000 0.000000 -0.019205
#
#
# Mechanical properties :
#
#
# Convention : Reuss Voigt Hill
#
# Bulk Modulus (GPa) = 49.97086 68.55026 59.26056
# Shear Modulus (GPa) = 44.11049 20.65843 32.38446
#
# Velocity S-wave (km/s) = 4.36238 2.98539 3.73784
# Velocity P-wave (km/s) = 6.85073 6.43877 6.64794
#
# Compressibility (1/GPa) = 0.02001166
#
# Stress axis : x y z
#
# Youngs Moduli (GPa) = 64.44345 101.15243 115.88384
#
# Poissons Ratio (x) = -0.00088 0.24393
# Poissons Ratio (y) = -0.00056 0.56950
# Poissons Ratio (z) = 0.13565 0.49710
#
# Static dielectric constant tensor:
#      x y z
#    x 1.850660 0.000000 0.000000 
#    y 0.000000 1.902990 0.000000 
#    z 0.000000 0.000000 2.436260 
# 
# From -- ./inp_files/1584.got.cif
#   From: 2010.05.17/outbox.cif.g08.bks.cpg/sg21_1_cif.got.tgz:1584.got - 2010.06.03 23:14:55.
