data_PCOD9325682
_publ_section_title
;
Structure prediction by ZEFSAII (Michael W. Deem and Ramdas Pophale) SiO2 
 PCOD9325682
Probable space group: C 2 2 2
;
_chemical_formula_sum "Si O2"
_cell_formula_units_Z 20
_cell_length_a 10.516582
_cell_length_b 8.911217
_cell_length_c 6.647839
_cell_angle_alpha 90.000000
_cell_angle_beta 90.000000
_cell_angle_gamma 90.000000
_cell_volume 623.005850
_symmetry_space_group_name_H-M "C 2 2 2"
_symmetry_group_IT_number 21
_symmetry_cell_setting 'orthorhombic'
loop_
_space_group_symop_operation_xyz
x,y,z
-x,-y,z
x,-y,-z
-x,y,-z
1/2+x,1/2+y,z
1/2-x,1/2-y,z
1/2+x,1/2-y,-z
1/2-x,1/2+y,-z
loop_
_atom_site_type_symbol
_atom_site_label
_atom_site_fract_x
_atom_site_fract_y
_atom_site_fract_z
Si Si1 0.320360 0.500000 0.500000
Si Si2 0.392968 0.664177 0.891330
Si Si3 0.111766 0.402729 0.794911
O O1 0.388106 0.613518 0.652943
O O2 0.227589 0.407393 0.647888
O O3 0.250000 0.750000 0.909699
O O4 0.383844 0.500000 0.000000
O O5 0.450104 0.743781 0.137523
O O6 0.000000 0.500000 0.699770
O O7 0.128787 0.500000 0.000000
#
# Coordination Sequence:
#
# PCOD9325682 Si02
#       3
#     4   8   8
#     4  12  21  46  90 130 183 266 288 358 496 532
#     4   8  22  48  75 134 193 223 309 388 429 553
#     4   9  21  47  83 130 192 234 308 387 442 552
#
# _framework density 32.102426000000001
#
# number of rings (size 3 to 8) (size 9 to 14) (size 15 to 20)
#    2.400    0.000    0.000    3.000    0.000    1.600 
#    7.200    8.000    0.000   19.200    0.000   25.200 
#    0.000    0.000    0.000    0.000    0.000    0.000 
#
# Total GULP energy -55760.756016 kJ/mol
# GULP energy per Si atom -5576.075602 kJ/mol
# Density = 3.202936 g / cm^3
# Si number density = 32.102426 Si / 1000 Ang^3
#
#
#
# Elastic Constant Matrix: (Units=GPa)
#
#
# Indices 1 2 3 4 5 6 
#
# 1 310.0385 125.6720 171.8731 0.0000 0.0000 0.0000
# 2 125.6720 330.4568 117.7794 0.0000 0.0000 0.0000
# 3 171.8731 117.7794 309.5783 0.0000 0.0000 0.0000
# 4 0.0000 0.0000 0.0000 36.0335 0.0000 0.0000
# 5 0.0000 0.0000 0.0000 0.0000 -508.7014 0.0000
# 6 0.0000 0.0000 0.0000 0.0000 0.0000 78.3745
#
#
#
# Elastic Compliance Matrix: (Units=1/GPa)
#
#
# Indices 1 2 3 4 5 6 
#
# 1 0.004953 -0.001045 -0.002352 0.000000 0.000000 0.000000
# 2 -0.001045 0.003721 -0.000835 0.000000 0.000000 0.000000
# 3 -0.002352 -0.000835 0.004854 0.000000 0.000000 0.000000
# 4 0.000000 0.000000 0.000000 0.027752 0.000000 0.000000
# 5 0.000000 0.000000 0.000000 0.000000 -0.001966 0.000000
# 6 0.000000 0.000000 0.000000 0.000000 0.000000 0.012759
#
#
# Mechanical properties :
#
#
# Convention : Reuss Voigt Hill
#
# Bulk Modulus (GPa) = 197.53018 197.85806 197.69412
# Shear Modulus (GPa) = 80.35059 -43.20875 18.57092
#
# Velocity S-wave (km/s) = 5.00837 -3.67272 2.40779
# Velocity P-wave (km/s) = 9.75243 6.61680 8.33342
#
# Compressibility (1/GPa) = 0.00506252
#
# Stress axis : x y z
#
# Youngs Moduli (GPa) = 201.89523 268.71506 206.01735
#
# Poissons Ratio (x) = 0.28088 0.48459
# Poissons Ratio (y) = 0.21104 0.17213
# Poissons Ratio (z) = 0.47489 0.22451
#
# Static dielectric constant tensor:
#      x y z
#    x 3.125310 0.000000 0.000000 
#    y 0.000000 4.199920 0.000000 
#    z 0.000000 0.000000 2.512020 
# 
# From -- ./inp_files/4423.got.cif
#   From: 2010.05.17/outbox.cif.g08.bks.cpg/sg21_3_cif.got.tgz:4423.got - 2010.06.03 23:14:55.
