data_PCOD9325334
_publ_section_title
;
Structure prediction by ZEFSAII (Michael W. Deem and Ramdas Pophale) SiO2 
 PCOD9325334
Probable space group: C 2 2 2
;
_chemical_formula_sum "Si O2"
_cell_formula_units_Z 64
_cell_length_a 29.150069
_cell_length_b 12.603339
_cell_length_c 8.534034
_cell_angle_alpha 90.000000
_cell_angle_beta 90.000000
_cell_angle_gamma 90.000000
_cell_volume 3135.303403
_symmetry_space_group_name_H-M "C 2 2 2"
_symmetry_group_IT_number 21
_symmetry_cell_setting 'orthorhombic'
loop_
_space_group_symop_operation_xyz
x,y,z
-x,-y,z
x,-y,-z
-x,y,-z
1/2+x,1/2+y,z
1/2-x,1/2-y,z
1/2+x,1/2-y,-z
1/2-x,1/2+y,-z
loop_
_atom_site_type_symbol
_atom_site_label
_atom_site_fract_x
_atom_site_fract_y
_atom_site_fract_z
Si Si1 0.825129 0.488099 0.816986
Si Si2 0.513611 0.616386 0.817340
Si Si3 0.496620 0.831831 0.686460
Si Si4 0.160594 0.934927 0.863470
Si Si5 0.879371 0.143367 0.165947
Si Si6 0.425526 0.010876 0.690108
Si Si7 0.303938 0.238218 0.333119
Si Si8 0.697647 0.792011 0.690196
O O1 0.878099 0.509323 0.778022
O O2 0.814754 0.370117 0.757660
O O3 0.799780 0.582769 0.725285
O O4 0.815633 0.500000 0.000000
O O5 0.500000 0.500000 0.756314
O O6 0.487479 0.713763 0.739598
O O7 0.567262 0.645997 0.792865
O O8 0.500000 0.616795 0.000000
O O9 0.500000 0.835582 0.500000
O O10 0.544768 0.885772 0.734915
O O11 0.456489 0.910682 0.737070
O O12 0.180104 0.842697 0.758566
O O13 0.140375 0.032217 0.764935
O O14 0.123471 0.880049 0.978725
O O15 0.189778 0.000000 0.000000
O O16 0.842104 0.234221 0.206092
O O17 0.418852 0.000000 0.500000
O O18 0.250000 0.250000 0.344549
O O19 0.319714 0.227947 0.512790
O O20 0.750000 0.750000 0.713213
#
# Coordination Sequence:
#
# PCOD9325334 Si02
#       8
#     8   8   8   8   8   8   8   8
#     4  12  26  40  64  93 127 164 211 266 321 387
#     4  11  22  38  60  88 127 168 212 258 322 380
#     4   9  20  37  60  87 123 160 201 260 316 378
#     4   8  20  40  63  90 124 166 214 261 324 384
#     4   9  21  41  64  91 129 169 216 271 322 392
#     4   9  19  40  63  89 122 159 201 258 326 378
#     4  11  25  42  64  93 126 167 217 272 326 388
#     4  11  25  44  65  93 129 171 219 269 330 388
#
# _framework density 20.412699
#
# number of rings (size 3 to 8) (size 9 to 14) (size 15 to 20)
#    0.750    1.125    0.000    4.875    1.750    8.250 
#    0.000    2.500    0.000    0.000    0.000    0.000 
#    0.000    0.000    0.000    0.000    0.000    0.000 
#
# Total GULP energy -178302.939578 kJ/mol
# GULP energy per Si atom -5571.966862 kJ/mol
# Density = 2.036624 g / cm^3
# Si number density = 20.412699 Si / 1000 Ang^3
#
#
#
# Elastic Constant Matrix: (Units=GPa)
#
#
# Indices 1 2 3 4 5 6 
#
# 1 48.0444 16.4819 3.8912 0.0000 0.0000 0.0000
# 2 16.4819 135.4954 15.2300 0.0000 0.0000 0.0000
# 3 3.8912 15.2300 31.3113 0.0000 0.0000 0.0000
# 4 0.0000 0.0000 0.0000 34.8476 0.0000 0.0000
# 5 0.0000 0.0000 0.0000 0.0000 20.9536 0.0000
# 6 0.0000 0.0000 0.0000 0.0000 0.0000 5.0837
#
#
#
# Elastic Compliance Matrix: (Units=1/GPa)
#
#
# Indices 1 2 3 4 5 6 
#
# 1 0.021787 -0.002482 -0.001501 0.000000 0.000000 0.000000
# 2 -0.002482 0.008090 -0.003627 0.000000 0.000000 0.000000
# 3 -0.001501 -0.003627 0.033888 0.000000 0.000000 0.000000
# 4 0.000000 0.000000 0.000000 0.028696 0.000000 0.000000
# 5 0.000000 0.000000 0.000000 0.000000 0.047725 0.000000
# 6 0.000000 0.000000 0.000000 0.000000 0.000000 0.196706
#
#
# Mechanical properties :
#
#
# Convention : Reuss Voigt Hill
#
# Bulk Modulus (GPa) = 20.59847 31.78415 26.19131
# Shear Modulus (GPa) = 13.57620 24.12684 18.85152
#
# Velocity S-wave (km/s) = 2.58172 3.44168 3.04224
# Velocity P-wave (km/s) = 4.35890 5.60341 5.01987
#
# Compressibility (1/GPa) = 0.04854730
#
# Stress axis : x y z
#
# Youngs Moduli (GPa) = 45.89908 123.61228 29.50913
#
# Poissons Ratio (x) = 0.30675 0.04428
# Poissons Ratio (y) = 0.11390 0.10702
# Poissons Ratio (z) = 0.06887 0.44829
#
# Static dielectric constant tensor:
#      x y z
#    x 1.752580 0.000000 0.000000 
#    y 0.000000 1.748790 0.000000 
#    z 0.000000 0.000000 1.782200 
# 
# From -- ./inp_files/19823.got.cif
#   From: 2010.05.17/outbox.cif.g08.bks.cpg/sg21_10_cif.got.tgz:19823.got - 2010.06.03 23:14:55.
