data_PCOD9325269
_publ_section_title
;
Structure prediction by ZEFSAII (Michael W. Deem and Ramdas Pophale) SiO2 
 PCOD9325269
Probable space group: C 2 2 2
;
_chemical_formula_sum "Si O2"
_cell_formula_units_Z 56
_cell_length_a 15.447186
_cell_length_b 17.542400
_cell_length_c 9.529396
_cell_angle_alpha 90.000000
_cell_angle_beta 90.000000
_cell_angle_gamma 90.000000
_cell_volume 2582.282548
_symmetry_space_group_name_H-M "C 2 2 2"
_symmetry_group_IT_number 21
_symmetry_cell_setting 'orthorhombic'
loop_
_space_group_symop_operation_xyz
x,y,z
-x,-y,z
x,-y,-z
-x,y,-z
1/2+x,1/2+y,z
1/2-x,1/2-y,z
1/2+x,1/2-y,-z
1/2-x,1/2+y,-z
loop_
_atom_site_type_symbol
_atom_site_label
_atom_site_fract_x
_atom_site_fract_y
_atom_site_fract_z
Si Si1 0.278574 0.393903 0.219455
Si Si2 0.902589 0.172427 0.012342
Si Si3 0.913408 0.175385 0.573607
Si Si4 0.678091 0.310276 0.306600
Si Si5 0.523943 0.088756 0.342484
Si Si6 0.899089 0.697105 0.198136
Si Si7 0.213960 0.457198 0.649920
O O1 0.332660 0.375482 0.078357
O O2 0.347061 0.380936 0.346618
O O3 0.197265 0.335368 0.228951
O O4 0.238356 0.477551 0.238359
O O5 0.898978 0.258014 0.947970
O O6 0.881739 0.176360 0.174597
O O7 0.000000 0.142058 0.000000
O O8 0.867343 0.219349 0.446323
O O9 0.928970 0.237802 0.692871
O O10 0.000000 0.142559 0.500000
O O11 0.750000 0.250000 0.263447
O O12 0.714092 0.392601 0.350835
O O13 0.500000 0.117336 0.500000
O O14 0.467738 0.130936 0.225555
O O15 0.625958 0.088277 0.318542
O O16 0.500000 0.000000 0.341062
O O17 0.203112 0.500000 0.500000
#
# Coordination Sequence:
#
# PCOD9325269 Si02
#       7
#     8   8   8   8   8   8   8
#     4  11  22  45  68  96 141 186 229 290 357 424
#     4  11  26  47  68  96 137 186 246 290 345 416
#     4  11  23  37  64 102 137 180 237 287 343 408
#     4  12  26  42  68 101 137 183 231 287 348 422
#     4  11  21  36  67 108 147 176 217 288 364 434
#     4  11  22  42  69 100 141 187 233 287 357 428
#     4  12  24  42  68 109 145 176 232 291 358 425
#
# _framework density 21.686242
#
# number of rings (size 3 to 8) (size 9 to 14) (size 15 to 20)
#    0.000    0.714    4.286    5.571    6.000    0.571 
#    0.000    4.286    0.000    0.429    0.000    1.000 
#    0.000    0.000    0.000    0.000    0.000    0.000 
#
# Total GULP energy -156501.378995 kJ/mol
# GULP energy per Si atom -5589.334964 kJ/mol
# Density = 2.163688 g / cm^3
# Si number density = 21.686242 Si / 1000 Ang^3
#
#
#
# Elastic Constant Matrix: (Units=GPa)
#
#
# Indices 1 2 3 4 5 6 
#
# 1 110.6835 18.5723 27.0291 0.0000 0.0000 0.0000
# 2 18.5723 59.0137 -1.5045 0.0000 0.0000 0.0000
# 3 27.0291 -1.5045 56.3830 0.0000 0.0000 0.0000
# 4 0.0000 0.0000 0.0000 12.4425 0.0000 0.0000
# 5 0.0000 0.0000 0.0000 0.0000 38.6594 0.0000
# 6 0.0000 0.0000 0.0000 0.0000 0.0000 26.2556
#
#
#
# Elastic Compliance Matrix: (Units=1/GPa)
#
#
# Indices 1 2 3 4 5 6 
#
# 1 0.010939 -0.003579 -0.005340 0.000000 0.000000 0.000000
# 2 -0.003579 0.018128 0.002199 0.000000 0.000000 0.000000
# 3 -0.005340 0.002199 0.020354 0.000000 0.000000 0.000000
# 4 0.000000 0.000000 0.000000 0.080370 0.000000 0.000000
# 5 0.000000 0.000000 0.000000 0.000000 0.025867 0.000000
# 6 0.000000 0.000000 0.000000 0.000000 0.000000 0.038087
#
#
# Mechanical properties :
#
#
# Convention : Reuss Voigt Hill
#
# Bulk Modulus (GPa) = 27.79099 34.91934 31.35516
# Shear Modulus (GPa) = 22.81259 27.60371 25.20815
#
# Velocity S-wave (km/s) = 3.24688 3.57160 3.41310
# Velocity P-wave (km/s) = 5.18644 5.75721 5.47926
#
# Compressibility (1/GPa) = 0.03598288
#
# Stress axis : x y z
#
# Youngs Moduli (GPa) = 91.41421 55.16454 49.12986
#
# Poissons Ratio (x) = 0.19742 0.26233
# Poissons Ratio (y) = 0.32716 -0.10805
# Poissons Ratio (z) = 0.48811 -0.12132
#
# Static dielectric constant tensor:
#      x y z
#    x 1.868440 0.000000 0.000000 
#    y 0.000000 1.787460 0.000000 
#    z 0.000000 0.000000 1.772130 
# 
# From -- ./inp_files/15287.got.cif
#   From: 2010.05.17/outbox.cif.g08.bks.cpg/sg21_8_cif.got.tgz:15287.got - 2010.06.03 23:14:55.
