data_PCOD9325493
_publ_section_title
;
Structure prediction by ZEFSAII (Michael W. Deem and Ramdas Pophale) SiO2 
 PCOD9325493
Probable space group: C 2 2 2
;
_chemical_formula_sum "Si O2"
_cell_formula_units_Z 40
_cell_length_a 7.908046
_cell_length_b 23.025557
_cell_length_c 8.890590
_cell_angle_alpha 90.000000
_cell_angle_beta 90.000000
_cell_angle_gamma 90.000000
_cell_volume 1618.862319
_symmetry_space_group_name_H-M "C 2 2 2"
_symmetry_group_IT_number 21
_symmetry_cell_setting 'orthorhombic'
loop_
_space_group_symop_operation_xyz
x,y,z
-x,-y,z
x,-y,-z
-x,y,-z
1/2+x,1/2+y,z
1/2-x,1/2-y,z
1/2+x,1/2-y,-z
1/2-x,1/2+y,-z
loop_
_atom_site_type_symbol
_atom_site_label
_atom_site_fract_x
_atom_site_fract_y
_atom_site_fract_z
Si Si1 0.660807 0.636223 0.804368
Si Si2 0.854490 0.799551 0.093100
Si Si3 0.794916 0.182025 0.509186
Si Si4 0.408044 0.920200 0.656911
Si Si5 0.288132 0.021418 0.829224
O O1 0.471590 0.661695 0.805075
O O2 0.757023 0.659438 0.658778
O O3 0.641261 0.567808 0.812634
O O4 0.730761 0.661318 0.963782
O O5 0.750000 0.750000 0.168968
O O6 0.686037 0.859006 0.376167
O O7 0.000000 0.764985 0.000000
O O8 0.750000 0.250000 0.516983
O O9 0.000000 0.175026 0.500000
O O10 0.500000 0.934046 0.500000
O O11 0.551365 0.936335 0.783350
O O12 0.276399 0.969366 0.710439
O O13 0.299546 0.000000 0.000000
#
# Coordination Sequence:
#
# PCOD9325493 Si02
#       5
#     8   8   8   8   8
#     4   9  22  41  72 104 154 200 269 324 395 459
#     4   8  19  41  69 104 153 207 251 323 393 459
#     4  12  27  47  72 114 152 212 265 328 390 480
#     4  11  23  45  79 107 151 200 257 318 397 475
#     4  11  23  45  80 116 150 201 266 332 394 471
#
# _framework density 24.708708000000001
#
# number of rings (size 3 to 8) (size 9 to 14) (size 15 to 20)
#    1.200    0.400    2.000    3.600    0.000    4.000 
#    0.000   14.000    0.000    0.000    0.000    0.000 
#    0.000    0.000    0.000    0.000    0.000    0.000 
#
# Total GULP energy -111359.172420 kJ/mol
# GULP energy per Si atom -5567.958621 kJ/mol
# Density = 2.465247 g / cm^3
# Si number density = 24.708708 Si / 1000 Ang^3
#
#
#
# Elastic Constant Matrix: (Units=GPa)
#
#
# Indices 1 2 3 4 5 6 
#
# 1 67.7486 62.1216 20.9572 0.0000 0.0000 0.0000
# 2 62.1216 236.7928 78.7000 0.0000 0.0000 0.0000
# 3 20.9572 78.7000 156.9991 0.0000 0.0000 0.0000
# 4 0.0000 0.0000 0.0000 27.9974 0.0000 0.0000
# 5 0.0000 0.0000 0.0000 0.0000 13.1123 0.0000
# 6 0.0000 0.0000 0.0000 0.0000 0.0000 28.1343
#
#
#
# Elastic Compliance Matrix: (Units=1/GPa)
#
#
# Indices 1 2 3 4 5 6 
#
# 1 0.019436 -0.005084 -0.000046 0.000000 0.000000 0.000000
# 2 -0.005084 0.006397 -0.002528 0.000000 0.000000 0.000000
# 3 -0.000046 -0.002528 0.007643 0.000000 0.000000 0.000000
# 4 0.000000 0.000000 0.000000 0.035718 0.000000 0.000000
# 5 0.000000 0.000000 0.000000 0.000000 0.076264 0.000000
# 6 0.000000 0.000000 0.000000 0.000000 0.000000 0.035544
#
#
# Mechanical properties :
#
#
# Convention : Reuss Voigt Hill
#
# Bulk Modulus (GPa) = 55.06512 87.23312 71.14912
# Shear Modulus (GPa) = 24.70714 33.83292 29.27003
#
# Velocity S-wave (km/s) = 3.16561 3.70438 3.44554
# Velocity P-wave (km/s) = 5.97457 7.32652 6.68481
#
# Compressibility (1/GPa) = 0.01816031
#
# Stress axis : x y z
#
# Youngs Moduli (GPa) = 51.45048 156.32312 130.84063
#
# Poissons Ratio (x) = 0.79469 0.00604
# Poissons Ratio (y) = 0.26156 0.33077
# Poissons Ratio (z) = 0.00237 0.39520
#
# Static dielectric constant tensor:
#      x y z
#    x 2.156150 0.000000 0.000000 
#    y 0.000000 1.995650 0.000000 
#    z 0.000000 0.000000 2.041220 
# 
# From -- ./inp_files/11211.got.cif
#   From: 2010.05.17/outbox.cif.g08.bks.cpg/sg21_6_cif.got.tgz:11211.got - 2010.06.03 23:14:55.
