data_PCOD9325257
_publ_section_title
;
Structure prediction by ZEFSAII (Michael W. Deem and Ramdas Pophale) SiO2 
 PCOD9325257
Probable space group: C 2 2 2
;
_chemical_formula_sum "Si O2"
_cell_formula_units_Z 44
_cell_length_a 11.643904
_cell_length_b 17.133241
_cell_length_c 8.558984
_cell_angle_alpha 90.000000
_cell_angle_beta 90.000000
_cell_angle_gamma 90.000000
_cell_volume 1707.498593
_symmetry_space_group_name_H-M "C 2 2 2"
_symmetry_group_IT_number 21
_symmetry_cell_setting 'orthorhombic'
loop_
_space_group_symop_operation_xyz
x,y,z
-x,-y,z
x,-y,-z
-x,y,-z
1/2+x,1/2+y,z
1/2-x,1/2-y,z
1/2+x,1/2-y,-z
1/2-x,1/2+y,-z
loop_
_atom_site_type_symbol
_atom_site_label
_atom_site_fract_x
_atom_site_fract_y
_atom_site_fract_z
Si Si1 0.750000 0.750000 0.027567
Si Si2 0.259565 0.844471 0.543907
Si Si3 0.190864 0.893732 0.194108
Si Si4 0.033553 0.115744 0.328542
Si Si5 0.928169 0.566331 0.840000
Si Si6 0.952086 0.704841 0.270517
O O1 0.855637 0.719626 0.135964
O O2 0.797885 0.820140 0.921364
O O3 0.250000 0.750000 0.545506
O O4 0.223665 0.873407 0.374333
O O5 0.171895 0.884462 0.668594
O O6 0.388364 0.849689 0.602978
O O7 0.294004 0.951313 0.146691
O O8 0.057371 0.918582 0.206261
O O9 0.010277 0.209551 0.323228
O O10 0.000000 0.086538 0.500000
O O11 0.000000 0.500000 0.750629
O O12 0.939910 0.654342 0.779130
O O13 0.000000 0.572833 0.000000
#
# Coordination Sequence:
#
# PCOD9325257 Si02
#       6
#     4   8   8   8   8   8
#     4  12  20  32  54  92 116 152 196 244 312 366
#     4   9  18  35  54  86 124 152 182 252 327 364
#     4  11  21  34  57  85 117 156 204 243 297 376
#     4   9  19  33  58  88 121 150 185 254 332 362
#     4  11  25  41  56  81 124 170 204 245 293 361
#     4  11  21  36  55  86 123 153 193 251 304 364
#
# _framework density 25.768689999999999
#
# number of rings (size 3 to 8) (size 9 to 14) (size 15 to 20)
#    0.000    1.636    5.455    1.091    5.091    0.000 
#    0.000    1.818    0.000    1.091    0.000    6.364 
#    0.000    0.000    0.000    0.000    0.000    0.000 
#
# Total GULP energy -122798.974938 kJ/mol
# GULP energy per Si atom -5581.771588 kJ/mol
# Density = 2.571004 g / cm^3
# Si number density = 25.768690 Si / 1000 Ang^3
#
#
#
# Elastic Constant Matrix: (Units=GPa)
#
#
# Indices 1 2 3 4 5 6 
#
# 1 171.2123 32.1238 41.4440 0.0000 0.0000 0.0000
# 2 32.1238 76.4374 17.0726 0.0000 0.0000 0.0000
# 3 41.4440 17.0726 89.3740 0.0000 0.0000 0.0000
# 4 0.0000 0.0000 0.0000 4.8946 0.0000 0.0000
# 5 0.0000 0.0000 0.0000 0.0000 37.9163 0.0000
# 6 0.0000 0.0000 0.0000 0.0000 0.0000 -169.8901
#
#
#
# Elastic Compliance Matrix: (Units=1/GPa)
#
#
# Indices 1 2 3 4 5 6 
#
# 1 0.006945 -0.002297 -0.002782 0.000000 0.000000 0.000000
# 2 -0.002297 0.014426 -0.001690 0.000000 0.000000 0.000000
# 3 -0.002782 -0.001690 0.012802 0.000000 0.000000 0.000000
# 4 0.000000 0.000000 0.000000 0.204307 0.000000 0.000000
# 5 0.000000 0.000000 0.000000 0.000000 0.026374 0.000000
# 6 0.000000 0.000000 0.000000 0.000000 0.000000 -0.005886
#
#
# Mechanical properties :
#
#
# Convention : Reuss Voigt Hill
#
# Bulk Modulus (GPa) = 48.46452 57.58938 53.02695
# Shear Modulus (GPa) = 17.89650 -8.99029 4.45310
#
# Velocity S-wave (km/s) = 2.63821 -1.86987 1.31600
# Velocity P-wave (km/s) = 5.30363 4.21132 4.78872
#
# Compressibility (1/GPa) = 0.02063365
#
# Stress axis : x y z
#
# Youngs Moduli (GPa) = 143.98636 69.32082 78.11445
#
# Poissons Ratio (x) = 0.15926 0.21729
# Poissons Ratio (y) = 0.33080 0.13204
# Poissons Ratio (z) = 0.40052 0.11717
#
# Static dielectric constant tensor:
#      x y z
#    x 2.101670 0.000000 0.000000 
#    y 0.000000 2.076190 0.000000 
#    z 0.000000 0.000000 2.255640 
# 
# From -- ./inp_files/13263.got.cif
#   From: 2010.05.17/outbox.cif.g08.bks.cpg/sg21_7_cif.got.tgz:13263.got - 2010.06.03 23:14:55.
