data_PCOD9325642
_publ_section_title
;
Structure prediction by ZEFSAII (Michael W. Deem and Ramdas Pophale) SiO2 
 PCOD9325642
Probable space group: C 2 2 2
;
_chemical_formula_sum "Si O2"
_cell_formula_units_Z 40
_cell_length_a 7.176409
_cell_length_b 22.269555
_cell_length_c 9.653536
_cell_angle_alpha 90.000000
_cell_angle_beta 90.000000
_cell_angle_gamma 90.000000
_cell_volume 1542.784054
_symmetry_space_group_name_H-M "C 2 2 2"
_symmetry_group_IT_number 21
_symmetry_cell_setting 'orthorhombic'
loop_
_space_group_symop_operation_xyz
x,y,z
-x,-y,z
x,-y,-z
-x,y,-z
1/2+x,1/2+y,z
1/2-x,1/2-y,z
1/2+x,1/2-y,-z
1/2-x,1/2+y,-z
loop_
_atom_site_type_symbol
_atom_site_label
_atom_site_fract_x
_atom_site_fract_y
_atom_site_fract_z
Si Si1 0.283067 0.986303 0.155949
Si Si2 0.524007 0.762096 0.347867
Si Si3 0.373673 0.693586 0.885638
Si Si4 0.755209 0.621762 0.636410
Si Si5 0.320732 0.401045 0.326749
O O1 0.288002 0.922334 0.233526
O O2 0.500000 0.000000 0.148660
O O3 0.188781 0.033409 0.261461
O O4 0.210705 0.000000 0.000000
O O5 0.500000 0.735708 0.500000
O O6 0.250000 0.750000 0.938429
O O7 0.472910 0.725749 0.212177
O O8 0.392551 0.820874 0.351462
O O9 0.250000 0.750000 0.663566
O O10 0.500000 0.661667 0.000000
O O11 0.256867 0.644950 0.795948
O O12 0.783367 0.601086 0.474486
O O13 0.529997 0.621066 0.645513
#
# Coordination Sequence:
#
# PCOD9325642 Si02
#       5
#     8   8   8   8   8
#     4  11  28  49  78 119 163 212 274 343 419 508
#     4  11  27  48  77 114 158 209 279 342 419 502
#     4  11  28  46  70 109 156 204 270 331 410 496
#     4  11  26  49  82 113 159 213 273 349 415 495
#     4  11  27  50  76 119 156 214 278 337 414 506
#
# _framework density 25.927153000000001
#
# number of rings (size 3 to 8) (size 9 to 14) (size 15 to 20)
#    0.000    1.000    0.000    3.600   19.600    3.200 
#    0.000    0.000    0.000    0.000    0.000    0.000 
#    0.000    0.000    0.000    0.000    0.000    0.000 
#
# Total GULP energy -111419.786152 kJ/mol
# GULP energy per Si atom -5570.989308 kJ/mol
# Density = 2.586814 g / cm^3
# Si number density = 25.927153 Si / 1000 Ang^3
#
#
#
# Elastic Constant Matrix: (Units=GPa)
#
#
# Indices 1 2 3 4 5 6 
#
# 1 130.9956 29.8621 40.4164 0.0000 0.0000 0.0000
# 2 29.8621 92.9640 49.9851 0.0000 0.0000 0.0000
# 3 40.4164 49.9851 175.2274 0.0000 0.0000 0.0000
# 4 0.0000 0.0000 0.0000 58.9114 0.0000 0.0000
# 5 0.0000 0.0000 0.0000 0.0000 24.4139 0.0000
# 6 0.0000 0.0000 0.0000 0.0000 0.0000 43.0129
#
#
#
# Elastic Compliance Matrix: (Units=1/GPa)
#
#
# Indices 1 2 3 4 5 6 
#
# 1 0.008518 -0.001984 -0.001399 0.000000 0.000000 0.000000
# 2 -0.001984 0.013168 -0.003299 0.000000 0.000000 0.000000
# 3 -0.001399 -0.003299 0.006970 0.000000 0.000000 0.000000
# 4 0.000000 0.000000 0.000000 0.016975 0.000000 0.000000
# 5 0.000000 0.000000 0.000000 0.000000 0.040960 0.000000
# 6 0.000000 0.000000 0.000000 0.000000 0.000000 0.023249
#
#
# Mechanical properties :
#
#
# Convention : Reuss Voigt Hill
#
# Bulk Modulus (GPa) = 65.38816 71.07937 68.23376
# Shear Modulus (GPa) = 38.97117 43.86252 41.41685
#
# Velocity S-wave (km/s) = 3.88119 4.11756 4.00112
# Velocity P-wave (km/s) = 6.73495 7.07674 6.90796
#
# Compressibility (1/GPa) = 0.01529329
#
# Stress axis : x y z
#
# Youngs Moduli (GPa) = 117.40312 75.94298 143.46329
#
# Poissons Ratio (x) = 0.15067 0.20065
# Poissons Ratio (y) = 0.23293 0.47323
# Poissons Ratio (z) = 0.16421 0.25051
#
# Static dielectric constant tensor:
#      x y z
#    x 2.183380 0.000000 0.000000 
#    y 0.000000 2.253340 0.000000 
#    z 0.000000 0.000000 2.300660 
# 
# From -- ./inp_files/10948.got.cif
#   From: 2010.05.17/outbox.cif.g08.bks.cpg/sg21_6_cif.got.tgz:10948.got - 2010.06.03 23:14:55.
