data_PCOD9325040
_publ_section_title
;
Structure prediction by ZEFSAII (Michael W. Deem and Ramdas Pophale) SiO2 
 PCOD9325040
Probable space group: C 2 2 2
;
_chemical_formula_sum "Si O2"
_cell_formula_units_Z 40
_cell_length_a 8.436821
_cell_length_b 17.190725
_cell_length_c 12.011839
_cell_angle_alpha 90.000000
_cell_angle_beta 90.000000
_cell_angle_gamma 90.000000
_cell_volume 1742.137906
_symmetry_space_group_name_H-M "C 2 2 2"
_symmetry_group_IT_number 21
_symmetry_cell_setting 'orthorhombic'
loop_
_space_group_symop_operation_xyz
x,y,z
-x,-y,z
x,-y,-z
-x,y,-z
1/2+x,1/2+y,z
1/2-x,1/2-y,z
1/2+x,1/2-y,-z
1/2-x,1/2+y,-z
loop_
_atom_site_type_symbol
_atom_site_label
_atom_site_fract_x
_atom_site_fract_y
_atom_site_fract_z
Si Si1 0.372389 0.053470 0.808331
Si Si2 0.807788 0.661467 0.999083
Si Si3 0.551145 0.662360 0.623223
Si Si4 0.379498 0.436482 0.186712
Si Si5 0.067402 0.658492 0.381704
O O1 0.279017 0.112394 0.887253
O O2 0.471172 0.102199 0.719290
O O3 0.500000 0.000000 0.872322
O O4 0.247992 0.993954 0.756130
O O5 0.750000 0.750000 0.992716
O O6 0.713890 0.617127 0.097770
O O7 0.000000 0.662751 0.000000
O O8 0.500000 0.636406 0.500000
O O9 0.468369 0.614518 0.720909
O O10 0.741560 0.659367 0.622383
O O11 0.506839 0.753667 0.636258
O O12 0.500000 0.500000 0.134298
O O13 0.000000 0.631965 0.500000
#
# Coordination Sequence:
#
# PCOD9325040 Si02
#       5
#     8   8   8   8   8
#     4  12  27  49  74 110 159 198 253 325 393 463
#     4  12  31  51  78 112 154 210 264 320 393 481
#     4  10  24  47  76 111 148 201 260 314 376 464
#     4  12  27  50  78 113 155 202 255 329 396 463
#     4  10  24  47  76 108 152 202 257 311 378 464
#
# _framework density 22.960294999999999
#
# number of rings (size 3 to 8) (size 9 to 14) (size 15 to 20)
#    0.000    0.800    4.000    0.600   11.200    1.600 
#    3.600    0.000    0.000    0.000    0.000    0.000 
#    0.000    0.000    0.000    0.000    0.000    0.000 
#
# Total GULP energy -111812.157734 kJ/mol
# GULP energy per Si atom -5590.607887 kJ/mol
# Density = 2.290804 g / cm^3
# Si number density = 22.960295 Si / 1000 Ang^3
#
#
#
# Elastic Constant Matrix: (Units=GPa)
#
#
# Indices 1 2 3 4 5 6 
#
# 1 99.8269 60.9300 62.1174 0.0000 0.0000 0.0000
# 2 60.9300 153.3185 106.4460 0.0000 0.0000 0.0000
# 3 62.1174 106.4460 177.2847 0.0000 0.0000 0.0000
# 4 0.0000 0.0000 0.0000 88.9583 0.0000 0.0000
# 5 0.0000 0.0000 0.0000 0.0000 47.1160 0.0000
# 6 0.0000 0.0000 0.0000 0.0000 0.0000 48.1405
#
#
#
# Elastic Compliance Matrix: (Units=1/GPa)
#
#
# Indices 1 2 3 4 5 6 
#
# 1 0.013925 -0.003681 -0.002669 0.000000 0.000000 0.000000
# 2 -0.003681 0.012158 -0.006010 0.000000 0.000000 0.000000
# 3 -0.002669 -0.006010 0.010184 0.000000 0.000000 0.000000
# 4 0.000000 0.000000 0.000000 0.011241 0.000000 0.000000
# 5 0.000000 0.000000 0.000000 0.000000 0.021224 0.000000
# 6 0.000000 0.000000 0.000000 0.000000 0.000000 0.020773
#
#
# Mechanical properties :
#
#
# Convention : Reuss Voigt Hill
#
# Bulk Modulus (GPa) = 86.60116 98.82409 92.71263
# Shear Modulus (GPa) = 42.34632 50.23874 46.29253
#
# Velocity S-wave (km/s) = 4.29922 4.68276 4.49508
# Velocity P-wave (km/s) = 7.90216 8.50719 8.21025
#
# Compressibility (1/GPa) = 0.01154719
#
# Stress axis : x y z
#
# Youngs Moduli (GPa) = 71.81491 82.25083 98.18875
#
# Poissons Ratio (x) = 0.30275 0.26206
# Poissons Ratio (y) = 0.26434 0.59014
# Poissons Ratio (z) = 0.19167 0.49435
#
# Static dielectric constant tensor:
#      x y z
#    x 1.924150 0.000000 0.000000 
#    y 0.000000 1.844700 0.000000 
#    z 0.000000 0.000000 1.839890 
# 
# From -- ./inp_files/22268.got.cif
#   From: 2010.05.17/outbox.cif.g08.bks.cpg/sg21_12_cif.got.tgz:22268.got - 2010.06.03 23:14:55.
