data_PCOD9325531
_publ_section_title
;
Structure prediction by ZEFSAII (Michael W. Deem and Ramdas Pophale) SiO2 
 PCOD9325531
Probable space group: C 2 2 2
;
_chemical_formula_sum "Si O2"
_cell_formula_units_Z 32
_cell_length_a 4.921236
_cell_length_b 35.288406
_cell_length_c 8.007948
_cell_angle_alpha 90.000000
_cell_angle_beta 90.000000
_cell_angle_gamma 90.000000
_cell_volume 1390.680862
_symmetry_space_group_name_H-M "C 2 2 2"
_symmetry_group_IT_number 21
_symmetry_cell_setting 'orthorhombic'
loop_
_space_group_symop_operation_xyz
x,y,z
-x,-y,z
x,-y,-z
-x,y,-z
1/2+x,1/2+y,z
1/2-x,1/2-y,z
1/2+x,1/2-y,-z
1/2-x,1/2+y,-z
loop_
_atom_site_type_symbol
_atom_site_label
_atom_site_fract_x
_atom_site_fract_y
_atom_site_fract_z
Si Si1 0.623025 0.711028 0.682484
Si Si2 0.399710 0.168611 0.184943
Si Si3 0.541555 0.087356 0.304597
Si Si4 0.449235 0.542498 0.801923
O O1 0.500000 0.719240 0.500000
O O2 0.750000 0.750000 0.753284
O O3 0.385952 0.689100 0.781324
O O4 0.880800 0.683778 0.682627
O O5 0.423497 0.123565 0.205935
O O6 0.500000 0.178766 0.000000
O O7 0.500000 0.094235 0.500000
O O8 0.356885 0.052909 0.242419
O O9 0.850221 0.074541 0.272586
O O10 0.500000 0.500000 0.738637
O O11 0.500000 0.542946 0.000000
#
# Coordination Sequence:
#
# PCOD9325531 Si02
#       4
#     8   8   8   8
#     4  12  25  46  71  99 134 174 218 270 335 401
#     4  12  26  45  70  99 135 175 222 276 331 396
#     4  12  25  43  68  99 135 176 225 277 331 394
#     4  11  24  43  67  97 136 179 223 274 334 396
#
# _framework density 23.010314000000001
#
# number of rings (size 3 to 8) (size 9 to 14) (size 15 to 20)
#    0.000    0.250    0.000   10.500    0.000    7.000 
#    0.000    1.250    0.000    0.000    0.000    0.000 
#    0.000    0.000    0.000    0.000    0.000    0.000 
#
# Total GULP energy -89557.661047 kJ/mol
# GULP energy per Si atom -5597.353815 kJ/mol
# Density = 2.295794 g / cm^3
# Si number density = 23.010314 Si / 1000 Ang^3
#
#
#
# Elastic Constant Matrix: (Units=GPa)
#
#
# Indices 1 2 3 4 5 6 
#
# 1 97.2024 15.0397 5.5542 0.0000 0.0000 0.0000
# 2 15.0397 117.6514 -0.6726 0.0000 0.0000 0.0000
# 3 5.5542 -0.6726 84.2520 0.0000 0.0000 0.0000
# 4 0.0000 0.0000 0.0000 -11.8203 0.0000 0.0000
# 5 0.0000 0.0000 0.0000 0.0000 18.6639 0.0000
# 6 0.0000 0.0000 0.0000 0.0000 0.0000 58.4872
#
#
#
# Elastic Compliance Matrix: (Units=1/GPa)
#
#
# Indices 1 2 3 4 5 6 
#
# 1 0.010537 -0.001351 -0.000705 0.000000 0.000000 0.000000
# 2 -0.001351 0.008673 0.000158 0.000000 0.000000 0.000000
# 3 -0.000705 0.000158 0.011917 0.000000 0.000000 0.000000
# 4 0.000000 0.000000 0.000000 -0.084600 0.000000 0.000000
# 5 0.000000 0.000000 0.000000 0.000000 0.053579 0.000000
# 6 0.000000 0.000000 0.000000 0.000000 0.000000 0.017098
#
#
# Mechanical properties :
#
#
# Convention : Reuss Voigt Hill
#
# Bulk Modulus (GPa) = 36.58840 37.66093 37.12467
# Shear Modulus (GPa) = 166.05426 31.67847 98.86636
#
# Velocity S-wave (km/s) = 8.50422 3.71443 6.56196
# Velocity P-wave (km/s) = 10.60021 5.89902 8.57796
#
# Compressibility (1/GPa) = 0.02733107
#
# Stress axis : x y z
#
# Youngs Moduli (GPa) = 94.90223 115.29637 83.91426
#
# Poissons Ratio (x) = 0.15577 0.05920
# Poissons Ratio (y) = 0.12822 -0.01328
# Poissons Ratio (z) = 0.06695 -0.01825
#
# Static dielectric constant tensor:
#      x y z
#    x 1.795860 0.000000 0.000000 
#    y 0.000000 1.954110 0.000000 
#    z 0.000000 0.000000 1.858830 
# 
# From -- ./inp_files/9162.got.cif
#   From: 2010.05.17/outbox.cif.g08.bks.cpg/sg21_5_cif.got.tgz:9162.got - 2010.06.03 23:14:55.
