data_PCOD9325954
_publ_section_title
;
Structure prediction by ZEFSAII (Michael W. Deem and Ramdas Pophale) SiO2 
 PCOD9325954
Probable space group: F 2 2 2
;
_chemical_formula_sum "Si O2"
_cell_formula_units_Z 88
_cell_length_a 5.120815
_cell_length_b 33.750795
_cell_length_c 29.709694
_cell_angle_alpha 90.000000
_cell_angle_beta 90.000000
_cell_angle_gamma 90.000000
_cell_volume 5134.773275
_symmetry_space_group_name_H-M "F 2 2 2"
_symmetry_group_IT_number 22
_symmetry_cell_setting 'orthorhombic'
loop_
_space_group_symop_operation_xyz
x,y,z
-x,-y,z
x,-y,-z
-x,y,-z
x,1/2+y,1/2+z
-x,1/2-y,1/2+z
x,1/2-y,1/2-z
-x,1/2+y,1/2-z
1/2+x,y,1/2+z
1/2-x,-y,1/2+z
1/2+x,-y,1/2-z
1/2-x,y,1/2-z
1/2+x,1/2+y,z
1/2-x,1/2-y,z
1/2+x,1/2-y,-z
1/2-x,1/2+y,-z
loop_
_atom_site_type_symbol
_atom_site_label
_atom_site_fract_x
_atom_site_fract_y
_atom_site_fract_z
Si Si1 0.436628 0.620885 0.452381
Si Si2 0.500000 0.000000 0.281570
Si Si3 0.437353 0.357600 0.098078
Si Si4 0.499463 0.722087 0.051807
Si Si5 0.931031 0.455889 0.912459
Si Si6 0.566446 0.065833 0.356879
O O1 0.500000 0.640026 0.500000
O O2 0.633123 0.638941 0.415163
O O3 0.525940 0.575489 0.451515
O O4 0.135703 0.623740 0.439066
O O5 0.475787 0.960581 0.312586
O O6 0.250000 0.003292 0.250000
O O7 0.502368 0.311532 0.090343
O O8 0.502242 0.386690 0.140355
O O9 0.750000 0.750000 0.056027
O O10 0.250000 0.750000 0.055603
O O11 0.500000 0.705453 0.000000
O O12 0.140285 0.442269 0.874174
O O13 0.000000 0.500000 0.925322
O O14 0.642312 0.451968 0.892428
#
# Coordination Sequence:
#
# PCOD9325954 Si02
#       6
#    16   8  16  16  16  16
#     4  10  19  28  43  65  88 124 170 206 235 271
#     4  12  22  34  56  80 101 122 155 200 248 296
#     4  10  20  33  49  65  95 135 163 199 250 292
#     4  10  19  30  47  71  98 126 164 212 249 279
#     4  10  17  30  47  61  90 128 160 198 233 275
#     4  10  20  34  50  70  96 128 161 191 242 301
#
# _framework density 17.138048999999999
#
# number of rings (size 3 to 8) (size 9 to 14) (size 15 to 20)
#    0.000    1.818    1.818    3.818    0.000    1.818 
#    0.000    0.000    0.000    6.545    0.000    0.000 
#    0.000    4.364    0.000    0.000    0.000    0.000 
#
# Total GULP energy -122489.115631 kJ/mol
# GULP energy per Si atom -5567.687074 kJ/mol
# Density = 1.709904 g / cm^3
# Si number density = 17.138049 Si / 1000 Ang^3
#
#
#
# Elastic Constant Matrix: (Units=GPa)
#
#
# Indices 1 2 3 4 5 6 
#
# 1 85.1216 12.6611 14.5869 0.0000 0.0000 0.0000
# 2 12.6611 105.9353 24.8068 0.0000 0.0000 0.0000
# 3 14.5869 24.8068 63.2784 0.0000 0.0000 0.0000
# 4 0.0000 0.0000 0.0000 17.7382 0.0000 0.0000
# 5 0.0000 0.0000 0.0000 0.0000 14.0259 0.0000
# 6 0.0000 0.0000 0.0000 0.0000 0.0000 23.0051
#
#
#
# Elastic Compliance Matrix: (Units=1/GPa)
#
#
# Indices 1 2 3 4 5 6 
#
# 1 0.012306 -0.000888 -0.002489 0.000000 0.000000 0.000000
# 2 -0.000888 0.010458 -0.003895 0.000000 0.000000 0.000000
# 3 -0.002489 -0.003895 0.017904 0.000000 0.000000 0.000000
# 4 0.000000 0.000000 0.000000 0.056375 0.000000 0.000000
# 5 0.000000 0.000000 0.000000 0.000000 0.071297 0.000000
# 6 0.000000 0.000000 0.000000 0.000000 0.000000 0.043469
#
#
# Mechanical properties :
#
#
# Convention : Reuss Voigt Hill
#
# Bulk Modulus (GPa) = 38.27817 39.82721 39.05269
# Shear Modulus (GPa) = 21.27107 24.43921 22.85514
#
# Velocity S-wave (km/s) = 3.52683 3.78037 3.65580
# Velocity P-wave (km/s) = 6.24247 6.50726 6.37624
#
# Compressibility (1/GPa) = 0.02612455
#
# Stress axis : x y z
#
# Youngs Moduli (GPa) = 81.25806 95.62081 55.85382
#
# Poissons Ratio (x) = 0.08492 0.13901
# Poissons Ratio (y) = 0.07216 0.21756
# Poissons Ratio (z) = 0.20223 0.37245
#
# Static dielectric constant tensor:
#      x y z
#    x 1.582290 0.000000 0.000000 
#    y 0.000000 1.647910 0.000000 
#    z 0.000000 0.000000 1.560510 
# 
# From -- ./inp_files/6555.got.cif
#   From: 2010.05.17/outbox.cif.g08.bks.cpg/sg22_4_cif.got.tgz:6555.got - 2010.06.03 23:40:54.
