data_PCOD9325991
_publ_section_title
;
Structure prediction by ZEFSAII (Michael W. Deem and Ramdas Pophale) SiO2 
 PCOD9325991
Probable space group: F 2 2 2
;
_chemical_formula_sum "Si O2"
_cell_formula_units_Z 80
_cell_length_a 12.973998
_cell_length_b 12.060034
_cell_length_c 26.505698
_cell_angle_alpha 90.000000
_cell_angle_beta 90.000000
_cell_angle_gamma 90.000000
_cell_volume 4147.263259
_symmetry_space_group_name_H-M "F 2 2 2"
_symmetry_group_IT_number 22
_symmetry_cell_setting 'orthorhombic'
loop_
_space_group_symop_operation_xyz
x,y,z
-x,-y,z
x,-y,-z
-x,y,-z
x,1/2+y,1/2+z
-x,1/2-y,1/2+z
x,1/2-y,1/2-z
-x,1/2+y,1/2-z
1/2+x,y,1/2+z
1/2-x,-y,1/2+z
1/2+x,-y,1/2-z
1/2-x,y,1/2-z
1/2+x,1/2+y,z
1/2-x,1/2-y,z
1/2+x,1/2-y,-z
1/2-x,1/2+y,-z
loop_
_atom_site_type_symbol
_atom_site_label
_atom_site_fract_x
_atom_site_fract_y
_atom_site_fract_z
Si Si1 0.789074 0.500000 0.000000
Si Si2 0.393792 0.658821 0.674446
Si Si3 0.393137 0.943634 0.567175
Si Si4 0.635958 0.798004 0.060640
Si Si5 0.000000 0.000000 0.256920
Si Si6 0.337774 0.588176 0.816624
O O1 0.705904 0.491568 0.045206
O O2 0.853917 0.607240 0.018110
O O3 0.408929 0.658283 0.613627
O O4 0.485496 0.603461 0.705450
O O5 0.375316 0.785076 0.691521
O O6 0.286320 0.593708 0.685818
O O7 0.408888 0.819703 0.544803
O O8 0.371974 0.936835 0.626565
O O9 0.500000 0.000000 0.557731
O O10 0.750000 0.750000 0.074843
O O11 0.099833 0.008242 0.220747
#
# Coordination Sequence:
#
# PCOD9325991 Si02
#       6
#     8  16  16  16   8  16
#     4  10  17  32  64  85 114 154 200 247 302 363
#     4  10  19  38  59  83 116 157 197 244 297 358
#     4  10  18  33  62  92 119 152 204 246 298 366
#     4   9  17  35  63  85 114 157 199 243 302 361
#     4  12  22  28  60  92 112 150 208 244 290 344
#     4  10  19  38  60  86 114 157 201 245 291 363
#
# _framework density 19.289829999999998
#
# number of rings (size 3 to 8) (size 9 to 14) (size 15 to 20)
#    0.000    2.000    7.000    1.500    0.000    1.600 
#    0.000    0.000   39.600    9.600    0.000    0.000 
#    0.000    0.000    0.000    0.000    0.000    0.000 
#
# Total GULP energy -111340.654589 kJ/mol
# GULP energy per Si atom -5567.032729 kJ/mol
# Density = 1.924593 g / cm^3
# Si number density = 19.289830 Si / 1000 Ang^3
#
#
#
# Elastic Constant Matrix: (Units=GPa)
#
#
# Indices 1 2 3 4 5 6 
#
# 1 59.4840 50.0667 24.8340 0.0000 0.0000 0.0000
# 2 50.0667 90.7432 56.3149 0.0000 0.0000 0.0000
# 3 24.8340 56.3149 114.4505 0.0000 0.0000 0.0000
# 4 0.0000 0.0000 0.0000 29.8819 0.0000 0.0000
# 5 0.0000 0.0000 0.0000 0.0000 22.8833 0.0000
# 6 0.0000 0.0000 0.0000 0.0000 0.0000 39.5131
#
#
#
# Elastic Compliance Matrix: (Units=1/GPa)
#
#
# Indices 1 2 3 4 5 6 
#
# 1 0.031877 -0.019140 0.002501 0.000000 0.000000 0.000000
# 2 -0.019140 0.027356 -0.009308 0.000000 0.000000 0.000000
# 3 0.002501 -0.009308 0.012775 0.000000 0.000000 0.000000
# 4 0.000000 0.000000 0.000000 0.033465 0.000000 0.000000
# 5 0.000000 0.000000 0.000000 0.000000 0.043700 0.000000
# 6 0.000000 0.000000 0.000000 0.000000 0.000000 0.025308
#
#
# Mechanical properties :
#
#
# Convention : Reuss Voigt Hill
#
# Bulk Modulus (GPa) = 49.71462 58.56765 54.14114
# Shear Modulus (GPa) = 21.45199 27.35314 24.40256
#
# Velocity S-wave (km/s) = 3.33842 3.76973 3.56061
# Velocity P-wave (km/s) = 6.37875 7.02678 6.71059
#
# Compressibility (1/GPa) = 0.02011481
#
# Stress axis : x y z
#
# Youngs Moduli (GPa) = 31.37095 36.55441 78.28064
#
# Poissons Ratio (x) = 0.69964 -0.19577
# Poissons Ratio (y) = 0.60043 0.72861
# Poissons Ratio (z) = -0.07845 0.34024
#
# Static dielectric constant tensor:
#      x y z
#    x 1.747610 0.000000 0.000000 
#    y 0.000000 1.723630 0.000000 
#    z 0.000000 0.000000 1.745250 
# 
# From -- ./inp_files/53113.got.cif
#   From: 2010.05.17/outbox.cif.g08.bks.cpg/sg22_27_cif.got.tgz:53113.got - 2010.06.03 23:40:54.
