data_PCOD9325292
_publ_section_title
;
Structure prediction by ZEFSAII (Michael W. Deem and Ramdas Pophale) SiO2 
 PCOD9325292
Probable space group: C 2 2 2
;
_chemical_formula_sum "Si O2"
_cell_formula_units_Z 30
_cell_length_a 16.930691
_cell_length_b 6.948082
_cell_length_c 10.363086
_cell_angle_alpha 90.000000
_cell_angle_beta 90.000000
_cell_angle_gamma 90.000000
_cell_volume 1219.070217
_symmetry_space_group_name_H-M "C 2 2 2"
_symmetry_group_IT_number 21
_symmetry_cell_setting 'orthorhombic'
loop_
_space_group_symop_operation_xyz
x,y,z
-x,-y,z
x,-y,-z
-x,y,-z
1/2+x,1/2+y,z
1/2-x,1/2-y,z
1/2+x,1/2-y,-z
1/2-x,1/2+y,-z
loop_
_atom_site_type_symbol
_atom_site_label
_atom_site_fract_x
_atom_site_fract_y
_atom_site_fract_z
Si Si1 0.264642 0.000000 0.000000
Si Si2 0.486361 0.733489 0.351605
Si Si3 0.500000 0.500000 0.000000
Si Si4 0.178717 0.130323 0.753991
Si Si5 0.381922 0.247885 0.178426
O O1 0.322692 0.111924 0.099420
O O2 0.203372 0.888574 0.094662
O O3 0.500000 0.500000 0.345511
O O4 0.500000 0.783265 0.500000
O O5 0.400722 0.739857 0.284169
O O6 0.554922 0.842555 0.274242
O O7 0.441954 0.365920 0.084351
O O8 0.250000 0.250000 0.692204
O O9 0.165674 0.902766 0.732861
#
# Coordination Sequence:
#
# PCOD9325292 Si02
#       5
#     4   8   2   8   8
#     4  12  25  37  61 107 142 172 228 296 370 402
#     4   9  20  42  69  94 130 190 239 268 340 422
#     4  12  18  38  62  94 128 182 234 290 338 418
#     4  11  21  40  64  98 135 175 222 295 347 403
#     4  11  23  40  64  95 141 182 232 284 348 425
#
# _framework density 24.608917999999999
#
# number of rings (size 3 to 8) (size 9 to 14) (size 15 to 20)
#    0.000    1.333    4.000    4.800    0.000    0.533 
#    0.000   10.667    0.000    1.600    0.000    1.867 
#    0.000    0.000    0.000    0.000    0.000    0.000 
#
# Total GULP energy -83602.383455 kJ/mol
# GULP energy per Si atom -5573.492230 kJ/mol
# Density = 2.455291 g / cm^3
# Si number density = 24.608918 Si / 1000 Ang^3
#
#
#
# Elastic Constant Matrix: (Units=GPa)
#
#
# Indices 1 2 3 4 5 6 
#
# 1 237.0520 72.6166 103.1598 0.0000 0.0000 0.0000
# 2 72.6166 102.0572 31.6323 0.0000 0.0000 0.0000
# 3 103.1598 31.6323 136.3155 0.0000 0.0000 0.0000
# 4 0.0000 0.0000 0.0000 4.2089 0.0000 0.0000
# 5 0.0000 0.0000 0.0000 0.0000 14.4983 0.0000
# 6 0.0000 0.0000 0.0000 0.0000 0.0000 43.6418
#
#
#
# Elastic Compliance Matrix: (Units=1/GPa)
#
#
# Indices 1 2 3 4 5 6 
#
# 1 0.007465 -0.003836 -0.004759 0.000000 0.000000 0.000000
# 2 -0.003836 0.012529 -0.000004 0.000000 0.000000 0.000000
# 3 -0.004759 -0.000004 0.010938 0.000000 0.000000 0.000000
# 4 0.000000 0.000000 0.000000 0.237594 0.000000 0.000000
# 5 0.000000 0.000000 0.000000 0.000000 0.068973 0.000000
# 6 0.000000 0.000000 0.000000 0.000000 0.000000 0.022914
#
#
# Mechanical properties :
#
#
# Convention : Reuss Voigt Hill
#
# Bulk Modulus (GPa) = 72.81456 98.91579 85.86517
# Shear Modulus (GPa) = 13.08250 30.33754 21.71002
#
# Velocity S-wave (km/s) = 2.30818 3.51491 2.97341
# Velocity P-wave (km/s) = 6.06272 7.53360 6.83783
#
# Compressibility (1/GPa) = 0.01373352
#
# Stress axis : x y z
#
# Youngs Moduli (GPa) = 133.96619 79.81242 91.42259
#
# Poissons Ratio (x) = 0.30618 0.43506
# Poissons Ratio (y) = 0.51393 0.00039
# Poissons Ratio (z) = 0.63751 0.00034
#
# Static dielectric constant tensor:
#      x y z
#    x 2.006810 0.000000 0.000000 
#    y 0.000000 2.297310 0.000000 
#    z 0.000000 0.000000 2.003810 
# 
# From -- ./inp_files/24728.got.cif
#   From: 2010.05.17/outbox.cif.g08.bks.cpg/sg21_13_cif.got.tgz:24728.got - 2010.06.03 23:14:55.
