data_PCOD9325155
_publ_section_title
;
Structure prediction by ZEFSAII (Michael W. Deem and Ramdas Pophale) SiO2 
 PCOD9325155
Probable space group: C 2 2 2
;
_chemical_formula_sum "Si O2"
_cell_formula_units_Z 36
_cell_length_a 11.773089
_cell_length_b 22.629308
_cell_length_c 6.066731
_cell_angle_alpha 90.000000
_cell_angle_beta 90.000000
_cell_angle_gamma 90.000000
_cell_volume 1616.279406
_symmetry_space_group_name_H-M "C 2 2 2"
_symmetry_group_IT_number 21
_symmetry_cell_setting 'orthorhombic'
loop_
_space_group_symop_operation_xyz
x,y,z
-x,-y,z
x,-y,-z
-x,y,-z
1/2+x,1/2+y,z
1/2-x,1/2-y,z
1/2+x,1/2-y,-z
1/2-x,1/2+y,-z
loop_
_atom_site_type_symbol
_atom_site_label
_atom_site_fract_x
_atom_site_fract_y
_atom_site_fract_z
Si Si1 0.309978 0.949665 0.626506
Si Si2 0.750000 0.750000 0.378591
Si Si3 0.628105 0.842990 0.070907
Si Si4 0.500000 0.605237 0.000000
Si Si5 0.816930 0.145642 0.319718
Si Si6 0.671991 0.500000 0.000000
O O1 0.371602 0.902781 0.783159
O O2 0.224096 0.907409 0.483372
O O3 0.245178 0.996138 0.783926
O O4 0.380160 0.000000 0.500000
O O5 0.671169 0.789735 0.223565
O O6 0.815707 0.795479 0.535166
O O7 0.500000 0.831517 0.000000
O O8 0.718900 0.849728 0.870349
O O9 0.440363 0.639498 0.200984
O O10 0.599658 0.558550 0.042181
#
# Coordination Sequence:
#
# PCOD9325155 Si02
#       6
#     8   4   8   4   8   4
#     4  11  21  43  71 107 151 191 244 291 366 449
#     4  10  26  50  74 108 140 194 256 312 368 440
#     4  11  25  51  72 102 149 191 246 310 362 440
#     4  11  22  42  74 102 152 188 234 303 370 440
#     4  11  24  48  70 110 146 190 248 300 377 433
#     4  11  22  42  67 112 155 192 230 299 362 451
#
# _framework density 22.273378000000001
#
# number of rings (size 3 to 8) (size 9 to 14) (size 15 to 20)
#    0.000    1.111    4.444    0.667    0.000    4.444 
#   12.000    8.333    0.000    0.000    0.000    0.000 
#    0.000    0.000    0.000    0.000    0.000    0.000 
#
# Total GULP energy -100287.139309 kJ/mol
# GULP energy per Si atom -5571.507739 kJ/mol
# Density = 2.222268 g / cm^3
# Si number density = 22.273378 Si / 1000 Ang^3
#
#
#
# Elastic Constant Matrix: (Units=GPa)
#
#
# Indices 1 2 3 4 5 6 
#
# 1 121.4477 49.6187 73.7477 0.0000 0.0000 0.0000
# 2 49.6187 118.4678 79.8571 0.0000 0.0000 0.0000
# 3 73.7477 79.8571 140.1940 0.0000 0.0000 0.0000
# 4 0.0000 0.0000 0.0000 27.3269 0.0000 0.0000
# 5 0.0000 0.0000 0.0000 0.0000 24.6438 0.0000
# 6 0.0000 0.0000 0.0000 0.0000 0.0000 24.0266
#
#
#
# Elastic Compliance Matrix: (Units=1/GPa)
#
#
# Indices 1 2 3 4 5 6 
#
# 1 0.012216 -0.001274 -0.005700 0.000000 0.000000 0.000000
# 2 -0.001274 0.013835 -0.007211 0.000000 0.000000 0.000000
# 3 -0.005700 -0.007211 0.014239 0.000000 0.000000 0.000000
# 4 0.000000 0.000000 0.000000 0.036594 0.000000 0.000000
# 5 0.000000 0.000000 0.000000 0.000000 0.040578 0.000000
# 6 0.000000 0.000000 0.000000 0.000000 0.000000 0.041621
#
#
# Mechanical properties :
#
#
# Convention : Reuss Voigt Hill
#
# Bulk Modulus (GPa) = 83.89185 87.39518 85.64351
# Shear Modulus (GPa) = 26.11969 26.99186 26.55577
#
# Velocity S-wave (km/s) = 3.42817 3.48493 3.45667
# Velocity P-wave (km/s) = 7.30864 7.45088 7.38010
#
# Compressibility (1/GPa) = 0.01192011
#
# Stress axis : x y z
#
# Youngs Moduli (GPa) = 81.85975 72.27892 70.22972
#
# Poissons Ratio (x) = 0.09208 0.40034
# Poissons Ratio (y) = 0.10428 0.50640
# Poissons Ratio (z) = 0.46664 0.52118
#
# Static dielectric constant tensor:
#      x y z
#    x 1.803920 0.000000 0.000000 
#    y 0.000000 1.855460 0.000000 
#    z 0.000000 0.000000 1.798580 
# 
# From -- ./inp_files/2697.got.cif
#   From: 2010.05.17/outbox.cif.g08.bks.cpg/sg21_2_cif.got.tgz:2697.got - 2010.06.03 23:14:55.
