data_PCOD9325233
_publ_section_title
;
Structure prediction by ZEFSAII (Michael W. Deem and Ramdas Pophale) SiO2 
 PCOD9325233
Probable space group: C 2 2 2
;
_chemical_formula_sum "Si O2"
_cell_formula_units_Z 56
_cell_length_a 11.439085
_cell_length_b 21.043556
_cell_length_c 11.660807
_cell_angle_alpha 90.000000
_cell_angle_beta 90.000000
_cell_angle_gamma 90.000000
_cell_volume 2806.978101
_symmetry_space_group_name_H-M "C 2 2 2"
_symmetry_group_IT_number 21
_symmetry_cell_setting 'orthorhombic'
loop_
_space_group_symop_operation_xyz
x,y,z
-x,-y,z
x,-y,-z
-x,y,-z
1/2+x,1/2+y,z
1/2-x,1/2-y,z
1/2+x,1/2-y,-z
1/2-x,1/2+y,-z
loop_
_atom_site_type_symbol
_atom_site_label
_atom_site_fract_x
_atom_site_fract_y
_atom_site_fract_z
Si Si1 0.284406 0.893086 0.249000
Si Si2 0.364128 0.354660 0.372993
Si Si3 0.009186 0.328738 0.635646
Si Si4 0.641075 0.923444 0.002643
Si Si5 0.865642 0.995529 0.362406
Si Si6 0.620094 0.310373 0.380378
Si Si7 0.291656 0.814516 0.816337
O O1 0.409353 0.881781 0.307347
O O2 0.206668 0.832477 0.283052
O O3 0.216073 0.952546 0.304221
O O4 0.303265 0.899622 0.115380
O O5 0.318411 0.424679 0.347815
O O6 0.504360 0.354176 0.376374
O O7 0.325225 0.325115 0.494403
O O8 0.320714 0.316171 0.266129
O O9 0.074969 0.260649 0.630544
O O10 0.000000 0.345043 0.500000
O O11 0.897934 0.318467 0.720773
O O12 0.688536 0.876117 0.102413
O O13 0.500000 0.916429 0.000000
O O14 0.664979 0.000000 0.000000
O O15 0.869578 0.000000 0.500000
O O16 0.000000 0.000000 0.320016
O O17 0.250000 0.750000 0.884468
#
# Coordination Sequence:
#
# PCOD9325233 Si02
#       7
#     8   8   8   8   8   8   8
#     4  12  24  42  69  98 131 185 237 288 341 422
#     4  11  20  39  64  99 138 181 212 274 367 422
#     4  12  24  40  65 108 144 176 228 283 361 432
#     4  11  26  52  72  91 135 194 239 292 357 411
#     4  11  20  38  65  99 140 180 222 275 357 430
#     4  11  20  39  67 101 143 176 208 283 363 429
#     4  12  24  44  72  98 136 185 239 292 348 429
#
# _framework density 19.950281
#
# number of rings (size 3 to 8) (size 9 to 14) (size 15 to 20)
#    0.000    0.571    7.143    3.000    0.000    1.143 
#    0.000    0.714    0.000    0.000    0.000    0.000 
#    0.000    0.000    0.000    0.000    0.000    0.000 
#
# Total GULP energy -156061.861366 kJ/mol
# GULP energy per Si atom -5573.637906 kJ/mol
# Density = 1.990487 g / cm^3
# Si number density = 19.950281 Si / 1000 Ang^3
#
#
#
# Elastic Constant Matrix: (Units=GPa)
#
#
# Indices 1 2 3 4 5 6 
#
# 1 58.6535 20.1205 50.0964 0.0000 0.0000 0.0000
# 2 20.1205 89.1205 50.8952 0.0000 0.0000 0.0000
# 3 50.0964 50.8952 151.3791 0.0000 0.0000 0.0000
# 4 0.0000 0.0000 0.0000 14.8866 0.0000 0.0000
# 5 0.0000 0.0000 0.0000 0.0000 42.8124 0.0000
# 6 0.0000 0.0000 0.0000 0.0000 0.0000 24.5053
#
#
#
# Elastic Compliance Matrix: (Units=1/GPa)
#
#
# Indices 1 2 3 4 5 6 
#
# 1 0.023852 -0.001086 -0.007528 0.000000 0.000000 0.000000
# 2 -0.001086 0.013937 -0.004326 0.000000 0.000000 0.000000
# 3 -0.007528 -0.004326 0.010552 0.000000 0.000000 0.000000
# 4 0.000000 0.000000 0.000000 0.067174 0.000000 0.000000
# 5 0.000000 0.000000 0.000000 0.000000 0.023358 0.000000
# 6 0.000000 0.000000 0.000000 0.000000 0.000000 0.040807
#
#
# Mechanical properties :
#
#
# Convention : Reuss Voigt Hill
#
# Bulk Modulus (GPa) = 44.52453 60.15303 52.33878
# Shear Modulus (GPa) = 23.46902 28.31028 25.88965
#
# Velocity S-wave (km/s) = 3.43355 3.77110 3.60628
# Velocity P-wave (km/s) = 6.17133 7.01274 6.60545
#
# Compressibility (1/GPa) = 0.02245953
#
# Stress axis : x y z
#
# Youngs Moduli (GPa) = 41.92570 71.75368 94.76994
#
# Poissons Ratio (x) = 0.07790 0.71346
# Poissons Ratio (y) = 0.04552 0.41001
# Poissons Ratio (z) = 0.31563 0.31043
#
# Static dielectric constant tensor:
#      x y z
#    x 1.738190 0.000000 0.000000 
#    y 0.000000 1.782730 0.000000 
#    z 0.000000 0.000000 2.019250 
# 
# From -- ./inp_files/24232.got.cif
#   From: 2010.05.17/outbox.cif.g08.bks.cpg/sg21_13_cif.got.tgz:24232.got - 2010.06.03 23:14:55.
