data_PCOD9325462
_publ_section_title
;
Structure prediction by ZEFSAII (Michael W. Deem and Ramdas Pophale) SiO2 
 PCOD9325462
Probable space group: C 2 2 2
;
_chemical_formula_sum "Si O2"
_cell_formula_units_Z 58
_cell_length_a 16.448958
_cell_length_b 9.283163
_cell_length_c 17.273554
_cell_angle_alpha 90.000000
_cell_angle_beta 90.000000
_cell_angle_gamma 90.000000
_cell_volume 2637.643338
_symmetry_space_group_name_H-M "C 2 2 2"
_symmetry_group_IT_number 21
_symmetry_cell_setting 'orthorhombic'
loop_
_space_group_symop_operation_xyz
x,y,z
-x,-y,z
x,-y,-z
-x,y,-z
1/2+x,1/2+y,z
1/2-x,1/2-y,z
1/2+x,1/2-y,-z
1/2-x,1/2+y,-z
loop_
_atom_site_type_symbol
_atom_site_label
_atom_site_fract_x
_atom_site_fract_y
_atom_site_fract_z
Si Si1 0.573839 0.281874 0.079824
Si Si2 0.686539 0.033134 0.089671
Si Si3 0.429132 0.181104 0.178496
Si Si4 0.000000 0.000000 0.000000
Si Si5 0.831676 0.160582 0.328520
Si Si6 0.919490 0.065574 0.586089
Si Si7 0.999749 0.663905 0.351369
Si Si8 0.146375 0.006949 0.170035
O O1 0.655706 0.196548 0.094962
O O2 0.501176 0.186707 0.114340
O O3 0.567533 0.365294 0.998237
O O4 0.571291 0.424601 0.131543
O O5 0.632446 0.939447 0.148498
O O6 0.778019 0.998865 0.112144
O O7 0.669133 0.000000 0.000000
O O8 0.467238 0.156683 0.263044
O O9 0.380575 0.331500 0.186889
O O10 0.750000 0.250000 0.342784
O O11 0.910146 0.262766 0.346932
O O12 0.842524 0.012632 0.377147
O O13 0.832400 0.094714 0.242595
O O14 0.938515 0.233550 0.598476
O O15 0.920456 0.000000 0.500000
O O16 0.000000 0.000000 0.628173
O O17 0.000000 0.500000 0.381229
#
# Coordination Sequence:
#
# PCOD9325462 Si02
#       8
#     8   8   8   2   8   8   8   8
#     4  12  24  42  65  89 120 166 227 278 349 420
#     4  12  29  45  62  93 137 174 225 308 375 420
#     4  12  24  45  68  96 128 176 235 293 350 425
#     4  12  24  36  70  88 116 168 234 272 344 448
#     4  11  23  43  70 102 140 186 232 289 353 413
#     4   9  20  43  74 107 146 194 235 276 345 429
#     4  11  23  42  73 108 141 180 239 297 344 418
#     4  12  25  43  66  93 127 174 232 283 354 425
#
# _framework density 21.989325000000001
#
# number of rings (size 3 to 8) (size 9 to 14) (size 15 to 20)
#    0.000    0.690    4.138    3.724    2.897    1.655 
#    0.000    7.586    0.000    0.000    0.000    0.000 
#    0.000    0.000    0.000    0.000    0.000    0.000 
#
# Total GULP energy -161485.681266 kJ/mol
# GULP energy per Si atom -5568.471768 kJ/mol
# Density = 2.193928 g / cm^3
# Si number density = 21.989325 Si / 1000 Ang^3
#
#
#
# Elastic Constant Matrix: (Units=GPa)
#
#
# Indices 1 2 3 4 5 6 
#
# 1 100.0468 46.4908 3.7792 0.0000 0.0000 0.0000
# 2 46.4908 170.1247 19.9182 0.0000 0.0000 0.0000
# 3 3.7792 19.9182 63.9399 0.0000 0.0000 0.0000
# 4 0.0000 0.0000 0.0000 19.9074 0.0000 0.0000
# 5 0.0000 0.0000 0.0000 0.0000 19.3565 0.0000
# 6 0.0000 0.0000 0.0000 0.0000 0.0000 45.4459
#
#
#
# Elastic Compliance Matrix: (Units=1/GPa)
#
#
# Indices 1 2 3 4 5 6 
#
# 1 0.011455 -0.003167 0.000309 0.000000 0.000000 0.000000
# 2 -0.003167 0.006976 -0.001986 0.000000 0.000000 0.000000
# 3 0.000309 -0.001986 0.016240 0.000000 0.000000 0.000000
# 4 0.000000 0.000000 0.000000 0.050233 0.000000 0.000000
# 5 0.000000 0.000000 0.000000 0.000000 0.051662 0.000000
# 6 0.000000 0.000000 0.000000 0.000000 0.000000 0.022004
#
#
# Mechanical properties :
#
#
# Convention : Reuss Voigt Hill
#
# Bulk Modulus (GPa) = 40.02437 52.72084 46.37260
# Shear Modulus (GPa) = 28.31502 34.53685 31.42594
#
# Velocity S-wave (km/s) = 3.59231 3.96740 3.78450
# Velocity P-wave (km/s) = 5.95378 6.70930 6.34280
#
# Compressibility (1/GPa) = 0.02498478
#
# Stress axis : x y z
#
# Youngs Moduli (GPa) = 87.29706 143.35042 61.57617
#
# Poissons Ratio (x) = 0.45394 -0.01905
# Poissons Ratio (y) = 0.27644 0.12229
# Poissons Ratio (z) = -0.02701 0.28468
#
# Static dielectric constant tensor:
#      x y z
#    x 1.830380 0.000000 0.000000 
#    y 0.000000 1.870340 0.000000 
#    z 0.000000 0.000000 -1.346500 
# 
# From -- ./inp_files/36912.got.cif
#   From: 2010.05.17/outbox.cif.g08.bks.cpg/sg21_19_cif.got.tgz:36912.got - 2010.06.03 23:14:55.
