data_PCOD9325893
_publ_section_title
;
Structure prediction by ZEFSAII (Michael W. Deem and Ramdas Pophale) SiO2 
 PCOD9325893
Probable space group: F 2 2 2
;
_chemical_formula_sum "Si O2"
_cell_formula_units_Z 104
_cell_length_a 29.666585
_cell_length_b 22.896055
_cell_length_c 9.483063
_cell_angle_alpha 90.000000
_cell_angle_beta 90.000000
_cell_angle_gamma 90.000000
_cell_volume 6441.349318
_symmetry_space_group_name_H-M "F 2 2 2"
_symmetry_group_IT_number 22
_symmetry_cell_setting 'orthorhombic'
loop_
_space_group_symop_operation_xyz
x,y,z
-x,-y,z
x,-y,-z
-x,y,-z
x,1/2+y,1/2+z
-x,1/2-y,1/2+z
x,1/2-y,1/2-z
-x,1/2+y,1/2-z
1/2+x,y,1/2+z
1/2-x,-y,1/2+z
1/2+x,-y,1/2-z
1/2-x,y,1/2-z
1/2+x,1/2+y,z
1/2-x,1/2-y,z
1/2+x,1/2-y,-z
1/2-x,1/2+y,-z
loop_
_atom_site_type_symbol
_atom_site_label
_atom_site_fract_x
_atom_site_fract_y
_atom_site_fract_z
Si Si1 0.694622 0.579304 0.945429
Si Si2 0.373548 0.572252 0.806744
Si Si3 0.884645 0.060400 0.270491
Si Si4 0.663732 0.605827 0.463843
Si Si5 0.256152 0.682765 0.419627
Si Si6 0.949036 0.929526 0.976470
Si Si7 0.771890 0.500000 0.000000
O O1 0.659327 0.579052 0.819418
O O2 0.716461 0.641749 0.977972
O O3 0.666999 0.559731 0.083532
O O4 0.736843 0.537888 0.909018
O O5 0.385985 0.510234 0.734051
O O6 0.358755 0.617023 0.686569
O O7 0.414630 0.593111 0.904724
O O8 0.874198 0.086294 0.423419
O O9 0.927473 0.081150 0.177926
O O10 0.696604 0.655147 0.527695
O O11 0.695966 0.549175 0.435719
O O12 0.250000 0.678346 0.250000
O O13 0.250000 0.750000 0.459718
O O14 0.000000 0.909510 0.000000
O O15 0.948264 0.000000 0.000000
#
# Coordination Sequence:
#
# PCOD9325893 Si02
#       7
#    16  16  16  16  16  16   8
#     4  10  18  29  45  65  89 125 163 194 227 270
#     4  10  18  29  44  70  98 116 152 202 240 273
#     4  10  16  29  44  69  96 119 157 193 232 280
#     4  11  20  28  44  69  96 123 159 202 238 264
#     4  10  21  34  46  61  91 133 173 197 218 273
#     4   8  16  30  48  64  92 132 158 179 227 303
#     4  10  18  24  42  62  94 116 158 188 240 250
#
# _framework density 16.145685
#
# number of rings (size 3 to 8) (size 9 to 14) (size 15 to 20)
#    0.000    2.154    4.615    0.923    0.000    3.692 
#    0.000    2.308    0.000    3.692    0.000    0.000 
#    0.000   19.692    0.000    0.000    0.000    0.000 
#
# Total GULP energy -144754.512217 kJ/mol
# GULP energy per Si atom -5567.481239 kJ/mol
# Density = 1.610894 g / cm^3
# Si number density = 16.145685 Si / 1000 Ang^3
#
#
#
# Elastic Constant Matrix: (Units=GPa)
#
#
# Indices 1 2 3 4 5 6 
#
# 1 97.9178 16.4903 38.2047 0.0000 0.0000 0.0000
# 2 16.4903 60.7054 7.8158 0.0001 0.0000 0.0000
# 3 38.2047 7.8158 90.2874 0.0001 0.0001 0.0000
# 4 0.0000 0.0001 0.0001 10.7295 0.0000 0.0000
# 5 0.0000 0.0000 0.0001 0.0000 7.5220 0.0000
# 6 0.0000 0.0000 0.0000 0.0000 0.0000 8.4907
#
#
#
# Elastic Compliance Matrix: (Units=1/GPa)
#
#
# Indices 1 2 3 4 5 6 
#
# 1 0.012681 -0.002785 -0.005125 0.000000 0.000000 0.000000
# 2 -0.002785 0.017270 -0.000317 0.000000 0.000000 0.000000
# 3 -0.005125 -0.000317 0.013272 0.000000 0.000000 0.000000
# 4 0.000000 0.000000 0.000000 0.093201 0.000000 0.000000
# 5 0.000000 0.000000 0.000000 0.000000 0.132943 0.000000
# 6 0.000000 0.000000 0.000000 0.000000 0.000000 0.117776
#
#
# Mechanical properties :
#
#
# Convention : Reuss Voigt Hill
#
# Bulk Modulus (GPa) = 37.35477 41.54801 39.45139
# Shear Modulus (GPa) = 12.12063 17.77509 14.94786
#
# Velocity S-wave (km/s) = 2.74287 3.32161 3.04602
# Velocity P-wave (km/s) = 5.76345 6.36395 6.07113
#
# Compressibility (1/GPa) = 0.02677035
#
# Stress axis : x y z
#
# Youngs Moduli (GPa) = 78.85644 57.90299 75.34804
#
# Poissons Ratio (x) = 0.16126 0.38615
# Poissons Ratio (y) = 0.21961 0.02385
# Poissons Ratio (z) = 0.40413 0.01833
#
# Static dielectric constant tensor:
#      x y z
#    x 1.553490 0.000000 0.000000 
#    y 0.000000 1.557720 0.000000 
#    z 0.000000 0.000000 1.600600 
# 
# From -- ./inp_files/14158.got.cif
#   From: 2010.05.17/outbox.cif.g08.bks.cpg/sg22_8_cif.got.tgz:14158.got - 2010.06.03 23:40:54.
