data_PCOD9325109
_publ_section_title
;
Structure prediction by ZEFSAII (Michael W. Deem and Ramdas Pophale) SiO2 
 PCOD9325109
Probable space group: C 2 2 2
;
_chemical_formula_sum "Si O2"
_cell_formula_units_Z 36
_cell_length_a 21.561861
_cell_length_b 7.093150
_cell_length_c 8.910741
_cell_angle_alpha 90.000000
_cell_angle_beta 90.000000
_cell_angle_gamma 90.000000
_cell_volume 1362.822223
_symmetry_space_group_name_H-M "C 2 2 2"
_symmetry_group_IT_number 21
_symmetry_cell_setting 'orthorhombic'
loop_
_space_group_symop_operation_xyz
x,y,z
-x,-y,z
x,-y,-z
-x,y,-z
1/2+x,1/2+y,z
1/2-x,1/2-y,z
1/2+x,1/2-y,-z
1/2-x,1/2+y,-z
loop_
_atom_site_type_symbol
_atom_site_label
_atom_site_fract_x
_atom_site_fract_y
_atom_site_fract_z
Si Si1 0.219493 0.000000 0.000000
Si Si2 0.107847 0.678212 0.328686
Si Si3 0.500000 0.000000 0.000000
Si Si4 0.817414 0.000000 0.500000
Si Si5 0.404677 0.290503 0.008076
Si Si6 0.719017 0.907909 0.322499
Si Si7 0.500000 0.000000 0.500000
O O1 0.258708 0.003525 0.843190
O O2 0.169838 0.171965 0.032406
O O3 0.094363 0.722913 0.160113
O O4 0.150632 0.494822 0.330507
O O5 0.044852 0.636310 0.410097
O O6 0.146141 0.852455 0.399555
O O7 0.451977 0.856037 0.914469
O O8 0.795839 0.823767 0.351572
O O9 0.430569 0.500000 0.000000
O O10 0.739915 0.000000 0.500000
#
# Coordination Sequence:
#
# PCOD9325109 Si02
#       7
#     4   8   2   4   8   8   2
#     4  10  26  44  72 117 160 193 258 340 402 478
#     4  12  27  50  77 112 158 211 272 331 408 479
#     4  12  24  46  80 104 160 220 270 322 394 484
#     4  12  23  47  72 111 151 198 254 332 392 482
#     4  10  25  48  72 116 158 207 273 333 404 483
#     4  12  26  44  80 113 157 201 260 327 409 484
#     4  12  28  54  76 118 154 220 288 340 398 498
#
# _framework density 26.415772
#
# number of rings (size 3 to 8) (size 9 to 14) (size 15 to 20)
#    0.667    0.000    2.222    5.000    6.222    0.444 
#   16.000    0.000    0.000    0.000    0.000    0.000 
#    0.000    0.000    0.000    0.000    0.000    0.000 
#
# Total GULP energy -100260.273052 kJ/mol
# GULP energy per Si atom -5570.015170 kJ/mol
# Density = 2.635565 g / cm^3
# Si number density = 26.415772 Si / 1000 Ang^3
#
#
#
# Elastic Constant Matrix: (Units=GPa)
#
#
# Indices 1 2 3 4 5 6 
#
# 1 195.1437 65.8938 79.6219 0.0000 0.0000 0.0000
# 2 65.8938 191.2224 26.6258 0.0000 0.0000 0.0000
# 3 79.6219 26.6258 146.9236 0.0000 0.0000 0.0000
# 4 0.0000 0.0000 0.0000 36.5477 0.0000 0.0000
# 5 0.0000 0.0000 0.0000 0.0000 43.6257 0.0000
# 6 0.0000 0.0000 0.0000 0.0000 0.0000 42.6276
#
#
#
# Elastic Compliance Matrix: (Units=1/GPa)
#
#
# Indices 1 2 3 4 5 6 
#
# 1 0.007258 -0.002004 -0.003570 0.000000 0.000000 0.000000
# 2 -0.002004 0.005918 0.000013 0.000000 0.000000 0.000000
# 3 -0.003570 0.000013 0.008738 0.000000 0.000000 0.000000
# 4 0.000000 0.000000 0.000000 0.027361 0.000000 0.000000
# 5 0.000000 0.000000 0.000000 0.000000 0.022922 0.000000
# 6 0.000000 0.000000 0.000000 0.000000 0.000000 0.023459
#
#
# Mechanical properties :
#
#
# Convention : Reuss Voigt Hill
#
# Bulk Modulus (GPa) = 92.64812 97.50807 95.07809
# Shear Modulus (GPa) = 45.29983 48.63676 46.96829
#
# Velocity S-wave (km/s) = 4.14560 4.29558 4.22126
# Velocity P-wave (km/s) = 7.61996 7.84829 7.73497
#
# Compressibility (1/GPa) = 0.01079353
#
# Stress axis : x y z
#
# Youngs Moduli (GPa) = 137.78497 168.97153 114.43612
#
# Poissons Ratio (x) = 0.33860 0.40854
# Poissons Ratio (y) = 0.27610 -0.00154
# Poissons Ratio (z) = 0.49189 -0.00227
#
# Static dielectric constant tensor:
#      x y z
#    x 2.043020 0.000000 0.000000 
#    y 0.000000 2.649760 0.000000 
#    z 0.000000 0.000000 2.291570 
# 
# From -- ./inp_files/17223.got.cif
#   From: 2010.05.17/outbox.cif.g08.bks.cpg/sg21_9_cif.got.tgz:17223.got - 2010.06.03 23:14:55.
