data_PCOD9325489
_publ_section_title
;
Structure prediction by ZEFSAII (Michael W. Deem and Ramdas Pophale) SiO2 
 PCOD9325489
Probable space group: C 2 2 2
;
_chemical_formula_sum "Si O2"
_cell_formula_units_Z 32
_cell_length_a 8.843182
_cell_length_b 12.606335
_cell_length_c 11.199828
_cell_angle_alpha 90.000000
_cell_angle_beta 90.000000
_cell_angle_gamma 90.000000
_cell_volume 1248.558111
_symmetry_space_group_name_H-M "C 2 2 2"
_symmetry_group_IT_number 21
_symmetry_cell_setting 'orthorhombic'
loop_
_space_group_symop_operation_xyz
x,y,z
-x,-y,z
x,-y,-z
-x,y,-z
1/2+x,1/2+y,z
1/2-x,1/2-y,z
1/2+x,1/2-y,-z
1/2-x,1/2+y,-z
loop_
_atom_site_type_symbol
_atom_site_label
_atom_site_fract_x
_atom_site_fract_y
_atom_site_fract_z
Si Si1 0.633804 0.434784 0.785695
Si Si2 0.305744 0.137395 0.734291
Si Si3 0.833612 0.374043 0.996158
Si Si4 0.568291 0.754609 0.368500
O O1 0.500000 0.500000 0.849543
O O2 0.738669 0.519450 0.712257
O O3 0.727959 0.364999 0.880791
O O4 0.542689 0.356374 0.698943
O O5 0.250000 0.250000 0.678009
O O6 0.484986 0.150849 0.705465
O O7 0.267624 0.147034 0.874251
O O8 0.854401 0.500000 0.000000
O O9 0.000000 0.322653 0.000000
O O10 0.500000 0.758711 0.500000
O O11 0.750000 0.750000 0.374916
#
# Coordination Sequence:
#
# PCOD9325489 Si02
#       4
#     8   8   8   8
#     4  11  24  47  79 111 159 208 270 328 412 483
#     4  11  23  45  71 111 155 196 260 327 393 484
#     4   9  20  38  66 102 148 196 241 313 393 473
#     4  12  28  51  78 113 156 213 277 338 402 481
#
# _framework density 25.629563999999998
#
# number of rings (size 3 to 8) (size 9 to 14) (size 15 to 20)
#    0.000    1.250    2.500    2.250    0.000   11.000 
#    0.000    1.250    0.000    0.000    0.000    0.000 
#    0.000    0.000    0.000    0.000    0.000    0.000 
#
# Total GULP energy -89187.957855 kJ/mol
# GULP energy per Si atom -5574.247366 kJ/mol
# Density = 2.557123 g / cm^3
# Si number density = 25.629564 Si / 1000 Ang^3
#
#
#
# Elastic Constant Matrix: (Units=GPa)
#
#
# Indices 1 2 3 4 5 6 
#
# 1 144.7425 57.0117 32.6640 0.0000 0.0000 0.0000
# 2 57.0117 129.7787 29.1705 0.0000 0.0000 0.0000
# 3 32.6640 29.1705 101.7765 0.0000 0.0000 0.0000
# 4 0.0000 0.0000 0.0000 18.2961 0.0000 0.0000
# 5 0.0000 0.0000 0.0000 0.0000 41.7931 0.0000
# 6 0.0000 0.0000 0.0000 0.0000 0.0000 64.8372
#
#
#
# Elastic Compliance Matrix: (Units=1/GPa)
#
#
# Indices 1 2 3 4 5 6 
#
# 1 0.008654 -0.003396 -0.001804 0.000000 0.000000 0.000000
# 2 -0.003396 0.009569 -0.001653 0.000000 0.000000 0.000000
# 3 -0.001804 -0.001653 0.010878 0.000000 0.000000 0.000000
# 4 0.000000 0.000000 0.000000 0.054657 0.000000 0.000000
# 5 0.000000 0.000000 0.000000 0.000000 0.023927 0.000000
# 6 0.000000 0.000000 0.000000 0.000000 0.000000 0.015423
#
#
# Mechanical properties :
#
#
# Convention : Reuss Voigt Hill
#
# Bulk Modulus (GPa) = 64.95509 68.22110 66.58810
# Shear Modulus (GPa) = 35.22506 42.14871 38.68688
#
# Velocity S-wave (km/s) = 3.71130 4.05969 3.88940
# Velocity P-wave (km/s) = 6.61542 6.97500 6.79759
#
# Compressibility (1/GPa) = 0.01539525
#
# Stress axis : x y z
#
# Youngs Moduli (GPa) = 115.55950 104.50679 91.92822
#
# Poissons Ratio (x) = 0.35491 0.16583
# Poissons Ratio (y) = 0.39244 0.15192
# Poissons Ratio (z) = 0.20846 0.17271
#
# Static dielectric constant tensor:
#      x y z
#    x 2.286590 0.000000 0.000000 
#    y 0.000000 1.980410 0.000000 
#    z 0.000000 0.000000 1.954290 
# 
# From -- ./inp_files/21835.got.cif
#   From: 2010.05.17/outbox.cif.g08.bks.cpg/sg21_11_cif.got.tgz:21835.got - 2010.06.03 23:14:55.
