data_PCOD9325215
_publ_section_title
;
Structure prediction by ZEFSAII (Michael W. Deem and Ramdas Pophale) SiO2 
 PCOD9325215
Probable space group: C 2 2 2
;
_chemical_formula_sum "Si O2"
_cell_formula_units_Z 34
_cell_length_a 18.820562
_cell_length_b 18.007465
_cell_length_c 5.086199
_cell_angle_alpha 90.000000
_cell_angle_beta 90.000000
_cell_angle_gamma 90.000000
_cell_volume 1723.766813
_symmetry_space_group_name_H-M "C 2 2 2"
_symmetry_group_IT_number 21
_symmetry_cell_setting 'orthorhombic'
loop_
_space_group_symop_operation_xyz
x,y,z
-x,-y,z
x,-y,-z
-x,y,-z
1/2+x,1/2+y,z
1/2-x,1/2-y,z
1/2+x,1/2-y,-z
1/2-x,1/2+y,-z
loop_
_atom_site_type_symbol
_atom_site_label
_atom_site_fract_x
_atom_site_fract_y
_atom_site_fract_z
Si Si1 0.815873 0.854063 0.262357
Si Si2 0.311254 0.797748 0.999990
Si Si3 0.047426 0.716982 0.251486
Si Si4 0.500000 0.500000 0.500000
Si Si5 0.897792 0.114598 0.235907
O O1 0.834132 0.880463 0.551004
O O2 0.734635 0.857329 0.161059
O O3 0.835301 0.766204 0.210619
O O4 0.866214 0.894869 0.053325
O O5 0.250000 0.750000 0.153762
O O6 0.375361 0.818436 0.187875
O O7 0.063598 0.805458 0.258797
O O8 0.000000 0.695508 0.500000
O O9 0.000000 0.701104 0.000000
O O10 0.451374 0.551972 0.321564
#
# Coordination Sequence:
#
# PCOD9325215 Si02
#       5
#     8   8   8   2   8
#     4   8  19  33  49  62  88 114 184 207 243 285
#     4   7  17  31  51  71  84 130 169 209 252 311
#     4  11  20  32  48  72 104 125 166 213 259 307
#     4  12  28  30  52  66 108 142 186 198 264 256
#     4  11  21  34  43  67  91 140 170 212 228 290
#
# _framework density 19.724245
#
# number of rings (size 3 to 8) (size 9 to 14) (size 15 to 20)
#    1.412    0.941    1.176    2.824    0.000   11.294 
#    0.000    0.000    0.000    0.000    0.000    0.000 
#    0.000    0.000    0.000   15.882    0.000    2.353 
#
# Total GULP energy -94732.541392 kJ/mol
# GULP energy per Si atom -5572.502435 kJ/mol
# Density = 1.967935 g / cm^3
# Si number density = 19.724245 Si / 1000 Ang^3
#
#
#
# Elastic Constant Matrix: (Units=GPa)
#
#
# Indices 1 2 3 4 5 6 
#
# 1 113.2694 4.1767 31.1246 0.0000 0.0000 0.0000
# 2 4.1767 22.9801 -7.4046 0.0000 0.0000 0.0000
# 3 31.1246 -7.4046 88.7300 0.0000 0.0000 0.0000
# 4 0.0000 0.0000 0.0000 7.2535 0.0000 0.0000
# 5 0.0000 0.0000 0.0000 0.0000 8.7172 0.0000
# 6 0.0000 0.0000 0.0000 0.0000 0.0000 23.0328
#
#
#
# Elastic Compliance Matrix: (Units=1/GPa)
#
#
# Indices 1 2 3 4 5 6 
#
# 1 0.009970 -0.003020 -0.003749 0.000000 0.000000 0.000000
# 2 -0.003020 0.045633 0.004868 0.000000 0.000000 0.000000
# 3 -0.003749 0.004868 0.012992 0.000000 0.000000 0.000000
# 4 0.000000 0.000000 0.000000 0.137864 0.000000 0.000000
# 5 0.000000 0.000000 0.000000 0.000000 0.114715 0.000000
# 6 0.000000 0.000000 0.000000 0.000000 0.000000 0.043416
#
#
# Mechanical properties :
#
#
# Convention : Reuss Voigt Hill
#
# Bulk Modulus (GPa) = 15.43428 31.19698 23.31563
# Shear Modulus (GPa) = 12.82079 20.93958 16.88018
#
# Velocity S-wave (km/s) = 2.55228 3.26178 2.92859
# Velocity P-wave (km/s) = 4.06541 5.48056 4.82514
#
# Compressibility (1/GPa) = 0.06479086
#
# Stress axis : x y z
#
# Youngs Moduli (GPa) = 100.29953 21.91388 76.97324
#
# Poissons Ratio (x) = 0.06618 0.28860
# Poissons Ratio (y) = 0.30292 -0.37467
# Poissons Ratio (z) = 0.37606 -0.10667
#
# Static dielectric constant tensor:
#      x y z
#    x 1.811740 0.000000 0.000000 
#    y 0.000000 1.704610 0.000000 
#    z 0.000000 0.000000 1.731280 
# 
# From -- ./inp_files/5772.got.cif
#   From: 2010.05.17/outbox.cif.g08.bks.cpg/sg21_3_cif.got.tgz:5772.got - 2010.06.03 23:14:55.
