data_PCOD9325114
_publ_section_title
;
Structure prediction by ZEFSAII (Michael W. Deem and Ramdas Pophale) SiO2 
 PCOD9325114
Probable space group: C 2 2 2
;
_chemical_formula_sum "Si O2"
_cell_formula_units_Z 56
_cell_length_a 29.143306
_cell_length_b 14.702700
_cell_length_c 5.671740
_cell_angle_alpha 90.000000
_cell_angle_beta 90.000000
_cell_angle_gamma 90.000000
_cell_volume 2430.257131
_symmetry_space_group_name_H-M "C 2 2 2"
_symmetry_group_IT_number 21
_symmetry_cell_setting 'orthorhombic'
loop_
_space_group_symop_operation_xyz
x,y,z
-x,-y,z
x,-y,-z
-x,y,-z
1/2+x,1/2+y,z
1/2-x,1/2-y,z
1/2+x,1/2-y,-z
1/2-x,1/2+y,-z
loop_
_atom_site_type_symbol
_atom_site_label
_atom_site_fract_x
_atom_site_fract_y
_atom_site_fract_z
Si Si1 0.544389 0.187316 0.866795
Si Si2 0.123914 0.764634 0.207133
Si Si3 0.285419 0.943405 0.756184
Si Si4 0.310657 0.609698 0.932200
Si Si5 0.478612 0.616122 0.748248
Si Si6 0.622641 0.894920 0.429549
Si Si7 0.384686 0.595403 0.581054
O O1 0.523380 0.274782 0.740918
O O2 0.574050 0.126443 0.690989
O O3 0.500000 0.144941 0.000000
O O4 0.585109 0.232166 0.024620
O O5 0.132394 0.674263 0.358331
O O6 0.099659 0.839729 0.373142
O O7 0.170097 0.820387 0.130196
O O8 0.240086 0.886653 0.823908
O O9 0.332172 0.886872 0.732247
O O10 0.278990 0.000000 0.500000
O O11 0.291692 0.000000 0.000000
O O12 0.344616 0.640118 0.725410
O O13 0.317222 0.500000 0.000000
O O14 0.500000 0.588430 0.500000
O O15 0.427379 0.577218 0.747856
O O16 0.500000 0.594276 0.000000
O O17 0.621679 0.000000 0.500000
O O18 0.365814 0.500000 0.500000
#
# Coordination Sequence:
#
# PCOD9325114 Si02
#       7
#     8   8   8   8   8   8   8
#     4  11  25  45  76 106 153 201 258 326 395 458
#     4  12  24  47  75 114 152 205 257 322 388 468
#     4  10  25  49  82 111 155 206 253 324 403 468
#     4  11  23  43  77 110 153 202 255 313 391 465
#     4  11  24  43  69  99 150 206 251 318 387 452
#     4  11  27  50  83 106 156 206 264 332 409 473
#     4  12  23  41  68 107 155 200 258 317 378 461
#
# _framework density 23.042828
#
# number of rings (size 3 to 8) (size 9 to 14) (size 15 to 20)
#    0.000    0.857    4.286    2.143    6.000    0.286 
#    0.000    9.286    0.000    0.429    0.000    0.000 
#    0.000    0.000    0.000    0.000    0.000    0.000 
#
# Total GULP energy -156144.429868 kJ/mol
# GULP energy per Si atom -5576.586781 kJ/mol
# Density = 2.299038 g / cm^3
# Si number density = 23.042828 Si / 1000 Ang^3
#
#
#
# Elastic Constant Matrix: (Units=GPa)
#
#
# Indices 1 2 3 4 5 6 
#
# 1 139.6975 43.3664 45.6832 0.0000 0.0000 0.0000
# 2 43.3664 115.2310 47.5603 0.0000 0.0000 0.0000
# 3 45.6832 47.5603 115.8566 0.0000 0.0000 0.0000
# 4 0.0000 0.0000 0.0000 26.1638 0.0000 0.0000
# 5 0.0000 0.0000 0.0000 0.0000 718.2676 0.0000
# 6 0.0000 0.0000 0.0000 0.0000 0.0000 34.9083
#
#
#
# Elastic Compliance Matrix: (Units=1/GPa)
#
#
# Indices 1 2 3 4 5 6 
#
# 1 0.008669 -0.002229 -0.002503 0.000000 0.000000 0.000000
# 2 -0.002229 0.011022 -0.003646 0.000000 0.000000 0.000000
# 3 -0.002503 -0.003646 0.011115 0.000000 0.000000 0.000000
# 4 0.000000 0.000000 0.000000 0.038221 0.000000 0.000000
# 5 0.000000 0.000000 0.000000 0.000000 0.001392 0.000000
# 6 0.000000 0.000000 0.000000 0.000000 0.000000 0.028646
#
#
# Mechanical properties :
#
#
# Convention : Reuss Voigt Hill
#
# Bulk Modulus (GPa) = 71.17562 71.55608 71.36585
# Shear Modulus (GPa) = 41.49229 171.47963 106.48596
#
# Velocity S-wave (km/s) = 4.24802 8.63593 6.80533
# Velocity P-wave (km/s) = 7.41730 11.42629 9.63266
#
# Compressibility (1/GPa) = 0.01404975
#
# Stress axis : x y z
#
# Youngs Moduli (GPa) = 115.35452 90.72861 89.96967
#
# Poissons Ratio (x) = 0.20227 0.22520
# Poissons Ratio (y) = 0.25717 0.32799
# Poissons Ratio (z) = 0.28874 0.33075
#
# Static dielectric constant tensor:
#      x y z
#    x 1.904760 0.000000 0.000000 
#    y 0.000000 1.014080 0.000000 
#    z 0.000000 0.000000 2.041030 
# 
# From -- ./inp_files/8035.got.cif
#   From: 2010.05.17/outbox.cif.g08.bks.cpg/sg21_5_cif.got.tgz:8035.got - 2010.06.03 23:14:55.
