data_PCOD9325361
_publ_section_title
;
Structure prediction by ZEFSAII (Michael W. Deem and Ramdas Pophale) SiO2 
 PCOD9325361
Probable space group: C 2 2 2
;
_chemical_formula_sum "Si O2"
_cell_formula_units_Z 58
_cell_length_a 25.624593
_cell_length_b 11.127874
_cell_length_c 9.760593
_cell_angle_alpha 90.000000
_cell_angle_beta 90.000000
_cell_angle_gamma 90.000000
_cell_volume 2783.206176
_symmetry_space_group_name_H-M "C 2 2 2"
_symmetry_group_IT_number 21
_symmetry_cell_setting 'orthorhombic'
loop_
_space_group_symop_operation_xyz
x,y,z
-x,-y,z
x,-y,-z
-x,y,-z
1/2+x,1/2+y,z
1/2-x,1/2-y,z
1/2+x,1/2-y,-z
1/2-x,1/2+y,-z
loop_
_atom_site_type_symbol
_atom_site_label
_atom_site_fract_x
_atom_site_fract_y
_atom_site_fract_z
Si Si1 0.061899 0.361492 0.509772
Si Si2 0.816354 0.511624 0.163830
Si Si3 0.883858 0.130188 0.996824
Si Si4 0.788889 0.136114 0.487584
Si Si5 0.362582 0.254189 0.291445
Si Si6 0.784935 0.132267 0.186144
Si Si7 0.582391 0.153081 0.182124
Si Si8 0.500000 0.000000 0.000000
O O1 0.080616 0.500000 0.500000
O O2 0.090682 0.293519 0.387035
O O3 0.070960 0.313056 0.662094
O O4 0.000000 0.362224 0.500000
O O5 0.830782 0.639298 0.230606
O O6 0.758405 0.470932 0.203634
O O7 0.863471 0.420838 0.197407
O O8 0.815805 0.500000 0.000000
O O9 0.826645 0.117212 0.067167
O O10 0.910663 0.232003 0.086812
O O11 0.880202 0.174543 0.841959
O O12 0.909535 0.000000 0.000000
O O13 0.750000 0.250000 0.492710
O O14 0.828375 0.161811 0.610146
O O15 0.812360 0.144937 0.333970
O O16 0.767082 0.000000 0.500000
O O17 0.750000 0.250000 0.157577
O O18 0.538530 0.073180 0.103304
#
# Coordination Sequence:
#
# PCOD9325361 Si02
#       8
#     8   8   8   8   8   8   8   2
#     4  11  25  42  73 109 145 180 229 306 383 444
#     4  12  22  41  70 106 139 183 237 301 363 422
#     4  12  26  45  69  99 142 199 241 296 351 438
#     4  11  25  42  64  97 139 188 241 292 359 433
#     4  12  25  43  71 103 145 185 247 294 371 433
#     4  11  22  40  65  94 145 190 239 287 358 426
#     4  12  24  44  73 105 144 177 232 302 368 432
#     4  12  24  44  84 108 136 176 238 310 376 430
#
# _framework density 20.839275000000001
#
# number of rings (size 3 to 8) (size 9 to 14) (size 15 to 20)
#    0.000    0.414    4.828    3.724    3.862    2.207 
#    0.000    0.345    0.000    2.897    0.000    0.000 
#    0.000    0.000    0.000    0.000    0.000    0.000 
#
# Total GULP energy -162067.403364 kJ/mol
# GULP energy per Si atom -5588.531150 kJ/mol
# Density = 2.079184 g / cm^3
# Si number density = 20.839275 Si / 1000 Ang^3
#
#
#
# Elastic Constant Matrix: (Units=GPa)
#
#
# Indices 1 2 3 4 5 6 
#
# 1 68.6167 41.7669 51.7472 0.0000 0.0000 0.0000
# 2 41.7669 136.3160 54.1922 0.0000 0.0000 0.0000
# 3 51.7472 54.1922 200.4383 0.0000 0.0000 0.0000
# 4 0.0000 0.0000 0.0000 26.2645 0.0000 0.0000
# 5 0.0000 0.0000 0.0000 0.0000 41.6508 0.0000
# 6 0.0000 0.0000 0.0000 0.0000 0.0000 23.1192
#
#
#
# Elastic Compliance Matrix: (Units=1/GPa)
#
#
# Indices 1 2 3 4 5 6 
#
# 1 0.020443 -0.004667 -0.004016 0.000000 0.000000 0.000000
# 2 -0.004667 0.009285 -0.001305 0.000000 0.000000 0.000000
# 3 -0.004016 -0.001305 0.006379 0.000000 0.000000 0.000000
# 4 0.000000 0.000000 0.000000 0.038074 0.000000 0.000000
# 5 0.000000 0.000000 0.000000 0.000000 0.024009 0.000000
# 6 0.000000 0.000000 0.000000 0.000000 0.000000 0.043254
#
#
# Mechanical properties :
#
#
# Convention : Reuss Voigt Hill
#
# Bulk Modulus (GPa) = 61.99716 77.86485 69.93101
# Shear Modulus (GPa) = 29.97632 35.38453 32.68042
#
# Velocity S-wave (km/s) = 3.79681 4.12512 3.96436
# Velocity P-wave (km/s) = 7.00255 7.75464 7.38817
#
# Compressibility (1/GPa) = 0.01612977
#
# Stress axis : x y z
#
# Youngs Moduli (GPa) = 48.91577 107.70183 156.76898
#
# Poissons Ratio (x) = 0.50267 0.62958
# Poissons Ratio (y) = 0.22830 0.20465
# Poissons Ratio (z) = 0.19644 0.14059
#
# Static dielectric constant tensor:
#      x y z
#    x 1.734760 0.000000 0.000000 
#    y 0.000000 1.779740 0.000000 
#    z 0.000000 0.000000 1.802880 
# 
# From -- ./inp_files/19167.got.cif
#   From: 2010.05.17/outbox.cif.g08.bks.cpg/sg21_10_cif.got.tgz:19167.got - 2010.06.03 23:14:55.
