data_PCOD9325878
_publ_section_title
;
Structure prediction by ZEFSAII (Michael W. Deem and Ramdas Pophale) SiO2 
 PCOD9325878
Probable space group: F 2 2 2
;
_chemical_formula_sum "Si O2"
_cell_formula_units_Z 48
_cell_length_a 14.701741
_cell_length_b 5.105884
_cell_length_c 28.209018
_cell_angle_alpha 90.000000
_cell_angle_beta 90.000000
_cell_angle_gamma 90.000000
_cell_volume 2117.520772
_symmetry_space_group_name_H-M "F 2 2 2"
_symmetry_group_IT_number 22
_symmetry_cell_setting 'orthorhombic'
loop_
_space_group_symop_operation_xyz
x,y,z
-x,-y,z
x,-y,-z
-x,y,-z
x,1/2+y,1/2+z
-x,1/2-y,1/2+z
x,1/2-y,1/2-z
-x,1/2+y,1/2-z
1/2+x,y,1/2+z
1/2-x,-y,1/2+z
1/2+x,-y,1/2-z
1/2-x,y,1/2-z
1/2+x,1/2+y,z
1/2-x,1/2-y,z
1/2+x,1/2-y,-z
1/2-x,1/2+y,-z
loop_
_atom_site_type_symbol
_atom_site_label
_atom_site_fract_x
_atom_site_fract_y
_atom_site_fract_z
Si Si1 0.859100 0.260749 0.351065
Si Si2 0.439492 0.750000 0.250000
Si Si3 0.814605 0.500000 0.000000
Si Si4 0.360694 0.763853 0.905134
O O1 0.750000 0.250000 0.354055
O O2 0.884000 0.321113 0.297158
O O3 0.892331 0.480645 0.388077
O O4 0.892493 0.977621 0.367472
O O5 0.500000 0.500000 0.261881
O O6 0.750000 0.750000 0.984527
O O7 0.874202 0.380500 0.957473
O O8 0.250000 0.750000 0.903452
#
# Coordination Sequence:
#
# PCOD9325878 Si02
#       4
#    16   8   8  16
#     4  10  20  36  56  80 110 145 184 226 274 330
#     4  12  25  40  57  80 108 146 190 238 287 332
#     4  10  16  26  46  80 121 150 173 220 278 328
#     4   9  17  29  50  80 113 144 176 219 273 325
#
# _framework density 22.668019000000001
#
# number of rings (size 3 to 8) (size 9 to 14) (size 15 to 20)
#    0.000    2.000    0.000    7.500    0.000    0.000 
#    0.000    6.667    0.000    0.000    0.000   17.500 
#    0.000    0.000    0.000    0.000    0.000    0.000 
#
# Total GULP energy -67013.140981 kJ/mol
# GULP energy per Si atom -5584.428415 kJ/mol
# Density = 2.261643 g / cm^3
# Si number density = 22.668019 Si / 1000 Ang^3
#
#
#
# Elastic Constant Matrix: (Units=GPa)
#
#
# Indices 1 2 3 4 5 6 
#
# 1 52.0790 7.3121 10.5880 0.0000 0.0000 0.0000
# 2 7.3121 132.6271 29.9349 0.0000 0.0000 0.0000
# 3 10.5880 29.9349 157.8099 0.0000 0.0000 0.0000
# 4 0.0000 0.0000 0.0000 42.0196 0.0000 0.0000
# 5 0.0000 0.0000 0.0000 0.0000 -17.7669 0.0000
# 6 0.0000 0.0000 0.0000 0.0000 0.0000 5.5823
#
#
#
# Elastic Compliance Matrix: (Units=1/GPa)
#
#
# Indices 1 2 3 4 5 6 
#
# 1 0.019551 -0.000817 -0.001157 0.000000 0.000000 0.000000
# 2 -0.000817 0.007911 -0.001446 0.000000 0.000000 0.000000
# 3 -0.001157 -0.001446 0.006689 0.000000 0.000000 0.000000
# 4 0.000000 0.000000 0.000000 0.023798 0.000000 0.000000
# 5 0.000000 0.000000 0.000000 0.000000 -0.056284 0.000000
# 6 0.000000 0.000000 0.000000 0.000000 0.000000 0.179138
#
#
# Mechanical properties :
#
#
# Convention : Reuss Voigt Hill
#
# Bulk Modulus (GPa) = 36.61348 48.68732 42.65040
# Shear Modulus (GPa) = 25.41339 25.61239 25.51289
#
# Velocity S-wave (km/s) = 3.35193 3.36503 3.35849
# Velocity P-wave (km/s) = 5.58281 6.05169 5.82197
#
# Compressibility (1/GPa) = 0.02731235
#
# Stress axis : x y z
#
# Youngs Moduli (GPa) = 51.14700 126.40118 149.50757
#
# Poissons Ratio (x) = 0.10325 0.17295
# Poissons Ratio (y) = 0.04178 0.21617
# Poissons Ratio (z) = 0.05917 0.18276
#
# Static dielectric constant tensor:
#      x y z
#    x 1.874150 0.000000 0.000000 
#    y 0.000000 1.825510 0.000000 
#    z 0.000000 0.000000 1.852770 
# 
# From -- ./inp_files/1649.got.cif
#   From: 2010.05.17/outbox.cif.g08.bks.cpg/sg22_1_cif.got.tgz:1649.got - 2010.06.03 23:40:54.
