data_PCOD9325990
_publ_section_title
;
Structure prediction by ZEFSAII (Michael W. Deem and Ramdas Pophale) SiO2 
 PCOD9325990
Probable space group: F 2 2 2
;
_chemical_formula_sum "Si O2"
_cell_formula_units_Z 104
_cell_length_a 20.642315
_cell_length_b 13.576612
_cell_length_c 15.075038
_cell_angle_alpha 90.000000
_cell_angle_beta 90.000000
_cell_angle_gamma 90.000000
_cell_volume 4224.820125
_symmetry_space_group_name_H-M "F 2 2 2"
_symmetry_group_IT_number 22
_symmetry_cell_setting 'orthorhombic'
loop_
_space_group_symop_operation_xyz
x,y,z
-x,-y,z
x,-y,-z
-x,y,-z
x,1/2+y,1/2+z
-x,1/2-y,1/2+z
x,1/2-y,1/2-z
-x,1/2+y,1/2-z
1/2+x,y,1/2+z
1/2-x,-y,1/2+z
1/2+x,-y,1/2-z
1/2-x,y,1/2-z
1/2+x,1/2+y,z
1/2-x,1/2-y,z
1/2+x,1/2-y,-z
1/2-x,1/2+y,-z
loop_
_atom_site_type_symbol
_atom_site_label
_atom_site_fract_x
_atom_site_fract_y
_atom_site_fract_z
Si Si1 0.711560 0.616711 0.973756
Si Si2 0.639710 0.151163 0.645439
Si Si3 0.677773 0.927062 0.858185
Si Si4 0.498981 0.703585 0.892969
Si Si5 0.390010 0.420921 0.829753
Si Si6 0.038959 0.415579 0.907077
Si Si7 0.750000 0.912209 0.250000
O O1 0.777343 0.640540 0.920458
O O2 0.652684 0.629352 0.905817
O O3 0.716441 0.500000 0.000000
O O4 0.687566 0.669098 0.062623
O O5 0.575269 0.213785 0.637120
O O6 0.687282 0.150011 0.728045
O O7 0.614160 0.037290 0.648638
O O8 0.646355 0.897956 0.762962
O O9 0.612787 0.949607 0.912223
O O10 0.726111 0.015279 0.828702
O O11 0.538142 0.619664 0.841535
O O12 0.534815 0.805669 0.871569
O O13 0.500000 0.684121 0.000000
O O14 0.000000 0.500000 0.854684
O O15 0.000000 0.406307 0.000000
#
# Coordination Sequence:
#
# PCOD9325990 Si02
#       7
#    16  16  16  16  16  16   8
#     4  10  17  32  63  97 131 180 214 263 328 398
#     4  10  20  34  65 102 143 174 215 265 331 406
#     4  11  20  39  65  93 136 172 221 271 328 405
#     4  11  22  40  65  93 132 169 230 281 331 400
#     4  10  20  35  62 105 135 173 208 273 342 389
#     4  10  26  45  66  88 120 180 232 282 329 393
#     4  10  20  36  64 104 138 172 216 266 330 406
#
# _framework density 24.616434000000002
#
# number of rings (size 3 to 8) (size 9 to 14) (size 15 to 20)
#    0.000    1.692    6.154    0.462    2.154    3.692 
#    0.000    0.769    3.385    3.692    0.000    0.000 
#    0.000    0.000    0.000    0.000    0.000    0.308 
#
# Total GULP energy -145209.817230 kJ/mol
# GULP energy per Si atom -5584.992970 kJ/mol
# Density = 2.456041 g / cm^3
# Si number density = 24.616434 Si / 1000 Ang^3
#
#
#
# Elastic Constant Matrix: (Units=GPa)
#
#
# Indices 1 2 3 4 5 6 
#
# 1 154.2031 19.1803 25.8593 0.0000 0.0000 0.0000
# 2 19.1803 78.6757 9.5690 0.0000 0.0000 0.0000
# 3 25.8593 9.5690 91.3785 0.0000 0.0000 0.0000
# 4 0.0000 0.0000 0.0000 5.5550 0.0000 0.0000
# 5 0.0000 0.0000 0.0000 0.0000 46.8599 0.0000
# 6 0.0000 0.0000 0.0000 0.0000 0.0000 -184.5019
#
#
#
# Elastic Compliance Matrix: (Units=1/GPa)
#
#
# Indices 1 2 3 4 5 6 
#
# 1 0.006974 -0.001479 -0.001819 0.000000 0.000000 0.000000
# 2 -0.001479 0.013188 -0.000962 0.000000 0.000000 0.000000
# 3 -0.001819 -0.000962 0.011559 0.000000 0.000000 0.000000
# 4 0.000000 0.000000 0.000000 0.180018 0.000000 0.000000
# 5 0.000000 0.000000 0.000000 0.000000 0.021340 0.000000
# 6 0.000000 0.000000 0.000000 0.000000 0.000000 -0.005420
#
#
# Mechanical properties :
#
#
# Convention : Reuss Voigt Hill
#
# Bulk Modulus (GPa) = 43.10232 48.16383 45.63308
# Shear Modulus (GPa) = 20.49909 -8.44083 6.02913
#
# Velocity S-wave (km/s) = 2.88885 -1.85375 1.56670
# Velocity P-wave (km/s) = 5.35489 3.87638 4.67446
#
# Compressibility (1/GPa) = 0.02320061
#
# Stress axis : x y z
#
# Youngs Moduli (GPa) = 143.39180 75.82641 86.51300
#
# Poissons Ratio (x) = 0.11214 0.15734
# Poissons Ratio (y) = 0.21207 0.08327
# Poissons Ratio (z) = 0.26078 0.07298
#
# Static dielectric constant tensor:
#      x y z
#    x 1.925150 0.000000 0.000000 
#    y 0.000000 2.046680 0.000000 
#    z 0.000000 0.000000 2.366800 
# 
# From -- ./inp_files/38105.got.cif
#   From: 2010.05.17/outbox.cif.g08.bks.cpg/sg22_20_cif.got.tgz:38105.got - 2010.06.03 23:40:54.
