data_PCOD9325904
_publ_section_title
;
Structure prediction by ZEFSAII (Michael W. Deem and Ramdas Pophale) SiO2 
 PCOD9325904
Probable space group: F 2 2 2
;
_chemical_formula_sum "Si O2"
_cell_formula_units_Z 92
_cell_length_a 20.937085
_cell_length_b 26.889894
_cell_length_c 7.031663
_cell_angle_alpha 90.000000
_cell_angle_beta 90.000000
_cell_angle_gamma 90.000000
_cell_volume 3958.798116
_symmetry_space_group_name_H-M "F 2 2 2"
_symmetry_group_IT_number 22
_symmetry_cell_setting 'orthorhombic'
loop_
_space_group_symop_operation_xyz
x,y,z
-x,-y,z
x,-y,-z
-x,y,-z
x,1/2+y,1/2+z
-x,1/2-y,1/2+z
x,1/2-y,1/2-z
-x,1/2+y,1/2-z
1/2+x,y,1/2+z
1/2-x,-y,1/2+z
1/2+x,-y,1/2-z
1/2-x,y,1/2-z
1/2+x,1/2+y,z
1/2-x,1/2-y,z
1/2+x,1/2-y,-z
1/2-x,1/2+y,-z
loop_
_atom_site_type_symbol
_atom_site_label
_atom_site_fract_x
_atom_site_fract_y
_atom_site_fract_z
Si Si1 0.815819 0.224021 0.551156
Si Si2 0.324184 0.489320 0.276656
Si Si3 0.357419 0.620499 0.642357
Si Si4 0.500000 0.500000 0.500000
Si Si5 0.588732 0.072078 0.235948
Si Si6 0.574284 0.250000 0.250000
Si Si7 0.005443 0.846752 0.732654
O O1 0.830552 0.250000 0.750000
O O2 0.750000 0.250000 0.480603
O O3 0.809032 0.165670 0.602744
O O4 0.876466 0.232594 0.414583
O O5 0.337977 0.500000 0.500000
O O6 0.250000 0.497683 0.250000
O O7 0.338519 0.430684 0.252362
O O8 0.362586 0.533271 0.168339
O O9 0.375108 0.602827 0.428351
O O10 0.419242 0.642965 0.751282
O O11 0.540588 0.534931 0.632365
O O12 0.540875 0.111842 0.325834
O O13 0.526472 0.204737 0.293268
O O14 0.000000 0.849534 0.500000
#
# Coordination Sequence:
#
# PCOD9325904 Si02
#       7
#    16  16  16   4  16   8  16
#     4  11  26  45  63  92 131 183 226 268 332 398
#     4  10  21  37  61  91 124 164 210 258 325 392
#     4  10  19  38  60  87 124 167 214 261 327 399
#     4  12  12  28  64  92 114 152 208 258 318 382
#     4  10  16  32  57  92 120 152 206 264 317 384
#     4  12  23  42  68  98 127 172 226 286 324 390
#     4  10  19  35  60  93 126 157 214 279 325 387
#
# _framework density 23.239376
#
# number of rings (size 3 to 8) (size 9 to 14) (size 15 to 20)
#    0.000    1.565    8.696    0.261    3.652    0.000 
#    6.261    0.000    0.000    0.000    0.000    1.826 
#    0.000    0.000    0.000    0.000    0.000    0.000 
#
# Total GULP energy -128309.664620 kJ/mol
# GULP energy per Si atom -5578.681070 kJ/mol
# Density = 2.318648 g / cm^3
# Si number density = 23.239376 Si / 1000 Ang^3
#
#
#
# Elastic Constant Matrix: (Units=GPa)
#
#
# Indices 1 2 3 4 5 6 
#
# 1 148.8380 95.0398 1.0421 -0.0033 0.0040 0.0021
# 2 95.0398 226.9332 11.4821 -0.0028 0.0033 0.0024
# 3 1.0421 11.4821 68.5132 -0.0060 0.0063 0.0040
# 4 -0.0033 -0.0028 -0.0060 20.6392 0.0048 0.0037
# 5 0.0040 0.0033 0.0063 0.0048 22.1121 -0.0035
# 6 0.0021 0.0024 0.0040 0.0037 -0.0035 41.5788
#
#
#
# Elastic Compliance Matrix: (Units=1/GPa)
#
#
# Indices 1 2 3 4 5 6 
#
# 1 0.009189 -0.003874 0.000509 0.000001 -0.000001 0.000000
# 2 -0.003874 0.006078 -0.000960 0.000000 0.000000 0.000000
# 3 0.000509 -0.000960 0.014749 0.000004 -0.000004 -0.000001
# 4 0.000001 0.000000 0.000004 0.048451 -0.000010 -0.000004
# 5 -0.000001 0.000000 -0.000004 -0.000010 0.045224 0.000004
# 6 0.000000 0.000000 -0.000001 -0.000004 0.000004 0.024051
#
#
# Mechanical properties :
#
#
# Convention : Reuss Voigt Hill
#
# Bulk Modulus (GPa) = 46.80140 73.26805 60.03473
# Shear Modulus (GPa) = 30.57873 39.31406 34.94639
#
# Velocity S-wave (km/s) = 3.63135 4.11749 3.88204
# Velocity P-wave (km/s) = 6.14531 7.36213 6.78107
#
# Compressibility (1/GPa) = 0.02136688
#
# Stress axis : x y z
#
# Youngs Moduli (GPa) = 108.82637 164.53803 67.80213
#
# Poissons Ratio (x) = 0.63744 -0.03454
# Poissons Ratio (y) = 0.42161 0.06506
# Poissons Ratio (z) = -0.05545 0.15789
#
# Static dielectric constant tensor:
#      x y z
#    x 1.917430 0.000000 0.000000 
#    y 0.000000 1.924770 0.000000 
#    z 0.000000 0.000000 2.001270 
# 
# From -- ./inp_files/12893.got.cif
#   From: 2010.05.17/outbox.cif.g08.bks.cpg/sg22_7_cif.got.tgz:12893.got - 2010.06.03 23:40:54.
