data_PCOD9325092
_publ_section_title
;
Structure prediction by ZEFSAII (Michael W. Deem and Ramdas Pophale) SiO2 
 PCOD9325092
Probable space group: C 2 2 2
;
_chemical_formula_sum "Si O2"
_cell_formula_units_Z 36
_cell_length_a 21.869573
_cell_length_b 13.841502
_cell_length_c 5.545853
_cell_angle_alpha 90.000000
_cell_angle_beta 90.000000
_cell_angle_gamma 90.000000
_cell_volume 1678.772619
_symmetry_space_group_name_H-M "C 2 2 2"
_symmetry_group_IT_number 21
_symmetry_cell_setting 'orthorhombic'
loop_
_space_group_symop_operation_xyz
x,y,z
-x,-y,z
x,-y,-z
-x,y,-z
1/2+x,1/2+y,z
1/2-x,1/2-y,z
1/2+x,1/2-y,-z
1/2-x,1/2+y,-z
loop_
_atom_site_type_symbol
_atom_site_label
_atom_site_fract_x
_atom_site_fract_y
_atom_site_fract_z
Si Si1 0.133478 0.769825 0.715617
Si Si2 0.730220 0.390541 0.977449
Si Si3 0.851722 0.440827 0.748438
Si Si4 0.250000 0.750000 0.373701
Si Si5 0.430944 0.539684 0.740517
O O1 0.111913 0.660353 0.748654
O O2 0.185111 0.770810 0.505307
O O3 0.078126 0.845868 0.708680
O O4 0.176031 0.816654 0.923764
O O5 0.761409 0.345360 0.211350
O O6 0.710448 0.500000 0.000000
O O7 0.781895 0.399786 0.771427
O O8 0.860277 0.500000 0.500000
O O9 0.861271 0.500000 0.000000
O O10 0.500000 0.500000 0.731008
O O11 0.397434 0.500000 0.500000
O O12 0.410525 0.500000 0.000000
#
# Coordination Sequence:
#
# PCOD9325092 Si02
#       5
#     8   8   8   4   8
#     4  12  23  37  62  91 132 182 225 280 342 410
#     4  11  23  34  52  83 133 176 231 263 319 408
#     4  11  23  38  56  84 129 177 218 264 320 405
#     4  12  22  38  52  94 132 184 232 264 344 414
#     4  10  25  46  69 101 131 171 233 293 362 401
#
# _framework density 21.444236
#
# number of rings (size 3 to 8) (size 9 to 14) (size 15 to 20)
#    0.000    0.889    4.444    3.333    6.222    0.000 
#    0.000    0.000    0.000    0.000    0.000   18.667 
#    0.000    0.000    0.000    0.000    0.000    0.000 
#
# Total GULP energy -100210.353940 kJ/mol
# GULP energy per Si atom -5567.241886 kJ/mol
# Density = 2.139543 g / cm^3
# Si number density = 21.444236 Si / 1000 Ang^3
#
#
#
# Elastic Constant Matrix: (Units=GPa)
#
#
# Indices 1 2 3 4 5 6 
#
# 1 61.0858 40.7499 14.9914 0.0000 0.0000 0.0000
# 2 40.7499 212.7285 75.7208 0.0000 0.0000 0.0000
# 3 14.9914 75.7208 146.4006 0.0000 0.0000 0.0000
# 4 0.0000 0.0000 0.0000 33.3947 0.0000 0.0000
# 5 0.0000 0.0000 0.0000 0.0000 -15.6764 0.0000
# 6 0.0000 0.0000 0.0000 0.0000 0.0000 37.6516
#
#
#
# Elastic Compliance Matrix: (Units=1/GPa)
#
#
# Indices 1 2 3 4 5 6 
#
# 1 0.018770 -0.003568 -0.000076 0.000000 0.000000 0.000000
# 2 -0.003568 0.006440 -0.002965 0.000000 0.000000 0.000000
# 3 -0.000076 -0.002965 0.008372 0.000000 0.000000 0.000000
# 4 0.000000 0.000000 0.000000 0.029945 0.000000 0.000000
# 5 0.000000 0.000000 0.000000 0.000000 -0.063790 0.000000
# 6 0.000000 0.000000 0.000000 0.000000 0.000000 0.026559
#
#
# Mechanical properties :
#
#
# Convention : Reuss Voigt Hill
#
# Bulk Modulus (GPa) = 49.11264 75.90435 62.50850
# Shear Modulus (GPa) = 107.98435 30.32415 69.15425
#
# Velocity S-wave (km/s) = 7.10389 3.76452 5.68493
# Velocity P-wave (km/s) = 9.49943 7.37350 8.50317
#
# Compressibility (1/GPa) = 0.02036136
#
# Stress axis : x y z
#
# Youngs Moduli (GPa) = 53.27783 155.28176 119.44323
#
# Poissons Ratio (x) = 0.55408 0.00913
# Poissons Ratio (y) = 0.19011 0.35420
# Poissons Ratio (z) = 0.00407 0.46048
#
# Static dielectric constant tensor:
#      x y z
#    x 2.149840 0.000000 0.000000 
#    y 0.000000 1.886330 0.000000 
#    z 0.000000 0.000000 1.915230 
# 
# From -- ./inp_files/6585.got.cif
#   From: 2010.05.17/outbox.cif.g08.bks.cpg/sg21_4_cif.got.tgz:6585.got - 2010.06.03 23:14:55.
