data_PCOD9325345
_publ_section_title
;
Structure prediction by ZEFSAII (Michael W. Deem and Ramdas Pophale) SiO2 
 PCOD9325345
Probable space group: C 2 2 2
;
_chemical_formula_sum "Si O2"
_cell_formula_units_Z 58
_cell_length_a 9.681240
_cell_length_b 14.675224
_cell_length_c 23.159473
_cell_angle_alpha 90.000000
_cell_angle_beta 90.000000
_cell_angle_gamma 90.000000
_cell_volume 3290.367434
_symmetry_space_group_name_H-M "C 2 2 2"
_symmetry_group_IT_number 21
_symmetry_cell_setting 'orthorhombic'
loop_
_space_group_symop_operation_xyz
x,y,z
-x,-y,z
x,-y,-z
-x,y,-z
1/2+x,1/2+y,z
1/2-x,1/2-y,z
1/2+x,1/2-y,-z
1/2-x,1/2+y,-z
loop_
_atom_site_type_symbol
_atom_site_label
_atom_site_fract_x
_atom_site_fract_y
_atom_site_fract_z
Si Si1 0.211483 0.646849 0.656052
Si Si2 0.584217 0.243012 0.822057
Si Si3 0.667543 0.998504 0.567660
Si Si4 0.108779 0.309041 0.046485
Si Si5 0.964426 0.395611 0.267248
Si Si6 0.538085 0.397410 0.734022
Si Si7 0.215886 0.853919 0.342462
Si Si8 0.000000 0.500000 0.000000
O O1 0.250000 0.750000 0.646462
O O2 0.224760 0.587778 0.599150
O O3 0.056403 0.639181 0.679189
O O4 0.309045 0.608648 0.706954
O O5 0.750000 0.250000 0.813366
O O6 0.563562 0.219676 0.889065
O O7 0.513377 0.162515 0.786500
O O8 0.527268 0.333274 0.790104
O O9 0.500000 0.000000 0.574058
O O10 0.698920 0.000000 0.500000
O O11 0.736771 0.916972 0.604336
O O12 0.250000 0.250000 0.037364
O O13 0.000000 0.273447 0.000000
O O14 0.093866 0.422189 0.035602
O O15 0.000000 0.500000 0.258405
O O16 0.808579 0.382210 0.287102
O O17 0.500000 0.500000 0.748662
O O18 0.438747 0.365752 0.681344
O O19 0.250000 0.750000 0.356271
#
# Coordination Sequence:
#
# PCOD9325345 Si02
#       8
#     8   8   8   8   8   8   8   2
#     4  12  20  39  62  81 113 159 196 241 317 377
#     4  11  22  39  63  97 127 166 216 259 313 385
#     4  11  24  42  62  83 111 157 212 253 302 390
#     4   9  21  44  69  96 137 180 228 283 325 392
#     4  12  20  35  59  88 116 159 201 243 306 375
#     4  12  22  36  58  91 125 160 190 257 319 375
#     4  12  22  37  58  87 120 150 194 255 315 360
#     4   8  20  44  70  98 132 196 230 256 350 386
#
# _framework density 17.627210999999999
#
# number of rings (size 3 to 8) (size 9 to 14) (size 15 to 20)
#    0.414    0.414    8.276    0.000    0.966    0.552 
#    2.483    4.483    0.000    0.000    0.000    0.000 
#    0.000    0.000    0.000    0.000    0.000    0.000 
#
# Total GULP energy -161531.094072 kJ/mol
# GULP energy per Si atom -5570.037727 kJ/mol
# Density = 1.758709 g / cm^3
# Si number density = 17.627211 Si / 1000 Ang^3
#
#
#
# Elastic Constant Matrix: (Units=GPa)
#
#
# Indices 1 2 3 4 5 6 
#
# 1 37.9739 14.7390 22.7900 0.0000 0.0000 0.0000
# 2 14.7390 166.8365 60.1586 0.0000 0.0000 0.0000
# 3 22.7900 60.1586 137.6694 0.0000 0.0000 0.0000
# 4 0.0000 0.0000 0.0000 21.6566 0.0000 0.0000
# 5 0.0000 0.0000 0.0000 0.0000 63.9133 0.0000
# 6 0.0000 0.0000 0.0000 0.0000 0.0000 25.3195
#
#
#
# Elastic Compliance Matrix: (Units=1/GPa)
#
#
# Indices 1 2 3 4 5 6 
#
# 1 0.029378 -0.000999 -0.004427 0.000000 0.000000 0.000000
# 2 -0.000999 0.007149 -0.002959 0.000000 0.000000 0.000000
# 3 -0.004427 -0.002959 0.009289 0.000000 0.000000 0.000000
# 4 0.000000 0.000000 0.000000 0.046175 0.000000 0.000000
# 5 0.000000 0.000000 0.000000 0.000000 0.015646 0.000000
# 6 0.000000 0.000000 0.000000 0.000000 0.000000 0.039495
#
#
# Mechanical properties :
#
#
# Convention : Reuss Voigt Hill
#
# Bulk Modulus (GPa) = 34.42596 59.76167 47.09381
# Shear Modulus (GPa) = 28.80433 38.49736 33.65084
#
# Velocity S-wave (km/s) = 4.04676 4.67837 4.37398
# Velocity P-wave (km/s) = 6.43486 7.94730 7.23073
#
# Compressibility (1/GPa) = 0.02904785
#
# Stress axis : x y z
#
# Youngs Moduli (GPa) = 34.03864 139.88032 107.64954
#
# Poissons Ratio (x) = 0.13977 0.47653
# Poissons Ratio (y) = 0.03401 0.31849
# Poissons Ratio (z) = 0.15068 0.41384
#
# Static dielectric constant tensor:
#      x y z
#    x 1.615630 0.000000 0.000000 
#    y 0.000000 1.605210 0.000000 
#    z 0.000000 0.000000 1.577370 
# 
# From -- ./inp_files/38507.got.cif
#   From: 2010.05.17/outbox.cif.g08.bks.cpg/sg21_20_cif.got.tgz:38507.got - 2010.06.03 23:14:55.
