data_PCOD9325847
_publ_section_title
;
Structure prediction by ZEFSAII (Michael W. Deem and Ramdas Pophale) SiO2 
 PCOD9325847
Probable space group: C 2 2 2
;
_chemical_formula_sum "Si O2"
_cell_formula_units_Z 28
_cell_length_a 21.000000
_cell_length_b 9.000000
_cell_length_c 15.000000
_cell_angle_alpha 90.000000
_cell_angle_beta 90.000000
_cell_angle_gamma 90.000000
_cell_volume 2835.000000
_symmetry_space_group_name_H-M "C 2 2 2"
_symmetry_group_IT_number 21
_symmetry_cell_setting 'orthorhombic'
loop_
_space_group_symop_operation_xyz
x,y,z
-x,-y,z
x,-y,-z
-x,y,-z
1/2+x,1/2+y,z
1/2-x,1/2-y,z
1/2+x,1/2-y,-z
1/2-x,1/2+y,-z
loop_
_atom_site_type_symbol
_atom_site_label
_atom_site_fract_x
_atom_site_fract_y
_atom_site_fract_z
Si Si1 0.815031 0.327793 0.347559
Si Si2 0.913349 0.176448 0.478616
Si Si3 0.076727 0.821906 0.992664
Si Si4 0.604157 0.820983 0.199480
Si Si5 0.611539 0.172049 0.177546
Si Si6 0.990107 0.822716 0.691345
Si Si7 0.680040 0.179516 0.628326
O O1 0.750000 0.250000 0.369725
O O2 0.865164 0.226901 0.400335
O O3 0.826122 0.323297 0.240581
O O4 0.819306 0.499270 0.379667
O O5 0.977072 0.209911 0.414725
O O6 0.876664 0.254711 0.563839
O O7 0.914810 0.000000 0.500000
O O8 0.100613 0.763087 0.895864
O O9 0.108926 0.738283 0.077687
O O10 0.000000 0.795137 0.000000
O O11 0.086742 0.000000 0.000000
O O12 0.549163 0.762673 0.265323
O O13 0.664223 0.795529 0.265921
O O14 0.594392 0.996404 0.178752
O O15 0.563787 0.268429 0.239144
O O16 0.000000 0.000000 0.697494
O O17 0.750000 0.250000 0.607486
#
# Coordination Sequence:
#
# PCOD9325847 Si02
#       7
#     8   8   8   8   8   8   8
#     4  10  22  41  64  89 120 159 208 257 302 356
#     4  11  23  39  61  88 121 164 202 250 305 361
#     4  11  22  37  62  94 125 162 201 245 297 365
#     4  11  23  39  63  91 125 163 202 251 302 363
#     4  10  22  39  61  92 123 161 204 246 306 361
#     4  11  22  37  59  90 125 157 201 248 303 363
#     4  11  24  42  64  90 120 161 210 254 302 359
#
# _framework density 9.8765429999999999
#
# number of rings (size 3 to 8) (size 9 to 14) (size 15 to 20)
#    0.000    1.286    1.429    4.286    0.000    6.000 
#    0.000    2.143    0.000   10.286    0.000    0.000 
#    0.000    0.000    0.000    0.000    0.000    0.000 
#
# Total GULP energy -155999.439142 kJ/mol
# GULP energy per Si atom -5571.408541 kJ/mol
# Density = 0.985406 g / cm^3
# Si number density = 9.876543 Si / 1000 Ang^3
#
#
#
# Elastic Constant Matrix: (Units=GPa)
#
#
# Indices 1 2 3 4 5 6 
#
# 1 26.2813 26.8836 22.7257 0.0000 0.0000 0.0000
# 2 26.8836 111.6294 58.1867 0.0000 0.0000 0.0000
# 3 22.7257 58.1867 200.5884 0.0000 0.0000 0.0000
# 4 0.0000 0.0000 0.0000 42.0811 0.0000 0.0000
# 5 0.0000 0.0000 0.0000 0.0000 18.9921 0.0000
# 6 0.0000 0.0000 0.0000 0.0000 0.0000 25.3925
#
#
#
# Elastic Compliance Matrix: (Units=1/GPa)
#
#
# Indices 1 2 3 4 5 6 
#
# 1 0.051650 -0.011061 -0.002643 0.000000 0.000000 0.000000
# 2 -0.011061 0.012923 -0.002495 0.000000 0.000000 0.000000
# 3 -0.002643 -0.002495 0.006009 0.000000 0.000000 0.000000
# 4 0.000000 0.000000 0.000000 0.023764 0.000000 0.000000
# 5 0.000000 0.000000 0.000000 0.000000 0.052653 0.000000
# 6 0.000000 0.000000 0.000000 0.000000 0.000000 0.039382
#
#
# Mechanical properties :
#
#
# Convention : Reuss Voigt Hill
#
# Bulk Modulus (GPa) = 26.19024 61.56567 43.87795
# Shear Modulus (GPa) = 21.59762 32.67334 27.13548
#
# Velocity S-wave (km/s) = 3.31022 4.07146 3.71041
# Velocity P-wave (km/s) = 5.28182 7.30326 6.37320
#
# Compressibility (1/GPa) = 0.03818217
#
# Stress axis : x y z
#
# Youngs Moduli (GPa) = 19.36107 77.38257 166.42609
#
# Poissons Ratio (x) = 0.85594 0.43988
# Poissons Ratio (y) = 0.21415 0.41531
# Poissons Ratio (z) = 0.05117 0.19311
#
# Static dielectric constant tensor:
#      x y z
#    x 1.825120 0.000000 0.000000 
#    y 0.000000 1.655760 0.000000 
#    z 0.000000 0.000000 1.706030 
# 
# From -- ./inp_files/33315.got.cif
#   From: 2010.05.17/outbox.ucp.g08.bks.cvg/sg21_17_cif.got.tgz:33315.got - 2010.06.11 15:15:05.
