data_PCOD9325999
_publ_section_title
;
Structure prediction by ZEFSAII (Michael W. Deem and Ramdas Pophale) SiO2 
 PCOD9325999
Probable space group: F 2 2 2
;
_chemical_formula_sum "Si O2"
_cell_formula_units_Z 72
_cell_length_a 8.569354
_cell_length_b 15.171596
_cell_length_c 27.327510
_cell_angle_alpha 90.000000
_cell_angle_beta 90.000000
_cell_angle_gamma 90.000000
_cell_volume 3552.870805
_symmetry_space_group_name_H-M "F 2 2 2"
_symmetry_group_IT_number 22
_symmetry_cell_setting 'orthorhombic'
loop_
_space_group_symop_operation_xyz
x,y,z
-x,-y,z
x,-y,-z
-x,y,-z
x,1/2+y,1/2+z
-x,1/2-y,1/2+z
x,1/2-y,1/2-z
-x,1/2+y,1/2-z
1/2+x,y,1/2+z
1/2-x,-y,1/2+z
1/2+x,-y,1/2-z
1/2-x,y,1/2-z
1/2+x,1/2+y,z
1/2-x,1/2-y,z
1/2+x,1/2-y,-z
1/2-x,1/2+y,-z
loop_
_atom_site_type_symbol
_atom_site_label
_atom_site_fract_x
_atom_site_fract_y
_atom_site_fract_z
Si Si1 0.750000 0.250000 0.866016
Si Si2 0.000000 0.500000 0.000000
Si Si3 0.323187 0.040505 0.659559
Si Si4 0.500000 0.500000 0.000000
Si Si5 0.750000 0.933105 0.250000
Si Si6 0.752401 0.928386 0.429164
Si Si7 0.515423 0.306408 0.205733
O O1 0.749293 0.338771 0.898171
O O2 0.598160 0.253795 0.831091
O O3 0.103101 0.561027 0.965060
O O4 0.356839 0.140491 0.674629
O O5 0.500000 0.000000 0.658026
O O6 0.225990 0.994865 0.702989
O O7 0.249828 0.010866 0.608617
O O8 0.603992 0.440092 0.964398
O O9 0.603833 0.873868 0.266301
O O10 0.579832 0.250000 0.250000
#
# Coordination Sequence:
#
# PCOD9325999 Si02
#       7
#     8   4  16   4   8  16  16
#     4  12  19  34  62  88 118 156 202 249 302 362
#     4  10  28  44  64  88 120 152 208 266 328 358
#     4  10  19  35  60  89 118 164 201 237 298 365
#     4  10  20  40  68  84 112 156 200 254 304 378
#     4  10  17  34  55  86 124 160 194 234 293 361
#     4  11  21  42  64  91 116 157 205 255 311 367
#     4  11  18  33  56  90 124 164 204 242 286 358
#
# _framework density 20.265301000000001
#
# number of rings (size 3 to 8) (size 9 to 14) (size 15 to 20)
#    0.000    1.333    7.778    0.000    0.000    0.889 
#   10.000    0.556    0.000    0.000    0.000    0.000 
#    0.000    0.000    0.000    0.000    0.000    0.000 
#
# Total GULP energy -100502.138505 kJ/mol
# GULP energy per Si atom -5583.452139 kJ/mol
# Density = 2.021918 g / cm^3
# Si number density = 20.265301 Si / 1000 Ang^3
#
#
#
# Elastic Constant Matrix: (Units=GPa)
#
#
# Indices 1 2 3 4 5 6 
#
# 1 71.5026 35.9391 58.4431 0.0000 0.0000 0.0000
# 2 35.9391 100.2158 66.0167 0.0000 0.0000 0.0000
# 3 58.4431 66.0167 172.9574 0.0000 0.0000 0.0000
# 4 0.0000 0.0000 0.0000 29.8232 0.0000 0.0000
# 5 0.0000 0.0000 0.0000 0.0000 5.3753 0.0000
# 6 0.0000 0.0000 0.0000 0.0000 0.0000 7.8481
#
#
#
# Elastic Compliance Matrix: (Units=1/GPa)
#
#
# Indices 1 2 3 4 5 6 
#
# 1 0.020293 -0.003688 -0.005450 0.000000 0.000000 0.000000
# 2 -0.003688 0.014000 -0.004098 0.000000 0.000000 0.000000
# 3 -0.005450 -0.004098 0.009187 0.000000 0.000000 0.000000
# 4 0.000000 0.000000 0.000000 0.033531 0.000000 0.000000
# 5 0.000000 0.000000 0.000000 0.000000 0.186035 0.000000
# 6 0.000000 0.000000 0.000000 0.000000 0.000000 0.127419
#
#
# Mechanical properties :
#
#
# Convention : Reuss Voigt Hill
#
# Bulk Modulus (GPa) = 58.78592 73.94150 66.36371
# Shear Modulus (GPa) = 11.83134 20.89446 16.36290
#
# Velocity S-wave (km/s) = 2.41886 3.21447 2.84462
# Velocity P-wave (km/s) = 6.07226 7.09529 6.60361
#
# Compressibility (1/GPa) = 0.01701088
#
# Stress axis : x y z
#
# Youngs Moduli (GPa) = 49.27734 71.42717 108.84562
#
# Poissons Ratio (x) = 0.26339 0.59317
# Poissons Ratio (y) = 0.18171 0.44602
# Poissons Ratio (z) = 0.26855 0.29269
#
# Static dielectric constant tensor:
#      x y z
#    x 1.751260 0.000000 0.000000 
#    y 0.000000 1.764220 0.000000 
#    z 0.000000 0.000000 1.696900 
# 
# From -- ./inp_files/51712.got.cif
#   From: 2010.05.17/outbox.cif.g08.bks.cpg/sg22_26_cif.got.tgz:51712.got - 2010.06.03 23:40:54.
