data_PCOD9325789
_publ_section_title
;
Structure prediction by ZEFSAII (Michael W. Deem and Ramdas Pophale) SiO2 
 PCOD9325789
Probable space group: C 2 2 2
;
_chemical_formula_sum "Si O2"
_cell_formula_units_Z 32
_cell_length_a 13.816121
_cell_length_b 6.043759
_cell_length_c 16.266011
_cell_angle_alpha 90.000000
_cell_angle_beta 90.000000
_cell_angle_gamma 90.000000
_cell_volume 1358.233156
_symmetry_space_group_name_H-M "C 2 2 2"
_symmetry_group_IT_number 21
_symmetry_cell_setting 'orthorhombic'
loop_
_space_group_symop_operation_xyz
x,y,z
-x,-y,z
x,-y,-z
-x,y,-z
1/2+x,1/2+y,z
1/2-x,1/2-y,z
1/2+x,1/2-y,-z
1/2-x,1/2+y,-z
loop_
_atom_site_type_symbol
_atom_site_label
_atom_site_fract_x
_atom_site_fract_y
_atom_site_fract_z
Si Si1 0.112631 0.950702 0.739770
Si Si2 0.250000 0.250000 0.631206
Si Si3 0.500000 0.500000 0.500000
Si Si4 0.500000 0.000000 0.000000
Si Si5 0.357898 0.337003 0.074627
Si Si6 0.602986 0.878699 0.393898
O O1 0.133543 0.944322 0.836032
O O2 0.132022 0.717176 0.695008
O O3 0.173559 0.128712 0.689865
O O4 0.000000 0.000000 0.728252
O O5 0.186579 0.440794 0.585267
O O6 0.572922 0.663464 0.449316
O O7 0.432933 0.141159 0.060438
O O8 0.250000 0.250000 0.064919
O O9 0.378721 0.500000 0.000000
O O10 0.500000 0.000000 0.389955
#
# Coordination Sequence:
#
# PCOD9325789 Si02
#       6
#     8   4   2   2   8   8
#     4  12  26  47  80 116 158 211 271 336 397 489
#     4  12  26  48  86 118 158 214 268 326 414 490
#     4  12  26  52  92 118 166 216 264 348 418 492
#     4  12  26  48  72 104 156 206 258 340 400 464
#     4  12  27  46  73 113 158 210 270 331 402 473
#     4  12  25  50  87 118 161 215 267 335 414 492
#
# _framework density 23.560020999999999
#
# number of rings (size 3 to 8) (size 9 to 14) (size 15 to 20)
#    0.000    0.000    5.000    4.500    3.500    4.000 
#    0.000    0.000   77.000    0.000    0.000    0.000 
#    0.000    0.000    0.000    0.000    0.000    0.000 
#
# Total GULP energy -89606.003850 kJ/mol
# GULP energy per Si atom -5600.375241 kJ/mol
# Density = 2.350640 g / cm^3
# Si number density = 23.560021 Si / 1000 Ang^3
#
#
#
# Elastic Constant Matrix: (Units=GPa)
#
#
# Indices 1 2 3 4 5 6 
#
# 1 177.8243 81.8875 44.6071 0.0000 0.0000 0.0000
# 2 81.8875 146.3809 82.5765 0.0000 0.0000 0.0000
# 3 44.6071 82.5765 171.0991 0.0000 0.0000 0.0000
# 4 0.0000 0.0000 0.0000 27.9489 0.0000 0.0000
# 5 0.0000 0.0000 0.0000 0.0000 -8.8653 0.0000
# 6 0.0000 0.0000 0.0000 0.0000 0.0000 52.3936
#
#
#
# Elastic Compliance Matrix: (Units=1/GPa)
#
#
# Indices 1 2 3 4 5 6 
#
# 1 0.007576 -0.004293 0.000097 0.000000 0.000000 0.000000
# 2 -0.004293 0.011819 -0.004585 0.000000 0.000000 0.000000
# 3 0.000097 -0.004585 0.008032 0.000000 0.000000 0.000000
# 4 0.000000 0.000000 0.000000 0.035780 0.000000 0.000000
# 5 0.000000 0.000000 0.000000 0.000000 -0.112800 0.000000
# 6 0.000000 0.000000 0.000000 0.000000 0.000000 0.019086
#
#
# Mechanical properties :
#
#
# Convention : Reuss Voigt Hill
#
# Bulk Modulus (GPa) = 101.36554 101.49407 101.42980
# Shear Modulus (GPa) = -517.85896 33.37767 -242.24064
#
# Velocity S-wave (km/s) = -14.84188 3.76800 -10.15095
# Velocity P-wave (km/s) = 15.83005 7.88054 9.70793
#
# Compressibility (1/GPa) = 0.00986529
#
# Stress axis : x y z
#
# Youngs Moduli (GPa) = 131.99511 84.60620 124.49689
#
# Poissons Ratio (x) = 0.36318 -0.01202
# Poissons Ratio (y) = 0.56660 0.57085
# Poissons Ratio (z) = -0.01275 0.38794
#
# Static dielectric constant tensor:
#      x y z
#    x 1.846340 0.000000 0.000000 
#    y 0.000000 1.932130 0.000000 
#    z 0.000000 0.000000 1.999070 
# 
# From -- ./inp_files/34409.got.cif
#   From: 2010.05.17/outbox.cif.g08.bks.cpg/sg21_18_cif.got.tgz:34409.got - 2010.06.03 23:14:55.
