data_PCOD9325026
_publ_section_title
;
Structure prediction by ZEFSAII (Michael W. Deem and Ramdas Pophale) SiO2 
 PCOD9325026
Probable space group: C 2 2 2
;
_chemical_formula_sum "Si O2"
_cell_formula_units_Z 42
_cell_length_a 17.959906
_cell_length_b 17.454680
_cell_length_c 5.101304
_cell_angle_alpha 90.000000
_cell_angle_beta 90.000000
_cell_angle_gamma 90.000000
_cell_volume 1599.179285
_symmetry_space_group_name_H-M "C 2 2 2"
_symmetry_group_IT_number 21
_symmetry_cell_setting 'orthorhombic'
loop_
_space_group_symop_operation_xyz
x,y,z
-x,-y,z
x,-y,-z
-x,y,-z
1/2+x,1/2+y,z
1/2-x,1/2-y,z
1/2+x,1/2-y,-z
1/2-x,1/2+y,-z
loop_
_atom_site_type_symbol
_atom_site_label
_atom_site_fract_x
_atom_site_fract_y
_atom_site_fract_z
Si Si1 0.000000 0.646395 0.000000
Si Si2 0.000000 0.000000 0.500000
Si Si3 0.796870 0.126805 0.126280
Si Si4 0.601626 0.500000 0.000000
Si Si5 0.500000 0.251994 0.500000
Si Si6 0.254662 0.000000 0.500000
Si Si7 0.160808 0.748253 0.477755
Si Si8 0.653037 0.895585 0.179380
O O1 0.983400 0.701165 0.754506
O O2 0.072876 0.597995 0.943946
O O3 0.057556 0.026255 0.735523
O O4 0.788044 0.073014 0.383765
O O5 0.831937 0.207486 0.201293
O O6 0.846438 0.073186 0.939308
O O7 0.714940 0.138901 0.013648
O O8 0.581229 0.289245 0.568598
O O9 0.309650 0.972565 0.725507
O O10 0.250000 0.750000 0.562774
O O11 0.144307 0.662185 0.573652
#
# Coordination Sequence:
#
# PCOD9325026 Si02
#       8
#     4   2   8   4   4   4   8   8
#     4  10  24  46  75 104 160 197 258 334 402 481
#     4  10  26  48  76 116 148 218 260 332 410 496
#     4  12  25  46  77 115 155 214 267 340 407 499
#     4  11  24  48  80 111 166 200 272 335 402 492
#     4  10  24  47  72 112 154 201 264 338 396 489
#     4  12  23  48  73 116 160 206 284 330 415 502
#     4  11  24  46  75 110 152 207 268 329 412 483
#     4  11  25  47  77 113 160 214 270 343 412 501
#
# _framework density 26.263470000000002
#
# number of rings (size 3 to 8) (size 9 to 14) (size 15 to 20)
#    0.000    0.952    3.810    1.714    2.667    4.571 
#    0.000    6.667    0.000    4.571    0.000    0.000 
#    0.000    0.000    0.000    0.000    0.000    0.000 
#
# Total GULP energy -116924.574121 kJ/mol
# GULP energy per Si atom -5567.836863 kJ/mol
# Density = 2.620369 g / cm^3
# Si number density = 26.263470 Si / 1000 Ang^3
#
#
#
# Elastic Constant Matrix: (Units=GPa)
#
#
# Indices 1 2 3 4 5 6 
#
# 1 228.2535 29.5562 24.3644 0.0000 0.0000 0.0000
# 2 29.5562 87.2520 32.1705 0.0000 0.0000 0.0000
# 3 24.3644 32.1705 130.1596 0.0000 0.0000 0.0000
# 4 0.0000 0.0000 0.0000 44.4534 0.0000 0.0000
# 5 0.0000 0.0000 0.0000 0.0000 38.9206 0.0000
# 6 0.0000 0.0000 0.0000 0.0000 0.0000 10.0850
#
#
#
# Elastic Compliance Matrix: (Units=1/GPa)
#
#
# Indices 1 2 3 4 5 6 
#
# 1 0.004614 -0.001369 -0.000525 0.000000 0.000000 0.000000
# 2 -0.001369 0.013017 -0.002961 0.000000 0.000000 0.000000
# 3 -0.000525 -0.002961 0.008513 0.000000 0.000000 0.000000
# 4 0.000000 0.000000 0.000000 0.022495 0.000000 0.000000
# 5 0.000000 0.000000 0.000000 0.000000 0.025693 0.000000
# 6 0.000000 0.000000 0.000000 0.000000 0.000000 0.099157
#
#
# Mechanical properties :
#
#
# Convention : Reuss Voigt Hill
#
# Bulk Modulus (GPa) = 60.85352 68.64969 64.75160
# Shear Modulus (GPa) = 26.49999 42.66338 34.58169
#
# Velocity S-wave (km/s) = 3.17993 4.03480 3.63260
# Velocity P-wave (km/s) = 6.05833 6.92111 6.50404
#
# Compressibility (1/GPa) = 0.01643290
#
# Stress axis : x y z
#
# Youngs Moduli (GPa) = 216.70842 76.82465 117.46704
#
# Poissons Ratio (x) = 0.10521 0.06171
# Poissons Ratio (y) = 0.29677 0.34781
# Poissons Ratio (z) = 0.11384 0.22747
#
# Static dielectric constant tensor:
#      x y z
#    x 2.165760 0.000000 0.000000 
#    y 0.000000 2.042950 0.000000 
#    z 0.000000 0.000000 2.145000 
# 
# From -- ./inp_files/5167.got.cif
#   From: 2010.05.17/outbox.cif.g08.bks.cpg/sg21_3_cif.got.tgz:5167.got - 2010.06.03 23:14:55.
