data_PCOD9325441
_publ_section_title
;
Structure prediction by ZEFSAII (Michael W. Deem and Ramdas Pophale) SiO2 
 PCOD9325441
Probable space group: C 2 2 2
;
_chemical_formula_sum "Si O2"
_cell_formula_units_Z 58
_cell_length_a 11.050873
_cell_length_b 26.373519
_cell_length_c 8.824821
_cell_angle_alpha 90.000000
_cell_angle_beta 90.000000
_cell_angle_gamma 90.000000
_cell_volume 2571.997690
_symmetry_space_group_name_H-M "C 2 2 2"
_symmetry_group_IT_number 21
_symmetry_cell_setting 'orthorhombic'
loop_
_space_group_symop_operation_xyz
x,y,z
-x,-y,z
x,-y,-z
-x,y,-z
1/2+x,1/2+y,z
1/2-x,1/2-y,z
1/2+x,1/2-y,-z
1/2-x,1/2+y,-z
loop_
_atom_site_type_symbol
_atom_site_label
_atom_site_fract_x
_atom_site_fract_y
_atom_site_fract_z
Si Si1 0.804516 0.645236 0.375474
Si Si2 0.000000 0.000000 0.500000
Si Si3 0.510365 0.803663 0.820857
Si Si4 0.164765 0.949962 0.737874
Si Si5 0.377096 0.979423 0.171530
Si Si6 0.699858 0.874291 0.732020
Si Si7 0.528449 0.382167 0.159516
Si Si8 0.570408 0.706583 0.348355
O O1 0.926549 0.662415 0.291808
O O2 0.750477 0.598535 0.280425
O O3 0.808612 0.626145 0.549360
O O4 0.711261 0.692943 0.371794
O O5 0.911764 0.963780 0.408419
O O6 0.647099 0.819824 0.780326
O O7 0.465819 0.747583 0.777429
O O8 0.500000 0.812914 0.000000
O O9 0.056530 0.932199 0.848373
O O10 0.252182 0.997099 0.767825
O O11 0.378420 0.919390 0.194157
O O12 0.500000 0.000000 0.247188
O O13 0.378336 0.000000 0.000000
O O14 0.831381 0.886282 0.801222
O O15 0.481263 0.347426 0.295746
O O16 0.500000 0.355692 0.000000
O O17 0.500000 0.722763 0.500000
#
# Coordination Sequence:
#
# PCOD9325441 Si02
#       8
#     8   2   8   8   8   8   8   8
#     4  11  24  46  72 102 141 194 245 314 380 465
#     4  12  24  40  68 104 140 184 254 310 380 456
#     4  12  29  45  70 103 144 194 247 314 394 465
#     4  11  23  41  69  99 143 183 242 307 376 437
#     4  11  25  42  69 105 151 202 255 314 383 459
#     4  12  25  45  72 103 148 197 259 310 386 469
#     4  11  24  41  71 106 143 189 242 313 386 455
#     4  11  23  47  74 105 144 186 246 310 383 462
#
# _framework density 22.550564999999999
#
# number of rings (size 3 to 8) (size 9 to 14) (size 15 to 20)
#    0.000    0.690    1.379    6.207    9.655    0.552 
#    2.483    3.793    0.000    0.000    0.000    0.000 
#    0.000    0.000    0.000    0.000    0.000    0.000 
#
# Total GULP energy -161912.434661 kJ/mol
# GULP energy per Si atom -5583.187402 kJ/mol
# Density = 2.249924 g / cm^3
# Si number density = 22.550565 Si / 1000 Ang^3
#
#
#
# Elastic Constant Matrix: (Units=GPa)
#
#
# Indices 1 2 3 4 5 6 
#
# 1 103.3814 15.3549 25.9131 0.0000 0.0000 0.0000
# 2 15.3549 79.6260 0.8440 0.0000 0.0000 0.0000
# 3 25.9131 0.8440 101.4092 0.0000 0.0000 0.0000
# 4 0.0000 0.0000 0.0000 26.5948 0.0000 0.0000
# 5 0.0000 0.0000 0.0000 0.0000 21.8439 0.0000
# 6 0.0000 0.0000 0.0000 0.0000 0.0000 -0.0191
#
#
#
# Elastic Compliance Matrix: (Units=1/GPa)
#
#
# Indices 1 2 3 4 5 6 
#
# 1 0.010652 -0.002025 -0.002705 0.000000 0.000000 0.000000
# 2 -0.002025 0.012945 0.000410 0.000000 0.000000 0.000000
# 3 -0.002705 0.000410 0.010549 0.000000 0.000000 0.000000
# 4 0.000000 0.000000 0.000000 0.037601 0.000000 0.000000
# 5 0.000000 0.000000 0.000000 0.000000 0.045779 0.000000
# 6 0.000000 0.000000 0.000000 0.000000 0.000000-52.365631
#
#
# Mechanical properties :
#
#
# Convention : Reuss Voigt Hill
#
# Bulk Modulus (GPa) = 39.20893 40.96008 40.08451
# Shear Modulus (GPa) = -0.09573 25.83756 12.87092
#
# Velocity S-wave (km/s) = -0.20626 3.38858 2.39165
# Velocity P-wave (km/s) = 4.16751 5.78905 5.04387
#
# Compressibility (1/GPa) = 0.02550439
#
# Stress axis : x y z
#
# Youngs Moduli (GPa) = 93.88120 77.25028 94.79722
#
# Poissons Ratio (x) = 0.15646 0.25643
# Poissons Ratio (y) = 0.19015 -0.03885
# Poissons Ratio (z) = 0.25395 -0.03166
#
# Static dielectric constant tensor:
#      x y z
#    x 1.900510 0.000000 0.000000 
#    y 0.000000 1.886630 0.000000 
#    z 0.000000 0.000000 2.033080 
# 
# From -- ./inp_files/13541.got.cif
#   From: 2010.05.17/outbox.cif.g08.bks.cpg/sg21_7_cif.got.tgz:13541.got - 2010.06.03 23:14:55.
