data_PCOD9325296
_publ_section_title
;
Structure prediction by ZEFSAII (Michael W. Deem and Ramdas Pophale) SiO2 
 PCOD9325296
Probable space group: C 2 2 2
;
_chemical_formula_sum "Si O2"
_cell_formula_units_Z 34
_cell_length_a 13.554905
_cell_length_b 8.061018
_cell_length_c 15.151224
_cell_angle_alpha 90.000000
_cell_angle_beta 90.000000
_cell_angle_gamma 90.000000
_cell_volume 1655.518690
_symmetry_space_group_name_H-M "C 2 2 2"
_symmetry_group_IT_number 21
_symmetry_cell_setting 'orthorhombic'
loop_
_space_group_symop_operation_xyz
x,y,z
-x,-y,z
x,-y,-z
-x,y,-z
1/2+x,1/2+y,z
1/2-x,1/2-y,z
1/2+x,1/2-y,-z
1/2-x,1/2+y,-z
loop_
_atom_site_type_symbol
_atom_site_label
_atom_site_fract_x
_atom_site_fract_y
_atom_site_fract_z
Si Si1 0.149316 0.336194 0.367303
Si Si2 0.471779 0.692069 0.795567
Si Si3 0.839163 0.637323 0.069423
Si Si4 0.000000 0.500000 0.500000
Si Si5 0.172623 0.394816 0.771509
O O1 0.250000 0.250000 0.398561
O O2 0.099644 0.229693 0.287815
O O3 0.175843 0.509767 0.320507
O O4 0.069478 0.382095 0.440734
O O5 0.500000 0.500000 0.795713
O O6 0.420255 0.743805 0.887296
O O7 0.565074 0.814554 0.785244
O O8 0.750000 0.750000 0.033265
O O9 0.803274 0.528956 0.153095
O O10 0.874019 0.500000 0.000000
O O11 0.250000 0.250000 0.775629
#
# Coordination Sequence:
#
# PCOD9325296 Si02
#       5
#     8   8   8   2   8
#     4  11  23  44  69  96 139 178 223 281 347 414
#     4  11  22  42  68  99 130 179 231 270 336 417
#     4  11  23  40  61  95 134 173 221 285 334 392
#     4  12  24  48  66 106 146 172 226 300 352 410
#     4  11  21  40  69  96 129 180 222 273 335 412
#
# _framework density 20.537371
#
# number of rings (size 3 to 8) (size 9 to 14) (size 15 to 20)
#    0.000    0.941    2.353    8.471    0.000    2.824 
#    4.235    1.176    0.000    0.000    0.000    0.000 
#    0.000    0.000    0.000    0.000    0.000    0.000 
#
# Total GULP energy -95070.630785 kJ/mol
# GULP energy per Si atom -5592.390046 kJ/mol
# Density = 2.049063 g / cm^3
# Si number density = 20.537371 Si / 1000 Ang^3
#
#
#
# Elastic Constant Matrix: (Units=GPa)
#
#
# Indices 1 2 3 4 5 6 
#
# 1 112.2477 37.4367 29.2058 0.0000 0.0000 0.0000
# 2 37.4367 120.0781 22.8591 0.0000 0.0000 0.0000
# 3 29.2058 22.8591 86.6499 0.0000 0.0000 0.0000
# 4 0.0000 0.0000 0.0000 -45.9933 0.0000 0.0000
# 5 0.0000 0.0000 0.0000 0.0000 21.8527 0.0000
# 6 0.0000 0.0000 0.0000 0.0000 0.0000 44.0520
#
#
#
# Elastic Compliance Matrix: (Units=1/GPa)
#
#
# Indices 1 2 3 4 5 6 
#
# 1 0.010565 -0.002754 -0.002834 0.000000 0.000000 0.000000
# 2 -0.002754 0.009486 -0.001574 0.000000 0.000000 0.000000
# 3 -0.002834 -0.001574 0.012911 0.000000 0.000000 0.000000
# 4 0.000000 0.000000 0.000000 -0.021742 0.000000 0.000000
# 5 0.000000 0.000000 0.000000 0.000000 0.045761 0.000000
# 6 0.000000 0.000000 0.000000 0.000000 0.000000 0.022700
#
#
# Mechanical properties :
#
#
# Convention : Reuss Voigt Hill
#
# Bulk Modulus (GPa) = 53.65717 55.33099 54.49408
# Shear Modulus (GPa) = 49.89042 19.28054 34.58548
#
# Velocity S-wave (km/s) = 4.93409 3.06731 4.10814
# Velocity P-wave (km/s) = 7.65791 6.28845 7.00672
#
# Compressibility (1/GPa) = 0.01863684
#
# Stress axis : x y z
#
# Youngs Moduli (GPa) = 94.65264 105.41523 77.45126
#
# Poissons Ratio (x) = 0.29034 0.21953
# Poissons Ratio (y) = 0.26070 0.12193
# Poissons Ratio (z) = 0.26828 0.16595
#
# Static dielectric constant tensor:
#      x y z
#    x 1.781500 0.000000 0.000000 
#    y 0.000000 1.667850 0.000000 
#    z 0.000000 0.000000 1.728430 
# 
# From -- ./inp_files/29956.got.cif
#   From: 2010.05.17/outbox.cif.g08.bks.cpg/sg21_15_cif.got.tgz:29956.got - 2010.06.03 23:14:55.
