data_PCOD9325710
_publ_section_title
;
Structure prediction by ZEFSAII (Michael W. Deem and Ramdas Pophale) SiO2 
 PCOD9325710
Probable space group: C 2 2 2
;
_chemical_formula_sum "Si O2"
_cell_formula_units_Z 26
_cell_length_a 12.717482
_cell_length_b 13.999575
_cell_length_c 6.811056
_cell_angle_alpha 90.000000
_cell_angle_beta 90.000000
_cell_angle_gamma 90.000000
_cell_volume 1212.635936
_symmetry_space_group_name_H-M "C 2 2 2"
_symmetry_group_IT_number 21
_symmetry_cell_setting 'orthorhombic'
loop_
_space_group_symop_operation_xyz
x,y,z
-x,-y,z
x,-y,-z
-x,y,-z
1/2+x,1/2+y,z
1/2-x,1/2-y,z
1/2+x,1/2-y,-z
1/2-x,1/2+y,-z
loop_
_atom_site_type_symbol
_atom_site_label
_atom_site_fract_x
_atom_site_fract_y
_atom_site_fract_z
Si Si1 0.726220 0.612338 0.030770
Si Si2 0.750000 0.750000 0.388434
Si Si3 0.896607 0.326273 0.288052
Si Si4 0.500000 0.000000 0.500000
Si Si5 0.500000 0.298558 0.000000
O O1 0.745607 0.657989 0.245539
O O2 0.739095 0.500000 0.000000
O O3 0.808958 0.659378 0.880440
O O4 0.605423 0.640033 0.988240
O O5 0.847243 0.734936 0.536017
O O6 0.931232 0.428990 0.367537
O O7 0.993191 0.271280 0.187223
#
# Coordination Sequence:
#
# PCOD9325710 Si02
#       5
#     8   4   8   2   4
#     4  12  26  46  75 106 149 191 245 308 358 438
#     4  12  22  52  74 102 154 190 240 310 364 428
#     4  12  26  48  72 110 145 192 249 306 363 434
#     4  12  28  42  80 112 142 196 260 286 376 438
#     4  12  23  49  70 100 152 196 233 304 379 412
#
# _framework density 21.440895000000001
#
# number of rings (size 3 to 8) (size 9 to 14) (size 15 to 20)
#    0.000    0.000    6.154    4.154    4.308    0.000 
#    0.000    0.000    6.769    0.000    0.000    0.000 
#    0.000    0.000    0.000    0.000    0.000    0.000 
#
# Total GULP energy -72735.907370 kJ/mol
# GULP energy per Si atom -5595.069798 kJ/mol
# Density = 2.139209 g / cm^3
# Si number density = 21.440895 Si / 1000 Ang^3
#
#
#
# Elastic Constant Matrix: (Units=GPa)
#
#
# Indices 1 2 3 4 5 6 
#
# 1 91.6248 17.4536 49.1688 0.0000 0.0000 0.0000
# 2 17.4536 137.8619 57.1004 0.0000 0.0000 0.0000
# 3 49.1688 57.1004 153.4671 0.0000 0.0000 0.0000
# 4 0.0000 0.0000 0.0000 25.5163 0.0000 0.0000
# 5 0.0000 0.0000 0.0000 0.0000 52.1508 0.0000
# 6 0.0000 0.0000 0.0000 0.0000 0.0000 39.0397
#
#
#
# Elastic Compliance Matrix: (Units=1/GPa)
#
#
# Indices 1 2 3 4 5 6 
#
# 1 0.013181 0.000095 -0.004258 0.000000 0.000000 0.000000
# 2 0.000095 0.008576 -0.003221 0.000000 0.000000 0.000000
# 3 -0.004258 -0.003221 0.009079 0.000000 0.000000 0.000000
# 4 0.000000 0.000000 0.000000 0.039191 0.000000 0.000000
# 5 0.000000 0.000000 0.000000 0.000000 0.019175 0.000000
# 6 0.000000 0.000000 0.000000 0.000000 0.000000 0.025615
#
#
# Mechanical properties :
#
#
# Convention : Reuss Voigt Hill
#
# Bulk Modulus (GPa) = 62.24088 70.04437 66.14263
# Shear Modulus (GPa) = 37.05309 40.62343 38.83826
#
# Velocity S-wave (km/s) = 4.16161 4.35750 4.26068
# Velocity P-wave (km/s) = 7.22386 7.61949 7.42431
#
# Compressibility (1/GPa) = 0.01606661
#
# Stress axis : x y z
#
# Youngs Moduli (GPa) = 75.86573 116.60731 110.14531
#
# Poissons Ratio (x) = -0.01108 0.46905
# Poissons Ratio (y) = -0.00721 0.35480
# Poissons Ratio (z) = 0.32307 0.37562
#
# Static dielectric constant tensor:
#      x y z
#    x 1.787730 0.000000 0.000000 
#    y 0.000000 1.778120 0.000000 
#    z 0.000000 0.000000 1.778120 
# 
# From -- ./inp_files/3280.got.cif
#   From: 2010.05.17/outbox.cif.g08.bks.cpg/sg21_2_cif.got.tgz:3280.got - 2010.06.03 23:14:55.
