data_PCOD9325646
_publ_section_title
;
Structure prediction by ZEFSAII (Michael W. Deem and Ramdas Pophale) SiO2 
 PCOD9325646
Probable space group: C 2 2 2
;
_chemical_formula_sum "Si O2"
_cell_formula_units_Z 20
_cell_length_a 7.360398
_cell_length_b 13.450088
_cell_length_c 6.625757
_cell_angle_alpha 90.000000
_cell_angle_beta 90.000000
_cell_angle_gamma 90.000000
_cell_volume 655.936697
_symmetry_space_group_name_H-M "C 2 2 2"
_symmetry_group_IT_number 21
_symmetry_cell_setting 'orthorhombic'
loop_
_space_group_symop_operation_xyz
x,y,z
-x,-y,z
x,-y,-z
-x,y,-z
1/2+x,1/2+y,z
1/2-x,1/2-y,z
1/2+x,1/2-y,-z
1/2-x,1/2+y,-z
loop_
_atom_site_type_symbol
_atom_site_label
_atom_site_fract_x
_atom_site_fract_y
_atom_site_fract_z
Si Si1 0.500000 0.500000 0.500000
Si Si2 0.414693 0.171087 0.805973
Si Si3 0.847750 0.136975 0.834830
Si Si4 0.000000 0.500000 0.500000
O O1 0.373923 0.566434 0.645484
O O2 0.250000 0.250000 0.767646
O O3 0.424957 0.254571 0.233835
O O4 0.415060 0.080646 0.654733
O O5 0.336913 0.128481 0.028112
O O6 0.000000 0.108923 0.000000
#
# Coordination Sequence:
#
# PCOD9325646 Si02
#       4
#     2   8   8   2
#     4  12  28  50  84 122 156 210 276 334 396 478
#     4  11  26  50  80 116 163 212 265 332 405 480
#     4  11  26  50  80 116 163 212 265 332 405 480
#     4  12  28  50  84 122 156 210 276 334 396 478
#
# _framework density 30.490745
#
# number of rings (size 3 to 8) (size 9 to 14) (size 15 to 20)
#    0.000    0.800    0.000    7.200    0.000   16.000 
#    0.000   16.000    0.000    4.800    0.000    0.000 
#    0.000    0.000    0.000    0.000    0.000    0.000 
#
# Total GULP energy -55801.486585 kJ/mol
# GULP energy per Si atom -5580.148659 kJ/mol
# Density = 3.042135 g / cm^3
# Si number density = 30.490745 Si / 1000 Ang^3
#
#
#
# Elastic Constant Matrix: (Units=GPa)
#
#
# Indices 1 2 3 4 5 6 
#
# 1 147.9660 58.5933 51.7635 0.0000 0.0000 0.0000
# 2 58.5933 293.8791 187.1263 0.0000 0.0000 0.0000
# 3 51.7635 187.1263 284.1629 0.0000 0.0000 0.0000
# 4 0.0000 0.0000 0.0000 748.8802 0.0000 0.0000
# 5 0.0000 0.0000 0.0000 0.0000 13.6913 0.0000
# 6 0.0000 0.0000 0.0000 0.0000 0.0000 34.2262
#
#
#
# Elastic Compliance Matrix: (Units=1/GPa)
#
#
# Indices 1 2 3 4 5 6 
#
# 1 0.007406 -0.001064 -0.000649 0.000000 0.000000 0.000000
# 2 -0.001064 0.006013 -0.003766 0.000000 0.000000 0.000000
# 3 -0.000649 -0.003766 0.006117 0.000000 0.000000 0.000000
# 4 0.000000 0.000000 0.000000 0.001335 0.000000 0.000000
# 5 0.000000 0.000000 0.000000 0.000000 0.073039 0.000000
# 6 0.000000 0.000000 0.000000 0.000000 0.000000 0.029217
#
#
# Mechanical properties :
#
#
# Convention : Reuss Voigt Hill
#
# Bulk Modulus (GPa) = 116.54952 146.77489 131.66220
# Shear Modulus (GPa) = 36.51125 187.92785 112.21955
#
# Velocity S-wave (km/s) = 3.46418 7.85927 6.07325
# Velocity P-wave (km/s) = 7.36941 11.42802 9.61530
#
# Compressibility (1/GPa) = 0.00858004
#
# Stress axis : x y z
#
# Youngs Moduli (GPa) = 135.01752 166.31816 163.47796
#
# Poissons Ratio (x) = 0.17689 0.10606
# Poissons Ratio (y) = 0.14360 0.61560
# Poissons Ratio (z) = 0.08760 0.62629
#
# Static dielectric constant tensor:
#      x y z
#    x 2.687670 0.000000 0.000000 
#    y 0.000000 2.698780 0.000000 
#    z 0.000000 0.000000 1.516950 
# 
# From -- ./inp_files/1030.got.cif
#   From: 2010.05.17/outbox.cif.g08.bks.cpg/sg21_1_cif.got.tgz:1030.got - 2010.06.03 23:14:55.
