data_PCOD9325604
_publ_section_title
;
Structure prediction by ZEFSAII (Michael W. Deem and Ramdas Pophale) SiO2 
 PCOD9325604
Probable space group: C 2 2 2
;
_chemical_formula_sum "Si O2"
_cell_formula_units_Z 34
_cell_length_a 14.638131
_cell_length_b 6.122508
_cell_length_c 16.922594
_cell_angle_alpha 90.000000
_cell_angle_beta 90.000000
_cell_angle_gamma 90.000000
_cell_volume 1516.637974
_symmetry_space_group_name_H-M "C 2 2 2"
_symmetry_group_IT_number 21
_symmetry_cell_setting 'orthorhombic'
loop_
_space_group_symop_operation_xyz
x,y,z
-x,-y,z
x,-y,-z
-x,y,-z
1/2+x,1/2+y,z
1/2-x,1/2-y,z
1/2+x,1/2-y,-z
1/2-x,1/2+y,-z
loop_
_atom_site_type_symbol
_atom_site_label
_atom_site_fract_x
_atom_site_fract_y
_atom_site_fract_z
Si Si1 0.214450 0.000000 0.500000
Si Si2 0.583395 0.669013 0.377030
Si Si3 0.393772 0.957124 0.906809
Si Si4 0.000000 0.500000 0.500000
Si Si5 0.750000 0.250000 0.186720
Si Si6 0.602728 0.594430 0.210556
O O1 0.250000 0.750000 0.491810
O O2 0.161399 0.970861 0.582377
O O3 0.500000 0.500000 0.371231
O O4 0.602004 0.749455 0.288244
O O5 0.559290 0.853437 0.440837
O O6 0.373985 0.718367 0.870571
O O7 0.500000 0.000000 0.884207
O O8 0.321625 0.114284 0.865599
O O9 0.387264 0.000000 0.000000
O O10 0.681021 0.417187 0.229451
O O11 0.500000 0.500000 0.201682
#
# Coordination Sequence:
#
# PCOD9325604 Si02
#       6
#     4   8   8   2   4   8
#     4  12  26  44  69 111 156 198 256 324 394 472
#     4  11  25  45  73 102 143 198 256 310 392 465
#     4  11  26  49  74 108 152 195 248 313 384 458
#     4  12  20  44  80 100 138 202 266 314 390 470
#     4  12  26  46  80 106 150 196 248 308 388 456
#     4  11  26  48  74 111 149 197 254 320 383 466
#
# _framework density 22.418005000000001
#
# number of rings (size 3 to 8) (size 9 to 14) (size 15 to 20)
#    0.000    0.706    4.706    1.412    6.588    1.882 
#    0.000    0.000    0.000    0.000    0.000    0.000 
#    0.000    0.000    0.000    0.000    0.000    0.000 
#
# Total GULP energy -94796.315992 kJ/mol
# GULP energy per Si atom -5576.253882 kJ/mol
# Density = 2.236698 g / cm^3
# Si number density = 22.418005 Si / 1000 Ang^3
#
#
#
# Elastic Constant Matrix: (Units=GPa)
#
#
# Indices 1 2 3 4 5 6 
#
# 1 104.2646 46.0544 33.1577 0.0000 0.0000 0.0000
# 2 46.0544 105.1642 51.3119 0.0000 0.0000 0.0000
# 3 33.1577 51.3119 141.0434 0.0000 0.0000 0.0000
# 4 0.0000 0.0000 0.0000 31.2433 0.0000 0.0000
# 5 0.0000 0.0000 0.0000 0.0000 42.7908 0.0000
# 6 0.0000 0.0000 0.0000 0.0000 0.0000 37.3664
#
#
#
# Elastic Compliance Matrix: (Units=1/GPa)
#
#
# Indices 1 2 3 4 5 6 
#
# 1 0.012032 -0.004728 -0.001108 0.000000 0.000000 0.000000
# 2 -0.004728 0.013419 -0.003770 0.000000 0.000000 0.000000
# 3 -0.001108 -0.003770 0.008722 0.000000 0.000000 0.000000
# 4 0.000000 0.000000 0.000000 0.032007 0.000000 0.000000
# 5 0.000000 0.000000 0.000000 0.000000 0.023369 0.000000
# 6 0.000000 0.000000 0.000000 0.000000 0.000000 0.026762
#
#
# Mechanical properties :
#
#
# Convention : Reuss Voigt Hill
#
# Bulk Modulus (GPa) = 66.84814 67.94669 67.39741
# Shear Modulus (GPa) = 35.58400 36.94332 36.26366
#
# Velocity S-wave (km/s) = 3.98841 4.06388 4.02632
# Velocity P-wave (km/s) = 7.14798 7.23843 7.19335
#
# Compressibility (1/GPa) = 0.01495928
#
# Stress axis : x y z
#
# Youngs Moduli (GPa) = 83.11155 74.51970 114.64912
#
# Poissons Ratio (x) = 0.35236 0.12708
# Poissons Ratio (y) = 0.39298 0.43227
# Poissons Ratio (z) = 0.09212 0.28097
#
# Static dielectric constant tensor:
#      x y z
#    x 1.883480 0.000000 0.000000 
#    y 0.000000 1.857920 0.000000 
#    z 0.000000 0.000000 1.819950 
# 
# From -- ./inp_files/36499.got.cif
#   From: 2010.05.17/outbox.cif.g08.bks.cpg/sg21_19_cif.got.tgz:36499.got - 2010.06.03 23:14:55.
