data_PCOD9325307
_publ_section_title
;
Structure prediction by ZEFSAII (Michael W. Deem and Ramdas Pophale) SiO2 
 PCOD9325307
Probable space group: C 2 2 2
;
_chemical_formula_sum "Si O2"
_cell_formula_units_Z 36
_cell_length_a 9.046198
_cell_length_b 12.279951
_cell_length_c 15.475070
_cell_angle_alpha 90.000000
_cell_angle_beta 90.000000
_cell_angle_gamma 90.000000
_cell_volume 1719.077061
_symmetry_space_group_name_H-M "C 2 2 2"
_symmetry_group_IT_number 21
_symmetry_cell_setting 'orthorhombic'
loop_
_space_group_symop_operation_xyz
x,y,z
-x,-y,z
x,-y,-z
-x,y,-z
1/2+x,1/2+y,z
1/2-x,1/2-y,z
1/2+x,1/2-y,-z
1/2-x,1/2+y,-z
loop_
_atom_site_type_symbol
_atom_site_label
_atom_site_fract_x
_atom_site_fract_y
_atom_site_fract_z
Si Si1 0.841363 0.942793 0.327925
Si Si2 0.502908 0.130845 0.901128
Si Si3 0.569252 0.879895 0.415733
Si Si4 0.151857 0.651035 0.269896
Si Si5 0.750000 0.250000 0.794016
O O1 0.745779 0.893761 0.408603
O O2 0.839251 0.841310 0.261679
O O3 0.736287 0.038545 0.289964
O O4 0.000000 0.000000 0.344132
O O5 0.376778 0.161400 0.831981
O O6 0.646095 0.179267 0.855653
O O7 0.500000 0.000000 0.902056
O O8 0.500000 0.169310 0.000000
O O9 0.500000 0.821838 0.500000
O O10 0.499597 0.841847 0.325044
O O11 0.500000 0.000000 0.419447
O O12 0.250000 0.750000 0.301779
#
# Coordination Sequence:
#
# PCOD9325307 Si02
#       5
#     8   8   8   8   4
#     4  11  23  40  69 102 135 178 228 278 343 406
#     4  11  23  42  66  95 134 180 228 278 342 407
#     4   9  19  41  67  92 134 185 218 281 343 399
#     4  11  21  42  65  95 135 181 220 282 342 402
#     4  12  22  44  68 102 136 182 226 290 332 410
#
# _framework density 20.941469000000001
#
# number of rings (size 3 to 8) (size 9 to 14) (size 15 to 20)
#    0.000    1.333    4.444    2.000    1.556    0.000 
#    2.000    8.889    0.000    0.000    0.000    0.000 
#    0.000    0.000    0.000    0.000    0.000    0.000 
#
# Total GULP energy -100307.341500 kJ/mol
# GULP energy per Si atom -5572.630083 kJ/mol
# Density = 2.089381 g / cm^3
# Si number density = 20.941469 Si / 1000 Ang^3
#
#
#
# Elastic Constant Matrix: (Units=GPa)
#
#
# Indices 1 2 3 4 5 6 
#
# 1 139.6297 38.1365 59.0232 0.0000 0.0000 0.0000
# 2 38.1365 105.7161 29.2688 0.0000 0.0000 0.0000
# 3 59.0232 29.2688 138.6775 0.0000 0.0000 0.0000
# 4 0.0000 0.0000 0.0000 -14.1806 0.0000 0.0000
# 5 0.0000 0.0000 0.0000 0.0000 15.4311 0.0000
# 6 0.0000 0.0000 0.0000 0.0000 0.0000 46.2129
#
#
#
# Elastic Compliance Matrix: (Units=1/GPa)
#
#
# Indices 1 2 3 4 5 6 
#
# 1 0.009269 -0.002391 -0.003440 0.000000 0.000000 0.000000
# 2 -0.002391 0.010663 -0.001233 0.000000 0.000000 0.000000
# 3 -0.003440 -0.001233 0.008935 0.000000 0.000000 0.000000
# 4 0.000000 0.000000 0.000000 -0.070519 0.000000 0.000000
# 5 0.000000 0.000000 0.000000 0.000000 0.064804 0.000000
# 6 0.000000 0.000000 0.000000 0.000000 0.000000 0.021639
#
#
# Mechanical properties :
#
#
# Convention : Reuss Voigt Hill
#
# Bulk Modulus (GPa) = 67.84747 70.76447 69.30597
# Shear Modulus (GPa) = 78.32840 26.66569 52.49705
#
# Velocity S-wave (km/s) = 6.12247 3.57227 5.01227
# Velocity P-wave (km/s) = 9.08012 7.13300 8.16481
#
# Compressibility (1/GPa) = 0.01473894
#
# Stress axis : x y z
#
# Youngs Moduli (GPa) = 107.88380 93.78000 111.91365
#
# Poissons Ratio (x) = 0.22426 0.38503
# Poissons Ratio (y) = 0.25798 0.13796
# Poissons Ratio (z) = 0.37117 0.11561
#
# Static dielectric constant tensor:
#      x y z
#    x 1.825430 0.000000 0.000000 
#    y 0.000000 1.780810 0.000000 
#    z 0.000000 0.000000 1.813430 
# 
# From -- ./inp_files/30074.got.cif
#   From: 2010.05.17/outbox.cif.g08.bks.cpg/sg21_16_cif.got.tgz:30074.got - 2010.06.03 23:14:55.
