data_PCOD9325293
_publ_section_title
;
Structure prediction by ZEFSAII (Michael W. Deem and Ramdas Pophale) SiO2 
 PCOD9325293
Probable space group: C 2 2 2
;
_chemical_formula_sum "Si O2"
_cell_formula_units_Z 32
_cell_length_a 10.101868
_cell_length_b 10.897161
_cell_length_c 13.397346
_cell_angle_alpha 90.000000
_cell_angle_beta 90.000000
_cell_angle_gamma 90.000000
_cell_volume 1474.802382
_symmetry_space_group_name_H-M "C 2 2 2"
_symmetry_group_IT_number 21
_symmetry_cell_setting 'orthorhombic'
loop_
_space_group_symop_operation_xyz
x,y,z
-x,-y,z
x,-y,-z
-x,y,-z
1/2+x,1/2+y,z
1/2-x,1/2-y,z
1/2+x,1/2-y,-z
1/2-x,1/2+y,-z
loop_
_atom_site_type_symbol
_atom_site_label
_atom_site_fract_x
_atom_site_fract_y
_atom_site_fract_z
Si Si1 0.460270 0.140388 0.107008
Si Si2 0.426483 0.660345 0.225298
Si Si3 0.355521 0.638232 0.456349
Si Si4 0.677279 0.461891 0.886858
O O1 0.538598 0.201375 0.197697
O O2 0.303236 0.125620 0.116224
O O3 0.500000 0.000000 0.101182
O O4 0.500000 0.200659 0.000000
O O5 0.387985 0.633379 0.338321
O O6 0.562489 0.602752 0.178143
O O7 0.310256 0.595274 0.163639
O O8 0.319880 0.500000 0.500000
O O9 0.500000 0.669897 0.500000
O O10 0.250000 0.750000 0.474849
O O11 0.646241 0.500000 0.000000
#
# Coordination Sequence:
#
# PCOD9325293 Si02
#       4
#     8   8   8   8
#     4  11  23  40  60 101 149 189 240 291 340 421
#     4  11  25  41  70  99 132 187 239 294 369 441
#     4  11  27  52  78 109 145 188 248 326 396 464
#     4  11  21  40  65  98 145 191 237 285 350 422
#
# _framework density 21.697823
#
# number of rings (size 3 to 8) (size 9 to 14) (size 15 to 20)
#    0.000    1.000    2.500    6.750    3.500    4.500 
#    0.000    0.000    0.000    0.000    0.000    0.000 
#    0.000    0.000    0.000    0.000    0.000    0.000 
#
# Total GULP energy -89101.581910 kJ/mol
# GULP energy per Si atom -5568.848869 kJ/mol
# Density = 2.164844 g / cm^3
# Si number density = 21.697823 Si / 1000 Ang^3
#
#
#
# Elastic Constant Matrix: (Units=GPa)
#
#
# Indices 1 2 3 4 5 6 
#
# 1 158.3969 73.9428 36.7996 0.0000 0.0000 0.0000
# 2 73.9428 144.3346 65.0946 0.0000 0.0000 0.0000
# 3 36.7996 65.0946 175.0046 0.0000 0.0000 0.0000
# 4 0.0000 0.0000 0.0000 35.8260 0.0000 0.0000
# 5 0.0000 0.0000 0.0000 0.0000 28.5126 0.0000
# 6 0.0000 0.0000 0.0000 0.0000 0.0000 30.2232
#
#
#
# Elastic Compliance Matrix: (Units=1/GPa)
#
#
# Indices 1 2 3 4 5 6 
#
# 1 0.008303 -0.004165 -0.000197 0.000000 0.000000 0.000000
# 2 -0.004165 0.010414 -0.002998 0.000000 0.000000 0.000000
# 3 -0.000197 -0.002998 0.006871 0.000000 0.000000 0.000000
# 4 0.000000 0.000000 0.000000 0.027913 0.000000 0.000000
# 5 0.000000 0.000000 0.000000 0.000000 0.035072 0.000000
# 6 0.000000 0.000000 0.000000 0.000000 0.000000 0.033087
#
#
# Mechanical properties :
#
#
# Convention : Reuss Voigt Hill
#
# Bulk Modulus (GPa) = 92.00708 92.15667 92.08188
# Shear Modulus (GPa) = 35.71372 39.03896 37.37634
#
# Velocity S-wave (km/s) = 4.06144 4.24631 4.15491
# Velocity P-wave (km/s) = 8.03054 8.16128 8.09618
#
# Compressibility (1/GPa) = 0.01086873
#
# Stress axis : x y z
#
# Youngs Moduli (GPa) = 120.43415 96.02363 145.54822
#
# Poissons Ratio (x) = 0.39994 0.02864
# Poissons Ratio (y) = 0.50161 0.43633
# Poissons Ratio (z) = 0.02370 0.28786
#
# Static dielectric constant tensor:
#      x y z
#    x 1.957520 0.000000 0.000000 
#    y 0.000000 1.282890 0.000000 
#    z 0.000000 0.000000 1.878880 
# 
# From -- ./inp_files/23450.got.cif
#   From: 2010.05.17/outbox.cif.g08.bks.cpg/sg21_12_cif.got.tgz:23450.got - 2010.06.03 23:14:55.
