data_PCOD9325795
_publ_section_title
;
Structure prediction by ZEFSAII (Michael W. Deem and Ramdas Pophale) SiO2 
 PCOD9325795
Probable space group: C 2 2 2
;
_chemical_formula_sum "Si O2"
_cell_formula_units_Z 22
_cell_length_a 4.879214
_cell_length_b 12.876180
_cell_length_c 15.244131
_cell_angle_alpha 90.000000
_cell_angle_beta 90.000000
_cell_angle_gamma 90.000000
_cell_volume 957.722252
_symmetry_space_group_name_H-M "C 2 2 2"
_symmetry_group_IT_number 21
_symmetry_cell_setting 'orthorhombic'
loop_
_space_group_symop_operation_xyz
x,y,z
-x,-y,z
x,-y,-z
-x,y,-z
1/2+x,1/2+y,z
1/2-x,1/2-y,z
1/2+x,1/2-y,-z
1/2-x,1/2+y,-z
loop_
_atom_site_type_symbol
_atom_site_label
_atom_site_fract_x
_atom_site_fract_y
_atom_site_fract_z
Si Si1 0.003749 0.678536 0.370990
Si Si2 0.250000 0.250000 0.937925
Si Si3 0.753851 0.428074 0.198101
Si Si4 0.000000 0.500000 0.500000
O O1 0.250000 0.750000 0.412054
O O2 0.136009 0.629006 0.284661
O O3 0.884311 0.585362 0.431517
O O4 0.750000 0.750000 0.346709
O O5 0.329490 0.344712 0.874582
O O6 0.500000 0.219930 0.000000
O O7 0.500000 0.500000 0.222051
O O8 0.000000 0.500000 0.164088
#
# Coordination Sequence:
#
# PCOD9325795 Si02
#       4
#     8   4   8   2
#     4  12  27  47  74 108 147 195 248 303 369 438
#     4  12  28  46  74 108 148 190 246 306 364 446
#     4  12  26  47  77 107 145 195 243 304 375 437
#     4  12  28  46  76 108 150 194 256 294 372 428
#
# _framework density 22.971167000000001
#
# number of rings (size 3 to 8) (size 9 to 14) (size 15 to 20)
#    0.000    0.000    3.636    5.455    2.545    5.818 
#    0.000    0.000    0.000    0.000    0.000    0.000 
#    0.000    0.000    0.000    0.000    0.000    0.000 
#
# Total GULP energy -61528.828029 kJ/mol
# GULP energy per Si atom -5593.529821 kJ/mol
# Density = 2.291888 g / cm^3
# Si number density = 22.971167 Si / 1000 Ang^3
#
#
#
# Elastic Constant Matrix: (Units=GPa)
#
#
# Indices 1 2 3 4 5 6 
#
# 1 129.5611 54.2621 22.9156 0.0000 0.0000 0.0000
# 2 54.2621 151.3148 60.6396 0.0000 0.0000 0.0000
# 3 22.9156 60.6396 123.1993 0.0000 0.0000 0.0000
# 4 0.0000 0.0000 0.0000 22.0717 0.0000 0.0000
# 5 0.0000 0.0000 0.0000 0.0000 3.0346 0.0000
# 6 0.0000 0.0000 0.0000 0.0000 0.0000 53.7325
#
#
#
# Elastic Compliance Matrix: (Units=1/GPa)
#
#
# Indices 1 2 3 4 5 6 
#
# 1 0.009084 -0.003214 -0.000107 0.000000 0.000000 0.000000
# 2 -0.003214 0.009370 -0.004014 0.000000 0.000000 0.000000
# 3 -0.000107 -0.004014 0.010113 0.000000 0.000000 0.000000
# 4 0.000000 0.000000 0.000000 0.045307 0.000000 0.000000
# 5 0.000000 0.000000 0.000000 0.000000 0.329532 0.000000
# 6 0.000000 0.000000 0.000000 0.000000 0.000000 0.018611
#
#
# Mechanical properties :
#
#
# Convention : Reuss Voigt Hill
#
# Bulk Modulus (GPa) = 71.97103 75.52332 73.74717
# Shear Modulus (GPa) = 11.32966 33.51829 22.42397
#
# Velocity S-wave (km/s) = 2.22325 3.82402 3.12778
# Velocity P-wave (km/s) = 6.16356 7.24198 6.72443
#
# Compressibility (1/GPa) = 0.01389448
#
# Stress axis : x y z
#
# Youngs Moduli (GPa) = 110.08870 106.72258 98.88542
#
# Poissons Ratio (x) = 0.34304 0.01063
# Poissons Ratio (y) = 0.35386 0.39694
# Poissons Ratio (z) = 0.01183 0.42840
#
# Static dielectric constant tensor:
#      x y z
#    x 1.844240 0.000000 0.000000 
#    y 0.000000 1.876370 0.000000 
#    z 0.000000 0.000000 1.839420 
# 
# From -- ./inp_files/28319.got.cif
#   From: 2010.05.17/outbox.cif.g08.bks.cpg/sg21_15_cif.got.tgz:28319.got - 2010.06.03 23:14:55.
