data_PCOD9325730
_publ_section_title
;
Structure prediction by ZEFSAII (Michael W. Deem and Ramdas Pophale) SiO2 
 PCOD9325730
Probable space group: C 2 2 2
;
_chemical_formula_sum "Si O2"
_cell_formula_units_Z 34
_cell_length_a 11.229651
_cell_length_b 15.624426
_cell_length_c 8.141819
_cell_angle_alpha 90.000000
_cell_angle_beta 90.000000
_cell_angle_gamma 90.000000
_cell_volume 1428.537924
_symmetry_space_group_name_H-M "C 2 2 2"
_symmetry_group_IT_number 21
_symmetry_cell_setting 'orthorhombic'
loop_
_space_group_symop_operation_xyz
x,y,z
-x,-y,z
x,-y,-z
-x,y,-z
1/2+x,1/2+y,z
1/2-x,1/2-y,z
1/2+x,1/2-y,-z
1/2-x,1/2+y,-z
loop_
_atom_site_type_symbol
_atom_site_label
_atom_site_fract_x
_atom_site_fract_y
_atom_site_fract_z
Si Si1 0.091409 0.077712 0.314088
Si Si2 0.000000 0.180899 0.000000
Si Si3 0.103936 0.629772 0.273663
Si Si4 0.500000 0.729030 0.500000
Si Si5 0.796531 0.500000 0.500000
Si Si6 0.750000 0.250000 0.104459
Si Si7 0.000000 0.500000 0.000000
O O1 0.096339 0.159104 0.438966
O O2 0.043237 0.119294 0.147203
O O3 0.217598 0.032870 0.346289
O O4 0.000000 0.000000 0.343134
O O5 0.879248 0.237913 0.020979
O O6 0.124811 0.575667 0.435092
O O7 0.230333 0.666614 0.213505
O O8 0.031401 0.712099 0.343079
O O9 0.059421 0.567354 0.129100
#
# Coordination Sequence:
#
# PCOD9325730 Si02
#       7
#     8   4   8   4   4   4   2
#     4  12  24  48  74 116 155 206 263 351 409 493
#     4  12  28  46  83 113 170 208 280 336 428 487
#     4  12  27  47  76 112 157 217 273 345 408 513
#     4  12  23  47  78 104 152 210 272 325 417 498
#     4  12  25  45  76 112 156 208 273 339 426 480
#     4  12  26  50  74 122 150 214 272 338 402 506
#     4  12  30  54  70 110 178 210 280 340 432 496
#
# _framework density 23.800559
#
# number of rings (size 3 to 8) (size 9 to 14) (size 15 to 20)
#    0.000    0.000    4.706    5.294    3.294    1.882 
#    0.000    0.000    0.000    0.000    0.000    0.000 
#    0.000    0.000    0.000    0.000    0.000    0.000 
#
# Total GULP energy -94724.689132 kJ/mol
# GULP energy per Si atom -5572.040537 kJ/mol
# Density = 2.374639 g / cm^3
# Si number density = 23.800559 Si / 1000 Ang^3
#
#
#
# Elastic Constant Matrix: (Units=GPa)
#
#
# Indices 1 2 3 4 5 6 
#
# 1 117.9959 53.2174 40.8348 0.0000 0.0000 0.0000
# 2 53.2174 165.4379 46.1855 0.0000 0.0000 0.0000
# 3 40.8348 46.1855 108.7556 0.0000 0.0000 0.0000
# 4 0.0000 0.0000 0.0000 38.7872 0.0000 0.0000
# 5 0.0000 0.0000 0.0000 0.0000 59.6819 0.0000
# 6 0.0000 0.0000 0.0000 0.0000 0.0000 31.8289
#
#
#
# Elastic Compliance Matrix: (Units=1/GPa)
#
#
# Indices 1 2 3 4 5 6 
#
# 1 0.010657 -0.002622 -0.002888 0.000000 0.000000 0.000000
# 2 -0.002622 0.007503 -0.002202 0.000000 0.000000 0.000000
# 3 -0.002888 -0.002202 0.011214 0.000000 0.000000 0.000000
# 4 0.000000 0.000000 0.000000 0.025782 0.000000 0.000000
# 5 0.000000 0.000000 0.000000 0.000000 0.016756 0.000000
# 6 0.000000 0.000000 0.000000 0.000000 0.000000 0.031418
#
#
# Mechanical properties :
#
#
# Convention : Reuss Voigt Hill
#
# Bulk Modulus (GPa) = 71.68083 74.74053 73.21068
# Shear Modulus (GPa) = 40.51801 42.85639 41.68720
#
# Velocity S-wave (km/s) = 4.13049 4.24801 4.18966
# Velocity P-wave (km/s) = 7.27534 7.45196 7.36418
#
# Compressibility (1/GPa) = 0.01395073
#
# Stress axis : x y z
#
# Youngs Moduli (GPa) = 93.83722 133.28725 89.17204
#
# Poissons Ratio (x) = 0.34945 0.25752
# Poissons Ratio (y) = 0.24602 0.19633
# Poissons Ratio (z) = 0.27099 0.29346
#
# Static dielectric constant tensor:
#      x y z
#    x 1.928540 0.000000 0.000000 
#    y 0.000000 1.865300 0.000000 
#    z 0.000000 0.000000 2.068750 
# 
# From -- ./inp_files/12405.got.cif
#   From: 2010.05.17/outbox.cif.g08.bks.cpg/sg21_7_cif.got.tgz:12405.got - 2010.06.03 23:14:55.
