data_PCOD9325002
_publ_section_title
;
Structure prediction by ZEFSAII (Michael W. Deem and Ramdas Pophale) SiO2 
 PCOD9325002
Probable space group: C 2 2 2
;
_chemical_formula_sum "Si O2"
_cell_formula_units_Z 40
_cell_length_a 9.083084
_cell_length_b 11.113277
_cell_length_c 17.729182
_cell_angle_alpha 90.000000
_cell_angle_beta 90.000000
_cell_angle_gamma 90.000000
_cell_volume 1789.633778
_symmetry_space_group_name_H-M "C 2 2 2"
_symmetry_group_IT_number 21
_symmetry_cell_setting 'orthorhombic'
loop_
_space_group_symop_operation_xyz
x,y,z
-x,-y,z
x,-y,-z
-x,y,-z
1/2+x,1/2+y,z
1/2-x,1/2-y,z
1/2+x,1/2-y,-z
1/2-x,1/2+y,-z
loop_
_atom_site_type_symbol
_atom_site_label
_atom_site_fract_x
_atom_site_fract_y
_atom_site_fract_z
Si Si1 0.686844 0.115293 0.701290
Si Si2 0.597828 0.110939 0.872784
Si Si3 0.860336 0.930345 0.613550
Si Si4 0.565812 0.622856 0.083951
Si Si5 0.443170 0.828130 0.416805
O O1 0.750000 0.250000 0.700339
O O2 0.625126 0.092502 0.783916
O O3 0.566330 0.111966 0.634975
O O4 0.808331 0.015087 0.681697
O O5 0.532010 0.245651 0.881349
O O6 0.757348 0.110798 0.912827
O O7 0.500000 0.000000 0.900981
O O8 0.707547 0.902118 0.570235
O O9 0.911214 0.794879 0.628525
O O10 0.000000 0.000000 0.579508
O O11 0.500000 0.500000 0.119871
O O12 0.500000 0.627330 0.000000
O O13 0.500000 0.796969 0.500000
#
# Coordination Sequence:
#
# PCOD9325002 Si02
#       5
#     8   8   8   8   8
#     4  12  24  47  72 103 149 193 246 314 372 453
#     4  11  25  46  75 106 147 198 251 305 379 449
#     4  11  25  43  70  97 136 184 239 305 371 442
#     4  10  24  45  70 107 151 189 243 306 374 450
#     4  11  27  45  67 104 142 190 250 309 384 450
#
# _framework density 22.350943000000001
#
# number of rings (size 3 to 8) (size 9 to 14) (size 15 to 20)
#    0.000    1.000    4.000    1.800    2.800   13.600 
#    0.000    0.000    0.000    0.000    0.000    0.000 
#    0.000    0.000    0.000    0.000    0.000    0.000 
#
# Total GULP energy -111628.589498 kJ/mol
# GULP energy per Si atom -5581.429475 kJ/mol
# Density = 2.230007 g / cm^3
# Si number density = 22.350943 Si / 1000 Ang^3
#
#
#
# Elastic Constant Matrix: (Units=GPa)
#
#
# Indices 1 2 3 4 5 6 
#
# 1 113.1989 72.2658 31.9403 0.0000 0.0000 0.0000
# 2 72.2658 204.9934 30.9427 0.0000 0.0000 0.0000
# 3 31.9403 30.9427 97.8320 0.0000 0.0000 0.0000
# 4 0.0000 0.0000 0.0000 54.1609 0.0000 0.0000
# 5 0.0000 0.0000 0.0000 0.0000 34.8765 0.0000
# 6 0.0000 0.0000 0.0000 0.0000 0.0000 60.4476
#
#
#
# Elastic Compliance Matrix: (Units=1/GPa)
#
#
# Indices 1 2 3 4 5 6 
#
# 1 0.012052 -0.003838 -0.002721 0.000000 0.000000 0.000000
# 2 -0.003838 0.006345 -0.000754 0.000000 0.000000 0.000000
# 3 -0.002721 -0.000754 0.011348 0.000000 0.000000 0.000000
# 4 0.000000 0.000000 0.000000 0.018463 0.000000 0.000000
# 5 0.000000 0.000000 0.000000 0.000000 0.028673 0.000000
# 6 0.000000 0.000000 0.000000 0.000000 0.000000 0.016543
#
#
# Mechanical properties :
#
#
# Convention : Reuss Voigt Hill
#
# Bulk Modulus (GPa) = 66.13743 76.25799 71.19771
# Shear Modulus (GPa) = 44.21275 48.62204 46.41740
#
# Velocity S-wave (km/s) = 4.45243 4.66917 4.56208
# Velocity P-wave (km/s) = 7.48911 7.95366 7.72488
#
# Compressibility (1/GPa) = 0.01512003
#
# Stress axis : x y z
#
# Youngs Moduli (GPa) = 82.97499 157.60558 88.11873
#
# Poissons Ratio (x) = 0.60487 0.23976
# Poissons Ratio (y) = 0.31845 0.06642
# Poissons Ratio (z) = 0.22576 0.11880
#
# Static dielectric constant tensor:
#      x y z
#    x 1.841150 0.000000 0.000000 
#    y 0.000000 1.858770 0.000000 
#    z 0.000000 0.000000 1.771260 
# 
# From -- ./inp_files/35485.got.cif
#   From: 2010.05.17/outbox.cif.g08.bks.cpg/sg21_18_cif.got.tgz:35485.got - 2010.06.03 23:14:55.
