data_PCOD9325262
_publ_section_title
;
Structure prediction by ZEFSAII (Michael W. Deem and Ramdas Pophale) SiO2 
 PCOD9325262
Probable space group: C 2 2 2
;
_chemical_formula_sum "Si O2"
_cell_formula_units_Z 58
_cell_length_a 11.390322
_cell_length_b 14.532544
_cell_length_c 15.584541
_cell_angle_alpha 90.000000
_cell_angle_beta 90.000000
_cell_angle_gamma 90.000000
_cell_volume 2579.714614
_symmetry_space_group_name_H-M "C 2 2 2"
_symmetry_group_IT_number 21
_symmetry_cell_setting 'orthorhombic'
loop_
_space_group_symop_operation_xyz
x,y,z
-x,-y,z
x,-y,-z
-x,y,-z
1/2+x,1/2+y,z
1/2-x,1/2-y,z
1/2+x,1/2-y,-z
1/2-x,1/2+y,-z
loop_
_atom_site_type_symbol
_atom_site_label
_atom_site_fract_x
_atom_site_fract_y
_atom_site_fract_z
Si Si1 0.000000 0.000000 0.500000
Si Si2 0.802085 0.646683 0.545849
Si Si3 0.125167 0.886099 0.104263
Si Si4 0.645920 0.389910 0.914323
Si Si5 0.068382 0.858737 0.635633
Si Si6 0.668507 0.589098 0.714340
Si Si7 0.553357 0.150254 0.615497
Si Si8 0.724624 0.888819 0.250498
O O1 0.077189 0.932385 0.558992
O O2 0.750000 0.750000 0.530532
O O3 0.711479 0.615877 0.619430
O O4 0.845239 0.616843 0.450478
O O5 0.923530 0.617955 0.594288
O O6 0.185033 0.858406 0.194443
O O7 0.987335 0.858718 0.106677
O O8 0.133878 0.998279 0.095853
O O9 0.173399 0.858423 0.011060
O O10 0.745166 0.363053 0.846355
O O11 0.033798 0.759456 0.600746
O O12 0.183009 0.836715 0.689413
O O13 0.971398 0.901606 0.699398
O O14 0.730246 0.492518 0.732785
O O15 0.597081 0.127481 0.710577
#
# Coordination Sequence:
#
# PCOD9325262 Si02
#       8
#     2   8   8   8   8   8   8   8
#     4  12  24  32  60  88 124 150 216 268 296 346
#     4  11  23  42  59  77 112 167 211 249 301 380
#     4   8  14  28  51  89 117 155 192 252 315 369
#     4   8  14  27  53  83 127 150 190 252 319 366
#     4  12  22  37  56  88 118 157 204 255 307 359
#     4  11  21  35  62  87 121 154 211 258 307 364
#     4  11  26  40  58  82 121 167 208 244 319 378
#     4  11  21  35  56  93 123 153 198 260 310 373
#
# _framework density 22.483105999999999
#
# number of rings (size 3 to 8) (size 9 to 14) (size 15 to 20)
#    0.000    1.655    4.138    2.897    1.931    1.103 
#    0.000    1.379    0.000    2.483    3.586    3.862 
#    0.000    0.000    0.000    0.000    0.000    0.000 
#
# Total GULP energy -161442.004958 kJ/mol
# GULP energy per Si atom -5566.965688 kJ/mol
# Density = 2.243193 g / cm^3
# Si number density = 22.483106 Si / 1000 Ang^3
#
#
#
# Elastic Constant Matrix: (Units=GPa)
#
#
# Indices 1 2 3 4 5 6 
#
# 1 76.5322 -0.5394 36.5295 0.0000 0.0000 0.0000
# 2 -0.5394 36.3642 16.6319 0.0000 0.0000 0.0000
# 3 36.5295 16.6319 159.9399 0.0000 0.0000 0.0000
# 4 0.0000 0.0000 0.0000 -4.5828 0.0000 0.0000
# 5 0.0000 0.0000 0.0000 0.0000 33.6676 0.0000
# 6 0.0000 0.0000 0.0000 0.0000 0.0000 20.9092
#
#
#
# Elastic Compliance Matrix: (Units=1/GPa)
#
#
# Indices 1 2 3 4 5 6 
#
# 1 0.014783 0.001852 -0.003569 0.000000 0.000000 0.000000
# 2 0.001852 0.029105 -0.003449 0.000000 0.000000 0.000000
# 3 -0.003569 -0.003449 0.007426 0.000000 0.000000 0.000000
# 4 0.000000 0.000000 0.000000 -0.218205 0.000000 0.000000
# 5 0.000000 0.000000 0.000000 0.000000 0.029702 0.000000
# 6 0.000000 0.000000 0.000000 0.000000 0.000000 0.047826
#
#
# Mechanical properties :
#
#
# Convention : Reuss Voigt Hill
#
# Bulk Modulus (GPa) = 24.40197 42.00891 33.20544
# Shear Modulus (GPa) = -76.48799 24.67974 -25.90412
#
# Velocity S-wave (km/s) = -5.83901 3.31675 -3.39803
# Velocity P-wave (km/s) = 5.88062 5.77867 0.77094
#
# Compressibility (1/GPa) = 0.04098029
#
# Stress axis : x y z
#
# Youngs Moduli (GPa) = 67.64567 34.35867 134.65894
#
# Poissons Ratio (x) = -0.06362 0.48058
# Poissons Ratio (y) = -0.12525 0.46450
# Poissons Ratio (z) = 0.24142 0.11852
#
# Static dielectric constant tensor:
#      x y z
#    x 1.863590 0.000000 0.000000 
#    y 0.000000 1.949240 0.000000 
#    z 0.000000 0.000000 1.900330 
# 
# From -- ./inp_files/31735.got.cif
#   From: 2010.05.17/outbox.cif.g08.bks.cpg/sg21_16_cif.got.tgz:31735.got - 2010.06.03 23:14:55.
