data_PCOD9325952
_publ_section_title
;
Structure prediction by ZEFSAII (Michael W. Deem and Ramdas Pophale) SiO2 
 PCOD9325952
Probable space group: F 2 2 2
;
_chemical_formula_sum "Si O2"
_cell_formula_units_Z 112
_cell_length_a 15.474942
_cell_length_b 20.613392
_cell_length_c 20.613309
_cell_angle_alpha 90.000000
_cell_angle_beta 90.000000
_cell_angle_gamma 90.000000
_cell_volume 6575.460992
_symmetry_space_group_name_H-M "F 2 2 2"
_symmetry_group_IT_number 22
_symmetry_cell_setting 'orthorhombic'
loop_
_space_group_symop_operation_xyz
x,y,z
-x,-y,z
x,-y,-z
-x,y,-z
x,1/2+y,1/2+z
-x,1/2-y,1/2+z
x,1/2-y,1/2-z
-x,1/2+y,1/2-z
1/2+x,y,1/2+z
1/2-x,-y,1/2+z
1/2+x,-y,1/2-z
1/2-x,y,1/2-z
1/2+x,1/2+y,z
1/2-x,1/2-y,z
1/2+x,1/2-y,-z
1/2-x,1/2+y,-z
loop_
_atom_site_type_symbol
_atom_site_label
_atom_site_fract_x
_atom_site_fract_y
_atom_site_fract_z
Si Si1 0.982762 0.754099 0.820518
Si Si2 0.340624 0.361466 0.786025
Si Si3 0.076216 0.263313 0.052448
Si Si4 0.246735 0.110134 0.588039
Si Si5 0.063883 0.582990 0.938075
Si Si6 0.928495 0.105680 0.338247
Si Si7 0.250000 0.250000 0.978598
Si Si8 0.290355 0.000000 0.000000
O O1 0.027805 0.750000 0.750000
O O2 0.902554 0.802478 0.808146
O O3 0.946109 0.683190 0.837815
O O4 0.045199 0.769357 0.880502
O O5 0.250000 0.341256 0.750000
O O6 0.310603 0.395558 0.851515
O O7 0.394495 0.405060 0.734778
O O8 0.087802 0.340904 0.061686
O O9 0.165513 0.240115 0.022371
O O10 0.000000 0.254452 0.000000
O O11 0.150843 0.094737 0.613757
O O12 0.243272 0.184405 0.563658
O O13 0.263972 0.056599 0.533844
O O14 0.011416 0.572993 0.871205
O O15 0.145905 0.538070 0.950430
O O16 0.000000 0.574017 0.000000
#
# Coordination Sequence:
#
# PCOD9325952 Si02
#       8
#    16  16  16  16  16  16   8   8
#     4   9  17  30  49  77 108 141 172 220 274 329
#     4   9  18  30  48  77 108 140 176 223 279 333
#     4  10  19  32  50  79 112 140 178 225 272 328
#     4  11  20  30  48  79 107 138 177 222 277 324
#     4  10  17  30  46  74 108 134 172 216 269 327
#     4   9  17  28  46  75 106 139 168 213 271 334
#     4  12  20  34  52  80 112 146 178 232 286 328
#     4  12  21  30  48  82 105 142 172 228 275 328
#
# _framework density 17.033027000000001
#
# number of rings (size 3 to 8) (size 9 to 14) (size 15 to 20)
#    0.000    2.000    2.857    3.643    0.000    7.143 
#    0.000    0.357    0.000    0.000   44.571    3.500 
#    0.000    0.000    0.000    0.000    0.000    0.000 
#
# Total GULP energy -155997.054823 kJ/mol
# GULP energy per Si atom -5571.323387 kJ/mol
# Density = 1.699426 g / cm^3
# Si number density = 17.033027 Si / 1000 Ang^3
#
#
#
# Elastic Constant Matrix: (Units=GPa)
#
#
# Indices 1 2 3 4 5 6 
#
# 1 67.3299 7.1458 47.4717 0.0000 0.0000 0.0000
# 2 7.1458 60.6574 36.2537 0.0000 0.0000 0.0000
# 3 47.4717 36.2537 118.3637 0.0000 0.0000 0.0000
# 4 0.0000 0.0000 0.0000 15.2173 0.0000 0.0000
# 5 0.0000 0.0000 0.0000 0.0000 28.6302 0.0000
# 6 0.0000 0.0000 0.0000 0.0000 0.0000 5.4189
#
#
#
# Elastic Compliance Matrix: (Units=1/GPa)
#
#
# Indices 1 2 3 4 5 6 
#
# 1 0.021192 0.003162 -0.009468 0.000000 0.000000 0.000000
# 2 0.003162 0.020652 -0.007594 0.000000 0.000000 0.000000
# 3 -0.009468 -0.007594 0.014572 0.000000 0.000000 0.000000
# 4 0.000000 0.000000 0.000000 0.065715 0.000000 0.000000
# 5 0.000000 0.000000 0.000000 0.000000 0.034928 0.000000
# 6 0.000000 0.000000 0.000000 0.000000 0.000000 0.184540
#
#
# Mechanical properties :
#
#
# Convention : Reuss Voigt Hill
#
# Bulk Modulus (GPa) = 34.94434 47.56595 41.25514
# Shear Modulus (GPa) = 13.19479 20.21859 16.70669
#
# Velocity S-wave (km/s) = 2.78629 3.44906 3.13524
# Velocity P-wave (km/s) = 5.55980 6.62176 6.11388
#
# Compressibility (1/GPa) = 0.02861694
#
# Stress axis : x y z
#
# Youngs Moduli (GPa) = 47.18715 48.42101 68.62567
#
# Poissons Ratio (x) = -0.15312 0.64975
# Poissons Ratio (y) = -0.14922 0.52114
# Poissons Ratio (z) = 0.44677 0.36770
#
# Static dielectric constant tensor:
#      x y z
#    x 1.588010 0.000000 0.000000 
#    y 0.000000 1.586800 0.000000 
#    z 0.000000 0.000000 1.636070 
# 
# From -- ./inp_files/44407.got.cif
#   From: 2010.05.17/outbox.cif.g08.bks.cpg/sg22_23_cif.got.tgz:44407.got - 2010.06.03 23:40:54.
