data_PCOD9325020
_publ_section_title
;
Structure prediction by ZEFSAII (Michael W. Deem and Ramdas Pophale) SiO2 
 PCOD9325020
Probable space group: C 2 2 2
;
_chemical_formula_sum "Si O2"
_cell_formula_units_Z 58
_cell_length_a 5.896779
_cell_length_b 18.503538
_cell_length_c 24.686392
_cell_angle_alpha 90.000000
_cell_angle_beta 90.000000
_cell_angle_gamma 90.000000
_cell_volume 2693.563689
_symmetry_space_group_name_H-M "C 2 2 2"
_symmetry_group_IT_number 21
_symmetry_cell_setting 'orthorhombic'
loop_
_space_group_symop_operation_xyz
x,y,z
-x,-y,z
x,-y,-z
-x,y,-z
1/2+x,1/2+y,z
1/2-x,1/2-y,z
1/2+x,1/2-y,-z
1/2-x,1/2+y,-z
loop_
_atom_site_type_symbol
_atom_site_label
_atom_site_fract_x
_atom_site_fract_y
_atom_site_fract_z
Si Si1 0.741157 0.973437 0.938077
Si Si2 0.500000 0.000000 0.500000
Si Si3 0.657353 0.430203 0.417788
Si Si4 0.998518 0.225693 0.563072
Si Si5 0.863056 0.576608 0.700106
Si Si6 0.220010 0.330002 0.876583
Si Si7 0.499109 0.421325 0.795257
Si Si8 0.891597 0.676699 0.226764
O O1 0.716052 0.888499 0.924477
O O2 0.500000 0.000000 0.910786
O O3 0.000000 0.000000 0.924954
O O4 0.724490 0.000000 0.000000
O O5 0.343062 0.949728 0.462720
O O6 0.500000 0.500000 0.411960
O O7 0.510388 0.360872 0.433453
O O8 0.778167 0.416589 0.360731
O O9 0.750000 0.250000 0.585711
O O10 0.000000 0.249967 0.500000
O O11 0.250000 0.250000 0.585126
O O12 0.661127 0.571097 0.743585
O O13 0.000000 0.500000 0.702957
O O14 0.967824 0.653504 0.720346
O O15 0.250000 0.250000 0.898615
O O16 0.416191 0.361593 0.837739
O O17 0.023337 0.322203 0.830709
O O18 0.500000 0.500000 0.820066
O O19 0.739485 0.394382 0.777352
O O20 0.750000 0.750000 0.233618
#
# Coordination Sequence:
#
# PCOD9325020 Si02
#       8
#     8   2   8   8   8   8   8   8
#     4  10  24  46  70 103 148 198 255 311 367 439
#     4  12  26  44  84 106 140 180 256 324 380 444
#     4  12  27  46  73 104 138 186 248 308 381 454
#     4  10  24  46  73 101 140 180 232 301 368 440
#     4  11  24  43  67  99 138 186 236 293 373 460
#     4  11  24  39  68 106 140 189 245 309 371 433
#     4  11  22  40  67  96 137 184 231 295 362 446
#     4  11  24  44  68 103 148 183 238 308 375 447
#
# _framework density 21.532812
#
# number of rings (size 3 to 8) (size 9 to 14) (size 15 to 20)
#    0.000    1.103    3.448    1.862    8.690    0.000 
#    2.483    2.759    0.000    0.000    0.000    0.000 
#    0.000    0.000    0.000    0.000    0.000    0.000 
#
# Total GULP energy -161554.726020 kJ/mol
# GULP energy per Si atom -5570.852621 kJ/mol
# Density = 2.148380 g / cm^3
# Si number density = 21.532812 Si / 1000 Ang^3
#
#
#
# Elastic Constant Matrix: (Units=GPa)
#
#
# Indices 1 2 3 4 5 6 
#
# 1 116.9191 61.9965 27.4369 0.0000 0.0000 0.0000
# 2 61.9965 173.3523 44.6109 0.0000 0.0000 0.0000
# 3 27.4369 44.6109 118.3201 0.0000 0.0000 0.0000
# 4 0.0000 0.0000 0.0000 109.8626 0.0000 0.0000
# 5 0.0000 0.0000 0.0000 0.0000 98.9276 0.0000
# 6 0.0000 0.0000 0.0000 0.0000 0.0000 17.3168
#
#
#
# Elastic Compliance Matrix: (Units=1/GPa)
#
#
# Indices 1 2 3 4 5 6 
#
# 1 0.010694 -0.003529 -0.001149 0.000000 0.000000 0.000000
# 2 -0.003529 0.007553 -0.002029 0.000000 0.000000 0.000000
# 3 -0.001149 -0.002029 0.009483 0.000000 0.000000 0.000000
# 4 0.000000 0.000000 0.000000 0.009102 0.000000 0.000000
# 5 0.000000 0.000000 0.000000 0.000000 0.010108 0.000000
# 6 0.000000 0.000000 0.000000 0.000000 0.000000 0.057747
#
#
# Mechanical properties :
#
#
# Convention : Reuss Voigt Hill
#
# Bulk Modulus (GPa) = 69.85649 75.18669 72.52159
# Shear Modulus (GPa) = 40.69198 63.52454 52.10826
#
# Velocity S-wave (km/s) = 4.35186 5.43740 4.92463
# Velocity P-wave (km/s) = 7.60026 8.62633 8.12950
#
# Compressibility (1/GPa) = 0.01431506
#
# Stress axis : x y z
#
# Youngs Moduli (GPa) = 93.51307 132.40091 105.44818
#
# Poissons Ratio (x) = 0.46720 0.12119
# Poissons Ratio (y) = 0.32997 0.21400
# Poissons Ratio (z) = 0.10748 0.26870
#
# Static dielectric constant tensor:
#      x y z
#    x 1.782890 0.000000 0.000000 
#    y 0.000000 1.752170 0.000000 
#    z 0.000000 0.000000 1.850520 
# 
# From -- ./inp_files/39156.got.cif
#   From: 2010.05.17/outbox.cif.g08.bks.cpg/sg21_20_cif.got.tgz:39156.got - 2010.06.03 23:14:55.
