data_PCOD9325900
_publ_section_title
;
Structure prediction by ZEFSAII (Michael W. Deem and Ramdas Pophale) SiO2 
 PCOD9325900
Probable space group: F 2 2 2
;
_chemical_formula_sum "Si O2"
_cell_formula_units_Z 80
_cell_length_a 17.523010
_cell_length_b 9.254146
_cell_length_c 26.704418
_cell_angle_alpha 90.000000
_cell_angle_beta 90.000000
_cell_angle_gamma 90.000000
_cell_volume 4330.401585
_symmetry_space_group_name_H-M "F 2 2 2"
_symmetry_group_IT_number 22
_symmetry_cell_setting 'orthorhombic'
loop_
_space_group_symop_operation_xyz
x,y,z
-x,-y,z
x,-y,-z
-x,y,-z
x,1/2+y,1/2+z
-x,1/2-y,1/2+z
x,1/2-y,1/2-z
-x,1/2+y,1/2-z
1/2+x,y,1/2+z
1/2-x,-y,1/2+z
1/2+x,-y,1/2-z
1/2-x,y,1/2-z
1/2+x,1/2+y,z
1/2-x,1/2-y,z
1/2+x,1/2-y,-z
1/2-x,1/2+y,-z
loop_
_atom_site_type_symbol
_atom_site_label
_atom_site_fract_x
_atom_site_fract_y
_atom_site_fract_z
Si Si1 0.585882 0.056578 0.208798
Si Si2 0.250000 0.750000 0.380736
Si Si3 0.500000 0.500000 0.108264
Si Si4 0.379492 0.035530 0.900420
Si Si5 0.623312 0.885390 0.684794
Si Si6 0.024630 0.201172 0.442576
O O1 0.621934 0.991992 0.158233
O O2 0.628148 0.035520 0.261741
O O3 0.587739 0.227958 0.197372
O O4 0.500000 0.000000 0.214344
O O5 0.308060 0.642874 0.409993
O O6 0.298977 0.850995 0.343764
O O7 0.568690 0.461008 0.145364
O O8 0.526543 0.633917 0.074461
O O9 0.455645 0.130840 0.910314
O O10 0.398820 0.891725 0.931983
O O11 0.000000 0.187172 0.500000
#
# Coordination Sequence:
#
# PCOD9325900 Si02
#       6
#    16   8   8  16  16  16
#     4  10  16  31  53  88 114 156 200 241 285 363
#     4  10  20  39  58  90 132 160 196 246 313 388
#     4  12  19  38  58  92 114 158 203 264 296 362
#     4  10  19  37  61  86 119 158 199 249 303 373
#     4  10  21  30  57  84 126 154 194 240 306 366
#     4  11  22  38  64  87 112 160 217 262 307 359
#
# _framework density 18.474038
#
# number of rings (size 3 to 8) (size 9 to 14) (size 15 to 20)
#    0.000    1.600    7.000    1.500    0.000    6.400 
#    0.000    1.000    8.800    0.000    0.000    8.400 
#    0.000    0.000    0.000    0.000    0.000    0.000 
#
# Total GULP energy -111393.612503 kJ/mol
# GULP energy per Si atom -5569.680625 kJ/mol
# Density = 1.843199 g / cm^3
# Si number density = 18.474038 Si / 1000 Ang^3
#
#
#
# Elastic Constant Matrix: (Units=GPa)
#
#
# Indices 1 2 3 4 5 6 
#
# 1 93.1765 32.5984 24.6805 0.0000 0.0000 0.0000
# 2 32.5984 84.5040 38.6503 0.0000 0.0000 0.0000
# 3 24.6805 38.6503 123.7900 0.0000 0.0000 0.0000
# 4 0.0000 0.0000 0.0000 17.0786 0.0000 0.0000
# 5 0.0000 0.0000 0.0000 0.0000 13.7308 0.0000
# 6 0.0000 0.0000 0.0000 0.0000 0.0000 43.3274
#
#
#
# Elastic Compliance Matrix: (Units=1/GPa)
#
#
# Indices 1 2 3 4 5 6 
#
# 1 0.012547 -0.004312 -0.001155 0.000000 0.000000 0.000000
# 2 -0.004312 0.015287 -0.003913 0.000000 0.000000 0.000000
# 3 -0.001155 -0.003913 0.009530 0.000000 0.000000 0.000000
# 4 0.000000 0.000000 0.000000 0.058553 0.000000 0.000000
# 5 0.000000 0.000000 0.000000 0.000000 0.072829 0.000000
# 6 0.000000 0.000000 0.000000 0.000000 0.000000 0.023080
#
#
# Mechanical properties :
#
#
# Convention : Reuss Voigt Hill
#
# Bulk Modulus (GPa) = 53.75328 54.81431 54.28380
# Shear Modulus (GPa) = 23.06405 28.53012 25.79708
#
# Velocity S-wave (km/s) = 3.53718 3.93407 3.74089
# Velocity P-wave (km/s) = 6.77068 7.09727 6.93590
#
# Compressibility (1/GPa) = 0.01860352
#
# Stress axis : x y z
#
# Youngs Moduli (GPa) = 79.70161 65.41552 104.92774
#
# Poissons Ratio (x) = 0.28205 0.12122
# Poissons Ratio (y) = 0.34365 0.41061
# Poissons Ratio (z) = 0.09208 0.25599
#
# Static dielectric constant tensor:
#      x y z
#    x 1.623270 0.000000 0.000000 
#    y 0.000000 1.667860 0.000000 
#    z 0.000000 0.000000 1.682560 
# 
# From -- ./inp_files/53486.got.cif
#   From: 2010.05.17/outbox.cif.g08.bks.cpg/sg22_27_cif.got.tgz:53486.got - 2010.06.03 23:40:54.
