data_PCOD9325818
_publ_section_title
;
Structure prediction by ZEFSAII (Michael W. Deem and Ramdas Pophale) SiO2 
 PCOD9325818
Probable space group: C 2 2 2
;
_chemical_formula_sum "Si O2"
_cell_formula_units_Z 18
_cell_length_a 5.527960
_cell_length_b 28.079277
_cell_length_c 5.017321
_cell_angle_alpha 90.000000
_cell_angle_beta 90.000000
_cell_angle_gamma 90.000000
_cell_volume 778.794185
_symmetry_space_group_name_H-M "C 2 2 2"
_symmetry_group_IT_number 21
_symmetry_cell_setting 'orthorhombic'
loop_
_space_group_symop_operation_xyz
x,y,z
-x,-y,z
x,-y,-z
-x,y,-z
1/2+x,1/2+y,z
1/2-x,1/2-y,z
1/2+x,1/2-y,-z
1/2-x,1/2+y,-z
loop_
_atom_site_type_symbol
_atom_site_label
_atom_site_fract_x
_atom_site_fract_y
_atom_site_fract_z
Si Si1 0.500000 0.277937 0.500000
Si Si2 0.000000 0.842731 0.000000
Si Si3 0.340111 0.923026 0.758882
Si Si4 0.000000 0.000000 0.500000
O O1 0.750000 0.250000 0.571517
O O2 0.576017 0.309821 0.246209
O O3 0.798168 0.877383 0.124568
O O4 0.500000 0.910718 0.500000
O O5 0.500000 0.941260 0.000000
O O6 0.160223 0.964496 0.673388
#
# Coordination Sequence:
#
# PCOD9325818 Si02
#       4
#     4   4   8   2
#     4  12  29  52  84 119 158 207 262 338 403 490
#     4  12  28  51  76 116 152 202 266 315 406 470
#     4  12  28  48  78 109 158 208 258 325 383 474
#     4  12  28  50  68 124 148 210 266 310 394 456
#
# _framework density 23.112653000000002
#
# number of rings (size 3 to 8) (size 9 to 14) (size 15 to 20)
#    0.000    0.000    0.000    8.667    9.333   13.333 
#    0.000    0.000    0.000    0.000    0.000    0.000 
#    0.000    0.000    0.000    0.000    0.000    0.000 
#
# Total GULP energy -50461.999411 kJ/mol
# GULP energy per Si atom -5606.888823 kJ/mol
# Density = 2.306005 g / cm^3
# Si number density = 23.112653 Si / 1000 Ang^3
#
#
#
# Elastic Constant Matrix: (Units=GPa)
#
#
# Indices 1 2 3 4 5 6 
#
# 1 151.0107 75.3535 81.6551 0.0000 0.0000 0.0000
# 2 75.3535 133.9592 75.7302 0.0000 0.0000 0.0000
# 3 81.6551 75.7302 209.2556 0.0000 0.0000 0.0000
# 4 0.0000 0.0000 0.0000 87.2928 0.0000 0.0000
# 5 0.0000 0.0000 0.0000 0.0000 48.7666 0.0000
# 6 0.0000 0.0000 0.0000 0.0000 0.0000 -36.9884
#
#
#
# Elastic Compliance Matrix: (Units=1/GPa)
#
#
# Indices 1 2 3 4 5 6 
#
# 1 0.010054 -0.004322 -0.002359 0.000000 0.000000 0.000000
# 2 -0.004322 0.011243 -0.002382 0.000000 0.000000 0.000000
# 3 -0.002359 -0.002382 0.006562 0.000000 0.000000 0.000000
# 4 0.000000 0.000000 0.000000 0.011456 0.000000 0.000000
# 5 0.000000 0.000000 0.000000 0.000000 0.020506 0.000000
# 6 0.000000 0.000000 0.000000 0.000000 0.000000 -0.027035
#
#
# Mechanical properties :
#
#
# Convention : Reuss Voigt Hill
#
# Bulk Modulus (GPa) = 102.75574 106.63367 104.69471
# Shear Modulus (GPa) = 92.32580 37.24664 64.78622
#
# Velocity S-wave (km/s) = 6.32714 4.01874 5.30014
# Velocity P-wave (km/s) = 9.89607 8.23227 9.10226
#
# Compressibility (1/GPa) = 0.00973182
#
# Stress axis : x y z
#
# Youngs Moduli (GPa) = 99.45899 88.94504 152.40083
#
# Poissons Ratio (x) = 0.38442 0.35955
# Poissons Ratio (y) = 0.42986 0.36307
# Poissons Ratio (z) = 0.23465 0.21190
#
# Static dielectric constant tensor:
#      x y z
#    x 1.858130 0.000000 0.000000 
#    y 0.000000 1.852210 0.000000 
#    z 0.000000 0.000000 1.820210 
# 
# From -- ./inp_files/493.got.cif
#   From: 2010.05.17/outbox.cif.g08.bks.cpg/sg21_1_cif.got.tgz:493.got - 2010.06.03 23:14:55.
