data_PCOD9325712
_publ_section_title
;
Structure prediction by ZEFSAII (Michael W. Deem and Ramdas Pophale) SiO2 
 PCOD9325712
Probable space group: C 2 2 2
;
_chemical_formula_sum "Si O2"
_cell_formula_units_Z 32
_cell_length_a 5.571199
_cell_length_b 18.766431
_cell_length_c 13.586073
_cell_angle_alpha 90.000000
_cell_angle_beta 90.000000
_cell_angle_gamma 90.000000
_cell_volume 1420.444605
_symmetry_space_group_name_H-M "C 2 2 2"
_symmetry_group_IT_number 21
_symmetry_cell_setting 'orthorhombic'
loop_
_space_group_symop_operation_xyz
x,y,z
-x,-y,z
x,-y,-z
-x,y,-z
1/2+x,1/2+y,z
1/2-x,1/2-y,z
1/2+x,1/2-y,-z
1/2-x,1/2+y,-z
loop_
_atom_site_type_symbol
_atom_site_label
_atom_site_fract_x
_atom_site_fract_y
_atom_site_fract_z
Si Si1 0.000000 0.500000 0.000000
Si Si2 0.196952 0.400424 0.664521
Si Si3 0.250000 0.750000 0.943032
Si Si4 0.250000 0.750000 0.436559
Si Si5 0.500000 0.000000 0.500000
Si Si6 0.608327 0.897286 0.149087
Si Si7 0.500000 0.500000 0.194228
O O1 0.914833 0.562626 0.920612
O O2 0.261672 0.321193 0.630019
O O3 0.151603 0.448287 0.569388
O O4 0.381332 0.442562 0.732247
O O5 0.965998 0.399431 0.736870
O O6 0.330006 0.818210 0.880842
O O7 0.500000 0.731585 0.000000
O O8 0.500000 0.753813 0.500000
O O9 0.830919 0.949147 0.131207
#
# Coordination Sequence:
#
# PCOD9325712 Si02
#       7
#     2   8   4   4   2   8   4
#     4  12  22  54  72 106 154 194 268 316 382 458
#     4  12  28  50  76 111 156 204 258 322 389 459
#     4  12  32  52  80 116 158 210 260 320 390 464
#     4  12  32  52  80 116 158 210 260 320 390 464
#     4  12  22  54  72 106 154 194 268 316 382 458
#     4  12  28  50  76 111 156 204 258 322 389 459
#     4  12  26  46  80 110 146 210 254 322 386 456
#
# _framework density 22.528158000000001
#
# number of rings (size 3 to 8) (size 9 to 14) (size 15 to 20)
#    0.000    0.000    7.500    0.000   17.500    0.000 
#    0.000    0.000    0.000    0.000    0.000    0.000 
#    0.000    0.000    0.000    0.000    0.000    0.000 
#
# Total GULP energy -89198.685868 kJ/mol
# GULP energy per Si atom -5574.917867 kJ/mol
# Density = 2.247688 g / cm^3
# Si number density = 22.528158 Si / 1000 Ang^3
#
#
#
# Elastic Constant Matrix: (Units=GPa)
#
#
# Indices 1 2 3 4 5 6 
#
# 1 83.7865 25.6624 12.3729 0.0000 0.0000 0.0000
# 2 25.6624 215.9685 48.2711 0.0000 0.0000 0.0000
# 3 12.3729 48.2711 94.5692 0.0000 0.0000 0.0000
# 4 0.0000 0.0000 0.0000 82.7395 0.0000 0.0000
# 5 0.0000 0.0000 0.0000 0.0000 55.7273 0.0000
# 6 0.0000 0.0000 0.0000 0.0000 0.0000 33.2814
#
#
#
# Elastic Compliance Matrix: (Units=1/GPa)
#
#
# Indices 1 2 3 4 5 6 
#
# 1 0.012467 -0.001261 -0.000988 0.000000 0.000000 0.000000
# 2 -0.001261 0.005354 -0.002568 0.000000 0.000000 0.000000
# 3 -0.000988 -0.002568 0.012014 0.000000 0.000000 0.000000
# 4 0.000000 0.000000 0.000000 0.012086 0.000000 0.000000
# 5 0.000000 0.000000 0.000000 0.000000 0.017945 0.000000
# 6 0.000000 0.000000 0.000000 0.000000 0.000000 0.030047
#
#
# Mechanical properties :
#
#
# Convention : Reuss Voigt Hill
#
# Bulk Modulus (GPa) = 49.49788 62.99302 56.24545
# Shear Modulus (GPa) = 47.04572 54.88417 50.96494
#
# Velocity S-wave (km/s) = 4.57476 4.94119 4.76150
# Velocity P-wave (km/s) = 7.06568 7.78309 7.43304
#
# Compressibility (1/GPa) = 0.02020288
#
# Stress axis : x y z
#
# Youngs Moduli (GPa) = 80.21143 186.77408 83.23455
#
# Poissons Ratio (x) = 0.23546 0.08221
# Poissons Ratio (y) = 0.10112 0.21374
# Poissons Ratio (z) = 0.07922 0.47963
#
# Static dielectric constant tensor:
#      x y z
#    x 1.783500 0.000000 0.000000 
#    y 0.000000 1.717120 0.000000 
#    z 0.000000 0.000000 1.923040 
# 
# From -- ./inp_files/28690.got.cif
#   From: 2010.05.17/outbox.cif.g08.bks.cpg/sg21_15_cif.got.tgz:28690.got - 2010.06.03 23:14:55.
