data_PCOD9325161
_publ_section_title
;
Structure prediction by ZEFSAII (Michael W. Deem and Ramdas Pophale) SiO2 
 PCOD9325161
Probable space group: C 2 2 2
;
_chemical_formula_sum "Si O2"
_cell_formula_units_Z 24
_cell_length_a 8.619468
_cell_length_b 4.997329
_cell_length_c 22.930074
_cell_angle_alpha 90.000000
_cell_angle_beta 90.000000
_cell_angle_gamma 90.000000
_cell_volume 987.697286
_symmetry_space_group_name_H-M "C 2 2 2"
_symmetry_group_IT_number 21
_symmetry_cell_setting 'orthorhombic'
loop_
_space_group_symop_operation_xyz
x,y,z
-x,-y,z
x,-y,-z
-x,y,-z
1/2+x,1/2+y,z
1/2-x,1/2-y,z
1/2+x,1/2-y,-z
1/2-x,1/2+y,-z
loop_
_atom_site_type_symbol
_atom_site_label
_atom_site_fract_x
_atom_site_fract_y
_atom_site_fract_z
Si Si1 0.500000 0.500000 0.500000
Si Si2 0.000000 0.000000 0.747093
Si Si3 0.000000 0.500000 0.084729
Si Si4 0.250000 0.250000 0.417173
Si Si5 0.000000 0.000000 0.000000
Si Si6 0.750000 0.750000 0.666272
Si Si7 0.250000 0.750000 0.833378
O O1 0.392784 0.320908 0.458747
O O2 0.099262 0.195319 0.705881
O O3 0.873400 0.121360 0.790085
O O4 0.852057 0.565924 0.124287
O O5 0.953688 0.234732 0.047206
O O6 0.221224 0.499107 0.375190
#
# Coordination Sequence:
#
# PCOD9325161 Si02
#       7
#     2   4   4   4   2   4   4
#     4  12  30  52  80 116 156 204 258 318 384 458
#     4  12  28  50  78 114 154 202 256 316 382 456
#     4  11  26  50  80 114 156 204 256 317 384 458
#     4  12  30  52  80 114 156 204 258 318 384 458
#     4  10  26  50  80 114 156 202 258 316 384 456
#     4  12  29  52  80 116 156 204 257 318 384 458
#     4  12  27  50  78 114 154 202 255 316 382 456
#
# _framework density 24.298943000000001
#
# number of rings (size 3 to 8) (size 9 to 14) (size 15 to 20)
#    0.000    0.333    0.000    6.000    0.000   24.667 
#    0.000    0.000    0.000    0.000    0.000    0.000 
#    0.000    0.000    0.000    0.000    0.000    0.000 
#
# Total GULP energy -67189.425137 kJ/mol
# GULP energy per Si atom -5599.118761 kJ/mol
# Density = 2.424364 g / cm^3
# Si number density = 24.298943 Si / 1000 Ang^3
#
#
#
# Elastic Constant Matrix: (Units=GPa)
#
#
# Indices 1 2 3 4 5 6 
#
# 1 223.4052 101.3995 134.7636 0.0000 0.0000 0.0000
# 2 101.3995 210.7041 136.7805 0.0000 0.0000 0.0000
# 3 134.7636 136.7805 234.8352 0.0000 0.0000 0.0000
# 4 0.0000 0.0000 0.0000 -39.1338 0.0000 0.0000
# 5 0.0000 0.0000 0.0000 0.0000 -45.3642 0.0000
# 6 0.0000 0.0000 0.0000 0.0000 0.0000 53.3308
#
#
#
# Elastic Compliance Matrix: (Units=1/GPa)
#
#
# Indices 1 2 3 4 5 6 
#
# 1 0.007039 -0.001230 -0.003323 0.000000 0.000000 0.000000
# 2 -0.001230 0.007847 -0.003864 0.000000 0.000000 0.000000
# 3 -0.003323 -0.003864 0.008416 0.000000 0.000000 0.000000
# 4 0.000000 0.000000 0.000000 -0.025553 0.000000 0.000000
# 5 0.000000 0.000000 0.000000 0.000000 -0.022044 0.000000
# 6 0.000000 0.000000 0.000000 0.000000 0.000000 0.018751
#
#
# Mechanical properties :
#
#
# Convention : Reuss Voigt Hill
#
# Bulk Modulus (GPa) = 154.63909 157.20353 155.92131
# Shear Modulus (GPa) = 371.87294 13.49996 192.68645
#
# Velocity S-wave (km/s) = 12.38439 2.35963 8.91462
# Velocity P-wave (km/s) = 16.37913 8.50058 13.04867
#
# Compressibility (1/GPa) = 0.00646667
#
# Stress axis : x y z
#
# Youngs Moduli (GPa) = 142.06504 127.44385 118.82408
#
# Poissons Ratio (x) = 0.15682 0.39482
# Poissons Ratio (y) = 0.17481 0.45915
# Poissons Ratio (z) = 0.47205 0.49246
#
# Static dielectric constant tensor:
#      x y z
#    x 1.866980 0.000000 0.000000 
#    y 0.000000 1.904370 0.000000 
#    z 0.000000 0.000000 1.906600 
# 
# From -- ./inp_files/38383.got.cif
#   From: 2010.05.17/outbox.cif.g08.bks.cpg/sg21_20_cif.got.tgz:38383.got - 2010.06.03 23:14:55.
