data_PCOD9325506
_publ_section_title
;
Structure prediction by ZEFSAII (Michael W. Deem and Ramdas Pophale) SiO2 
 PCOD9325506
Probable space group: C 2 2 2
;
_chemical_formula_sum "Si O2"
_cell_formula_units_Z 58
_cell_length_a 26.990826
_cell_length_b 11.472917
_cell_length_c 8.997697
_cell_angle_alpha 90.000000
_cell_angle_beta 90.000000
_cell_angle_gamma 90.000000
_cell_volume 2786.258403
_symmetry_space_group_name_H-M "C 2 2 2"
_symmetry_group_IT_number 21
_symmetry_cell_setting 'orthorhombic'
loop_
_space_group_symop_operation_xyz
x,y,z
-x,-y,z
x,-y,-z
-x,y,-z
1/2+x,1/2+y,z
1/2-x,1/2-y,z
1/2+x,1/2-y,-z
1/2-x,1/2+y,-z
loop_
_atom_site_type_symbol
_atom_site_label
_atom_site_fract_x
_atom_site_fract_y
_atom_site_fract_z
Si Si1 0.058600 0.369412 0.487128
Si Si2 0.822305 0.462672 0.160783
Si Si3 0.870757 0.135885 0.036814
Si Si4 0.793117 0.161505 0.603648
Si Si5 0.371107 0.202262 0.254789
Si Si6 0.782475 0.087371 0.264773
Si Si7 0.575552 0.173452 0.179302
Si Si8 0.500000 0.000000 0.000000
O O1 0.079830 0.500000 0.500000
O O2 0.075343 0.323584 0.325598
O O3 0.073228 0.312721 0.643358
O O4 0.000000 0.374197 0.500000
O O5 0.841418 0.581499 0.236858
O O6 0.775758 0.397608 0.231076
O O7 0.871532 0.386672 0.144903
O O8 0.803484 0.500000 0.000000
O O9 0.821854 0.135589 0.144680
O O10 0.918188 0.197305 0.113771
O O11 0.865902 0.217755 0.890541
O O12 0.878840 0.000000 0.000000
O O13 0.750000 0.250000 0.648016
O O14 0.844830 0.225319 0.617700
O O15 0.788603 0.131113 0.431895
O O16 0.790725 0.051620 0.713660
O O17 0.534645 0.086474 0.102815
#
# Coordination Sequence:
#
# PCOD9325506 Si02
#       8
#     8   8   8   8   8   8   8   2
#     4  11  25  43  75 109 138 174 226 309 394 445
#     4  12  24  41  68 106 137 181 235 305 360 423
#     4  12  26  48  69 103 145 207 241 294 359 454
#     4  11  24  40  64  96 137 201 240 302 352 431
#     4  12  24  44  69  99 146 179 245 300 362 435
#     4  11  26  42  63  99 148 192 251 289 362 441
#     4  12  26  44  76 107 143 182 235 304 377 438
#     4  12  24  52  80 112 144 176 242 326 388 442
#
# _framework density 20.816445999999999
#
# number of rings (size 3 to 8) (size 9 to 14) (size 15 to 20)
#    0.000    0.414    6.207    2.069    5.793    0.000 
#    2.483    0.345    0.000    0.828    0.000    0.000 
#    0.000    0.000    0.000    0.000    0.000    0.000 
#
# Total GULP energy -161810.057806 kJ/mol
# GULP energy per Si atom -5579.657166 kJ/mol
# Density = 2.076907 g / cm^3
# Si number density = 20.816446 Si / 1000 Ang^3
#
#
#
# Elastic Constant Matrix: (Units=GPa)
#
#
# Indices 1 2 3 4 5 6 
#
# 1 88.2197 43.1287 48.9821 0.0000 0.0000 0.0000
# 2 43.1287 99.1670 30.9484 0.0000 0.0000 0.0000
# 3 48.9821 30.9484 112.6550 0.0000 0.0000 0.0000
# 4 0.0000 0.0000 0.0000 23.6923 0.0000 0.0000
# 5 0.0000 0.0000 0.0000 0.0000 35.8340 0.0000
# 6 0.0000 0.0000 0.0000 0.0000 0.0000 -115.9928
#
#
#
# Elastic Compliance Matrix: (Units=1/GPa)
#
#
# Indices 1 2 3 4 5 6 
#
# 1 0.017479 -0.005720 -0.006028 0.000000 0.000000 0.000000
# 2 -0.005720 0.012902 -0.001057 0.000000 0.000000 0.000000
# 3 -0.006028 -0.001057 0.011788 0.000000 0.000000 0.000000
# 4 0.000000 0.000000 0.000000 0.042208 0.000000 0.000000
# 5 0.000000 0.000000 0.000000 0.000000 0.027906 0.000000
# 6 0.000000 0.000000 0.000000 0.000000 0.000000 -0.008621
#
#
# Mechanical properties :
#
#
# Convention : Reuss Voigt Hill
#
# Bulk Modulus (GPa) = 60.39672 60.68446 60.54059
# Shear Modulus (GPa) = 37.09396 0.50555 18.79975
#
# Velocity S-wave (km/s) = 4.22590 0.49334 3.00846
# Velocity P-wave (km/s) = 7.27241 5.43507 6.41981
#
# Compressibility (1/GPa) = 0.01655719
#
# Stress axis : x y z
#
# Youngs Moduli (GPa) = 57.21139 77.50865 84.83083
#
# Poissons Ratio (x) = 0.44338 0.51139
# Poissons Ratio (y) = 0.32728 0.08968
# Poissons Ratio (z) = 0.34489 0.08194
#
# Static dielectric constant tensor:
#      x y z
#    x 1.814850 0.000000 0.000000 
#    y 0.000000 1.844780 0.000000 
#    z 0.000000 0.000000 2.781010 
# 
# From -- ./inp_files/19168.got.cif
#   From: 2010.05.17/outbox.cif.g08.bks.cpg/sg21_10_cif.got.tgz:19168.got - 2010.06.03 23:14:55.
