data_PCOD9325448
_publ_section_title
;
Structure prediction by ZEFSAII (Michael W. Deem and Ramdas Pophale) SiO2 
 PCOD9325448
Probable space group: C 2 2 2
;
_chemical_formula_sum "Si O2"
_cell_formula_units_Z 48
_cell_length_a 26.555322
_cell_length_b 16.214417
_cell_length_c 4.938515
_cell_angle_alpha 90.000000
_cell_angle_beta 90.000000
_cell_angle_gamma 90.000000
_cell_volume 2126.421169
_symmetry_space_group_name_H-M "C 2 2 2"
_symmetry_group_IT_number 21
_symmetry_cell_setting 'orthorhombic'
loop_
_space_group_symop_operation_xyz
x,y,z
-x,-y,z
x,-y,-z
-x,y,-z
1/2+x,1/2+y,z
1/2-x,1/2-y,z
1/2+x,1/2-y,-z
1/2-x,1/2+y,-z
loop_
_atom_site_type_symbol
_atom_site_label
_atom_site_fract_x
_atom_site_fract_y
_atom_site_fract_z
Si Si1 0.784512 0.414560 0.862870
Si Si2 0.736762 0.659075 0.646438
Si Si3 0.034353 0.151832 0.735260
Si Si4 0.137636 0.940244 0.245844
Si Si5 0.443694 0.170657 0.477700
Si Si6 0.599690 0.092976 0.020848
O O1 0.765036 0.402208 0.561027
O O2 0.844171 0.409899 0.902983
O O3 0.768209 0.500000 0.000000
O O4 0.760428 0.346672 0.056695
O O5 0.750000 0.750000 0.542422
O O6 0.679304 0.629097 0.680250
O O7 0.083847 0.101163 0.813601
O O8 0.052706 0.236784 0.591938
O O9 0.000000 0.110740 0.500000
O O10 0.000000 0.166657 0.000000
O O11 0.132223 0.000000 0.500000
O O12 0.153321 0.000000 0.000000
O O13 0.500000 0.135056 0.500000
O O14 0.428740 0.158664 0.167544
O O15 0.405462 0.121536 0.670609
O O16 0.578750 0.000000 0.000000
#
# Coordination Sequence:
#
# PCOD9325448 Si02
#       6
#     8   8   8   8   8   8
#     4  11  24  44  68  94 139 184 225 283 342 415
#     4  12  26  45  69 106 137 185 231 285 347 418
#     4  11  25  46  71 103 139 186 236 292 365 428
#     4  12  27  46  74 106 141 185 235 297 356 424
#     4  11  23  42  64  94 137 181 226 291 352 415
#     4  11  24  39  65  98 131 183 234 280 345 413
#
# _framework density 22.573139000000001
#
# number of rings (size 3 to 8) (size 9 to 14) (size 15 to 20)
#    0.000    0.667    0.000    8.500    4.667    6.667 
#    0.000    0.000    0.000    0.000    0.000    0.000 
#    0.000    0.000    0.000    0.000    0.000    0.000 
#
# Total GULP energy -134253.409838 kJ/mol
# GULP energy per Si atom -5593.892077 kJ/mol
# Density = 2.252176 g / cm^3
# Si number density = 22.573139 Si / 1000 Ang^3
#
#
#
# Elastic Constant Matrix: (Units=GPa)
#
#
# Indices 1 2 3 4 5 6 
#
# 1 120.3533 39.9643 21.8663 0.0000 0.0000 0.0000
# 2 39.9643 107.5172 18.0290 0.0000 0.0000 0.0000
# 3 21.8663 18.0290 94.0251 0.0000 0.0000 0.0000
# 4 0.0000 0.0000 0.0000 30.1812 0.0000 0.0000
# 5 0.0000 0.0000 0.0000 0.0000 39.2747 0.0000
# 6 0.0000 0.0000 0.0000 0.0000 0.0000 41.6281
#
#
#
# Elastic Compliance Matrix: (Units=1/GPa)
#
#
# Indices 1 2 3 4 5 6 
#
# 1 0.009711 -0.003338 -0.001618 0.000000 0.000000 0.000000
# 2 -0.003338 0.010757 -0.001286 0.000000 0.000000 0.000000
# 3 -0.001618 -0.001286 0.011258 0.000000 0.000000 0.000000
# 4 0.000000 0.000000 0.000000 0.033133 0.000000 0.000000
# 5 0.000000 0.000000 0.000000 0.000000 0.025462 0.000000
# 6 0.000000 0.000000 0.000000 0.000000 0.000000 0.024022
#
#
# Mechanical properties :
#
#
# Convention : Reuss Voigt Hill
#
# Bulk Modulus (GPa) = 51.97183 53.51276 52.74230
# Shear Modulus (GPa) = 37.52505 38.35253 37.93879
#
# Velocity S-wave (km/s) = 4.08165 4.12641 4.10409
# Velocity P-wave (km/s) = 6.72955 6.81622 6.77302
#
# Compressibility (1/GPa) = 0.01924119
#
# Stress axis : x y z
#
# Youngs Moduli (GPa) = 102.97136 92.95909 88.82201
#
# Poissons Ratio (x) = 0.31033 0.14375
# Poissons Ratio (y) = 0.34376 0.11425
# Poissons Ratio (z) = 0.16664 0.11958
#
# Static dielectric constant tensor:
#      x y z
#    x 1.847010 0.000000 0.000000 
#    y 0.000000 2.082210 0.000000 
#    z 0.000000 0.000000 1.877240 
# 
# From -- ./inp_files/7335.got.cif
#   From: 2010.05.17/outbox.cif.g08.bks.cpg/sg21_4_cif.got.tgz:7335.got - 2010.06.03 23:14:55.
