data_PCOD9325986
_publ_section_title
;
Structure prediction by ZEFSAII (Michael W. Deem and Ramdas Pophale) SiO2 
 PCOD9325986
Probable space group: F 2 2 2
;
_chemical_formula_sum "Si O2"
_cell_formula_units_Z 120
_cell_length_a 12.105954
_cell_length_b 26.428123
_cell_length_c 21.203284
_cell_angle_alpha 90.000000
_cell_angle_beta 90.000000
_cell_angle_gamma 90.000000
_cell_volume 6783.728672
_symmetry_space_group_name_H-M "F 2 2 2"
_symmetry_group_IT_number 22
_symmetry_cell_setting 'orthorhombic'
loop_
_space_group_symop_operation_xyz
x,y,z
-x,-y,z
x,-y,-z
-x,y,-z
x,1/2+y,1/2+z
-x,1/2-y,1/2+z
x,1/2-y,1/2-z
-x,1/2+y,1/2-z
1/2+x,y,1/2+z
1/2-x,-y,1/2+z
1/2+x,-y,1/2-z
1/2-x,y,1/2-z
1/2+x,1/2+y,z
1/2-x,1/2-y,z
1/2+x,1/2-y,-z
1/2-x,1/2+y,-z
loop_
_atom_site_type_symbol
_atom_site_label
_atom_site_fract_x
_atom_site_fract_y
_atom_site_fract_z
Si Si1 0.668919 0.049163 0.693526
Si Si2 0.407625 0.307830 0.228836
Si Si3 0.284952 0.352359 0.349550
Si Si4 0.415981 0.593098 0.557262
Si Si5 0.940890 0.390844 0.292224
Si Si6 0.566251 0.449133 0.330372
Si Si7 0.728542 0.000000 0.000000
Si Si8 0.309303 0.954632 0.382171
O O1 0.750000 0.032458 0.750000
O O2 0.743470 0.090199 0.658259
O O3 0.558634 0.079903 0.707386
O O4 0.635624 0.001287 0.653667
O O5 0.409503 0.250000 0.250000
O O6 0.365340 0.338055 0.291359
O O7 0.321151 0.317969 0.170940
O O8 0.524260 0.332492 0.210842
O O9 0.344157 0.358491 0.417386
O O10 0.500000 0.605283 0.500000
O O11 0.487132 0.577476 0.618794
O O12 0.347414 0.542986 0.534399
O O13 0.895804 0.413470 0.227138
O O14 0.866430 0.406015 0.351661
O O15 0.500000 0.500000 0.309704
O O16 0.680198 0.460286 0.365275
O O17 0.807607 0.033482 0.044587
#
# Coordination Sequence:
#
# PCOD9325986 Si02
#       8
#    16  16  16  16  16  16   8  16
#     4  11  17  32  52  77 115 151 182 240 298 361
#     4  10  20  37  64  93 111 135 194 270 333 365
#     4  10  17  32  58  88 115 134 185 255 315 356
#     4  12  20  34  53  83 120 164 205 243 280 353
#     4  11  22  34  52  86 115 147 195 251 326 364
#     4  12  19  32  54  80 117 156 202 248 291 354
#     4  12  23  34  49  76 128 174 221 230 275 346
#     4  12  23  32  49  77 122 170 202 235 281 367
#
# _framework density 17.689387
#
# number of rings (size 3 to 8) (size 9 to 14) (size 15 to 20)
#    0.000    0.800    8.000    4.200    0.000    0.000 
#    0.000    1.333    0.000    1.600    6.933    0.000 
#    0.000    0.000    0.000    0.000    0.000    0.000 
#
# Total GULP energy -167032.836491 kJ/mol
# GULP energy per Si atom -5567.761216 kJ/mol
# Density = 1.764913 g / cm^3
# Si number density = 17.689387 Si / 1000 Ang^3
#
#
#
# Elastic Constant Matrix: (Units=GPa)
#
#
# Indices 1 2 3 4 5 6 
#
# 1 44.7824 29.8594 26.3794 0.0000 0.0000 0.0000
# 2 29.8594 75.2780 22.8325 0.0000 0.0000 0.0000
# 3 26.3794 22.8325 84.8790 0.0000 0.0000 0.0000
# 4 0.0000 0.0000 0.0000 15.6179 0.0000 0.0000
# 5 0.0000 0.0000 0.0000 0.0000 37.0513 0.0000
# 6 0.0000 0.0000 0.0000 0.0000 0.0000 17.4813
#
#
#
# Elastic Compliance Matrix: (Units=1/GPa)
#
#
# Indices 1 2 3 4 5 6 
#
# 1 0.034377 -0.011319 -0.007639 0.000000 0.000000 0.000000
# 2 -0.011319 0.018191 -0.001376 0.000000 0.000000 0.000000
# 3 -0.007639 -0.001376 0.014526 0.000000 0.000000 0.000000
# 4 0.000000 0.000000 0.000000 0.064029 0.000000 0.000000
# 5 0.000000 0.000000 0.000000 0.000000 0.026990 0.000000
# 6 0.000000 0.000000 0.000000 0.000000 0.000000 0.057204
#
#
# Mechanical properties :
#
#
# Convention : Reuss Voigt Hill
#
# Bulk Modulus (GPa) = 37.84087 40.34246 39.09167
# Shear Modulus (GPa) = 18.88267 22.42130 20.65198
#
# Velocity S-wave (km/s) = 3.27074 3.56406 3.42055
# Velocity P-wave (km/s) = 5.97511 6.30811 6.14387
#
# Compressibility (1/GPa) = 0.02642645
#
# Stress axis : x y z
#
# Youngs Moduli (GPa) = 29.08906 54.97219 68.84343
#
# Poissons Ratio (x) = 0.62222 0.52591
# Poissons Ratio (y) = 0.32925 0.09470
# Poissons Ratio (z) = 0.22222 0.07562
#
# Static dielectric constant tensor:
#      x y z
#    x 1.704000 0.000000 0.000000 
#    y 0.000000 1.628590 0.000000 
#    z 0.000000 0.000000 1.698250 
# 
# From -- ./inp_files/43049.got.cif
#   From: 2010.05.17/outbox.cif.g08.bks.cpg/sg22_22_cif.got.tgz:43049.got - 2010.06.03 23:40:54.
