data_PCOD9325786
_publ_section_title
;
Structure prediction by ZEFSAII (Michael W. Deem and Ramdas Pophale) SiO2 
 PCOD9325786
Probable space group: C 2 2 2
;
_chemical_formula_sum "Si O2"
_cell_formula_units_Z 18
_cell_length_a 4.655395
_cell_length_b 15.772760
_cell_length_c 10.036969
_cell_angle_alpha 90.000000
_cell_angle_beta 90.000000
_cell_angle_gamma 90.000000
_cell_volume 736.998856
_symmetry_space_group_name_H-M "C 2 2 2"
_symmetry_group_IT_number 21
_symmetry_cell_setting 'orthorhombic'
loop_
_space_group_symop_operation_xyz
x,y,z
-x,-y,z
x,-y,-z
-x,y,-z
1/2+x,1/2+y,z
1/2-x,1/2-y,z
1/2+x,1/2-y,-z
1/2-x,1/2+y,-z
loop_
_atom_site_type_symbol
_atom_site_label
_atom_site_fract_x
_atom_site_fract_y
_atom_site_fract_z
Si Si1 0.000000 0.000000 0.500000
Si Si2 0.212281 0.652828 0.884120
Si Si3 0.781559 0.578408 0.749475
O O1 0.823178 0.056778 0.397021
O O2 0.250000 0.750000 0.922451
O O3 0.503614 0.603026 0.841905
O O4 0.003624 0.654732 0.756807
O O5 0.000000 0.616232 0.000000
O O6 0.000000 0.500000 0.787225
#
# Coordination Sequence:
#
# PCOD9325786 Si02
#       3
#     2   8   8
#     4  12  26  52  76 108 158 196 264 326 358 432
#     4  12  26  49  78 114 159 200 247 316 393 462
#     4  12  25  48  82 109 154 206 254 314 384 440
#
# _framework density 24.423379000000001
#
# number of rings (size 3 to 8) (size 9 to 14) (size 15 to 20)
#    0.000    0.000    4.444    6.000    0.000    0.889 
#    8.000    4.444    0.000    0.000    0.000    0.000 
#    0.000    0.000    0.000    0.000    0.000    0.000 
#
# Total GULP energy -50105.207198 kJ/mol
# GULP energy per Si atom -5567.245244 kJ/mol
# Density = 2.436779 g / cm^3
# Si number density = 24.423379 Si / 1000 Ang^3
#
#
#
# Elastic Constant Matrix: (Units=GPa)
#
#
# Indices 1 2 3 4 5 6 
#
# 1 263.9348 73.3227 109.1212 0.0000 0.0000 0.0000
# 2 73.3227 71.5746 66.1554 0.0000 0.0000 0.0000
# 3 109.1212 66.1554 147.2538 0.0000 0.0000 0.0000
# 4 0.0000 0.0000 0.0000 17.2568 0.0000 0.0000
# 5 0.0000 0.0000 0.0000 0.0000 64.1124 0.0000
# 6 0.0000 0.0000 0.0000 0.0000 0.0000 52.5377
#
#
#
# Elastic Compliance Matrix: (Units=1/GPa)
#
#
# Indices 1 2 3 4 5 6 
#
# 1 0.005918 -0.003436 -0.002842 0.000000 0.000000 0.000000
# 2 -0.003436 0.025888 -0.009084 0.000000 0.000000 0.000000
# 3 -0.002842 -0.009084 0.012978 0.000000 0.000000 0.000000
# 4 0.000000 0.000000 0.000000 0.057948 0.000000 0.000000
# 5 0.000000 0.000000 0.000000 0.000000 0.015598 0.000000
# 6 0.000000 0.000000 0.000000 0.000000 0.000000 0.019034
#
#
# Mechanical properties :
#
#
# Convention : Reuss Voigt Hill
#
# Bulk Modulus (GPa) = 71.12441 108.88464 90.00453
# Shear Modulus (GPa) = 28.93937 42.39231 35.66584
#
# Velocity S-wave (km/s) = 3.44598 4.17073 3.82555
# Velocity P-wave (km/s) = 6.70952 8.23846 7.51298
#
# Compressibility (1/GPa) = 0.01405987
#
# Stress axis : x y z
#
# Youngs Moduli (GPa) = 168.96443 38.62843 77.05200
#
# Poissons Ratio (x) = 0.13273 0.21899
# Poissons Ratio (y) = 0.58057 0.69995
# Poissons Ratio (z) = 0.48022 0.35090
#
# Static dielectric constant tensor:
#      x y z
#    x 2.178580 0.000000 0.000000 
#    y 0.000000 2.107210 0.000000 
#    z 0.000000 0.000000 2.026590 
# 
# From -- ./inp_files/9430.got.cif
#   From: 2010.05.17/outbox.cif.g08.bks.cpg/sg21_5_cif.got.tgz:9430.got - 2010.06.03 23:14:55.
