data_PCOD9325174
_publ_section_title
;
Structure prediction by ZEFSAII (Michael W. Deem and Ramdas Pophale) SiO2 
 PCOD9325174
Probable space group: C 2 2 2
;
_chemical_formula_sum "Si O2"
_cell_formula_units_Z 24
_cell_length_a 14.549746
_cell_length_b 4.981757
_cell_length_c 12.786573
_cell_angle_alpha 90.000000
_cell_angle_beta 90.000000
_cell_angle_gamma 90.000000
_cell_volume 926.812994
_symmetry_space_group_name_H-M "C 2 2 2"
_symmetry_group_IT_number 21
_symmetry_cell_setting 'orthorhombic'
loop_
_space_group_symop_operation_xyz
x,y,z
-x,-y,z
x,-y,-z
-x,y,-z
1/2+x,1/2+y,z
1/2-x,1/2-y,z
1/2+x,1/2-y,-z
1/2-x,1/2+y,-z
loop_
_atom_site_type_symbol
_atom_site_label
_atom_site_fract_x
_atom_site_fract_y
_atom_site_fract_z
Si Si1 0.089435 0.862558 0.677698
Si Si2 0.359056 0.500000 0.000000
Si Si3 0.500000 0.000000 0.500000
Si Si4 0.750000 0.250000 0.822331
Si Si5 0.000000 0.500000 0.000000
Si Si6 0.309875 0.500000 0.500000
O O1 0.055945 0.684846 0.579913
O O2 0.159500 0.703764 0.750828
O O3 0.141008 0.087164 0.608562
O O4 0.000000 0.000000 0.730255
O O5 0.292956 0.466273 0.099693
O O6 0.421676 0.763689 0.020111
O O7 0.250000 0.750000 0.533727
#
# Coordination Sequence:
#
# PCOD9325174 Si02
#       6
#     8   4   2   4   2   4
#     4  12  27  47  80 126 169 235 286 366 444 545
#     4  11  27  60  83 133 172 240 299 393 429 545
#     4  12  24  54  78 124 186 214 298 364 448 542
#     4  12  30  54  84 126 178 238 306 368 456 530
#     4  10  26  56  98 110 170 228 300 382 466 490
#     4  12  24  48  76 116 166 212 275 359 425 527
#
# _framework density 25.895192000000002
#
# number of rings (size 3 to 8) (size 9 to 14) (size 15 to 20)
#    0.000    0.333    5.000    2.000    4.667    1.333 
#   21.000    0.000    0.000    0.000    0.000    0.000 
#    0.000    0.000    0.000    0.000    0.000    0.000 
#
# Total GULP energy -66814.011504 kJ/mol
# GULP energy per Si atom -5567.834292 kJ/mol
# Density = 2.583625 g / cm^3
# Si number density = 25.895192 Si / 1000 Ang^3
#
#
#
# Elastic Constant Matrix: (Units=GPa)
#
#
# Indices 1 2 3 4 5 6 
#
# 1 215.8505 67.6400 80.6513 0.0000 0.0000 0.0000
# 2 67.6400 124.5972 42.4785 0.0000 0.0000 0.0000
# 3 80.6513 42.4785 140.7953 0.0000 0.0000 0.0000
# 4 0.0000 0.0000 0.0000 12.2089 0.0000 0.0000
# 5 0.0000 0.0000 0.0000 0.0000 1.0109 0.0000
# 6 0.0000 0.0000 0.0000 0.0000 0.0000 51.9827
#
#
#
# Elastic Compliance Matrix: (Units=1/GPa)
#
#
# Indices 1 2 3 4 5 6 
#
# 1 0.006541 -0.002534 -0.002982 0.000000 0.000000 0.000000
# 2 -0.002534 0.009928 -0.001544 0.000000 0.000000 0.000000
# 3 -0.002982 -0.001544 0.009277 0.000000 0.000000 0.000000
# 4 0.000000 0.000000 0.000000 0.081908 0.000000 0.000000
# 5 0.000000 0.000000 0.000000 0.000000 0.989177 0.000000
# 6 0.000000 0.000000 0.000000 0.000000 0.000000 0.019237
#
#
# Mechanical properties :
#
#
# Convention : Reuss Voigt Hill
#
# Bulk Modulus (GPa) = 86.01972 95.86475 90.94224
# Shear Modulus (GPa) = 4.40892 32.40539 18.40716
#
# Velocity S-wave (km/s) = 1.30625 3.54136 2.66904
# Velocity P-wave (km/s) = 5.96369 7.33637 6.68535
#
# Compressibility (1/GPa) = 0.01162524
#
# Stress axis : x y z
#
# Youngs Moduli (GPa) = 152.87292 100.72622 107.79762
#
# Poissons Ratio (x) = 0.25527 0.32150
# Poissons Ratio (y) = 0.38743 0.16639
# Poissons Ratio (z) = 0.45594 0.15548
#
# Static dielectric constant tensor:
#      x y z
#    x 3.174240 0.000000 0.000000 
#    y 0.000000 2.109210 0.000000 
#    z 0.000000 0.000000 2.043990 
# 
# From -- ./inp_files/20381.got.cif
#   From: 2010.05.17/outbox.cif.g08.bks.cpg/sg21_11_cif.got.tgz:20381.got - 2010.06.03 23:14:55.
