data_PCOD9325577
_publ_section_title
;
Structure prediction by ZEFSAII (Michael W. Deem and Ramdas Pophale) SiO2 
 PCOD9325577
Probable space group: C 2 2 2
;
_chemical_formula_sum "Si O2"
_cell_formula_units_Z 44
_cell_length_a 13.261241
_cell_length_b 17.099026
_cell_length_c 9.048396
_cell_angle_alpha 90.000000
_cell_angle_beta 90.000000
_cell_angle_gamma 90.000000
_cell_volume 2051.762743
_symmetry_space_group_name_H-M "C 2 2 2"
_symmetry_group_IT_number 21
_symmetry_cell_setting 'orthorhombic'
loop_
_space_group_symop_operation_xyz
x,y,z
-x,-y,z
x,-y,-z
-x,y,-z
1/2+x,1/2+y,z
1/2-x,1/2-y,z
1/2+x,1/2-y,-z
1/2-x,1/2+y,-z
loop_
_atom_site_type_symbol
_atom_site_label
_atom_site_fract_x
_atom_site_fract_y
_atom_site_fract_z
Si Si1 0.857986 0.222244 0.542834
Si Si2 0.500000 0.000000 0.732821
Si Si3 0.500000 0.629579 0.000000
Si Si4 0.224475 0.513885 0.170445
Si Si5 0.819322 0.181519 0.199985
Si Si6 0.086048 0.063481 0.293532
Si Si7 0.500000 0.864679 0.500000
O O1 0.750000 0.250000 0.602872
O O2 0.848761 0.199944 0.369334
O O3 0.906766 0.146508 0.621781
O O4 0.917197 0.303270 0.551848
O O5 0.392580 0.989714 0.813364
O O6 0.477786 0.076152 0.632805
O O7 0.583524 0.674357 0.903909
O O8 0.443392 0.580634 0.875391
O O9 0.251802 0.603888 0.199869
O O10 0.300548 0.470349 0.283915
O O11 0.252356 0.500000 0.000000
O O12 0.750000 0.250000 0.141380
O O13 0.000000 0.000000 0.342464
#
# Coordination Sequence:
#
# PCOD9325577 Si02
#       7
#     8   4   4   8   8   8   4
#     4  11  25  47  73 107 146 182 245 305 362 436
#     4  11  25  44  76  96 137 197 238 290 368 428
#     4  12  23  48  68 100 149 186 238 293 358 440
#     4  12  24  47  69 103 142 183 244 291 360 440
#     4  11  25  47  71 103 145 188 233 304 365 423
#     4  12  24  45  75 108 145 193 238 300 368 437
#     4  11  24  48  67 100 140 184 235 296 356 429
#
# _framework density 21.444973999999998
#
# number of rings (size 3 to 8) (size 9 to 14) (size 15 to 20)
#    0.000    0.545    3.636    4.909    0.000    2.909 
#   13.091    0.000    0.000    0.000    0.000    0.000 
#    0.000    0.000    0.000    0.000    0.000    0.000 
#
# Total GULP energy -122835.118709 kJ/mol
# GULP energy per Si atom -5583.414487 kJ/mol
# Density = 2.139616 g / cm^3
# Si number density = 21.444974 Si / 1000 Ang^3
#
#
#
# Elastic Constant Matrix: (Units=GPa)
#
#
# Indices 1 2 3 4 5 6 
#
# 1 154.8690 48.4352 18.3569 0.0000 0.0000 0.0000
# 2 48.4352 145.8470 29.3631 0.0000 0.0000 0.0000
# 3 18.3569 29.3631 77.4338 0.0000 0.0000 0.0000
# 4 0.0000 0.0000 0.0000 -55.3663 0.0000 0.0000
# 5 0.0000 0.0000 0.0000 0.0000 23.5406 0.0000
# 6 0.0000 0.0000 0.0000 0.0000 0.0000 42.1476
#
#
#
# Elastic Compliance Matrix: (Units=1/GPa)
#
#
# Indices 1 2 3 4 5 6 
#
# 1 0.007260 -0.002235 -0.000873 0.000000 0.000000 0.000000
# 2 -0.002235 0.008111 -0.002546 0.000000 0.000000 0.000000
# 3 -0.000873 -0.002546 0.014087 0.000000 0.000000 0.000000
# 4 0.000000 0.000000 0.000000 -0.018062 0.000000 0.000000
# 5 0.000000 0.000000 0.000000 0.000000 0.042480 0.000000
# 6 0.000000 0.000000 0.000000 0.000000 0.000000 0.023726
#
#
# Mechanical properties :
#
#
# Convention : Reuss Voigt Hill
#
# Bulk Modulus (GPa) = 55.10028 63.38446 59.24237
# Shear Modulus (GPa) = 52.65332 20.86401 36.75867
#
# Velocity S-wave (km/s) = 4.96045 3.12253 4.14465
# Velocity P-wave (km/s) = 7.65230 6.52849 7.11263
#
# Compressibility (1/GPa) = 0.01814873
#
# Stress axis : x y z
#
# Youngs Moduli (GPa) = 137.74851 123.28451 70.98854
#
# Poissons Ratio (x) = 0.27554 0.06201
# Poissons Ratio (y) = 0.30787 0.18074
# Poissons Ratio (z) = 0.12032 0.31388
#
# Static dielectric constant tensor:
#      x y z
#    x 1.926530 0.000000 0.000000 
#    y 0.000000 1.760540 0.000000 
#    z 0.000000 0.000000 1.700880 
# 
# From -- ./inp_files/14902.got.cif
#   From: 2010.05.17/outbox.cif.g08.bks.cpg/sg21_8_cif.got.tgz:14902.got - 2010.06.03 23:14:55.
