data_PCOD9325419
_publ_section_title
;
Structure prediction by ZEFSAII (Michael W. Deem and Ramdas Pophale) SiO2 
 PCOD9325419
Probable space group: C 2 2 2
;
_chemical_formula_sum "Si O2"
_cell_formula_units_Z 28
_cell_length_a 10.819191
_cell_length_b 10.155414
_cell_length_c 12.087002
_cell_angle_alpha 90.000000
_cell_angle_beta 90.000000
_cell_angle_gamma 90.000000
_cell_volume 1328.039567
_symmetry_space_group_name_H-M "C 2 2 2"
_symmetry_group_IT_number 21
_symmetry_cell_setting 'orthorhombic'
loop_
_space_group_symop_operation_xyz
x,y,z
-x,-y,z
x,-y,-z
-x,y,-z
1/2+x,1/2+y,z
1/2-x,1/2-y,z
1/2+x,1/2-y,-z
1/2-x,1/2+y,-z
loop_
_atom_site_type_symbol
_atom_site_label
_atom_site_fract_x
_atom_site_fract_y
_atom_site_fract_z
Si Si1 0.500000 0.000000 0.000000
Si Si2 0.629078 0.334226 0.313368
Si Si3 0.050411 0.700093 0.835247
Si Si4 0.000000 0.000000 0.500000
Si Si5 0.800826 0.045892 0.874764
O O1 0.541453 0.112964 0.088923
O O2 0.750000 0.250000 0.334836
O O3 0.519140 0.237002 0.275945
O O4 0.584909 0.414639 0.418825
O O5 0.656795 0.433087 0.210090
O O6 0.096100 0.839720 0.883122
O O7 0.175770 0.614781 0.829421
O O8 0.775758 0.000000 0.000000
#
# Coordination Sequence:
#
# PCOD9325419 Si02
#       5
#     2   8   8   2   8
#     4  12  20  36  62 106 158 188 228 278 358 462
#     4  12  27  49  76 104 145 196 253 315 379 437
#     4  11  23  39  68 107 151 191 237 291 363 451
#     4  12  28  56  70 104 136 200 272 322 368 428
#     4  11  23  42  70 111 155 193 232 297 378 454
#
# _framework density 21.083711999999998
#
# number of rings (size 3 to 8) (size 9 to 14) (size 15 to 20)
#    0.000    0.571    4.286    3.429    4.000    3.429 
#    0.000    0.000    0.000    0.000    0.000    0.000 
#    0.000    0.000    0.000    0.000    0.000    0.000 
#
# Total GULP energy -78121.743175 kJ/mol
# GULP energy per Si atom -5580.124513 kJ/mol
# Density = 2.103572 g / cm^3
# Si number density = 21.083712 Si / 1000 Ang^3
#
#
#
# Elastic Constant Matrix: (Units=GPa)
#
#
# Indices 1 2 3 4 5 6 
#
# 1 134.0315 70.9963 71.7755 0.0000 0.0000 0.0000
# 2 70.9963 132.0860 77.5192 0.0000 0.0000 0.0000
# 3 71.7755 77.5192 154.1104 0.0000 0.0000 0.0000
# 4 0.0000 0.0000 0.0000 54.4060 0.0000 0.0000
# 5 0.0000 0.0000 0.0000 0.0000 43.6757 0.0000
# 6 0.0000 0.0000 0.0000 0.0000 0.0000 52.4041
#
#
#
# Elastic Compliance Matrix: (Units=1/GPa)
#
#
# Indices 1 2 3 4 5 6 
#
# 1 0.011425 -0.004282 -0.003167 0.000000 0.000000 0.000000
# 2 -0.004282 0.012347 -0.004216 0.000000 0.000000 0.000000
# 3 -0.003167 -0.004216 0.010085 0.000000 0.000000 0.000000
# 4 0.000000 0.000000 0.000000 0.018380 0.000000 0.000000
# 5 0.000000 0.000000 0.000000 0.000000 0.022896 0.000000
# 6 0.000000 0.000000 0.000000 0.000000 0.000000 0.019082
#
#
# Mechanical properties :
#
#
# Convention : Reuss Voigt Hill
#
# Bulk Modulus (GPa) = 95.00639 95.64552 95.32596
# Shear Modulus (GPa) = 41.30321 43.42631 42.36476
#
# Velocity S-wave (km/s) = 4.43087 4.54333 4.48745
# Velocity P-wave (km/s) = 8.44607 8.54316 8.49475
#
# Compressibility (1/GPa) = 0.01052561
#
# Stress axis : x y z
#
# Youngs Moduli (GPa) = 87.52460 80.99120 99.15973
#
# Poissons Ratio (x) = 0.34683 0.31406
# Poissons Ratio (y) = 0.37481 0.41808
# Poissons Ratio (z) = 0.27721 0.34148
#
# Static dielectric constant tensor:
#      x y z
#    x 2.067230 0.000000 0.000000 
#    y 0.000000 1.665270 0.000000 
#    z 0.000000 0.000000 1.703720 
# 
# From -- ./inp_files/23372.got.cif
#   From: 2010.05.17/outbox.cif.g08.bks.cpg/sg21_12_cif.got.tgz:23372.got - 2010.06.03 23:14:55.
