data_PCOD9325208
_publ_section_title
;
Structure prediction by ZEFSAII (Michael W. Deem and Ramdas Pophale) SiO2 
 PCOD9325208
Probable space group: C 2 2 2
;
_chemical_formula_sum "Si O2"
_cell_formula_units_Z 40
_cell_length_a 18.475171
_cell_length_b 15.056604
_cell_length_c 7.039312
_cell_angle_alpha 90.000000
_cell_angle_beta 90.000000
_cell_angle_gamma 90.000000
_cell_volume 1958.148885
_symmetry_space_group_name_H-M "C 2 2 2"
_symmetry_group_IT_number 21
_symmetry_cell_setting 'orthorhombic'
loop_
_space_group_symop_operation_xyz
x,y,z
-x,-y,z
x,-y,-z
-x,y,-z
1/2+x,1/2+y,z
1/2-x,1/2-y,z
1/2+x,1/2-y,-z
1/2-x,1/2+y,-z
loop_
_atom_site_type_symbol
_atom_site_label
_atom_site_fract_x
_atom_site_fract_y
_atom_site_fract_z
Si Si1 0.664611 0.761432 0.802512
Si Si2 0.082181 0.601561 0.940218
Si Si3 0.419338 0.607186 0.710549
Si Si4 0.081889 0.705394 0.583308
Si Si5 0.087671 0.916698 0.253164
O O1 0.750000 0.750000 0.802540
O O2 0.636690 0.835089 0.947796
O O3 0.635011 0.791182 0.595220
O O4 0.629655 0.664392 0.839712
O O5 0.093260 0.500000 0.000000
O O6 0.087467 0.619396 0.715360
O O7 0.000000 0.626707 0.000000
O O8 0.401195 0.710826 0.722645
O O9 0.410216 0.594776 0.482426
O O10 0.502153 0.596713 0.779095
O O11 0.385254 0.516382 0.791057
O O12 0.000000 0.715603 0.500000
#
# Coordination Sequence:
#
# PCOD9325208 Si02
#       5
#     8   8   8   8   8
#     4  11  23  41  63  97 136 174 215 274 342 409
#     4  11  24  43  67  96 130 177 235 292 324 382
#     4   8  12  25  55  88 112 148 204 257 303 376
#     4  11  19  39  67  94 124 172 228 270 330 398
#     4   8  13  26  51  85 118 155 196 252 308 377
#
# _framework density 20.427454999999998
#
# number of rings (size 3 to 8) (size 9 to 14) (size 15 to 20)
#    0.000    2.200    6.000    1.200    0.000    1.600 
#    0.000   11.000    0.000    3.600    0.000    0.000 
#    0.000    0.000    0.000    0.000    0.000    0.000 
#
# Total GULP energy -111496.039784 kJ/mol
# GULP energy per Si atom -5574.801989 kJ/mol
# Density = 2.038096 g / cm^3
# Si number density = 20.427455 Si / 1000 Ang^3
#
#
#
# Elastic Constant Matrix: (Units=GPa)
#
#
# Indices 1 2 3 4 5 6 
#
# 1 111.6356 39.9757 30.7391 0.0000 0.0000 0.0000
# 2 39.9757 109.1113 40.8245 0.0000 0.0000 0.0000
# 3 30.7391 40.8245 98.9221 0.0000 0.0000 0.0000
# 4 0.0000 0.0000 0.0000 29.8076 0.0000 0.0000
# 5 0.0000 0.0000 0.0000 0.0000 43.0968 0.0000
# 6 0.0000 0.0000 0.0000 0.0000 0.0000 10.4281
#
#
#
# Elastic Compliance Matrix: (Units=1/GPa)
#
#
# Indices 1 2 3 4 5 6 
#
# 1 0.010637 -0.003146 -0.002007 0.000000 0.000000 0.000000
# 2 -0.003146 0.011769 -0.003879 0.000000 0.000000 0.000000
# 3 -0.002007 -0.003879 0.012334 0.000000 0.000000 0.000000
# 4 0.000000 0.000000 0.000000 0.033548 0.000000 0.000000
# 5 0.000000 0.000000 0.000000 0.000000 0.023204 0.000000
# 6 0.000000 0.000000 0.000000 0.000000 0.000000 0.095895
#
#
# Mechanical properties :
#
#
# Convention : Reuss Voigt Hill
#
# Bulk Modulus (GPa) = 59.97126 60.30527 60.13826
# Shear Modulus (GPa) = 23.69555 30.54181 27.11868
#
# Velocity S-wave (km/s) = 3.40955 3.87089 3.64752
# Velocity P-wave (km/s) = 6.70238 7.04018 6.87336
#
# Compressibility (1/GPa) = 0.01667465
#
# Stress axis : x y z
#
# Youngs Moduli (GPa) = 94.01183 84.96800 81.07937
#
# Poissons Ratio (x) = 0.26733 0.16272
# Poissons Ratio (y) = 0.29578 0.31454
# Poissons Ratio (z) = 0.18867 0.32962
#
# Static dielectric constant tensor:
#      x y z
#    x 1.685860 0.000000 0.000000 
#    y 0.000000 1.777250 0.000000 
#    z 0.000000 0.000000 1.793480 
# 
# From -- ./inp_files/4820.got.cif
#   From: 2010.05.17/outbox.cif.g08.bks.cpg/sg21_3_cif.got.tgz:4820.got - 2010.06.03 23:14:55.
