data_PCOD9325679
_publ_section_title
;
Structure prediction by ZEFSAII (Michael W. Deem and Ramdas Pophale) SiO2 
 PCOD9325679
Probable space group: C 2 2 2
;
_chemical_formula_sum "Si O2"
_cell_formula_units_Z 38
_cell_length_a 13.281456
_cell_length_b 23.086763
_cell_length_c 5.408054
_cell_angle_alpha 90.000000
_cell_angle_beta 90.000000
_cell_angle_gamma 90.000000
_cell_volume 1658.249030
_symmetry_space_group_name_H-M "C 2 2 2"
_symmetry_group_IT_number 21
_symmetry_cell_setting 'orthorhombic'
loop_
_space_group_symop_operation_xyz
x,y,z
-x,-y,z
x,-y,-z
-x,y,-z
1/2+x,1/2+y,z
1/2-x,1/2-y,z
1/2+x,1/2-y,-z
1/2-x,1/2+y,-z
loop_
_atom_site_type_symbol
_atom_site_label
_atom_site_fract_x
_atom_site_fract_y
_atom_site_fract_z
Si Si1 0.174370 0.541268 0.686540
Si Si2 0.500000 0.000000 0.000000
Si Si3 0.728765 0.642241 0.037746
Si Si4 0.500000 0.877730 0.500000
Si Si5 0.883358 0.175420 0.457088
Si Si6 0.413436 0.215019 0.845246
O O1 0.235013 0.500000 0.500000
O O2 0.233590 0.577692 0.892228
O O3 0.103422 0.589783 0.560306
O O4 0.088467 0.499466 0.793735
O O5 0.672665 0.663318 0.285929
O O6 0.665433 0.643745 0.782513
O O7 0.820193 0.687377 0.988810
O O8 0.525777 0.838453 0.732517
O O9 0.878464 0.242834 0.373456
O O10 0.000000 0.160393 0.500000
O O11 0.500000 0.248236 0.000000
#
# Coordination Sequence:
#
# PCOD9325679 Si02
#       6
#     8   2   8   4   8   8
#     4  12  25  42  69 108 153 195 241 302 378 473
#     4  12  22  40  72 106 150 188 222 296 398 468
#     4  12  28  46  73 111 149 201 258 313 378 456
#     4  12  21  42  66 108 154 202 221 284 372 468
#     4  12  28  50  71 103 149 211 264 322 363 435
#     4  12  25  41  74 108 159 196 246 294 389 465
#
# _framework density 22.915737
#
# number of rings (size 3 to 8) (size 9 to 14) (size 15 to 20)
#    0.000    0.000    5.263    5.053    2.947    5.053 
#    0.000    0.000    0.000    0.632    0.000    0.000 
#    0.000    0.000    0.000    0.000    0.000    0.000 
#
# Total GULP energy -105952.473254 kJ/mol
# GULP energy per Si atom -5576.445961 kJ/mol
# Density = 2.286358 g / cm^3
# Si number density = 22.915737 Si / 1000 Ang^3
#
#
#
# Elastic Constant Matrix: (Units=GPa)
#
#
# Indices 1 2 3 4 5 6 
#
# 1 147.2045 45.0347 90.7693 0.0000 0.0000 0.0000
# 2 45.0347 92.9846 40.5880 0.0000 0.0000 0.0000
# 3 90.7693 40.5880 173.0203 0.0000 0.0000 0.0000
# 4 0.0000 0.0000 0.0000 81.5595 0.0000 0.0000
# 5 0.0000 0.0000 0.0000 0.0000 58.5753 0.0000
# 6 0.0000 0.0000 0.0000 0.0000 0.0000 -25.5498
#
#
#
# Elastic Compliance Matrix: (Units=1/GPa)
#
#
# Indices 1 2 3 4 5 6 
#
# 1 0.010772 -0.003064 -0.004932 0.000000 0.000000 0.000000
# 2 -0.003064 0.012853 -0.001408 0.000000 0.000000 0.000000
# 3 -0.004932 -0.001408 0.008698 0.000000 0.000000 0.000000
# 4 0.000000 0.000000 0.000000 0.012261 0.000000 0.000000
# 5 0.000000 0.000000 0.000000 0.000000 0.017072 0.000000
# 6 0.000000 0.000000 0.000000 0.000000 0.000000 -0.039139
#
#
# Mechanical properties :
#
#
# Convention : Reuss Voigt Hill
#
# Bulk Modulus (GPa) = 73.99637 85.11036 79.55337
# Shear Modulus (GPa) = 109.09986 38.70481 73.90233
#
# Velocity S-wave (km/s) = 6.90742 4.11421 5.68503
# Velocity P-wave (km/s) = 9.79681 7.73241 8.82518
#
# Compressibility (1/GPa) = 0.01351418
#
# Stress axis : x y z
#
# Youngs Moduli (GPa) = 92.83198 77.80323 114.97552
#
# Poissons Ratio (x) = 0.23840 0.56711
# Poissons Ratio (y) = 0.28445 0.16184
# Poissons Ratio (z) = 0.45789 0.10951
#
# Static dielectric constant tensor:
#      x y z
#    x 1.724930 0.000000 0.000000 
#    y 0.000000 1.959710 0.000000 
#    z 0.000000 0.000000 2.004590 
# 
# From -- ./inp_files/2881.got.cif
#   From: 2010.05.17/outbox.cif.g08.bks.cpg/sg21_2_cif.got.tgz:2881.got - 2010.06.03 23:14:55.
