data_PCOD9325407
_publ_section_title
;
Structure prediction by ZEFSAII (Michael W. Deem and Ramdas Pophale) SiO2 
 PCOD9325407
Probable space group: C 2 2 2
;
_chemical_formula_sum "Si O2"
_cell_formula_units_Z 34
_cell_length_a 9.951211
_cell_length_b 11.427966
_cell_length_c 12.361279
_cell_angle_alpha 90.000000
_cell_angle_beta 90.000000
_cell_angle_gamma 90.000000
_cell_volume 1405.750619
_symmetry_space_group_name_H-M "C 2 2 2"
_symmetry_group_IT_number 21
_symmetry_cell_setting 'orthorhombic'
loop_
_space_group_symop_operation_xyz
x,y,z
-x,-y,z
x,-y,-z
-x,y,-z
1/2+x,1/2+y,z
1/2-x,1/2-y,z
1/2+x,1/2-y,-z
1/2-x,1/2+y,-z
loop_
_atom_site_type_symbol
_atom_site_label
_atom_site_fract_x
_atom_site_fract_y
_atom_site_fract_z
Si Si1 0.952388 0.680826 0.880715
Si Si2 0.418846 0.849472 0.662732
Si Si3 0.500000 0.000000 0.500000
Si Si4 0.374744 0.576370 0.662266
Si Si5 0.165346 0.062349 0.882742
O O1 0.927504 0.821137 0.875503
O O2 0.812210 0.616160 0.865536
O O3 0.055293 0.637483 0.789979
O O4 0.000000 0.652927 0.000000
O O5 0.415043 0.710967 0.650242
O O6 0.281437 0.913014 0.622698
O O7 0.538044 0.902690 0.591550
O O8 0.500000 0.500000 0.617634
O O9 0.359224 0.526811 0.784535
O O10 0.154757 0.000000 0.000000
#
# Coordination Sequence:
#
# PCOD9325407 Si02
#       5
#     8   8   2   8   8
#     4  11  23  41  68 105 147 200 249 304 380 444
#     4  11  25  48  76 104 145 193 246 307 378 445
#     4  12  28  56  74 104 140 184 240 314 376 456
#     4  11  23  46  72 107 144 189 246 309 367 452
#     4  11  23  37  64 105 152 200 248 307 367 449
#
# _framework density 24.186366
#
# number of rings (size 3 to 8) (size 9 to 14) (size 15 to 20)
#    0.000    0.941    2.353    4.235    0.000    6.118 
#    8.471    0.000    0.000    0.000    0.000    0.000 
#    0.000    0.000    0.000    0.000    0.000    0.000 
#
# Total GULP energy -94804.066510 kJ/mol
# GULP energy per Si atom -5576.709795 kJ/mol
# Density = 2.413132 g / cm^3
# Si number density = 24.186366 Si / 1000 Ang^3
#
#
#
# Elastic Constant Matrix: (Units=GPa)
#
#
# Indices 1 2 3 4 5 6 
#
# 1 128.6943 69.2930 11.6431 0.0000 0.0000 0.0000
# 2 69.2930 186.0617 55.6046 0.0000 0.0000 0.0000
# 3 11.6431 55.6046 117.4718 0.0000 0.0000 0.0000
# 4 0.0000 0.0000 0.0000 63.7953 0.0000 0.0000
# 5 0.0000 0.0000 0.0000 0.0000 -18.2569 0.0000
# 6 0.0000 0.0000 0.0000 0.0000 0.0000 52.6616
#
#
#
# Elastic Compliance Matrix: (Units=1/GPa)
#
#
# Indices 1 2 3 4 5 6 
#
# 1 0.009797 -0.003912 0.000881 0.000000 0.000000 0.000000
# 2 -0.003912 0.007822 -0.003315 0.000000 0.000000 0.000000
# 3 0.000881 -0.003315 0.009994 0.000000 0.000000 0.000000
# 4 0.000000 0.000000 0.000000 0.015675 0.000000 0.000000
# 5 0.000000 0.000000 0.000000 0.000000 -0.054774 0.000000
# 6 0.000000 0.000000 0.000000 0.000000 0.000000 0.018989
#
#
# Mechanical properties :
#
#
# Convention : Reuss Voigt Hill
#
# Bulk Modulus (GPa) = 67.01757 78.36769 72.69263
# Shear Modulus (GPa) = 198.65333 39.35247 119.00290
#
# Velocity S-wave (km/s) = 9.07264 4.03805 7.02206
# Velocity P-wave (km/s) = 11.72686 7.36295 9.79113
#
# Compressibility (1/GPa) = 0.01492146
#
# Stress axis : x y z
#
# Youngs Moduli (GPa) = 102.07344 127.84487 100.05560
#
# Poissons Ratio (x) = 0.50009 -0.08811
# Poissons Ratio (y) = 0.39928 0.33166
# Poissons Ratio (z) = -0.08988 0.42378
#
# Static dielectric constant tensor:
#      x y z
#    x 2.498500 0.000000 0.000000 
#    y 0.000000 1.917770 0.000000 
#    z 0.000000 0.000000 1.891840 
# 
# From -- ./inp_files/23465.got.cif
#   From: 2010.05.17/outbox.cif.g08.bks.cpg/sg21_12_cif.got.tgz:23465.got - 2010.06.03 23:14:55.
