data_PCOD9325754
_publ_section_title
;
Structure prediction by ZEFSAII (Michael W. Deem and Ramdas Pophale) SiO2 
 PCOD9325754
Probable space group: C 2 2 2
;
_chemical_formula_sum "Si O2"
_cell_formula_units_Z 28
_cell_length_a 7.024514
_cell_length_b 21.589359
_cell_length_c 8.712454
_cell_angle_alpha 90.000000
_cell_angle_beta 90.000000
_cell_angle_gamma 90.000000
_cell_volume 1321.285073
_symmetry_space_group_name_H-M "C 2 2 2"
_symmetry_group_IT_number 21
_symmetry_cell_setting 'orthorhombic'
loop_
_space_group_symop_operation_xyz
x,y,z
-x,-y,z
x,-y,-z
-x,y,-z
1/2+x,1/2+y,z
1/2-x,1/2-y,z
1/2+x,1/2-y,-z
1/2-x,1/2+y,-z
loop_
_atom_site_type_symbol
_atom_site_label
_atom_site_fract_x
_atom_site_fract_y
_atom_site_fract_z
Si Si1 0.419034 0.298991 0.170309
Si Si2 0.275404 0.073906 0.262165
Si Si3 0.500000 0.000000 0.000000
Si Si4 0.250000 0.250000 0.611417
Si Si5 0.500000 0.143817 0.500000
Si Si6 0.000000 0.000000 0.500000
O O1 0.250000 0.250000 0.179032
O O2 0.345567 0.367316 0.206899
O O3 0.579580 0.275242 0.285566
O O4 0.500000 0.298070 0.000000
O O5 0.361022 0.037764 0.115972
O O6 0.456914 0.100901 0.355399
O O7 0.141810 0.037344 0.384301
O O8 0.323938 0.190642 0.519233
#
# Coordination Sequence:
#
# PCOD9325754 Si02
#       6
#     8   8   2   4   4   2
#     4  12  26  45  75 114 150 192 244 313 385 448
#     4  12  28  49  77 107 150 199 255 311 370 446
#     4  12  32  48  76 108 148 204 264 306 366 442
#     4  12  24  44  74 116 150 188 242 298 390 464
#     4  12  24  46  76 108 151 193 242 308 380 454
#     4  12  28  54  76 104 150 208 260 306 370 438
#
# _framework density 21.191489000000001
#
# number of rings (size 3 to 8) (size 9 to 14) (size 15 to 20)
#    0.000    0.000    4.286    5.143   10.000    0.000 
#    0.000    0.000    0.000    0.000    0.000    0.000 
#    0.000    0.000    0.000    0.000    0.000    0.000 
#
# Total GULP energy -78361.515014 kJ/mol
# GULP energy per Si atom -5597.251072 kJ/mol
# Density = 2.114326 g / cm^3
# Si number density = 21.191489 Si / 1000 Ang^3
#
#
#
# Elastic Constant Matrix: (Units=GPa)
#
#
# Indices 1 2 3 4 5 6 
#
# 1 121.8259 79.0017 72.1899 0.0000 0.0000 0.0000
# 2 79.0017 155.8062 98.4275 0.0000 0.0000 0.0000
# 3 72.1899 98.4275 169.9675 0.0000 0.0000 0.0000
# 4 0.0000 0.0000 0.0000 59.5967 0.0000 0.0000
# 5 0.0000 0.0000 0.0000 0.0000 64.2704 0.0000
# 6 0.0000 0.0000 0.0000 0.0000 0.0000 38.9263
#
#
#
# Elastic Compliance Matrix: (Units=1/GPa)
#
#
# Indices 1 2 3 4 5 6 
#
# 1 0.012960 -0.004879 -0.002679 0.000000 0.000000 0.000000
# 2 -0.004879 0.011957 -0.004852 0.000000 0.000000 0.000000
# 3 -0.002679 -0.004852 0.009831 0.000000 0.000000 0.000000
# 4 0.000000 0.000000 0.000000 0.016779 0.000000 0.000000
# 5 0.000000 0.000000 0.000000 0.000000 0.015559 0.000000
# 6 0.000000 0.000000 0.000000 0.000000 0.000000 0.025690
#
#
# Mechanical properties :
#
#
# Convention : Reuss Voigt Hill
#
# Bulk Modulus (GPa) = 100.72443 105.20420 102.96431
# Shear Modulus (GPa) = 41.35425 45.75737 43.55581
#
# Velocity S-wave (km/s) = 4.42232 4.65180 4.53851
# Velocity P-wave (km/s) = 8.58543 8.86592 8.72681
#
# Compressibility (1/GPa) = 0.00992808
#
# Stress axis : x y z
#
# Youngs Moduli (GPa) = 77.16183 83.63023 101.71586
#
# Poissons Ratio (x) = 0.40802 0.27250
# Poissons Ratio (y) = 0.37646 0.49356
# Poissons Ratio (z) = 0.20672 0.40580
#
# Static dielectric constant tensor:
#      x y z
#    x 1.765260 0.000000 0.000000 
#    y 0.000000 1.739530 0.000000 
#    z 0.000000 0.000000 1.763860 
# 
# From -- ./inp_files/10360.got.cif
#   From: 2010.05.17/outbox.cif.g08.bks.cpg/sg21_6_cif.got.tgz:10360.got - 2010.06.03 23:14:55.
