data_PCOD9325369
_publ_section_title
;
Structure prediction by ZEFSAII (Michael W. Deem and Ramdas Pophale) SiO2 
 PCOD9325369
Probable space group: C 2 2 2
;
_chemical_formula_sum "Si O2"
_cell_formula_units_Z 32
_cell_length_a 13.298809
_cell_length_b 7.747783
_cell_length_c 13.396494
_cell_angle_alpha 90.000000
_cell_angle_beta 90.000000
_cell_angle_gamma 90.000000
_cell_volume 1380.324991
_symmetry_space_group_name_H-M "C 2 2 2"
_symmetry_group_IT_number 21
_symmetry_cell_setting 'orthorhombic'
loop_
_space_group_symop_operation_xyz
x,y,z
-x,-y,z
x,-y,-z
-x,y,-z
1/2+x,1/2+y,z
1/2-x,1/2-y,z
1/2+x,1/2-y,-z
1/2-x,1/2+y,-z
loop_
_atom_site_type_symbol
_atom_site_label
_atom_site_fract_x
_atom_site_fract_y
_atom_site_fract_z
Si Si1 0.973735 0.201723 0.257788
Si Si2 0.153507 0.343967 0.569861
Si Si3 0.682563 0.902975 0.259927
Si Si4 0.663867 0.121080 0.085209
O O1 0.926119 0.225526 0.369951
O O2 0.906562 0.274225 0.164379
O O3 0.070242 0.328069 0.256603
O O4 0.000000 0.000000 0.243103
O O5 0.114165 0.500000 0.500000
O O6 0.250000 0.250000 0.522040
O O7 0.198313 0.444008 0.664131
O O8 0.750000 0.750000 0.293702
O O9 0.715948 0.976996 0.154543
O O10 0.750000 0.250000 0.046962
O O11 0.615343 0.000000 0.000000
#
# Coordination Sequence:
#
# PCOD9325369 Si02
#       4
#     8   8   8   8
#     4  11  24  43  68  98 134 181 224 271 334 404
#     4  11  23  41  65  97 132 173 222 276 333 398
#     4  11  22  41  66  94 130 173 218 273 334 398
#     4  11  23  41  65  97 132 173 222 276 333 398
#
# _framework density 23.182946999999999
#
# number of rings (size 3 to 8) (size 9 to 14) (size 15 to 20)
#    0.000    1.000    0.000   10.500    0.000    4.000 
#    0.000    2.500    0.000    0.000    0.000    0.000 
#    0.000    0.000    0.000    0.000    0.000    0.000 
#
# Total GULP energy -89219.704279 kJ/mol
# GULP energy per Si atom -5576.231517 kJ/mol
# Density = 2.313018 g / cm^3
# Si number density = 23.182947 Si / 1000 Ang^3
#
#
#
# Elastic Constant Matrix: (Units=GPa)
#
#
# Indices 1 2 3 4 5 6 
#
# 1 103.2064 45.4548 18.7609 0.0000 0.0000 0.0000
# 2 45.4548 138.1736 43.6926 0.0000 0.0000 0.0000
# 3 18.7609 43.6926 126.3684 0.0000 0.0000 0.0000
# 4 0.0000 0.0000 0.0000 51.8645 0.0000 0.0000
# 5 0.0000 0.0000 0.0000 0.0000 14.9663 0.0000
# 6 0.0000 0.0000 0.0000 0.0000 0.0000 46.9666
#
#
#
# Elastic Compliance Matrix: (Units=1/GPa)
#
#
# Indices 1 2 3 4 5 6 
#
# 1 0.011353 -0.003595 -0.000443 0.000000 0.000000 0.000000
# 2 -0.003595 0.009264 -0.002669 0.000000 0.000000 0.000000
# 3 -0.000443 -0.002669 0.008902 0.000000 0.000000 0.000000
# 4 0.000000 0.000000 0.000000 0.019281 0.000000 0.000000
# 5 0.000000 0.000000 0.000000 0.000000 0.066817 0.000000
# 6 0.000000 0.000000 0.000000 0.000000 0.000000 0.021292
#
#
# Mechanical properties :
#
#
# Convention : Reuss Voigt Hill
#
# Bulk Modulus (GPa) = 62.09071 64.84056 63.46563
# Shear Modulus (GPa) = 32.11494 40.08214 36.09854
#
# Velocity S-wave (km/s) = 3.72598 4.16257 3.95031
# Velocity P-wave (km/s) = 6.73436 7.15070 6.94565
#
# Compressibility (1/GPa) = 0.01610547
#
# Stress axis : x y z
#
# Youngs Moduli (GPa) = 88.08214 107.94514 112.33408
#
# Poissons Ratio (x) = 0.38805 0.04971
# Poissons Ratio (y) = 0.31664 0.29986
# Poissons Ratio (z) = 0.03898 0.28815
#
# Static dielectric constant tensor:
#      x y z
#    x 1.983230 0.000000 0.000000 
#    y 0.000000 1.694630 0.000000 
#    z 0.000000 0.000000 1.919100 
# 
# From -- ./inp_files/31951.got.cif
#   From: 2010.05.17/outbox.cif.g08.bks.cpg/sg21_16_cif.got.tgz:31951.got - 2010.06.03 23:14:55.
