data_PCOD9325190
_publ_section_title
;
Structure prediction by ZEFSAII (Michael W. Deem and Ramdas Pophale) SiO2 
 PCOD9325190
Probable space group: C 2 2 2
;
_chemical_formula_sum "Si O2"
_cell_formula_units_Z 48
_cell_length_a 20.855782
_cell_length_b 17.690608
_cell_length_c 7.880622
_cell_angle_alpha 90.000000
_cell_angle_beta 90.000000
_cell_angle_gamma 90.000000
_cell_volume 2907.567023
_symmetry_space_group_name_H-M "C 2 2 2"
_symmetry_group_IT_number 21
_symmetry_cell_setting 'orthorhombic'
loop_
_space_group_symop_operation_xyz
x,y,z
-x,-y,z
x,-y,-z
-x,y,-z
1/2+x,1/2+y,z
1/2-x,1/2-y,z
1/2+x,1/2-y,-z
1/2-x,1/2+y,-z
loop_
_atom_site_type_symbol
_atom_site_label
_atom_site_fract_x
_atom_site_fract_y
_atom_site_fract_z
Si Si1 0.816045 0.561408 0.620443
Si Si2 0.356860 0.827767 0.864768
Si Si3 0.674384 0.723774 0.841278
Si Si4 0.240002 0.913006 0.034242
Si Si5 0.072017 0.475405 0.192894
Si Si6 0.823968 0.272324 0.521752
O O1 0.782073 0.500000 0.500000
O O2 0.776611 0.583575 0.785906
O O3 0.879475 0.519189 0.685831
O O4 0.829670 0.638982 0.524274
O O5 0.411950 0.886754 0.814152
O O6 0.351164 0.768327 0.711211
O O7 0.363637 0.782646 0.040901
O O8 0.290929 0.877361 0.897740
O O9 0.750000 0.750000 0.841090
O O10 0.680639 0.643045 0.933080
O O11 0.652079 0.727534 0.645682
O O12 0.223716 0.000000 0.000000
O O13 0.000000 0.500000 0.233254
O O14 0.086020 0.500000 0.000000
O O15 0.750000 0.250000 0.537444
#
# Coordination Sequence:
#
# PCOD9325190 Si02
#       6
#     8   8   8   8   8   8
#     4  12  19  30  45  67  93 127 165 211 242 287
#     4  11  18  31  47  63  88 126 166 205 244 289
#     4   9  18  29  45  65  89 119 162 199 244 301
#     4  11  17  31  46  67  95 125 164 202 250 302
#     4  11  21  33  47  64  93 134 175 209 239 273
#     4  11  18  29  46  65  88 118 164 202 246 297
#
# _framework density 16.508647
#
# number of rings (size 3 to 8) (size 9 to 14) (size 15 to 20)
#    0.000    1.167   10.000    1.500    0.000    0.333 
#    0.000    0.000    0.000    0.000    0.000    0.000 
#    0.000    0.000    0.000   12.000    9.333    8.333 
#
# Total GULP energy -133655.625912 kJ/mol
# GULP energy per Si atom -5568.984413 kJ/mol
# Density = 1.647107 g / cm^3
# Si number density = 16.508647 Si / 1000 Ang^3
#
#
#
# Elastic Constant Matrix: (Units=GPa)
#
#
# Indices 1 2 3 4 5 6 
#
# 1 30.5706 15.6028 19.9610 0.0000 0.0000 0.0000
# 2 15.6028 72.7911 15.6913 0.0000 0.0000 0.0000
# 3 19.9610 15.6913 74.4429 0.0000 0.0000 0.0000
# 4 0.0000 0.0000 0.0000 32.8493 0.0000 0.0000
# 5 0.0000 0.0000 0.0000 0.0000 5.9668 0.0000
# 6 0.0000 0.0000 0.0000 0.0000 0.0000 16.4917
#
#
#
# Elastic Compliance Matrix: (Units=1/GPa)
#
#
# Indices 1 2 3 4 5 6 
#
# 1 0.042828 -0.007024 -0.010003 0.000000 0.000000 0.000000
# 2 -0.007024 0.015544 -0.001393 0.000000 0.000000 0.000000
# 3 -0.010003 -0.001393 0.016409 0.000000 0.000000 0.000000
# 4 0.000000 0.000000 0.000000 0.030442 0.000000 0.000000
# 5 0.000000 0.000000 0.000000 0.000000 0.167594 0.000000
# 6 0.000000 0.000000 0.000000 0.000000 0.000000 0.060636
#
#
# Mechanical properties :
#
#
# Convention : Reuss Voigt Hill
#
# Bulk Modulus (GPa) = 26.35719 31.14609 28.75164
# Shear Modulus (GPa) = 13.05690 19.49821 16.27755
#
# Velocity S-wave (km/s) = 2.81537 3.44043 3.14347
# Velocity P-wave (km/s) = 5.15449 5.88978 5.53436
#
# Compressibility (1/GPa) = 0.03794031
#
# Stress axis : x y z
#
# Youngs Moduli (GPa) = 23.34948 64.33441 60.94225
#
# Poissons Ratio (x) = 0.45187 0.60962
# Poissons Ratio (y) = 0.16400 0.08489
# Poissons Ratio (z) = 0.23357 0.08962
#
# Static dielectric constant tensor:
#      x y z
#    x 1.538680 0.000000 0.000000 
#    y 0.000000 1.634660 0.000000 
#    z 0.000000 0.000000 1.629700 
# 
# From -- ./inp_files/17767.got.cif
#   From: 2010.05.17/outbox.cif.g08.bks.cpg/sg21_9_cif.got.tgz:17767.got - 2010.06.03 23:14:55.
