data_PCOD9325976
_publ_section_title
;
Structure prediction by ZEFSAII (Michael W. Deem and Ramdas Pophale) SiO2 
 PCOD9325976
Probable space group: F 2 2 2
;
_chemical_formula_sum "Si O2"
_cell_formula_units_Z 112
_cell_length_a 25.307962
_cell_length_b 14.126852
_cell_length_c 13.269736
_cell_angle_alpha 90.000000
_cell_angle_beta 90.000000
_cell_angle_gamma 90.000000
_cell_volume 4744.220346
_symmetry_space_group_name_H-M "F 2 2 2"
_symmetry_group_IT_number 22
_symmetry_cell_setting 'orthorhombic'
loop_
_space_group_symop_operation_xyz
x,y,z
-x,-y,z
x,-y,-z
-x,y,-z
x,1/2+y,1/2+z
-x,1/2-y,1/2+z
x,1/2-y,1/2-z
-x,1/2+y,1/2-z
1/2+x,y,1/2+z
1/2-x,-y,1/2+z
1/2+x,-y,1/2-z
1/2-x,y,1/2-z
1/2+x,1/2+y,z
1/2-x,1/2-y,z
1/2+x,1/2-y,-z
1/2-x,1/2+y,-z
loop_
_atom_site_type_symbol
_atom_site_label
_atom_site_fract_x
_atom_site_fract_y
_atom_site_fract_z
Si Si1 0.336663 0.873413 0.905065
Si Si2 0.271780 0.886096 0.517608
Si Si3 0.866110 0.917929 0.633541
Si Si4 0.878901 0.446845 0.598586
Si Si5 0.454925 0.288692 0.637709
Si Si6 0.571740 0.765298 0.413641
Si Si7 0.302323 0.899435 0.303862
O O1 0.379129 0.796114 0.874591
O O2 0.350674 0.972535 0.852601
O O3 0.274569 0.850417 0.910222
O O4 0.347165 0.892037 0.022937
O O5 0.328953 0.881217 0.567434
O O6 0.280439 0.848929 0.403910
O O7 0.261401 0.000000 0.500000
O O8 0.927500 0.891750 0.637259
O O9 0.833477 0.853338 0.711563
O O10 0.900053 0.500000 0.500000
O O11 0.922628 0.371413 0.630281
O O12 0.848202 0.528923 0.658065
O O13 0.444427 0.250000 0.750000
O O14 0.429985 0.235533 0.538076
O O15 0.517232 0.282999 0.618950
O O16 0.250000 0.942522 0.250000
#
# Coordination Sequence:
#
# PCOD9325976 Si02
#       7
#    16  16  16  16  16  16  16
#     4  10  18  35  61  89 124 158 203 249 318 375
#     4   9  16  31  54  88 124 159 194 240 299 377
#     4  10  19  34  61  89 116 165 198 253 310 373
#     4   9  21  36  60  84 122 167 202 242 310 377
#     4  10  24  42  64  83 121 157 211 275 320 355
#     4  10  23  43  60  89 121 163 207 272 313 365
#     4  10  17  31  60  95 125 157 207 243 296 382
#
# _framework density 23.607672999999998
#
# number of rings (size 3 to 8) (size 9 to 14) (size 15 to 20)
#    0.000    2.571    2.857    0.857    4.000    2.286 
#    0.000    4.286    0.000    3.000    0.000    0.000 
#    0.000    0.000    0.000    0.000    0.000    0.000 
#
# Total GULP energy -155969.089320 kJ/mol
# GULP energy per Si atom -5570.324619 kJ/mol
# Density = 2.355394 g / cm^3
# Si number density = 23.607673 Si / 1000 Ang^3
#
#
#
# Elastic Constant Matrix: (Units=GPa)
#
#
# Indices 1 2 3 4 5 6 
#
# 1 104.8852 34.6009 -8.2730 0.0000 0.0000 0.0000
# 2 34.6009 68.3740 -5.3421 0.0000 0.0000 0.0000
# 3 -8.2730 -5.3421 71.3018 0.0000 0.0000 0.0000
# 4 0.0000 0.0000 0.0000 3.7830 0.0000 0.0000
# 5 0.0000 0.0000 0.0000 0.0000 12.9906 0.0000
# 6 0.0000 0.0000 0.0000 0.0000 0.0000 33.5926
#
#
#
# Elastic Compliance Matrix: (Units=1/GPa)
#
#
# Indices 1 2 3 4 5 6 
#
# 1 0.011502 -0.005750 0.000904 0.000000 0.000000 0.000000
# 2 -0.005750 0.017586 0.000650 0.000000 0.000000 0.000000
# 3 0.000904 0.000650 0.014178 0.000000 0.000000 0.000000
# 4 0.000000 0.000000 0.000000 0.264338 0.000000 0.000000
# 5 0.000000 0.000000 0.000000 0.000000 0.076979 0.000000
# 6 0.000000 0.000000 0.000000 0.000000 0.000000 0.029768
#
#
# Mechanical properties :
#
#
# Convention : Reuss Voigt Hill
#
# Bulk Modulus (GPa) = 28.67380 31.83696 30.25538
# Shear Modulus (GPa) = 11.51094 24.97826 18.24460
#
# Velocity S-wave (km/s) = 2.21055 3.25631 2.78299
# Velocity P-wave (km/s) = 4.32293 5.25863 4.81357
#
# Compressibility (1/GPa) = 0.03487504
#
# Stress axis : x y z
#
# Youngs Moduli (GPa) = 86.93769 56.86273 70.52942
#
# Poissons Ratio (x) = 0.32698 -0.06374
# Poissons Ratio (y) = 0.49991 -0.04587
# Poissons Ratio (z) = -0.07857 -0.03698
#
# Static dielectric constant tensor:
#      x y z
#    x 1.905790 0.000000 0.000000 
#    y 0.000000 1.968750 0.000000 
#    z 0.000000 0.000000 1.973700 
# 
# From -- ./inp_files/33177.got.cif
#   From: 2010.05.17/outbox.cif.g08.bks.cpg/sg22_17_cif.got.tgz:33177.got - 2010.06.03 23:40:54.
