data_PCOD9325869
_publ_section_title
;
Structure prediction by ZEFSAII (Michael W. Deem and Ramdas Pophale) SiO2 
 PCOD9325869
Probable space group: F 2 2 2
;
_chemical_formula_sum "Si O2"
_cell_formula_units_Z 84
_cell_length_a 23.414400
_cell_length_b 22.657849
_cell_length_c 8.738441
_cell_angle_alpha 90.000000
_cell_angle_beta 90.000000
_cell_angle_gamma 90.000000
_cell_volume 4635.917192
_symmetry_space_group_name_H-M "F 2 2 2"
_symmetry_group_IT_number 22
_symmetry_cell_setting 'orthorhombic'
loop_
_space_group_symop_operation_xyz
x,y,z
-x,-y,z
x,-y,-z
-x,y,-z
x,1/2+y,1/2+z
-x,1/2-y,1/2+z
x,1/2-y,1/2-z
-x,1/2+y,1/2-z
1/2+x,y,1/2+z
1/2-x,-y,1/2+z
1/2+x,-y,1/2-z
1/2-x,y,1/2-z
1/2+x,1/2+y,z
1/2-x,1/2-y,z
1/2+x,1/2-y,-z
1/2-x,1/2+y,-z
loop_
_atom_site_type_symbol
_atom_site_label
_atom_site_fract_x
_atom_site_fract_y
_atom_site_fract_z
Si Si1 0.750000 0.250000 0.750000
Si Si2 0.373696 0.624366 0.420709
Si Si3 0.162067 0.000000 0.500000
Si Si4 0.251138 0.151253 0.024553
Si Si5 0.250000 0.451890 0.250000
Si Si6 0.361516 0.806251 0.358986
Si Si7 0.937724 0.268912 0.925663
O O1 0.722799 0.202751 0.865424
O O2 0.377333 0.556718 0.469002
O O3 0.304940 0.633132 0.425341
O O4 0.389204 0.643732 0.248855
O O5 0.404851 0.669781 0.535326
O O6 0.202998 0.987812 0.650264
O O7 0.228506 0.095266 0.122248
O O8 0.198191 0.175549 0.931953
O O9 0.351604 0.750000 0.250000
O O10 0.403332 0.782812 0.488701
O O11 0.941014 0.250000 0.750000
O O12 0.000000 0.273915 0.000000
#
# Coordination Sequence:
#
# PCOD9325869 Si02
#       7
#     4  16   8  16   8  16  16
#     4  10  16  24  42  72 116 136 184 228 274 334
#     4  10  22  37  57  85 120 158 202 237 291 348
#     4  10  22  38  55  84 122 166 207 234 288 340
#     4  10  20  30  52  84 121 156 194 228 290 352
#     4   9  22  33  52  76 123 160 205 232 278 340
#     4  10  21  34  57  87 120 154 190 240 298 354
#     4  11  24  41  64  86 116 150 197 251 306 357
#
# _framework density 18.119392000000001
#
# number of rings (size 3 to 8) (size 9 to 14) (size 15 to 20)
#    0.000    1.905    0.000    4.571   16.000    2.286 
#    0.000    0.476    0.000    0.000    0.000    0.000 
#    0.000    0.000    0.000    0.000    0.000    0.000 
#
# Total GULP energy -116964.388978 kJ/mol
# GULP energy per Si atom -5569.732808 kJ/mol
# Density = 1.807815 g / cm^3
# Si number density = 18.119392 Si / 1000 Ang^3
#
#
#
# Elastic Constant Matrix: (Units=GPa)
#
#
# Indices 1 2 3 4 5 6 
#
# 1 82.4039 39.2260 45.4326 -0.0001 0.0000 0.0001
# 2 39.2260 118.8267 58.8252 -0.0001 0.0000 0.0001
# 3 45.4326 58.8252 127.9851 0.0000 -0.0005 0.0004
# 4 -0.0001 -0.0001 0.0000 14.0915 -0.0002 0.0002
# 5 0.0000 0.0000 -0.0005 -0.0002 9.4289 -0.0003
# 6 0.0001 0.0001 0.0004 0.0002 -0.0003 3.8496
#
#
#
# Elastic Compliance Matrix: (Units=1/GPa)
#
#
# Indices 1 2 3 4 5 6 
#
# 1 0.015972 -0.003192 -0.004203 0.000000 0.000000 0.000000
# 2 -0.003192 0.011532 -0.004168 0.000000 0.000000 0.000000
# 3 -0.004203 -0.004168 0.011221 0.000000 0.000001 -0.000001
# 4 0.000000 0.000000 0.000000 0.070965 0.000001 -0.000003
# 5 0.000000 0.000000 0.000001 0.000001 0.106057 0.000007
# 6 0.000000 0.000000 -0.000001 -0.000003 0.000007 0.259764
#
#
# Mechanical properties :
#
#
# Convention : Reuss Voigt Hill
#
# Bulk Modulus (GPa) = 64.09908 68.46482 66.28195
# Shear Modulus (GPa) = 9.92386 17.85613 13.89000
#
# Velocity S-wave (km/s) = 2.34282 3.14263 2.77173
# Velocity P-wave (km/s) = 6.53997 7.14392 6.84860
#
# Compressibility (1/GPa) = 0.01560085
#
# Stress axis : x y z
#
# Youngs Moduli (GPa) = 62.61000 86.71183 89.12042
#
# Poissons Ratio (x) = 0.27678 0.37454
# Poissons Ratio (y) = 0.19985 0.37141
# Poissons Ratio (z) = 0.26313 0.36137
#
# Static dielectric constant tensor:
#      x y z
#    x 1.596560 0.000000 0.000000 
#    y 0.000000 1.676800 0.000000 
#    z 0.000000 0.000000 1.688490 
# 
# From -- ./inp_files/13707.got.cif
#   From: 2010.05.17/outbox.cif.g08.bks.cpg/sg22_7_cif.got.tgz:13707.got - 2010.06.03 23:40:54.
