data_PCOD9325766
_publ_section_title
;
Structure prediction by ZEFSAII (Michael W. Deem and Ramdas Pophale) SiO2 
 PCOD9325766
Probable space group: C 2 2 2
;
_chemical_formula_sum "Si O2"
_cell_formula_units_Z 22
_cell_length_a 14.219037
_cell_length_b 4.860255
_cell_length_c 13.782848
_cell_angle_alpha 90.000000
_cell_angle_beta 90.000000
_cell_angle_gamma 90.000000
_cell_volume 952.507067
_symmetry_space_group_name_H-M "C 2 2 2"
_symmetry_group_IT_number 21
_symmetry_cell_setting 'orthorhombic'
loop_
_space_group_symop_operation_xyz
x,y,z
-x,-y,z
x,-y,-z
-x,y,-z
1/2+x,1/2+y,z
1/2-x,1/2-y,z
1/2+x,1/2-y,-z
1/2-x,1/2+y,-z
loop_
_atom_site_type_symbol
_atom_site_label
_atom_site_fract_x
_atom_site_fract_y
_atom_site_fract_z
Si Si1 0.657930 0.115110 0.362175
Si Si2 0.609262 0.586940 0.235818
Si Si3 0.500000 0.000000 0.500000
Si Si4 0.250000 0.250000 0.070836
O O1 0.750000 0.250000 0.412787
O O2 0.652975 0.299373 0.266985
O O3 0.639066 0.805295 0.321619
O O4 0.569966 0.170495 0.432056
O O5 0.500000 0.500000 0.226815
O O6 0.660503 0.691399 0.139835
O O7 0.229405 0.500000 0.000000
#
# Coordination Sequence:
#
# PCOD9325766 Si02
#       4
#     8   8   2   4
#     4  12  25  46  74 110 155 209 258 324 385 461
#     4  12  24  48  77 106 153 206 252 320 407 454
#     4  12  28  46  76 120 154 206 288 306 372 472
#     4  12  26  46  80 114 148 196 266 328 388 482
#
# _framework density 23.09694
#
# number of rings (size 3 to 8) (size 9 to 14) (size 15 to 20)
#    0.000    0.000    7.273    2.182    0.000    6.545 
#    0.000    1.818    0.000    0.000    0.000    0.000 
#    0.000    0.000    0.000    0.000    0.000    0.000 
#
# Total GULP energy -61368.999284 kJ/mol
# GULP energy per Si atom -5578.999935 kJ/mol
# Density = 2.304437 g / cm^3
# Si number density = 23.096940 Si / 1000 Ang^3
#
#
#
# Elastic Constant Matrix: (Units=GPa)
#
#
# Indices 1 2 3 4 5 6 
#
# 1 259.2626 50.6226 64.3434 0.0000 0.0000 0.0000
# 2 50.6226 80.4034 16.8430 0.0000 0.0000 0.0000
# 3 64.3434 16.8430 103.1447 0.0000 0.0000 0.0000
# 4 0.0000 0.0000 0.0000 25.1762 0.0000 0.0000
# 5 0.0000 0.0000 0.0000 0.0000 57.5804 0.0000
# 6 0.0000 0.0000 0.0000 0.0000 0.0000 39.1416
#
#
#
# Elastic Compliance Matrix: (Units=1/GPa)
#
#
# Indices 1 2 3 4 5 6 
#
# 1 0.005040 -0.002604 -0.002719 0.000000 0.000000 0.000000
# 2 -0.002604 0.014223 -0.000698 0.000000 0.000000 0.000000
# 3 -0.002719 -0.000698 0.011505 0.000000 0.000000 0.000000
# 4 0.000000 0.000000 0.000000 0.039720 0.000000 0.000000
# 5 0.000000 0.000000 0.000000 0.000000 0.017367 0.000000
# 6 0.000000 0.000000 0.000000 0.000000 0.000000 0.025548
#
#
# Mechanical properties :
#
#
# Convention : Reuss Voigt Hill
#
# Bulk Modulus (GPa) = 53.40058 78.49207 65.94633
# Shear Modulus (GPa) = 37.96846 45.11309 41.54078
#
# Velocity S-wave (km/s) = 4.05887 4.42430 4.24552
# Velocity P-wave (km/s) = 6.71835 7.75608 7.25579
#
# Compressibility (1/GPa) = 0.01872639
#
# Stress axis : x y z
#
# Youngs Moduli (GPa) = 198.40031 70.30897 86.91629
#
# Poissons Ratio (x) = 0.18307 0.23633
# Poissons Ratio (y) = 0.51660 0.06069
# Poissons Ratio (z) = 0.53946 0.04909
#
# Static dielectric constant tensor:
#      x y z
#    x 2.137180 0.000000 0.000000 
#    y 0.000000 1.829410 0.000000 
#    z 0.000000 0.000000 1.891380 
# 
# From -- ./inp_files/24521.got.cif
#   From: 2010.05.17/outbox.cif.g08.bks.cpg/sg21_13_cif.got.tgz:24521.got - 2010.06.03 23:14:55.
