data_PCOD9325853
_publ_section_title
;
Structure prediction by ZEFSAII (Michael W. Deem and Ramdas Pophale) SiO2 
 PCOD9325853
Probable space group: C 2 2 2
;
_chemical_formula_sum "Si O2"
_cell_formula_units_Z 20
_cell_length_a 9.000000
_cell_length_b 18.000000
_cell_length_c 12.000000
_cell_angle_alpha 90.000000
_cell_angle_beta 90.000000
_cell_angle_gamma 90.000000
_cell_volume 1944.000000
_symmetry_space_group_name_H-M "C 2 2 2"
_symmetry_group_IT_number 21
_symmetry_cell_setting 'orthorhombic'
loop_
_space_group_symop_operation_xyz
x,y,z
-x,-y,z
x,-y,-z
-x,y,-z
1/2+x,1/2+y,z
1/2-x,1/2-y,z
1/2+x,1/2-y,-z
1/2-x,1/2+y,-z
loop_
_atom_site_type_symbol
_atom_site_label
_atom_site_fract_x
_atom_site_fract_y
_atom_site_fract_z
Si Si1 0.371599 0.056559 0.821133
Si Si2 0.815541 0.835662 0.000178
Si Si3 0.559398 0.663831 0.624154
Si Si4 0.378643 0.441498 0.200071
Si Si5 0.080062 0.661913 0.378987
O O1 0.276236 0.113557 0.905428
O O2 0.449898 0.106857 0.725011
O O3 0.500000 0.000000 0.868660
O O4 0.250712 0.999836 0.765832
O O5 0.750000 0.750000 0.999528
O O6 0.802796 0.884717 0.112834
O O7 0.000000 0.829724 0.000000
O O8 0.500000 0.649740 0.500000
O O9 0.470223 0.608916 0.709208
O O10 0.739002 0.656359 0.616515
O O11 0.536324 0.752217 0.650082
O O12 0.500000 0.500000 0.149071
O O13 0.000000 0.645711 0.500000
#
# Coordination Sequence:
#
# PCOD9325853 Si02
#       5
#     8   8   8   8   8
#     4  12  29  48  77 112 157 195 250 321 387 449
#     4  12  29  50  78 110 151 205 257 310 378 468
#     4  10  23  45  77 106 145 204 253 306 373 447
#     4  12  25  49  75 108 151 199 247 315 381 450
#     4  10  23  46  73 108 151 195 255 312 365 448
#
# _framework density 10.288066000000001
#
# number of rings (size 3 to 8) (size 9 to 14) (size 15 to 20)
#    0.000    0.800    4.000    0.600   11.200    1.600 
#    3.600    0.000    0.000    0.000    0.000    0.000 
#    0.000    0.000    0.000    0.000    0.000    0.000 
#
# Total GULP energy -111482.890075 kJ/mol
# GULP energy per Si atom -5574.144504 kJ/mol
# Density = 1.026465 g / cm^3
# Si number density = 10.288066 Si / 1000 Ang^3
#
#
#
# Elastic Constant Matrix: (Units=GPa)
#
#
# Indices 1 2 3 4 5 6 
#
# 1 108.9103 57.2901 39.2853 0.0000 0.0000 0.0000
# 2 57.2901 185.6377 87.5735 0.0000 0.0000 0.0000
# 3 39.2853 87.5735 136.8293 0.0000 0.0000 0.0000
# 4 0.0000 0.0000 0.0000 42.9673 0.0000 0.0000
# 5 0.0000 0.0000 0.0000 0.0000 46.6559 0.0000
# 6 0.0000 0.0000 0.0000 0.0000 0.0000 60.2989
#
#
#
# Elastic Compliance Matrix: (Units=1/GPa)
#
#
# Indices 1 2 3 4 5 6 
#
# 1 0.011154 -0.002767 -0.001432 0.000000 0.000000 0.000000
# 2 -0.002767 0.008403 -0.004584 0.000000 0.000000 0.000000
# 3 -0.001432 -0.004584 0.010653 0.000000 0.000000 0.000000
# 4 0.000000 0.000000 0.000000 0.023274 0.000000 0.000000
# 5 0.000000 0.000000 0.000000 0.000000 0.021434 0.000000
# 6 0.000000 0.000000 0.000000 0.000000 0.000000 0.016584
#
#
# Mechanical properties :
#
#
# Convention : Reuss Voigt Hill
#
# Bulk Modulus (GPa) = 79.07885 88.85280 83.96583
# Shear Modulus (GPa) = 44.13829 46.46631 45.30230
#
# Velocity S-wave (km/s) = 4.63657 4.75727 4.69731
# Velocity P-wave (km/s) = 8.19631 8.57040 8.38544
#
# Compressibility (1/GPa) = 0.01264561
#
# Stress axis : x y z
#
# Youngs Moduli (GPa) = 89.65655 119.00403 93.86966
#
# Poissons Ratio (x) = 0.32927 0.13438
# Poissons Ratio (y) = 0.24807 0.43027
# Poissons Ratio (z) = 0.12834 0.54548
#
# Static dielectric constant tensor:
#      x y z
#    x 1.803900 0.000000 0.000000 
#    y 0.000000 1.748430 0.000000 
#    z 0.000000 0.000000 1.765610 
# 
# From -- ./inp_files/22267.got.cif
#   From: 2010.05.17/outbox.ucp.g08.bks.cvg/sg21_12_cif.got.tgz:22267.got - 2010.06.11 15:15:05.
