data_PCOD9325572
_publ_section_title
;
Structure prediction by ZEFSAII (Michael W. Deem and Ramdas Pophale) SiO2 
 PCOD9325572
Probable space group: C 2 2 2
;
_chemical_formula_sum "Si O2"
_cell_formula_units_Z 28
_cell_length_a 20.966378
_cell_length_b 10.619393
_cell_length_c 5.210388
_cell_angle_alpha 90.000000
_cell_angle_beta 90.000000
_cell_angle_gamma 90.000000
_cell_volume 1160.093971
_symmetry_space_group_name_H-M "C 2 2 2"
_symmetry_group_IT_number 21
_symmetry_cell_setting 'orthorhombic'
loop_
_space_group_symop_operation_xyz
x,y,z
-x,-y,z
x,-y,-z
-x,y,-z
1/2+x,1/2+y,z
1/2-x,1/2-y,z
1/2+x,1/2-y,-z
1/2-x,1/2+y,-z
loop_
_atom_site_type_symbol
_atom_site_label
_atom_site_fract_x
_atom_site_fract_y
_atom_site_fract_z
Si Si1 0.751184 0.111049 0.694903
Si Si2 0.900859 0.923354 0.246526
Si Si3 0.543957 0.143031 0.747504
Si Si4 0.848828 0.500000 0.000000
O O1 0.750000 0.250000 0.575651
O O2 0.823904 0.082496 0.763888
O O3 0.730024 0.000000 0.500000
O O4 0.703776 0.109053 0.941112
O O5 0.925258 0.781446 0.257888
O O6 0.919068 0.000000 0.500000
O O7 0.923800 0.000000 0.000000
O O8 0.500000 0.130471 0.500000
O O9 0.600030 0.039821 0.781875
O O10 0.500000 0.138423 0.000000
#
# Coordination Sequence:
#
# PCOD9325572 Si02
#       4
#     8   8   8   4
#     4  11  25  46  79 119 158 208 268 346 421 480
#     4  11  24  46  78 117 154 200 264 331 406 477
#     4  12  29  49  75 110 159 214 264 319 392 489
#     4  12  27  48  80 104 161 200 278 324 412 474
#
# _framework density 24.135978000000001
#
# number of rings (size 3 to 8) (size 9 to 14) (size 15 to 20)
#    0.000    0.571    4.286    2.143    4.000   10.286 
#    0.000    0.000    0.000    0.000    0.000    0.000 
#    0.000    0.000    0.000    0.000    0.000    0.000 
#
# Total GULP energy -78188.969927 kJ/mol
# GULP energy per Si atom -5584.926423 kJ/mol
# Density = 2.408104 g / cm^3
# Si number density = 24.135978 Si / 1000 Ang^3
#
#
#
# Elastic Constant Matrix: (Units=GPa)
#
#
# Indices 1 2 3 4 5 6 
#
# 1 170.7463 48.5543 74.4608 0.0000 0.0000 0.0000
# 2 48.5543 176.1292 77.7135 0.0000 0.0000 0.0000
# 3 74.4608 77.7135 178.9804 0.0000 0.0000 0.0000
# 4 0.0000 0.0000 0.0000 34.7373 0.0000 0.0000
# 5 0.0000 0.0000 0.0000 0.0000 21.3763 0.0000
# 6 0.0000 0.0000 0.0000 0.0000 0.0000 59.6092
#
#
#
# Elastic Compliance Matrix: (Units=1/GPa)
#
#
# Indices 1 2 3 4 5 6 
#
# 1 0.007251 -0.000826 -0.002658 0.000000 0.000000 0.000000
# 2 -0.000826 0.007117 -0.002747 0.000000 0.000000 0.000000
# 3 -0.002658 -0.002747 0.007885 0.000000 0.000000 0.000000
# 4 0.000000 0.000000 0.000000 0.028788 0.000000 0.000000
# 5 0.000000 0.000000 0.000000 0.000000 0.046781 0.000000
# 6 0.000000 0.000000 0.000000 0.000000 0.000000 0.016776
#
#
# Mechanical properties :
#
#
# Convention : Reuss Voigt Hill
#
# Bulk Modulus (GPa) = 102.12053 103.03478 102.57766
# Shear Modulus (GPa) = 38.36631 44.81972 41.59302
#
# Velocity S-wave (km/s) = 3.99129 4.31393 4.15574
# Velocity P-wave (km/s) = 7.97765 8.22163 8.10056
#
# Compressibility (1/GPa) = 0.00979235
#
# Stress axis : x y z
#
# Youngs Moduli (GPa) = 137.92005 140.50275 126.81510
#
# Poissons Ratio (x) = 0.11607 0.33704
# Poissons Ratio (y) = 0.11394 0.34832
# Poissons Ratio (z) = 0.36656 0.38591
#
# Static dielectric constant tensor:
#      x y z
#    x 1.900410 0.000000 0.000000 
#    y 0.000000 1.912900 0.000000 
#    z 0.000000 0.000000 1.943810 
# 
# From -- ./inp_files/5512.got.cif
#   From: 2010.05.17/outbox.cif.g08.bks.cpg/sg21_3_cif.got.tgz:5512.got - 2010.06.03 23:14:55.
