data_PCOD9325576
_publ_section_title
;
Structure prediction by ZEFSAII (Michael W. Deem and Ramdas Pophale) SiO2 
 PCOD9325576
Probable space group: C 2 2 2
;
_chemical_formula_sum "Si O2"
_cell_formula_units_Z 34
_cell_length_a 19.841665
_cell_length_b 9.948185
_cell_length_c 7.809727
_cell_angle_alpha 90.000000
_cell_angle_beta 90.000000
_cell_angle_gamma 90.000000
_cell_volume 1541.550721
_symmetry_space_group_name_H-M "C 2 2 2"
_symmetry_group_IT_number 21
_symmetry_cell_setting 'orthorhombic'
loop_
_space_group_symop_operation_xyz
x,y,z
-x,-y,z
x,-y,-z
-x,y,-z
1/2+x,1/2+y,z
1/2-x,1/2-y,z
1/2+x,1/2-y,-z
1/2-x,1/2+y,-z
loop_
_atom_site_type_symbol
_atom_site_label
_atom_site_fract_x
_atom_site_fract_y
_atom_site_fract_z
Si Si1 0.196941 0.636407 0.054219
Si Si2 0.168245 0.762004 0.713412
Si Si3 0.079225 0.981623 0.205954
Si Si4 0.000000 0.500000 0.500000
Si Si5 0.391854 0.185624 0.645200
O O1 0.250000 0.750000 0.096611
O O2 0.154771 0.608569 0.221637
O O3 0.233391 0.500000 0.000000
O O4 0.152770 0.689871 0.894895
O O5 0.250000 0.750000 0.707059
O O6 0.131403 0.907396 0.720149
O O7 0.140652 0.695018 0.542117
O O8 0.098469 0.833821 0.274125
O O9 0.000000 0.000000 0.255213
O O10 0.082707 0.000000 0.000000
O O11 0.958469 0.600174 0.619936
#
# Coordination Sequence:
#
# PCOD9325576 Si02
#       5
#     8   8   8   2   8
#     4  11  26  45  72 105 151 192 245 309 377 448
#     4  11  25  45  75 116 150 189 254 312 385 455
#     4  11  24  47  79 113 146 203 258 314 379 462
#     4  12  28  48  72 108 152 206 254 310 374 456
#     4  12  25  49  73 103 152 199 249 309 378 452
#
# _framework density 22.055713999999998
#
# number of rings (size 3 to 8) (size 9 to 14) (size 15 to 20)
#    0.000    0.706    2.353    4.235    6.588    0.941 
#   12.706    1.176    0.000    0.000    0.000    0.000 
#    0.000    0.000    0.000    0.000    0.000    0.000 
#
# Total GULP energy -95047.444886 kJ/mol
# GULP energy per Si atom -5591.026170 kJ/mol
# Density = 2.200551 g / cm^3
# Si number density = 22.055714 Si / 1000 Ang^3
#
#
#
# Elastic Constant Matrix: (Units=GPa)
#
#
# Indices 1 2 3 4 5 6 
#
# 1 110.0207 52.1098 39.9409 0.0000 0.0000 0.0000
# 2 52.1098 125.1123 17.0014 0.0000 0.0000 0.0000
# 3 39.9409 17.0014 129.8503 0.0000 0.0000 0.0000
# 4 0.0000 0.0000 0.0000 -112.4106 0.0000 0.0000
# 5 0.0000 0.0000 0.0000 0.0000 75.5797 0.0000
# 6 0.0000 0.0000 0.0000 0.0000 0.0000 37.4707
#
#
#
# Elastic Compliance Matrix: (Units=1/GPa)
#
#
# Indices 1 2 3 4 5 6 
#
# 1 0.012523 -0.004778 -0.003227 0.000000 0.000000 0.000000
# 2 -0.004778 0.009960 0.000165 0.000000 0.000000 0.000000
# 3 -0.003227 0.000165 0.008672 0.000000 0.000000 0.000000
# 4 0.000000 0.000000 0.000000 -0.008896 0.000000 0.000000
# 5 0.000000 0.000000 0.000000 0.000000 0.013231 0.000000
# 6 0.000000 0.000000 0.000000 0.000000 0.000000 0.026688
#
#
# Mechanical properties :
#
#
# Convention : Reuss Voigt Hill
#
# Bulk Modulus (GPa) = 64.60707 64.78751 64.69729
# Shear Modulus (GPa) = 60.23008 17.19004 38.71006
#
# Velocity S-wave (km/s) = 5.23139 2.79479 4.19394
# Velocity P-wave (km/s) = 8.11457 6.31290 7.26976
#
# Compressibility (1/GPa) = 0.01547818
#
# Stress axis : x y z
#
# Youngs Moduli (GPa) = 79.85063 100.39935 115.31391
#
# Poissons Ratio (x) = 0.47967 0.37207
# Poissons Ratio (y) = 0.38149 -0.01908
# Poissons Ratio (z) = 0.25764 -0.01661
#
# Static dielectric constant tensor:
#      x y z
#    x 1.840080 0.000000 0.000000 
#    y 0.000000 1.771020 0.000000 
#    z 0.000000 0.000000 1.786680 
# 
# From -- ./inp_files/17175.got.cif
#   From: 2010.05.17/outbox.cif.g08.bks.cpg/sg21_9_cif.got.tgz:17175.got - 2010.06.03 23:14:55.
