data_PCOD9325120
_publ_section_title
;
Structure prediction by ZEFSAII (Michael W. Deem and Ramdas Pophale) SiO2 
 PCOD9325120
Probable space group: C 2 2 2
;
_chemical_formula_sum "Si O2"
_cell_formula_units_Z 48
_cell_length_a 5.972657
_cell_length_b 24.314288
_cell_length_c 17.487354
_cell_angle_alpha 90.000000
_cell_angle_beta 90.000000
_cell_angle_gamma 90.000000
_cell_volume 2539.529329
_symmetry_space_group_name_H-M "C 2 2 2"
_symmetry_group_IT_number 21
_symmetry_cell_setting 'orthorhombic'
loop_
_space_group_symop_operation_xyz
x,y,z
-x,-y,z
x,-y,-z
-x,y,-z
1/2+x,1/2+y,z
1/2-x,1/2-y,z
1/2+x,1/2-y,-z
1/2-x,1/2+y,-z
loop_
_atom_site_type_symbol
_atom_site_label
_atom_site_fract_x
_atom_site_fract_y
_atom_site_fract_z
Si Si1 0.974966 0.180628 0.083325
Si Si2 0.134186 0.693655 0.703536
Si Si3 0.734455 0.897323 0.178467
Si Si4 0.148855 0.577595 0.074365
Si Si5 0.753143 0.686326 0.475206
Si Si6 0.000000 0.000000 0.863255
Si Si7 0.250000 0.750000 0.215146
O O1 0.784711 0.134475 0.071790
O O2 0.909807 0.219035 0.154126
O O3 0.185678 0.144567 0.111374
O O4 0.000000 0.208327 0.000000
O O5 0.250000 0.750000 0.730288
O O6 0.213606 0.639882 0.747616
O O7 0.211473 0.687580 0.616131
O O8 0.878357 0.706816 0.729546
O O9 0.499956 0.920595 0.150412
O O10 0.902344 0.948509 0.183540
O O11 0.313093 0.526787 0.083751
O O12 0.000000 0.572171 0.000000
O O13 0.500000 0.665113 0.500000
O O14 0.750000 0.750000 0.504243
O O15 0.000000 0.662410 0.500000
#
# Coordination Sequence:
#
# PCOD9325120 Si02
#       7
#     8   8   8   8   8   4   4
#     4  11  23  37  54  80 114 159 213 255 306 361
#     4  11  23  37  63  89 125 162 201 247 312 381
#     4  11  22  40  57  83 116 154 201 261 312 373
#     4  11  22  40  58  76 112 149 206 268 324 363
#     4   9  20  36  59  92 130 165 199 243 305 382
#     4  10  26  39  56  86 109 150 208 264 327 376
#     4  12  24  36  58  88 122 170 212 256 306 386
#
# _framework density 18.901140000000002
#
# number of rings (size 3 to 8) (size 9 to 14) (size 15 to 20)
#    0.000    1.333    5.000    0.500    5.833    4.000 
#    0.000    0.000    0.000    0.000    0.000    0.583 
#    0.000    0.000    0.000    0.000    0.000    0.000 
#
# Total GULP energy -133763.809336 kJ/mol
# GULP energy per Si atom -5573.492056 kJ/mol
# Density = 1.885812 g / cm^3
# Si number density = 18.901140 Si / 1000 Ang^3
#
#
#
# Elastic Constant Matrix: (Units=GPa)
#
#
# Indices 1 2 3 4 5 6 
#
# 1 100.9226 24.2641 54.0940 0.0000 0.0000 0.0000
# 2 24.2641 62.3831 42.1863 0.0000 0.0000 0.0000
# 3 54.0940 42.1863 101.5572 0.0000 0.0000 0.0000
# 4 0.0000 0.0000 0.0000 6.2442 0.0000 0.0000
# 5 0.0000 0.0000 0.0000 0.0000 15.5697 0.0000
# 6 0.0000 0.0000 0.0000 0.0000 0.0000 26.3457
#
#
#
# Elastic Compliance Matrix: (Units=1/GPa)
#
#
# Indices 1 2 3 4 5 6 
#
# 1 0.013882 -0.000555 -0.007163 0.000000 0.000000 0.000000
# 2 -0.000555 0.022314 -0.008974 0.000000 0.000000 0.000000
# 3 -0.007163 -0.008974 0.017390 0.000000 0.000000 0.000000
# 4 0.000000 0.000000 0.000000 0.160148 0.000000 0.000000
# 5 0.000000 0.000000 0.000000 0.000000 0.064227 0.000000
# 6 0.000000 0.000000 0.000000 0.000000 0.000000 0.037957
#
#
# Mechanical properties :
#
#
# Convention : Reuss Voigt Hill
#
# Bulk Modulus (GPa) = 49.50115 56.21685 52.85900
# Shear Modulus (GPa) = 14.04353 19.25317 16.64835
#
# Velocity S-wave (km/s) = 2.72876 3.19505 2.97107
# Velocity P-wave (km/s) = 6.01453 6.58926 6.30844
#
# Compressibility (1/GPa) = 0.02020155
#
# Stress axis : x y z
#
# Youngs Moduli (GPa) = 72.03794 44.81454 57.50508
#
# Poissons Ratio (x) = 0.02488 0.41193
# Poissons Ratio (y) = 0.03999 0.51602
# Poissons Ratio (z) = 0.51604 0.40214
#
# Static dielectric constant tensor:
#      x y z
#    x 1.836760 0.000000 0.000000 
#    y 0.000000 1.650300 0.000000 
#    z 0.000000 0.000000 1.669360 
# 
# From -- ./inp_files/29389.got.cif
#   From: 2010.05.17/outbox.cif.g08.bks.cpg/sg21_15_cif.got.tgz:29389.got - 2010.06.03 23:14:55.
