data_PCOD9325908
_publ_section_title
;
Structure prediction by ZEFSAII (Michael W. Deem and Ramdas Pophale) SiO2 
 PCOD9325908
Probable space group: F 2 2 2
;
_chemical_formula_sum "Si O2"
_cell_formula_units_Z 104
_cell_length_a 16.762482
_cell_length_b 23.897582
_cell_length_c 12.732420
_cell_angle_alpha 90.000000
_cell_angle_beta 90.000000
_cell_angle_gamma 90.000000
_cell_volume 5100.388303
_symmetry_space_group_name_H-M "F 2 2 2"
_symmetry_group_IT_number 22
_symmetry_cell_setting 'orthorhombic'
loop_
_space_group_symop_operation_xyz
x,y,z
-x,-y,z
x,-y,-z
-x,y,-z
x,1/2+y,1/2+z
-x,1/2-y,1/2+z
x,1/2-y,1/2-z
-x,1/2+y,1/2-z
1/2+x,y,1/2+z
1/2-x,-y,1/2+z
1/2+x,-y,1/2-z
1/2-x,y,1/2-z
1/2+x,1/2+y,z
1/2-x,1/2-y,z
1/2+x,1/2-y,-z
1/2-x,1/2+y,-z
loop_
_atom_site_type_symbol
_atom_site_label
_atom_site_fract_x
_atom_site_fract_y
_atom_site_fract_z
Si Si1 0.907074 0.686082 0.472195
Si Si2 0.843581 0.901400 0.633505
Si Si3 0.809852 0.473849 0.660144
Si Si4 0.652655 0.406819 0.133291
Si Si5 0.345951 0.645148 0.753065
Si Si6 0.314075 0.500000 0.500000
Si Si7 0.406030 0.811706 0.973088
O O1 0.875338 0.634982 0.543202
O O2 0.887935 0.675419 0.350406
O O3 0.874518 0.748632 0.491380
O O4 0.000000 0.687934 0.500000
O O5 0.747902 0.900274 0.637886
O O6 0.878567 0.893413 0.749689
O O7 0.868790 0.853167 0.556402
O O8 0.863130 0.961033 0.578450
O O9 0.750000 0.496356 0.750000
O O10 0.862035 0.526249 0.621537
O O11 0.851201 0.420651 0.712868
O O12 0.746666 0.460570 0.567249
O O13 0.250000 0.656279 0.750000
O O14 0.384401 0.664738 0.643219
O O15 0.500000 0.811425 0.000000
#
# Coordination Sequence:
#
# PCOD9325908 Si02
#       7
#    16  16  16  16  16   8  16
#     4  11  26  44  63  88 130 179 220 268 330 389
#     4  10  20  36  65  95 126 162 210 262 318 394
#     4  10  17  34  62  98 129 161 202 262 329 381
#     4  10  20  38  64  97 128 162 211 262 322 394
#     4  11  23  42  72  99 125 169 226 277 319 394
#     4  10  16  32  61  98 135 162 202 258 332 392
#     4  11  26  43  63  91 130 176 217 273 336 384
#
# _framework density 20.390605000000001
#
# number of rings (size 3 to 8) (size 9 to 14) (size 15 to 20)
#    0.000    1.538    3.077    5.077    2.154    3.692 
#    0.000    3.462    0.000    0.000    0.000    0.000 
#    0.000    0.000    0.000    0.000    0.000    0.000 
#
# Total GULP energy -144936.554982 kJ/mol
# GULP energy per Si atom -5574.482884 kJ/mol
# Density = 2.034419 g / cm^3
# Si number density = 20.390605 Si / 1000 Ang^3
#
#
#
# Elastic Constant Matrix: (Units=GPa)
#
#
# Indices 1 2 3 4 5 6 
#
# 1 36.9757 19.0418 19.4413 0.0000 0.0000 0.0000
# 2 19.0418 107.9741 26.9581 0.0000 0.0000 0.0000
# 3 19.4413 26.9581 141.7156 0.0000 0.0000 0.0000
# 4 0.0000 0.0000 0.0000 10.5147 0.0000 0.0000
# 5 0.0000 0.0000 0.0000 0.0000 25.2991 0.0000
# 6 0.0000 0.0000 0.0000 0.0000 0.0000 54.4505
#
#
#
# Elastic Compliance Matrix: (Units=1/GPa)
#
#
# Indices 1 2 3 4 5 6 
#
# 1 0.031231 -0.004659 -0.003398 0.000000 0.000000 0.000000
# 2 -0.004659 0.010418 -0.001343 0.000000 0.000000 0.000000
# 3 -0.003398 -0.001343 0.007778 0.000000 0.000000 0.000000
# 4 0.000000 0.000000 0.000000 0.095105 0.000000 0.000000
# 5 0.000000 0.000000 0.000000 0.000000 0.039527 0.000000
# 6 0.000000 0.000000 0.000000 0.000000 0.000000 0.018365
#
#
# Mechanical properties :
#
#
# Convention : Reuss Voigt Hill
#
# Bulk Modulus (GPa) = 32.65084 46.39421 39.52253
# Shear Modulus (GPa) = 21.60444 32.80114 27.20279
#
# Velocity S-wave (km/s) = 3.25857 4.01514 3.65647
# Velocity P-wave (km/s) = 5.49592 6.65562 6.10338
#
# Compressibility (1/GPa) = 0.03062708
#
# Stress axis : x y z
#
# Youngs Moduli (GPa) = 32.01958 95.98397 128.56823
#
# Poissons Ratio (x) = 0.44722 0.43689
# Poissons Ratio (y) = 0.14919 0.17263
# Poissons Ratio (z) = 0.10881 0.12888
#
# Static dielectric constant tensor:
#      x y z
#    x 1.735000 0.000000 0.000000 
#    y 0.000000 1.798510 0.000000 
#    z 0.000000 0.000000 1.786490 
# 
# From -- ./inp_files/21787.got.cif
#   From: 2010.05.17/outbox.cif.g08.bks.cpg/sg22_11_cif.got.tgz:21787.got - 2010.06.03 23:40:54.
