data_PCOD9325924
_publ_section_title
;
Structure prediction by ZEFSAII (Michael W. Deem and Ramdas Pophale) SiO2 
 PCOD9325924
Probable space group: F 2 2 2
;
_chemical_formula_sum "Si O2"
_cell_formula_units_Z 68
_cell_length_a 14.610460
_cell_length_b 24.653603
_cell_length_c 9.241096
_cell_angle_alpha 90.000000
_cell_angle_beta 90.000000
_cell_angle_gamma 90.000000
_cell_volume 3328.647219
_symmetry_space_group_name_H-M "F 2 2 2"
_symmetry_group_IT_number 22
_symmetry_cell_setting 'orthorhombic'
loop_
_space_group_symop_operation_xyz
x,y,z
-x,-y,z
x,-y,-z
-x,y,-z
x,1/2+y,1/2+z
-x,1/2-y,1/2+z
x,1/2-y,1/2-z
-x,1/2+y,1/2-z
1/2+x,y,1/2+z
1/2-x,-y,1/2+z
1/2+x,-y,1/2-z
1/2-x,y,1/2-z
1/2+x,1/2+y,z
1/2-x,1/2-y,z
1/2+x,1/2-y,-z
1/2-x,1/2+y,-z
loop_
_atom_site_type_symbol
_atom_site_label
_atom_site_fract_x
_atom_site_fract_y
_atom_site_fract_z
Si Si1 0.105342 0.178565 0.107326
Si Si2 0.953423 0.250000 0.250000
Si Si3 0.750000 0.250000 0.750000
Si Si4 0.500000 0.500000 0.500000
Si Si5 0.035857 0.924085 0.746025
Si Si6 0.357601 0.856925 0.278141
Si Si7 0.000000 0.500000 0.500000
O O1 0.193150 0.211982 0.146142
O O2 0.023028 0.220896 0.139569
O O3 0.089746 0.130864 0.224005
O O4 0.119180 0.153536 0.948400
O O5 0.889433 0.199704 0.298912
O O6 0.555879 0.460471 0.606952
O O7 0.928952 0.904564 0.735364
O O8 0.051333 0.960666 0.888489
O O9 0.250000 0.867063 0.250000
#
# Coordination Sequence:
#
# PCOD9325924 Si02
#       7
#    16   8   4   4  16  16   4
#     4  10  21  41  60  93 128 177 214 257 328 391
#     4   9  19  37  59  88 124 172 211 247 307 395
#     4  10  24  36  64  92 138 172 206 266 324 392
#     4  10  24  38  70 100 112 166 234 286 320 382
#     4  10  20  41  65  91 123 166 219 267 327 389
#     4  11  22  37  61  96 126 168 215 273 323 393
#     4  10  16  38  74  76 112 174 218 258 312 390
#
# _framework density 20.428719000000001
#
# number of rings (size 3 to 8) (size 9 to 14) (size 15 to 20)
#    0.000    1.882    2.353    2.471    3.294    1.882 
#   21.176    1.176   10.353    0.000    0.000    0.000 
#    0.000    0.000    0.000    0.000    0.000    0.000 
#
# Total GULP energy -94655.722981 kJ/mol
# GULP energy per Si atom -5567.983705 kJ/mol
# Density = 2.038222 g / cm^3
# Si number density = 20.428719 Si / 1000 Ang^3
#
#
#
# Elastic Constant Matrix: (Units=GPa)
#
#
# Indices 1 2 3 4 5 6 
#
# 1 101.4203 35.4086 12.3602 0.0000 0.0000 0.0000
# 2 35.4086 126.9630 47.6640 0.0000 0.0000 0.0000
# 3 12.3602 47.6640 114.0332 0.0000 0.0000 0.0000
# 4 0.0000 0.0000 0.0000 19.4065 0.0000 0.0000
# 5 0.0000 0.0000 0.0000 0.0000 5.5608 0.0000
# 6 0.0000 0.0000 0.0000 0.0000 0.0000 0.7586
#
#
#
# Elastic Compliance Matrix: (Units=1/GPa)
#
#
# Indices 1 2 3 4 5 6 
#
# 1 0.010925 -0.003087 0.000106 0.000000 0.000000 0.000000
# 2 -0.003087 0.010214 -0.003935 0.000000 0.000000 0.000000
# 3 0.000106 -0.003935 0.010403 0.000000 0.000000 0.000000
# 4 0.000000 0.000000 0.000000 0.051529 0.000000 0.000000
# 5 0.000000 0.000000 0.000000 0.000000 0.179829 0.000000
# 6 0.000000 0.000000 0.000000 0.000000 0.000000 1.318136
#
#
# Mechanical properties :
#
#
# Convention : Reuss Voigt Hill
#
# Bulk Modulus (GPa) = 56.46300 59.25356 57.85828
# Shear Modulus (GPa) = 3.12350 21.61079 12.36714
#
# Velocity S-wave (km/s) = 1.23786 3.25601 2.46312
# Velocity P-wave (km/s) = 5.45363 6.57293 6.03927
#
# Compressibility (1/GPa) = 0.01771071
#
# Stress axis : x y z
#
# Youngs Moduli (GPa) = 91.53623 97.90171 96.12986
#
# Poissons Ratio (x) = 0.30218 -0.01019
# Poissons Ratio (y) = 0.28253 0.37826
# Poissons Ratio (z) = -0.00970 0.38523
#
# Static dielectric constant tensor:
#      x y z
#    x 1.775810 0.000000 0.000000 
#    y 0.000000 1.745760 0.000000 
#    z 0.000000 0.000000 1.945380 
# 
# From -- ./inp_files/10087.got.cif
#   From: 2010.05.17/outbox.cif.g08.bks.cpg/sg22_6_cif.got.tgz:10087.got - 2010.06.03 23:40:54.
