data_PCOD9325727
_publ_section_title
;
Structure prediction by ZEFSAII (Michael W. Deem and Ramdas Pophale) SiO2 
 PCOD9325727
Probable space group: C 2 2 2
;
_chemical_formula_sum "Si O2"
_cell_formula_units_Z 32
_cell_length_a 23.260062
_cell_length_b 10.735563
_cell_length_c 5.294973
_cell_angle_alpha 90.000000
_cell_angle_beta 90.000000
_cell_angle_gamma 90.000000
_cell_volume 1322.206972
_symmetry_space_group_name_H-M "C 2 2 2"
_symmetry_group_IT_number 21
_symmetry_cell_setting 'orthorhombic'
loop_
_space_group_symop_operation_xyz
x,y,z
-x,-y,z
x,-y,-z
-x,y,-z
1/2+x,1/2+y,z
1/2-x,1/2-y,z
1/2+x,1/2-y,-z
1/2-x,1/2+y,-z
loop_
_atom_site_type_symbol
_atom_site_label
_atom_site_fract_x
_atom_site_fract_y
_atom_site_fract_z
Si Si1 0.138393 0.122644 0.660251
Si Si2 0.315186 0.720496 0.832340
Si Si3 0.918223 0.583649 0.246747
Si Si4 0.017024 0.793995 0.256867
O O1 0.184068 0.169201 0.454046
O O2 0.084802 0.217368 0.702560
O O3 0.118231 0.000000 0.500000
O O4 0.162998 0.128017 0.944878
O O5 0.250000 0.750000 0.900144
O O6 0.361038 0.833677 0.805925
O O7 0.914166 0.500000 0.500000
O O8 0.973952 0.674961 0.259466
O O9 0.925981 0.500000 0.000000
O O10 0.000000 0.868726 0.500000
O O11 0.000000 0.858588 0.000000
#
# Coordination Sequence:
#
# PCOD9325727 Si02
#       4
#     8   8   8   8
#     4  12  26  50  77 108 147 202 251 312 385 452
#     4  12  27  51  74 108 152 192 261 320 365 449
#     4  12  26  45  75 109 151 195 238 298 385 455
#     4  12  23  46  72 109 155 187 245 308 378 456
#
# _framework density 24.20196
#
# number of rings (size 3 to 8) (size 9 to 14) (size 15 to 20)
#    0.000    0.000    5.000    4.500    0.000    6.500 
#    0.000    1.250    0.000    0.000    0.000    0.000 
#    0.000    0.000    0.000    0.000    0.000    0.000 
#
# Total GULP energy -89197.047256 kJ/mol
# GULP energy per Si atom -5574.815453 kJ/mol
# Density = 2.414688 g / cm^3
# Si number density = 24.201960 Si / 1000 Ang^3
#
#
#
# Elastic Constant Matrix: (Units=GPa)
#
#
# Indices 1 2 3 4 5 6 
#
# 1 165.6020 73.3246 46.1202 0.0000 0.0000 0.0000
# 2 73.3246 157.5471 69.3242 0.0000 0.0000 0.0000
# 3 46.1202 69.3242 242.0835 0.0000 0.0000 0.0000
# 4 0.0000 0.0000 0.0000 -7.9531 0.0000 0.0000
# 5 0.0000 0.0000 0.0000 0.0000 34.2490 0.0000
# 6 0.0000 0.0000 0.0000 0.0000 0.0000 -36.9375
#
#
#
# Elastic Compliance Matrix: (Units=1/GPa)
#
#
# Indices 1 2 3 4 5 6 
#
# 1 0.007659 -0.003344 -0.000502 0.000000 0.000000 0.000000
# 2 -0.003344 0.008722 -0.001861 0.000000 0.000000 0.000000
# 3 -0.000502 -0.001861 0.004759 0.000000 0.000000 0.000000
# 4 0.000000 0.000000 0.000000 -0.125738 0.000000 0.000000
# 5 0.000000 0.000000 0.000000 0.000000 0.029198 0.000000
# 6 0.000000 0.000000 0.000000 0.000000 0.000000 -0.027073
#
#
# Mechanical properties :
#
#
# Convention : Reuss Voigt Hill
#
# Bulk Modulus (GPa) = 102.79450 104.75228 103.77339
# Shear Modulus (GPa) = -56.93635 22.96927 -16.98354
#
# Velocity S-wave (km/s) = -4.85557 3.08403 -2.65192
# Velocity P-wave (km/s) = 3.33622 7.48720 5.79606
#
# Compressibility (1/GPa) = 0.00972815
#
# Stress axis : x y z
#
# Youngs Moduli (GPa) = 130.56838 114.64827 210.11909
#
# Poissons Ratio (x) = 0.38336 0.10539
# Poissons Ratio (y) = 0.43660 0.39097
# Poissons Ratio (z) = 0.06549 0.21333
#
# Static dielectric constant tensor:
#      x y z
#    x 1.882530 0.000000 0.000000 
#    y 0.000000 2.029920 0.000000 
#    z 0.000000 0.000000 2.015170 
# 
# From -- ./inp_files/6436.got.cif
#   From: 2010.05.17/outbox.cif.g08.bks.cpg/sg21_4_cif.got.tgz:6436.got - 2010.06.03 23:14:55.
