data_PCOD9325219
_publ_section_title
;
Structure prediction by ZEFSAII (Michael W. Deem and Ramdas Pophale) SiO2 
 PCOD9325219
Probable space group: C 2 2 2
;
_chemical_formula_sum "Si O2"
_cell_formula_units_Z 40
_cell_length_a 20.641144
_cell_length_b 20.881506
_cell_length_c 5.031796
_cell_angle_alpha 90.000000
_cell_angle_beta 90.000000
_cell_angle_gamma 90.000000
_cell_volume 2168.795515
_symmetry_space_group_name_H-M "C 2 2 2"
_symmetry_group_IT_number 21
_symmetry_cell_setting 'orthorhombic'
loop_
_space_group_symop_operation_xyz
x,y,z
-x,-y,z
x,-y,-z
-x,y,-z
1/2+x,1/2+y,z
1/2-x,1/2-y,z
1/2+x,1/2-y,-z
1/2-x,1/2+y,-z
loop_
_atom_site_type_symbol
_atom_site_label
_atom_site_fract_x
_atom_site_fract_y
_atom_site_fract_z
Si Si1 0.749691 0.434957 0.636895
Si Si2 0.402854 0.542886 0.745006
Si Si3 0.354971 0.270791 0.883599
Si Si4 0.431718 0.687577 0.630320
Si Si5 0.270126 0.852875 0.118606
O O1 0.774622 0.500000 0.500000
O O2 0.675119 0.447877 0.721058
O O3 0.754584 0.383057 0.403431
O O4 0.783607 0.407239 0.899435
O O5 0.423914 0.500000 0.500000
O O6 0.432341 0.613423 0.723590
O O7 0.417106 0.500000 0.000000
O O8 0.380721 0.299061 0.606164
O O9 0.325917 0.199980 0.855256
O O10 0.294984 0.315700 0.973977
O O11 0.409494 0.274186 0.109433
O O12 0.500000 0.704647 0.500000
#
# Coordination Sequence:
#
# PCOD9325219 Si02
#       5
#     8   8   8   8   8
#     4  11  20  33  56  86 116 146 182 228 286 341
#     4  11  21  35  54  74 110 153 195 233 268 318
#     4  11  22  38  57  82 109 148 195 233 300 332
#     4  12  24  40  56  78 113 152 202 246 274 329
#     4  11  20  36  59  82 113 145 185 237 285 363
#
# _framework density 18.443415000000002
#
# number of rings (size 3 to 8) (size 9 to 14) (size 15 to 20)
#    0.000    0.800    4.000    6.000    0.000    3.600 
#    0.000    1.000    0.000    0.000    0.000    0.000 
#    0.000   56.000    0.000    0.000    0.000    0.000 
#
# Total GULP energy -111790.007657 kJ/mol
# GULP energy per Si atom -5589.500383 kJ/mol
# Density = 1.840144 g / cm^3
# Si number density = 18.443415 Si / 1000 Ang^3
#
#
#
# Elastic Constant Matrix: (Units=GPa)
#
#
# Indices 1 2 3 4 5 6 
#
# 1 46.9005 36.0695 25.8079 0.0000 0.0000 0.0000
# 2 36.0695 61.6519 26.8327 0.0000 0.0000 0.0000
# 3 25.8079 26.8327 133.4139 0.0000 0.0000 0.0000
# 4 0.0000 0.0000 0.0000 23.8955 0.0000 0.0000
# 5 0.0000 0.0000 0.0000 0.0000 13.2788 0.0000
# 6 0.0000 0.0000 0.0000 0.0000 0.0000 13.1800
#
#
#
# Elastic Compliance Matrix: (Units=1/GPa)
#
#
# Indices 1 2 3 4 5 6 
#
# 1 0.040066 -0.021993 -0.003327 0.000000 0.000000 0.000000
# 2 -0.021993 0.029848 -0.001749 0.000000 0.000000 0.000000
# 3 -0.003327 -0.001749 0.008491 0.000000 0.000000 0.000000
# 4 0.000000 0.000000 0.000000 0.041849 0.000000 0.000000
# 5 0.000000 0.000000 0.000000 0.000000 0.075308 0.000000
# 6 0.000000 0.000000 0.000000 0.000000 0.000000 0.075872
#
#
# Mechanical properties :
#
#
# Convention : Reuss Voigt Hill
#
# Bulk Modulus (GPa) = 41.20711 46.59848 43.90280
# Shear Modulus (GPa) = 14.98526 20.28797 17.63662
#
# Velocity S-wave (km/s) = 2.85353 3.32024 3.09569
# Velocity P-wave (km/s) = 5.76609 6.32607 6.05256
#
# Compressibility (1/GPa) = 0.02426765
#
# Stress axis : x y z
#
# Youngs Moduli (GPa) = 24.95854 33.50298 117.77396
#
# Poissons Ratio (x) = 0.73682 0.39187
# Poissons Ratio (y) = 0.54891 0.20597
# Poissons Ratio (z) = 0.08304 0.05859
#
# Static dielectric constant tensor:
#      x y z
#    x 1.656190 0.000000 0.000000 
#    y 0.000000 1.639160 0.000000 
#    z 0.000000 0.000000 1.634460 
# 
# From -- ./inp_files/5825.got.cif
#   From: 2010.05.17/outbox.cif.g08.bks.cpg/sg21_3_cif.got.tgz:5825.got - 2010.06.03 23:14:55.
