data_PCOD9325102
_publ_section_title
;
Structure prediction by ZEFSAII (Michael W. Deem and Ramdas Pophale) SiO2 
 PCOD9325102
Probable space group: C 2 2 2
;
_chemical_formula_sum "Si O2"
_cell_formula_units_Z 28
_cell_length_a 7.806481
_cell_length_b 5.447833
_cell_length_c 26.735932
_cell_angle_alpha 90.000000
_cell_angle_beta 90.000000
_cell_angle_gamma 90.000000
_cell_volume 1137.036539
_symmetry_space_group_name_H-M "C 2 2 2"
_symmetry_group_IT_number 21
_symmetry_cell_setting 'orthorhombic'
loop_
_space_group_symop_operation_xyz
x,y,z
-x,-y,z
x,-y,-z
-x,y,-z
1/2+x,1/2+y,z
1/2-x,1/2-y,z
1/2+x,1/2-y,-z
1/2-x,1/2+y,-z
loop_
_atom_site_type_symbol
_atom_site_label
_atom_site_fract_x
_atom_site_fract_y
_atom_site_fract_z
Si Si1 0.250000 0.750000 0.923034
Si Si2 0.750000 0.750000 0.425084
Si Si3 0.750000 0.750000 0.775378
Si Si4 0.250000 0.750000 0.362058
Si Si5 0.000000 0.500000 0.500000
Si Si6 0.000000 0.500000 0.292335
Si Si7 0.500000 0.500000 0.151942
Si Si8 0.500000 0.000000 0.000000
O O1 0.347759 0.572929 0.885223
O O2 0.387678 0.849433 0.961524
O O3 0.728141 0.501875 0.392732
O O4 0.900772 0.679792 0.462752
O O5 0.670804 0.978517 0.743130
O O6 0.589538 0.686777 0.810246
O O7 0.073294 0.708782 0.329965
#
# Coordination Sequence:
#
# PCOD9325102 Si02
#       8
#     4   4   4   4   2   4   4   2
#     4  12  24  41  65  95 132 179 229 291 356 430
#     4  12  29  52  78 114 152 200 250 310 373 448
#     4  11  24  45  69 102 140 184 237 297 360 437
#     4  11  27  48  78 111 152 197 250 308 377 447
#     4  12  30  52  80 114 154 200 252 310 374 444
#     4  10  25  47  74 107 146 191 242 303 369 440
#     4  12  24  43  68  98 136 182 234 291 360 432
#     4  12  24  42  64  96 134 176 232 290 356 428
#
# _framework density 24.625416999999999
#
# number of rings (size 3 to 8) (size 9 to 14) (size 15 to 20)
#    0.000    0.571    0.000    6.857    0.000   15.429 
#    0.000    0.000    0.000    0.000    0.000    0.000 
#    0.000    0.000    0.000    0.000    0.000    0.000 
#
# Total GULP energy -78058.013673 kJ/mol
# GULP energy per Si atom -5575.572405 kJ/mol
# Density = 2.456937 g / cm^3
# Si number density = 24.625417 Si / 1000 Ang^3
#
#
#
# Elastic Constant Matrix: (Units=GPa)
#
#
# Indices 1 2 3 4 5 6 
#
# 1 107.3641 61.0197 60.7559 0.0000 0.0000 0.0000
# 2 61.0197 140.1863 92.0949 0.0000 0.0000 0.0000
# 3 60.7559 92.0949 166.1333 0.0000 0.0000 0.0000
# 4 0.0000 0.0000 0.0000 45.2606 0.0000 0.0000
# 5 0.0000 0.0000 0.0000 0.0000 -822.4239 0.0000
# 6 0.0000 0.0000 0.0000 0.0000 0.0000 58.5485
#
#
#
# Elastic Compliance Matrix: (Units=1/GPa)
#
#
# Indices 1 2 3 4 5 6 
#
# 1 0.013028 -0.003996 -0.002549 0.000000 0.000000 0.000000
# 2 -0.003996 0.012445 -0.005437 0.000000 0.000000 0.000000
# 3 -0.002549 -0.005437 0.009966 0.000000 0.000000 0.000000
# 4 0.000000 0.000000 0.000000 0.022094 0.000000 0.000000
# 5 0.000000 0.000000 0.000000 0.000000 -0.001216 0.000000
# 6 0.000000 0.000000 0.000000 0.000000 0.000000 0.017080
#
#
# Mechanical properties :
#
#
# Convention : Reuss Voigt Hill
#
# Bulk Modulus (GPa) = 87.15970 93.49164 90.32567
# Shear Modulus (GPa) = 49.41414 -130.40207 -40.49397
#
# Velocity S-wave (km/s) = 4.48440 -7.28486 -4.05952
# Velocity P-wave (km/s) = 7.89203 5.71936 3.84533
#
# Compressibility (1/GPa) = 0.01147319
#
# Stress axis : x y z
#
# Youngs Moduli (GPa) = 76.75933 80.35524 100.34479
#
# Poissons Ratio (x) = 0.32110 0.25580
# Poissons Ratio (y) = 0.30673 0.54560
# Poissons Ratio (z) = 0.19567 0.43692
#
# Static dielectric constant tensor:
#      x y z
#    x 1.909140 0.000000 0.000000 
#    y 0.000000 1.967480 0.000000 
#    z 0.000000 0.000000 2.044390 
# 
# From -- ./inp_files/39184.got.cif
#   From: 2010.05.17/outbox.cif.g08.bks.cpg/sg21_20_cif.got.tgz:39184.got - 2010.06.03 23:14:55.
