data_PCOD9325203
_publ_section_title
;
Structure prediction by ZEFSAII (Michael W. Deem and Ramdas Pophale) SiO2 
 PCOD9325203
Probable space group: C 2 2 2
;
_chemical_formula_sum "Si O2"
_cell_formula_units_Z 64
_cell_length_a 19.697941
_cell_length_b 13.647415
_cell_length_c 12.370638
_cell_angle_alpha 90.000000
_cell_angle_beta 90.000000
_cell_angle_gamma 90.000000
_cell_volume 3325.548828
_symmetry_space_group_name_H-M "C 2 2 2"
_symmetry_group_IT_number 21
_symmetry_cell_setting 'orthorhombic'
loop_
_space_group_symop_operation_xyz
x,y,z
-x,-y,z
x,-y,-z
-x,y,-z
1/2+x,1/2+y,z
1/2-x,1/2-y,z
1/2+x,1/2-y,-z
1/2-x,1/2+y,-z
loop_
_atom_site_type_symbol
_atom_site_label
_atom_site_fract_x
_atom_site_fract_y
_atom_site_fract_z
Si Si1 0.808141 0.673235 0.607694
Si Si2 0.191894 0.832988 0.067317
Si Si3 0.244529 0.987320 0.245782
Si Si4 0.572172 0.888053 0.459085
Si Si5 0.621826 0.988895 0.121003
Si Si6 0.312871 0.325157 0.183615
Si Si7 0.091906 0.707132 0.192795
Si Si8 0.439364 0.185241 0.220225
O O1 0.750000 0.750000 0.581359
O O2 0.769755 0.576240 0.652515
O O3 0.860581 0.656843 0.511140
O O4 0.855483 0.710744 0.707028
O O5 0.250000 0.750000 0.074871
O O6 0.212567 0.914687 0.155195
O O7 0.122944 0.778658 0.103103
O O8 0.188327 0.862227 0.941647
O O9 0.313313 0.031488 0.194936
O O10 0.196480 0.080592 0.260155
O O11 0.500000 0.845284 0.500000
O O12 0.571226 0.874418 0.331441
O O13 0.572753 0.000000 0.500000
O O14 0.570842 0.898369 0.129478
O O15 0.592895 0.093229 0.157452
O O16 0.647207 0.000000 0.000000
O O17 0.250000 0.250000 0.196272
O O18 0.381606 0.266078 0.205214
O O19 0.014440 0.729568 0.220153
#
# Coordination Sequence:
#
# PCOD9325203 Si02
#       8
#     8   8   8   8   8   8   8   8
#     4  11  21  42  69  92 112 159 216 260 302 367
#     4  11  19  36  62  90 120 165 210 258 303 369
#     4  11  20  38  63  89 121 161 216 257 304 368
#     4  11  24  41  66  91 125 161 198 257 332 378
#     4  11  21  34  58  89 124 160 197 246 305 372
#     4  11  24  36  57  88 129 166 203 254 316 371
#     4  11  21  36  61  87 122 160 207 249 304 371
#     4  12  25  40  58  90 131 164 198 257 318 381
#
# _framework density 19.244944
#
# number of rings (size 3 to 8) (size 9 to 14) (size 15 to 20)
#    0.000    0.875    6.250    3.750    1.750    3.000 
#    0.000    0.625    0.000    1.500    0.000    0.875 
#    0.000    0.000    0.000    0.000    0.000    0.000 
#
# Total GULP energy -178782.414017 kJ/mol
# GULP energy per Si atom -5586.950438 kJ/mol
# Density = 1.920114 g / cm^3
# Si number density = 19.244944 Si / 1000 Ang^3
#
#
#
# Elastic Constant Matrix: (Units=GPa)
#
#
# Indices 1 2 3 4 5 6 
#
# 1 140.0785 45.5630 15.7604 0.0000 0.0000 0.0000
# 2 45.5630 59.6771 2.9851 0.0000 0.0000 0.0000
# 3 15.7604 2.9851 27.4740 0.0000 0.0000 0.0000
# 4 0.0000 0.0000 0.0000 12.5115 0.0000 0.0000
# 5 0.0000 0.0000 0.0000 0.0000 27.1390 0.0000
# 6 0.0000 0.0000 0.0000 0.0000 0.0000 14.9466
#
#
#
# Elastic Compliance Matrix: (Units=1/GPa)
#
#
# Indices 1 2 3 4 5 6 
#
# 1 0.010138 -0.007490 -0.005002 0.000000 0.000000 0.000000
# 2 -0.007490 0.022382 0.001865 0.000000 0.000000 0.000000
# 3 -0.005002 0.001865 0.039065 0.000000 0.000000 0.000000
# 4 0.000000 0.000000 0.000000 0.079927 0.000000 0.000000
# 5 0.000000 0.000000 0.000000 0.000000 0.036847 0.000000
# 6 0.000000 0.000000 0.000000 0.000000 0.000000 0.066905
#
#
# Mechanical properties :
#
#
# Convention : Reuss Voigt Hill
#
# Bulk Modulus (GPa) = 19.86860 39.53852 29.70356
# Shear Modulus (GPa) = 17.04773 21.78084 19.41429
#
# Velocity S-wave (km/s) = 2.97952 3.36783 3.17961
# Velocity P-wave (km/s) = 4.70990 5.97599 5.38032
#
# Compressibility (1/GPa) = 0.05033068
#
# Stress axis : x y z
#
# Youngs Moduli (GPa) = 98.64015 44.67849 25.59861
#
# Poissons Ratio (x) = 0.33464 0.12804
# Poissons Ratio (y) = 0.73881 -0.04774
# Poissons Ratio (z) = 0.49337 -0.08332
#
# Static dielectric constant tensor:
#      x y z
#    x 1.687970 0.000000 0.000000 
#    y 0.000000 1.669420 0.000000 
#    z 0.000000 0.000000 1.712720 
# 
# From -- ./inp_files/25470.got.cif
#   From: 2010.05.17/outbox.cif.g08.bks.cpg/sg21_13_cif.got.tgz:25470.got - 2010.06.03 23:14:55.
