data_PCOD9325370
_publ_section_title
;
Structure prediction by ZEFSAII (Michael W. Deem and Ramdas Pophale) SiO2 
 PCOD9325370
Probable space group: C 2 2 2
;
_chemical_formula_sum "Si O2"
_cell_formula_units_Z 32
_cell_length_a 12.542852
_cell_length_b 12.570261
_cell_length_c 9.406772
_cell_angle_alpha 90.000000
_cell_angle_beta 90.000000
_cell_angle_gamma 90.000000
_cell_volume 1483.136800
_symmetry_space_group_name_H-M "C 2 2 2"
_symmetry_group_IT_number 21
_symmetry_cell_setting 'orthorhombic'
loop_
_space_group_symop_operation_xyz
x,y,z
-x,-y,z
x,-y,-z
-x,y,-z
1/2+x,1/2+y,z
1/2-x,1/2-y,z
1/2+x,1/2-y,-z
1/2-x,1/2+y,-z
loop_
_atom_site_type_symbol
_atom_site_label
_atom_site_fract_x
_atom_site_fract_y
_atom_site_fract_z
Si Si1 0.519618 0.815067 0.165148
Si Si2 0.958674 0.879341 0.344412
Si Si3 0.320877 0.142813 0.644218
Si Si4 0.212883 0.594292 0.671191
O O1 0.506395 0.692355 0.212785
O O2 0.427461 0.864447 0.263109
O O3 0.634842 0.862023 0.208236
O O4 0.500000 0.831193 0.000000
O O5 0.831924 0.862809 0.342744
O O6 0.000000 0.842108 0.500000
O O7 0.000000 0.000000 0.331419
O O8 0.250000 0.250000 0.666499
O O9 0.343172 0.126799 0.476982
O O10 0.264020 0.031876 0.682678
#
# Coordination Sequence:
#
# PCOD9325370 Si02
#       4
#     8   8   8   8
#     4  12  26  41  60  94 139 180 222 270 327 403
#     4  11  22  43  71  99 128 166 222 285 341 399
#     4  11  22  41  67  95 125 168 223 280 336 396
#     4  11  23  41  68  97 127 169 220 282 340 395
#
# _framework density 21.575892
#
# number of rings (size 3 to 8) (size 9 to 14) (size 15 to 20)
#    0.000    0.750    0.000   11.250    0.000    6.500 
#    0.000    2.500    0.000    0.000    0.000    0.000 
#    0.000    0.000    0.000    0.000    0.000    0.000 
#
# Total GULP energy -89358.074874 kJ/mol
# GULP energy per Si atom -5584.879680 kJ/mol
# Density = 2.152678 g / cm^3
# Si number density = 21.575892 Si / 1000 Ang^3
#
#
#
# Elastic Constant Matrix: (Units=GPa)
#
#
# Indices 1 2 3 4 5 6 
#
# 1 124.6331 14.5495 68.6853 0.0000 0.0000 0.0000
# 2 14.5495 109.7497 18.3140 0.0000 0.0000 0.0000
# 3 68.6853 18.3140 128.7958 0.0000 0.0000 0.0000
# 4 0.0000 0.0000 0.0000 9.0392 0.0000 0.0000
# 5 0.0000 0.0000 0.0000 0.0000 20.5894 0.0000
# 6 0.0000 0.0000 0.0000 0.0000 0.0000 9.0044
#
#
#
# Elastic Compliance Matrix: (Units=1/GPa)
#
#
# Indices 1 2 3 4 5 6 
#
# 1 0.011391 -0.000508 -0.006002 0.000000 0.000000 0.000000
# 2 -0.000508 0.009356 -0.001059 0.000000 0.000000 0.000000
# 3 -0.006002 -0.001059 0.011116 0.000000 0.000000 0.000000
# 4 0.000000 0.000000 0.000000 0.110629 0.000000 0.000000
# 5 0.000000 0.000000 0.000000 0.000000 0.048569 0.000000
# 6 0.000000 0.000000 0.000000 0.000000 0.000000 0.111057
#
#
# Mechanical properties :
#
#
# Convention : Reuss Voigt Hill
#
# Bulk Modulus (GPa) = 59.79964 62.91959 61.35962
# Shear Modulus (GPa) = 15.48795 25.16856 20.32826
#
# Velocity S-wave (km/s) = 2.68215 3.41913 3.07282
# Velocity P-wave (km/s) = 6.11294 6.69422 6.41017
#
# Compressibility (1/GPa) = 0.01672251
#
# Stress axis : x y z
#
# Youngs Moduli (GPa) = 87.79049 106.88559 89.96221
#
# Poissons Ratio (x) = 0.05435 0.53998
# Poissons Ratio (y) = 0.04464 0.09529
# Poissons Ratio (z) = 0.52694 0.11321
#
# Static dielectric constant tensor:
#      x y z
#    x 1.885600 0.000000 0.000000 
#    y 0.000000 1.935270 0.000000 
#    z 0.000000 0.000000 1.725770 
# 
# From -- ./inp_files/12312.got.cif
#   From: 2010.05.17/outbox.cif.g08.bks.cpg/sg21_7_cif.got.tgz:12312.got - 2010.06.03 23:14:55.
