data_PCOD9325601
_publ_section_title
;
Structure prediction by ZEFSAII (Michael W. Deem and Ramdas Pophale) SiO2 
 PCOD9325601
Probable space group: C 2 2 2
;
_chemical_formula_sum "Si O2"
_cell_formula_units_Z 32
_cell_length_a 5.511239
_cell_length_b 13.884305
_cell_length_c 18.125973
_cell_angle_alpha 90.000000
_cell_angle_beta 90.000000
_cell_angle_gamma 90.000000
_cell_volume 1386.994437
_symmetry_space_group_name_H-M "C 2 2 2"
_symmetry_group_IT_number 21
_symmetry_cell_setting 'orthorhombic'
loop_
_space_group_symop_operation_xyz
x,y,z
-x,-y,z
x,-y,-z
-x,y,-z
1/2+x,1/2+y,z
1/2-x,1/2-y,z
1/2+x,1/2-y,-z
1/2-x,1/2+y,-z
loop_
_atom_site_type_symbol
_atom_site_label
_atom_site_fract_x
_atom_site_fract_y
_atom_site_fract_z
Si Si1 0.239586 0.558036 0.142435
Si Si2 0.117210 0.104364 0.706349
Si Si3 0.250000 0.750000 0.691423
Si Si4 0.750000 0.750000 0.953683
Si Si5 0.535006 0.884845 0.583851
O O1 0.500000 0.500000 0.140188
O O2 0.192241 0.586792 0.228371
O O3 0.264555 0.653748 0.095083
O O4 0.000000 0.500000 0.117633
O O5 0.213393 0.134814 0.625943
O O6 0.949283 0.190782 0.735584
O O7 0.000000 0.000000 0.696300
O O8 0.350979 0.832132 0.637589
O O9 0.500000 0.754996 0.000000
O O10 0.500000 0.852475 0.500000
O O11 0.500000 0.000000 0.585384
#
# Coordination Sequence:
#
# PCOD9325601 Si02
#       5
#     8   8   4   4   8
#     4  11  27  48  79 111 153 199 247 300 368 434
#     4  11  25  46  70 102 140 186 250 306 364 444
#     4  12  26  41  71  94 136 188 236 310 378 423
#     4  12  28  49  79 120 158 194 248 294 364 447
#     4  11  25  45  66  96 141 186 243 308 376 443
#
# _framework density 23.071470000000001
#
# number of rings (size 3 to 8) (size 9 to 14) (size 15 to 20)
#    0.000    0.750    2.500    3.000   10.500    4.000 
#    0.000    0.000    0.000    0.000    0.000    0.000 
#    0.000    0.000    0.000    0.000    0.000    0.000 
#
# Total GULP energy -89418.922850 kJ/mol
# GULP energy per Si atom -5588.682678 kJ/mol
# Density = 2.301896 g / cm^3
# Si number density = 23.071470 Si / 1000 Ang^3
#
#
#
# Elastic Constant Matrix: (Units=GPa)
#
#
# Indices 1 2 3 4 5 6 
#
# 1 116.5550 51.0350 39.8639 0.0000 0.0000 0.0000
# 2 51.0350 136.3094 47.7013 0.0000 0.0000 0.0000
# 3 39.8639 47.7013 110.9592 0.0000 0.0000 0.0000
# 4 0.0000 0.0000 0.0000 23.6394 0.0000 0.0000
# 5 0.0000 0.0000 0.0000 0.0000 -99.1044 0.0000
# 6 0.0000 0.0000 0.0000 0.0000 0.0000 51.7610
#
#
#
# Elastic Compliance Matrix: (Units=1/GPa)
#
#
# Indices 1 2 3 4 5 6 
#
# 1 0.010833 -0.003171 -0.002529 0.000000 0.000000 0.000000
# 2 -0.003171 0.009564 -0.002972 0.000000 0.000000 0.000000
# 3 -0.002529 -0.002972 0.011199 0.000000 0.000000 0.000000
# 4 0.000000 0.000000 0.000000 0.042302 0.000000 0.000000
# 5 0.000000 0.000000 0.000000 0.000000 -0.010090 0.000000
# 6 0.000000 0.000000 0.000000 0.000000 0.000000 0.019320
#
#
# Mechanical properties :
#
#
# Convention : Reuss Voigt Hill
#
# Bulk Modulus (GPa) = 70.16871 71.22489 70.69680
# Shear Modulus (GPa) = 47.51914 10.27409 28.89662
#
# Velocity S-wave (km/s) = 4.54326 2.11254 3.54288
# Velocity P-wave (km/s) = 7.61586 6.07362 6.88804
#
# Compressibility (1/GPa) = 0.01425137
#
# Stress axis : x y z
#
# Youngs Moduli (GPa) = 92.31091 104.56326 89.29751
#
# Poissons Ratio (x) = 0.33157 0.22581
# Poissons Ratio (y) = 0.29272 0.26541
# Poissons Ratio (z) = 0.23343 0.31078
#
# Static dielectric constant tensor:
#      x y z
#    x 2.023520 0.000000 0.000000 
#    y 0.000000 1.878140 0.000000 
#    z 0.000000 0.000000 1.808140 
# 
# From -- ./inp_files/34472.got.cif
#   From: 2010.05.17/outbox.cif.g08.bks.cpg/sg21_18_cif.got.tgz:34472.got - 2010.06.03 23:14:55.
