data_PCOD9325317
_publ_section_title
;
Structure prediction by ZEFSAII (Michael W. Deem and Ramdas Pophale) SiO2 
 PCOD9325317
Probable space group: C 2 2 2
;
_chemical_formula_sum "Si O2"
_cell_formula_units_Z 34
_cell_length_a 14.390957
_cell_length_b 10.389365
_cell_length_c 10.314161
_cell_angle_alpha 90.000000
_cell_angle_beta 90.000000
_cell_angle_gamma 90.000000
_cell_volume 1542.100173
_symmetry_space_group_name_H-M "C 2 2 2"
_symmetry_group_IT_number 21
_symmetry_cell_setting 'orthorhombic'
loop_
_space_group_symop_operation_xyz
x,y,z
-x,-y,z
x,-y,-z
-x,y,-z
1/2+x,1/2+y,z
1/2-x,1/2-y,z
1/2+x,1/2-y,-z
1/2-x,1/2+y,-z
loop_
_atom_site_type_symbol
_atom_site_label
_atom_site_fract_x
_atom_site_fract_y
_atom_site_fract_z
Si Si1 0.000000 0.500000 0.000000
Si Si2 0.621165 0.818453 0.826944
Si Si3 0.750000 0.750000 0.455247
Si Si4 0.234413 0.970603 0.737634
Si Si5 0.250000 0.250000 0.046756
Si Si6 0.579576 0.363131 0.388985
O O1 0.939356 0.581509 0.903318
O O2 0.665449 0.739180 0.945478
O O3 0.559900 0.733706 0.729335
O O4 0.703670 0.901735 0.758762
O O5 0.724495 0.874504 0.369958
O O6 0.663502 0.705298 0.537340
O O7 0.132031 0.015199 0.683153
O O8 0.241733 0.878061 0.864215
O O9 0.500000 0.375833 0.500000
#
# Coordination Sequence:
#
# PCOD9325317 Si02
#       6
#     2   8   4   8   4   8
#     4  12  28  44  70 114 148 182 268 326 390 460
#     4  12  24  45  73 111 148 195 250 329 383 457
#     4  11  25  44  68 104 145 201 248 294 382 453
#     4  11  23  44  75 105 146 199 243 315 381 454
#     4  11  21  44  84 110 139 205 260 302 410 449
#     4  12  27  46  74 109 154 200 256 307 382 464
#
# _framework density 22.047854999999998
#
# number of rings (size 3 to 8) (size 9 to 14) (size 15 to 20)
#    0.000    0.471    7.059    0.706    3.294    1.882 
#    0.000    0.000    0.000    0.000    0.000    0.000 
#    0.000    0.000    0.000    0.000    0.000    0.000 
#
# Total GULP energy -94794.540124 kJ/mol
# GULP energy per Si atom -5576.149419 kJ/mol
# Density = 2.199767 g / cm^3
# Si number density = 22.047855 Si / 1000 Ang^3
#
#
#
# Elastic Constant Matrix: (Units=GPa)
#
#
# Indices 1 2 3 4 5 6 
#
# 1 88.0945 24.9611 53.4340 0.0000 0.0000 0.0000
# 2 24.9611 112.7810 67.7816 0.0000 0.0000 0.0000
# 3 53.4340 67.7816 149.7400 0.0000 0.0000 0.0000
# 4 0.0000 0.0000 0.0000 42.5086 0.0000 0.0000
# 5 0.0000 0.0000 0.0000 0.0000 55.8157 0.0000
# 6 0.0000 0.0000 0.0000 0.0000 0.0000 24.4121
#
#
#
# Elastic Compliance Matrix: (Units=1/GPa)
#
#
# Indices 1 2 3 4 5 6 
#
# 1 0.014489 -0.000137 -0.005108 0.000000 0.000000 0.000000
# 2 -0.000137 0.012182 -0.005465 0.000000 0.000000 0.000000
# 3 -0.005108 -0.005465 0.010975 0.000000 0.000000 0.000000
# 4 0.000000 0.000000 0.000000 0.023525 0.000000 0.000000
# 5 0.000000 0.000000 0.000000 0.000000 0.017916 0.000000
# 6 0.000000 0.000000 0.000000 0.000000 0.000000 0.040963
#
#
# Mechanical properties :
#
#
# Convention : Reuss Voigt Hill
#
# Bulk Modulus (GPa) = 61.63436 71.44099 66.53768
# Shear Modulus (GPa) = 34.04168 38.17652 36.10910
#
# Velocity S-wave (km/s) = 3.93363 4.16568 4.05132
# Velocity P-wave (km/s) = 6.97472 7.45723 7.22001
#
# Compressibility (1/GPa) = 0.01622472
#
# Stress axis : x y z
#
# Youngs Moduli (GPa) = 69.01953 82.09021 91.11472
#
# Poissons Ratio (x) = 0.01121 0.46545
# Poissons Ratio (y) = 0.00942 0.49799
# Poissons Ratio (z) = 0.35258 0.44866
#
# Static dielectric constant tensor:
#      x y z
#    x 1.875150 0.000000 0.000000 
#    y 0.000000 1.805080 0.000000 
#    z 0.000000 0.000000 1.783900 
# 
# From -- ./inp_files/14177.got.cif
#   From: 2010.05.17/outbox.cif.g08.bks.cpg/sg21_8_cif.got.tgz:14177.got - 2010.06.03 23:14:55.
