data_PCOD9325842
_publ_section_title
;
Structure prediction by ZEFSAII (Michael W. Deem and Ramdas Pophale) SiO2 
 PCOD9325842
Probable space group: C 2 2 2
;
_chemical_formula_sum "Si O2"
_cell_formula_units_Z 29
_cell_length_a 9.000000
_cell_length_b 18.000000
_cell_length_c 18.000000
_cell_angle_alpha 90.000000
_cell_angle_beta 90.000000
_cell_angle_gamma 90.000000
_cell_volume 2916.000000
_symmetry_space_group_name_H-M "C 2 2 2"
_symmetry_group_IT_number 21
_symmetry_cell_setting 'orthorhombic'
loop_
_space_group_symop_operation_xyz
x,y,z
-x,-y,z
x,-y,-z
-x,y,-z
1/2+x,1/2+y,z
1/2-x,1/2-y,z
1/2+x,1/2-y,-z
1/2-x,1/2+y,-z
loop_
_atom_site_type_symbol
_atom_site_label
_atom_site_fract_x
_atom_site_fract_y
_atom_site_fract_z
Si Si1 0.842452 0.081661 0.329462
Si Si2 0.477381 0.697670 0.585049
Si Si3 0.153098 0.322821 0.163153
Si Si4 0.071602 0.772776 0.077306
Si Si5 0.464296 0.587674 0.823096
Si Si6 0.725536 0.075492 0.611262
Si Si7 0.477167 0.157961 0.692216
Si Si8 0.500000 0.000000 0.500000
O O1 0.959766 0.088644 0.260283
O O2 0.683109 0.118902 0.310582
O O3 0.903501 0.134145 0.394687
O O4 0.815430 0.997287 0.359304
O O5 0.500000 0.722026 0.500000
O O6 0.325633 0.648827 0.594925
O O7 0.502744 0.768315 0.639994
O O8 0.250000 0.250000 0.179035
O O9 0.284983 0.387976 0.168132
O O10 0.044722 0.296553 0.094779
O O11 0.025577 0.325014 0.224971
O O12 0.250000 0.750000 0.075469
O O13 0.045658 0.843798 0.133057
O O14 0.000000 0.800773 0.000000
O O15 0.500000 0.500000 0.846749
O O16 0.604363 0.099649 0.670689
O O17 0.616330 0.050809 0.544923
#
# Coordination Sequence:
#
# PCOD9325842 Si02
#       8
#     8   8   8   8   8   8   8   2
#     4  12  24  44  63  94 124 172 220 274 345 421
#     4  12  27  40  60  87 120 162 214 281 349 411
#     4  10  21  40  66  99 132 180 221 275 334 412
#     4  11  23  44  71 103 142 190 232 274 336 414
#     4  11  23  41  70 101 138 176 229 283 342 398
#     4  12  25  43  64  84 124 169 224 278 350 427
#     4  12  24  41  63  93 125 162 219 283 343 399
#     4  12  24  44  66  88 120 180 234 284 356 432
#
# _framework density 9.9451300000000007
#
# number of rings (size 3 to 8) (size 9 to 14) (size 15 to 20)
#    0.000    0.552    1.379    9.103    0.966    1.931 
#    0.000    2.069    0.000    0.828    0.000    0.000 
#    0.000    0.000    0.000    0.000    0.000    0.000 
#
# Total GULP energy -161543.962048 kJ/mol
# GULP energy per Si atom -5570.481450 kJ/mol
# Density = 0.992249 g / cm^3
# Si number density = 9.945130 Si / 1000 Ang^3
#
#
#
# Elastic Constant Matrix: (Units=GPa)
#
#
# Indices 1 2 3 4 5 6 
#
# 1 97.4612 19.5669 -8.4699 0.0000 0.0000 0.0000
# 2 19.5669 113.9162 15.8773 0.0000 0.0000 0.0000
# 3 -8.4699 15.8773 64.2827 0.0000 0.0000 0.0000
# 4 0.0000 0.0000 0.0000 6.8063 0.0000 0.0000
# 5 0.0000 0.0000 0.0000 0.0000 40.1584 0.0000
# 6 0.0000 0.0000 0.0000 0.0000 0.0000 826.8105
#
#
#
# Elastic Compliance Matrix: (Units=1/GPa)
#
#
# Indices 1 2 3 4 5 6 
#
# 1 0.010860 -0.002138 0.001959 0.000000 0.000000 0.000000
# 2 -0.002138 0.009512 -0.002631 0.000000 0.000000 0.000000
# 3 0.001959 -0.002631 0.016464 0.000000 0.000000 0.000000
# 4 0.000000 0.000000 0.000000 0.146924 0.000000 0.000000
# 5 0.000000 0.000000 0.000000 0.000000 0.024901 0.000000
# 6 0.000000 0.000000 0.000000 0.000000 0.000000 0.001209
#
#
# Mechanical properties :
#
#
# Convention : Reuss Voigt Hill
#
# Bulk Modulus (GPa) = 32.03523 36.62319 34.32921
# Shear Modulus (GPa) = 22.13391 191.33409 106.73400
#
# Velocity S-wave (km/s) = 3.33949 9.81854 7.33334
# Velocity P-wave (km/s) = 5.56871 12.12398 9.43402
#
# Compressibility (1/GPa) = 0.03121564
#
# Stress axis : x y z
#
# Youngs Moduli (GPa) = 92.08036 105.12565 60.73742
#
# Poissons Ratio (x) = 0.22480 -0.11899
# Poissons Ratio (y) = 0.19691 0.15982
# Poissons Ratio (z) = -0.18039 0.27661
#
# Static dielectric constant tensor:
#      x y z
#    x 1.769680 0.000000 0.000000 
#    y 0.000000 0.221120 0.000000 
#    z 0.000000 0.000000 -26.257220 
# 
# From -- ./inp_files/35810.got.cif
#   From: 2010.05.17/outbox.ucp.g08.bks.cvg/sg21_18_cif.got.tgz:35810.got - 2010.06.11 15:15:05.
