data_PCOD9325782
_publ_section_title
;
Structure prediction by ZEFSAII (Michael W. Deem and Ramdas Pophale) SiO2 
 PCOD9325782
Probable space group: C 2 2 2
;
_chemical_formula_sum "Si O2"
_cell_formula_units_Z 26
_cell_length_a 14.588802
_cell_length_b 5.619077
_cell_length_c 12.578353
_cell_angle_alpha 90.000000
_cell_angle_beta 90.000000
_cell_angle_gamma 90.000000
_cell_volume 1031.118057
_symmetry_space_group_name_H-M "C 2 2 2"
_symmetry_group_IT_number 21
_symmetry_cell_setting 'orthorhombic'
loop_
_space_group_symop_operation_xyz
x,y,z
-x,-y,z
x,-y,-z
-x,y,-z
1/2+x,1/2+y,z
1/2-x,1/2-y,z
1/2+x,1/2-y,-z
1/2-x,1/2+y,-z
loop_
_atom_site_type_symbol
_atom_site_label
_atom_site_fract_x
_atom_site_fract_y
_atom_site_fract_z
Si Si1 0.500000 0.000000 0.500000
Si Si2 0.446780 0.750290 0.131888
Si Si3 0.845906 0.370631 0.337061
Si Si4 0.250000 0.250000 0.202433
Si Si5 0.178636 0.000000 0.000000
O O1 0.573383 0.130131 0.423489
O O2 0.500000 0.500000 0.130269
O O3 0.387310 0.733300 0.237915
O O4 0.500000 0.000000 0.136299
O O5 0.383589 0.728092 0.027605
O O6 0.750000 0.250000 0.372793
O O7 0.822272 0.628633 0.283604
O O8 0.225674 0.052210 0.112662
#
# Coordination Sequence:
#
# PCOD9325782 Si02
#       5
#     2   8   8   4   4
#     4  12  32  56  94 120 162 232 306 380 474 500
#     4  12  27  50  79 125 178 228 292 352 428 537
#     4  12  28  55  83 123 167 228 295 380 434 533
#     4  12  26  50  80 126 180 220 294 348 440 536
#     4  12  25  44  84 123 176 246 262 359 436 535
#
# _framework density 25.215347000000001
#
# number of rings (size 3 to 8) (size 9 to 14) (size 15 to 20)
#    0.000    0.000    4.615    4.154    2.154    7.385 
#    0.000    1.538    0.000    0.000    0.000    0.000 
#    0.000    0.000    0.000    0.000    0.000    0.000 
#
# Total GULP energy -72568.849340 kJ/mol
# GULP energy per Si atom -5582.219180 kJ/mol
# Density = 2.515796 g / cm^3
# Si number density = 25.215347 Si / 1000 Ang^3
#
#
#
# Elastic Constant Matrix: (Units=GPa)
#
#
# Indices 1 2 3 4 5 6 
#
# 1 141.6783 55.8923 86.6936 0.0000 0.0000 0.0000
# 2 55.8923 129.9244 31.6866 0.0000 0.0000 0.0000
# 3 86.6936 31.6866 138.7716 0.0000 0.0000 0.0000
# 4 0.0000 0.0000 0.0000 8.8014 0.0000 0.0000
# 5 0.0000 0.0000 0.0000 0.0000 40.7044 0.0000
# 6 0.0000 0.0000 0.0000 0.0000 0.0000 62.8473
#
#
#
# Elastic Compliance Matrix: (Units=1/GPa)
#
#
# Indices 1 2 3 4 5 6 
#
# 1 0.013004 -0.003826 -0.007250 0.000000 0.000000 0.000000
# 2 -0.003826 0.009276 0.000272 0.000000 0.000000 0.000000
# 3 -0.007250 0.000272 0.011673 0.000000 0.000000 0.000000
# 4 0.000000 0.000000 0.000000 0.113618 0.000000 0.000000
# 5 0.000000 0.000000 0.000000 0.000000 0.024567 0.000000
# 6 0.000000 0.000000 0.000000 0.000000 0.000000 0.015912
#
#
# Mechanical properties :
#
#
# Convention : Reuss Voigt Hill
#
# Bulk Modulus (GPa) = 81.00246 84.32439 82.66343
# Shear Modulus (GPa) = 23.38916 38.21075 30.79995
#
# Velocity S-wave (km/s) = 3.04892 3.89701 3.49875
# Velocity P-wave (km/s) = 6.67747 7.33234 7.01255
#
# Compressibility (1/GPa) = 0.01234530
#
# Stress axis : x y z
#
# Youngs Moduli (GPa) = 76.89860 107.80105 85.66472
#
# Poissons Ratio (x) = 0.41245 0.62110
# Poissons Ratio (y) = 0.29422 -0.02331
# Poissons Ratio (z) = 0.55754 -0.02933
#
# Static dielectric constant tensor:
#      x y z
#    x 2.262550 0.000000 0.000000 
#    y 0.000000 2.486020 0.000000 
#    z 0.000000 0.000000 1.910740 
# 
# From -- ./inp_files/25654.got.cif
#   From: 2010.05.17/outbox.cif.g08.bks.cpg/sg21_13_cif.got.tgz:25654.got - 2010.06.03 23:14:55.
