data_PCOD9325855
_publ_section_title
;
Structure prediction by ZEFSAII (Michael W. Deem and Ramdas Pophale) SiO2 
 PCOD9325855
Probable space group: C 2 2 2
;
_chemical_formula_sum "Si O2"
_cell_formula_units_Z 28
_cell_length_a 9.000000
_cell_length_b 21.000000
_cell_length_c 15.000000
_cell_angle_alpha 90.000000
_cell_angle_beta 90.000000
_cell_angle_gamma 90.000000
_cell_volume 2835.000000
_symmetry_space_group_name_H-M "C 2 2 2"
_symmetry_group_IT_number 21
_symmetry_cell_setting 'orthorhombic'
loop_
_space_group_symop_operation_xyz
x,y,z
-x,-y,z
x,-y,-z
-x,y,-z
1/2+x,1/2+y,z
1/2-x,1/2-y,z
1/2+x,1/2-y,-z
1/2-x,1/2+y,-z
loop_
_atom_site_type_symbol
_atom_site_label
_atom_site_fract_x
_atom_site_fract_y
_atom_site_fract_z
Si Si1 0.682522 0.928832 0.102281
Si Si2 0.808393 0.470386 0.405797
Si Si3 0.272533 0.182072 0.742571
Si Si4 0.176284 0.579165 0.101802
Si Si5 0.266441 0.592218 0.701158
Si Si6 0.554021 0.372577 0.402816
Si Si7 0.508874 0.848006 0.394775
O O1 0.503760 0.920711 0.106513
O O2 0.748524 0.898514 0.192891
O O3 0.718940 0.004465 0.110389
O O4 0.722862 0.904980 0.001585
O O5 0.845473 0.500000 0.500000
O O6 0.788722 0.521710 0.328130
O O7 0.657930 0.432333 0.424498
O O8 0.929752 0.417040 0.386145
O O9 0.250000 0.250000 0.788688
O O10 0.272627 0.125468 0.816858
O O11 0.153497 0.170597 0.662901
O O12 0.422265 0.188452 0.683203
O O13 0.427749 0.601094 0.661489
O O14 0.173053 0.641855 0.641073
O O15 0.500000 0.346744 0.500000
O O16 0.500000 0.829146 0.500000
#
# Coordination Sequence:
#
# PCOD9325855 Si02
#       7
#     8   8   8   8   8   8   8
#     4   9  18  33  64  93 121 143 186 262 315 370
#     4  11  20  31  52  87 129 162 191 236 314 367
#     4  11  24  43  63  80 116 170 214 251 300 363
#     4   9  18  37  60  92 118 151 196 247 318 362
#     4  12  20  31  56  86 125 151 192 248 305 368
#     4  11  23  38  53  84 125 164 197 239 309 371
#     4  11  21  34  54  86 116 153 213 252 283 355
#
# _framework density 9.8765429999999999
#
# number of rings (size 3 to 8) (size 9 to 14) (size 15 to 20)
#    0.000    1.429    4.286    4.286    2.000    0.571 
#    0.000    1.429    6.286    1.714    0.000    0.000 
#    0.000    0.000    0.000    0.000    0.000    0.000 
#
# Total GULP energy -155998.008764 kJ/mol
# GULP energy per Si atom -5571.357456 kJ/mol
# Density = 0.985406 g / cm^3
# Si number density = 9.876543 Si / 1000 Ang^3
#
#
#
# Elastic Constant Matrix: (Units=GPa)
#
#
# Indices 1 2 3 4 5 6 
#
# 1 57.1817 5.4511 -3.9539 0.0000 0.0000 0.0000
# 2 5.4511 55.2294 20.9256 0.0000 0.0000 0.0000
# 3 -3.9539 20.9256 126.6702 0.0000 0.0000 0.0000
# 4 0.0000 0.0000 0.0000 12.1316 0.0000 0.0000
# 5 0.0000 0.0000 0.0000 0.0000 23.4368 0.0000
# 6 0.0000 0.0000 0.0000 0.0000 0.0000 -9.1668
#
#
#
# Elastic Compliance Matrix: (Units=1/GPa)
#
#
# Indices 1 2 3 4 5 6 
#
# 1 0.017750 -0.002093 0.000900 0.000000 0.000000 0.000000
# 2 -0.002093 0.019562 -0.003297 0.000000 0.000000 0.000000
# 3 0.000900 -0.003297 0.008467 0.000000 0.000000 0.000000
# 4 0.000000 0.000000 0.000000 0.082430 0.000000 0.000000
# 5 0.000000 0.000000 0.000000 0.000000 0.042668 0.000000
# 6 0.000000 0.000000 0.000000 0.000000 0.000000 -0.109089
#
#
# Mechanical properties :
#
#
# Convention : Reuss Voigt Hill
#
# Bulk Modulus (GPa) = 27.17454 31.54745 29.36099
# Shear Modulus (GPa) = 60.21643 19.72421 39.97032
#
# Velocity S-wave (km/s) = 5.52727 3.16339 4.50321
# Velocity P-wave (km/s) = 7.38385 5.41741 6.47571
#
# Compressibility (1/GPa) = 0.03679915
#
# Stress axis : x y z
#
# Youngs Moduli (GPa) = 56.33856 51.11953 118.10221
#
# Poissons Ratio (x) = 0.10698 -0.10627
# Poissons Ratio (y) = 0.11791 0.38937
# Poissons Ratio (z) = -0.05069 0.16854
#
# Static dielectric constant tensor:
#      x y z
#    x 1.766310 0.000000 0.000000 
#    y 0.000000 1.787060 0.000000 
#    z 0.000000 0.000000 1.685480 
# 
# From -- ./inp_files/30731.got.cif
#   From: 2010.05.17/outbox.ucp.g08.bks.cvg/sg21_16_cif.got.tgz:30731.got - 2010.06.11 15:15:05.
