data_PCOD9325498
_publ_section_title
;
Structure prediction by ZEFSAII (Michael W. Deem and Ramdas Pophale) SiO2 
 PCOD9325498
Probable space group: C 2 2 2
;
_chemical_formula_sum "Si O2"
_cell_formula_units_Z 56
_cell_length_a 14.798910
_cell_length_b 20.506805
_cell_length_c 8.378472
_cell_angle_alpha 90.000000
_cell_angle_beta 90.000000
_cell_angle_gamma 90.000000
_cell_volume 2542.684955
_symmetry_space_group_name_H-M "C 2 2 2"
_symmetry_group_IT_number 21
_symmetry_cell_setting 'orthorhombic'
loop_
_space_group_symop_operation_xyz
x,y,z
-x,-y,z
x,-y,-z
-x,y,-z
1/2+x,1/2+y,z
1/2-x,1/2-y,z
1/2+x,1/2-y,-z
1/2-x,1/2+y,-z
loop_
_atom_site_type_symbol
_atom_site_label
_atom_site_fract_x
_atom_site_fract_y
_atom_site_fract_z
Si Si1 0.247196 0.824850 0.763469
Si Si2 0.500000 0.786570 0.500000
Si Si3 0.102128 0.646533 0.035548
Si Si4 0.393114 0.362343 0.990668
Si Si5 0.362094 0.024843 0.762281
Si Si6 0.297128 0.500000 0.000000
Si Si7 0.369267 0.098995 0.424435
Si Si8 0.849575 0.240583 0.278043
O O1 0.250000 0.750000 0.715923
O O2 0.270833 0.874483 0.623404
O O3 0.325519 0.842546 0.894412
O O4 0.152594 0.833358 0.851173
O O5 0.565351 0.838664 0.411614
O O6 0.432404 0.742546 0.399139
O O7 0.099720 0.572540 0.101274
O O8 0.136331 0.694614 0.172498
O O9 0.000000 0.666630 0.000000
O O10 0.357440 0.435886 0.988055
O O11 0.356482 0.320716 0.840714
O O12 0.500000 0.357712 0.000000
O O13 0.267351 0.002886 0.843297
O O14 0.362485 0.068459 0.600814
O O15 0.403692 0.957176 0.696882
O O16 0.750000 0.250000 0.349042
#
# Coordination Sequence:
#
# PCOD9325498 Si02
#       8
#     8   4   8   8   8   4   8   8
#     4  12  24  44  73 107 145 194 246 313 380 451
#     4  12  28  47  70 110 155 202 252 308 390 476
#     4  12  22  43  75 106 144 190 252 305 369 468
#     4  12  25  45  76 107 138 188 258 318 370 443
#     4  11  23  46  73 104 154 199 240 309 388 462
#     4  12  23  50  75 106 136 194 259 308 377 448
#     4  11  26  46  68 108 154 195 241 308 386 472
#     4  12  24  49  73 105 153 198 248 320 384 453
#
# _framework density 22.023963999999999
#
# number of rings (size 3 to 8) (size 9 to 14) (size 15 to 20)
#    0.000    0.286    7.143    1.500    2.000    1.714 
#    2.571    0.714    0.000    0.000    0.000    0.000 
#    0.000    0.000    0.000    0.000    0.000    0.000 
#
# Total GULP energy -156627.599215 kJ/mol
# GULP energy per Si atom -5593.842829 kJ/mol
# Density = 2.197384 g / cm^3
# Si number density = 22.023964 Si / 1000 Ang^3
#
#
#
# Elastic Constant Matrix: (Units=GPa)
#
#
# Indices 1 2 3 4 5 6 
#
# 1 141.3012 17.8711 38.0989 0.0000 0.0000 0.0000
# 2 17.8711 123.2825 22.4136 0.0000 0.0000 0.0000
# 3 38.0989 22.4136 61.1486 0.0000 0.0000 0.0000
# 4 0.0000 0.0000 0.0000 35.4944 0.0000 0.0000
# 5 0.0000 0.0000 0.0000 0.0000 36.7340 0.0000
# 6 0.0000 0.0000 0.0000 0.0000 0.0000 34.6259
#
#
#
# Elastic Compliance Matrix: (Units=1/GPa)
#
#
# Indices 1 2 3 4 5 6 
#
# 1 0.008516 -0.000289 -0.005200 0.000000 0.000000 0.000000
# 2 -0.000289 0.008700 -0.003009 0.000000 0.000000 0.000000
# 3 -0.005200 -0.003009 0.020696 0.000000 0.000000 0.000000
# 4 0.000000 0.000000 0.000000 0.028173 0.000000 0.000000
# 5 0.000000 0.000000 0.000000 0.000000 0.027223 0.000000
# 6 0.000000 0.000000 0.000000 0.000000 0.000000 0.028880
#
#
# Mechanical properties :
#
#
# Convention : Reuss Voigt Hill
#
# Bulk Modulus (GPa) = 47.80866 53.61105 50.70986
# Shear Modulus (GPa) = 34.20992 37.86076 36.03534
#
# Velocity S-wave (km/s) = 3.94547 4.15067 4.04937
# Velocity P-wave (km/s) = 6.52000 6.88227 6.70358
#
# Compressibility (1/GPa) = 0.02091671
#
# Stress axis : x y z
#
# Youngs Moduli (GPa) = 117.43098 114.93716 48.31798
#
# Poissons Ratio (x) = 0.03323 0.25124
# Poissons Ratio (y) = 0.03395 0.14539
# Poissons Ratio (z) = 0.61061 0.34584
#
# Static dielectric constant tensor:
#      x y z
#    x 1.818750 0.000000 0.000000 
#    y 0.000000 1.816420 0.000000 
#    z 0.000000 0.000000 1.886200 
# 
# From -- ./inp_files/15329.got.cif
#   From: 2010.05.17/outbox.cif.g08.bks.cpg/sg21_8_cif.got.tgz:15329.got - 2010.06.03 23:14:55.
