data_PCOD9325717
_publ_section_title
;
Structure prediction by ZEFSAII (Michael W. Deem and Ramdas Pophale) SiO2 
 PCOD9325717
Probable space group: C 2 2 2
;
_chemical_formula_sum "Si O2"
_cell_formula_units_Z 56
_cell_length_a 20.579771
_cell_length_b 14.027601
_cell_length_c 9.448776
_cell_angle_alpha 90.000000
_cell_angle_beta 90.000000
_cell_angle_gamma 90.000000
_cell_volume 2727.718163
_symmetry_space_group_name_H-M "C 2 2 2"
_symmetry_group_IT_number 21
_symmetry_cell_setting 'orthorhombic'
loop_
_space_group_symop_operation_xyz
x,y,z
-x,-y,z
x,-y,-z
-x,y,-z
1/2+x,1/2+y,z
1/2-x,1/2-y,z
1/2+x,1/2-y,-z
1/2-x,1/2+y,-z
loop_
_atom_site_type_symbol
_atom_site_label
_atom_site_fract_x
_atom_site_fract_y
_atom_site_fract_z
Si Si1 0.568324 0.248752 0.515365
Si Si2 0.224352 0.356860 0.226415
Si Si3 0.000000 0.627852 0.000000
Si Si4 0.578518 0.083171 0.726104
Si Si5 0.319337 0.393438 0.479938
Si Si6 0.397930 0.869943 0.245308
Si Si7 0.272416 0.500000 0.000000
Si Si8 0.245497 0.858883 0.217192
O O1 0.500000 0.302624 0.500000
O O2 0.549442 0.159780 0.617523
O O3 0.624993 0.319368 0.565129
O O4 0.595404 0.207245 0.368289
O O5 0.250000 0.250000 0.203261
O O6 0.149942 0.372092 0.262876
O O7 0.265776 0.396372 0.357419
O O8 0.235285 0.421363 0.090325
O O9 0.942335 0.663195 0.889055
O O10 0.045716 0.582631 0.880401
O O11 0.578698 0.971682 0.689961
O O12 0.345690 0.500000 0.500000
O O13 0.283072 0.361648 0.624181
O O14 0.321696 0.889058 0.212883
O O15 0.299400 0.570451 0.122594
O O16 0.250000 0.750000 0.166865
#
# Coordination Sequence:
#
# PCOD9325717 Si02
#       8
#     8   8   4   8   8   8   4   8
#     4  12  26  44  68 101 126 177 232 281 331 402
#     4  12  24  43  69 102 134 178 227 281 338 403
#     4  12  27  40  62  96 143 194 205 256 336 420
#     4  12  23  41  66  96 141 176 221 264 338 409
#     4  12  24  48  72  96 132 176 233 294 345 381
#     4  12  23  41  66  96 141 176 221 264 338 409
#     4  12  24  40  62 103 143 168 220 268 340 410
#     4  12  24  43  69 102 134 178 227 281 338 403
#
# _framework density 20.529979999999998
#
# number of rings (size 3 to 8) (size 9 to 14) (size 15 to 20)
#    0.000    0.000    7.143    4.286    0.000    0.857 
#    0.000    0.000    0.000    0.000    0.000    2.000 
#    0.000    0.000    0.000    0.000    0.000    0.000 
#
# Total GULP energy -156028.585721 kJ/mol
# GULP energy per Si atom -5572.449490 kJ/mol
# Density = 2.048325 g / cm^3
# Si number density = 20.529980 Si / 1000 Ang^3
#
#
#
# Elastic Constant Matrix: (Units=GPa)
#
#
# Indices 1 2 3 4 5 6 
#
# 1 99.0177 11.1950 18.1068 0.0000 0.0000 0.0000
# 2 11.1950 99.1917 13.2910 0.0000 0.0000 0.0000
# 3 18.1068 13.2910 79.9276 0.0000 0.0000 0.0000
# 4 0.0000 0.0000 0.0000 32.0088 0.0000 0.0000
# 5 0.0000 0.0000 0.0000 0.0000 27.3668 0.0000
# 6 0.0000 0.0000 0.0000 0.0000 0.0000 21.3227
#
#
#
# Elastic Compliance Matrix: (Units=1/GPa)
#
#
# Indices 1 2 3 4 5 6 
#
# 1 0.010613 -0.000896 -0.002255 0.000000 0.000000 0.000000
# 2 -0.000896 0.010387 -0.001524 0.000000 0.000000 0.000000
# 3 -0.002255 -0.001524 0.013276 0.000000 0.000000 0.000000
# 4 0.000000 0.000000 0.000000 0.031241 0.000000 0.000000
# 5 0.000000 0.000000 0.000000 0.000000 0.036541 0.000000
# 6 0.000000 0.000000 0.000000 0.000000 0.000000 0.046898
#
#
# Mechanical properties :
#
#
# Convention : Reuss Voigt Hill
#
# Bulk Modulus (GPa) = 40.12042 40.36917 40.24480
# Shear Modulus (GPa) = 30.00940 31.84261 30.92601
#
# Velocity S-wave (km/s) = 3.82741 3.94258 3.88543
# Velocity P-wave (km/s) = 6.25435 6.35858 6.30668
#
# Compressibility (1/GPa) = 0.02492496
#
# Stress axis : x y z
#
# Youngs Moduli (GPa) = 94.22508 96.27589 75.32549
#
# Poissons Ratio (x) = 0.08622 0.16988
# Poissons Ratio (y) = 0.08439 0.11482
# Poissons Ratio (z) = 0.21251 0.14675
#
# Static dielectric constant tensor:
#      x y z
#    x 1.784640 0.000000 0.000000 
#    y 0.000000 1.755800 0.000000 
#    z 0.000000 0.000000 1.762470 
# 
# From -- ./inp_files/17749.got.cif
#   From: 2010.05.17/outbox.cif.g08.bks.cpg/sg21_9_cif.got.tgz:17749.got - 2010.06.03 23:14:55.
