data_PCOD9325252
_publ_section_title
;
Structure prediction by ZEFSAII (Michael W. Deem and Ramdas Pophale) SiO2 
 PCOD9325252
Probable space group: C 2 2 2
;
_chemical_formula_sum "Si O2"
_cell_formula_units_Z 48
_cell_length_a 24.315948
_cell_length_b 17.669923
_cell_length_c 5.612133
_cell_angle_alpha 90.000000
_cell_angle_beta 90.000000
_cell_angle_gamma 90.000000
_cell_volume 2411.314278
_symmetry_space_group_name_H-M "C 2 2 2"
_symmetry_group_IT_number 21
_symmetry_cell_setting 'orthorhombic'
loop_
_space_group_symop_operation_xyz
x,y,z
-x,-y,z
x,-y,-z
-x,y,-z
1/2+x,1/2+y,z
1/2-x,1/2-y,z
1/2+x,1/2-y,-z
1/2-x,1/2+y,-z
loop_
_atom_site_type_symbol
_atom_site_label
_atom_site_fract_x
_atom_site_fract_y
_atom_site_fract_z
Si Si1 0.762487 0.826799 0.560402
Si Si2 0.193002 0.918257 0.059484
Si Si3 0.924688 0.541478 0.245576
Si Si4 0.810155 0.613686 0.186509
Si Si5 0.968441 0.712833 0.252327
Si Si6 0.349897 0.727097 0.834037
O O1 0.750000 0.750000 0.710578
O O2 0.706881 0.859051 0.449650
O O3 0.804039 0.794128 0.362850
O O4 0.791527 0.899167 0.671937
O O5 0.252991 0.912211 0.930051
O O6 0.154855 0.846895 0.996134
O O7 0.169847 0.000000 0.000000
O O8 0.934195 0.500000 0.500000
O O9 0.859228 0.555523 0.211998
O O10 0.952750 0.623740 0.255139
O O11 0.941435 0.500000 0.000000
O O12 0.832315 0.690712 0.062328
O O13 0.911322 0.759129 0.255031
O O14 0.000000 0.728857 0.500000
O O15 0.000000 0.727386 0.000000
#
# Coordination Sequence:
#
# PCOD9325252 Si02
#       6
#     8   8   8   8   8   8
#     4   9  18  34  57  81 119 163 200 242 291 367
#     4  11  21  32  56  89 122 159 198 248 308 368
#     4  11  24  39  60  92 134 170 201 251 306 362
#     4   9  20  34  53  85 126 167 204 231 287 371
#     4  11  25  44  68  92 115 159 218 268 317 371
#     4   9  21  39  56  85 116 156 206 256 305 364
#
# _framework density 19.906154999999998
#
# number of rings (size 3 to 8) (size 9 to 14) (size 15 to 20)
#    0.000    2.000    0.000    4.000    7.000    4.000 
#    0.000    0.000    0.000    0.500    0.000    0.000 
#    0.000    0.000    0.000    0.000    0.000    0.000 
#
# Total GULP energy -133683.762029 kJ/mol
# GULP energy per Si atom -5570.156751 kJ/mol
# Density = 1.986085 g / cm^3
# Si number density = 19.906155 Si / 1000 Ang^3
#
#
#
# Elastic Constant Matrix: (Units=GPa)
#
#
# Indices 1 2 3 4 5 6 
#
# 1 109.8185 23.0881 30.4764 0.0000 0.0000 0.0000
# 2 23.0881 86.7872 20.3651 0.0000 0.0000 0.0000
# 3 30.4764 20.3651 72.8890 0.0000 0.0000 0.0000
# 4 0.0000 0.0000 0.0000 -9.9278 0.0000 0.0000
# 5 0.0000 0.0000 0.0000 0.0000 32.7331 0.0000
# 6 0.0000 0.0000 0.0000 0.0000 0.0000 32.2565
#
#
#
# Elastic Compliance Matrix: (Units=1/GPa)
#
#
# Indices 1 2 3 4 5 6 
#
# 1 0.010587 -0.001902 -0.003895 0.000000 0.000000 0.000000
# 2 -0.001902 0.012673 -0.002745 0.000000 0.000000 0.000000
# 3 -0.003895 -0.002745 0.016115 0.000000 0.000000 0.000000
# 4 0.000000 0.000000 0.000000 -0.100727 0.000000 0.000000
# 5 0.000000 0.000000 0.000000 0.000000 0.030550 0.000000
# 6 0.000000 0.000000 0.000000 0.000000 0.000000 0.031001
#
#
# Mechanical properties :
#
#
# Convention : Reuss Voigt Hill
#
# Bulk Modulus (GPa) = 44.86487 46.37265 45.61876
# Shear Modulus (GPa) = 202.30735 24.05002 113.17868
#
# Velocity S-wave (km/s) = 10.09213 3.47964 7.54848
# Velocity P-wave (km/s) = 12.58526 6.28412 9.94683
#
# Compressibility (1/GPa) = 0.02228915
#
# Stress axis : x y z
#
# Youngs Moduli (GPa) = 94.45689 78.90956 62.05347
#
# Poissons Ratio (x) = 0.15012 0.24170
# Poissons Ratio (y) = 0.17970 0.17036
# Poissons Ratio (z) = 0.36791 0.21663
#
# Static dielectric constant tensor:
#      x y z
#    x 1.715950 0.000000 0.000000 
#    y 0.000000 1.709880 0.000000 
#    z 0.000000 0.000000 1.825650 
# 
# From -- ./inp_files/5177.got.cif
#   From: 2010.05.17/outbox.cif.g08.bks.cpg/sg21_3_cif.got.tgz:5177.got - 2010.06.03 23:14:55.
