data_PCOD9325124
_publ_section_title
;
Structure prediction by ZEFSAII (Michael W. Deem and Ramdas Pophale) SiO2 
 PCOD9325124
Probable space group: C 2 2 2
;
_chemical_formula_sum "Si O2"
_cell_formula_units_Z 38
_cell_length_a 26.080098
_cell_length_b 5.887917
_cell_length_c 10.829051
_cell_angle_alpha 90.000000
_cell_angle_beta 90.000000
_cell_angle_gamma 90.000000
_cell_volume 1662.881483
_symmetry_space_group_name_H-M "C 2 2 2"
_symmetry_group_IT_number 21
_symmetry_cell_setting 'orthorhombic'
loop_
_space_group_symop_operation_xyz
x,y,z
-x,-y,z
x,-y,-z
-x,y,-z
1/2+x,1/2+y,z
1/2-x,1/2-y,z
1/2+x,1/2-y,-z
1/2-x,1/2+y,-z
loop_
_atom_site_type_symbol
_atom_site_label
_atom_site_fract_x
_atom_site_fract_y
_atom_site_fract_z
Si Si1 0.055280 0.111756 0.373064
Si Si2 0.701675 0.925049 0.641306
Si Si3 0.124157 0.835158 0.203919
Si Si4 0.500000 0.000000 0.500000
Si Si5 0.113585 0.500000 0.000000
Si Si6 0.304104 0.287259 0.143914
O O1 0.038374 0.362347 0.410836
O O2 0.075873 0.000000 0.500000
O O3 0.091106 0.039735 0.261553
O O4 0.000000 0.000000 0.348785
O O5 0.750000 0.750000 0.658167
O O6 0.648509 0.809168 0.684590
O O7 0.700902 0.000000 0.500000
O O8 0.703697 0.148637 0.727661
O O9 0.175363 0.956421 0.150370
O O10 0.093262 0.679376 0.104666
O O11 0.150370 0.656892 0.920873
O O12 0.250000 0.250000 0.077836
#
# Coordination Sequence:
#
# PCOD9325124 Si02
#       6
#     8   8   8   2   4   8
#     4   9  21  41  68 103 140 173 222 277 354 432
#     4  11  24  38  57  93 139 182 224 279 348 414
#     4  11  24  43  65  98 136 181 231 286 341 413
#     4   8  18  40  68 102 140 182 214 280 368 432
#     4  10  26  40  64  93 130 178 239 278 340 398
#     4  11  23  39  62  87 127 178 232 282 332 399
#
# _framework density 22.851897999999998
#
# number of rings (size 3 to 8) (size 9 to 14) (size 15 to 20)
#    0.000    1.895    2.105    1.263    5.895    6.737 
#    1.895    0.000    0.000    3.789    0.000    0.000 
#    0.000    0.000    0.000    0.000    0.000    0.000 
#
# Total GULP energy -105875.627340 kJ/mol
# GULP energy per Si atom -5572.401439 kJ/mol
# Density = 2.279989 g / cm^3
# Si number density = 22.851898 Si / 1000 Ang^3
#
#
#
# Elastic Constant Matrix: (Units=GPa)
#
#
# Indices 1 2 3 4 5 6 
#
# 1 46.8257 21.2216 30.4047 0.0000 0.0000 0.0000
# 2 21.2216 99.1134 44.7308 0.0000 0.0000 0.0000
# 3 30.4047 44.7308 115.5921 0.0000 0.0000 0.0000
# 4 0.0000 0.0000 0.0000 22.1151 0.0000 0.0000
# 5 0.0000 0.0000 0.0000 0.0000 -71.9687 0.0000
# 6 0.0000 0.0000 0.0000 0.0000 0.0000 0.8986
#
#
#
# Elastic Compliance Matrix: (Units=1/GPa)
#
#
# Indices 1 2 3 4 5 6 
#
# 1 0.026500 -0.003063 -0.005785 0.000000 0.000000 0.000000
# 2 -0.003063 0.012578 -0.004062 0.000000 0.000000 0.000000
# 3 -0.005785 -0.004062 0.011745 0.000000 0.000000 0.000000
# 4 0.000000 0.000000 0.000000 0.045218 0.000000 0.000000
# 5 0.000000 0.000000 0.000000 0.000000 -0.013895 0.000000
# 6 0.000000 0.000000 0.000000 0.000000 0.000000 1.112786
#
#
# Mechanical properties :
#
#
# Convention : Reuss Voigt Hill
#
# Bulk Modulus (GPa) = 39.99489 50.47172 45.23331
# Shear Modulus (GPa) = 4.06806 1.22061 2.64434
#
# Velocity S-wave (km/s) = 1.33568 0.73164 1.07688
# Velocity P-wave (km/s) = 4.46302 4.77997 4.62421
#
# Compressibility (1/GPa) = 0.02500319
#
# Stress axis : x y z
#
# Youngs Moduli (GPa) = 37.73521 79.50103 85.14561
#
# Poissons Ratio (x) = 0.24353 0.49258
# Poissons Ratio (y) = 0.11559 0.34584
# Poissons Ratio (z) = 0.21830 0.32291
#
# Static dielectric constant tensor:
#      x y z
#    x 1.890720 0.000000 0.000000 
#    y 0.000000 2.158570 0.000000 
#    z 0.000000 0.000000 1.946230 
# 
# From -- ./inp_files/27652.got.cif
#   From: 2010.05.17/outbox.cif.g08.bks.cpg/sg21_14_cif.got.tgz:27652.got - 2010.06.03 23:14:55.
