data_PCOD9325156
_publ_section_title
;
Structure prediction by ZEFSAII (Michael W. Deem and Ramdas Pophale) SiO2 
 PCOD9325156
Probable space group: C 2 2 2
;
_chemical_formula_sum "Si O2"
_cell_formula_units_Z 30
_cell_length_a 19.079774
_cell_length_b 5.712715
_cell_length_c 12.223366
_cell_angle_alpha 90.000000
_cell_angle_beta 90.000000
_cell_angle_gamma 90.000000
_cell_volume 1332.314027
_symmetry_space_group_name_H-M "C 2 2 2"
_symmetry_group_IT_number 21
_symmetry_cell_setting 'orthorhombic'
loop_
_space_group_symop_operation_xyz
x,y,z
-x,-y,z
x,-y,-z
-x,y,-z
1/2+x,1/2+y,z
1/2-x,1/2-y,z
1/2+x,1/2-y,-z
1/2-x,1/2+y,-z
loop_
_atom_site_type_symbol
_atom_site_label
_atom_site_fract_x
_atom_site_fract_y
_atom_site_fract_z
Si Si1 0.601147 0.722154 0.822097
Si Si2 0.750000 0.250000 0.564087
Si Si3 0.500000 0.500000 0.000000
Si Si4 0.250000 0.250000 0.934358
Si Si5 0.900427 0.872404 0.382846
Si Si6 0.500000 0.000000 0.309276
O O1 0.551451 0.645075 0.921598
O O2 0.679619 0.754041 0.862668
O O3 0.596843 0.538154 0.722746
O O4 0.565187 0.946678 0.769418
O O5 0.750040 0.500000 0.500000
O O6 0.824458 0.253273 0.625312
O O7 0.251613 0.500000 0.000000
O O8 0.968223 0.707943 0.379609
O O9 0.899742 0.000000 0.500000
#
# Coordination Sequence:
#
# PCOD9325156 Si02
#       6
#     8   4   2   4   8   4
#     4  12  29  50  81 114 162 212 266 338 409 481
#     4  10  26  50  78 114 160 214 254 326 392 480
#     4  12  24  58  66 116 166 202 270 334 414 456
#     4  12  32  54  86 120 160 218 284 340 392 492
#     4  11  28  51  78 118 162 207 270 332 411 493
#     4  12  28  48  82 118 154 219 259 346 404 502
#
# _framework density 22.517216000000001
#
# number of rings (size 3 to 8) (size 9 to 14) (size 15 to 20)
#    0.000    0.533    4.000    0.000   18.667    4.267 
#    0.000    0.000    0.000    0.000    0.000    0.000 
#    0.000    0.000    0.000    0.000    0.000    0.000 
#
# Total GULP energy -83857.080781 kJ/mol
# GULP energy per Si atom -5590.472052 kJ/mol
# Density = 2.246597 g / cm^3
# Si number density = 22.517216 Si / 1000 Ang^3
#
#
#
# Elastic Constant Matrix: (Units=GPa)
#
#
# Indices 1 2 3 4 5 6 
#
# 1 224.0040 49.0410 79.4114 0.0000 0.0000 0.0000
# 2 49.0410 95.7606 53.4923 0.0000 0.0000 0.0000
# 3 79.4114 53.4923 140.6103 0.0000 0.0000 0.0000
# 4 0.0000 0.0000 0.0000 27.6699 0.0000 0.0000
# 5 0.0000 0.0000 0.0000 0.0000 65.4683 0.0000
# 6 0.0000 0.0000 0.0000 0.0000 0.0000 45.6263
#
#
#
# Elastic Compliance Matrix: (Units=1/GPa)
#
#
# Indices 1 2 3 4 5 6 
#
# 1 0.005732 -0.001431 -0.002693 0.000000 0.000000 0.000000
# 2 -0.001431 0.013618 -0.004372 0.000000 0.000000 0.000000
# 3 -0.002693 -0.004372 0.010296 0.000000 0.000000 0.000000
# 4 0.000000 0.000000 0.000000 0.036140 0.000000 0.000000
# 5 0.000000 0.000000 0.000000 0.000000 0.015275 0.000000
# 6 0.000000 0.000000 0.000000 0.000000 0.000000 0.021917
#
#
# Mechanical properties :
#
#
# Convention : Reuss Voigt Hill
#
# Bulk Modulus (GPa) = 79.03066 91.58492 85.30779
# Shear Modulus (GPa) = 40.26111 46.31492 43.28801
#
# Velocity S-wave (km/s) = 4.23308 4.54019 4.38932
# Velocity P-wave (km/s) = 7.68544 8.26111 7.97847
#
# Compressibility (1/GPa) = 0.01265332
#
# Stress axis : x y z
#
# Youngs Moduli (GPa) = 174.45331 73.43134 97.12495
#
# Poissons Ratio (x) = 0.10511 0.26154
# Poissons Ratio (y) = 0.24971 0.42467
# Poissons Ratio (z) = 0.46977 0.32107
#
# Static dielectric constant tensor:
#      x y z
#    x 1.809790 0.000000 0.000000 
#    y 0.000000 1.923850 0.000000 
#    z 0.000000 0.000000 1.818020 
# 
# From -- ./inp_files/26519.got.cif
#   From: 2010.05.17/outbox.cif.g08.bks.cpg/sg21_14_cif.got.tgz:26519.got - 2010.06.03 23:14:55.
