data_PCOD9325210
_publ_section_title
;
Structure prediction by ZEFSAII (Michael W. Deem and Ramdas Pophale) SiO2 
 PCOD9325210
Probable space group: C 2 2 2
;
_chemical_formula_sum "Si O2"
_cell_formula_units_Z 54
_cell_length_a 14.358874
_cell_length_b 15.345741
_cell_length_c 11.911699
_cell_angle_alpha 90.000000
_cell_angle_beta 90.000000
_cell_angle_gamma 90.000000
_cell_volume 2624.713827
_symmetry_space_group_name_H-M "C 2 2 2"
_symmetry_group_IT_number 21
_symmetry_cell_setting 'orthorhombic'
loop_
_space_group_symop_operation_xyz
x,y,z
-x,-y,z
x,-y,-z
-x,y,-z
1/2+x,1/2+y,z
1/2-x,1/2-y,z
1/2+x,1/2-y,-z
1/2-x,1/2+y,-z
loop_
_atom_site_type_symbol
_atom_site_label
_atom_site_fract_x
_atom_site_fract_y
_atom_site_fract_z
Si Si1 0.888705 0.977188 0.624336
Si Si2 0.000000 0.000000 0.000000
Si Si3 0.964906 0.247423 0.669393
Si Si4 0.250000 0.250000 0.083187
Si Si5 0.991040 0.591347 0.192409
Si Si6 0.853915 0.408316 0.019625
Si Si7 0.145328 0.783494 0.442872
Si Si8 0.888410 0.891487 0.184489
O O1 0.865224 0.875370 0.621674
O O2 0.852853 0.000000 0.500000
O O3 0.852139 0.035690 0.727159
O O4 0.000000 0.000000 0.623930
O O5 0.934993 0.940274 0.079626
O O6 0.894934 0.216279 0.570779
O O7 0.967464 0.166352 0.754124
O O8 0.941377 0.333777 0.737578
O O9 0.065369 0.271595 0.618584
O O10 0.195729 0.318307 0.006313
O O11 0.186151 0.183286 0.154291
O O12 0.000000 0.500000 0.255883
O O13 0.927617 0.579599 0.081930
O O14 0.092670 0.606037 0.137212
O O15 0.797956 0.500000 0.000000
O O16 0.250000 0.750000 0.440432
#
# Coordination Sequence:
#
# PCOD9325210 Si02
#       8
#     8   2   8   4   8   8   8   8
#     4  11  19  43  72  95 128 183 232 277 345 420
#     4  12  28  44  66  96 142 178 236 290 348 428
#     4  11  21  42  70  94 134 179 228 283 356 418
#     4  12  26  38  64 104 142 172 232 294 342 408
#     4   9  19  40  66  85 121 180 226 259 331 421
#     4   9  20  40  62  90 129 178 224 275 340 409
#     4  11  24  42  66 104 135 171 231 295 349 414
#     4  12  25  43  71  99 135 187 232 289 354 413
#
# _framework density 20.573671999999998
#
# number of rings (size 3 to 8) (size 9 to 14) (size 15 to 20)
#    0.000    1.333    5.185    1.778    4.148    0.000 
#    6.667    1.481    0.000    0.000    0.000    0.000 
#    0.000    0.000    0.000    0.000    0.000    0.000 
#
# Total GULP energy -150303.625921 kJ/mol
# GULP energy per Si atom -5566.800960 kJ/mol
# Density = 2.052685 g / cm^3
# Si number density = 20.573672 Si / 1000 Ang^3
#
#
#
# Elastic Constant Matrix: (Units=GPa)
#
#
# Indices 1 2 3 4 5 6 
#
# 1 94.1140 46.0582 33.9825 0.0000 0.0000 0.0000
# 2 46.0582 165.6644 64.6726 0.0000 0.0000 0.0000
# 3 33.9825 64.6726 97.1542 0.0000 0.0000 0.0000
# 4 0.0000 0.0000 0.0000 32.8181 0.0000 0.0000
# 5 0.0000 0.0000 0.0000 0.0000 7.3123 0.0000
# 6 0.0000 0.0000 0.0000 0.0000 0.0000 33.3630
#
#
#
# Elastic Compliance Matrix: (Units=1/GPa)
#
#
# Indices 1 2 3 4 5 6 
#
# 1 0.012862 -0.002459 -0.002862 0.000000 0.000000 0.000000
# 2 -0.002459 0.008626 -0.004882 0.000000 0.000000 0.000000
# 3 -0.002862 -0.004882 0.014544 0.000000 0.000000 0.000000
# 4 0.000000 0.000000 0.000000 0.030471 0.000000 0.000000
# 5 0.000000 0.000000 0.000000 0.000000 0.136756 0.000000
# 6 0.000000 0.000000 0.000000 0.000000 0.000000 0.029973
#
#
# Mechanical properties :
#
#
# Convention : Reuss Voigt Hill
#
# Bulk Modulus (GPa) = 63.99558 71.81768 67.90663
# Shear Modulus (GPa) = 19.31650 28.84663 24.08156
#
# Velocity S-wave (km/s) = 3.06746 3.74854 3.42497
# Velocity P-wave (km/s) = 6.61202 7.32931 6.97989
#
# Compressibility (1/GPa) = 0.01562608
#
# Stress axis : x y z
#
# Youngs Moduli (GPa) = 77.74768 115.93365 68.75779
#
# Poissons Ratio (x) = 0.28503 0.19681
# Poissons Ratio (y) = 0.19115 0.33567
# Poissons Ratio (z) = 0.22254 0.56597
#
# Static dielectric constant tensor:
#      x y z
#    x 1.834730 0.000000 0.000000 
#    y 0.000000 1.849670 0.000000 
#    z 0.000000 0.000000 1.817160 
# 
# From -- ./inp_files/25322.got.cif
#   From: 2010.05.17/outbox.cif.g08.bks.cpg/sg21_13_cif.got.tgz:25322.got - 2010.06.03 23:14:55.
