data_PCOD9325654
_publ_section_title
;
Structure prediction by ZEFSAII (Michael W. Deem and Ramdas Pophale) SiO2 
 PCOD9325654
Probable space group: C 2 2 2
;
_chemical_formula_sum "Si O2"
_cell_formula_units_Z 26
_cell_length_a 10.453333
_cell_length_b 12.178141
_cell_length_c 8.986212
_cell_angle_alpha 90.000000
_cell_angle_beta 90.000000
_cell_angle_gamma 90.000000
_cell_volume 1143.964227
_symmetry_space_group_name_H-M "C 2 2 2"
_symmetry_group_IT_number 21
_symmetry_cell_setting 'orthorhombic'
loop_
_space_group_symop_operation_xyz
x,y,z
-x,-y,z
x,-y,-z
-x,y,-z
1/2+x,1/2+y,z
1/2-x,1/2-y,z
1/2+x,1/2-y,-z
1/2-x,1/2+y,-z
loop_
_atom_site_type_symbol
_atom_site_label
_atom_site_fract_x
_atom_site_fract_y
_atom_site_fract_z
Si Si1 0.750000 0.750000 0.189545
Si Si2 0.000000 0.000000 0.500000
Si Si3 0.146026 0.530540 0.674957
Si Si4 0.000000 0.795244 0.000000
Si Si5 0.167416 0.139243 0.728486
O O1 0.788421 0.647885 0.295863
O O2 0.873998 0.746050 0.081052
O O3 0.911420 0.917680 0.595510
O O4 0.156510 0.500000 0.500000
O O5 0.227233 0.448283 0.774481
O O6 0.000000 0.500000 0.712318
O O7 0.933730 0.851475 0.859770
O O8 0.250000 0.250000 0.695442
#
# Coordination Sequence:
#
# PCOD9325654 Si02
#       5
#     4   2   8   4   8
#     4  12  28  54  78 120 162 208 274 324 404 488
#     4  12  28  50  86 118 160 210 260 358 386 482
#     4  11  27  49  80 119 157 208 259 339 401 474
#     4  12  28  53  81 110 164 216 259 335 392 488
#     4  12  27  52  78 119 156 210 268 324 411 474
#
# _framework density 22.727982999999998
#
# number of rings (size 3 to 8) (size 9 to 14) (size 15 to 20)
#    0.000    0.308    3.077    3.692    2.154    8.000 
#    0.000    0.000    0.000    0.000    0.000    0.000 
#    0.000    0.000    0.000    0.000    0.000    0.000 
#
# Total GULP energy -72429.561215 kJ/mol
# GULP energy per Si atom -5571.504709 kJ/mol
# Density = 2.267625 g / cm^3
# Si number density = 22.727983 Si / 1000 Ang^3
#
#
#
# Elastic Constant Matrix: (Units=GPa)
#
#
# Indices 1 2 3 4 5 6 
#
# 1 190.4958 68.2817 62.5611 0.0000 0.0000 0.0000
# 2 68.2817 173.3821 51.9377 0.0000 0.0000 0.0000
# 3 62.5611 51.9377 117.1060 0.0000 0.0000 0.0000
# 4 0.0000 0.0000 0.0000 13.7215 0.0000 0.0000
# 5 0.0000 0.0000 0.0000 0.0000 24.6722 0.0000
# 6 0.0000 0.0000 0.0000 0.0000 0.0000 18.6847
#
#
#
# Elastic Compliance Matrix: (Units=1/GPa)
#
#
# Indices 1 2 3 4 5 6 
#
# 1 0.006843 -0.001845 -0.002837 0.000000 0.000000 0.000000
# 2 -0.001845 0.007149 -0.002185 0.000000 0.000000 0.000000
# 3 -0.002837 -0.002185 0.011024 0.000000 0.000000 0.000000
# 4 0.000000 0.000000 0.000000 0.072878 0.000000 0.000000
# 5 0.000000 0.000000 0.000000 0.000000 0.040531 0.000000
# 6 0.000000 0.000000 0.000000 0.000000 0.000000 0.053520
#
#
# Mechanical properties :
#
#
# Convention : Reuss Voigt Hill
#
# Bulk Modulus (GPa) = 88.64324 94.06056 91.35190
# Shear Modulus (GPa) = 23.87327 31.29590 27.58459
#
# Velocity S-wave (km/s) = 3.24449 3.71479 3.48758
# Velocity P-wave (km/s) = 7.28849 7.73788 7.51654
#
# Compressibility (1/GPa) = 0.01128118
#
# Stress axis : x y z
#
# Youngs Moduli (GPa) = 146.14528 139.88652 90.71064
#
# Poissons Ratio (x) = 0.25806 0.25737
# Poissons Ratio (y) = 0.26961 0.19820
# Poissons Ratio (z) = 0.41465 0.30565
#
# Static dielectric constant tensor:
#      x y z
#    x 1.543610 0.000000 0.000000 
#    y 0.000000 1.799870 0.000000 
#    z 0.000000 0.000000 1.896310 
# 
# From -- ./inp_files/11931.got.cif
#   From: 2010.05.17/outbox.cif.g08.bks.cpg/sg21_6_cif.got.tgz:11931.got - 2010.06.03 23:14:55.
