data_PCOD9325272
_publ_section_title
;
Structure prediction by ZEFSAII (Michael W. Deem and Ramdas Pophale) SiO2 
 PCOD9325272
Probable space group: C 2 2 2
;
_chemical_formula_sum "Si O2"
_cell_formula_units_Z 64
_cell_length_a 11.596211
_cell_length_b 16.579701
_cell_length_c 17.725284
_cell_angle_alpha 90.000000
_cell_angle_beta 90.000000
_cell_angle_gamma 90.000000
_cell_volume 3407.893432
_symmetry_space_group_name_H-M "C 2 2 2"
_symmetry_group_IT_number 21
_symmetry_cell_setting 'orthorhombic'
loop_
_space_group_symop_operation_xyz
x,y,z
-x,-y,z
x,-y,-z
-x,y,-z
1/2+x,1/2+y,z
1/2-x,1/2-y,z
1/2+x,1/2-y,-z
1/2-x,1/2+y,-z
loop_
_atom_site_type_symbol
_atom_site_label
_atom_site_fract_x
_atom_site_fract_y
_atom_site_fract_z
Si Si1 0.256886 0.631137 0.056982
Si Si2 0.927785 0.754848 0.876519
Si Si3 0.173450 0.319047 0.107806
Si Si4 0.132251 0.503366 0.863542
Si Si5 0.889101 0.740374 0.700254
Si Si6 0.111432 0.552781 0.305116
Si Si7 0.003045 0.864220 0.585974
Si Si8 0.811425 0.994918 0.414142
O O1 0.164308 0.686268 0.101531
O O2 0.380548 0.663315 0.085065
O O3 0.220566 0.541212 0.080512
O O4 0.233917 0.654185 0.970435
O O5 0.925365 0.760934 0.786141
O O6 0.049959 0.722442 0.905298
O O7 0.250000 0.250000 0.145652
O O8 0.157843 0.402812 0.150699
O O9 0.136429 0.458302 0.783821
O O10 0.000000 0.500000 0.893465
O O11 0.750000 0.750000 0.693759
O O12 0.911699 0.646889 0.682476
O O13 0.960269 0.797872 0.644614
O O14 0.216401 0.518955 0.353834
O O15 0.000000 0.500000 0.322548
O O16 0.000000 0.832634 0.500000
O O17 0.910056 0.936634 0.588894
O O18 0.125383 0.909065 0.599614
O O19 0.765465 0.000000 0.500000
#
# Coordination Sequence:
#
# PCOD9325272 Si02
#       8
#     8   8   8   8   8   8   8   8
#     4  11  21  37  62  88 116 158 211 261 301 364
#     4  11  21  38  61  93 120 156 210 256 308 364
#     4  12  25  38  61  88 124 165 203 266 319 363
#     4  11  22  39  60  87 117 159 215 250 298 372
#     4  12  20  39  67  92 118 160 208 256 300 366
#     4  11  22  38  58  90 125 156 198 258 305 352
#     4   9  20  39  64  92 116 156 206 243 287 367
#     4   9  19  39  63  86 122 161 197 238 297 367
#
# _framework density 18.779928999999999
#
# number of rings (size 3 to 8) (size 9 to 14) (size 15 to 20)
#    0.000    1.250    6.250    2.250    0.000    1.750 
#    2.250    1.250    0.000    1.500    0.000    0.000 
#    0.000    0.000    0.000    0.000    0.000    0.000 
#
# Total GULP energy -178603.560689 kJ/mol
# GULP energy per Si atom -5581.361272 kJ/mol
# Density = 1.873719 g / cm^3
# Si number density = 18.779929 Si / 1000 Ang^3
#
#
#
# Elastic Constant Matrix: (Units=GPa)
#
#
# Indices 1 2 3 4 5 6 
#
# 1 39.9204 17.5941 4.9424 0.0000 0.0000 0.0000
# 2 17.5941 110.3115 18.3795 0.0000 0.0000 0.0000
# 3 4.9424 18.3795 67.3811 0.0000 0.0000 0.0000
# 4 0.0000 0.0000 0.0000 8.8884 0.0000 0.0000
# 5 0.0000 0.0000 0.0000 0.0000 -43.2510 0.0000
# 6 0.0000 0.0000 0.0000 0.0000 0.0000 27.7304
#
#
#
# Elastic Compliance Matrix: (Units=1/GPa)
#
#
# Indices 1 2 3 4 5 6 
#
# 1 0.026990 -0.004164 -0.000844 0.000000 0.000000 0.000000
# 2 -0.004164 0.010139 -0.002460 0.000000 0.000000 0.000000
# 3 -0.000844 -0.002460 0.015574 0.000000 0.000000 0.000000
# 4 0.000000 0.000000 0.000000 0.112507 0.000000 0.000000
# 5 0.000000 0.000000 0.000000 0.000000 -0.023121 0.000000
# 6 0.000000 0.000000 0.000000 0.000000 0.000000 0.036061
#
#
# Mechanical properties :
#
#
# Convention : Reuss Voigt Hill
#
# Bulk Modulus (GPa) = 26.47855 33.27166 29.87511
# Shear Modulus (GPa) = 24.31015 10.45335 17.38175
#
# Velocity S-wave (km/s) = 3.60178 2.36185 3.04558
# Velocity P-wave (km/s) = 5.60599 5.01925 5.32071
#
# Compressibility (1/GPa) = 0.03776642
#
# Stress axis : x y z
#
# Youngs Moduli (GPa) = 37.05136 98.62609 64.20982
#
# Poissons Ratio (x) = 0.41069 0.05418
# Poissons Ratio (y) = 0.15429 0.15797
# Poissons Ratio (z) = 0.03127 0.24265
#
# Static dielectric constant tensor:
#      x y z
#    x 1.681680 0.000000 0.000000 
#    y 0.000000 1.679610 0.000000 
#    z 0.000000 0.000000 1.655670 
# 
# From -- ./inp_files/31746.got.cif
#   From: 2010.05.17/outbox.cif.g08.bks.cpg/sg21_16_cif.got.tgz:31746.got - 2010.06.03 23:14:55.
