data_PCOD9325377
_publ_section_title
;
Structure prediction by ZEFSAII (Michael W. Deem and Ramdas Pophale) SiO2 
 PCOD9325377
Probable space group: C 2 2 2
;
_chemical_formula_sum "Si O2"
_cell_formula_units_Z 32
_cell_length_a 14.099876
_cell_length_b 11.613493
_cell_length_c 8.055564
_cell_angle_alpha 90.000000
_cell_angle_beta 90.000000
_cell_angle_gamma 90.000000
_cell_volume 1319.089029
_symmetry_space_group_name_H-M "C 2 2 2"
_symmetry_group_IT_number 21
_symmetry_cell_setting 'orthorhombic'
loop_
_space_group_symop_operation_xyz
x,y,z
-x,-y,z
x,-y,-z
-x,y,-z
1/2+x,1/2+y,z
1/2-x,1/2-y,z
1/2+x,1/2-y,-z
1/2-x,1/2+y,-z
loop_
_atom_site_type_symbol
_atom_site_label
_atom_site_fract_x
_atom_site_fract_y
_atom_site_fract_z
Si Si1 0.638996 0.046885 0.317781
Si Si2 0.202033 0.130560 0.911166
Si Si3 0.988634 0.134503 0.302034
Si Si4 0.956113 0.657307 0.178777
O O1 0.726303 0.112026 0.242511
O O2 0.541585 0.119711 0.303748
O O3 0.654104 0.000000 0.500000
O O4 0.623990 0.934910 0.203875
O O5 0.250000 0.250000 0.990064
O O6 0.102532 0.158894 0.817099
O O7 0.194592 0.000000 0.000000
O O8 0.000000 0.158718 0.500000
O O9 0.069557 0.212398 0.217595
O O10 0.000000 0.000000 0.286556
O O11 0.000000 0.643329 0.000000
#
# Coordination Sequence:
#
# PCOD9325377 Si02
#       4
#     8   8   8   8
#     4  11  23  42  74 106 144 194 250 313 372 450
#     4  12  28  50  78 114 156 201 260 321 387 459
#     4  11  27  47  70 104 156 200 251 309 391 463
#     4  11  22  41  72 106 148 192 253 310 372 456
#
# _framework density 24.259164999999999
#
# number of rings (size 3 to 8) (size 9 to 14) (size 15 to 20)
#    0.000    0.750    2.500    6.000    7.000    0.000 
#    0.000    1.250    0.000    0.000    0.000    0.000 
#    0.000    0.000    0.000    0.000    0.000    0.000 
#
# Total GULP energy -89246.189841 kJ/mol
# GULP energy per Si atom -5577.886865 kJ/mol
# Density = 2.420395 g / cm^3
# Si number density = 24.259165 Si / 1000 Ang^3
#
#
#
# Elastic Constant Matrix: (Units=GPa)
#
#
# Indices 1 2 3 4 5 6 
#
# 1 58.7032 16.0334 16.6431 0.0000 0.0000 0.0000
# 2 16.0334 182.4634 57.5553 0.0000 0.0000 0.0000
# 3 16.6431 57.5553 115.2092 0.0000 0.0000 0.0000
# 4 0.0000 0.0000 0.0000 47.8405 0.0000 0.0000
# 5 0.0000 0.0000 0.0000 0.0000 19.5872 0.0000
# 6 0.0000 0.0000 0.0000 0.0000 0.0000 47.6667
#
#
#
# Elastic Compliance Matrix: (Units=1/GPa)
#
#
# Indices 1 2 3 4 5 6 
#
# 1 0.017885 -0.000898 -0.002135 0.000000 0.000000 0.000000
# 2 -0.000898 0.006551 -0.003143 0.000000 0.000000 0.000000
# 3 -0.002135 -0.003143 0.010558 0.000000 0.000000 0.000000
# 4 0.000000 0.000000 0.000000 0.020903 0.000000 0.000000
# 5 0.000000 0.000000 0.000000 0.000000 0.051054 0.000000
# 6 0.000000 0.000000 0.000000 0.000000 0.000000 0.020979
#
#
# Mechanical properties :
#
#
# Convention : Reuss Voigt Hill
#
# Bulk Modulus (GPa) = 44.16465 59.64884 51.90675
# Shear Modulus (GPa) = 33.82266 40.76181 37.29224
#
# Velocity S-wave (km/s) = 3.73798 4.10355 3.92502
# Velocity P-wave (km/s) = 6.07247 6.86249 6.47953
#
# Compressibility (1/GPa) = 0.02264254
#
# Stress axis : x y z
#
# Youngs Moduli (GPa) = 55.91132 152.65208 94.71150
#
# Poissons Ratio (x) = 0.13711 0.20221
# Poissons Ratio (y) = 0.05022 0.29767
# Poissons Ratio (z) = 0.11937 0.47977
#
# Static dielectric constant tensor:
#      x y z
#    x 1.904740 0.000000 0.000000 
#    y 0.000000 2.058970 0.000000 
#    z 0.000000 0.000000 1.909380 
# 
# From -- ./inp_files/14032.got.cif
#   From: 2010.05.17/outbox.cif.g08.bks.cpg/sg21_8_cif.got.tgz:14032.got - 2010.06.03 23:14:55.
