data_PCOD9325388
_publ_section_title
;
Structure prediction by ZEFSAII (Michael W. Deem and Ramdas Pophale) SiO2 
 PCOD9325388
Probable space group: C 2 2 2
;
_chemical_formula_sum "Si O2"
_cell_formula_units_Z 40
_cell_length_a 16.458389
_cell_length_b 10.054039
_cell_length_c 12.461447
_cell_angle_alpha 90.000000
_cell_angle_beta 90.000000
_cell_angle_gamma 90.000000
_cell_volume 2062.036569
_symmetry_space_group_name_H-M "C 2 2 2"
_symmetry_group_IT_number 21
_symmetry_cell_setting 'orthorhombic'
loop_
_space_group_symop_operation_xyz
x,y,z
-x,-y,z
x,-y,-z
-x,y,-z
1/2+x,1/2+y,z
1/2-x,1/2-y,z
1/2+x,1/2-y,-z
1/2-x,1/2+y,-z
loop_
_atom_site_type_symbol
_atom_site_label
_atom_site_fract_x
_atom_site_fract_y
_atom_site_fract_z
Si Si1 0.727344 0.904502 0.669215
Si Si2 0.500000 0.288071 0.500000
Si Si3 0.543072 0.866891 0.705446
Si Si4 0.457942 0.635126 0.114898
Si Si5 0.230103 0.901315 0.087532
Si Si6 0.645876 0.500000 0.500000
O O1 0.750000 0.750000 0.650316
O O2 0.630549 0.909400 0.656176
O O3 0.739614 0.934235 0.794271
O O4 0.790976 0.989420 0.599464
O O5 0.503694 0.199982 0.606518
O O6 0.582230 0.377316 0.496132
O O7 0.546523 0.755758 0.799765
O O8 0.500000 0.000000 0.745470
O O9 0.500000 0.500000 0.159188
O O10 0.366491 0.592914 0.091312
O O11 0.500000 0.668855 0.000000
O O12 0.250000 0.750000 0.061027
O O13 0.264881 0.000000 0.000000
#
# Coordination Sequence:
#
# PCOD9325388 Si02
#       6
#     8   4   8   8   8   4
#     4  11  23  45  66  94 140 178 213 282 342 392
#     4  11  25  42  68 104 130 178 232 274 326 414
#     4  12  27  45  68 100 143 176 220 285 344 396
#     4  11  23  43  71  97 132 180 227 275 329 405
#     4  11  22  43  70  97 132 176 222 280 334 396
#     4  11  24  40  75  98 128 182 233 272 332 409
#
# _framework density 19.398298
#
# number of rings (size 3 to 8) (size 9 to 14) (size 15 to 20)
#    0.000    0.800    8.000    0.300    8.400    2.000 
#    0.000    1.000    0.000    0.000    0.000    0.000 
#    0.000    0.000    0.000    0.000    0.000    0.000 
#
# Total GULP energy -111583.824290 kJ/mol
# GULP energy per Si atom -5579.191215 kJ/mol
# Density = 1.935415 g / cm^3
# Si number density = 19.398298 Si / 1000 Ang^3
#
#
#
# Elastic Constant Matrix: (Units=GPa)
#
#
# Indices 1 2 3 4 5 6 
#
# 1 86.9963 25.9578 -14.3818 0.0000 0.0000 0.0000
# 2 25.9578 94.9311 54.9571 0.0000 0.0000 0.0000
# 3 -14.3818 54.9571 72.0700 0.0000 0.0000 0.0000
# 4 0.0000 0.0000 0.0000 26.9005 0.0000 0.0000
# 5 0.0000 0.0000 0.0000 0.0000 6.1162 0.0000
# 6 0.0000 0.0000 0.0000 0.0000 0.0000 28.4040
#
#
#
# Elastic Compliance Matrix: (Units=1/GPa)
#
#
# Indices 1 2 3 4 5 6 
#
# 1 0.017120 -0.011922 0.012507 0.000000 0.000000 0.000000
# 2 -0.011922 0.027162 -0.023091 0.000000 0.000000 0.000000
# 3 0.012507 -0.023091 0.033980 0.000000 0.000000 0.000000
# 4 0.000000 0.000000 0.000000 0.037174 0.000000 0.000000
# 5 0.000000 0.000000 0.000000 0.000000 0.163499 0.000000
# 6 0.000000 0.000000 0.000000 0.000000 0.000000 0.035206
#
#
# Mechanical properties :
#
#
# Convention : Reuss Voigt Hill
#
# Bulk Modulus (GPa) = 30.07586 43.00708 36.54147
# Shear Modulus (GPa) = 13.50492 24.78175 19.14333
#
# Velocity S-wave (km/s) = 2.64141 3.57812 3.14484
# Velocity P-wave (km/s) = 4.98405 6.26812 5.66260
#
# Compressibility (1/GPa) = 0.03324926
#
# Stress axis : x y z
#
# Youngs Moduli (GPa) = 58.41263 36.81651 29.42945
#
# Poissons Ratio (x) = 0.43892 -0.36808
# Poissons Ratio (y) = 0.69638 0.67956
# Poissons Ratio (z) = -0.73058 0.85014
#
# Static dielectric constant tensor:
#      x y z
#    x 1.680830 0.000000 0.000000 
#    y 0.000000 1.749520 0.000000 
#    z 0.000000 0.000000 1.576570 
# 
# From -- ./inp_files/32121.got.cif
#   From: 2010.05.17/outbox.cif.g08.bks.cpg/sg21_17_cif.got.tgz:32121.got - 2010.06.03 23:14:55.
