data_PCOD9325063
_publ_section_title
;
Structure prediction by ZEFSAII (Michael W. Deem and Ramdas Pophale) SiO2 
 PCOD9325063
Probable space group: C 2 2 2
;
_chemical_formula_sum "Si O2"
_cell_formula_units_Z 40
_cell_length_a 6.765857
_cell_length_b 12.447550
_cell_length_c 16.385371
_cell_angle_alpha 90.000000
_cell_angle_beta 90.000000
_cell_angle_gamma 90.000000
_cell_volume 1379.948800
_symmetry_space_group_name_H-M "C 2 2 2"
_symmetry_group_IT_number 21
_symmetry_cell_setting 'orthorhombic'
loop_
_space_group_symop_operation_xyz
x,y,z
-x,-y,z
x,-y,-z
-x,y,-z
1/2+x,1/2+y,z
1/2-x,1/2-y,z
1/2+x,1/2-y,-z
1/2-x,1/2+y,-z
loop_
_atom_site_type_symbol
_atom_site_label
_atom_site_fract_x
_atom_site_fract_y
_atom_site_fract_z
Si Si1 0.974965 0.619527 0.306967
Si Si2 0.500000 0.500000 0.217688
Si Si3 0.000000 0.000000 0.500000
Si Si4 0.110217 0.165126 0.088107
Si Si5 0.120339 0.665024 0.126775
Si Si6 0.032884 0.849507 0.650093
Si Si7 0.000000 0.500000 0.000000
O O1 0.038353 0.726802 0.356901
O O2 0.741416 0.642096 0.304313
O O3 0.000000 0.500000 0.342578
O O4 0.056798 0.626965 0.215845
O O5 0.629564 0.567814 0.153413
O O6 0.403676 0.581538 0.285770
O O7 0.074178 0.087842 0.433557
O O8 0.129402 0.304064 0.088687
O O9 0.875436 0.198491 0.129936
O O10 0.000000 0.142645 0.000000
O O11 0.132618 0.572511 0.058932
#
# Coordination Sequence:
#
# PCOD9325063 Si02
#       7
#     8   4   2   8   8   8   2
#     4  11  24  48  79 114 158 208 267 326 395 486
#     4  11  23  43  79 102 146 204 253 317 397 477
#     4  10  24  52  82 120 166 208 246 336 424 498
#     4  12  26  46  65 103 150 199 269 335 394 460
#     4  12  27  46  72 109 153 214 278 338 405 468
#     4  10  24  50  78 120 158 201 257 329 402 499
#     4  12  28  52  68 104 172 210 286 376 386 444
#
# _framework density 28.986581999999999
#
# number of rings (size 3 to 8) (size 9 to 14) (size 15 to 20)
#    0.000    0.800    4.000    2.100    2.800    1.600 
#    7.200    0.000    0.000    0.000    0.000    0.000 
#    0.000    0.000    0.000    0.000    0.000    0.000 
#
# Total GULP energy -111351.624279 kJ/mol
# GULP energy per Si atom -5567.581214 kJ/mol
# Density = 2.892061 g / cm^3
# Si number density = 28.986582 Si / 1000 Ang^3
#
#
#
# Elastic Constant Matrix: (Units=GPa)
#
#
# Indices 1 2 3 4 5 6 
#
# 1 185.0609 64.4065 55.3503 0.0000 0.0000 0.0000
# 2 64.4065 252.0366 62.5255 0.0000 0.0000 0.0000
# 3 55.3503 62.5255 170.7799 0.0000 0.0000 0.0000
# 4 0.0000 0.0000 0.0000 -33.2284 0.0000 0.0000
# 5 0.0000 0.0000 0.0000 0.0000 -36.9045 0.0000
# 6 0.0000 0.0000 0.0000 0.0000 0.0000 80.2287
#
#
#
# Elastic Compliance Matrix: (Units=1/GPa)
#
#
# Indices 1 2 3 4 5 6 
#
# 1 0.006304 -0.001214 -0.001599 0.000000 0.000000 0.000000
# 2 -0.001214 0.004598 -0.001290 0.000000 0.000000 0.000000
# 3 -0.001599 -0.001290 0.006846 0.000000 0.000000 0.000000
# 4 0.000000 0.000000 0.000000 -0.030095 0.000000 0.000000
# 5 0.000000 0.000000 0.000000 0.000000 -0.027097 0.000000
# 6 0.000000 0.000000 0.000000 0.000000 0.000000 0.012464
#
#
# Mechanical properties :
#
#
# Convention : Reuss Voigt Hill
#
# Bulk Modulus (GPa) = 104.79491 108.04909 106.42200
# Shear Modulus (GPa) = -320.66783 30.39218 -145.13782
#
# Velocity S-wave (km/s) = -10.52931 3.24155 -7.08374
# Velocity P-wave (km/s) = 10.56364 7.16706 5.48743
#
# Compressibility (1/GPa) = 0.00954245
#
# Stress axis : x y z
#
# Youngs Moduli (GPa) = 158.61840 217.48576 146.07422
#
# Poissons Ratio (x) = 0.26413 0.23352
# Poissons Ratio (y) = 0.19264 0.18841
# Poissons Ratio (z) = 0.25358 0.28051
#
# Static dielectric constant tensor:
#      x y z
#    x 4.067390 0.000000 0.000000 
#    y 0.000000 2.440770 0.000000 
#    z 0.000000 0.000000 2.065750 
# 
# From -- ./inp_files/30264.got.cif
#   From: 2010.05.17/outbox.cif.g08.bks.cpg/sg21_16_cif.got.tgz:30264.got - 2010.06.03 23:14:55.
