data_PCOD9325339
_publ_section_title
;
Structure prediction by ZEFSAII (Michael W. Deem and Ramdas Pophale) SiO2 
 PCOD9325339
Probable space group: C 2 2 2
;
_chemical_formula_sum "Si O2"
_cell_formula_units_Z 48
_cell_length_a 15.031031
_cell_length_b 11.451125
_cell_length_c 12.668508
_cell_angle_alpha 90.000000
_cell_angle_beta 90.000000
_cell_angle_gamma 90.000000
_cell_volume 2180.531656
_symmetry_space_group_name_H-M "C 2 2 2"
_symmetry_group_IT_number 21
_symmetry_cell_setting 'orthorhombic'
loop_
_space_group_symop_operation_xyz
x,y,z
-x,-y,z
x,-y,-z
-x,y,-z
1/2+x,1/2+y,z
1/2-x,1/2-y,z
1/2+x,1/2-y,-z
1/2-x,1/2+y,-z
loop_
_atom_site_type_symbol
_atom_site_label
_atom_site_fract_x
_atom_site_fract_y
_atom_site_fract_z
Si Si1 0.729817 0.872450 0.322372
Si Si2 0.098636 0.992730 0.731999
Si Si3 0.850647 0.768326 0.854872
Si Si4 0.094354 0.437287 0.735667
Si Si5 0.599856 0.618740 0.047135
Si Si6 0.400971 0.860320 0.486310
O O1 0.750000 0.750000 0.266709
O O2 0.820434 0.946545 0.340136
O O3 0.672751 0.832795 0.426111
O O4 0.666734 0.960321 0.257812
O O5 0.095519 0.898416 0.828528
O O6 0.116873 0.116418 0.790837
O O7 0.000000 0.000000 0.683344
O O8 0.750000 0.750000 0.820119
O O9 0.908026 0.654105 0.829311
O O10 0.851991 0.782857 0.981377
O O11 0.122101 0.354454 0.636399
O O12 0.000000 0.500000 0.716699
O O13 0.641706 0.500000 0.000000
O O14 0.500000 0.623474 0.000000
O O15 0.500000 0.807928 0.500000
O O16 0.408854 0.000000 0.500000
#
# Coordination Sequence:
#
# PCOD9325339 Si02
#       6
#     8   8   8   8   8   8
#     4  11  24  39  65 102 133 176 240 285 347 418
#     4  11  22  41  68  96 139 185 227 283 350 423
#     4  11  22  38  65 100 127 175 237 283 344 415
#     4  11  22  41  68  94 133 179 231 287 348 410
#     4   9  17  37  63  87 123 180 225 263 342 414
#     4   9  17  39  65  87 126 179 223 269 345 415
#
# _framework density 22.012981
#
# number of rings (size 3 to 8) (size 9 to 14) (size 15 to 20)
#    0.000    1.667    8.333    0.000    2.333    1.333 
#    3.000    0.000    0.000    0.000    0.000    0.000 
#    0.000    0.000    0.000    0.000    0.000    0.000 
#
# Total GULP energy -133644.399098 kJ/mol
# GULP energy per Si atom -5568.516629 kJ/mol
# Density = 2.196288 g / cm^3
# Si number density = 22.012981 Si / 1000 Ang^3
#
#
#
# Elastic Constant Matrix: (Units=GPa)
#
#
# Indices 1 2 3 4 5 6 
#
# 1 136.9582 39.9173 13.7424 0.0000 0.0000 0.0000
# 2 39.9173 85.6725 18.5267 0.0000 0.0000 0.0000
# 3 13.7424 18.5267 53.2031 0.0000 0.0000 0.0000
# 4 0.0000 0.0000 0.0000 11.4723 0.0000 0.0000
# 5 0.0000 0.0000 0.0000 0.0000 19.3486 0.0000
# 6 0.0000 0.0000 0.0000 0.0000 0.0000 21.0770
#
#
#
# Elastic Compliance Matrix: (Units=1/GPa)
#
#
# Indices 1 2 3 4 5 6 
#
# 1 0.008487 -0.003764 -0.000882 0.000000 0.000000 0.000000
# 2 -0.003764 0.014292 -0.004005 0.000000 0.000000 0.000000
# 3 -0.000882 -0.004005 0.020418 0.000000 0.000000 0.000000
# 4 0.000000 0.000000 0.000000 0.087167 0.000000 0.000000
# 5 0.000000 0.000000 0.000000 0.000000 0.051683 0.000000
# 6 0.000000 0.000000 0.000000 0.000000 0.000000 0.047445
#
#
# Mechanical properties :
#
#
# Convention : Reuss Voigt Hill
#
# Bulk Modulus (GPa) = 38.61420 46.68962 42.65191
# Shear Modulus (GPa) = 19.57527 23.95606 21.76567
#
# Velocity S-wave (km/s) = 2.98528 3.30247 3.14787
# Velocity P-wave (km/s) = 5.42791 5.98313 5.71227
#
# Compressibility (1/GPa) = 0.02589721
#
# Stress axis : x y z
#
# Youngs Moduli (GPa) = 117.82869 69.96939 48.97604
#
# Poissons Ratio (x) = 0.26334 0.04318
# Poissons Ratio (y) = 0.44347 0.19613
# Poissons Ratio (z) = 0.10387 0.28020
#
# Static dielectric constant tensor:
#      x y z
#    x 1.875720 0.000000 0.000000 
#    y 0.000000 1.849770 0.000000 
#    z 0.000000 0.000000 1.930360 
# 
# From -- ./inp_files/32262.got.cif
#   From: 2010.05.17/outbox.cif.g08.bks.cpg/sg21_17_cif.got.tgz:32262.got - 2010.06.03 23:14:55.
