data_PCOD9325016
_publ_section_title
;
Structure prediction by ZEFSAII (Michael W. Deem and Ramdas Pophale) SiO2 
 PCOD9325016
Probable space group: C 2 2 2
;
_chemical_formula_sum "Si O2"
_cell_formula_units_Z 30
_cell_length_a 18.939886
_cell_length_b 12.924736
_cell_length_c 5.262138
_cell_angle_alpha 90.000000
_cell_angle_beta 90.000000
_cell_angle_gamma 90.000000
_cell_volume 1288.134686
_symmetry_space_group_name_H-M "C 2 2 2"
_symmetry_group_IT_number 21
_symmetry_cell_setting 'orthorhombic'
loop_
_space_group_symop_operation_xyz
x,y,z
-x,-y,z
x,-y,-z
-x,y,-z
1/2+x,1/2+y,z
1/2-x,1/2-y,z
1/2+x,1/2-y,-z
1/2-x,1/2+y,-z
loop_
_atom_site_type_symbol
_atom_site_label
_atom_site_fract_x
_atom_site_fract_y
_atom_site_fract_z
Si Si1 0.000000 0.500000 0.000000
Si Si2 0.742768 0.571337 0.751528
Si Si3 0.108265 0.610002 0.365236
Si Si4 0.585527 0.428698 0.245688
Si Si5 0.500000 0.735975 0.500000
O O1 0.948426 0.422726 0.152636
O O2 0.738016 0.500000 0.500000
O O3 0.813395 0.639353 0.724847
O O4 0.664554 0.618361 0.772813
O O5 0.753386 0.500000 0.000000
O O6 0.117758 0.500000 0.500000
O O7 0.068119 0.691625 0.543594
O O8 0.582221 0.500000 0.500000
O O9 0.472087 0.660347 0.280498
O O10 0.577089 0.500000 0.000000
#
# Coordination Sequence:
#
# PCOD9325016 Si02
#       5
#     2   8   8   8   4
#     4  12  18  36  64  94 146 176 216 288 366 448
#     4   9  19  39  66  88 131 183 225 284 353 420
#     4  11  22  39  61 103 140 175 225 290 371 451
#     4  10  24  46  65  93 132 183 241 296 345 411
#     4  12  24  40  68 100 138 180 236 298 368 432
#
# _framework density 23.289487000000001
#
# number of rings (size 3 to 8) (size 9 to 14) (size 15 to 20)
#    0.000    1.600    4.000    0.400    0.000    5.333 
#    0.000    0.000    0.000    9.600    0.000    0.000 
#    0.000    0.000    0.000    0.000    0.000    0.000 
#
# Total GULP energy -83712.613371 kJ/mol
# GULP energy per Si atom -5580.840891 kJ/mol
# Density = 2.323648 g / cm^3
# Si number density = 23.289487 Si / 1000 Ang^3
#
#
#
# Elastic Constant Matrix: (Units=GPa)
#
#
# Indices 1 2 3 4 5 6 
#
# 1 246.0559 64.6010 38.9839 0.0000 0.0000 0.0000
# 2 64.6010 112.4887 38.4518 0.0000 0.0000 0.0000
# 3 38.9839 38.4518 122.4299 0.0000 0.0000 0.0000
# 4 0.0000 0.0000 0.0000 26.3620 0.0000 0.0000
# 5 0.0000 0.0000 0.0000 0.0000 7.5801 0.0000
# 6 0.0000 0.0000 0.0000 0.0000 0.0000 -16.7669
#
#
#
# Elastic Compliance Matrix: (Units=1/GPa)
#
#
# Indices 1 2 3 4 5 6 
#
# 1 0.004846 -0.002527 -0.000750 0.000000 0.000000 0.000000
# 2 -0.002527 0.011277 -0.002737 0.000000 0.000000 0.000000
# 3 -0.000750 -0.002737 0.009266 0.000000 0.000000 0.000000
# 4 0.000000 0.000000 0.000000 0.037933 0.000000 0.000000
# 5 0.000000 0.000000 0.000000 0.000000 0.131925 0.000000
# 6 0.000000 0.000000 0.000000 0.000000 0.000000 -0.059641
#
#
# Mechanical properties :
#
#
# Convention : Reuss Voigt Hill
#
# Bulk Modulus (GPa) = 74.83849 85.00533 79.92191
# Shear Modulus (GPa) = 32.87586 26.03089 29.45338
#
# Velocity S-wave (km/s) = 3.76123 3.34684 3.56007
# Velocity P-wave (km/s) = 7.14606 7.17731 7.16171
#
# Compressibility (1/GPa) = 0.01336211
#
# Stress axis : x y z
#
# Youngs Moduli (GPa) = 206.34233 88.67930 107.91891
#
# Poissons Ratio (x) = 0.22409 0.08089
# Poissons Ratio (y) = 0.52142 0.29538
# Poissons Ratio (z) = 0.15465 0.24272
#
# Static dielectric constant tensor:
#      x y z
#    x 1.979300 0.000000 0.000000 
#    y 0.000000 1.911520 0.000000 
#    z 0.000000 0.000000 1.886480 
# 
# From -- ./inp_files/2424.got.cif
#   From: 2010.05.17/outbox.cif.g08.bks.cpg/sg21_2_cif.got.tgz:2424.got - 2010.06.03 23:14:55.
