data_PCOD9325504
_publ_section_title
;
Structure prediction by ZEFSAII (Michael W. Deem and Ramdas Pophale) SiO2 
 PCOD9325504
Probable space group: C 2 2 2
;
_chemical_formula_sum "Si O2"
_cell_formula_units_Z 24
_cell_length_a 18.208405
_cell_length_b 11.757357
_cell_length_c 4.997746
_cell_angle_alpha 90.000000
_cell_angle_beta 90.000000
_cell_angle_gamma 90.000000
_cell_volume 1069.931047
_symmetry_space_group_name_H-M "C 2 2 2"
_symmetry_group_IT_number 21
_symmetry_cell_setting 'orthorhombic'
loop_
_space_group_symop_operation_xyz
x,y,z
-x,-y,z
x,-y,-z
-x,y,-z
1/2+x,1/2+y,z
1/2-x,1/2-y,z
1/2+x,1/2-y,-z
1/2-x,1/2+y,-z
loop_
_atom_site_type_symbol
_atom_site_label
_atom_site_fract_x
_atom_site_fract_y
_atom_site_fract_z
Si Si1 0.858361 0.325388 0.268755
Si Si2 0.799843 0.923779 0.736190
Si Si3 0.949972 0.616251 0.209042
O O1 0.844390 0.192469 0.222568
O O2 0.781569 0.382486 0.352015
O O3 0.918099 0.344129 0.506865
O O4 0.879571 0.383224 0.986695
O O5 0.832070 0.000000 0.500000
O O6 0.796158 0.000000 0.000000
O O7 0.000000 0.500000 0.237885
O O8 0.000000 0.690058 0.000000
#
# Coordination Sequence:
#
# PCOD9325504 Si02
#       3
#     8   8   8
#     4  11  24  43  63 103 147 175 240 288 351 425
#     4  11  24  41  70  97 137 197 226 297 348 419
#     4  11  24  39  65  99 142 184 216 293 361 407
#
# _framework density 22.431349999999998
#
# number of rings (size 3 to 8) (size 9 to 14) (size 15 to 20)
#    0.000    1.000    0.000    6.000   14.000    5.333 
#    0.000    0.000    0.000   15.000    0.000    0.000 
#    0.000    0.000    0.000    0.000    0.000    0.000 
#
# Total GULP energy -66812.907700 kJ/mol
# GULP energy per Si atom -5567.742308 kJ/mol
# Density = 2.238029 g / cm^3
# Si number density = 22.431350 Si / 1000 Ang^3
#
#
#
# Elastic Constant Matrix: (Units=GPa)
#
#
# Indices 1 2 3 4 5 6 
#
# 1 74.4045 49.5962 31.9730 0.0000 0.0000 0.0000
# 2 49.5962 188.8253 67.7119 0.0000 0.0000 0.0000
# 3 31.9730 67.7119 192.5199 0.0000 0.0000 0.0000
# 4 0.0000 0.0000 0.0000 34.1531 0.0000 0.0000
# 5 0.0000 0.0000 0.0000 0.0000 -1.9854 0.0000
# 6 0.0000 0.0000 0.0000 0.0000 0.0000 16.2736
#
#
#
# Elastic Compliance Matrix: (Units=1/GPa)
#
#
# Indices 1 2 3 4 5 6 
#
# 1 0.016616 -0.003862 -0.001401 0.000000 0.000000 0.000000
# 2 -0.003862 0.006958 -0.001806 0.000000 0.000000 0.000000
# 3 -0.001401 -0.001806 0.006062 0.000000 0.000000 0.000000
# 4 0.000000 0.000000 0.000000 0.029280 0.000000 0.000000
# 5 0.000000 0.000000 0.000000 0.000000 -0.503683 0.000000
# 6 0.000000 0.000000 0.000000 0.000000 0.000000 0.061449
#
#
# Mechanical properties :
#
#
# Convention : Reuss Voigt Hill
#
# Bulk Modulus (GPa) = 64.52297 83.81244 74.16771
# Shear Modulus (GPa) = -13.73578 30.11950 8.19186
#
# Velocity S-wave (km/s) = -2.47725 3.66832 1.91309
# Velocity P-wave (km/s) = 4.54365 7.44226 6.16571
#
# Compressibility (1/GPa) = 0.01549836
#
# Stress axis : x y z
#
# Youngs Moduli (GPa) = 60.18129 143.72357 164.95904
#
# Poissons Ratio (x) = 0.55505 0.23116
# Poissons Ratio (y) = 0.23241 0.29788
# Poissons Ratio (z) = 0.08433 0.25953
#
# Static dielectric constant tensor:
#      x y z
#    x 2.009990 0.000000 0.000000 
#    y 0.000000 1.891760 0.000000 
#    z 0.000000 0.000000 1.995550 
# 
# From -- ./inp_files/5455.got.cif
#   From: 2010.05.17/outbox.cif.g08.bks.cpg/sg21_3_cif.got.tgz:5455.got - 2010.06.03 23:14:55.
