data_PCOD9325243
_publ_section_title
;
Structure prediction by ZEFSAII (Michael W. Deem and Ramdas Pophale) SiO2 
 PCOD9325243
Probable space group: C 2 2 2
;
_chemical_formula_sum "Si O2"
_cell_formula_units_Z 32
_cell_length_a 10.458041
_cell_length_b 11.390363
_cell_length_c 10.932881
_cell_angle_alpha 90.000000
_cell_angle_beta 90.000000
_cell_angle_gamma 90.000000
_cell_volume 1302.334441
_symmetry_space_group_name_H-M "C 2 2 2"
_symmetry_group_IT_number 21
_symmetry_cell_setting 'orthorhombic'
loop_
_space_group_symop_operation_xyz
x,y,z
-x,-y,z
x,-y,-z
-x,y,-z
1/2+x,1/2+y,z
1/2-x,1/2-y,z
1/2+x,1/2-y,-z
1/2-x,1/2+y,-z
loop_
_atom_site_type_symbol
_atom_site_label
_atom_site_fract_x
_atom_site_fract_y
_atom_site_fract_z
Si Si1 0.537180 0.865367 0.244536
Si Si2 0.449712 0.343688 0.636619
Si Si3 0.708066 0.547751 0.272010
Si Si4 0.688100 0.500000 0.000000
Si Si5 0.000000 0.216827 0.000000
O O1 0.438341 0.790760 0.326126
O O2 0.674891 0.871668 0.313369
O O3 0.500000 0.000000 0.234334
O O4 0.533839 0.800646 0.113244
O O5 0.500000 0.358319 0.500000
O O6 0.570820 0.387319 0.720134
O O7 0.329214 0.426703 0.661724
O O8 0.747949 0.523419 0.131404
O O9 0.611888 0.621995 0.974612
#
# Coordination Sequence:
#
# PCOD9325243 Si02
#       5
#     8   8   8   4   4
#     4  12  27  45  66 108 154 183 234 298 364 438
#     4  11  24  50  75  98 136 188 251 299 349 423
#     4  11  23  46  75 105 132 189 241 297 362 423
#     4  11  20  40  79  98 136 188 241 291 364 442
#     4  11  21  44  68 104 145 183 234 294 368 435
#
# _framework density 24.571262999999998
#
# number of rings (size 3 to 8) (size 9 to 14) (size 15 to 20)
#    0.000    0.750    5.000    4.125    3.500    1.500 
#   13.500    0.000    0.000    0.000    0.000    0.000 
#    0.000    0.000    0.000    0.000    0.000    0.000 
#
# Total GULP energy -89343.905530 kJ/mol
# GULP energy per Si atom -5583.994096 kJ/mol
# Density = 2.451534 g / cm^3
# Si number density = 24.571263 Si / 1000 Ang^3
#
#
#
# Elastic Constant Matrix: (Units=GPa)
#
#
# Indices 1 2 3 4 5 6 
#
# 1 82.5679 49.1690 13.9444 0.0000 0.0000 0.0000
# 2 49.1690 213.8232 41.4879 0.0000 0.0000 0.0000
# 3 13.9444 41.4879 114.3074 0.0000 0.0000 0.0000
# 4 0.0000 0.0000 0.0000 15.5369 0.0000 0.0000
# 5 0.0000 0.0000 0.0000 0.0000 2.5661 0.0000
# 6 0.0000 0.0000 0.0000 0.0000 0.0000 15.6888
#
#
#
# Elastic Compliance Matrix: (Units=1/GPa)
#
#
# Indices 1 2 3 4 5 6 
#
# 1 0.014069 -0.003122 -0.000583 0.000000 0.000000 0.000000
# 2 -0.003122 0.005724 -0.001697 0.000000 0.000000 0.000000
# 3 -0.000583 -0.001697 0.009435 0.000000 0.000000 0.000000
# 4 0.000000 0.000000 0.000000 0.064363 0.000000 0.000000
# 5 0.000000 0.000000 0.000000 0.000000 0.389704 0.000000
# 6 0.000000 0.000000 0.000000 0.000000 0.000000 0.063740
#
#
# Mechanical properties :
#
#
# Convention : Reuss Voigt Hill
#
# Bulk Modulus (GPa) = 54.27566 68.87791 61.57679
# Shear Modulus (GPa) = 8.86557 27.16484 18.01521
#
# Velocity S-wave (km/s) = 1.90156 3.32859 2.71067
# Velocity P-wave (km/s) = 5.19214 6.54717 5.90863
#
# Compressibility (1/GPa) = 0.01842446
#
# Stress axis : x y z
#
# Youngs Moduli (GPa) = 71.07890 174.70705 105.98539
#
# Poissons Ratio (x) = 0.54544 0.06180
# Poissons Ratio (y) = 0.22191 0.17982
# Poissons Ratio (z) = 0.04145 0.29641
#
# Static dielectric constant tensor:
#      x y z
#    x 2.049420 0.000000 0.000000 
#    y 0.000000 2.010290 0.000000 
#    z 0.000000 0.000000 1.984690 
# 
# From -- ./inp_files/23467.got.cif
#   From: 2010.05.17/outbox.cif.g08.bks.cpg/sg21_12_cif.got.tgz:23467.got - 2010.06.03 23:14:55.
