data_PCOD9325067
_publ_section_title
;
Structure prediction by ZEFSAII (Michael W. Deem and Ramdas Pophale) SiO2 
 PCOD9325067
Probable space group: C 2 2 2
;
_chemical_formula_sum "Si O2"
_cell_formula_units_Z 40
_cell_length_a 9.392900
_cell_length_b 14.114198
_cell_length_c 12.200968
_cell_angle_alpha 90.000000
_cell_angle_beta 90.000000
_cell_angle_gamma 90.000000
_cell_volume 1617.521986
_symmetry_space_group_name_H-M "C 2 2 2"
_symmetry_group_IT_number 21
_symmetry_cell_setting 'orthorhombic'
loop_
_space_group_symop_operation_xyz
x,y,z
-x,-y,z
x,-y,-z
-x,y,-z
1/2+x,1/2+y,z
1/2-x,1/2-y,z
1/2+x,1/2-y,-z
1/2-x,1/2+y,-z
loop_
_atom_site_type_symbol
_atom_site_label
_atom_site_fract_x
_atom_site_fract_y
_atom_site_fract_z
Si Si1 0.993887 0.248369 0.738018
Si Si2 0.649086 0.330704 0.939445
Si Si3 0.860011 0.056517 0.274483
Si Si4 0.000000 0.339009 0.500000
Si Si5 0.742653 0.000000 0.500000
Si Si6 0.873377 0.558469 0.151077
O O1 0.121328 0.169137 0.748274
O O2 0.995846 0.274482 0.609551
O O3 0.877340 0.189079 0.809255
O O4 0.954365 0.349747 0.795034
O O5 0.750000 0.250000 0.988914
O O6 0.756599 0.415241 0.937796
O O7 0.500000 0.337923 0.000000
O O8 0.843738 0.032062 0.401665
O O9 0.715189 0.009261 0.231875
O O10 0.000000 0.000000 0.231316
O O11 0.136002 0.409493 0.487722
O O12 0.000000 0.500000 0.106840
#
# Coordination Sequence:
#
# PCOD9325067 Si02
#       6
#     8   8   8   4   4   8
#     4  11  25  47  80 111 158 214 258 333 405 474
#     4  10  24  53  85 114 158 208 270 342 402 485
#     4  12  25  44  71 114 155 213 269 327 402 472
#     4  11  24  46  71 116 158 208 265 324 409 480
#     4  11  25  42  68 108 164 212 260 334 388 488
#     4  11  24  49  81 114 156 210 266 329 404 488
#
# _framework density 24.729185000000001
#
# number of rings (size 3 to 8) (size 9 to 14) (size 15 to 20)
#    0.000    1.000    4.000    1.500    2.800    3.200 
#   10.800    2.000   17.600    0.000    0.000    0.000 
#    0.000    0.000    0.000    0.000    0.000    0.000 
#
# Total GULP energy -111382.926921 kJ/mol
# GULP energy per Si atom -5569.146346 kJ/mol
# Density = 2.467290 g / cm^3
# Si number density = 24.729185 Si / 1000 Ang^3
#
#
#
# Elastic Constant Matrix: (Units=GPa)
#
#
# Indices 1 2 3 4 5 6 
#
# 1 139.5461 95.5261 36.3610 0.0000 0.0000 0.0000
# 2 95.5261 186.6094 77.7504 0.0000 0.0000 0.0000
# 3 36.3610 77.7504 73.9598 0.0000 0.0000 0.0000
# 4 0.0000 0.0000 0.0000 14.8968 0.0000 0.0000
# 5 0.0000 0.0000 0.0000 0.0000 54.0497 0.0000
# 6 0.0000 0.0000 0.0000 0.0000 0.0000 39.1007
#
#
#
# Elastic Compliance Matrix: (Units=1/GPa)
#
#
# Indices 1 2 3 4 5 6 
#
# 1 0.011067 -0.006047 0.000916 0.000000 0.000000 0.000000
# 2 -0.006047 0.012839 -0.010524 0.000000 0.000000 0.000000
# 3 0.000916 -0.010524 0.024134 0.000000 0.000000 0.000000
# 4 0.000000 0.000000 0.000000 0.067128 0.000000 0.000000
# 5 0.000000 0.000000 0.000000 0.000000 0.018502 0.000000
# 6 0.000000 0.000000 0.000000 0.000000 0.000000 0.025575
#
#
# Mechanical properties :
#
#
# Convention : Reuss Voigt Hill
#
# Bulk Modulus (GPa) = 59.77379 91.04334 75.40857
# Shear Modulus (GPa) = 25.49304 34.30795 29.90049
#
# Velocity S-wave (km/s) = 3.21423 3.72875 3.48101
# Velocity P-wave (km/s) = 6.16432 7.44541 6.83495
#
# Compressibility (1/GPa) = 0.01672974
#
# Stress axis : x y z
#
# Youngs Moduli (GPa) = 90.36120 77.88740 41.43472
#
# Poissons Ratio (x) = 0.47096 -0.03795
# Poissons Ratio (y) = 0.54638 0.43607
# Poissons Ratio (z) = -0.08276 0.81971
#
# Static dielectric constant tensor:
#      x y z
#    x 2.399470 0.000000 0.000000 
#    y 0.000000 1.893390 0.000000 
#    z 0.000000 0.000000 2.026190 
# 
# From -- ./inp_files/30232.got.cif
#   From: 2010.05.17/outbox.cif.g08.bks.cpg/sg21_16_cif.got.tgz:30232.got - 2010.06.03 23:14:55.
