data_PCOD9325439
_publ_section_title
;
Structure prediction by ZEFSAII (Michael W. Deem and Ramdas Pophale) SiO2 
 PCOD9325439
Probable space group: C 2 2 2
;
_chemical_formula_sum "Si O2"
_cell_formula_units_Z 28
_cell_length_a 24.210704
_cell_length_b 9.208936
_cell_length_c 5.056047
_cell_angle_alpha 90.000000
_cell_angle_beta 90.000000
_cell_angle_gamma 90.000000
_cell_volume 1127.270067
_symmetry_space_group_name_H-M "C 2 2 2"
_symmetry_group_IT_number 21
_symmetry_cell_setting 'orthorhombic'
loop_
_space_group_symop_operation_xyz
x,y,z
-x,-y,z
x,-y,-z
-x,y,-z
1/2+x,1/2+y,z
1/2-x,1/2-y,z
1/2+x,1/2-y,-z
1/2-x,1/2+y,-z
loop_
_atom_site_type_symbol
_atom_site_label
_atom_site_fract_x
_atom_site_fract_y
_atom_site_fract_z
Si Si1 0.704004 0.155993 0.071468
Si Si2 0.845778 0.902663 0.259736
Si Si3 0.537711 0.260648 0.753094
Si Si4 0.899212 0.500000 0.000000
O O1 0.750000 0.250000 0.221280
O O2 0.812338 0.242539 0.821420
O O3 0.643436 0.102689 0.169951
O O4 0.729350 0.000000 0.000000
O O5 0.908985 0.857265 0.309898
O O6 0.824509 0.000000 0.500000
O O7 0.847551 0.000000 0.000000
O O8 0.500000 0.250290 0.500000
O O9 0.500000 0.310920 0.000000
O O10 0.563200 0.105121 0.831782
#
# Coordination Sequence:
#
# PCOD9325439 Si02
#       4
#     8   8   8   4
#     4   9  19  42  75 106 145 194 245 306 375 439
#     4  11  24  44  69 105 149 189 245 304 363 443
#     4  11  23  41  68 102 145 195 243 298 363 432
#     4   8  21  38  64 110 140 192 243 304 360 458
#
# _framework density 24.83877
#
# number of rings (size 3 to 8) (size 9 to 14) (size 15 to 20)
#    0.857    1.143    0.000    3.000    0.000    5.714 
#    0.000    8.571    6.286    0.000    0.000    0.000 
#    0.000    0.000    0.000    0.000    0.000    0.000 
#
# Total GULP energy -78246.228399 kJ/mol
# GULP energy per Si atom -5589.016314 kJ/mol
# Density = 2.478224 g / cm^3
# Si number density = 24.838770 Si / 1000 Ang^3
#
#
#
# Elastic Constant Matrix: (Units=GPa)
#
#
# Indices 1 2 3 4 5 6 
#
# 1 147.1160 49.3731 26.4897 0.0000 0.0000 0.0000
# 2 49.3731 169.9765 50.0861 0.0000 0.0000 0.0000
# 3 26.4897 50.0861 97.3733 0.0000 0.0000 0.0000
# 4 0.0000 0.0000 0.0000 11.2248 0.0000 0.0000
# 5 0.0000 0.0000 0.0000 0.0000 17.7999 0.0000
# 6 0.0000 0.0000 0.0000 0.0000 0.0000 192.6813
#
#
#
# Elastic Compliance Matrix: (Units=1/GPa)
#
#
# Indices 1 2 3 4 5 6 
#
# 1 0.007631 -0.001892 -0.001103 0.000000 0.000000 0.000000
# 2 -0.001892 0.007403 -0.003293 0.000000 0.000000 0.000000
# 3 -0.001103 -0.003293 0.012264 0.000000 0.000000 0.000000
# 4 0.000000 0.000000 0.000000 0.089088 0.000000 0.000000
# 5 0.000000 0.000000 0.000000 0.000000 0.056180 0.000000
# 6 0.000000 0.000000 0.000000 0.000000 0.000000 0.005190
#
#
# Mechanical properties :
#
#
# Convention : Reuss Voigt Hill
#
# Bulk Modulus (GPa) = 67.92559 74.04038 70.98298
# Shear Modulus (GPa) = 25.60969 63.57567 44.59268
#
# Velocity S-wave (km/s) = 3.21446 5.06467 4.24168
# Velocity P-wave (km/s) = 6.41740 8.00464 7.25456
#
# Compressibility (1/GPa) = 0.01472199
#
# Stress axis : x y z
#
# Youngs Moduli (GPa) = 131.04858 135.08000 81.54077
#
# Poissons Ratio (x) = 0.25550 0.08994
# Poissons Ratio (y) = 0.24788 0.26854
# Poissons Ratio (z) = 0.14454 0.44486
#
# Static dielectric constant tensor:
#      x y z
#    x 2.050460 0.000000 0.000000 
#    y 0.000000 1.683040 0.000000 
#    z 0.000000 0.000000 1.928480 
# 
# From -- ./inp_files/5511.got.cif
#   From: 2010.05.17/outbox.cif.g08.bks.cpg/sg21_3_cif.got.tgz:5511.got - 2010.06.03 23:14:55.
