data_PCOD9325299
_publ_section_title
;
Structure prediction by ZEFSAII (Michael W. Deem and Ramdas Pophale) SiO2 
 PCOD9325299
Probable space group: C 2 2 2
;
_chemical_formula_sum "Si O2"
_cell_formula_units_Z 34
_cell_length_a 4.828576
_cell_length_b 24.292564
_cell_length_c 11.863056
_cell_angle_alpha 90.000000
_cell_angle_beta 90.000000
_cell_angle_gamma 90.000000
_cell_volume 1391.518573
_symmetry_space_group_name_H-M "C 2 2 2"
_symmetry_group_IT_number 21
_symmetry_cell_setting 'orthorhombic'
loop_
_space_group_symop_operation_xyz
x,y,z
-x,-y,z
x,-y,-z
-x,y,-z
1/2+x,1/2+y,z
1/2-x,1/2-y,z
1/2+x,1/2-y,-z
1/2-x,1/2+y,-z
loop_
_atom_site_type_symbol
_atom_site_label
_atom_site_fract_x
_atom_site_fract_y
_atom_site_fract_z
Si Si1 0.233385 0.095227 0.077041
Si Si2 0.019698 0.213012 0.154119
Si Si3 0.519982 0.086767 0.679034
Si Si4 0.500000 0.000000 0.500000
Si Si5 0.013415 0.840129 0.375706
O O1 0.371506 0.071920 0.194211
O O2 0.066767 0.150632 0.111916
O O3 0.500000 0.106910 0.000000
O O4 0.000000 0.064490 0.000000
O O5 0.750000 0.250000 0.146230
O O6 0.080004 0.203670 0.285240
O O7 0.250000 0.250000 0.096694
O O8 0.303049 0.136887 0.673898
O O9 0.799425 0.108910 0.621975
O O10 0.381595 0.041806 0.595701
O O11 0.000000 0.816787 0.500000
#
# Coordination Sequence:
#
# PCOD9325299 Si02
#       5
#     8   8   8   2   8
#     4  11  23  44  67  91 137 186 221 274 341 399
#     4  11  23  38  61  96 127 173 236 275 315 383
#     4  11  24  41  69 103 130 169 221 273 346 406
#     4  12  24  46  78 110 128 162 224 292 332 426
#     4  11  21  41  61  92 141 176 211 271 345 404
#
# _framework density 24.433734999999999
#
# number of rings (size 3 to 8) (size 9 to 14) (size 15 to 20)
#    0.000    0.941    2.353    7.059    0.000    4.706 
#    0.000    2.941    0.000    4.235    0.000    0.000 
#    0.000    0.000    0.000    0.000    0.000    0.000 
#
# Total GULP energy -94663.622110 kJ/mol
# GULP energy per Si atom -5568.448359 kJ/mol
# Density = 2.437812 g / cm^3
# Si number density = 24.433735 Si / 1000 Ang^3
#
#
#
# Elastic Constant Matrix: (Units=GPa)
#
#
# Indices 1 2 3 4 5 6 
#
# 1 105.2101 19.7148 2.8094 0.0000 0.0000 0.0000
# 2 19.7148 74.5550 35.3322 0.0000 0.0000 0.0000
# 3 2.8094 35.3322 215.5901 0.0000 0.0000 0.0000
# 4 0.0000 0.0000 0.0000 -84.8270 0.0000 0.0000
# 5 0.0000 0.0000 0.0000 0.0000 29.0979 0.0000
# 6 0.0000 0.0000 0.0000 0.0000 0.0000 -21.6451
#
#
#
# Elastic Compliance Matrix: (Units=1/GPa)
#
#
# Indices 1 2 3 4 5 6 
#
# 1 0.010022 -0.002806 0.000329 0.000000 0.000000 0.000000
# 2 -0.002806 0.015328 -0.002475 0.000000 0.000000 0.000000
# 3 0.000329 -0.002475 0.005040 0.000000 0.000000 0.000000
# 4 0.000000 0.000000 0.000000 -0.011789 0.000000 0.000000
# 5 0.000000 0.000000 0.000000 0.000000 0.034367 0.000000
# 6 0.000000 0.000000 0.000000 0.000000 0.000000 -0.046200
#
#
# Mechanical properties :
#
#
# Convention : Reuss Voigt Hill
#
# Bulk Modulus (GPa) = 48.81606 56.78534 52.80070
# Shear Modulus (GPa) = 212.75619 7.02507 109.89063
#
# Velocity S-wave (km/s) = 9.34151 1.69747 6.71361
# Velocity P-wave (km/s) = 11.67793 5.20892 9.04176
#
# Compressibility (1/GPa) = 0.02048506
#
# Stress axis : x y z
#
# Youngs Moduli (GPa) = 99.78219 65.23965 198.41895
#
# Poissons Ratio (x) = 0.18307 -0.06534
# Poissons Ratio (y) = 0.28000 0.49119
# Poissons Ratio (z) = -0.03286 0.16150
#
# Static dielectric constant tensor:
#      x y z
#    x 1.933520 0.000000 0.000000 
#    y 0.000000 1.866610 0.000000 
#    z 0.000000 0.000000 2.041300 
# 
# From -- ./inp_files/20947.got.cif
#   From: 2010.05.17/outbox.cif.g08.bks.cpg/sg21_11_cif.got.tgz:20947.got - 2010.06.03 23:14:55.
