data_PCOD9325027
_publ_section_title
;
Structure prediction by ZEFSAII (Michael W. Deem and Ramdas Pophale) SiO2 
 PCOD9325027
Probable space group: C 2 2 2
;
_chemical_formula_sum "Si O2"
_cell_formula_units_Z 18
_cell_length_a 9.521483
_cell_length_b 13.765223
_cell_length_c 5.258962
_cell_angle_alpha 90.000000
_cell_angle_beta 90.000000
_cell_angle_gamma 90.000000
_cell_volume 689.267626
_symmetry_space_group_name_H-M "C 2 2 2"
_symmetry_group_IT_number 21
_symmetry_cell_setting 'orthorhombic'
loop_
_space_group_symop_operation_xyz
x,y,z
-x,-y,z
x,-y,-z
-x,y,-z
1/2+x,1/2+y,z
1/2-x,1/2-y,z
1/2+x,1/2-y,-z
1/2-x,1/2+y,-z
loop_
_atom_site_type_symbol
_atom_site_label
_atom_site_fract_x
_atom_site_fract_y
_atom_site_fract_z
Si Si1 0.250000 0.250000 0.616059
Si Si2 0.000000 0.000000 0.000000
Si Si3 0.158888 0.454516 0.756046
Si Si4 0.500000 0.632414 0.500000
O O1 0.170590 0.338711 0.759605
O O2 0.366219 0.300988 0.447206
O O3 0.032725 0.920155 0.232430
O O4 0.221040 0.500000 0.500000
O O5 0.000000 0.500000 0.757914
O O6 0.234649 0.500000 0.000000
#
# Coordination Sequence:
#
# PCOD9325027 Si02
#       4
#     4   2   8   4
#     4  12  28  50  86 120 160 224 278 346 420 514
#     4  10  28  54  72 116 170 222 252 352 412 514
#     4  10  24  46  75 113 156 205 267 340 403 485
#     4  11  28  50  83 116 164 212 283 332 431 486
#
# _framework density 26.114677
#
# number of rings (size 3 to 8) (size 9 to 14) (size 15 to 20)
#    0.000    1.333    0.000    2.667    9.333   10.667 
#    0.000    0.000    0.000    0.000    0.000    0.000 
#    0.000    0.000    0.000    0.000    0.000    0.000 
#
# Total GULP energy -50152.600898 kJ/mol
# GULP energy per Si atom -5572.511211 kJ/mol
# Density = 2.605524 g / cm^3
# Si number density = 26.114677 Si / 1000 Ang^3
#
#
#
# Elastic Constant Matrix: (Units=GPa)
#
#
# Indices 1 2 3 4 5 6 
#
# 1 132.8142 75.8010 45.6424 0.0000 0.0000 0.0000
# 2 75.8010 218.1265 65.4695 0.0000 0.0000 0.0000
# 3 45.6424 65.4695 258.5879 0.0000 0.0000 0.0000
# 4 0.0000 0.0000 0.0000 16.2994 0.0000 0.0000
# 5 0.0000 0.0000 0.0000 0.0000 44.5492 0.0000
# 6 0.0000 0.0000 0.0000 0.0000 0.0000 49.3235
#
#
#
# Elastic Compliance Matrix: (Units=1/GPa)
#
#
# Indices 1 2 3 4 5 6 
#
# 1 0.009590 -0.003057 -0.000919 0.000000 0.000000 0.000000
# 2 -0.003057 0.005936 -0.000963 0.000000 0.000000 0.000000
# 3 -0.000919 -0.000963 0.004273 0.000000 0.000000 0.000000
# 4 0.000000 0.000000 0.000000 0.061352 0.000000 0.000000
# 5 0.000000 0.000000 0.000000 0.000000 0.022447 0.000000
# 6 0.000000 0.000000 0.000000 0.000000 0.000000 0.020274
#
#
# Mechanical properties :
#
#
# Convention : Reuss Voigt Hill
#
# Bulk Modulus (GPa) = 100.79472 109.26161 105.02817
# Shear Modulus (GPa) = 36.48126 50.20878 43.34502
#
# Velocity S-wave (km/s) = 3.74165 4.38953 4.07848
# Velocity P-wave (km/s) = 7.57280 8.22318 7.90468
#
# Compressibility (1/GPa) = 0.00992115
#
# Stress axis : x y z
#
# Youngs Moduli (GPa) = 104.27953 168.46724 234.01608
#
# Poissons Ratio (x) = 0.51496 0.21500
# Poissons Ratio (y) = 0.31875 0.22543
# Poissons Ratio (z) = 0.09580 0.16229
#
# Static dielectric constant tensor:
#      x y z
#    x 1.918600 0.000000 0.000000 
#    y 0.000000 2.090000 0.000000 
#    z 0.000000 0.000000 2.058930 
# 
# From -- ./inp_files/1740.got.cif
#   From: 2010.05.17/outbox.cif.g08.bks.cpg/sg21_1_cif.got.tgz:1740.got - 2010.06.03 23:14:55.
