data_PCOD9325539
_publ_section_title
;
Structure prediction by ZEFSAII (Michael W. Deem and Ramdas Pophale) SiO2 
 PCOD9325539
Probable space group: C 2 2 2
;
_chemical_formula_sum "Si O2"
_cell_formula_units_Z 24
_cell_length_a 10.718741
_cell_length_b 15.842846
_cell_length_c 7.134616
_cell_angle_alpha 90.000000
_cell_angle_beta 90.000000
_cell_angle_gamma 90.000000
_cell_volume 1211.567406
_symmetry_space_group_name_H-M "C 2 2 2"
_symmetry_group_IT_number 21
_symmetry_cell_setting 'orthorhombic'
loop_
_space_group_symop_operation_xyz
x,y,z
-x,-y,z
x,-y,-z
-x,y,-z
1/2+x,1/2+y,z
1/2-x,1/2-y,z
1/2+x,1/2-y,-z
1/2-x,1/2+y,-z
loop_
_atom_site_type_symbol
_atom_site_label
_atom_site_fract_x
_atom_site_fract_y
_atom_site_fract_z
Si Si1 0.000000 0.352635 0.500000
Si Si2 0.379763 0.545996 0.199461
Si Si3 0.179474 0.500000 0.500000
Si Si4 0.898251 0.756572 0.844535
O O1 0.899380 0.420387 0.576678
O O2 0.934294 0.295019 0.342955
O O3 0.500000 0.500000 0.282498
O O4 0.262864 0.534845 0.332606
O O5 0.414293 0.643469 0.180970
O O6 0.356807 0.500000 0.000000
O O7 0.750000 0.750000 0.892553
O O8 0.000000 0.728786 0.000000
#
# Coordination Sequence:
#
# PCOD9325539 Si02
#       4
#     4   8   4   8
#     4  11  28  44  71 100 138 186 227 290 350 415
#     4  11  24  44  68 100 136 182 232 284 345 412
#     4  11  25  46  66 100 139 181 230 280 356 411
#     4  12  27  47  70 107 142 186 238 287 352 414
#
# _framework density 19.809052999999999
#
# number of rings (size 3 to 8) (size 9 to 14) (size 15 to 20)
#    0.000    0.667    6.667    0.500    9.333    1.333 
#    0.000    3.333    0.000    0.000    0.000    0.000 
#    0.000    0.000    0.000    0.000    0.000    0.000 
#
# Total GULP energy -66955.436612 kJ/mol
# GULP energy per Si atom -5579.619718 kJ/mol
# Density = 1.976397 g / cm^3
# Si number density = 19.809053 Si / 1000 Ang^3
#
#
#
# Elastic Constant Matrix: (Units=GPa)
#
#
# Indices 1 2 3 4 5 6 
#
# 1 129.7093 29.3408 35.4983 0.0000 0.0000 0.0000
# 2 29.3408 132.4753 25.1921 0.0000 0.0000 0.0000
# 3 35.4983 25.1921 77.7770 0.0000 0.0000 0.0000
# 4 0.0000 0.0000 0.0000 -32.0704 0.0000 0.0000
# 5 0.0000 0.0000 0.0000 0.0000 431.7905 0.0000
# 6 0.0000 0.0000 0.0000 0.0000 0.0000 34.3704
#
#
#
# Elastic Compliance Matrix: (Units=1/GPa)
#
#
# Indices 1 2 3 4 5 6 
#
# 1 0.009013 -0.001294 -0.003695 0.000000 0.000000 0.000000
# 2 -0.001294 0.008230 -0.002075 0.000000 0.000000 0.000000
# 3 -0.003695 -0.002075 0.015216 0.000000 0.000000 0.000000
# 4 0.000000 0.000000 0.000000 -0.031181 0.000000 0.000000
# 5 0.000000 0.000000 0.000000 0.000000 0.002316 0.000000
# 6 0.000000 0.000000 0.000000 0.000000 0.000000 0.029095
#
#
# Mechanical properties :
#
#
# Convention : Reuss Voigt Hill
#
# Bulk Modulus (GPa) = 54.55062 57.78044 56.16553
# Shear Modulus (GPa) = 94.47156 103.48012 98.97584
#
# Velocity S-wave (km/s) = 6.91337 7.23548 7.07626
# Velocity P-wave (km/s) = 9.55637 9.95163 9.75600
#
# Compressibility (1/GPa) = 0.01833160
#
# Stress axis : x y z
#
# Youngs Moduli (GPa) = 110.94657 121.51068 65.72137
#
# Poissons Ratio (x) = 0.15720 0.24283
# Poissons Ratio (y) = 0.14353 0.13638
# Poissons Ratio (z) = 0.40992 0.25216
#
# Static dielectric constant tensor:
#      x y z
#    x 1.777070 0.000000 0.000000 
#    y 0.000000 -1.752740 0.000000 
#    z 0.000000 0.000000 1.685920 
# 
# From -- ./inp_files/9790.got.cif
#   From: 2010.05.17/outbox.cif.g08.bks.cpg/sg21_5_cif.got.tgz:9790.got - 2010.06.03 23:14:55.
