data_PCOD9325574
_publ_section_title
;
Structure prediction by ZEFSAII (Michael W. Deem and Ramdas Pophale) SiO2 
 PCOD9325574
Probable space group: C 2 2 2
;
_chemical_formula_sum "Si O2"
_cell_formula_units_Z 34
_cell_length_a 10.001877
_cell_length_b 17.272901
_cell_length_c 8.613131
_cell_angle_alpha 90.000000
_cell_angle_beta 90.000000
_cell_angle_gamma 90.000000
_cell_volume 1488.016839
_symmetry_space_group_name_H-M "C 2 2 2"
_symmetry_group_IT_number 21
_symmetry_cell_setting 'orthorhombic'
loop_
_space_group_symop_operation_xyz
x,y,z
-x,-y,z
x,-y,-z
-x,y,-z
1/2+x,1/2+y,z
1/2-x,1/2-y,z
1/2+x,1/2-y,-z
1/2-x,1/2+y,-z
loop_
_atom_site_type_symbol
_atom_site_label
_atom_site_fract_x
_atom_site_fract_y
_atom_site_fract_z
Si Si1 0.658096 0.014467 0.175360
Si Si2 0.500000 0.500000 0.500000
Si Si3 0.680979 0.367289 0.348643
Si Si4 0.224345 0.356615 0.310667
Si Si5 0.530928 0.737073 0.180758
O O1 0.707773 0.096962 0.235409
O O2 0.500000 0.000000 0.177634
O O3 0.715494 0.947528 0.284975
O O4 0.705651 0.000000 0.000000
O O5 0.584130 0.439620 0.394720
O O6 0.744033 0.340646 0.510583
O O7 0.594216 0.300538 0.268941
O O8 0.345210 0.322089 0.208460
O O9 0.088837 0.315273 0.255834
O O10 0.500000 0.747285 0.000000
#
# Coordination Sequence:
#
# PCOD9325574 Si02
#       5
#     8   2   8   8   8
#     4  11  25  45  73 105 142 187 241 299 366 433
#     4  12  20  40  76 108 132 180 260 298 348 428
#     4  12  22  47  76 106 142 192 244 306 359 441
#     4  11  24  47  68 109 140 185 247 301 359 442
#     4  11  25  46  73 103 149 189 241 302 373 436
#
# _framework density 22.849201999999998
#
# number of rings (size 3 to 8) (size 9 to 14) (size 15 to 20)
#    0.000    0.706    4.706    1.412    3.294    1.882 
#   16.941    2.353    0.000    0.000    0.000    0.000 
#    0.000    0.000    0.000    0.000    0.000    0.000 
#
# Total GULP energy -95219.605197 kJ/mol
# GULP energy per Si atom -5601.153247 kJ/mol
# Density = 2.279720 g / cm^3
# Si number density = 22.849202 Si / 1000 Ang^3
#
#
#
# Elastic Constant Matrix: (Units=GPa)
#
#
# Indices 1 2 3 4 5 6 
#
# 1 107.4182 48.5194 78.3994 0.0000 0.0000 0.0000
# 2 48.5194 95.1320 52.1852 0.0000 0.0000 0.0000
# 3 78.3994 52.1852 190.8834 0.0000 0.0000 0.0000
# 4 0.0000 0.0000 0.0000 30.3141 0.0000 0.0000
# 5 0.0000 0.0000 0.0000 0.0000 11.0657 0.0000
# 6 0.0000 0.0000 0.0000 0.0000 0.0000 60.5019
#
#
#
# Elastic Compliance Matrix: (Units=1/GPa)
#
#
# Indices 1 2 3 4 5 6 
#
# 1 0.015118 -0.005064 -0.004825 0.000000 0.000000 0.000000
# 2 -0.005064 0.014062 -0.001765 0.000000 0.000000 0.000000
# 3 -0.004825 -0.001765 0.007703 0.000000 0.000000 0.000000
# 4 0.000000 0.000000 0.000000 0.032988 0.000000 0.000000
# 5 0.000000 0.000000 0.000000 0.000000 0.090369 0.000000
# 6 0.000000 0.000000 0.000000 0.000000 0.000000 0.016528
#
#
# Mechanical properties :
#
#
# Convention : Reuss Voigt Hill
#
# Bulk Modulus (GPa) = 73.65611 83.51572 78.58592
# Shear Modulus (GPa) = 24.43776 34.66500 29.55138
#
# Velocity S-wave (km/s) = 3.27391 3.89925 3.60018
# Velocity P-wave (km/s) = 6.82620 7.54337 7.19373
#
# Compressibility (1/GPa) = 0.01357661
#
# Stress axis : x y z
#
# Youngs Moduli (GPa) = 66.14560 71.11162 129.82080
#
# Poissons Ratio (x) = 0.36010 0.62638
# Poissons Ratio (y) = 0.33495 0.22909
# Poissons Ratio (z) = 0.31915 0.12549
#
# Static dielectric constant tensor:
#      x y z
#    x 1.879370 0.000000 0.000000 
#    y 0.000000 1.843900 0.000000 
#    z 0.000000 0.000000 1.807520 
# 
# From -- ./inp_files/10585.got.cif
#   From: 2010.05.17/outbox.cif.g08.bks.cpg/sg21_6_cif.got.tgz:10585.got - 2010.06.03 23:14:55.
