data_PCOD9325095
_publ_section_title
;
Structure prediction by ZEFSAII (Michael W. Deem and Ramdas Pophale) SiO2 
 PCOD9325095
Probable space group: C 2 2 2
;
_chemical_formula_sum "Si O2"
_cell_formula_units_Z 18
_cell_length_a 26.757453
_cell_length_b 5.297520
_cell_length_c 5.227450
_cell_angle_alpha 90.000000
_cell_angle_beta 90.000000
_cell_angle_gamma 90.000000
_cell_volume 740.981327
_symmetry_space_group_name_H-M "C 2 2 2"
_symmetry_group_IT_number 21
_symmetry_cell_setting 'orthorhombic'
loop_
_space_group_symop_operation_xyz
x,y,z
-x,-y,z
x,-y,-z
-x,y,-z
1/2+x,1/2+y,z
1/2-x,1/2-y,z
1/2+x,1/2-y,-z
1/2-x,1/2+y,-z
loop_
_atom_site_type_symbol
_atom_site_label
_atom_site_fract_x
_atom_site_fract_y
_atom_site_fract_z
Si Si1 0.595384 0.843429 0.755014
Si Si2 0.833655 0.000000 0.000000
Si Si3 0.250000 0.750000 0.675511
Si Si4 0.500000 0.000000 0.000000
O O1 0.601544 0.000000 0.500000
O O2 0.536385 0.829104 0.824541
O O3 0.628777 0.598304 0.780336
O O4 0.613961 0.000000 0.000000
O O5 0.796566 0.805717 0.139380
O O6 0.242772 0.500000 0.500000
#
# Coordination Sequence:
#
# PCOD9325095 Si02
#       4
#     8   4   4   2
#     4  10  25  46  78 113 158 204 265 325 399 478
#     4  12  30  48  78 116 156 218 266 338 404 484
#     4  12  32  50  80 114 164 214 280 336 408 480
#     4   8  22  44  78 112 164 202 262 330 398 480
#
# _framework density 24.292110000000001
#
# number of rings (size 3 to 8) (size 9 to 14) (size 15 to 20)
#    1.333    0.000    0.000    2.000   15.556    0.889 
#    0.000    0.000    9.778    0.000    0.000    0.000 
#    0.000    0.000    0.000    0.000    0.000    0.000 
#
# Total GULP energy -50278.334947 kJ/mol
# GULP energy per Si atom -5586.481661 kJ/mol
# Density = 2.423682 g / cm^3
# Si number density = 24.292110 Si / 1000 Ang^3
#
#
#
# Elastic Constant Matrix: (Units=GPa)
#
#
# Indices 1 2 3 4 5 6 
#
# 1 224.5555 78.3370 74.2153 0.0000 0.0000 0.0000
# 2 78.3370 104.4762 65.4582 0.0000 0.0000 0.0000
# 3 74.2153 65.4582 191.0902 0.0000 0.0000 0.0000
# 4 0.0000 0.0000 0.0000 43.7933 0.0000 0.0000
# 5 0.0000 0.0000 0.0000 0.0000 -33.5331 0.0000
# 6 0.0000 0.0000 0.0000 0.0000 0.0000 82.5771
#
#
#
# Elastic Compliance Matrix: (Units=1/GPa)
#
#
# Indices 1 2 3 4 5 6 
#
# 1 0.006188 -0.003990 -0.001036 0.000000 0.000000 0.000000
# 2 -0.003990 0.014760 -0.003506 0.000000 0.000000 0.000000
# 3 -0.001036 -0.003506 0.006837 0.000000 0.000000 0.000000
# 4 0.000000 0.000000 0.000000 0.022835 0.000000 0.000000
# 5 0.000000 0.000000 0.000000 0.000000 -0.029821 0.000000
# 6 0.000000 0.000000 0.000000 0.000000 0.000000 0.012110
#
#
# Mechanical properties :
#
#
# Convention : Reuss Voigt Hill
#
# Bulk Modulus (GPa) = 93.29413 106.23809 99.76611
# Shear Modulus (GPa) = 93.37522 38.70821 66.04171
#
# Velocity S-wave (km/s) = 6.20660 3.99613 5.21972
# Velocity P-wave (km/s) = 9.47898 8.06973 8.80260
#
# Compressibility (1/GPa) = 0.01071879
#
# Stress axis : x y z
#
# Youngs Moduli (GPa) = 161.60847 67.74840 146.26845
#
# Poissons Ratio (x) = 0.27034 0.15158
# Poissons Ratio (y) = 0.64488 0.51288
# Poissons Ratio (z) = 0.16747 0.23756
#
# Static dielectric constant tensor:
#      x y z
#    x 1.932220 0.000000 0.000000 
#    y 0.000000 2.037260 0.000000 
#    z 0.000000 0.000000 1.964150 
# 
# From -- ./inp_files/6972.got.cif
#   From: 2010.05.17/outbox.cif.g08.bks.cpg/sg21_4_cif.got.tgz:6972.got - 2010.06.03 23:14:55.
