data_PCOD9325474
_publ_section_title
;
Structure prediction by ZEFSAII (Michael W. Deem and Ramdas Pophale) SiO2 
 PCOD9325474
Probable space group: C 2 2 2
;
_chemical_formula_sum "Si O2"
_cell_formula_units_Z 48
_cell_length_a 10.012592
_cell_length_b 11.749689
_cell_length_c 18.132466
_cell_angle_alpha 90.000000
_cell_angle_beta 90.000000
_cell_angle_gamma 90.000000
_cell_volume 2133.191099
_symmetry_space_group_name_H-M "C 2 2 2"
_symmetry_group_IT_number 21
_symmetry_cell_setting 'orthorhombic'
loop_
_space_group_symop_operation_xyz
x,y,z
-x,-y,z
x,-y,-z
-x,y,-z
1/2+x,1/2+y,z
1/2-x,1/2-y,z
1/2+x,1/2-y,-z
1/2-x,1/2+y,-z
loop_
_atom_site_type_symbol
_atom_site_label
_atom_site_fract_x
_atom_site_fract_y
_atom_site_fract_z
Si Si1 0.539095 0.619462 0.414562
Si Si2 0.578950 0.181302 0.326916
Si Si3 0.421042 0.681299 0.173077
Si Si4 0.704285 0.944628 0.333680
Si Si5 0.795718 0.944623 0.166316
Si Si6 0.960912 0.380537 0.914561
O O1 0.500000 0.500000 0.376729
O O2 0.500000 0.613505 0.500000
O O3 0.447428 0.719740 0.384891
O O4 0.695540 0.617770 0.391101
O O5 0.597461 0.250005 0.249998
O O6 0.685277 0.081432 0.344138
O O7 0.439160 0.114470 0.331934
O O8 0.314718 0.581427 0.155856
O O9 0.560835 0.614472 0.168051
O O10 0.447411 0.780263 0.115106
O O11 0.750014 0.928310 0.250001
O O12 0.695531 0.882222 0.108904
O O13 0.000000 0.500000 0.876727
O O14 0.000000 0.386496 0.000000
#
# Coordination Sequence:
#
# PCOD9325474 Si02
#       6
#     8   8   8   8   8   8
#     4  11  25  46  65 103 149 192 240 297 371 435
#     4  11  23  43  75 109 141 189 249 304 366 430
#     4  11  23  43  75 109 141 189 249 304 366 430
#     4  11  23  43  74 108 143 183 248 310 358 436
#     4  11  23  43  74 108 143 183 248 310 358 436
#     4  11  25  46  65 103 149 192 240 297 371 435
#
# _framework density 22.5015
#
# number of rings (size 3 to 8) (size 9 to 14) (size 15 to 20)
#    0.000    1.000    3.333    3.000    0.000    4.667 
#   24.000    1.667    0.000    0.000    0.000    0.000 
#    0.000    0.000    0.000    0.000    0.000    0.000 
#
# Total GULP energy -133860.283448 kJ/mol
# GULP energy per Si atom -5577.511810 kJ/mol
# Density = 2.245029 g / cm^3
# Si number density = 22.501500 Si / 1000 Ang^3
#
#
#
# Elastic Constant Matrix: (Units=GPa)
#
#
# Indices 1 2 3 4 5 6 
#
# 1 112.8462 4.4956 42.3531 0.0000 0.0000 0.0000
# 2 4.4956 106.9791 50.1365 0.0000 0.0000 0.0000
# 3 42.3531 50.1365 119.1064 0.0000 0.0000 0.0000
# 4 0.0000 0.0000 0.0000 32.9953 0.0000 0.0000
# 5 0.0000 0.0000 0.0000 0.0000 12.8493 0.0000
# 6 0.0000 0.0000 0.0000 0.0000 0.0000 -10.3075
#
#
#
# Elastic Compliance Matrix: (Units=1/GPa)
#
#
# Indices 1 2 3 4 5 6 
#
# 1 0.010448 0.001622 -0.004398 0.000000 0.000000 0.000000
# 2 0.001622 0.011897 -0.005585 0.000000 0.000000 0.000000
# 3 -0.004398 -0.005585 0.012310 0.000000 0.000000 0.000000
# 4 0.000000 0.000000 0.000000 0.030307 0.000000 0.000000
# 5 0.000000 0.000000 0.000000 0.000000 0.077825 0.000000
# 6 0.000000 0.000000 0.000000 0.000000 0.000000 -0.097017
#
#
# Mechanical properties :
#
#
# Convention : Reuss Voigt Hill
#
# Bulk Modulus (GPa) = 55.75999 59.21133 57.48566
# Shear Modulus (GPa) = 73.02562 23.23719 48.13140
#
# Velocity S-wave (km/s) = 5.70299 3.21704 4.62998
# Velocity P-wave (km/s) = 8.25832 6.33803 7.36106
#
# Compressibility (1/GPa) = 0.01793401
#
# Stress axis : x y z
#
# Youngs Moduli (GPa) = 95.71586 84.05687 81.23183
#
# Poissons Ratio (x) = -0.13634 0.35724
# Poissons Ratio (y) = -0.15526 0.45364
# Poissons Ratio (z) = 0.42094 0.46942
#
# Static dielectric constant tensor:
#      x y z
#    x 1.939250 0.000000 0.000000 
#    y 0.000000 1.922160 0.000000 
#    z 0.000000 0.000000 2.123370 
# 
# From -- ./inp_files/36161.got.cif
#   From: 2010.05.17/outbox.cif.g08.bks.cpg/sg21_19_cif.got.tgz:36161.got - 2010.06.03 23:14:55.
