data_PCOD9325138
_publ_section_title
;
Structure prediction by ZEFSAII (Michael W. Deem and Ramdas Pophale) SiO2 
 PCOD9325138
Probable space group: C 2 2 2
;
_chemical_formula_sum "Si O2"
_cell_formula_units_Z 28
_cell_length_a 12.002143
_cell_length_b 21.159448
_cell_length_c 4.888323
_cell_angle_alpha 90.000000
_cell_angle_beta 90.000000
_cell_angle_gamma 90.000000
_cell_volume 1241.432255
_symmetry_space_group_name_H-M "C 2 2 2"
_symmetry_group_IT_number 21
_symmetry_cell_setting 'orthorhombic'
loop_
_space_group_symop_operation_xyz
x,y,z
-x,-y,z
x,-y,-z
-x,y,-z
1/2+x,1/2+y,z
1/2-x,1/2-y,z
1/2+x,1/2-y,-z
1/2-x,1/2+y,-z
loop_
_atom_site_type_symbol
_atom_site_label
_atom_site_fract_x
_atom_site_fract_y
_atom_site_fract_z
Si Si1 0.500000 0.201744 0.000000
Si Si2 0.500000 0.500000 0.500000
Si Si3 0.000000 0.500000 0.500000
Si Si4 0.000000 0.204902 0.500000
Si Si5 0.673922 0.597725 0.654219
Si Si6 0.163444 0.409554 0.144646
O O1 0.476056 0.247692 0.252704
O O2 0.398256 0.152519 0.027329
O O3 0.579830 0.544753 0.668657
O O4 0.925801 0.543942 0.294684
O O5 0.900453 0.161627 0.373665
O O6 0.746546 0.601275 0.380552
O O7 0.761220 0.574827 0.883181
#
# Coordination Sequence:
#
# PCOD9325138 Si02
#       6
#     4   2   2   4   8   8
#     4  12  26  45  70 105 144 188 246 310 370 452
#     4  10  26  46  70 104 144 184 250 308 372 450
#     4  12  28  50  74 112 158 198 254 324 384 464
#     4  11  25  47  72 103 145 187 246 310 368 445
#     4  11  26  46  72 104 141 193 244 308 376 446
#     4  12  27  46  72 104 144 192 245 303 380 448
#
# _framework density 22.554593000000001
#
# number of rings (size 3 to 8) (size 9 to 14) (size 15 to 20)
#    0.000    0.571    0.000    6.857    0.000   22.286 
#    0.000    0.000    0.000    0.000    0.000    0.000 
#    0.000    0.000    0.000    0.000    0.000    0.000 
#
# Total GULP energy -78051.507572 kJ/mol
# GULP energy per Si atom -5575.107684 kJ/mol
# Density = 2.250326 g / cm^3
# Si number density = 22.554593 Si / 1000 Ang^3
#
#
#
# Elastic Constant Matrix: (Units=GPa)
#
#
# Indices 1 2 3 4 5 6 
#
# 1 587.8143 215.9937 186.2645 0.0000 0.0000 0.0000
# 2 215.9937 175.2368 68.5536 0.0000 0.0000 0.0000
# 3 186.2645 68.5536 154.4796 0.0000 0.0000 0.0000
# 4 0.0000 0.0000 0.0000 29.2274 0.0000 0.0000
# 5 0.0000 0.0000 0.0000 0.0000 50.2367 0.0000
# 6 0.0000 0.0000 0.0000 0.0000 0.0000 -20.4101
#
#
#
# Elastic Compliance Matrix: (Units=1/GPa)
#
#
# Indices 1 2 3 4 5 6 
#
# 1 0.004159 -0.003829 -0.003315 0.000000 0.000000 0.000000
# 2 -0.003829 0.010431 -0.000012 0.000000 0.000000 0.000000
# 3 -0.003315 -0.000012 0.010476 0.000000 0.000000 0.000000
# 4 0.000000 0.000000 0.000000 0.034215 0.000000 0.000000
# 5 0.000000 0.000000 0.000000 0.000000 0.019906 0.000000
# 6 0.000000 0.000000 0.000000 0.000000 0.000000 -0.048995
#
#
# Mechanical properties :
#
#
# Convention : Reuss Voigt Hill
#
# Bulk Modulus (GPa) = 92.99687 206.57271 149.78479
# Shear Modulus (GPa) = 103.97757 41.59206 72.78482
#
# Velocity S-wave (km/s) = 6.79709 4.29891 5.68688
# Velocity P-wave (km/s) = 10.14505 10.79016 10.47257
#
# Compressibility (1/GPa) = 0.01075305
#
# Stress axis : x y z
#
# Youngs Moduli (GPa) = 240.46005 95.86932 95.45666
#
# Poissons Ratio (x) = 0.36709 0.31645
# Poissons Ratio (y) = 0.92073 0.00115
# Poissons Ratio (z) = 0.79716 0.00116
#
# Static dielectric constant tensor:
#      x y z
#    x 1.864660 0.000000 0.000000 
#    y 0.000000 1.876470 0.000000 
#    z 0.000000 0.000000 1.810770 
# 
# From -- ./inp_files/2375.got.cif
#   From: 2010.05.17/outbox.cif.g08.bks.cpg/sg21_2_cif.got.tgz:2375.got - 2010.06.03 23:14:55.
