data_PCOD9325348
_publ_section_title
;
Structure prediction by ZEFSAII (Michael W. Deem and Ramdas Pophale) SiO2 
 PCOD9325348
Probable space group: C 2 2 2
;
_chemical_formula_sum "Si O2"
_cell_formula_units_Z 44
_cell_length_a 8.805968
_cell_length_b 14.349741
_cell_length_c 16.514120
_cell_angle_alpha 90.000000
_cell_angle_beta 90.000000
_cell_angle_gamma 90.000000
_cell_volume 2086.779692
_symmetry_space_group_name_H-M "C 2 2 2"
_symmetry_group_IT_number 21
_symmetry_cell_setting 'orthorhombic'
loop_
_space_group_symop_operation_xyz
x,y,z
-x,-y,z
x,-y,-z
-x,y,-z
1/2+x,1/2+y,z
1/2-x,1/2-y,z
1/2+x,1/2-y,-z
1/2-x,1/2+y,-z
loop_
_atom_site_type_symbol
_atom_site_label
_atom_site_fract_x
_atom_site_fract_y
_atom_site_fract_z
Si Si1 0.659791 0.845528 0.278691
Si Si2 0.250000 0.750000 0.991590
Si Si3 0.316520 0.012016 0.408723
Si Si4 0.298056 0.845488 0.291652
Si Si5 0.129013 0.122974 0.877772
Si Si6 0.224547 0.077613 0.119183
O O1 0.750000 0.750000 0.263172
O O2 0.478415 0.837223 0.278196
O O3 0.696205 0.916461 0.205917
O O4 0.711780 0.890540 0.363595
O O5 0.292249 0.838976 0.935846
O O6 0.134912 0.795862 0.055918
O O7 0.259648 0.931719 0.348851
O O8 0.500000 0.000000 0.410785
O O9 0.259821 0.000000 0.500000
O O10 0.250000 0.750000 0.333520
O O11 0.209048 0.852700 0.206633
O O12 0.952216 0.102350 0.866618
O O13 0.215318 0.029589 0.909664
#
# Coordination Sequence:
#
# PCOD9325348 Si02
#       6
#     8   4   8   8   8   8
#     4  11  22  39  65  94 126 167 210 256 313 374
#     4  12  24  38  64  94 124 168 208 260 304 374
#     4   9  20  40  65  94 129 166 206 256 312 373
#     4  11  22  39  65  94 126 167 210 256 313 374
#     4  11  24  42  64  91 128 168 209 259 316 373
#     4  11  24  42  64  91 128 168 209 259 316 373
#
# _framework density 21.08512
#
# number of rings (size 3 to 8) (size 9 to 14) (size 15 to 20)
#    0.000    1.273    3.636    2.182    0.000    3.636 
#    0.000    0.000    0.000   14.182    0.000    0.000 
#    0.000    0.000    0.000    0.000    0.000    0.000 
#
# Total GULP energy -122825.258345 kJ/mol
# GULP energy per Si atom -5582.966288 kJ/mol
# Density = 2.103713 g / cm^3
# Si number density = 21.085120 Si / 1000 Ang^3
#
#
#
# Elastic Constant Matrix: (Units=GPa)
#
#
# Indices 1 2 3 4 5 6 
#
# 1 46.9622 26.3442 20.0615 0.0000 0.0000 0.0000
# 2 26.3442 104.0617 27.6221 0.0000 0.0000 0.0000
# 3 20.0615 27.6221 121.2472 0.0000 0.0000 0.0000
# 4 0.0000 0.0000 0.0000 26.9783 0.0000 0.0000
# 5 0.0000 0.0000 0.0000 0.0000 52.8659 0.0000
# 6 0.0000 0.0000 0.0000 0.0000 0.0000 22.4617
#
#
#
# Elastic Compliance Matrix: (Units=1/GPa)
#
#
# Indices 1 2 3 4 5 6 
#
# 1 0.025777 -0.005741 -0.002957 0.000000 0.000000 0.000000
# 2 -0.005741 0.011507 -0.001672 0.000000 0.000000 0.000000
# 3 -0.002957 -0.001672 0.009118 0.000000 0.000000 0.000000
# 4 0.000000 0.000000 0.000000 0.037067 0.000000 0.000000
# 5 0.000000 0.000000 0.000000 0.000000 0.018916 0.000000
# 6 0.000000 0.000000 0.000000 0.000000 0.000000 0.044520
#
#
# Mechanical properties :
#
#
# Convention : Reuss Voigt Hill
#
# Bulk Modulus (GPa) = 38.96723 46.70299 42.83511
# Shear Modulus (GPa) = 28.37715 33.67740 31.02727
#
# Velocity S-wave (km/s) = 3.67255 4.00085 3.84021
# Velocity P-wave (km/s) = 6.04189 6.59850 6.32632
#
# Compressibility (1/GPa) = 0.02566259
#
# Stress axis : x y z
#
# Youngs Moduli (GPa) = 38.79369 86.90578 109.67647
#
# Poissons Ratio (x) = 0.49891 0.32434
# Poissons Ratio (y) = 0.22271 0.18333
# Poissons Ratio (z) = 0.11472 0.14527
#
# Static dielectric constant tensor:
#      x y z
#    x 1.737110 0.000000 0.000000 
#    y 0.000000 1.794750 0.000000 
#    z 0.000000 0.000000 1.760860 
# 
# From -- ./inp_files/35595.got.cif
#   From: 2010.05.17/outbox.cif.g08.bks.cpg/sg21_18_cif.got.tgz:35595.got - 2010.06.03 23:14:55.
