data_PCOD9325380
_publ_section_title
;
Structure prediction by ZEFSAII (Michael W. Deem and Ramdas Pophale) SiO2 
 PCOD9325380
Probable space group: C 2 2 2
;
_chemical_formula_sum "Si O2"
_cell_formula_units_Z 36
_cell_length_a 5.147506
_cell_length_b 24.755362
_cell_length_c 11.741587
_cell_angle_alpha 90.000000
_cell_angle_beta 90.000000
_cell_angle_gamma 90.000000
_cell_volume 1496.211345
_symmetry_space_group_name_H-M "C 2 2 2"
_symmetry_group_IT_number 21
_symmetry_cell_setting 'orthorhombic'
loop_
_space_group_symop_operation_xyz
x,y,z
-x,-y,z
x,-y,-z
-x,y,-z
1/2+x,1/2+y,z
1/2-x,1/2-y,z
1/2+x,1/2-y,-z
1/2-x,1/2+y,-z
loop_
_atom_site_type_symbol
_atom_site_label
_atom_site_fract_x
_atom_site_fract_y
_atom_site_fract_z
Si Si1 0.216223 0.691124 0.152298
Si Si2 0.000000 0.360084 0.500000
Si Si3 0.785360 0.160787 0.709461
Si Si4 0.958031 0.439053 0.311894
Si Si5 0.249154 0.075448 0.932151
O O1 0.250000 0.750000 0.100911
O O2 0.437287 0.680565 0.248813
O O3 0.250046 0.640871 0.069399
O O4 0.935191 0.686813 0.210533
O O5 0.801424 0.327976 0.579606
O O6 0.147957 0.400753 0.587234
O O7 0.718535 0.095994 0.720458
O O8 0.000000 0.500000 0.350093
O O9 0.784553 0.440874 0.198877
O O10 0.500000 0.057709 0.000000
O O11 0.000000 0.057492 0.000000
#
# Coordination Sequence:
#
# PCOD9325380 Si02
#       5
#     8   4   8   8   8
#     4  11  22  42  66  93 126 174 228 279 341 406
#     4   8  19  40  72  96 140 178 224 284 345 404
#     4   9  21  38  64  98 132 165 218 278 338 401
#     4   9  19  41  70 102 136 184 229 280 341 419
#     4  11  24  43  65  95 133 176 222 283 343 402
#
# _framework density 24.060770000000002
#
# number of rings (size 3 to 8) (size 9 to 14) (size 15 to 20)
#    1.333    0.889    0.000    3.667    0.000    2.222 
#    0.000   15.556    0.000    5.333    0.000    0.000 
#    0.000    0.000    0.000    0.000    0.000    0.000 
#
# Total GULP energy -100533.057620 kJ/mol
# GULP energy per Si atom -5585.169868 kJ/mol
# Density = 2.400601 g / cm^3
# Si number density = 24.060770 Si / 1000 Ang^3
#
#
#
# Elastic Constant Matrix: (Units=GPa)
#
#
# Indices 1 2 3 4 5 6 
#
# 1 95.1558 -8.9894 39.7389 0.0000 0.0000 0.0000
# 2 -8.9894 127.6979 -14.8668 0.0000 0.0000 0.0000
# 3 39.7389 -14.8668 110.9794 0.0000 0.0000 0.0000
# 4 0.0000 0.0000 0.0000 -1.1016 0.0000 0.0000
# 5 0.0000 0.0000 0.0000 0.0000 33.8465 0.0000
# 6 0.0000 0.0000 0.0000 0.0000 0.0000 6.1324
#
#
#
# Elastic Compliance Matrix: (Units=1/GPa)
#
#
# Indices 1 2 3 4 5 6 
#
# 1 0.012373 0.000361 -0.004382 0.000000 0.000000 0.000000
# 2 0.000361 0.007966 0.000938 0.000000 0.000000 0.000000
# 3 -0.004382 0.000938 0.010705 0.000000 0.000000 0.000000
# 4 0.000000 0.000000 0.000000 -0.907738 0.000000 0.000000
# 5 0.000000 0.000000 0.000000 0.000000 0.029545 0.000000
# 6 0.000000 0.000000 0.000000 0.000000 0.000000 0.163068
#
#
# Mechanical properties :
#
#
# Convention : Reuss Voigt Hill
#
# Bulk Modulus (GPa) = 40.19729 40.62204 40.40967
# Shear Modulus (GPa) = -7.46691 28.97214 10.75262
#
# Velocity S-wave (km/s) = -1.76355 3.47381 2.11628
# Velocity P-wave (km/s) = 3.54909 5.74540 4.77523
#
# Compressibility (1/GPa) = 0.02487730
#
# Stress axis : x y z
#
# Youngs Moduli (GPa) = 80.81935 125.54027 93.41015
#
# Poissons Ratio (x) = -0.04530 0.40934
# Poissons Ratio (y) = -0.02916 -0.08761
# Poissons Ratio (z) = 0.35417 -0.11774
#
# Static dielectric constant tensor:
#      x y z
#    x 1.929600 0.000000 0.000000 
#    y 0.000000 1.928750 0.000000 
#    z 0.000000 0.000000 1.932290 
# 
# From -- ./inp_files/20976.got.cif
#   From: 2010.05.17/outbox.cif.g08.bks.cpg/sg21_11_cif.got.tgz:20976.got - 2010.06.03 23:14:55.
