data_PCOD9325465
_publ_section_title
;
Structure prediction by ZEFSAII (Michael W. Deem and Ramdas Pophale) SiO2 
 PCOD9325465
Probable space group: C 2 2 2
;
_chemical_formula_sum "Si O2"
_cell_formula_units_Z 34
_cell_length_a 15.235022
_cell_length_b 19.395460
_cell_length_c 4.906653
_cell_angle_alpha 90.000000
_cell_angle_beta 90.000000
_cell_angle_gamma 90.000000
_cell_volume 1449.868170
_symmetry_space_group_name_H-M "C 2 2 2"
_symmetry_group_IT_number 21
_symmetry_cell_setting 'orthorhombic'
loop_
_space_group_symop_operation_xyz
x,y,z
-x,-y,z
x,-y,-z
-x,y,-z
1/2+x,1/2+y,z
1/2-x,1/2-y,z
1/2+x,1/2-y,-z
1/2-x,1/2+y,-z
loop_
_atom_site_type_symbol
_atom_site_label
_atom_site_fract_x
_atom_site_fract_y
_atom_site_fract_z
Si Si1 0.500000 0.500000 0.500000
Si Si2 0.899862 0.802855 0.889667
Si Si3 0.669909 0.923975 0.563539
Si Si4 0.638701 0.610231 0.369591
Si Si5 0.103264 0.649882 0.941518
O O1 0.564732 0.551434 0.340596
O O2 0.892854 0.830625 0.583006
O O3 0.869456 0.725489 0.952318
O O4 0.846141 0.854561 0.080660
O O5 0.000000 0.807131 0.000000
O O6 0.772062 0.920122 0.487770
O O7 0.652589 0.905713 0.874524
O O8 0.635269 0.000000 0.500000
O O9 0.623131 0.866884 0.371869
O O10 0.000000 0.643988 0.000000
#
# Coordination Sequence:
#
# PCOD9325465 Si02
#       5
#     2   8   8   8   8
#     4  12  24  46  68 106 134 190 198 266 328 410
#     4  11  23  43  67  98 131 179 224 268 318 398
#     4  12  26  44  66 102 133 169 224 280 325 395
#     4  12  25  42  70  99 138 175 219 263 329 396
#     4  11  26  46  70  95 132 174 224 276 335 386
#
# _framework density 23.450409000000001
#
# number of rings (size 3 to 8) (size 9 to 14) (size 15 to 20)
#    0.000    0.471    3.529    4.235    0.000   14.118 
#    0.000    0.000    0.000    0.000    0.000    0.000 
#    0.000    0.000    0.000    0.000    0.000    0.000 
#
# Total GULP energy -95236.209431 kJ/mol
# GULP energy per Si atom -5602.129967 kJ/mol
# Density = 2.339703 g / cm^3
# Si number density = 23.450409 Si / 1000 Ang^3
#
#
#
# Elastic Constant Matrix: (Units=GPa)
#
#
# Indices 1 2 3 4 5 6 
#
# 1 75.2987 7.2178 -6.9871 0.0000 0.0000 0.0000
# 2 7.2178 120.2017 4.1738 0.0000 0.0000 0.0000
# 3 -6.9871 4.1738 80.9378 0.0000 0.0000 0.0000
# 4 0.0000 0.0000 0.0000 23.9172 0.0000 0.0000
# 5 0.0000 0.0000 0.0000 0.0000 36.8551 0.0000
# 6 0.0000 0.0000 0.0000 0.0000 0.0000 13.9476
#
#
#
# Elastic Compliance Matrix: (Units=1/GPa)
#
#
# Indices 1 2 3 4 5 6 
#
# 1 0.013474 -0.000851 0.001207 0.000000 0.000000 0.000000
# 2 -0.000851 0.008388 -0.000506 0.000000 0.000000 0.000000
# 3 0.001207 -0.000506 0.012485 0.000000 0.000000 0.000000
# 4 0.000000 0.000000 0.000000 0.041811 0.000000 0.000000
# 5 0.000000 0.000000 0.000000 0.000000 0.027133 0.000000
# 6 0.000000 0.000000 0.000000 0.000000 0.000000 0.071697
#
#
# Mechanical properties :
#
#
# Convention : Reuss Voigt Hill
#
# Bulk Modulus (GPa) = 29.37066 31.69413 30.53240
# Shear Modulus (GPa) = 26.78989 33.07957 29.93473
#
# Velocity S-wave (km/s) = 3.38362 3.75989 3.57671
# Velocity P-wave (km/s) = 5.27418 5.69155 5.48684
#
# Compressibility (1/GPa) = 0.03404758
#
# Stress axis : x y z
#
# Youngs Moduli (GPa) = 74.21695 119.21767 80.09316
#
# Poissons Ratio (x) = 0.10145 -0.09668
# Poissons Ratio (y) = 0.06316 0.04053
# Poissons Ratio (z) = -0.08958 0.06033
#
# Static dielectric constant tensor:
#      x y z
#    x 1.911280 0.000000 0.000000 
#    y 0.000000 1.869350 0.000000 
#    z 0.000000 0.000000 1.839850 
# 
# From -- ./inp_files/3528.got.cif
#   From: 2010.05.17/outbox.cif.g08.bks.cpg/sg21_2_cif.got.tgz:3528.got - 2010.06.03 23:14:55.
