data_PCOD9325383
_publ_section_title
;
Structure prediction by ZEFSAII (Michael W. Deem and Ramdas Pophale) SiO2 
 PCOD9325383
Probable space group: C 2 2 2
;
_chemical_formula_sum "Si O2"
_cell_formula_units_Z 50
_cell_length_a 16.191488
_cell_length_b 16.402700
_cell_length_c 9.060988
_cell_angle_alpha 90.000000
_cell_angle_beta 90.000000
_cell_angle_gamma 90.000000
_cell_volume 2406.454526
_symmetry_space_group_name_H-M "C 2 2 2"
_symmetry_group_IT_number 21
_symmetry_cell_setting 'orthorhombic'
loop_
_space_group_symop_operation_xyz
x,y,z
-x,-y,z
x,-y,-z
-x,y,-z
1/2+x,1/2+y,z
1/2-x,1/2-y,z
1/2+x,1/2-y,-z
1/2-x,1/2+y,-z
loop_
_atom_site_type_symbol
_atom_site_label
_atom_site_fract_x
_atom_site_fract_y
_atom_site_fract_z
Si Si1 0.456320 0.205145 0.858581
Si Si2 0.000000 0.000000 0.000000
Si Si3 0.234272 0.879147 0.817841
Si Si4 0.375393 0.763342 0.698321
Si Si5 0.209584 0.958324 0.361129
Si Si6 0.629955 0.373207 0.105457
Si Si7 0.677760 0.816234 0.620805
O O1 0.531506 0.229707 0.752099
O O2 0.411811 0.286380 0.919325
O O3 0.384360 0.168067 0.756737
O O4 0.500000 0.162648 0.000000
O O5 0.060671 0.058783 0.914274
O O6 0.318218 0.829305 0.786672
O O7 0.164555 0.824263 0.735795
O O8 0.234907 0.969286 0.749747
O O9 0.203980 0.882336 0.987380
O O10 0.365670 0.781131 0.525225
O O11 0.159976 0.891546 0.269125
O O12 0.284386 0.903884 0.422278
O O13 0.165920 0.000000 0.500000
O O14 0.750000 0.750000 0.658173
#
# Coordination Sequence:
#
# PCOD9325383 Si02
#       7
#     8   2   8   8   8   8   8
#     4  12  26  42  67 106 136 180 230 288 346 413
#     4  12  20  40  58  96 152 178 204 292 344 424
#     4  11  22  42  72  99 134 186 222 285 345 414
#     4  11  23  44  70  99 142 178 235 286 352 411
#     4  12  24  44  70 101 133 178 236 280 340 418
#     4  12  24  40  67 103 143 178 226 279 361 417
#     4  12  24  44  70  99 138 182 233 288 346 421
#
# _framework density 20.777453999999999
#
# number of rings (size 3 to 8) (size 9 to 14) (size 15 to 20)
#    0.000    0.320    8.800    0.480    2.240    0.000 
#    0.000    1.200    0.000    0.960    0.000    0.000 
#    0.000    0.000    0.000    0.000    0.000    0.000 
#
# Total GULP energy -139593.852083 kJ/mol
# GULP energy per Si atom -5583.754083 kJ/mol
# Density = 2.073016 g / cm^3
# Si number density = 20.777454 Si / 1000 Ang^3
#
#
#
# Elastic Constant Matrix: (Units=GPa)
#
#
# Indices 1 2 3 4 5 6 
#
# 1 54.5428 9.6619 34.6185 0.0000 0.0000 0.0000
# 2 9.6619 51.2823 -1.9437 0.0000 0.0000 0.0000
# 3 34.6185 -1.9437 114.8019 0.0000 0.0000 0.0000
# 4 0.0000 0.0000 0.0000 40.3477 0.0000 0.0000
# 5 0.0000 0.0000 0.0000 0.0000 61.5904 0.0000
# 6 0.0000 0.0000 0.0000 0.0000 0.0000 12.8479
#
#
#
# Elastic Compliance Matrix: (Units=1/GPa)
#
#
# Indices 1 2 3 4 5 6 
#
# 1 0.023779 -0.004755 -0.007251 0.000000 0.000000 0.000000
# 2 -0.004755 0.020463 0.001780 0.000000 0.000000 0.000000
# 3 -0.007251 0.001780 0.010927 0.000000 0.000000 0.000000
# 4 0.000000 0.000000 0.000000 0.024785 0.000000 0.000000
# 5 0.000000 0.000000 0.000000 0.000000 0.016236 0.000000
# 6 0.000000 0.000000 0.000000 0.000000 0.000000 0.077834
#
#
# Mechanical properties :
#
#
# Convention : Reuss Voigt Hill
#
# Bulk Modulus (GPa) = 28.80339 33.92229 31.36284
# Shear Modulus (GPa) = 24.26621 34.84321 29.55471
#
# Velocity S-wave (km/s) = 3.42118 4.09953 3.77562
# Velocity P-wave (km/s) = 5.43128 6.22656 5.84247
#
# Compressibility (1/GPa) = 0.03471813
#
# Stress axis : x y z
#
# Youngs Moduli (GPa) = 42.05436 48.86812 91.51362
#
# Poissons Ratio (x) = 0.23236 0.66356
# Poissons Ratio (y) = 0.19996 -0.16292
# Poissons Ratio (z) = 0.30494 -0.08700
#
# Static dielectric constant tensor:
#      x y z
#    x 1.724470 0.000000 0.000000 
#    y 0.000000 1.667600 0.000000 
#    z 0.000000 0.000000 1.811660 
# 
# From -- ./inp_files/15047.got.cif
#   From: 2010.05.17/outbox.cif.g08.bks.cpg/sg21_8_cif.got.tgz:15047.got - 2010.06.03 23:14:55.
