data_PCOD9325297
_publ_section_title
;
Structure prediction by ZEFSAII (Michael W. Deem and Ramdas Pophale) SiO2 
 PCOD9325297
Probable space group: C 2 2 2
;
_chemical_formula_sum "Si O2"
_cell_formula_units_Z 40
_cell_length_a 21.304515
_cell_length_b 9.553116
_cell_length_c 8.428883
_cell_angle_alpha 90.000000
_cell_angle_beta 90.000000
_cell_angle_gamma 90.000000
_cell_volume 1715.484224
_symmetry_space_group_name_H-M "C 2 2 2"
_symmetry_group_IT_number 21
_symmetry_cell_setting 'orthorhombic'
loop_
_space_group_symop_operation_xyz
x,y,z
-x,-y,z
x,-y,-z
-x,y,-z
1/2+x,1/2+y,z
1/2-x,1/2-y,z
1/2+x,1/2-y,-z
1/2-x,1/2+y,-z
loop_
_atom_site_type_symbol
_atom_site_label
_atom_site_fract_x
_atom_site_fract_y
_atom_site_fract_z
Si Si1 0.405110 0.721324 0.331748
Si Si2 0.367361 0.437988 0.168072
Si Si3 0.356984 0.012295 0.818362
Si Si4 0.185546 0.281146 0.392149
Si Si5 0.030523 0.298961 0.169351
O O1 0.388934 0.564226 0.281597
O O2 0.376474 0.755618 0.503220
O O3 0.477392 0.761216 0.298128
O O4 0.367036 0.826769 0.218477
O O5 0.318692 0.334509 0.252830
O O6 0.427228 0.338161 0.141170
O O7 0.346290 0.500000 0.000000
O O8 0.315396 0.933217 0.688167
O O9 0.423129 0.928298 0.796627
O O10 0.336446 0.000000 0.000000
O O11 0.250000 0.250000 0.483278
O O12 0.000000 0.329754 0.000000
#
# Coordination Sequence:
#
# PCOD9325297 Si02
#       5
#     8   8   8   8   8
#     4  12  23  39  71 103 141 185 228 283 359 418
#     4  11  23  42  71 105 136 181 236 286 358 422
#     4  11  23  42  71 105 136 181 236 286 358 422
#     4  11  28  50  66  94 143 190 245 300 348 410
#     4  11  21  40  71 103 145 176 215 286 348 435
#
# _framework density 23.317031
#
# number of rings (size 3 to 8) (size 9 to 14) (size 15 to 20)
#    0.000    0.800    4.000    3.600    0.000    7.200 
#    0.000   10.000    0.000    0.000    0.000    0.000 
#    0.000    0.000    0.000    0.000    0.000    0.000 
#
# Total GULP energy -111913.545020 kJ/mol
# GULP energy per Si atom -5595.677251 kJ/mol
# Density = 2.326396 g / cm^3
# Si number density = 23.317031 Si / 1000 Ang^3
#
#
#
# Elastic Constant Matrix: (Units=GPa)
#
#
# Indices 1 2 3 4 5 6 
#
# 1 65.8927 -18.3081 -1.0607 0.0000 0.0000 0.0000
# 2 -18.3081 102.2768 -10.3654 0.0000 0.0000 0.0000
# 3 -1.0607 -10.3654 74.3874 0.0000 0.0000 0.0000
# 4 0.0000 0.0000 0.0000 37.5302 0.0000 0.0000
# 5 0.0000 0.0000 0.0000 0.0000 12.9856 0.0000
# 6 0.0000 0.0000 0.0000 0.0000 0.0000 14.8286
#
#
#
# Elastic Compliance Matrix: (Units=1/GPa)
#
#
# Indices 1 2 3 4 5 6 
#
# 1 0.016000 0.002929 0.000636 0.000000 0.000000 0.000000
# 2 0.002929 0.010453 0.001498 0.000000 0.000000 0.000000
# 3 0.000636 0.001498 0.013661 0.000000 0.000000 0.000000
# 4 0.000000 0.000000 0.000000 0.026645 0.000000 0.000000
# 5 0.000000 0.000000 0.000000 0.000000 0.077008 0.000000
# 6 0.000000 0.000000 0.000000 0.000000 0.000000 0.067437
#
#
# Mechanical properties :
#
#
# Convention : Reuss Voigt Hill
#
# Bulk Modulus (GPa) = 19.90405 20.34316 20.12361
# Shear Modulus (GPa) = 22.95410 31.22163 27.08786
#
# Velocity S-wave (km/s) = 3.14097 3.66321 3.41210
# Velocity P-wave (km/s) = 4.65930 5.16098 4.91654
#
# Compressibility (1/GPa) = 0.05024102
#
# Stress axis : x y z
#
# Youngs Moduli (GPa) = 62.49954 95.66193 73.20106
#
# Poissons Ratio (x) = -0.28015 -0.04657
# Poissons Ratio (y) = -0.18304 -0.10968
# Poissons Ratio (z) = -0.03976 -0.14334
#
# Static dielectric constant tensor:
#      x y z
#    x 1.960430 0.000000 0.000000 
#    y 0.000000 1.825090 0.000000 
#    z 0.000000 0.000000 1.907230 
# 
# From -- ./inp_files/18242.got.cif
#   From: 2010.05.17/outbox.cif.g08.bks.cpg/sg21_10_cif.got.tgz:18242.got - 2010.06.03 23:14:55.
