data_PCOD9325535
_publ_section_title
;
Structure prediction by ZEFSAII (Michael W. Deem and Ramdas Pophale) SiO2 
 PCOD9325535
Probable space group: C 2 2 2
;
_chemical_formula_sum "Si O2"
_cell_formula_units_Z 16
_cell_length_a 4.867816
_cell_length_b 10.061970
_cell_length_c 13.446036
_cell_angle_alpha 90.000000
_cell_angle_beta 90.000000
_cell_angle_gamma 90.000000
_cell_volume 658.584404
_symmetry_space_group_name_H-M "C 2 2 2"
_symmetry_group_IT_number 21
_symmetry_cell_setting 'orthorhombic'
loop_
_space_group_symop_operation_xyz
x,y,z
-x,-y,z
x,-y,-z
-x,y,-z
1/2+x,1/2+y,z
1/2-x,1/2-y,z
1/2+x,1/2-y,-z
1/2-x,1/2+y,-z
loop_
_atom_site_type_symbol
_atom_site_label
_atom_site_fract_x
_atom_site_fract_y
_atom_site_fract_z
Si Si1 0.500000 0.500000 0.310598
Si Si2 0.250000 0.750000 0.568275
Si Si3 0.500000 0.173984 0.000000
Si Si4 0.500000 0.000000 0.824939
O O1 0.375761 0.374616 0.370934
O O2 0.754812 0.449719 0.243820
O O3 0.500000 0.801058 0.500000
O O4 0.250000 0.250000 0.952476
O O5 0.367333 0.098184 0.093444
#
# Coordination Sequence:
#
# PCOD9325535 Si02
#       4
#     4   4   4   4
#     4  12  27  47  82 110 152 198 264 317 383 482
#     4  12  28  52  80 112 156 202 256 332 406 464
#     4  11  24  43  72 100 160 195 246 313 376 454
#     4  11  26  44  69 116 144 202 253 308 380 451
#
# _framework density 24.294530000000002
#
# number of rings (size 3 to 8) (size 9 to 14) (size 15 to 20)
#    0.000    0.500    0.000    6.750   10.500    6.000 
#    0.000    0.000    0.000    0.000    0.000    0.000 
#    0.000    0.000    0.000    0.000    0.000    0.000 
#
# Total GULP energy -44677.240234 kJ/mol
# GULP energy per Si atom -5584.655029 kJ/mol
# Density = 2.423923 g / cm^3
# Si number density = 24.294530 Si / 1000 Ang^3
#
#
#
# Elastic Constant Matrix: (Units=GPa)
#
#
# Indices 1 2 3 4 5 6 
#
# 1 157.1249 37.1176 80.3739 0.0000 0.0000 0.0000
# 2 37.1176 110.2900 75.3598 0.0000 0.0000 0.0000
# 3 80.3739 75.3598 157.2931 0.0000 0.0000 0.0000
# 4 0.0000 0.0000 0.0000 -13.1291 0.0000 0.0000
# 5 0.0000 0.0000 0.0000 0.0000 63.0394 0.0000
# 6 0.0000 0.0000 0.0000 0.0000 0.0000 39.6065
#
#
#
# Elastic Compliance Matrix: (Units=1/GPa)
#
#
# Indices 1 2 3 4 5 6 
#
# 1 0.008619 0.000161 -0.004481 0.000000 0.000000 0.000000
# 2 0.000161 0.013483 -0.006542 0.000000 0.000000 0.000000
# 3 -0.004481 -0.006542 0.011782 0.000000 0.000000 0.000000
# 4 0.000000 0.000000 0.000000 -0.076167 0.000000 0.000000
# 5 0.000000 0.000000 0.000000 0.000000 0.015863 0.000000
# 6 0.000000 0.000000 0.000000 0.000000 0.000000 0.025248
#
#
# Mechanical properties :
#
#
# Convention : Reuss Voigt Hill
#
# Bulk Modulus (GPa) = 82.24238 90.04562 86.14400
# Shear Modulus (GPa) = 203.21198 33.36048 118.28623
#
# Velocity S-wave (km/s) = 9.15569 3.70965 6.98528
# Velocity P-wave (km/s) = 12.07041 7.44938 10.02966
#
# Compressibility (1/GPa) = 0.01215918
#
# Stress axis : x y z
#
# Youngs Moduli (GPa) = 116.02920 74.16816 84.87657
#
# Poissons Ratio (x) = -0.01198 0.38035
# Poissons Ratio (y) = -0.01874 0.55528
# Poissons Ratio (z) = 0.51996 0.48522
#
# Static dielectric constant tensor:
#      x y z
#    x 1.987120 0.000000 0.000000 
#    y 0.000000 2.302390 0.000000 
#    z 0.000000 0.000000 1.877430 
# 
# From -- ./inp_files/19965.got.cif
#   From: 2010.05.17/outbox.cif.g08.bks.cpg/sg21_10_cif.got.tgz:19965.got - 2010.06.03 23:14:55.
