data_PCOD9325943
_publ_section_title
;
Structure prediction by ZEFSAII (Michael W. Deem and Ramdas Pophale) SiO2 
 PCOD9325943
Probable space group: F 2 2 2
;
_chemical_formula_sum "Si O2"
_cell_formula_units_Z 116
_cell_length_a 21.001828
_cell_length_b 30.871425
_cell_length_c 7.134755
_cell_angle_alpha 90.000000
_cell_angle_beta 90.000000
_cell_angle_gamma 90.000000
_cell_volume 4625.863767
_symmetry_space_group_name_H-M "F 2 2 2"
_symmetry_group_IT_number 22
_symmetry_cell_setting 'orthorhombic'
loop_
_space_group_symop_operation_xyz
x,y,z
-x,-y,z
x,-y,-z
-x,y,-z
x,1/2+y,1/2+z
-x,1/2-y,1/2+z
x,1/2-y,1/2-z
-x,1/2+y,1/2-z
1/2+x,y,1/2+z
1/2-x,-y,1/2+z
1/2+x,-y,1/2-z
1/2-x,y,1/2-z
1/2+x,1/2+y,z
1/2-x,1/2-y,z
1/2+x,1/2-y,-z
1/2-x,1/2+y,-z
loop_
_atom_site_type_symbol
_atom_site_label
_atom_site_fract_x
_atom_site_fract_y
_atom_site_fract_z
Si Si1 0.819828 0.609274 0.773407
Si Si2 0.677048 0.094447 0.786981
Si Si3 0.855724 0.704097 0.809411
Si Si4 0.503538 0.180898 0.226050
Si Si5 0.360841 0.188994 0.261250
Si Si6 0.067922 0.958777 0.639073
Si Si7 0.250000 0.750000 0.750000
Si Si8 0.546544 0.585015 0.739970
O O1 0.750000 0.590332 0.750000
O O2 0.824254 0.660409 0.728286
O O3 0.881229 0.585338 0.684376
O O4 0.825458 0.606652 0.995742
O O5 0.750000 0.085295 0.750000
O O6 0.652499 0.138753 0.693180
O O7 0.631952 0.053197 0.755768
O O8 0.827670 0.750000 0.750000
O O9 0.928941 0.703209 0.734790
O O10 0.855788 0.698211 0.035701
O O11 0.435794 0.197840 0.303704
O O12 0.514718 0.130907 0.282935
O O13 0.500000 0.181616 0.000000
O O14 0.302047 0.217094 0.342894
O O15 0.059551 0.920662 0.483701
O O16 0.006460 0.951895 0.770610
O O17 0.071323 0.000000 0.500000
#
# Coordination Sequence:
#
# PCOD9325943 Si02
#       8
#    16  16  16  16  16  16   4  16
#     4   9  19  32  52  78 107 149 190 232 286 350
#     4  10  19  36  56  78 112 157 186 225 296 354
#     4   9  19  31  49  72  98 141 182 237 291 327
#     4   9  14  29  50  69  94 135 175 220 286 331
#     4  10  20  34  50  72 107 142 188 235 282 336
#     4  10  17  28  53  87 109 132 181 241 273 325
#     4  12  24  32  46  80  96 148 194 230 264 340
#     4   9  14  28  51  76 104 132 175 232 280 321
#
# _framework density 25.076398000000001
#
# number of rings (size 3 to 8) (size 9 to 14) (size 15 to 20)
#    0.000    2.483    3.448    2.483    0.966    2.483 
#    0.000    2.759    0.000    0.828    0.000    0.000 
#    0.000   13.241    0.000    0.000    0.000    0.000 
#
# Total GULP energy -161584.583451 kJ/mol
# GULP energy per Si atom -5571.882188 kJ/mol
# Density = 2.501932 g / cm^3
# Si number density = 25.076398 Si / 1000 Ang^3
#
#
#
# Elastic Constant Matrix: (Units=GPa)
#
#
# Indices 1 2 3 4 5 6 
#
# 1 248.0650 74.4887 2.8963 0.0063 -0.0139 0.0039
# 2 74.4887 114.5649 11.3857 0.0013 -0.0026 0.0038
# 3 2.8963 11.3857 90.3838 0.0115 -0.0215 0.0039
# 4 0.0063 0.0013 0.0115 11.3783 -0.0066 0.0037
# 5 -0.0139 -0.0026 -0.0215 -0.0066 9.9379 -0.0018
# 6 0.0039 0.0038 0.0039 0.0037 -0.0018 24.9097
#
#
#
# Elastic Compliance Matrix: (Units=1/GPa)
#
#
# Indices 1 2 3 4 5 6 
#
# 1 0.005015 -0.003286 0.000253 -0.000003 0.000007 0.000000
# 2 -0.003286 0.010992 -0.001279 0.000002 -0.000004 -0.000001
# 3 0.000253 -0.001279 0.011217 -0.000011 0.000024 -0.000002
# 4 -0.000003 0.000002 -0.000011 0.087887 0.000058 -0.000013
# 5 0.000007 -0.000004 0.000024 0.000058 0.100625 0.000007
# 6 0.000000 -0.000001 -0.000002 -0.000013 0.000007 0.040145
#
#
# Mechanical properties :
#
#
# Convention : Reuss Voigt Hill
#
# Bulk Modulus (GPa) = 53.76305 70.06168 61.91237
# Shear Modulus (GPa) = 18.47030 33.52804 25.99917
#
# Velocity S-wave (km/s) = 2.71691 3.66052 3.22343
# Velocity P-wave (km/s) = 5.59718 6.77243 6.21266
#
# Compressibility (1/GPa) = 0.01860013
#
# Stress axis : x y z
#
# Youngs Moduli (GPa) = 199.40572 90.97351 89.15052
#
# Poissons Ratio (x) = 0.29892 -0.02257
# Poissons Ratio (y) = 0.65521 0.11406
# Poissons Ratio (z) = -0.05049 0.11639
#
# Static dielectric constant tensor:
#      x y z
#    x 2.231160 0.000020 0.000010 
#    y 0.000020 2.013500 0.000000 
#    z 0.000010 0.000000 2.089010 
# 
# From -- ./inp_files/21903.got.cif
#   From: 2010.05.17/outbox.cif.g08.bks.cpg/sg22_11_cif.got.tgz:21903.got - 2010.06.03 23:40:54.
