data_PCOD9325858
_publ_section_title
;
Structure prediction by ZEFSAII (Michael W. Deem and Ramdas Pophale) SiO2 
 PCOD9325858
Probable space group: C 2 2 2
;
_chemical_formula_sum "Si O2"
_cell_formula_units_Z 28
_cell_length_a 21.000000
_cell_length_b 15.000000
_cell_length_c 9.000000
_cell_angle_alpha 90.000000
_cell_angle_beta 90.000000
_cell_angle_gamma 90.000000
_cell_volume 2835.000000
_symmetry_space_group_name_H-M "C 2 2 2"
_symmetry_group_IT_number 21
_symmetry_cell_setting 'orthorhombic'
loop_
_space_group_symop_operation_xyz
x,y,z
-x,-y,z
x,-y,-z
-x,y,-z
1/2+x,1/2+y,z
1/2-x,1/2-y,z
1/2+x,1/2-y,-z
1/2-x,1/2+y,-z
loop_
_atom_site_type_symbol
_atom_site_label
_atom_site_fract_x
_atom_site_fract_y
_atom_site_fract_z
Si Si1 0.070825 0.734629 0.654309
Si Si2 0.199854 0.169222 0.826352
Si Si3 0.435638 0.086474 0.909995
Si Si4 0.253082 0.008043 0.322006
Si Si5 0.597690 0.967336 0.333491
Si Si6 0.923815 0.750876 0.704515
Si Si7 0.808010 0.180614 0.818334
O O1 0.074270 0.631270 0.697783
O O2 0.083525 0.731510 0.474457
O O3 0.127309 0.783717 0.742465
O O4 0.000415 0.769428 0.702834
O O5 0.250000 0.250000 0.796548
O O6 0.233410 0.081076 0.763752
O O7 0.132238 0.179675 0.741797
O O8 0.187626 0.167344 0.003737
O O9 0.409876 0.179899 0.841972
O O10 0.442213 0.038820 0.754286
O O11 0.500000 0.104240 0.000000
O O12 0.404145 0.000000 0.000000
O O13 0.244758 0.000000 0.500000
O O14 0.327620 0.026898 0.293575
O O15 0.212114 0.089077 0.259113
O O16 0.592771 0.000000 0.500000
O O17 0.750000 0.250000 0.792109
#
# Coordination Sequence:
#
# PCOD9325858 Si02
#       7
#     8   8   8   8   8   8   8
#     4  11  23  42  67  94 136 176 230 284 335 413
#     4  11  26  43  68  99 139 179 226 283 340 411
#     4  11  23  36  55  89 134 178 217 269 335 409
#     4  11  24  43  72 100 133 177 231 285 337 404
#     4  11  22  40  65  97 134 181 226 278 339 414
#     4  11  25  42  62  96 134 183 227 279 341 403
#     4  11  24  44  69 102 134 179 224 285 347 406
#
# _framework density 9.8765429999999999
#
# number of rings (size 3 to 8) (size 9 to 14) (size 15 to 20)
#    0.000    1.000    2.857    3.857    6.000    2.286 
#    0.000    0.714    0.000    4.286    0.000    0.000 
#    0.000    0.000    0.000    0.000    0.000    0.000 
#
# Total GULP energy -156040.171506 kJ/mol
# GULP energy per Si atom -5572.863268 kJ/mol
# Density = 0.985406 g / cm^3
# Si number density = 9.876543 Si / 1000 Ang^3
#
#
#
# Elastic Constant Matrix: (Units=GPa)
#
#
# Indices 1 2 3 4 5 6 
#
# 1 112.3433 31.9470 57.3927 0.0000 0.0000 0.0000
# 2 31.9470 75.5515 38.7683 0.0000 0.0000 0.0000
# 3 57.3927 38.7683 98.1281 0.0000 0.0000 0.0000
# 4 0.0000 0.0000 0.0000 34.0838 0.0000 0.0000
# 5 0.0000 0.0000 0.0000 0.0000 41.3834 0.0000
# 6 0.0000 0.0000 0.0000 0.0000 0.0000 2.7724
#
#
#
# Elastic Compliance Matrix: (Units=1/GPa)
#
#
# Indices 1 2 3 4 5 6 
#
# 1 0.012929 -0.001990 -0.006775 0.000000 0.000000 0.000000
# 2 -0.001990 0.016908 -0.005516 0.000000 0.000000 0.000000
# 3 -0.006775 -0.005516 0.016333 0.000000 0.000000 0.000000
# 4 0.000000 0.000000 0.000000 0.029339 0.000000 0.000000
# 5 0.000000 0.000000 0.000000 0.000000 0.024164 0.000000
# 6 0.000000 0.000000 0.000000 0.000000 0.000000 0.360703
#
#
# Mechanical properties :
#
#
# Convention : Reuss Voigt Hill
#
# Bulk Modulus (GPa) = 56.79774 60.24875 58.52325
# Shear Modulus (GPa) = 10.10494 26.17558 18.14026
#
# Velocity S-wave (km/s) = 2.26423 3.64419 3.03372
# Velocity P-wave (km/s) = 5.97092 6.94795 6.47788
#
# Compressibility (1/GPa) = 0.01760633
#
# Stress axis : x y z
#
# Youngs Moduli (GPa) = 77.34838 59.14352 61.22676
#
# Poissons Ratio (x) = 0.11771 0.41483
# Poissons Ratio (y) = 0.15394 0.33773
# Poissons Ratio (z) = 0.52406 0.32624
#
# Static dielectric constant tensor:
#      x y z
#    x 1.837280 0.000000 0.000000 
#    y 0.000000 1.826820 0.000000 
#    z 0.000000 0.000000 1.764130 
# 
# From -- ./inp_files/17712.got.cif
#   From: 2010.05.17/outbox.ucp.g08.bks.cvg/sg21_9_cif.got.tgz:17712.got - 2010.06.11 15:15:05.
