data_PCOD9325485
_publ_section_title
;
Structure prediction by ZEFSAII (Michael W. Deem and Ramdas Pophale) SiO2 
 PCOD9325485
Probable space group: C 2 2 2
;
_chemical_formula_sum "Si O2"
_cell_formula_units_Z 38
_cell_length_a 5.230609
_cell_length_b 18.330430
_cell_length_c 18.281872
_cell_angle_alpha 90.000000
_cell_angle_beta 90.000000
_cell_angle_gamma 90.000000
_cell_volume 1752.853312
_symmetry_space_group_name_H-M "C 2 2 2"
_symmetry_group_IT_number 21
_symmetry_cell_setting 'orthorhombic'
loop_
_space_group_symop_operation_xyz
x,y,z
-x,-y,z
x,-y,-z
-x,y,-z
1/2+x,1/2+y,z
1/2-x,1/2-y,z
1/2+x,1/2-y,-z
1/2-x,1/2+y,-z
loop_
_atom_site_type_symbol
_atom_site_label
_atom_site_fract_x
_atom_site_fract_y
_atom_site_fract_z
Si Si1 0.250000 0.250000 0.193837
Si Si2 0.894960 0.623759 0.875583
Si Si3 0.757141 0.546039 0.724688
Si Si4 0.548225 0.687535 0.668051
Si Si5 0.250000 0.250000 0.953678
Si Si6 0.750000 0.750000 0.451529
Si Si7 0.500000 0.000000 0.000000
O O1 0.111112 0.315216 0.148105
O O2 0.438089 0.290747 0.251957
O O3 0.829709 0.581398 0.802409
O O4 0.681956 0.679391 0.906009
O O5 0.921871 0.562225 0.938523
O O6 0.500000 0.500000 0.734116
O O7 0.691440 0.611909 0.671811
O O8 0.000000 0.500000 0.700197
O O9 0.750000 0.750000 0.649460
O O10 0.330671 0.687372 0.606412
O O11 0.500000 0.230661 0.000000
O O12 0.500000 0.765371 0.500000
#
# Coordination Sequence:
#
# PCOD9325485 Si02
#       7
#     4   8   8   8   4   4   2
#     4  11  23  46  76 102 140 190 260 316 369 443
#     4  12  25  46  69  98 138 191 250 320 390 451
#     4  12  27  45  71 107 149 191 244 313 369 432
#     4  11  23  44  77 115 146 196 253 298 355 437
#     4  12  27  46  70  88 125 180 242 298 388 471
#     4  11  24  42  78 126 161 190 234 308 357 418
#     4  12  28  40  66 100 150 186 252 324 410 464
#
# _framework density 21.678940999999998
#
# number of rings (size 3 to 8) (size 9 to 14) (size 15 to 20)
#    0.000    0.421    5.263    3.158    2.947    3.368 
#    0.000    0.000    0.000    0.632    5.474    0.000 
#    0.000    0.000    0.000    0.000    0.000    0.000 
#
# Total GULP energy -105950.643234 kJ/mol
# GULP energy per Si atom -5576.349644 kJ/mol
# Density = 2.162960 g / cm^3
# Si number density = 21.678941 Si / 1000 Ang^3
#
#
#
# Elastic Constant Matrix: (Units=GPa)
#
#
# Indices 1 2 3 4 5 6 
#
# 1 119.8223 56.4787 33.2338 0.0000 0.0000 0.0000
# 2 56.4787 168.9038 32.6241 0.0000 0.0000 0.0000
# 3 33.2338 32.6241 100.4944 0.0000 0.0000 0.0000
# 4 0.0000 0.0000 0.0000 -13.9518 0.0000 0.0000
# 5 0.0000 0.0000 0.0000 0.0000 -21.9135 0.0000
# 6 0.0000 0.0000 0.0000 0.0000 0.0000 48.9685
#
#
#
# Elastic Compliance Matrix: (Units=1/GPa)
#
#
# Indices 1 2 3 4 5 6 
#
# 1 0.010455 -0.003017 -0.002478 0.000000 0.000000 0.000000
# 2 -0.003017 0.007187 -0.001335 0.000000 0.000000 0.000000
# 3 -0.002478 -0.001335 0.011204 0.000000 0.000000 0.000000
# 4 0.000000 0.000000 0.000000 -0.071676 0.000000 0.000000
# 5 0.000000 0.000000 0.000000 0.000000 -0.045634 0.000000
# 6 0.000000 0.000000 0.000000 0.000000 0.000000 0.020421
#
#
# Mechanical properties :
#
#
# Convention : Reuss Voigt Hill
#
# Bulk Modulus (GPa) = 65.85547 70.43264 68.14406
# Shear Modulus (GPa) = -101.38227 20.41292 -40.48468
#
# Velocity S-wave (km/s) = -6.84594 3.07188 -4.32611
# Velocity P-wave (km/s) = 5.66088 6.71874 2.55889
#
# Compressibility (1/GPa) = 0.01518477
#
# Stress axis : x y z
#
# Youngs Moduli (GPa) = 95.64553 139.13134 89.25530
#
# Poissons Ratio (x) = 0.41982 0.22118
# Poissons Ratio (y) = 0.28860 0.11919
# Poissons Ratio (z) = 0.23701 0.18580
#
# Static dielectric constant tensor:
#      x y z
#    x 1.850600 0.000000 0.000000 
#    y 0.000000 1.783940 0.000000 
#    z 0.000000 0.000000 1.844050 
# 
# From -- ./inp_files/34746.got.cif
#   From: 2010.05.17/outbox.cif.g08.bks.cpg/sg21_18_cif.got.tgz:34746.got - 2010.06.03 23:14:55.
