data_PCOD9325094
_publ_section_title
;
Structure prediction by ZEFSAII (Michael W. Deem and Ramdas Pophale) SiO2 
 PCOD9325094
Probable space group: C 2 2 2
;
_chemical_formula_sum "Si O2"
_cell_formula_units_Z 32
_cell_length_a 15.075714
_cell_length_b 8.368637
_cell_length_c 10.255390
_cell_angle_alpha 90.000000
_cell_angle_beta 90.000000
_cell_angle_gamma 90.000000
_cell_volume 1293.852594
_symmetry_space_group_name_H-M "C 2 2 2"
_symmetry_group_IT_number 21
_symmetry_cell_setting 'orthorhombic'
loop_
_space_group_symop_operation_xyz
x,y,z
-x,-y,z
x,-y,-z
-x,y,-z
1/2+x,1/2+y,z
1/2-x,1/2-y,z
1/2+x,1/2-y,-z
1/2-x,1/2+y,-z
loop_
_atom_site_type_symbol
_atom_site_label
_atom_site_fract_x
_atom_site_fract_y
_atom_site_fract_z
Si Si1 0.590640 0.899095 0.326782
Si Si2 0.845943 0.822711 0.561731
Si Si3 0.974675 0.174179 0.184837
Si Si4 0.676086 0.884911 0.880390
O O1 0.617638 0.807005 0.457094
O O2 0.564078 0.761432 0.225932
O O3 0.500000 0.000000 0.344193
O O4 0.660830 0.009739 0.250851
O O5 0.750000 0.750000 0.592669
O O6 0.913073 0.838971 0.683620
O O7 0.838707 0.000000 0.500000
O O8 0.915963 0.289879 0.096194
O O9 0.000000 0.000000 0.139099
O O10 0.750000 0.750000 0.869904
O O11 0.696533 0.000000 0.000000
#
# Coordination Sequence:
#
# PCOD9325094 Si02
#       4
#     8   8   8   8
#     4  10  25  46  77 107 151 195 245 305 366 443
#     4  12  27  43  72 114 156 198 243 296 371 449
#     4  11  24  47  76 111 147 194 247 303 370 445
#     4  11  28  52  76 107 144 194 254 315 375 435
#
# _framework density 24.732337999999999
#
# number of rings (size 3 to 8) (size 9 to 14) (size 15 to 20)
#    0.000    1.000    2.500    1.500   10.500   10.500 
#    0.000    1.250    0.000    0.000    0.000    0.000 
#    0.000    0.000    0.000    0.000    0.000    0.000 
#
# Total GULP energy -89676.482483 kJ/mol
# GULP energy per Si atom -5604.780155 kJ/mol
# Density = 2.467605 g / cm^3
# Si number density = 24.732338 Si / 1000 Ang^3
#
#
#
# Elastic Constant Matrix: (Units=GPa)
#
#
# Indices 1 2 3 4 5 6 
#
# 1 84.9969 52.1388 59.1647 0.0000 0.0000 0.0000
# 2 52.1388 201.1543 77.7321 0.0000 0.0000 0.0000
# 3 59.1647 77.7321 161.0976 0.0000 0.0000 0.0000
# 4 0.0000 0.0000 0.0000 18.1376 0.0000 0.0000
# 5 0.0000 0.0000 0.0000 0.0000 20.4045 0.0000
# 6 0.0000 0.0000 0.0000 0.0000 0.0000 60.3009
#
#
#
# Elastic Compliance Matrix: (Units=1/GPa)
#
#
# Indices 1 2 3 4 5 6 
#
# 1 0.016704 -0.002408 -0.004973 0.000000 0.000000 0.000000
# 2 -0.002408 0.006458 -0.002232 0.000000 0.000000 0.000000
# 3 -0.004973 -0.002232 0.009111 0.000000 0.000000 0.000000
# 4 0.000000 0.000000 0.000000 0.055134 0.000000 0.000000
# 5 0.000000 0.000000 0.000000 0.000000 0.049009 0.000000
# 6 0.000000 0.000000 0.000000 0.000000 0.000000 0.016584
#
#
# Mechanical properties :
#
#
# Convention : Reuss Voigt Hill
#
# Bulk Modulus (GPa) = 76.64398 91.70221 84.17310
# Shear Modulus (GPa) = 28.31707 36.98281 32.64994
#
# Velocity S-wave (km/s) = 3.38737 3.87113 3.63730
# Velocity P-wave (km/s) = 6.80850 7.55905 7.19357
#
# Compressibility (1/GPa) = 0.01304734
#
# Stress axis : x y z
#
# Youngs Moduli (GPa) = 59.86722 154.85094 109.76341
#
# Poissons Ratio (x) = 0.37287 0.54582
# Poissons Ratio (y) = 0.14416 0.24495
# Poissons Ratio (z) = 0.29770 0.34557
#
# Static dielectric constant tensor:
#      x y z
#    x 1.944790 0.000000 0.000000 
#    y 0.000000 2.098270 0.000000 
#    z 0.000000 0.000000 2.019750 
# 
# From -- ./inp_files/24691.got.cif
#   From: 2010.05.17/outbox.cif.g08.bks.cpg/sg21_13_cif.got.tgz:24691.got - 2010.06.03 23:14:55.
