data_PCOD9325770
_publ_section_title
;
Structure prediction by ZEFSAII (Michael W. Deem and Ramdas Pophale) SiO2 
 PCOD9325770
Probable space group: C 2 2 2
;
_chemical_formula_sum "Si O2"
_cell_formula_units_Z 26
_cell_length_a 5.734006
_cell_length_b 13.865914
_cell_length_c 13.939204
_cell_angle_alpha 90.000000
_cell_angle_beta 90.000000
_cell_angle_gamma 90.000000
_cell_volume 1108.267555
_symmetry_space_group_name_H-M "C 2 2 2"
_symmetry_group_IT_number 21
_symmetry_cell_setting 'orthorhombic'
loop_
_space_group_symop_operation_xyz
x,y,z
-x,-y,z
x,-y,-z
-x,y,-z
1/2+x,1/2+y,z
1/2-x,1/2-y,z
1/2+x,1/2-y,-z
1/2-x,1/2+y,-z
loop_
_atom_site_type_symbol
_atom_site_label
_atom_site_fract_x
_atom_site_fract_y
_atom_site_fract_z
Si Si1 0.500000 0.500000 0.500000
Si Si2 0.951058 0.112084 0.209322
Si Si3 0.877039 0.396842 0.369483
Si Si4 0.500000 0.304524 0.000000
Si Si5 0.250000 0.250000 0.341779
O O1 0.658673 0.426986 0.436636
O O2 0.962164 0.137533 0.098322
O O3 0.132331 0.172299 0.271871
O O4 0.707900 0.131822 0.263025
O O5 0.000000 0.000000 0.221876
O O6 0.000000 0.500000 0.364510
O O7 0.053946 0.311522 0.397735
O O8 0.250000 0.250000 0.012815
#
# Coordination Sequence:
#
# PCOD9325770 Si02
#       5
#     2   8   8   4   4
#     4  12  26  52  88 116 168 212 280 356 426 514
#     4  12  25  48  80 118 164 213 271 340 406 491
#     4  12  25  49  88 113 163 218 271 348 420 496
#     4  12  27  48  77 124 172 220 283 336 411 506
#     4  12  24  48  84 112 158 216 270 332 418 496
#
# _framework density 23.460041
#
# number of rings (size 3 to 8) (size 9 to 14) (size 15 to 20)
#    0.000    0.000    6.154    3.692    0.000    0.000 
#    0.000    1.538   94.769    0.000    0.000    0.000 
#    0.000    0.000    0.000    0.000    0.000    0.000 
#
# Total GULP energy -72745.275883 kJ/mol
# GULP energy per Si atom -5595.790453 kJ/mol
# Density = 2.340664 g / cm^3
# Si number density = 23.460041 Si / 1000 Ang^3
#
#
#
# Elastic Constant Matrix: (Units=GPa)
#
#
# Indices 1 2 3 4 5 6 
#
# 1 155.8434 85.9752 77.6137 0.0000 0.0000 0.0000
# 2 85.9752 186.1022 71.8389 0.0000 0.0000 0.0000
# 3 77.6137 71.8389 184.5182 0.0000 0.0000 0.0000
# 4 0.0000 0.0000 0.0000 -5.0705 0.0000 0.0000
# 5 0.0000 0.0000 0.0000 0.0000 19.1879 0.0000
# 6 0.0000 0.0000 0.0000 0.0000 0.0000 50.6783
#
#
#
# Elastic Compliance Matrix: (Units=1/GPa)
#
#
# Indices 1 2 3 4 5 6 
#
# 1 0.009658 -0.003406 -0.002737 0.000000 0.000000 0.000000
# 2 -0.003406 0.007525 -0.001497 0.000000 0.000000 0.000000
# 3 -0.002737 -0.001497 0.007154 0.000000 0.000000 0.000000
# 4 0.000000 0.000000 0.000000 -0.197219 0.000000 0.000000
# 5 0.000000 0.000000 0.000000 0.000000 0.052116 0.000000
# 6 0.000000 0.000000 0.000000 0.000000 0.000000 0.019732
#
#
# Mechanical properties :
#
#
# Convention : Reuss Voigt Hill
#
# Bulk Modulus (GPa) = 110.40201 110.81327 110.60764
# Shear Modulus (GPa) = -60.43284 32.36155 -14.03564
#
# Velocity S-wave (km/s) = -5.08093 3.71810 -2.44863
# Velocity P-wave (km/s) = 3.56941 8.10986 6.26540
#
# Compressibility (1/GPa) = 0.00905781
#
# Stress axis : x y z
#
# Youngs Moduli (GPa) = 103.53674 132.89765 139.79116
#
# Poissons Ratio (x) = 0.45259 0.38257
# Poissons Ratio (y) = 0.35260 0.20928
# Poissons Ratio (z) = 0.28335 0.19896
#
# Static dielectric constant tensor:
#      x y z
#    x 2.126800 0.000000 0.000000 
#    y 0.000000 1.852350 0.000000 
#    z 0.000000 0.000000 1.867520 
# 
# From -- ./inp_files/28478.got.cif
#   From: 2010.05.17/outbox.cif.g08.bks.cpg/sg21_15_cif.got.tgz:28478.got - 2010.06.03 23:14:55.
