data_PCOD9325521
_publ_section_title
;
Structure prediction by ZEFSAII (Michael W. Deem and Ramdas Pophale) SiO2 
 PCOD9325521
Probable space group: C 2 2 2
;
_chemical_formula_sum "Si O2"
_cell_formula_units_Z 38
_cell_length_a 25.307072
_cell_length_b 5.476804
_cell_length_c 12.201700
_cell_angle_alpha 90.000000
_cell_angle_beta 90.000000
_cell_angle_gamma 90.000000
_cell_volume 1691.178476
_symmetry_space_group_name_H-M "C 2 2 2"
_symmetry_group_IT_number 21
_symmetry_cell_setting 'orthorhombic'
loop_
_space_group_symop_operation_xyz
x,y,z
-x,-y,z
x,-y,-z
-x,y,-z
1/2+x,1/2+y,z
1/2-x,1/2-y,z
1/2+x,1/2-y,-z
1/2-x,1/2+y,-z
loop_
_atom_site_type_symbol
_atom_site_label
_atom_site_fract_x
_atom_site_fract_y
_atom_site_fract_z
Si Si1 0.578081 0.781711 0.827007
Si Si2 0.806290 0.238707 0.186024
Si Si3 0.000000 0.500000 0.000000
Si Si4 0.500000 0.500000 0.692881
Si Si5 0.807160 0.257728 0.671694
Si Si6 0.078378 0.364760 0.385852
O O1 0.637070 0.749632 0.871842
O O2 0.550648 0.553109 0.768966
O O3 0.538316 0.851313 0.921692
O O4 0.578498 0.974613 0.726092
O O5 0.750000 0.250000 0.124329
O O6 0.806736 0.478543 0.265718
O O7 0.806626 0.979498 0.249353
O O8 0.524806 0.289175 0.621052
O O9 0.750000 0.250000 0.610621
O O10 0.863496 0.237546 0.612102
O O11 0.077202 0.500000 0.500000
#
# Coordination Sequence:
#
# PCOD9325521 Si02
#       6
#     8   8   2   4   8   8
#     4  11  24  42  65  98 134 177 235 286 353 409
#     4   9  18  37  67  96 133 178 227 288 348 414
#     4  12  24  46  66  96 138 180 240 306 344 422
#     4  12  22  44  68  94 140 179 235 276 352 422
#     4   9  18  37  64  96 136 180 227 281 343 416
#     4  11  24  42  65 101 137 184 228 286 346 423
#
# _framework density 22.469536999999999
#
# number of rings (size 3 to 8) (size 9 to 14) (size 15 to 20)
#    0.000    1.684    4.211    0.000    0.000    3.789 
#    0.000    8.421    0.000   12.632    0.000    0.000 
#    0.000    0.000    0.000    0.000    0.000    0.000 
#
# Total GULP energy -105879.963878 kJ/mol
# GULP energy per Si atom -5572.629678 kJ/mol
# Density = 2.241839 g / cm^3
# Si number density = 22.469537 Si / 1000 Ang^3
#
#
#
# Elastic Constant Matrix: (Units=GPa)
#
#
# Indices 1 2 3 4 5 6 
#
# 1 220.0588 6.3540 35.3537 0.0000 0.0000 0.0000
# 2 6.3540 87.7992 8.1425 0.0000 0.0000 0.0000
# 3 35.3537 8.1425 65.7497 0.0000 0.0000 0.0000
# 4 0.0000 0.0000 0.0000 -17.3977 0.0000 0.0000
# 5 0.0000 0.0000 0.0000 0.0000 18.1399 0.0000
# 6 0.0000 0.0000 0.0000 0.0000 0.0000 12.2044
#
#
#
# Elastic Compliance Matrix: (Units=1/GPa)
#
#
# Indices 1 2 3 4 5 6 
#
# 1 0.004975 -0.000113 -0.002661 0.000000 0.000000 0.000000
# 2 -0.000113 0.011525 -0.001366 0.000000 0.000000 0.000000
# 3 -0.002661 -0.001366 0.016809 0.000000 0.000000 0.000000
# 4 0.000000 0.000000 0.000000 -0.057479 0.000000 0.000000
# 5 0.000000 0.000000 0.000000 0.000000 0.055127 0.000000
# 6 0.000000 0.000000 0.000000 0.000000 0.000000 0.081938
#
#
# Mechanical properties :
#
#
# Convention : Reuss Voigt Hill
#
# Bulk Modulus (GPa) = 39.95591 52.58979 46.27285
# Shear Modulus (GPa) = 38.60449 24.17315 31.38882
#
# Velocity S-wave (km/s) = 4.14947 3.28353 3.74163
# Velocity P-wave (km/s) = 6.38579 6.15070 6.26935
#
# Compressibility (1/GPa) = 0.02502759
#
# Stress axis : x y z
#
# Youngs Moduli (GPa) = 201.00409 86.77137 59.49102
#
# Poissons Ratio (x) = 0.00983 0.15831
# Poissons Ratio (y) = 0.02277 0.08128
# Poissons Ratio (z) = 0.53488 0.11856
#
# Static dielectric constant tensor:
#      x y z
#    x 1.893260 0.000000 0.000000 
#    y 0.000000 2.181840 0.000000 
#    z 0.000000 0.000000 2.167740 
# 
# From -- ./inp_files/27660.got.cif
#   From: 2010.05.17/outbox.cif.g08.bks.cpg/sg21_14_cif.got.tgz:27660.got - 2010.06.03 23:14:55.
