data_PCOD9325323
_publ_section_title
;
Structure prediction by ZEFSAII (Michael W. Deem and Ramdas Pophale) SiO2 
 PCOD9325323
Probable space group: C 2 2 2
;
_chemical_formula_sum "Si O2"
_cell_formula_units_Z 64
_cell_length_a 18.171502
_cell_length_b 26.538305
_cell_length_c 6.748510
_cell_angle_alpha 90.000000
_cell_angle_beta 90.000000
_cell_angle_gamma 90.000000
_cell_volume 3254.407282
_symmetry_space_group_name_H-M "C 2 2 2"
_symmetry_group_IT_number 21
_symmetry_cell_setting 'orthorhombic'
loop_
_space_group_symop_operation_xyz
x,y,z
-x,-y,z
x,-y,-z
-x,y,-z
1/2+x,1/2+y,z
1/2-x,1/2-y,z
1/2+x,1/2-y,-z
1/2-x,1/2+y,-z
loop_
_atom_site_type_symbol
_atom_site_label
_atom_site_fract_x
_atom_site_fract_y
_atom_site_fract_z
Si Si1 0.661359 0.807990 0.725394
Si Si2 0.333708 0.039492 0.661631
Si Si3 0.586826 0.103531 0.025858
Si Si4 0.338641 0.692010 0.274604
Si Si5 0.168286 0.132987 0.365381
Si Si6 0.668286 0.132987 0.634621
Si Si7 0.913174 0.896469 0.974144
Si Si8 0.166292 0.039491 0.661632
O O1 0.614000 0.846689 0.855181
O O2 0.647699 0.750000 0.776605
O O3 0.750000 0.817528 0.748847
O O4 0.643896 0.818859 0.493266
O O5 0.380104 0.055738 0.853333
O O6 0.327570 0.090314 0.533580
O O7 0.250000 0.023106 0.716287
O O8 0.364352 0.000000 0.500000
O O9 0.500000 0.099770 0.000000
O O10 0.619908 0.111308 0.808834
O O11 0.356105 0.681140 0.506732
O O12 0.385999 0.653311 0.144815
O O13 0.249999 0.142550 0.283992
O O14 0.172430 0.090314 0.533582
O O15 0.119907 0.111307 0.191169
O O16 0.880104 0.944263 0.853335
O O17 0.000000 0.900231 0.000000
O O18 0.135649 0.000000 0.500000
#
# Coordination Sequence:
#
# PCOD9325323 Si02
#       8
#     8   8   8   8   8   8   8   8
#     4   9  19  36  57  81 109 146 195 240 274 325
#     4   9  19  37  59  80 104 141 192 242 284 335
#     4  11  22  35  53  82 118 150 180 227 293 353
#     4   9  19  36  57  81 109 146 195 240 274 325
#     4   9  18  35  57  78 104 142 187 235 284 333
#     4   9  18  35  57  78 104 142 187 235 284 333
#     4  11  22  35  53  82 118 150 180 227 293 353
#     4   9  19  37  59  80 104 141 192 242 284 335
#
# _framework density 19.665638999999999
#
# number of rings (size 3 to 8) (size 9 to 14) (size 15 to 20)
#    0.000    2.500    0.000    3.750    0.000    6.500 
#    0.000   11.250    0.000    0.000    0.000    0.000 
#    0.000    0.000    0.000    0.000    0.000    0.000 
#
# Total GULP energy -178309.203308 kJ/mol
# GULP energy per Si atom -5572.162603 kJ/mol
# Density = 1.962088 g / cm^3
# Si number density = 19.665639 Si / 1000 Ang^3
#
#
#
# Elastic Constant Matrix: (Units=GPa)
#
#
# Indices 1 2 3 4 5 6 
#
# 1 86.8162 6.5653 52.6457 0.0000 0.0000 0.0000
# 2 6.5653 70.0227 0.6845 0.0000 0.0000 0.0000
# 3 52.6457 0.6845 81.2734 0.0000 0.0000 0.0000
# 4 0.0000 0.0000 0.0000 31.6458 0.0000 0.0000
# 5 0.0000 0.0000 0.0000 0.0000 891.7434 0.0000
# 6 0.0000 0.0000 0.0000 0.0000 0.0000 8.0053
#
#
#
# Elastic Compliance Matrix: (Units=1/GPa)
#
#
# Indices 1 2 3 4 5 6 
#
# 1 0.019165 -0.001676 -0.012400 0.000000 0.000000 0.000000
# 2 -0.001676 0.014429 0.000964 0.000000 0.000000 0.000000
# 3 -0.012400 0.000964 0.020328 0.000000 0.000000 0.000000
# 4 0.000000 0.000000 0.000000 0.031600 0.000000 0.000000
# 5 0.000000 0.000000 0.000000 0.000000 0.001121 0.000000
# 6 0.000000 0.000000 0.000000 0.000000 0.000000 0.124917
#
#
# Mechanical properties :
#
#
# Convention : Reuss Voigt Hill
#
# Bulk Modulus (GPa) = 36.10346 39.76705 37.93526
# Shear Modulus (GPa) = 20.24157 198.16001 109.20079
#
# Velocity S-wave (km/s) = 3.21173 10.04905 7.45984
# Velocity P-wave (km/s) = 5.67028 12.44628 9.67114
#
# Compressibility (1/GPa) = 0.02769818
#
# Stress axis : x y z
#
# Youngs Moduli (GPa) = 52.17917 69.30596 49.19258
#
# Poissons Ratio (x) = 0.11613 0.60999
# Poissons Ratio (y) = 0.08743 -0.04742
# Poissons Ratio (z) = 0.64702 -0.06680
#
# Static dielectric constant tensor:
#      x y z
#    x 1.678410 0.000000 0.000000 
#    y 0.000000 1.743640 0.000000 
#    z 0.000000 0.000000 1.717860 
# 
# From -- ./inp_files/5392.got.cif
#   From: 2010.05.17/outbox.cif.g08.bks.cpg/sg21_3_cif.got.tgz:5392.got - 2010.06.03 23:14:55.
