data_PCOD9325214
_publ_section_title
;
Structure prediction by ZEFSAII (Michael W. Deem and Ramdas Pophale) SiO2 
 PCOD9325214
Probable space group: C 2 2 2
;
_chemical_formula_sum "Si O2"
_cell_formula_units_Z 56
_cell_length_a 26.224196
_cell_length_b 10.424774
_cell_length_c 12.661109
_cell_angle_alpha 90.000000
_cell_angle_beta 90.000000
_cell_angle_gamma 90.000000
_cell_volume 3461.310648
_symmetry_space_group_name_H-M "C 2 2 2"
_symmetry_group_IT_number 21
_symmetry_cell_setting 'orthorhombic'
loop_
_space_group_symop_operation_xyz
x,y,z
-x,-y,z
x,-y,-z
-x,y,-z
1/2+x,1/2+y,z
1/2-x,1/2-y,z
1/2+x,1/2-y,-z
1/2-x,1/2+y,-z
loop_
_atom_site_type_symbol
_atom_site_label
_atom_site_fract_x
_atom_site_fract_y
_atom_site_fract_z
Si Si1 0.819203 0.500001 0.873123
Si Si2 0.370550 0.736706 0.807005
Si Si3 0.941437 0.846477 0.375030
Si Si4 0.801892 0.999999 0.127380
Si Si5 0.440331 0.654645 1.000000
Si Si6 0.629450 0.736704 0.807005
Si Si7 0.441437 0.346477 0.624970
O O1 0.844589 0.373048 0.825721
O O2 0.758499 0.499999 0.854462
O O3 0.844588 0.626955 0.825722
O O4 0.826913 0.500000 0.000000
O O5 0.399901 0.722382 0.696696
O O6 0.328724 0.625102 0.824138
O O7 0.412452 0.709992 0.897600
O O8 0.934592 0.824487 0.500000
O O9 1.000000 0.810869 0.347561
O O10 0.936979 0.000000 0.356458
O O11 0.828724 0.125098 0.175863
O O12 0.810192 0.000000 0.000000
O O13 0.412452 0.709992 0.102400
O O14 0.434901 0.500000 0.000000
O O15 0.500000 0.684623 0.000000
O O16 0.600099 0.722382 0.696697
#
# Coordination Sequence:
#
# PCOD9325214 Si02
#       7
#     8   8   8   8   8   8   8
#     4  11  24  36  53  78 117 147 184 224 268 334
#     4  12  19  36  55  82 110 143 179 224 277 320
#     4   9  18  34  59  86 108 139 184 227 267 321
#     4  11  20  36  57  80 105 145 192 228 268 322
#     4  11  20  31  52  82 107 136 177 225 270 322
#     4  12  19  36  55  82 110 143 179 224 277 320
#     4   9  18  34  59  86 108 139 184 227 267 321
#
# _framework density 16.178843000000001
#
# number of rings (size 3 to 8) (size 9 to 14) (size 15 to 20)
#    0.000    1.286    5.714    2.571    0.000    4.571 
#    0.000    4.286    0.000    6.857    0.000    0.000 
#    0.000    0.000    0.000    0.000    0.000    0.000 
#
# Total GULP energy -156366.142667 kJ/mol
# GULP energy per Si atom -5584.505095 kJ/mol
# Density = 1.614202 g / cm^3
# Si number density = 16.178843 Si / 1000 Ang^3
#
#
#
# Elastic Constant Matrix: (Units=GPa)
#
#
# Indices 1 2 3 4 5 6 
#
# 1 153.2031 85.9155 69.0722 0.0000 0.0000 0.0000
# 2 85.9155 136.3860 48.5437 0.0000 0.0000 0.0000
# 3 69.0722 48.5437 73.4901 0.0000 0.0000 0.0000
# 4 0.0000 0.0000 0.0000 21.9634 0.0000 0.0000
# 5 0.0000 0.0000 0.0000 0.0000 32.6130 0.0000
# 6 0.0000 0.0000 0.0000 0.0000 0.0000 -69.8845
#
#
#
# Elastic Compliance Matrix: (Units=1/GPa)
#
#
# Indices 1 2 3 4 5 6 
#
# 1 0.013751 -0.005311 -0.009416 0.000000 0.000000 0.000000
# 2 -0.005311 0.011637 -0.002695 0.000000 0.000000 0.000000
# 3 -0.009416 -0.002695 0.024238 0.000000 0.000000 0.000000
# 4 0.000000 0.000000 0.000000 0.045530 0.000000 0.000000
# 5 0.000000 0.000000 0.000000 0.000000 0.030663 0.000000
# 6 0.000000 0.000000 0.000000 0.000000 0.000000 -0.014309
#
#
# Mechanical properties :
#
#
# Convention : Reuss Voigt Hill
#
# Bulk Modulus (GPa) = 67.65390 85.57134 76.61262
# Shear Modulus (GPa) = 33.05119 7.57491 20.31305
#
# Velocity S-wave (km/s) = 4.52471 2.16614 3.54719
# Velocity P-wave (km/s) = 8.31892 7.69818 8.01456
#
# Compressibility (1/GPa) = 0.01478111
#
# Stress axis : x y z
#
# Youngs Moduli (GPa) = 72.72270 85.93337 41.25797
#
# Poissons Ratio (x) = 0.45637 0.38849
# Poissons Ratio (y) = 0.38621 0.11120
# Poissons Ratio (z) = 0.68477 0.23161
#
# Static dielectric constant tensor:
#      x y z
#    x 1.532870 0.000000 0.000000 
#    y 0.000000 1.521350 0.000000 
#    z 0.000000 0.000000 1.535570 
# 
# From -- ./inp_files/27457.got.cif
#   From: 2010.05.17/outbox.cif.g08.bks.cpg/sg21_14_cif.got.tgz:27457.got - 2010.06.03 23:14:55.
