data_PCOD9325629
_publ_section_title
;
Structure prediction by ZEFSAII (Michael W. Deem and Ramdas Pophale) SiO2 
 PCOD9325629
Probable space group: C 2 2 2
;
_chemical_formula_sum "Si O2"
_cell_formula_units_Z 32
_cell_length_a 24.473071
_cell_length_b 9.243206
_cell_length_c 6.498479
_cell_angle_alpha 90.000000
_cell_angle_beta 90.000000
_cell_angle_gamma 90.000000
_cell_volume 1470.018574
_symmetry_space_group_name_H-M "C 2 2 2"
_symmetry_group_IT_number 21
_symmetry_cell_setting 'orthorhombic'
loop_
_space_group_symop_operation_xyz
x,y,z
-x,-y,z
x,-y,-z
-x,y,-z
1/2+x,1/2+y,z
1/2-x,1/2-y,z
1/2+x,1/2-y,-z
1/2-x,1/2+y,-z
loop_
_atom_site_type_symbol
_atom_site_label
_atom_site_fract_x
_atom_site_fract_y
_atom_site_fract_z
Si Si1 0.606424 0.605131 0.669717
Si Si2 0.934646 0.668429 0.017021
Si Si3 0.750000 0.250000 0.861547
Si Si4 0.146319 0.345054 0.386696
Si Si5 0.180694 0.000000 0.000000
O O1 0.576963 0.500000 0.500000
O O2 0.579096 0.710886 0.842346
O O3 0.644553 0.718743 0.553214
O O4 0.643245 0.497554 0.801249
O O5 0.915993 0.500000 0.000000
O O6 0.904187 0.696516 0.233436
O O7 0.000000 0.664587 0.000000
O O8 0.795772 0.335622 0.730126
O O9 0.717434 0.360231 0.001320
O O10 0.138104 0.500000 0.500000
#
# Coordination Sequence:
#
# PCOD9325629 Si02
#       5
#     8   8   4   8   4
#     4  12  24  50  72 105 152 187 247 306 374 448
#     4  11  25  50  77 110 150 195 256 319 372 448
#     4  12  28  44  74 106 148 196 244 310 374 458
#     4  12  27  46  74 111 147 196 249 304 380 454
#     4  12  28  46  69 104 149 192 244 302 372 448
#
# _framework density 21.768433000000002
#
# number of rings (size 3 to 8) (size 9 to 14) (size 15 to 20)
#    0.000    0.250    7.500    0.000    8.750    1.000 
#    0.000    9.375    0.000    0.000    0.000    0.000 
#    0.000    0.000    0.000    0.000    0.000    0.000 
#
# Total GULP energy -89123.887127 kJ/mol
# GULP energy per Si atom -5570.242945 kJ/mol
# Density = 2.171889 g / cm^3
# Si number density = 21.768433 Si / 1000 Ang^3
#
#
#
# Elastic Constant Matrix: (Units=GPa)
#
#
# Indices 1 2 3 4 5 6 
#
# 1 68.7135 15.9429 36.6367 0.0000 0.0000 0.0000
# 2 15.9429 150.5308 47.3684 0.0000 0.0000 0.0000
# 3 36.6367 47.3684 104.7734 0.0000 0.0000 0.0000
# 4 0.0000 0.0000 0.0000 39.0489 0.0000 0.0000
# 5 0.0000 0.0000 0.0000 0.0000 0.9319 0.0000
# 6 0.0000 0.0000 0.0000 0.0000 0.0000 2.3682
#
#
#
# Elastic Compliance Matrix: (Units=1/GPa)
#
#
# Indices 1 2 3 4 5 6 
#
# 1 0.017889 0.000086 -0.006294 0.000000 0.000000 0.000000
# 2 0.000086 0.007745 -0.003532 0.000000 0.000000 0.000000
# 3 -0.006294 -0.003532 0.013342 0.000000 0.000000 0.000000
# 4 0.000000 0.000000 0.000000 0.025609 0.000000 0.000000
# 5 0.000000 0.000000 0.000000 0.000000 1.073085 0.000000
# 6 0.000000 0.000000 0.000000 0.000000 0.000000 0.422256
#
#
# Mechanical properties :
#
#
# Convention : Reuss Voigt Hill
#
# Bulk Modulus (GPa) = 51.29114 58.21263 54.75188
# Shear Modulus (GPa) = 3.15277 23.40778 13.28028
#
# Velocity S-wave (km/s) = 1.20477 3.28275 2.47264
# Velocity P-wave (km/s) = 5.05456 6.41626 5.77568
#
# Compressibility (1/GPa) = 0.01949654
#
# Stress axis : x y z
#
# Youngs Moduli (GPa) = 55.89958 129.10846 74.95066
#
# Poissons Ratio (x) = -0.01110 0.47176
# Poissons Ratio (y) = -0.00481 0.26471
# Poissons Ratio (z) = 0.35185 0.45599
#
# Static dielectric constant tensor:
#      x y z
#    x 1.758190 0.000000 0.000000 
#    y 0.000000 1.863950 0.000000 
#    z 0.000000 0.000000 1.903410 
# 
# From -- ./inp_files/7795.got.cif
#   From: 2010.05.17/outbox.cif.g08.bks.cpg/sg21_4_cif.got.tgz:7795.got - 2010.06.03 23:14:55.
