data_PCOD9325621
_publ_section_title
;
Structure prediction by ZEFSAII (Michael W. Deem and Ramdas Pophale) SiO2 
 PCOD9325621
Probable space group: C 2 2 2
;
_chemical_formula_sum "Si O2"
_cell_formula_units_Z 48
_cell_length_a 11.795050
_cell_length_b 8.721249
_cell_length_c 21.685717
_cell_angle_alpha 90.000000
_cell_angle_beta 90.000000
_cell_angle_gamma 90.000000
_cell_volume 2230.756969
_symmetry_space_group_name_H-M "C 2 2 2"
_symmetry_group_IT_number 21
_symmetry_cell_setting 'orthorhombic'
loop_
_space_group_symop_operation_xyz
x,y,z
-x,-y,z
x,-y,-z
-x,y,-z
1/2+x,1/2+y,z
1/2-x,1/2-y,z
1/2+x,1/2-y,-z
1/2-x,1/2+y,-z
loop_
_atom_site_type_symbol
_atom_site_label
_atom_site_fract_x
_atom_site_fract_y
_atom_site_fract_z
Si Si1 0.781031 0.074021 0.749182
Si Si2 0.050378 0.847495 0.644545
Si Si3 0.894497 0.116667 0.160882
Si Si4 0.584225 0.864335 0.729402
Si Si5 0.630926 0.320691 0.517619
Si Si6 0.627515 0.321545 0.020263
O O1 0.750000 0.250000 0.757604
O O2 0.889309 0.088752 0.705833
O O3 0.795893 0.994699 0.815039
O O4 0.697087 0.958403 0.714928
O O5 0.130200 0.786180 0.591235
O O6 0.963165 0.723094 0.669937
O O7 0.000000 0.000000 0.614979
O O8 0.905875 0.243209 0.214734
O O9 0.874772 0.186749 0.094455
O O10 0.000000 0.000000 0.157663
O O11 0.500000 0.000000 0.749264
O O12 0.638425 0.500000 0.500000
O O13 0.500000 0.269276 0.500000
O O14 0.750000 0.250000 0.492259
O O15 0.750000 0.250000 0.999312
O O16 0.630118 0.500000 0.000000
O O17 0.500000 0.262846 0.000000
#
# Coordination Sequence:
#
# PCOD9325621 Si02
#       6
#     8   8   8   8   8   8
#     4  12  23  40  66 103 140 179 226 287 356 433
#     4  12  23  44  69  97 142 180 230 294 355 421
#     4  12  22  45  69  96 141 184 228 294 357 419
#     4  12  24  41  65 104 138 175 226 276 360 426
#     4  11  26  50  72 102 140 187 244 295 355 418
#     4  11  25  48  72 101 141 188 244 298 355 418
#
# _framework density 21.51736
#
# number of rings (size 3 to 8) (size 9 to 14) (size 15 to 20)
#    0.000    0.333    8.333    2.000    0.000    2.667 
#    6.000    0.000    0.000    0.000    0.000    0.000 
#    0.000    0.000    0.000    0.000    0.000    0.000 
#
# Total GULP energy -133737.654922 kJ/mol
# GULP energy per Si atom -5572.402288 kJ/mol
# Density = 2.146839 g / cm^3
# Si number density = 21.517360 Si / 1000 Ang^3
#
#
#
# Elastic Constant Matrix: (Units=GPa)
#
#
# Indices 1 2 3 4 5 6 
#
# 1 160.2828 59.2781 24.7443 0.0000 0.0000 0.0000
# 2 59.2781 107.4750 22.9777 0.0000 0.0000 0.0000
# 3 24.7443 22.9777 89.7453 0.0000 0.0000 0.0000
# 4 0.0000 0.0000 0.0000 8.1418 0.0000 0.0000
# 5 0.0000 0.0000 0.0000 0.0000 121.0992 0.0000
# 6 0.0000 0.0000 0.0000 0.0000 0.0000 44.6790
#
#
#
# Elastic Compliance Matrix: (Units=1/GPa)
#
#
# Indices 1 2 3 4 5 6 
#
# 1 0.007945 -0.004140 -0.001130 0.000000 0.000000 0.000000
# 2 -0.004140 0.012001 -0.001931 0.000000 0.000000 0.000000
# 3 -0.001130 -0.001931 0.011949 0.000000 0.000000 0.000000
# 4 0.000000 0.000000 0.000000 0.122823 0.000000 0.000000
# 5 0.000000 0.000000 0.000000 0.000000 0.008258 0.000000
# 6 0.000000 0.000000 0.000000 0.000000 0.000000 0.022382
#
#
# Mechanical properties :
#
#
# Convention : Reuss Voigt Hill
#
# Bulk Modulus (GPa) = 57.17291 63.50037 60.33664
# Shear Modulus (GPa) = 24.32014 51.48420 37.90217
#
# Velocity S-wave (km/s) = 3.36558 4.89681 4.20154
# Velocity P-wave (km/s) = 6.45996 7.84519 7.18603
#
# Compressibility (1/GPa) = 0.01749080
#
# Stress axis : x y z
#
# Youngs Moduli (GPa) = 125.87031 83.32713 83.69074
#
# Poissons Ratio (x) = 0.34499 0.09461
# Poissons Ratio (y) = 0.52113 0.16161
# Poissons Ratio (z) = 0.14229 0.16091
#
# Static dielectric constant tensor:
#      x y z
#    x 1.871090 0.000000 0.000000 
#    y 0.000000 1.660310 0.000000 
#    z 0.000000 0.000000 1.754070 
# 
# From -- ./inp_files/38630.got.cif
#   From: 2010.05.17/outbox.cif.g08.bks.cpg/sg21_20_cif.got.tgz:38630.got - 2010.06.03 23:14:55.
