data_PCOD9325333
_publ_section_title
;
Structure prediction by ZEFSAII (Michael W. Deem and Ramdas Pophale) SiO2 
 PCOD9325333
Probable space group: C 2 2 2
;
_chemical_formula_sum "Si O2"
_cell_formula_units_Z 32
_cell_length_a 11.152162
_cell_length_b 12.097699
_cell_length_c 10.653531
_cell_angle_alpha 90.000000
_cell_angle_beta 90.000000
_cell_angle_gamma 90.000000
_cell_volume 1437.326452
_symmetry_space_group_name_H-M "C 2 2 2"
_symmetry_group_IT_number 21
_symmetry_cell_setting 'orthorhombic'
loop_
_space_group_symop_operation_xyz
x,y,z
-x,-y,z
x,-y,-z
-x,y,-z
1/2+x,1/2+y,z
1/2-x,1/2-y,z
1/2+x,1/2-y,-z
1/2-x,1/2+y,-z
loop_
_atom_site_type_symbol
_atom_site_label
_atom_site_fract_x
_atom_site_fract_y
_atom_site_fract_z
Si Si1 0.315148 0.000000 0.500000
Si Si2 0.989392 0.179034 0.752149
Si Si3 0.307304 0.494481 0.231947
Si Si4 0.000000 0.304851 0.500000
Si Si5 0.928519 0.594788 0.868333
O O1 0.243935 0.022964 0.371944
O O2 0.392456 0.889915 0.471098
O O3 0.089394 0.084972 0.753031
O O4 0.963826 0.225724 0.613986
O O5 0.049549 0.284317 0.817046
O O6 0.870495 0.120665 0.809310
O O7 0.205923 0.547983 0.142061
O O8 0.000000 0.500000 0.790872
O O9 0.000000 0.600556 0.000000
#
# Coordination Sequence:
#
# PCOD9325333 Si02
#       5
#     4   8   8   4   8
#     4  11  22  37  68 108 152 185 231 290 366 442
#     4  11  24  44  71 107 144 188 237 294 369 435
#     4  11  24  44  70 108 146 186 238 299 362 441
#     4  11  22  37  68 108 148 187 231 286 368 442
#     4  11  25  48  69  99 137 189 245 298 358 419
#
# _framework density 22.263556000000001
#
# number of rings (size 3 to 8) (size 9 to 14) (size 15 to 20)
#    0.000    1.000    2.500    3.750    0.000    8.000 
#   18.000    1.250    0.000    0.000    0.000    0.000 
#    0.000    0.000    0.000    0.000    0.000    0.000 
#
# Total GULP energy -89270.767046 kJ/mol
# GULP energy per Si atom -5579.422940 kJ/mol
# Density = 2.221288 g / cm^3
# Si number density = 22.263556 Si / 1000 Ang^3
#
#
#
# Elastic Constant Matrix: (Units=GPa)
#
#
# Indices 1 2 3 4 5 6 
#
# 1 131.4302 68.2395 33.6066 0.0000 0.0000 0.0000
# 2 68.2395 163.5152 21.0853 0.0000 0.0000 0.0000
# 3 33.6066 21.0853 67.0925 0.0000 0.0000 0.0000
# 4 0.0000 0.0000 0.0000 9.0830 0.0000 0.0000
# 5 0.0000 0.0000 0.0000 0.0000 -47.4417 0.0000
# 6 0.0000 0.0000 0.0000 0.0000 0.0000 47.9770
#
#
#
# Elastic Compliance Matrix: (Units=1/GPa)
#
#
# Indices 1 2 3 4 5 6 
#
# 1 0.010708 -0.003936 -0.004126 0.000000 0.000000 0.000000
# 2 -0.003936 0.007821 -0.000486 0.000000 0.000000 0.000000
# 3 -0.004126 -0.000486 0.017124 0.000000 0.000000 0.000000
# 4 0.000000 0.000000 0.000000 0.110096 0.000000 0.000000
# 5 0.000000 0.000000 0.000000 0.000000 -0.021078 0.000000
# 6 0.000000 0.000000 0.000000 0.000000 0.000000 0.020843
#
#
# Mechanical properties :
#
#
# Convention : Reuss Voigt Hill
#
# Bulk Modulus (GPa) = 53.89312 67.54451 60.71881
# Shear Modulus (GPa) = 29.62145 17.86410 23.74278
#
# Velocity S-wave (km/s) = 3.65155 2.83573 3.26918
# Velocity P-wave (km/s) = 6.48366 6.41297 6.44841
#
# Compressibility (1/GPa) = 0.01855525
#
# Stress axis : x y z
#
# Youngs Moduli (GPa) = 93.39224 127.85869 58.39606
#
# Poissons Ratio (x) = 0.50331 0.24096
# Poissons Ratio (y) = 0.36764 0.02839
# Poissons Ratio (z) = 0.38536 0.06216
#
# Static dielectric constant tensor:
#      x y z
#    x 1.875140 0.000000 0.000000 
#    y 0.000000 2.272750 0.000000 
#    z 0.000000 0.000000 1.808270 
# 
# From -- ./inp_files/23459.got.cif
#   From: 2010.05.17/outbox.cif.g08.bks.cpg/sg21_12_cif.got.tgz:23459.got - 2010.06.03 23:14:55.
