data_PCOD9325211
_publ_section_title
;
Structure prediction by ZEFSAII (Michael W. Deem and Ramdas Pophale) SiO2 
 PCOD9325211
Probable space group: C 2 2 2
;
_chemical_formula_sum "Si O2"
_cell_formula_units_Z 56
_cell_length_a 18.358735
_cell_length_b 22.235836
_cell_length_c 8.960827
_cell_angle_alpha 90.000000
_cell_angle_beta 90.000000
_cell_angle_gamma 90.000000
_cell_volume 3658.005112
_symmetry_space_group_name_H-M "C 2 2 2"
_symmetry_group_IT_number 21
_symmetry_cell_setting 'orthorhombic'
loop_
_space_group_symop_operation_xyz
x,y,z
-x,-y,z
x,-y,-z
-x,y,-z
1/2+x,1/2+y,z
1/2-x,1/2-y,z
1/2+x,1/2-y,-z
1/2-x,1/2+y,-z
loop_
_atom_site_type_symbol
_atom_site_label
_atom_site_fract_x
_atom_site_fract_y
_atom_site_fract_z
Si Si1 0.418331 0.280727 0.179476
Si Si2 0.233051 0.821839 0.172199
Si Si3 0.121330 0.652533 0.322585
Si Si4 0.500000 0.928628 0.176790
Si Si5 0.581669 0.280727 0.179476
Si Si6 0.621330 0.152533 0.677415
Si Si7 0.233051 0.178161 0.172199
O O1 0.500000 0.302692 0.210420
O O2 0.406609 0.216876 0.259843
O O3 0.351308 0.324343 0.220516
O O4 0.411969 0.270639 0.000000
O O5 0.250000 0.750000 0.175539
O O6 0.294682 0.852506 0.271139
O O7 0.148692 0.824343 0.220516
O O8 0.240405 0.841438 1.000000
O O9 0.093391 0.716876 0.259843
O O10 0.115262 0.651706 0.500000
O O11 0.070461 0.602137 0.250179
O O12 0.570461 0.897862 0.250179
O O13 0.500000 0.000000 0.199066
O O14 0.500000 0.915770 0.000000
O O15 0.705318 0.147494 0.728861
O O16 0.250000 0.250000 0.175539
#
# Coordination Sequence:
#
# PCOD9325211 Si02
#       7
#     8   8   8   8   8   8   8
#     4   9  16  27  44  63  87 120 153 180 209 252
#     4   8  15  27  42  60  83 116 151 178 208 253
#     4  11  20  29  43  63  87 114 142 181 227 262
#     4  11  23  37  51  63  79 111 153 191 224 263
#     4   9  16  27  44  63  87 120 153 180 209 252
#     4  11  20  29  43  63  87 114 142 181 227 262
#     4   8  15  27  42  60  83 116 151 178 208 253
#
# _framework density 15.308890999999999
#
# number of rings (size 3 to 8) (size 9 to 14) (size 15 to 20)
#    0.000    2.429    1.429    4.714    0.000    6.286 
#    0.000    0.000    0.000    0.000    0.000    0.000 
#    0.000    1.143    0.000   13.143    0.000    3.714 
#
# Total GULP energy -155997.880850 kJ/mol
# GULP energy per Si atom -5571.352888 kJ/mol
# Density = 1.527405 g / cm^3
# Si number density = 15.308891 Si / 1000 Ang^3
#
#
#
# Elastic Constant Matrix: (Units=GPa)
#
#
# Indices 1 2 3 4 5 6 
#
# 1 170.8008 37.9093 60.7774 0.0000 0.0000 0.0000
# 2 37.9093 34.4941 38.5075 0.0000 0.0000 0.0000
# 3 60.7774 38.5075 79.4604 0.0000 0.0000 0.0000
# 4 0.0000 0.0000 0.0000 -2.0054 0.0000 0.0000
# 5 0.0000 0.0000 0.0000 0.0000 3.0442 0.0000
# 6 0.0000 0.0000 0.0000 0.0000 0.0000 12.4590
#
#
#
# Elastic Compliance Matrix: (Units=1/GPa)
#
#
# Indices 1 2 3 4 5 6 
#
# 1 0.008347 -0.004458 -0.004224 0.000000 0.000000 0.000000
# 2 -0.004458 0.065541 -0.028352 0.000000 0.000000 0.000000
# 3 -0.004224 -0.028352 0.029556 0.000000 0.000000 0.000000
# 4 0.000000 0.000000 0.000000 -0.498647 0.000000 0.000000
# 5 0.000000 0.000000 0.000000 0.000000 0.328496 0.000000
# 6 0.000000 0.000000 0.000000 0.000000 0.000000 0.080263
#
#
# Mechanical properties :
#
#
# Convention : Reuss Voigt Hill
#
# Bulk Modulus (GPa) = 34.04242 62.12706 48.08474
# Shear Modulus (GPa) = 51.32636 12.53696 31.93166
#
# Velocity S-wave (km/s) = 5.79655 2.86481 4.57204
# Velocity P-wave (km/s) = 8.19056 7.18424 7.70385
#
# Compressibility (1/GPa) = 0.02937512
#
# Stress axis : x y z
#
# Youngs Moduli (GPa) = 119.79765 15.25771 33.83454
#
# Poissons Ratio (x) = 0.06802 0.14293
# Poissons Ratio (y) = 0.53407 0.95927
# Poissons Ratio (z) = 0.50606 0.43258
#
# Static dielectric constant tensor:
#      x y z
#    x 1.575980 0.000000 0.000000 
#    y 0.000000 1.460040 0.000000 
#    z 0.000000 0.000000 1.506370 
# 
# From -- ./inp_files/16761.got.cif
#   From: 2010.05.17/outbox.cif.g08.bks.cpg/sg21_9_cif.got.tgz:16761.got - 2010.06.03 23:14:55.
