data_PCOD9325373
_publ_section_title
;
Structure prediction by ZEFSAII (Michael W. Deem and Ramdas Pophale) SiO2 
 PCOD9325373
Probable space group: C 2 2 2
;
_chemical_formula_sum "Si O2"
_cell_formula_units_Z 36
_cell_length_a 8.302027
_cell_length_b 15.073147
_cell_length_c 13.817302
_cell_angle_alpha 90.000000
_cell_angle_beta 90.000000
_cell_angle_gamma 90.000000
_cell_volume 1729.065025
_symmetry_space_group_name_H-M "C 2 2 2"
_symmetry_group_IT_number 21
_symmetry_cell_setting 'orthorhombic'
loop_
_space_group_symop_operation_xyz
x,y,z
-x,-y,z
x,-y,-z
-x,y,-z
1/2+x,1/2+y,z
1/2-x,1/2-y,z
1/2+x,1/2-y,-z
1/2-x,1/2+y,-z
loop_
_atom_site_type_symbol
_atom_site_label
_atom_site_fract_x
_atom_site_fract_y
_atom_site_fract_z
Si Si1 0.873518 0.682538 0.076915
Si Si2 0.153890 0.437729 0.251582
Si Si3 0.416977 0.303251 0.782117
Si Si4 0.431112 0.218542 0.394388
Si Si5 0.500000 0.500000 0.759561
O O1 0.750000 0.750000 0.025547
O O2 0.806127 0.607278 0.147600
O O3 0.960908 0.748727 0.151562
O O4 0.000000 0.646318 0.000000
O O5 0.082694 0.368302 0.328217
O O6 0.327572 0.472875 0.288983
O O7 0.000000 0.500000 0.233689
O O8 0.250000 0.250000 0.791969
O O9 0.470281 0.289566 0.670123
O O10 0.436074 0.407284 0.808097
O O11 0.500000 0.202642 0.500000
O O12 0.250000 0.250000 0.405462
#
# Coordination Sequence:
#
# PCOD9325373 Si02
#       5
#     8   8   8   8   4
#     4  11  22  43  65  92 133 175 220 277 342 412
#     4  11  24  43  70  98 136 175 228 282 347 419
#     4  11  22  41  68  98 130 179 228 282 349 409
#     4  11  22  43  65  92 133 175 220 277 342 412
#     4  12  20  42  74  98 132 176 240 292 342 408
#
# _framework density 20.820501
#
# number of rings (size 3 to 8) (size 9 to 14) (size 15 to 20)
#    0.000    0.889    4.444    5.333    0.000    0.889 
#    0.000    1.111    0.000    0.000    0.000    0.000 
#    0.000    0.000    0.000    0.000    0.000    0.000 
#
# Total GULP energy -100235.745762 kJ/mol
# GULP energy per Si atom -5568.652542 kJ/mol
# Density = 2.077311 g / cm^3
# Si number density = 20.820501 Si / 1000 Ang^3
#
#
#
# Elastic Constant Matrix: (Units=GPa)
#
#
# Indices 1 2 3 4 5 6 
#
# 1 109.2343 38.7110 5.9454 0.0000 0.0000 0.0000
# 2 38.7110 94.1795 7.3793 0.0000 0.0000 0.0000
# 3 5.9454 7.3793 92.9516 0.0000 0.0000 0.0000
# 4 0.0000 0.0000 0.0000 16.6838 0.0000 0.0000
# 5 0.0000 0.0000 0.0000 0.0000 22.5281 0.0000
# 6 0.0000 0.0000 0.0000 0.0000 0.0000 16.8307
#
#
#
# Elastic Compliance Matrix: (Units=1/GPa)
#
#
# Indices 1 2 3 4 5 6 
#
# 1 0.010726 -0.004382 -0.000338 0.000000 0.000000 0.000000
# 2 -0.004382 0.012475 -0.000710 0.000000 0.000000 0.000000
# 3 -0.000338 -0.000710 0.010836 0.000000 0.000000 0.000000
# 4 0.000000 0.000000 0.000000 0.059939 0.000000 0.000000
# 5 0.000000 0.000000 0.000000 0.000000 0.044389 0.000000
# 6 0.000000 0.000000 0.000000 0.000000 0.000000 0.059415
#
#
# Mechanical properties :
#
#
# Convention : Reuss Voigt Hill
#
# Bulk Modulus (GPa) = 43.14760 44.49297 43.82029
# Shear Modulus (GPa) = 23.10894 27.49717 25.30306
#
# Velocity S-wave (km/s) = 3.33515 3.63806 3.48989
# Velocity P-wave (km/s) = 5.96654 6.25008 6.10995
#
# Compressibility (1/GPa) = 0.02317626
#
# Stress axis : x y z
#
# Youngs Moduli (GPa) = 93.23087 80.16075 92.28257
#
# Poissons Ratio (x) = 0.35129 0.03121
# Poissons Ratio (y) = 0.40856 0.06553
# Poissons Ratio (z) = 0.03153 0.05692
#
# Static dielectric constant tensor:
#      x y z
#    x 1.627400 0.000000 0.000000 
#    y 0.000000 1.833660 0.000000 
#    z 0.000000 0.000000 1.786660 
# 
# From -- ./inp_files/30064.got.cif
#   From: 2010.05.17/outbox.cif.g08.bks.cpg/sg21_16_cif.got.tgz:30064.got - 2010.06.03 23:14:55.
