data_PCOD9325836
_publ_section_title
;
Structure prediction by ZEFSAII (Michael W. Deem and Ramdas Pophale) SiO2 
 PCOD9325836
Probable space group: C 2 2 2
;
_chemical_formula_sum "Si O2"
_cell_formula_units_Z 32
_cell_length_a 15.000000
_cell_length_b 24.000000
_cell_length_c 9.000000
_cell_angle_alpha 90.000000
_cell_angle_beta 90.000000
_cell_angle_gamma 90.000000
_cell_volume 3240.000000
_symmetry_space_group_name_H-M "C 2 2 2"
_symmetry_group_IT_number 21
_symmetry_cell_setting 'orthorhombic'
loop_
_space_group_symop_operation_xyz
x,y,z
-x,-y,z
x,-y,-z
-x,y,-z
1/2+x,1/2+y,z
1/2-x,1/2-y,z
1/2+x,1/2-y,-z
1/2-x,1/2+y,-z
loop_
_atom_site_type_symbol
_atom_site_label
_atom_site_fract_x
_atom_site_fract_y
_atom_site_fract_z
Si Si1 0.859636 0.113711 0.844627
Si Si2 0.716575 0.501514 0.818536
Si Si3 0.511504 0.663358 0.662408
Si Si4 0.818811 0.126076 0.195517
Si Si5 0.299397 0.808794 0.826551
Si Si6 0.910073 0.521368 0.830778
Si Si7 0.975247 0.707209 0.338960
Si Si8 0.623500 0.151784 0.140720
O O1 0.843928 0.051153 0.790215
O O2 0.778599 0.149626 0.779987
O O3 0.953969 0.133407 0.787632
O O4 0.846262 0.124039 0.020965
O O5 0.681061 0.560709 0.764654
O O6 0.818422 0.498135 0.763576
O O7 0.722397 0.500000 0.000000
O O8 0.500000 0.637453 0.500000
O O9 0.612802 0.660919 0.710638
O O10 0.478603 0.726261 0.655806
O O11 0.720921 0.151314 0.214871
O O12 0.250000 0.750000 0.855557
O O13 0.375257 0.807108 0.704168
O O14 0.352305 0.829395 0.973767
O O15 0.906861 0.587722 0.846992
O O16 0.000000 0.500000 0.756119
O O17 0.910885 0.500000 0.000000
O O18 0.000000 0.683966 0.500000
O O19 0.047849 0.687703 0.218512
#
# Coordination Sequence:
#
# PCOD9325836 Si02
#       8
#     8   8   8   8   8   8   8   8
#     4  10  20  36  61  87 115 152 185 247 294 344
#     4   8  16  33  53  84 116 147 185 229 297 357
#     4  11  24  40  56  81 115 158 200 238 291 354
#     4   9  20  38  61  87 117 145 193 243 296 346
#     4  11  22  38  61  93 119 148 199 256 296 345
#     4   9  17  29  55  93 120 150 177 235 301 356
#     4  11  26  42  57  83 122 164 200 236 295 364
#     4  10  23  37  63  95 118 151 199 247 296 345
#
# _framework density 9.8765429999999999
#
# number of rings (size 3 to 8) (size 9 to 14) (size 15 to 20)
#    0.000    2.125    1.250    3.000    8.750    2.500 
#    0.000    3.125    0.000    0.375    0.000    0.000 
#    0.000    0.000    0.000    0.000    0.000    0.000 
#
# Total GULP energy -178318.984722 kJ/mol
# GULP energy per Si atom -5572.468273 kJ/mol
# Density = 0.985406 g / cm^3
# Si number density = 9.876543 Si / 1000 Ang^3
#
#
#
# Elastic Constant Matrix: (Units=GPa)
#
#
# Indices 1 2 3 4 5 6 
#
# 1 76.8616 13.6754 21.3693 0.0000 0.0000 0.0000
# 2 13.6754 0.4164 -0.0786 0.0000 0.0000 0.0000
# 3 21.3693 -0.0786 2.9433 0.0000 0.0000 0.0000
# 4 0.0000 0.0000 0.0000 22.6491 0.0000 0.0000
# 5 0.0000 0.0000 0.0000 0.0000 6.2334 0.0000
# 6 0.0000 0.0000 0.0000 0.0000 0.0000 1.8915
#
#
#
# Elastic Compliance Matrix: (Units=1/GPa)
#
#
# Indices 1 2 3 4 5 6 
#
# 1 -0.001760 0.060520 0.014397 0.000000 0.000000 0.000000
# 2 0.060520 0.332583 -0.430519 0.000000 0.000000 0.000000
# 3 0.014397 -0.430519 0.223729 0.000000 0.000000 0.000000
# 4 0.000000 0.000000 0.000000 0.044152 0.000000 0.000000
# 5 0.000000 0.000000 0.000000 0.000000 0.160427 0.000000
# 6 0.000000 0.000000 0.000000 0.000000 0.000000 0.528680
#
#
# Mechanical properties :
#
#
# Convention : Reuss Voigt Hill
#
# Bulk Modulus (GPa) = -6.38361 16.68372 5.15005
# Shear Modulus (GPa) = 2.56832 9.17181 5.87007
#
# Velocity S-wave (km/s) = 1.14151 2.15715 1.72574
# Velocity P-wave (km/s) = 1.22529 3.83000 2.56589
#
# Compressibility (1/GPa) = -0.15665108
#
# Stress axis : x y z
#
# Youngs Moduli (GPa) = -568.11419 3.00677 4.46970
#
# Poissons Ratio (x) = -0.18197 -0.06435
# Poissons Ratio (y) = 34.38251 1.92429
# Poissons Ratio (z) = 8.17911 1.29447
#
# Static dielectric constant tensor:
#      x y z
#    x 1.697190 0.000000 0.000000 
#    y 0.000000 1.716010 0.000000 
#    z 0.000000 0.000000 1.841860 
# 
# From -- ./inp_files/15496.got.cif
#   From: 2010.05.17/outbox.ucp.g08.bks.cvg/sg21_8_cif.got.tgz:15496.got - 2010.06.11 15:15:05.
