data_PCOD9325201
_publ_section_title
;
Structure prediction by ZEFSAII (Michael W. Deem and Ramdas Pophale) SiO2 
 PCOD9325201
Probable space group: C 2 2 2
;
_chemical_formula_sum "Si O2"
_cell_formula_units_Z 64
_cell_length_a 24.355749
_cell_length_b 12.607884
_cell_length_c 11.342738
_cell_angle_alpha 90.000000
_cell_angle_beta 90.000000
_cell_angle_gamma 90.000000
_cell_volume 3483.065125
_symmetry_space_group_name_H-M "C 2 2 2"
_symmetry_group_IT_number 21
_symmetry_cell_setting 'orthorhombic'
loop_
_space_group_symop_operation_xyz
x,y,z
-x,-y,z
x,-y,-z
-x,y,-z
1/2+x,1/2+y,z
1/2-x,1/2-y,z
1/2+x,1/2-y,-z
1/2-x,1/2+y,-z
loop_
_atom_site_type_symbol
_atom_site_label
_atom_site_fract_x
_atom_site_fract_y
_atom_site_fract_z
Si Si1 0.223112 0.087972 0.326829
Si Si2 0.587449 0.152060 0.762413
Si Si3 0.383735 0.908903 0.210751
Si Si4 0.774321 0.635913 0.662517
Si Si5 0.275445 0.390980 0.057048
Si Si6 0.325490 0.791842 0.582783
Si Si7 0.515491 0.874178 0.632828
Si Si8 0.844111 0.696787 0.019091
O O1 0.206409 0.105330 0.192546
O O2 0.281945 0.146291 0.335434
O O3 0.185412 0.165510 0.406949
O O4 0.232557 0.963370 0.354886
O O5 0.617229 0.173839 0.637156
O O6 0.524460 0.173751 0.732822
O O7 0.618131 0.213619 0.866100
O O8 0.596374 0.029734 0.799766
O O9 0.320252 0.905622 0.248858
O O10 0.423033 0.862745 0.314959
O O11 0.381380 0.849028 0.085874
O O12 0.750000 0.750000 0.700451
O O13 0.807441 0.663973 0.543265
O O14 0.209389 0.375129 0.050286
O O15 0.310864 0.303194 0.989530
O O16 0.288922 0.500000 0.000000
O O17 0.500000 0.836196 0.500000
O O18 0.500000 0.000000 0.630486
#
# Coordination Sequence:
#
# PCOD9325201 Si02
#       8
#     8   8   8   8   8   8   8   8
#     4  11  20  36  50  78 114 151 197 224 277 349
#     4  11  19  36  60  75 110 158 186 230 290 338
#     4  11  23  34  51  83 118 142 192 237 278 345
#     4  12  24  32  53  81 118 154 183 237 290 335
#     4  11  21  35  54  76 116 156 189 227 275 349
#     4  11  20  34  54  79 109 152 195 229 279 345
#     4   9  20  37  56  81 109 147 190 234 290 344
#     4  11  21  35  53  82 110 151 190 229 287 339
#
# _framework density 18.374621000000001
#
# number of rings (size 3 to 8) (size 9 to 14) (size 15 to 20)
#    0.000    1.125    5.000    3.750    3.500    1.500 
#    0.000    1.875    0.000    0.000    0.000    4.375 
#    0.000    6.000    0.000    0.000    0.000    0.000 
#
# Total GULP energy -178275.725261 kJ/mol
# GULP energy per Si atom -5571.116414 kJ/mol
# Density = 1.833280 g / cm^3
# Si number density = 18.374621 Si / 1000 Ang^3
#
#
#
# Elastic Constant Matrix: (Units=GPa)
#
#
# Indices 1 2 3 4 5 6 
#
# 1 55.1009 12.4136 13.2369 0.0000 0.0000 0.0000
# 2 12.4136 86.7002 15.5854 0.0000 0.0000 0.0000
# 3 13.2369 15.5854 70.9488 0.0000 0.0000 0.0000
# 4 0.0000 0.0000 0.0000 18.8282 0.0000 0.0000
# 5 0.0000 0.0000 0.0000 0.0000 11.7887 0.0000
# 6 0.0000 0.0000 0.0000 0.0000 0.0000 13.0461
#
#
#
# Elastic Compliance Matrix: (Units=1/GPa)
#
#
# Indices 1 2 3 4 5 6 
#
# 1 0.019400 -0.002214 -0.003133 0.000000 0.000000 0.000000
# 2 -0.002214 0.012261 -0.002280 0.000000 0.000000 0.000000
# 3 -0.003133 -0.002280 0.015180 0.000000 0.000000 0.000000
# 4 0.000000 0.000000 0.000000 0.053112 0.000000 0.000000
# 5 0.000000 0.000000 0.000000 0.000000 0.084827 0.000000
# 6 0.000000 0.000000 0.000000 0.000000 0.000000 0.076651
#
#
# Mechanical properties :
#
#
# Convention : Reuss Voigt Hill
#
# Bulk Modulus (GPa) = 31.65993 32.80244 32.23118
# Shear Modulus (GPa) = 17.40854 20.16686 18.78770
#
# Velocity S-wave (km/s) = 3.08136 3.31651 3.20109
# Velocity P-wave (km/s) = 5.47059 5.70582 5.58945
#
# Compressibility (1/GPa) = 0.03158567
#
# Stress axis : x y z
#
# Youngs Moduli (GPa) = 51.54625 81.55963 65.87575
#
# Poissons Ratio (x) = 0.18061 0.20639
# Poissons Ratio (y) = 0.11415 0.15021
# Poissons Ratio (z) = 0.16150 0.18597
#
# Static dielectric constant tensor:
#      x y z
#    x 1.655410 0.000000 0.000000 
#    y 0.000000 1.661520 0.000000 
#    z 0.000000 0.000000 1.883710 
# 
# From -- ./inp_files/24441.got.cif
#   From: 2010.05.17/outbox.cif.g08.bks.cpg/sg21_13_cif.got.tgz:24441.got - 2010.06.03 23:14:55.
