data_PCOD9325594
_publ_section_title
;
Structure prediction by ZEFSAII (Michael W. Deem and Ramdas Pophale) SiO2 
 PCOD9325594
Probable space group: C 2 2 2
;
_chemical_formula_sum "Si O2"
_cell_formula_units_Z 40
_cell_length_a 9.057948
_cell_length_b 11.602478
_cell_length_c 17.683939
_cell_angle_alpha 90.000000
_cell_angle_beta 90.000000
_cell_angle_gamma 90.000000
_cell_volume 1858.487245
_symmetry_space_group_name_H-M "C 2 2 2"
_symmetry_group_IT_number 21
_symmetry_cell_setting 'orthorhombic'
loop_
_space_group_symop_operation_xyz
x,y,z
-x,-y,z
x,-y,-z
-x,y,-z
1/2+x,1/2+y,z
1/2-x,1/2-y,z
1/2+x,1/2-y,-z
1/2-x,1/2+y,-z
loop_
_atom_site_type_symbol
_atom_site_label
_atom_site_fract_x
_atom_site_fract_y
_atom_site_fract_z
Si Si1 0.423060 0.225371 0.579168
Si Si2 0.750000 0.750000 0.814096
Si Si3 0.010498 0.361674 0.087603
Si Si4 0.405921 0.390057 0.307882
Si Si5 0.854619 0.450593 0.293509
Si Si6 0.750000 0.250000 0.816842
O O1 0.500000 0.202383 0.500000
O O2 0.250000 0.250000 0.566242
O O3 0.511225 0.326947 0.623451
O O4 0.420058 0.120475 0.637169
O O5 0.613708 0.786572 0.867980
O O6 0.758402 0.639331 0.756835
O O7 0.165391 0.336485 0.128676
O O8 0.000000 0.500000 0.087798
O O9 0.000000 0.325176 0.000000
O O10 0.500000 0.500000 0.284195
O O11 0.246617 0.446332 0.324197
O O12 0.371613 0.305286 0.238862
O O13 0.000000 0.500000 0.251957
#
# Coordination Sequence:
#
# PCOD9325594 Si02
#       6
#     8   4   8   8   8   4
#     4  12  28  49  68 100 143 182 233 295 354 421
#     4  12  21  46  73  98 144 178 228 292 333 408
#     4  11  25  44  69 104 143 182 224 276 347 414
#     4  12  24  46  71  99 136 178 238 287 345 410
#     4  12  25  45  72 104 135 183 237 289 350 412
#     4  12  25  42  73 104 132 182 230 284 335 408
#
# _framework density 21.522881000000002
#
# number of rings (size 3 to 8) (size 9 to 14) (size 15 to 20)
#    0.000    0.200    3.000    7.200    4.200    0.800 
#    0.000    0.000    0.000    4.800    0.000    0.000 
#    0.000    0.000    0.000    0.000    0.000    0.000 
#
# Total GULP energy -111719.356162 kJ/mol
# GULP energy per Si atom -5585.967808 kJ/mol
# Density = 2.147389 g / cm^3
# Si number density = 21.522881 Si / 1000 Ang^3
#
#
#
# Elastic Constant Matrix: (Units=GPa)
#
#
# Indices 1 2 3 4 5 6 
#
# 1 123.6632 42.8301 53.5389 0.0000 0.0000 0.0000
# 2 42.8301 96.1871 50.8619 0.0000 0.0000 0.0000
# 3 53.5389 50.8619 169.4456 0.0000 0.0000 0.0000
# 4 0.0000 0.0000 0.0000 -16.2117 0.0000 0.0000
# 5 0.0000 0.0000 0.0000 0.0000 25.9333 0.0000
# 6 0.0000 0.0000 0.0000 0.0000 0.0000 42.4474
#
#
#
# Elastic Compliance Matrix: (Units=1/GPa)
#
#
# Indices 1 2 3 4 5 6 
#
# 1 0.010215 -0.003378 -0.002214 0.000000 0.000000 0.000000
# 2 -0.003378 0.013475 -0.002977 0.000000 0.000000 0.000000
# 3 -0.002214 -0.002977 0.007495 0.000000 0.000000 0.000000
# 4 0.000000 0.000000 0.000000 -0.061684 0.000000 0.000000
# 5 0.000000 0.000000 0.000000 0.000000 0.038560 0.000000
# 6 0.000000 0.000000 0.000000 0.000000 0.000000 0.023559
#
#
# Mechanical properties :
#
#
# Convention : Reuss Voigt Hill
#
# Bulk Modulus (GPa) = 71.19164 75.97309 73.58236
# Shear Modulus (GPa) = 93.56377 26.57147 60.06762
#
# Velocity S-wave (km/s) = 6.60047 3.51745 5.28860
# Velocity P-wave (km/s) = 9.55182 7.20222 8.45900
#
# Compressibility (1/GPa) = 0.01404659
#
# Stress axis : x y z
#
# Youngs Moduli (GPa) = 97.89766 74.21191 133.42704
#
# Poissons Ratio (x) = 0.25068 0.29535
# Poissons Ratio (y) = 0.33069 0.39727
# Poissons Ratio (z) = 0.21670 0.22096
#
# Static dielectric constant tensor:
#      x y z
#    x 1.915340 0.000000 0.000000 
#    y 0.000000 1.801060 0.000000 
#    z 0.000000 0.000000 1.752810 
# 
# From -- ./inp_files/35520.got.cif
#   From: 2010.05.17/outbox.cif.g08.bks.cpg/sg21_18_cif.got.tgz:35520.got - 2010.06.03 23:14:55.
