data_PCOD9325412
_publ_section_title
;
Structure prediction by ZEFSAII (Michael W. Deem and Ramdas Pophale) SiO2 
 PCOD9325412
Probable space group: C 2 2 2
;
_chemical_formula_sum "Si O2"
_cell_formula_units_Z 64
_cell_length_a 12.603614
_cell_length_b 13.949998
_cell_length_c 18.539841
_cell_angle_alpha 90.000000
_cell_angle_beta 90.000000
_cell_angle_gamma 90.000000
_cell_volume 3259.682077
_symmetry_space_group_name_H-M "C 2 2 2"
_symmetry_group_IT_number 21
_symmetry_cell_setting 'orthorhombic'
loop_
_space_group_symop_operation_xyz
x,y,z
-x,-y,z
x,-y,-z
-x,y,-z
1/2+x,1/2+y,z
1/2-x,1/2-y,z
1/2+x,1/2-y,-z
1/2-x,1/2+y,-z
loop_
_atom_site_type_symbol
_atom_site_label
_atom_site_fract_x
_atom_site_fract_y
_atom_site_fract_z
Si Si1 0.874087 0.496297 0.790639
Si Si2 0.995389 0.112032 0.079551
Si Si3 0.781278 0.853019 0.835620
Si Si4 0.833090 0.972326 0.421276
Si Si5 0.395631 0.056648 0.374459
Si Si6 0.337022 0.670119 0.331871
Si Si7 0.418638 0.283655 0.338243
Si Si8 0.189428 0.838658 0.815535
O O1 0.822487 0.582295 0.835004
O O2 0.874444 0.495221 0.703068
O O3 0.784540 0.414934 0.805787
O O4 0.000000 0.500000 0.808557
O O5 0.884327 0.122723 0.119872
O O6 0.092097 0.135948 0.132974
O O7 0.000000 0.000000 0.068821
O O8 0.000000 0.159368 0.000000
O O9 0.750000 0.750000 0.861639
O O10 0.810280 0.850588 0.751046
O O11 0.706843 0.956558 0.423347
O O12 0.882388 0.873129 0.389535
O O13 0.874333 0.000000 0.500000
O O14 0.845017 0.067988 0.372460
O O15 0.399565 0.172349 0.360897
O O16 0.500000 0.000000 0.402032
O O17 0.250000 0.750000 0.358125
O O18 0.454666 0.712692 0.332467
O O19 0.360169 0.307474 0.262239
O O20 0.250000 0.750000 0.849365
#
# Coordination Sequence:
#
# PCOD9325412 Si02
#       8
#     8   8   8   8   8   8   8   8
#     4  11  23  38  65 101 137 163 218 286 332 391
#     4  11  25  43  66  97 134 179 222 272 336 408
#     4  11  23  40  69  98 132 175 221 273 336 394
#     4  12  26  44  63  92 133 176 221 282 346 404
#     4  11  23  41  66  96 134 169 219 278 337 409
#     4  11  24  40  65  98 127 170 224 278 336 401
#     4  12  23  41  68 100 129 170 233 278 333 403
#     4  12  22  39  70 101 130 178 224 274 334 391
#
# _framework density 19.633815999999999
#
# number of rings (size 3 to 8) (size 9 to 14) (size 15 to 20)
#    0.000    0.625    6.250    1.500    7.000    2.750 
#    0.000    1.250    0.000    0.750    0.000    0.000 
#    0.000    0.000    0.000    0.000    0.000    0.000 
#
# Total GULP energy -178254.362058 kJ/mol
# GULP energy per Si atom -5570.448814 kJ/mol
# Density = 1.958913 g / cm^3
# Si number density = 19.633816 Si / 1000 Ang^3
#
#
#
# Elastic Constant Matrix: (Units=GPa)
#
#
# Indices 1 2 3 4 5 6 
#
# 1 184.5191 53.9680 45.4550 0.0000 0.0000 0.0000
# 2 53.9680 103.7395 27.0944 0.0000 0.0000 0.0000
# 3 45.4550 27.0944 66.1440 0.0000 0.0000 0.0000
# 4 0.0000 0.0000 0.0000 -4.6150 0.0000 0.0000
# 5 0.0000 0.0000 0.0000 0.0000 24.7765 0.0000
# 6 0.0000 0.0000 0.0000 0.0000 0.0000 29.7826
#
#
#
# Elastic Compliance Matrix: (Units=1/GPa)
#
#
# Indices 1 2 3 4 5 6 
#
# 1 0.007153 -0.002729 -0.003798 0.000000 0.000000 0.000000
# 2 -0.002729 0.011836 -0.002973 0.000000 0.000000 0.000000
# 3 -0.003798 -0.002973 0.018946 0.000000 0.000000 0.000000
# 4 0.000000 0.000000 0.000000 -0.216684 0.000000 0.000000
# 5 0.000000 0.000000 0.000000 0.000000 0.040361 0.000000
# 6 0.000000 0.000000 0.000000 0.000000 0.000000 0.033577
#
#
# Mechanical properties :
#
#
# Convention : Reuss Voigt Hill
#
# Bulk Modulus (GPa) = 52.81063 67.49306 60.15185
# Shear Modulus (GPa) = -62.89369 25.18116 -18.85626
#
# Velocity S-wave (km/s) = -5.66594 3.58514 -3.10239
# Velocity P-wave (km/s) = 3.98091 7.18249 4.22732
#
# Compressibility (1/GPa) = 0.01893558
#
# Stress axis : x y z
#
# Youngs Moduli (GPa) = 139.79424 84.48920 52.78134
#
# Poissons Ratio (x) = 0.23061 0.20045
# Poissons Ratio (y) = 0.38156 0.15690
# Poissons Ratio (z) = 0.53091 0.25115
#
# Static dielectric constant tensor:
#      x y z
#    x 1.665870 0.000000 0.000000 
#    y 0.000000 1.737730 0.000000 
#    z 0.000000 0.000000 1.686550 
# 
# From -- ./inp_files/36242.got.cif
#   From: 2010.05.17/outbox.cif.g08.bks.cpg/sg21_19_cif.got.tgz:36242.got - 2010.06.03 23:14:55.
