data_PCOD9325910
_publ_section_title
;
Structure prediction by ZEFSAII (Michael W. Deem and Ramdas Pophale) SiO2 
 PCOD9325910
Probable space group: F 2 2 2
;
_chemical_formula_sum "Si O2"
_cell_formula_units_Z 84
_cell_length_a 17.842824
_cell_length_b 17.389272
_cell_length_c 12.335010
_cell_angle_alpha 90.000000
_cell_angle_beta 90.000000
_cell_angle_gamma 90.000000
_cell_volume 3827.229436
_symmetry_space_group_name_H-M "F 2 2 2"
_symmetry_group_IT_number 22
_symmetry_cell_setting 'orthorhombic'
loop_
_space_group_symop_operation_xyz
x,y,z
-x,-y,z
x,-y,-z
-x,y,-z
x,1/2+y,1/2+z
-x,1/2-y,1/2+z
x,1/2-y,1/2-z
-x,1/2+y,1/2-z
1/2+x,y,1/2+z
1/2-x,-y,1/2+z
1/2+x,-y,1/2-z
1/2-x,y,1/2-z
1/2+x,1/2+y,z
1/2-x,1/2-y,z
1/2+x,1/2-y,-z
1/2-x,1/2+y,-z
loop_
_atom_site_type_symbol
_atom_site_label
_atom_site_fract_x
_atom_site_fract_y
_atom_site_fract_z
Si Si1 0.347584 0.639340 0.682366
Si Si2 0.000000 0.279857 0.000000
Si Si3 0.250000 0.250000 0.750000
Si Si4 0.250000 0.006594 0.250000
Si Si5 0.853828 0.293348 0.581697
Si Si6 0.653970 0.879213 0.636094
Si Si7 0.521894 0.661353 0.711666
O O1 0.303587 0.560405 0.677477
O O2 0.332353 0.672873 0.802450
O O3 0.325079 0.704013 0.592815
O O4 0.437883 0.629891 0.691734
O O5 0.058110 0.226320 0.063645
O O6 0.952133 0.329943 0.085989
O O7 0.303442 0.195320 0.682468
O O8 0.299992 0.953170 0.327294
O O9 0.843544 0.357923 0.490326
O O10 0.574591 0.880855 0.701392
O O11 0.520717 0.750000 0.750000
#
# Coordination Sequence:
#
# PCOD9325910 Si02
#       7
#    16   8   4   8  16  16  16
#     4  10  22  40  62  97 135 169 222 280 341 397
#     4  10  16  32  64 106 122 146 230 304 328 356
#     4  10  20  36  56  92 120 160 224 270 300 390
#     4  11  28  44  56  97 154 182 208 277 360 416
#     4  10  18  36  67  93 121 175 230 277 315 402
#     4  11  22  39  66  93 133 175 225 273 338 405
#     4  11  18  37  67 101 123 168 235 293 317 394
#
# _framework density 21.947991999999999
#
# number of rings (size 3 to 8) (size 9 to 14) (size 15 to 20)
#    0.000    1.524    6.667    0.000    0.000    4.571 
#    0.000    7.619    0.000    8.000    0.000    0.000 
#    0.000    0.000    0.000    0.000    0.000    0.000 
#
# Total GULP energy -116946.664055 kJ/mol
# GULP energy per Si atom -5568.888765 kJ/mol
# Density = 2.189804 g / cm^3
# Si number density = 21.947992 Si / 1000 Ang^3
#
#
#
# Elastic Constant Matrix: (Units=GPa)
#
#
# Indices 1 2 3 4 5 6 
#
# 1 96.6741 54.1618 18.2029 0.0000 0.0000 0.0000
# 2 54.1618 118.9271 34.3739 0.0000 0.0000 0.0000
# 3 18.2029 34.3739 111.4747 0.0000 0.0000 0.0000
# 4 0.0000 0.0000 0.0000 45.4277 0.0000 0.0000
# 5 0.0000 0.0000 0.0000 0.0000 24.0237 0.0000
# 6 0.0000 0.0000 0.0000 0.0000 0.0000 -41.3941
#
#
#
# Elastic Compliance Matrix: (Units=1/GPa)
#
#
# Indices 1 2 3 4 5 6 
#
# 1 0.013900 -0.006229 -0.000349 0.000000 0.000000 0.000000
# 2 -0.006229 0.012023 -0.002690 0.000000 0.000000 0.000000
# 3 -0.000349 -0.002690 0.009857 0.000000 0.000000 0.000000
# 4 0.000000 0.000000 0.000000 0.022013 0.000000 0.000000
# 5 0.000000 0.000000 0.000000 0.000000 0.041626 0.000000
# 6 0.000000 0.000000 0.000000 0.000000 0.000000 -0.024158
#
#
# Mechanical properties :
#
#
# Convention : Reuss Voigt Hill
#
# Bulk Modulus (GPa) = 57.99414 60.06144 59.02779
# Shear Modulus (GPa) = 50.22852 20.30061 35.26456
#
# Velocity S-wave (km/s) = 4.78904 3.04458 4.01276
# Velocity P-wave (km/s) = 7.55385 6.30746 6.95862
#
# Compressibility (1/GPa) = 0.01724312
#
# Stress axis : x y z
#
# Youngs Moduli (GPa) = 71.94374 83.17351 101.44933
#
# Poissons Ratio (x) = 0.51812 0.03539
# Poissons Ratio (y) = 0.44817 0.27292
# Poissons Ratio (z) = 0.02510 0.22375
#
# Static dielectric constant tensor:
#      x y z
#    x 1.893210 0.000000 0.000000 
#    y 0.000000 1.843160 0.000000 
#    z 0.000000 0.000000 1.955400 
# 
# From -- ./inp_files/22553.got.cif
#   From: 2010.05.17/outbox.cif.g08.bks.cpg/sg22_12_cif.got.tgz:22553.got - 2010.06.03 23:40:54.
