data_PCOD9325284
_publ_section_title
;
Structure prediction by ZEFSAII (Michael W. Deem and Ramdas Pophale) SiO2 
 PCOD9325284
Probable space group: C 2 2 2
;
_chemical_formula_sum "Si O2"
_cell_formula_units_Z 48
_cell_length_a 9.078287
_cell_length_b 19.206274
_cell_length_c 14.718244
_cell_angle_alpha 90.000000
_cell_angle_beta 90.000000
_cell_angle_gamma 90.000000
_cell_volume 2566.274018
_symmetry_space_group_name_H-M "C 2 2 2"
_symmetry_group_IT_number 21
_symmetry_cell_setting 'orthorhombic'
loop_
_space_group_symop_operation_xyz
x,y,z
-x,-y,z
x,-y,-z
-x,y,-z
1/2+x,1/2+y,z
1/2-x,1/2-y,z
1/2+x,1/2-y,-z
1/2-x,1/2+y,-z
loop_
_atom_site_type_symbol
_atom_site_label
_atom_site_fract_x
_atom_site_fract_y
_atom_site_fract_z
Si Si1 0.345104 0.413084 0.898234
Si Si2 0.164662 0.822097 0.465418
Si Si3 0.690077 0.419839 0.898790
Si Si4 0.655936 0.935485 0.447499
Si Si5 0.218458 0.666776 0.272208
Si Si6 0.934166 0.573969 0.246285
O O1 0.519540 0.397693 0.889810
O O2 0.320717 0.496087 0.890767
O O3 0.274884 0.371362 0.817041
O O4 0.277184 0.397151 0.997544
O O5 0.250000 0.750000 0.461573
O O6 0.245809 0.869147 0.538359
O O7 0.193932 0.853779 0.364671
O O8 0.000000 0.812629 0.500000
O O9 0.811999 0.398695 0.824909
O O10 0.500000 0.924885 0.500000
O O11 0.635518 0.949470 0.342028
O O12 0.727274 0.000000 0.500000
O O13 0.250000 0.750000 0.262808
O O14 0.052008 0.634415 0.274717
O O15 0.000000 0.500000 0.208942
#
# Coordination Sequence:
#
# PCOD9325284 Si02
#       6
#     8   8   8   8   8   8
#     4   9  19  41  60  91 124 156 214 261 321 374
#     4  11  25  42  63  88 123 174 215 257 322 396
#     4   9  20  37  66  88 119 167 206 267 314 384
#     4  11  21  39  60  91 133 165 205 270 318 368
#     4  11  24  40  60  92 133 163 207 276 319 379
#     4  12  21  38  64  97 125 169 221 263 324 389
#
# _framework density 18.704159000000001
#
# number of rings (size 3 to 8) (size 9 to 14) (size 15 to 20)
#    0.000    1.500    5.000    1.500    4.667    1.000 
#    0.000    4.167    0.000    0.000    0.000    0.000 
#    0.000    0.000    0.000    0.000    0.000    0.000 
#
# Total GULP energy -133640.627455 kJ/mol
# GULP energy per Si atom -5568.359477 kJ/mol
# Density = 1.866159 g / cm^3
# Si number density = 18.704159 Si / 1000 Ang^3
#
#
#
# Elastic Constant Matrix: (Units=GPa)
#
#
# Indices 1 2 3 4 5 6 
#
# 1 79.6101 15.3220 58.6024 0.0000 0.0000 0.0000
# 2 15.3220 46.2908 8.6775 0.0000 0.0000 0.0000
# 3 58.6024 8.6775 125.2911 0.0000 0.0000 0.0000
# 4 0.0000 0.0000 0.0000 26.2271 0.0000 0.0000
# 5 0.0000 0.0000 0.0000 0.0000 26.4753 0.0000
# 6 0.0000 0.0000 0.0000 0.0000 0.0000 28.7891
#
#
#
# Elastic Compliance Matrix: (Units=1/GPa)
#
#
# Indices 1 2 3 4 5 6 
#
# 1 0.020233 -0.004988 -0.009118 0.000000 0.000000 0.000000
# 2 -0.004988 0.023116 0.000732 0.000000 0.000000 0.000000
# 3 -0.009118 0.000732 0.012196 0.000000 0.000000 0.000000
# 4 0.000000 0.000000 0.000000 0.038129 0.000000 0.000000
# 5 0.000000 0.000000 0.000000 0.000000 0.037771 0.000000
# 6 0.000000 0.000000 0.000000 0.000000 0.000000 0.034735
#
#
# Mechanical properties :
#
#
# Convention : Reuss Voigt Hill
#
# Bulk Modulus (GPa) = 34.72596 46.26620 40.49608
# Shear Modulus (GPa) = 24.68801 27.53763 26.11282
#
# Velocity S-wave (km/s) = 3.63701 3.84118 3.74049
# Velocity P-wave (km/s) = 6.02025 6.66801 6.35239
#
# Compressibility (1/GPa) = 0.02879690
#
# Stress axis : x y z
#
# Youngs Moduli (GPa) = 49.42347 43.25957 81.99677
#
# Poissons Ratio (x) = 0.21577 0.74767
# Poissons Ratio (y) = 0.24652 -0.06002
# Poissons Ratio (z) = 0.45066 -0.03166
#
# Static dielectric constant tensor:
#      x y z
#    x 1.693720 0.000000 0.000000 
#    y 0.000000 1.650410 0.000000 
#    z 0.000000 0.000000 1.675980 
# 
# From -- ./inp_files/30512.got.cif
#   From: 2010.05.17/outbox.cif.g08.bks.cpg/sg21_16_cif.got.tgz:30512.got - 2010.06.03 23:14:55.
