data_PCOD9325622
_publ_section_title
;
Structure prediction by ZEFSAII (Michael W. Deem and Ramdas Pophale) SiO2 
 PCOD9325622
Probable space group: C 2 2 2
;
_chemical_formula_sum "Si O2"
_cell_formula_units_Z 40
_cell_length_a 15.657555
_cell_length_b 8.802290
_cell_length_c 13.829660
_cell_angle_alpha 90.000000
_cell_angle_beta 90.000000
_cell_angle_gamma 90.000000
_cell_volume 1906.036100
_symmetry_space_group_name_H-M "C 2 2 2"
_symmetry_group_IT_number 21
_symmetry_cell_setting 'orthorhombic'
loop_
_space_group_symop_operation_xyz
x,y,z
-x,-y,z
x,-y,-z
-x,y,-z
1/2+x,1/2+y,z
1/2-x,1/2-y,z
1/2+x,1/2-y,-z
1/2-x,1/2+y,-z
loop_
_atom_site_type_symbol
_atom_site_label
_atom_site_fract_x
_atom_site_fract_y
_atom_site_fract_z
Si Si1 0.005491 0.249166 0.387405
Si Si2 0.856498 0.521403 0.607699
Si Si3 0.751657 0.931166 0.784269
Si Si4 0.087946 0.562638 0.891211
Si Si5 0.071979 0.104795 0.188474
O O1 0.075554 0.384400 0.383867
O O2 0.035806 0.148966 0.296225
O O3 0.000000 0.191175 0.500000
O O4 0.912718 0.327208 0.372349
O O5 0.824337 0.500000 0.500000
O O6 0.776698 0.521774 0.677194
O O7 0.750000 0.750000 0.795132
O O8 0.673895 0.998170 0.846084
O O9 0.841302 0.009047 0.806371
O O10 0.086039 0.742001 0.872402
O O11 0.000000 0.500000 0.843809
O O12 0.087030 0.500000 0.000000
O O13 0.000000 0.000000 0.141796
#
# Coordination Sequence:
#
# PCOD9325622 Si02
#       5
#     8   8   8   8   8
#     4   9  18  36  66  97 136 191 240 286 347 414
#     4   9  18  37  62  93 136 188 238 286 345 411
#     4  12  25  43  67 102 141 188 236 298 354 423
#     4  11  25  48  76 104 136 182 233 297 370 433
#     4  12  25  44  70 103 146 189 238 294 360 426
#
# _framework density 20.985959999999999
#
# number of rings (size 3 to 8) (size 9 to 14) (size 15 to 20)
#    0.000    1.400    2.000    5.400    0.000    2.000 
#   10.800    6.000    0.000    0.000    0.000    0.000 
#    0.000    0.000    0.000    0.000    0.000    0.000 
#
# Total GULP energy -111669.455646 kJ/mol
# GULP energy per Si atom -5583.472782 kJ/mol
# Density = 2.093819 g / cm^3
# Si number density = 20.985960 Si / 1000 Ang^3
#
#
#
# Elastic Constant Matrix: (Units=GPa)
#
#
# Indices 1 2 3 4 5 6 
#
# 1 169.1846 76.1435 51.2774 0.0000 0.0000 0.0000
# 2 76.1435 146.2254 76.1633 0.0000 0.0000 0.0000
# 3 51.2774 76.1633 86.2691 0.0000 0.0000 0.0000
# 4 0.0000 0.0000 0.0000 -26.2916 0.0000 0.0000
# 5 0.0000 0.0000 0.0000 0.0000 39.9496 0.0000
# 6 0.0000 0.0000 0.0000 0.0000 0.0000 109.9277
#
#
#
# Elastic Compliance Matrix: (Units=1/GPa)
#
#
# Indices 1 2 3 4 5 6 
#
# 1 0.007896 -0.003087 -0.001969 0.000000 0.000000 0.000000
# 2 -0.003087 0.013867 -0.010408 0.000000 0.000000 0.000000
# 3 -0.001969 -0.010408 0.021951 0.000000 0.000000 0.000000
# 4 0.000000 0.000000 0.000000 -0.038035 0.000000 0.000000
# 5 0.000000 0.000000 0.000000 0.000000 0.025032 0.000000
# 6 0.000000 0.000000 0.000000 0.000000 0.000000 0.009097
#
#
# Mechanical properties :
#
#
# Convention : Reuss Voigt Hill
#
# Bulk Modulus (GPa) = 78.19982 89.87195 84.03589
# Shear Modulus (GPa) = 66.66924 37.92349 52.29636
#
# Velocity S-wave (km/s) = 5.64247 4.25560 4.99738
# Velocity P-wave (km/s) = 8.93274 8.18930 8.56908
#
# Compressibility (1/GPa) = 0.01278775
#
# Stress axis : x y z
#
# Youngs Moduli (GPa) = 126.63849 72.11244 45.55662
#
# Poissons Ratio (x) = 0.22258 0.08968
# Poissons Ratio (y) = 0.39087 0.47416
# Poissons Ratio (z) = 0.24930 0.75056
#
# Static dielectric constant tensor:
#      x y z
#    x 1.713400 0.000000 0.000000 
#    y 0.000000 1.781060 0.000000 
#    z 0.000000 0.000000 1.091570 
# 
# From -- ./inp_files/30211.got.cif
#   From: 2010.05.17/outbox.cif.g08.bks.cpg/sg21_16_cif.got.tgz:30211.got - 2010.06.03 23:14:55.
