data_PCOD9325083
_publ_section_title
;
Structure prediction by ZEFSAII (Michael W. Deem and Ramdas Pophale) SiO2 
 PCOD9325083
Probable space group: C 2 2 2
;
_chemical_formula_sum "Si O2"
_cell_formula_units_Z 40
_cell_length_a 6.233650
_cell_length_b 17.484148
_cell_length_c 17.302808
_cell_angle_alpha 90.000000
_cell_angle_beta 90.000000
_cell_angle_gamma 90.000000
_cell_volume 1885.834068
_symmetry_space_group_name_H-M "C 2 2 2"
_symmetry_group_IT_number 21
_symmetry_cell_setting 'orthorhombic'
loop_
_space_group_symop_operation_xyz
x,y,z
-x,-y,z
x,-y,-z
-x,y,-z
1/2+x,1/2+y,z
1/2-x,1/2-y,z
1/2+x,1/2-y,-z
1/2-x,1/2+y,-z
loop_
_atom_site_type_symbol
_atom_site_label
_atom_site_fract_x
_atom_site_fract_y
_atom_site_fract_z
Si Si1 0.614899 0.322307 0.302887
Si Si2 0.007514 0.410229 0.338854
Si Si3 0.748659 0.910717 0.025019
Si Si4 0.327177 0.672252 0.555283
Si Si5 0.736859 0.342762 0.806307
O O1 0.750000 0.250000 0.277289
O O2 0.444048 0.297499 0.366951
O O3 0.495600 0.358252 0.230767
O O4 0.768075 0.380547 0.345437
O O5 0.144750 0.382306 0.412013
O O6 0.101964 0.372065 0.260349
O O7 0.000000 0.500000 0.330939
O O8 0.740767 0.889084 0.115210
O O9 0.500000 0.883135 0.000000
O O10 0.000000 0.883772 0.000000
O O11 0.749217 0.000000 0.000000
O O12 0.500000 0.633774 0.500000
O O13 0.250000 0.750000 0.513809
O O14 0.750000 0.250000 0.816527
#
# Coordination Sequence:
#
# PCOD9325083 Si02
#       5
#     8   8   8   8   8
#     4  11  20  42  70 100 135 174 241 289 348 431
#     4  11  25  42  68 103 139 179 230 296 360 426
#     4  10  25  44  67 100 145 191 239 298 367 450
#     4  11  23  40  69 100 131 186 235 286 352 429
#     4  11  24  41  71 103 134 186 238 296 355 430
#
# _framework density 21.210775000000002
#
# number of rings (size 3 to 8) (size 9 to 14) (size 15 to 20)
#    0.000    1.200    4.000    1.800    5.600    5.600 
#    0.000    3.000    0.000    0.000    0.000    0.000 
#    0.000    0.000    0.000    0.000    0.000    0.000 
#
# Total GULP energy -111421.856077 kJ/mol
# GULP energy per Si atom -5571.092804 kJ/mol
# Density = 2.116250 g / cm^3
# Si number density = 21.210775 Si / 1000 Ang^3
#
#
#
# Elastic Constant Matrix: (Units=GPa)
#
#
# Indices 1 2 3 4 5 6 
#
# 1 142.8776 29.0322 50.4443 0.0000 0.0000 0.0000
# 2 29.0322 106.2850 30.6809 0.0000 0.0000 0.0000
# 3 50.4443 30.6809 119.2400 0.0000 0.0000 0.0000
# 4 0.0000 0.0000 0.0000 60.6641 0.0000 0.0000
# 5 0.0000 0.0000 0.0000 0.0000 26.0124 0.0000
# 6 0.0000 0.0000 0.0000 0.0000 0.0000 12.9603
#
#
#
# Elastic Compliance Matrix: (Units=1/GPa)
#
#
# Indices 1 2 3 4 5 6 
#
# 1 0.008409 -0.001372 -0.003204 0.000000 0.000000 0.000000
# 2 -0.001372 0.010387 -0.002092 0.000000 0.000000 0.000000
# 3 -0.003204 -0.002092 0.010280 0.000000 0.000000 0.000000
# 4 0.000000 0.000000 0.000000 0.016484 0.000000 0.000000
# 5 0.000000 0.000000 0.000000 0.000000 0.038443 0.000000
# 6 0.000000 0.000000 0.000000 0.000000 0.000000 0.077159
#
#
# Mechanical properties :
#
#
# Convention : Reuss Voigt Hill
#
# Bulk Modulus (GPa) = 63.53435 65.41303 64.47369
# Shear Modulus (GPa) = 27.81687 37.14371 32.48029
#
# Velocity S-wave (km/s) = 3.62532 4.18924 3.91744
# Velocity P-wave (km/s) = 6.89513 7.36927 7.13614
#
# Compressibility (1/GPa) = 0.01573952
#
# Stress axis : x y z
#
# Youngs Moduli (GPa) = 118.91818 96.27041 97.27208
#
# Poissons Ratio (x) = 0.13208 0.31170
# Poissons Ratio (y) = 0.16315 0.20352
# Poissons Ratio (z) = 0.38107 0.20143
#
# Static dielectric constant tensor:
#      x y z
#    x 1.670660 0.000000 0.000000 
#    y 0.000000 1.796700 0.000000 
#    z 0.000000 0.000000 1.734790 
# 
# From -- ./inp_files/34653.got.cif
#   From: 2010.05.17/outbox.cif.g08.bks.cpg/sg21_18_cif.got.tgz:34653.got - 2010.06.03 23:14:55.
