data_PCOD9325582
_publ_section_title
;
Structure prediction by ZEFSAII (Michael W. Deem and Ramdas Pophale) SiO2 
 PCOD9325582
Probable space group: C 2 2 2
;
_chemical_formula_sum "Si O2"
_cell_formula_units_Z 32
_cell_length_a 8.611637
_cell_length_b 13.340725
_cell_length_c 12.220754
_cell_angle_alpha 90.000000
_cell_angle_beta 90.000000
_cell_angle_gamma 90.000000
_cell_volume 1403.987202
_symmetry_space_group_name_H-M "C 2 2 2"
_symmetry_group_IT_number 21
_symmetry_cell_setting 'orthorhombic'
loop_
_space_group_symop_operation_xyz
x,y,z
-x,-y,z
x,-y,-z
-x,y,-z
1/2+x,1/2+y,z
1/2-x,1/2-y,z
1/2+x,1/2-y,-z
1/2-x,1/2+y,-z
loop_
_atom_site_type_symbol
_atom_site_label
_atom_site_fract_x
_atom_site_fract_y
_atom_site_fract_z
Si Si1 0.940067 0.844243 0.660941
Si Si2 0.000000 0.500000 0.810717
Si Si3 0.500000 0.859068 0.000000
Si Si4 0.252153 0.465149 0.365757
Si Si5 0.250000 0.250000 0.854709
Si Si6 0.500000 0.164330 0.500000
O O1 0.856887 0.817756 0.774843
O O2 0.937463 0.741834 0.591328
O O3 0.116537 0.885276 0.672082
O O4 0.850404 0.935580 0.600492
O O5 0.066635 0.578972 0.897812
O O6 0.856594 0.512397 0.728986
O O7 0.634553 0.803922 0.936723
O O8 0.129417 0.404780 0.441686
#
# Coordination Sequence:
#
# PCOD9325582 Si02
#       6
#     8   4   4   8   4   4
#     4  11  28  51  76 119 159 219 275 339 405 517
#     4  11  24  49  72 116 152 203 274 339 412 492
#     4  11  26  44  80 107 150 210 264 349 420 473
#     4  11  27  51  79 110 168 213 272 339 410 495
#     4  12  26  52  76 116 160 200 290 342 414 482
#     4  12  28  48  84 118 162 222 269 339 420 486
#
# _framework density 22.792231000000001
#
# number of rings (size 3 to 8) (size 9 to 14) (size 15 to 20)
#    0.000    0.750    2.500    2.250    7.000    4.500 
#    4.500    0.000    0.000    0.000    0.000    0.000 
#    0.000    0.000    0.000    0.000    0.000    0.000 
#
# Total GULP energy -89309.389810 kJ/mol
# GULP energy per Si atom -5581.836863 kJ/mol
# Density = 2.274036 g / cm^3
# Si number density = 22.792231 Si / 1000 Ang^3
#
#
#
# Elastic Constant Matrix: (Units=GPa)
#
#
# Indices 1 2 3 4 5 6 
#
# 1 174.4523 75.8700 97.7837 0.0000 0.0000 0.0000
# 2 75.8700 131.8026 68.5551 0.0000 0.0000 0.0000
# 3 97.7837 68.5551 135.6490 0.0000 0.0000 0.0000
# 4 0.0000 0.0000 0.0000 79.4476 0.0000 0.0000
# 5 0.0000 0.0000 0.0000 0.0000 62.6883 0.0000
# 6 0.0000 0.0000 0.0000 0.0000 0.0000 -48.0220
#
#
#
# Elastic Compliance Matrix: (Units=1/GPa)
#
#
# Indices 1 2 3 4 5 6 
#
# 1 0.010335 -0.002814 -0.006028 0.000000 0.000000 0.000000
# 2 -0.002814 0.011059 -0.003561 0.000000 0.000000 0.000000
# 3 -0.006028 -0.003561 0.013517 0.000000 0.000000 0.000000
# 4 0.000000 0.000000 0.000000 0.012587 0.000000 0.000000
# 5 0.000000 0.000000 0.000000 0.000000 0.015952 0.000000
# 6 0.000000 0.000000 0.000000 0.000000 0.000000 -0.020824
#
#
# Mechanical properties :
#
#
# Convention : Reuss Voigt Hill
#
# Bulk Modulus (GPa) = 98.95366 102.92462 100.93914
# Shear Modulus (GPa) = 70.62349 32.13580 51.37965
#
# Velocity S-wave (km/s) = 5.57253 3.75900 4.75306
# Velocity P-wave (km/s) = 9.21487 8.00599 8.63162
#
# Compressibility (1/GPa) = 0.01010574
#
# Stress axis : x y z
#
# Youngs Moduli (GPa) = 96.76249 90.42577 73.98270
#
# Poissons Ratio (x) = 0.25443 0.44595
# Poissons Ratio (y) = 0.27226 0.26343
# Poissons Ratio (z) = 0.58326 0.32198
#
# Static dielectric constant tensor:
#      x y z
#    x 1.678960 0.000000 0.000000 
#    y 0.000000 1.803670 0.000000 
#    z 0.000000 0.000000 1.862250 
# 
# From -- ./inp_files/22034.got.cif
#   From: 2010.05.17/outbox.cif.g08.bks.cpg/sg21_12_cif.got.tgz:22034.got - 2010.06.03 23:14:55.
