data_PCOD9325693
_publ_section_title
;
Structure prediction by ZEFSAII (Michael W. Deem and Ramdas Pophale) SiO2 
 PCOD9325693
Probable space group: C 2 2 2
;
_chemical_formula_sum "Si O2"
_cell_formula_units_Z 22
_cell_length_a 4.827713
_cell_length_b 17.597320
_cell_length_c 10.452646
_cell_angle_alpha 90.000000
_cell_angle_beta 90.000000
_cell_angle_gamma 90.000000
_cell_volume 888.002560
_symmetry_space_group_name_H-M "C 2 2 2"
_symmetry_group_IT_number 21
_symmetry_cell_setting 'orthorhombic'
loop_
_space_group_symop_operation_xyz
x,y,z
-x,-y,z
x,-y,-z
-x,y,-z
1/2+x,1/2+y,z
1/2-x,1/2-y,z
1/2+x,1/2-y,-z
1/2-x,1/2+y,-z
loop_
_atom_site_type_symbol
_atom_site_label
_atom_site_fract_x
_atom_site_fract_y
_atom_site_fract_z
Si Si1 0.750000 0.750000 0.932369
Si Si2 0.667079 0.386922 0.216126
Si Si3 0.182775 0.341083 0.373018
Si Si4 0.000000 0.000000 0.000000
O O1 0.573102 0.690619 0.852016
O O2 0.500000 0.793995 0.000000
O O3 0.459068 0.389423 0.338223
O O4 0.661565 0.448473 0.103816
O O5 0.971781 0.368202 0.264124
O O6 0.250000 0.250000 0.376847
O O7 0.000000 0.355851 0.500000
#
# Coordination Sequence:
#
# PCOD9325693 Si02
#       4
#     4   8   8   2
#     4  12  22  42  70 108 148 192 260 314 384 442
#     4  12  26  45  72 109 156 199 251 319 379 470
#     4  12  24  46  77 113 146 193 260 329 385 447
#     4  12  32  50  74 114 168 212 256 308 404 474
#
# _framework density 24.774702999999999
#
# number of rings (size 3 to 8) (size 9 to 14) (size 15 to 20)
#    0.000    0.000    5.455    5.455    0.000    2.909 
#    0.000    5.455    0.000    0.000    0.000    0.000 
#    0.000    0.000    0.000    0.000    0.000    0.000 
#
# Total GULP energy -61324.484761 kJ/mol
# GULP energy per Si atom -5574.953160 kJ/mol
# Density = 2.471831 g / cm^3
# Si number density = 24.774703 Si / 1000 Ang^3
#
#
#
# Elastic Constant Matrix: (Units=GPa)
#
#
# Indices 1 2 3 4 5 6 
#
# 1 150.2865 10.7432 39.7539 0.0000 0.0000 0.0000
# 2 10.7432 78.7659 47.5397 0.0000 0.0000 0.0000
# 3 39.7539 47.5397 138.3034 0.0000 0.0000 0.0000
# 4 0.0000 0.0000 0.0000 -1.8816 0.0000 0.0000
# 5 0.0000 0.0000 0.0000 0.0000 34.2504 0.0000
# 6 0.0000 0.0000 0.0000 0.0000 0.0000 19.8321
#
#
#
# Elastic Compliance Matrix: (Units=1/GPa)
#
#
# Indices 1 2 3 4 5 6 
#
# 1 0.007209 0.000337 -0.002188 0.000000 0.000000 0.000000
# 2 0.000337 0.016035 -0.005609 0.000000 0.000000 0.000000
# 3 -0.002188 -0.005609 0.009787 0.000000 0.000000 0.000000
# 4 0.000000 0.000000 0.000000 -0.531455 0.000000 0.000000
# 5 0.000000 0.000000 0.000000 0.000000 0.029197 0.000000
# 6 0.000000 0.000000 0.000000 0.000000 0.000000 0.050423
#
#
# Mechanical properties :
#
#
# Convention : Reuss Voigt Hill
#
# Bulk Modulus (GPa) = 55.21147 62.60324 58.90736
# Shear Modulus (GPa) = -12.56762 28.39477 7.91358
#
# Velocity S-wave (km/s) = -2.25472 3.38911 1.78918
# Velocity P-wave (km/s) = 3.94404 6.37484 5.30066
#
# Compressibility (1/GPa) = 0.01811218
#
# Stress axis : x y z
#
# Youngs Moduli (GPa) = 138.72288 62.36338 102.17287
#
# Poissons Ratio (x) = -0.02104 0.22356
# Poissons Ratio (y) = -0.04680 0.57307
# Poissons Ratio (z) = 0.30353 0.34978
#
# Static dielectric constant tensor:
#      x y z
#    x 2.102740 0.000000 0.000000 
#    y 0.000000 1.987510 0.000000 
#    z 0.000000 0.000000 2.357620 
# 
# From -- ./inp_files/20414.got.cif
#   From: 2010.05.17/outbox.cif.g08.bks.cpg/sg21_11_cif.got.tgz:20414.got - 2010.06.03 23:14:55.
