data_PCOD9325758
_publ_section_title
;
Structure prediction by ZEFSAII (Michael W. Deem and Ramdas Pophale) SiO2 
 PCOD9325758
Probable space group: C 2 2 2
;
_chemical_formula_sum "Si O2"
_cell_formula_units_Z 30
_cell_length_a 5.019204
_cell_length_b 26.605661
_cell_length_c 9.123377
_cell_angle_alpha 90.000000
_cell_angle_beta 90.000000
_cell_angle_gamma 90.000000
_cell_volume 1218.328832
_symmetry_space_group_name_H-M "C 2 2 2"
_symmetry_group_IT_number 21
_symmetry_cell_setting 'orthorhombic'
loop_
_space_group_symop_operation_xyz
x,y,z
-x,-y,z
x,-y,-z
-x,y,-z
1/2+x,1/2+y,z
1/2-x,1/2-y,z
1/2+x,1/2-y,-z
1/2-x,1/2+y,-z
loop_
_atom_site_type_symbol
_atom_site_label
_atom_site_fract_x
_atom_site_fract_y
_atom_site_fract_z
Si Si1 0.500000 0.114541 0.500000
Si Si2 0.500000 0.294997 0.000000
Si Si3 0.750000 0.250000 0.263804
Si Si4 0.000000 0.825192 0.500000
Si Si5 0.500000 0.500000 0.000000
Si Si6 0.000000 0.631553 0.000000
Si Si7 0.625026 0.053720 0.228822
O O1 0.747022 0.145487 0.570387
O O2 0.662302 0.081434 0.381934
O O3 0.481255 0.259264 0.857362
O O4 0.253333 0.332917 0.981984
O O5 0.837256 0.206547 0.378094
O O6 0.345728 0.536728 0.111375
O O7 0.041912 0.594311 0.863204
O O8 0.500000 0.000000 0.264548
#
# Coordination Sequence:
#
# PCOD9325758 Si02
#       7
#     4   4   4   4   2   4   8
#     4  12  30  50  80 121 162 213 282 328 408 476
#     4  12  28  46  81 117 152 207 265 342 381 501
#     4  12  28  54  80 118 160 210 272 328 432 466
#     4  12  29  54  81 119 164 217 263 352 401 502
#     4  12  24  48  82 116 160 220 266 326 408 466
#     4  12  24  46  76 118 158 199 271 324 402 460
#     4  12  26  48  77 116 162 219 261 334 395 488
#
# _framework density 24.623894
#
# number of rings (size 3 to 8) (size 9 to 14) (size 15 to 20)
#    0.000    0.000    2.667    6.000    3.733    7.467 
#    0.000    0.000    0.000    0.000    0.000    0.000 
#    0.000    0.000    0.000    0.000    0.000    0.000 
#
# Total GULP energy -83555.570059 kJ/mol
# GULP energy per Si atom -5570.371337 kJ/mol
# Density = 2.456785 g / cm^3
# Si number density = 24.623894 Si / 1000 Ang^3
#
#
#
# Elastic Constant Matrix: (Units=GPa)
#
#
# Indices 1 2 3 4 5 6 
#
# 1 136.9432 60.2682 7.2811 0.0000 0.0000 0.0000
# 2 60.2682 127.1400 39.8203 0.0000 0.0000 0.0000
# 3 7.2811 39.8203 136.8939 0.0000 0.0000 0.0000
# 4 0.0000 0.0000 0.0000 -11.7358 0.0000 0.0000
# 5 0.0000 0.0000 0.0000 0.0000 14.7203 0.0000
# 6 0.0000 0.0000 0.0000 0.0000 0.0000 47.2157
#
#
#
# Elastic Compliance Matrix: (Units=1/GPa)
#
#
# Indices 1 2 3 4 5 6 
#
# 1 0.009320 -0.004690 0.000869 0.000000 0.000000 0.000000
# 2 -0.004690 0.011014 -0.002954 0.000000 0.000000 0.000000
# 3 0.000869 -0.002954 0.008118 0.000000 0.000000 0.000000
# 4 0.000000 0.000000 0.000000 -0.085210 0.000000 0.000000
# 5 0.000000 0.000000 0.000000 0.000000 0.067934 0.000000
# 6 0.000000 0.000000 0.000000 0.000000 0.000000 0.021179
#
#
# Mechanical properties :
#
#
# Convention : Reuss Voigt Hill
#
# Bulk Modulus (GPa) = 67.11190 68.41292 67.76241
# Shear Modulus (GPa) = 98.28216 29.61389 63.94803
#
# Velocity S-wave (km/s) = 6.32455 3.47168 5.10160
# Velocity P-wave (km/s) = 8.98038 6.62673 7.89179
#
# Compressibility (1/GPa) = 0.01490049
#
# Stress axis : x y z
#
# Youngs Moduli (GPa) = 107.29377 90.79458 123.18167
#
# Poissons Ratio (x) = 0.42583 -0.10699
# Poissons Ratio (y) = 0.50322 0.36392
# Poissons Ratio (z) = -0.09319 0.26823
#
# Static dielectric constant tensor:
#      x y z
#    x 2.041850 0.000000 0.000000 
#    y 0.000000 2.002690 0.000000 
#    z 0.000000 0.000000 1.950090 
# 
# From -- ./inp_files/9146.got.cif
#   From: 2010.05.17/outbox.cif.g08.bks.cpg/sg21_5_cif.got.tgz:9146.got - 2010.06.03 23:14:55.
