data_PCOD9325382
_publ_section_title
;
Structure prediction by ZEFSAII (Michael W. Deem and Ramdas Pophale) SiO2 
 PCOD9325382
Probable space group: C 2 2 2
;
_chemical_formula_sum "Si O2"
_cell_formula_units_Z 26
_cell_length_a 13.219004
_cell_length_b 7.914144
_cell_length_c 10.549624
_cell_angle_alpha 90.000000
_cell_angle_beta 90.000000
_cell_angle_gamma 90.000000
_cell_volume 1103.671082
_symmetry_space_group_name_H-M "C 2 2 2"
_symmetry_group_IT_number 21
_symmetry_cell_setting 'orthorhombic'
loop_
_space_group_symop_operation_xyz
x,y,z
-x,-y,z
x,-y,-z
-x,y,-z
1/2+x,1/2+y,z
1/2-x,1/2-y,z
1/2+x,1/2-y,-z
1/2-x,1/2+y,-z
loop_
_atom_site_type_symbol
_atom_site_label
_atom_site_fract_x
_atom_site_fract_y
_atom_site_fract_z
Si Si1 0.500000 0.000000 0.000000
Si Si2 0.187735 0.912677 0.364798
Si Si3 0.167917 0.640196 0.812795
Si Si4 0.497793 0.205523 0.350455
O O1 0.421391 0.906773 0.907878
O O2 0.250000 0.750000 0.409900
O O3 0.087157 0.827562 0.302362
O O4 0.164355 0.000000 0.500000
O O5 0.266764 0.003423 0.267126
O O6 0.250000 0.750000 0.885913
O O7 0.109494 0.754423 0.708671
O O8 0.500000 0.222731 0.500000
O O9 0.500000 0.000000 0.328239
#
# Coordination Sequence:
#
# PCOD9325382 Si02
#       4
#     2   8   8   8
#     4  12  28  52  70 100 140 184 246 314 356 402
#     4  12  23  41  74 111 149 191 232 283 361 437
#     4  12  27  47  73 102 139 191 244 295 361 419
#     4  11  22  42  69 105 149 183 223 286 353 428
#
# _framework density 23.557742999999999
#
# number of rings (size 3 to 8) (size 9 to 14) (size 15 to 20)
#    0.000    0.308    4.615    4.615    0.000    8.000 
#    0.000    0.000    0.000    1.846    0.000    0.000 
#    0.000    0.000    0.000    0.000    0.000    0.000 
#
# Total GULP energy -72468.981272 kJ/mol
# GULP energy per Si atom -5574.537021 kJ/mol
# Density = 2.350412 g / cm^3
# Si number density = 23.557743 Si / 1000 Ang^3
#
#
#
# Elastic Constant Matrix: (Units=GPa)
#
#
# Indices 1 2 3 4 5 6 
#
# 1 216.2602 88.4320 57.3585 0.0000 0.0000 0.0000
# 2 88.4320 82.0949 29.5995 0.0000 0.0000 0.0000
# 3 57.3585 29.5995 106.4349 0.0000 0.0000 0.0000
# 4 0.0000 0.0000 0.0000 0.1922 0.0000 0.0000
# 5 0.0000 0.0000 0.0000 0.0000 36.7499 0.0000
# 6 0.0000 0.0000 0.0000 0.0000 0.0000 69.9064
#
#
#
# Elastic Compliance Matrix: (Units=1/GPa)
#
#
# Indices 1 2 3 4 5 6 
#
# 1 0.008755 -0.008591 -0.002329 0.000000 0.000000 0.000000
# 2 -0.008591 0.021968 -0.001480 0.000000 0.000000 0.000000
# 3 -0.002329 -0.001480 0.011062 0.000000 0.000000 0.000000
# 4 0.000000 0.000000 0.000000 5.203416 0.000000 0.000000
# 5 0.000000 0.000000 0.000000 0.000000 0.027211 0.000000
# 6 0.000000 0.000000 0.000000 0.000000 0.000000 0.014305
#
#
# Mechanical properties :
#
#
# Convention : Reuss Voigt Hill
#
# Bulk Modulus (GPa) = 58.87107 83.95220 71.41164
# Shear Modulus (GPa) = 0.94035 36.66303 18.80169
#
# Velocity S-wave (km/s) = 0.63248 3.94928 2.82815
# Velocity P-wave (km/s) = 5.05744 7.51731 6.40655
#
# Compressibility (1/GPa) = 0.01698627
#
# Stress axis : x y z
#
# Youngs Moduli (GPa) = 114.22542 45.51981 90.39973
#
# Poissons Ratio (x) = 0.39105 0.21053
# Poissons Ratio (y) = 0.98128 0.13377
# Poissons Ratio (z) = 0.26601 0.06736
#
# Static dielectric constant tensor:
#      x y z
#    x 2.052070 0.000000 0.000000 
#    y 0.000000 2.149320 0.000000 
#    z 0.000000 0.000000 1.929540 
# 
# From -- ./inp_files/23266.got.cif
#   From: 2010.05.17/outbox.cif.g08.bks.cpg/sg21_12_cif.got.tgz:23266.got - 2010.06.03 23:14:55.
