data_PCOD9325828
_publ_section_title
;
Structure prediction by ZEFSAII (Michael W. Deem and Ramdas Pophale) SiO2 
 PCOD9325828
Probable space group: C 2 2 2
;
_chemical_formula_sum "Si O2"
_cell_formula_units_Z 56
_cell_length_a 20.142029
_cell_length_b 16.612764
_cell_length_c 7.818526
_cell_angle_alpha 90.000000
_cell_angle_beta 90.000000
_cell_angle_gamma 90.000000
_cell_volume 2616.194313
_symmetry_space_group_name_H-M "C 2 2 2"
_symmetry_group_IT_number 21
_symmetry_cell_setting 'orthorhombic'
loop_
_space_group_symop_operation_xyz
x,y,z
-x,-y,z
x,-y,-z
-x,y,-z
1/2+x,1/2+y,z
1/2-x,1/2-y,z
1/2+x,1/2-y,-z
1/2-x,1/2+y,-z
loop_
_atom_site_type_symbol
_atom_site_label
_atom_site_fract_x
_atom_site_fract_y
_atom_site_fract_z
Si Si1 0.838897 0.593892 0.687687
Si Si2 0.423699 0.900856 1.000000
Si Si3 0.425308 0.405954 0.290979
Si Si4 0.792047 0.826534 0.705388
Si Si5 0.207953 0.173466 0.294612
Si Si6 0.425308 0.594046 0.290979
Si Si7 0.661103 0.093892 0.687687
O O1 0.761446 0.602600 0.730157
O O2 0.854874 0.500000 0.676669
O O3 0.849919 0.630882 0.500000
O O4 0.885232 0.629043 0.833140
O O5 0.385232 0.870957 0.833139
O O6 0.500000 0.878148 0.000000
O O7 0.420774 0.000000 0.000000
O O8 0.364271 0.351041 0.228517
O O9 0.414882 0.500000 0.243762
O O10 0.500000 0.382369 0.237286
O O11 0.424348 0.403993 0.500000
O O12 0.750000 0.750000 0.771259
O O13 0.799439 0.815572 0.500000
O O14 0.864271 0.851040 0.771483
O O15 0.250000 0.250000 0.228740
O O16 0.261446 0.102600 0.269843
#
# Coordination Sequence:
#
# PCOD9325828 Si02
#       7
#     8   8   8   8   8   8   8
#     4   9  17  30  49  71  95 126 163 202 245 293
#     4   9  18  32  49  70  95 123 161 206 244 284
#     4   8  13  22  38  60  86 118 157 200 242 283
#     4   9  16  26  41  65  97 127 157 196 242 294
#     4   9  16  26  41  65  97 127 157 196 242 294
#     4   8  13  22  38  60  86 118 157 200 242 283
#     4   9  17  30  49  71  95 126 163 202 245 293
#
# _framework density 21.405137
#
# number of rings (size 3 to 8) (size 9 to 14) (size 15 to 20)
#    0.000    3.286    0.000    1.714    0.000    4.000 
#    0.000    5.000    0.000    5.143    0.000    1.000 
#    0.000    5.714    0.000    0.571    0.000    0.000 
#
# Total GULP energy -155964.092498 kJ/mol
# GULP energy per Si atom -5570.146161 kJ/mol
# Density = 2.135642 g / cm^3
# Si number density = 21.405137 Si / 1000 Ang^3
#
#
#
# Elastic Constant Matrix: (Units=GPa)
#
#
# Indices 1 2 3 4 5 6 
#
# 1 224.9700 53.6845 65.3262 0.0000 0.0000 0.0000
# 2 53.6845 45.1177 12.3907 0.0000 0.0000 0.0000
# 3 65.3262 12.3907 60.1745 0.0000 0.0000 0.0000
# 4 0.0000 0.0000 0.0000 -5.7120 0.0000 0.0000
# 5 0.0000 0.0000 0.0000 0.0000 18.0384 0.0000
# 6 0.0000 0.0000 0.0000 0.0000 0.0000 29.2044
#
#
#
# Elastic Compliance Matrix: (Units=1/GPa)
#
#
# Indices 1 2 3 4 5 6 
#
# 1 0.008619 -0.008147 -0.007679 0.000000 0.000000 0.000000
# 2 -0.008147 0.031193 0.002421 0.000000 0.000000 0.000000
# 3 -0.007679 0.002421 0.024457 0.000000 0.000000 0.000000
# 4 0.000000 0.000000 0.000000 -0.175069 0.000000 0.000000
# 5 0.000000 0.000000 0.000000 0.000000 0.055437 0.000000
# 6 0.000000 0.000000 0.000000 0.000000 0.000000 0.034241
#
#
# Mechanical properties :
#
#
# Convention : Reuss Voigt Hill
#
# Bulk Modulus (GPa) = 26.69621 65.89611 46.29616
# Shear Modulus (GPa) = 275.10876 21.56352 148.33614
#
# Velocity S-wave (km/s) = 11.34917 3.17740 8.33365
# Velocity P-wave (km/s) = 13.57340 6.65681 10.68996
#
# Compressibility (1/GPa) = 0.03745850
#
# Stress axis : x y z
#
# Youngs Moduli (GPa) = 116.02347 32.05872 40.88869
#
# Poissons Ratio (x) = 0.26117 0.31400
# Poissons Ratio (y) = 0.94519 -0.09899
# Poissons Ratio (z) = 0.89099 -0.07761
#
# Static dielectric constant tensor:
#      x y z
#    x 1.747140 0.000000 0.000000 
#    y 0.000000 1.819650 0.000000 
#    z 0.000000 0.000000 1.933640 
# 
# From -- ./inp_files/15277.got.cif
#   From: 2010.05.17/outbox.cif.g08.bks.cpg/sg21_8_cif.got.tgz:15277.got - 2010.06.03 23:14:55.
