data_PCOD9325776
_publ_section_title
;
Structure prediction by ZEFSAII (Michael W. Deem and Ramdas Pophale) SiO2 
 PCOD9325776
Probable space group: C 2 2 2
;
_chemical_formula_sum "Si O2"
_cell_formula_units_Z 24
_cell_length_a 13.597646
_cell_length_b 5.196872
_cell_length_c 13.640072
_cell_angle_alpha 90.000000
_cell_angle_beta 90.000000
_cell_angle_gamma 90.000000
_cell_volume 963.878767
_symmetry_space_group_name_H-M "C 2 2 2"
_symmetry_group_IT_number 21
_symmetry_cell_setting 'orthorhombic'
loop_
_space_group_symop_operation_xyz
x,y,z
-x,-y,z
x,-y,-z
-x,y,-z
1/2+x,1/2+y,z
1/2-x,1/2-y,z
1/2+x,1/2-y,-z
1/2-x,1/2+y,-z
loop_
_atom_site_type_symbol
_atom_site_label
_atom_site_fract_x
_atom_site_fract_y
_atom_site_fract_z
Si Si1 0.149925 0.895496 0.205734
Si Si2 0.000000 0.500000 0.719007
Si Si3 0.643690 0.656750 0.409697
Si Si4 0.750000 0.250000 0.934404
O O1 0.250000 0.750000 0.180577
O O2 0.055146 0.711211 0.212779
O O3 0.162001 0.974774 0.317762
O O4 0.160791 0.144527 0.134867
O O5 0.922769 0.371063 0.643280
O O6 0.600387 0.500000 0.500000
O O7 0.750000 0.750000 0.443572
O O8 0.777798 0.500000 0.000000
#
# Coordination Sequence:
#
# PCOD9325776 Si02
#       4
#     8   4   8   4
#     4  12  24  51  84 126 163 225 283 356 422 517
#     4  12  28  49  82 121 172 230 284 345 435 498
#     4  12  27  49  77 119 173 223 284 341 419 512
#     4  12  26  50  94 130 164 228 290 358 448 510
#
# _framework density 24.899395999999999
#
# number of rings (size 3 to 8) (size 9 to 14) (size 15 to 20)
#    0.000    0.000    6.667    2.000    0.000    4.000 
#    0.000    0.000    0.000   28.000    0.000    0.000 
#    0.000    0.000    0.000    0.000    0.000    0.000 
#
# Total GULP energy -67068.485468 kJ/mol
# GULP energy per Si atom -5589.040456 kJ/mol
# Density = 2.484272 g / cm^3
# Si number density = 24.899396 Si / 1000 Ang^3
#
#
#
# Elastic Constant Matrix: (Units=GPa)
#
#
# Indices 1 2 3 4 5 6 
#
# 1 175.3037 82.6544 46.5588 0.0000 0.0000 0.0000
# 2 82.6544 169.2579 88.1654 0.0000 0.0000 0.0000
# 3 46.5588 88.1654 174.5678 0.0000 0.0000 0.0000
# 4 0.0000 0.0000 0.0000 25.4242 0.0000 0.0000
# 5 0.0000 0.0000 0.0000 0.0000 -12.9989 0.0000
# 6 0.0000 0.0000 0.0000 0.0000 0.0000 380.7213
#
#
#
# Elastic Compliance Matrix: (Units=1/GPa)
#
#
# Indices 1 2 3 4 5 6 
#
# 1 0.007416 -0.003516 -0.000202 0.000000 0.000000 0.000000
# 2 -0.003516 0.009685 -0.003953 0.000000 0.000000 0.000000
# 3 -0.000202 -0.003953 0.007779 0.000000 0.000000 0.000000
# 4 0.000000 0.000000 0.000000 0.039333 0.000000 0.000000
# 5 0.000000 0.000000 0.000000 0.000000 -0.076930 0.000000
# 6 0.000000 0.000000 0.000000 0.000000 0.000000 0.002627
#
#
# Mechanical properties :
#
#
# Convention : Reuss Voigt Hill
#
# Bulk Modulus (GPa) = 104.86367 105.98741 105.42554
# Shear Modulus (GPa) = 593.06596 98.74604 345.90600
#
# Velocity S-wave (km/s) = 15.44998 6.30429 11.79928
# Velocity P-wave (km/s) = 18.98620 9.78012 15.10176
#
# Compressibility (1/GPa) = 0.00953619
#
# Stress axis : x y z
#
# Youngs Moduli (GPa) = 134.84521 103.25770 128.55194
#
# Poissons Ratio (x) = 0.36308 0.02597
# Poissons Ratio (y) = 0.47414 0.50821
# Poissons Ratio (z) = 0.02724 0.40821
#
# Static dielectric constant tensor:
#      x y z
#    x 2.078580 0.000000 0.000000 
#    y 0.000000 2.250780 0.000000 
#    z 0.000000 0.000000 1.849470 
# 
# From -- ./inp_files/31100.got.cif
#   From: 2010.05.17/outbox.cif.g08.bks.cpg/sg21_16_cif.got.tgz:31100.got - 2010.06.03 23:14:55.
