data_PCOD9325271
_publ_section_title
;
Structure prediction by ZEFSAII (Michael W. Deem and Ramdas Pophale) SiO2 
 PCOD9325271
Probable space group: C 2 2 2
;
_chemical_formula_sum "Si O2"
_cell_formula_units_Z 58
_cell_length_a 28.790556
_cell_length_b 12.009389
_cell_length_c 8.749476
_cell_angle_alpha 90.000000
_cell_angle_beta 90.000000
_cell_angle_gamma 90.000000
_cell_volume 3025.192455
_symmetry_space_group_name_H-M "C 2 2 2"
_symmetry_group_IT_number 21
_symmetry_cell_setting 'orthorhombic'
loop_
_space_group_symop_operation_xyz
x,y,z
-x,-y,z
x,-y,-z
-x,y,-z
1/2+x,1/2+y,z
1/2-x,1/2-y,z
1/2+x,1/2-y,-z
1/2-x,1/2+y,-z
loop_
_atom_site_type_symbol
_atom_site_label
_atom_site_fract_x
_atom_site_fract_y
_atom_site_fract_z
Si Si1 0.946910 0.673767 0.051156
Si Si2 0.169713 0.387569 0.653812
Si Si3 0.299113 0.687901 0.143784
Si Si4 0.500000 0.000000 0.500000
Si Si5 0.569955 0.953841 0.745594
Si Si6 0.705083 0.883944 0.307461
Si Si7 0.196934 0.040268 0.325539
Si Si8 0.358929 0.702739 0.846019
O O1 0.943460 0.572845 0.175966
O O2 0.912027 0.767267 0.114876
O O3 0.927048 0.626180 0.891860
O O4 0.000000 0.700782 0.000000
O O5 0.174954 0.273330 0.742944
O O6 0.118447 0.438565 0.660168
O O7 0.189695 0.372012 0.484178
O O8 0.198273 0.486236 0.733775
O O9 0.250000 0.750000 0.109022
O O10 0.295220 0.569362 0.225231
O O11 0.330697 0.669607 0.996599
O O12 0.532076 0.930124 0.615237
O O13 0.760630 0.872394 0.298557
O O14 0.668956 0.812105 0.211574
O O15 0.150664 0.106253 0.277206
O O16 0.197544 0.000000 0.500000
#
# Coordination Sequence:
#
# PCOD9325271 Si02
#       8
#     8   8   8   2   8   8   8   8
#     4  11  22  42  61  91 131 171 203 266 343 387
#     4  11  21  37  61  93 129 174 203 256 318 384
#     4  12  23  40  61  88 126 167 214 259 310 373
#     4  12  20  34  64  96 128 172 212 256 320 398
#     4  11  21  37  61  93 135 166 208 260 319 399
#     4  11  21  39  60  91 134 169 216 254 323 382
#     4  12  24  43  62  88 127 174 224 268 311 378
#     4  12  26  39  63  92 124 170 217 267 323 388
#
# _framework density 19.172333999999999
#
# number of rings (size 3 to 8) (size 9 to 14) (size 15 to 20)
#    0.000    0.552    6.897    3.724    0.000    0.552 
#    0.000    0.000    0.000    1.655    0.000    0.966 
#    0.000    0.000    0.000    0.000    0.000    0.000 
#
# Total GULP energy -161812.402735 kJ/mol
# GULP energy per Si atom -5579.738025 kJ/mol
# Density = 1.912870 g / cm^3
# Si number density = 19.172334 Si / 1000 Ang^3
#
#
#
# Elastic Constant Matrix: (Units=GPa)
#
#
# Indices 1 2 3 4 5 6 
#
# 1 133.2965 24.5410 21.6264 0.0000 0.0000 0.0000
# 2 24.5410 61.2525 21.2432 0.0000 0.0000 0.0000
# 3 21.6264 21.2432 60.1569 0.0000 0.0000 0.0000
# 4 0.0000 0.0000 0.0000 26.0200 0.0000 0.0000
# 5 0.0000 0.0000 0.0000 0.0000 33.1725 0.0000
# 6 0.0000 0.0000 0.0000 0.0000 0.0000 23.7349
#
#
#
# Elastic Compliance Matrix: (Units=1/GPa)
#
#
# Indices 1 2 3 4 5 6 
#
# 1 0.008319 -0.002616 -0.002067 0.000000 0.000000 0.000000
# 2 -0.002616 0.019427 -0.005920 0.000000 0.000000 0.000000
# 3 -0.002067 -0.005920 0.019457 0.000000 0.000000 0.000000
# 4 0.000000 0.000000 0.000000 0.038432 0.000000 0.000000
# 5 0.000000 0.000000 0.000000 0.000000 0.030145 0.000000
# 6 0.000000 0.000000 0.000000 0.000000 0.000000 0.042132
#
#
# Mechanical properties :
#
#
# Convention : Reuss Voigt Hill
#
# Bulk Modulus (GPa) = 38.46571 43.28080 40.87325
# Shear Modulus (GPa) = 26.62636 29.07183 27.84910
#
# Velocity S-wave (km/s) = 3.73069 3.89825 3.81539
# Velocity P-wave (km/s) = 6.21805 6.54870 6.38551
#
# Compressibility (1/GPa) = 0.02599718
#
# Stress axis : x y z
#
# Youngs Moduli (GPa) = 120.20568 51.47436 51.39620
#
# Poissons Ratio (x) = 0.13467 0.10623
# Poissons Ratio (y) = 0.31449 0.30425
# Poissons Ratio (z) = 0.24844 0.30472
#
# Static dielectric constant tensor:
#      x y z
#    x 1.736080 0.000000 0.000000 
#    y 0.000000 1.669200 0.000000 
#    z 0.000000 0.000000 1.682310 
# 
# From -- ./inp_files/19160.got.cif
#   From: 2010.05.17/outbox.cif.g08.bks.cpg/sg21_10_cif.got.tgz:19160.got - 2010.06.03 23:14:55.
