data_PCOD9325464
_publ_section_title
;
Structure prediction by ZEFSAII (Michael W. Deem and Ramdas Pophale) SiO2 
 PCOD9325464
Probable space group: C 2 2 2
;
_chemical_formula_sum "Si O2"
_cell_formula_units_Z 64
_cell_length_a 24.862751
_cell_length_b 8.592458
_cell_length_c 14.833368
_cell_angle_alpha 90.000000
_cell_angle_beta 90.000000
_cell_angle_gamma 90.000000
_cell_volume 3168.884205
_symmetry_space_group_name_H-M "C 2 2 2"
_symmetry_group_IT_number 21
_symmetry_cell_setting 'orthorhombic'
loop_
_space_group_symop_operation_xyz
x,y,z
-x,-y,z
x,-y,-z
-x,y,-z
1/2+x,1/2+y,z
1/2-x,1/2-y,z
1/2+x,1/2-y,-z
1/2-x,1/2+y,-z
loop_
_atom_site_type_symbol
_atom_site_label
_atom_site_fract_x
_atom_site_fract_y
_atom_site_fract_z
Si Si1 0.089122 0.814441 0.505676
Si Si2 0.696853 0.855978 0.436232
Si Si3 0.495457 0.686927 0.352464
Si Si4 0.208162 0.610892 0.087791
Si Si5 0.611483 0.317423 0.092237
Si Si6 0.298995 0.866294 0.767890
Si Si7 0.500619 0.184177 0.154617
Si Si8 0.115015 0.167345 0.119459
O O1 0.145183 0.732168 0.523355
O O2 0.048206 0.777660 0.587794
O O3 0.056080 0.776523 0.414802
O O4 0.097043 0.000000 0.500000
O O5 0.750000 0.750000 0.435499
O O6 0.683663 0.907197 0.333423
O O7 0.708319 0.000000 0.500000
O O8 0.500000 0.500000 0.334317
O O9 0.492228 0.780494 0.260471
O O10 0.250000 0.750000 0.068788
O O11 0.152366 0.684923 0.122558
O O12 0.224607 0.504093 0.171173
O O13 0.202237 0.500000 0.000000
O O14 0.550496 0.262390 0.103197
O O15 0.618169 0.483374 0.141573
O O16 0.627273 0.329209 0.986921
O O17 0.250000 0.750000 0.757962
O O18 0.345804 0.776555 0.822926
O O19 0.444956 0.266781 0.129208
O O20 0.500000 0.000000 0.136482
#
# Coordination Sequence:
#
# PCOD9325464 Si02
#       8
#     8   8   8   8   8   8   8   8
#     4   9  19  38  65  93 121 165 214 272 328 386
#     4  11  25  43  65  92 129 172 215 269 334 399
#     4   9  19  38  63  91 125 164 218 268 325 392
#     4  12  25  42  70  99 132 169 217 276 330 386
#     4  11  25  40  64  93 127 175 217 271 323 394
#     4  11  24  44  68  98 132 172 219 273 332 397
#     4  12  25  38  59  91 132 175 217 270 327 396
#     4  11  23  43  65  90 131 173 224 263 329 388
#
# _framework density 20.196383999999998
#
# number of rings (size 3 to 8) (size 9 to 14) (size 15 to 20)
#    0.000    1.250    1.250    5.250    1.750    6.000 
#    0.000    1.250    0.000    0.000    0.000    0.000 
#    0.000    0.000    0.000    0.000    0.000    0.000 
#
# Total GULP energy -178799.047253 kJ/mol
# GULP energy per Si atom -5587.470227 kJ/mol
# Density = 2.015042 g / cm^3
# Si number density = 20.196384 Si / 1000 Ang^3
#
#
#
# Elastic Constant Matrix: (Units=GPa)
#
#
# Indices 1 2 3 4 5 6 
#
# 1 89.6832 23.2880 8.7168 0.0000 0.0000 0.0000
# 2 23.2880 90.3590 37.8123 0.0000 0.0000 0.0000
# 3 8.7168 37.8123 85.8317 0.0000 0.0000 0.0000
# 4 0.0000 0.0000 0.0000 21.3609 0.0000 0.0000
# 5 0.0000 0.0000 0.0000 0.0000 17.4742 0.0000
# 6 0.0000 0.0000 0.0000 0.0000 0.0000 39.7727
#
#
#
# Elastic Compliance Matrix: (Units=1/GPa)
#
#
# Indices 1 2 3 4 5 6 
#
# 1 0.011952 -0.003154 0.000176 0.000000 0.000000 0.000000
# 2 -0.003154 0.014401 -0.006024 0.000000 0.000000 0.000000
# 3 0.000176 -0.006024 0.014287 0.000000 0.000000 0.000000
# 4 0.000000 0.000000 0.000000 0.046815 0.000000 0.000000
# 5 0.000000 0.000000 0.000000 0.000000 0.057227 0.000000
# 6 0.000000 0.000000 0.000000 0.000000 0.000000 0.025143
#
#
# Mechanical properties :
#
#
# Convention : Reuss Voigt Hill
#
# Bulk Modulus (GPa) = 44.17876 45.05645 44.61760
# Shear Modulus (GPa) = 25.59206 28.79202 27.19204
#
# Velocity S-wave (km/s) = 3.56358 3.77981 3.67329
# Velocity P-wave (km/s) = 6.23332 6.43482 6.33487
#
# Compressibility (1/GPa) = 0.02263531
#
# Stress axis : x y z
#
# Youngs Moduli (GPa) = 83.66612 69.44180 69.99578
#
# Poissons Ratio (x) = 0.21901 -0.01229
# Poissons Ratio (y) = 0.26387 0.42164
# Poissons Ratio (z) = -0.01469 0.41830
#
# Static dielectric constant tensor:
#      x y z
#    x 1.711520 0.000000 0.000000 
#    y 0.000000 1.718870 0.000000 
#    z 0.000000 0.000000 1.725190 
# 
# From -- ./inp_files/33626.got.cif
#   From: 2010.05.17/outbox.cif.g08.bks.cpg/sg21_17_cif.got.tgz:33626.got - 2010.06.03 23:14:55.
