data_PCOD9325832
_publ_section_title
;
Structure prediction by ZEFSAII (Michael W. Deem and Ramdas Pophale) SiO2 
 PCOD9325832
Probable space group: C 2 2 2
;
_chemical_formula_sum "Si O2"
_cell_formula_units_Z 24
_cell_length_a 30.000000
_cell_length_b 9.000000
_cell_length_c 9.000000
_cell_angle_alpha 90.000000
_cell_angle_beta 90.000000
_cell_angle_gamma 90.000000
_cell_volume 2430.000000
_symmetry_space_group_name_H-M "C 2 2 2"
_symmetry_group_IT_number 21
_symmetry_cell_setting 'orthorhombic'
loop_
_space_group_symop_operation_xyz
x,y,z
-x,-y,z
x,-y,-z
-x,y,-z
1/2+x,1/2+y,z
1/2-x,1/2-y,z
1/2+x,1/2-y,-z
1/2-x,1/2+y,-z
loop_
_atom_site_type_symbol
_atom_site_label
_atom_site_fract_x
_atom_site_fract_y
_atom_site_fract_z
Si Si1 0.658579 0.023040 0.830023
Si Si2 0.600225 0.295404 0.839670
Si Si3 0.847422 0.961626 0.673493
Si Si4 0.594511 0.763822 0.811413
Si Si5 0.752056 0.427975 0.338094
Si Si6 0.003168 0.671820 0.819537
O O1 0.611795 0.932673 0.820211
O O2 0.702086 0.977012 0.739085
O O3 0.641013 0.186610 0.797124
O O4 0.672563 0.000000 0.000000
O O5 0.616266 0.445233 0.764827
O O6 0.551109 0.244253 0.785399
O O7 0.598686 0.297234 0.019546
O O8 0.847684 0.000000 0.500000
O O9 0.868151 0.800525 0.701705
O O10 0.796348 0.974664 0.729891
O O11 0.542814 0.751506 0.765737
O O12 0.752896 0.500000 0.500000
O O13 0.750000 0.250000 0.347099
O O14 0.000000 0.500000 0.771755
O O15 0.000000 0.672866 0.000000
#
# Coordination Sequence:
#
# PCOD9325832 Si02
#       6
#     8   8   8   8   8   8
#     4  10  21  37  62  91 117 147 190 245 299 344
#     4  10  21  36  62  93 117 151 193 241 294 345
#     4  11  25  41  57  82 119 159 198 241 293 345
#     4  10  19  38  62  89 120 151 191 243 293 347
#     4  11  25  43  62  84 115 158 203 242 290 357
#     4   9  16  32  61  91 118 150 193 238 287 352
#
# _framework density 9.8765429999999999
#
# number of rings (size 3 to 8) (size 9 to 14) (size 15 to 20)
#    0.000    1.833    3.333    0.500    4.667    2.000 
#    0.000    4.167    0.000    1.000    0.000    0.000 
#    0.000    0.000    0.000    0.000    0.000    0.000 
#
# Total GULP energy -133648.325464 kJ/mol
# GULP energy per Si atom -5568.680228 kJ/mol
# Density = 0.985406 g / cm^3
# Si number density = 9.876543 Si / 1000 Ang^3
#
#
#
# Elastic Constant Matrix: (Units=GPa)
#
#
# Indices 1 2 3 4 5 6 
#
# 1 186.7403 21.4560 31.8853 0.0000 0.0000 0.0000
# 2 21.4560 29.9079 3.3316 0.0000 0.0000 0.0000
# 3 31.8853 3.3316 11.2958 0.0000 0.0000 0.0000
# 4 0.0000 0.0000 0.0000 18.4297 0.0000 0.0000
# 5 0.0000 0.0000 0.0000 0.0000 64.5600 0.0000
# 6 0.0000 0.0000 0.0000 0.0000 0.0000 -157.9134
#
#
#
# Elastic Compliance Matrix: (Units=1/GPa)
#
#
# Indices 1 2 3 4 5 6 
#
# 1 0.010903 -0.004543 -0.029438 0.000000 0.000000 0.000000
# 2 -0.004543 0.036465 0.002069 0.000000 0.000000 0.000000
# 3 -0.029438 0.002069 0.171014 0.000000 0.000000 0.000000
# 4 0.000000 0.000000 0.000000 0.054260 0.000000 0.000000
# 5 0.000000 0.000000 0.000000 0.000000 0.015489 0.000000
# 6 0.000000 0.000000 0.000000 0.000000 0.000000 -0.006333
#
#
# Mechanical properties :
#
#
# Convention : Reuss Voigt Hill
#
# Bulk Modulus (GPa) = 6.47004 37.92109 22.19557
# Shear Modulus (GPa) = 12.58992 -3.56667 4.51162
#
# Velocity S-wave (km/s) = 2.52735 -1.34519 1.51293
# Velocity P-wave (km/s) = 3.43500 4.10201 3.78323
#
# Compressibility (1/GPa) = 0.15455846
#
# Stress axis : x y z
#
# Youngs Moduli (GPa) = 91.71434 27.42379 5.84747
#
# Poissons Ratio (x) = 0.12459 0.17214
# Poissons Ratio (y) = 0.41665 -0.01210
# Poissons Ratio (z) = 2.69987 -0.05674
#
# Static dielectric constant tensor:
#      x y z
#    x 1.667040 0.000000 0.000000 
#    y 0.000000 1.659740 0.000000 
#    z 0.000000 0.000000 1.745430 
# 
# From -- ./inp_files/11508.got.cif
#   From: 2010.05.17/outbox.ucp.g08.bks.cvg/sg21_6_cif.got.tgz:11508.got - 2010.06.11 15:15:05.
