data_PCOD9325071
_publ_section_title
;
Structure prediction by ZEFSAII (Michael W. Deem and Ramdas Pophale) SiO2 
 PCOD9325071
Probable space group: C 2 2 2
;
_chemical_formula_sum "Si O2"
_cell_formula_units_Z 32
_cell_length_a 14.691761
_cell_length_b 7.142866
_cell_length_c 11.508670
_cell_angle_alpha 90.000000
_cell_angle_beta 90.000000
_cell_angle_gamma 90.000000
_cell_volume 1207.734562
_symmetry_space_group_name_H-M "C 2 2 2"
_symmetry_group_IT_number 21
_symmetry_cell_setting 'orthorhombic'
loop_
_space_group_symop_operation_xyz
x,y,z
-x,-y,z
x,-y,-z
-x,y,-z
1/2+x,1/2+y,z
1/2-x,1/2-y,z
1/2+x,1/2-y,-z
1/2-x,1/2+y,-z
loop_
_atom_site_type_symbol
_atom_site_label
_atom_site_fract_x
_atom_site_fract_y
_atom_site_fract_z
Si Si1 0.234536 0.500000 0.500000
Si Si2 0.250000 0.250000 0.297690
Si Si3 0.884253 0.760659 0.103182
Si Si4 0.062562 0.311646 0.598199
Si Si5 0.594602 0.295040 0.141291
O O1 0.279111 0.418627 0.383316
O O2 0.159696 0.346194 0.538838
O O3 0.172630 0.322635 0.209521
O O4 0.990999 0.730363 0.116998
O O5 0.882231 0.985940 0.123223
O O6 0.854904 0.708672 0.971896
O O7 0.093955 0.236796 0.722025
O O8 0.000000 0.500000 0.619023
O O9 0.000000 0.210744 0.500000
#
# Coordination Sequence:
#
# PCOD9325071 Si02
#       5
#     4   4   8   8   8
#     4  10  25  38  58  83 136 158 210 264 320 393
#     4  12  24  44  56  96 128 174 206 274 328 384
#     4   9  20  38  64  89 128 161 218 264 309 388
#     4   9  18  37  62  94 122 159 210 265 312 385
#     4   9  18  40  65  90 120 170 212 261 313 381
#
# _framework density 26.495889999999999
#
# number of rings (size 3 to 8) (size 9 to 14) (size 15 to 20)
#    0.000    2.750    0.000    4.500    3.500    0.000 
#    9.000    8.750    0.000    0.000    0.000    0.000 
#    0.000    0.000    0.000    0.000    0.000    0.000 
#
# Total GULP energy -89084.644167 kJ/mol
# GULP energy per Si atom -5567.790260 kJ/mol
# Density = 2.643558 g / cm^3
# Si number density = 26.495890 Si / 1000 Ang^3
#
#
#
# Elastic Constant Matrix: (Units=GPa)
#
#
# Indices 1 2 3 4 5 6 
#
# 1 80.9750 -1.7165 51.0092 0.0000 0.0000 0.0000
# 2 -1.7165 74.8604 56.7808 0.0000 0.0000 0.0000
# 3 51.0092 56.7808 316.8765 0.0000 0.0000 0.0000
# 4 0.0000 0.0000 0.0000 30.8301 0.0000 0.0000
# 5 0.0000 0.0000 0.0000 0.0000 3.6373 0.0000
# 6 0.0000 0.0000 0.0000 0.0000 0.0000 16.7648
#
#
#
# Elastic Compliance Matrix: (Units=1/GPa)
#
#
# Indices 1 2 3 4 5 6 
#
# 1 0.014096 0.002366 -0.002693 0.000000 0.000000 0.000000
# 2 0.002366 0.015856 -0.003222 0.000000 0.000000 0.000000
# 3 -0.002693 -0.003222 0.004167 0.000000 0.000000 0.000000
# 4 0.000000 0.000000 0.000000 0.032436 0.000000 0.000000
# 5 0.000000 0.000000 0.000000 0.000000 0.274929 0.000000
# 6 0.000000 0.000000 0.000000 0.000000 0.000000 0.059649
#
#
# Mechanical properties :
#
#
# Convention : Reuss Voigt Hill
#
# Bulk Modulus (GPa) = 37.00890 76.09545 56.55218
# Shear Modulus (GPa) = 11.98355 34.68901 23.33628
#
# Velocity S-wave (km/s) = 2.12899 3.62224 2.97096
# Velocity P-wave (km/s) = 4.47678 6.80267 5.75838
#
# Compressibility (1/GPa) = 0.02702052
#
# Stress axis : x y z
#
# Youngs Moduli (GPa) = 70.94164 63.06599 239.99860
#
# Poissons Ratio (x) = -0.14921 0.64633
# Poissons Ratio (y) = -0.16784 0.77331
# Poissons Ratio (z) = 0.19105 0.20321
#
# Static dielectric constant tensor:
#      x y z
#    x 2.047240 0.000000 0.000000 
#    y 0.000000 2.372850 0.000000 
#    z 0.000000 0.000000 2.211240 
# 
# From -- ./inp_files/25775.got.cif
#   From: 2010.05.17/outbox.cif.g08.bks.cpg/sg21_13_cif.got.tgz:25775.got - 2010.06.03 23:14:55.
