data_PCOD9325609
_publ_section_title
;
Structure prediction by ZEFSAII (Michael W. Deem and Ramdas Pophale) SiO2 
 PCOD9325609
Probable space group: C 2 2 2
;
_chemical_formula_sum "Si O2"
_cell_formula_units_Z 38
_cell_length_a 20.895008
_cell_length_b 9.298739
_cell_length_c 8.961964
_cell_angle_alpha 90.000000
_cell_angle_beta 90.000000
_cell_angle_gamma 90.000000
_cell_volume 1741.284743
_symmetry_space_group_name_H-M "C 2 2 2"
_symmetry_group_IT_number 21
_symmetry_cell_setting 'orthorhombic'
loop_
_space_group_symop_operation_xyz
x,y,z
-x,-y,z
x,-y,-z
-x,y,-z
1/2+x,1/2+y,z
1/2-x,1/2-y,z
1/2+x,1/2-y,-z
1/2-x,1/2+y,-z
loop_
_atom_site_type_symbol
_atom_site_label
_atom_site_fract_x
_atom_site_fract_y
_atom_site_fract_z
Si Si1 0.500000 0.500000 0.000000
Si Si2 0.608552 0.500000 0.500000
Si Si3 0.916416 0.828370 0.767743
Si Si4 0.298221 0.639562 0.051318
Si Si5 0.672600 0.264850 0.722602
Si Si6 0.075306 0.495993 0.679476
O O1 0.464034 0.389346 0.890711
O O2 0.568159 0.599460 0.610805
O O3 0.647355 0.383822 0.603096
O O4 0.849949 0.892644 0.826237
O O5 0.905315 0.659169 0.745813
O O6 0.250000 0.750000 0.117633
O O7 0.260193 0.500000 0.000000
O O8 0.330419 0.694514 0.898772
O O9 0.750000 0.250000 0.695338
O O10 0.625768 0.124412 0.714996
O O11 0.074401 0.500000 0.500000
O O12 0.000000 0.500000 0.727522
#
# Coordination Sequence:
#
# PCOD9325609 Si02
#       6
#     2   4   8   8   8   8
#     4  12  28  50  74 116 140 202 258 302 376 482
#     4  12  24  45  76 106 141 194 242 324 370 450
#     4  12  27  46  77 102 151 187 255 305 381 460
#     4  11  25  46  68 102 144 192 246 308 374 452
#     4  11  26  46  72 107 148 193 257 309 383 460
#     4  11  27  47  70 108 149 193 243 313 386 452
#
# _framework density 21.822967999999999
#
# number of rings (size 3 to 8) (size 9 to 14) (size 15 to 20)
#    0.000    0.632    5.263    0.000   13.263    1.263 
#    0.000    0.000    0.000    0.000    0.000    0.000 
#    0.000    0.000    0.000    0.000    0.000    0.000 
#
# Total GULP energy -105841.617406 kJ/mol
# GULP energy per Si atom -5570.611442 kJ/mol
# Density = 2.177330 g / cm^3
# Si number density = 21.822968 Si / 1000 Ang^3
#
#
#
# Elastic Constant Matrix: (Units=GPa)
#
#
# Indices 1 2 3 4 5 6 
#
# 1 88.8888 61.3018 28.4590 0.0000 0.0000 0.0000
# 2 61.3018 153.3705 35.8250 0.0000 0.0000 0.0000
# 3 28.4590 35.8250 100.4930 0.0000 0.0000 0.0000
# 4 0.0000 0.0000 0.0000 27.9138 0.0000 0.0000
# 5 0.0000 0.0000 0.0000 0.0000 28.6170 0.0000
# 6 0.0000 0.0000 0.0000 0.0000 0.0000 29.0071
#
#
#
# Elastic Compliance Matrix: (Units=1/GPa)
#
#
# Indices 1 2 3 4 5 6 
#
# 1 0.016073 -0.005848 -0.002467 0.000000 0.000000 0.000000
# 2 -0.005848 0.009240 -0.001638 0.000000 0.000000 0.000000
# 3 -0.002467 -0.001638 0.011233 0.000000 0.000000 0.000000
# 4 0.000000 0.000000 0.000000 0.035825 0.000000 0.000000
# 5 0.000000 0.000000 0.000000 0.000000 0.034944 0.000000
# 6 0.000000 0.000000 0.000000 0.000000 0.000000 0.034474
#
#
# Mechanical properties :
#
#
# Convention : Reuss Voigt Hill
#
# Bulk Modulus (GPa) = 60.09359 65.99153 63.04256
# Shear Modulus (GPa) = 29.89669 31.58535 30.74102
#
# Velocity S-wave (km/s) = 3.70532 3.80853 3.75728
# Velocity P-wave (km/s) = 6.77514 7.04592 6.91185
#
# Compressibility (1/GPa) = 0.01664071
#
# Stress axis : x y z
#
# Youngs Moduli (GPa) = 62.21637 108.22267 89.01957
#
# Poissons Ratio (x) = 0.63289 0.21961
# Poissons Ratio (y) = 0.36385 0.14581
# Poissons Ratio (z) = 0.15349 0.17726
#
# Static dielectric constant tensor:
#      x y z
#    x 1.835760 0.000000 0.000000 
#    y 0.000000 1.766640 0.000000 
#    z 0.000000 0.000000 1.808230 
# 
# From -- ./inp_files/18274.got.cif
#   From: 2010.05.17/outbox.cif.g08.bks.cpg/sg21_10_cif.got.tgz:18274.got - 2010.06.03 23:14:55.
