data_PCOD9325222
_publ_section_title
;
Structure prediction by ZEFSAII (Michael W. Deem and Ramdas Pophale) SiO2 
 PCOD9325222
Probable space group: C 2 2 2
;
_chemical_formula_sum "Si O2"
_cell_formula_units_Z 40
_cell_length_a 11.483167
_cell_length_b 19.899933
_cell_length_c 8.755723
_cell_angle_alpha 90.000000
_cell_angle_beta 90.000000
_cell_angle_gamma 90.000000
_cell_volume 2000.807509
_symmetry_space_group_name_H-M "C 2 2 2"
_symmetry_group_IT_number 21
_symmetry_cell_setting 'orthorhombic'
loop_
_space_group_symop_operation_xyz
x,y,z
-x,-y,z
x,-y,-z
-x,y,-z
1/2+x,1/2+y,z
1/2-x,1/2-y,z
1/2+x,1/2-y,-z
1/2-x,1/2+y,-z
loop_
_atom_site_type_symbol
_atom_site_label
_atom_site_fract_x
_atom_site_fract_y
_atom_site_fract_z
Si Si1 0.681639 0.436990 0.590121
Si Si2 0.496975 0.189039 0.819053
Si Si3 0.070288 0.558658 0.663779
Si Si4 0.250178 0.326253 0.654513
Si Si5 0.507231 0.669801 0.316090
O O1 0.627164 0.500000 0.500000
O O2 0.797539 0.466847 0.663209
O O3 0.741187 0.381903 0.476598
O O4 0.591025 0.394884 0.692612
O O5 0.570147 0.129412 0.745983
O O6 0.365659 0.174405 0.756239
O O7 0.544250 0.260738 0.760018
O O8 0.500000 0.187965 0.000000
O O9 0.000000 0.500000 0.747047
O O10 0.000000 0.566758 0.500000
O O11 0.250000 0.250000 0.589219
O O12 0.373601 0.338711 0.739512
O O13 0.500000 0.680737 0.500000
#
# Coordination Sequence:
#
# PCOD9325222 Si02
#       5
#     8   8   8   8   8
#     4  11  20  35  62  95 123 157 211 272 327 390
#     4  11  22  38  59  88 126 171 213 264 325 404
#     4  11  20  36  60  87 125 163 208 276 331 378
#     4   9  19  36  57  82 123 156 196 264 323 367
#     4   9  21  37  59  88 118 162 206 266 325 383
#
# _framework density 19.991928000000001
#
# number of rings (size 3 to 8) (size 9 to 14) (size 15 to 20)
#    0.000    1.800    4.000    0.600    5.600    4.000 
#   10.800    0.000    0.000    0.000    0.000   12.600 
#    0.000    0.000    0.000    0.000    0.000    0.000 
#
# Total GULP energy -111346.046489 kJ/mol
# GULP energy per Si atom -5567.302324 kJ/mol
# Density = 1.994643 g / cm^3
# Si number density = 19.991928 Si / 1000 Ang^3
#
#
#
# Elastic Constant Matrix: (Units=GPa)
#
#
# Indices 1 2 3 4 5 6 
#
# 1 119.3429 41.7841 -4.2720 0.0000 0.0000 0.0000
# 2 41.7841 89.9743 -0.8437 0.0000 0.0000 0.0000
# 3 -4.2720 -0.8437 34.5421 0.0000 0.0000 0.0000
# 4 0.0000 0.0000 0.0000 -7.0923 0.0000 0.0000
# 5 0.0000 0.0000 0.0000 0.0000 6.7989 0.0000
# 6 0.0000 0.0000 0.0000 0.0000 0.0000 37.7218
#
#
#
# Elastic Compliance Matrix: (Units=1/GPa)
#
#
# Indices 1 2 3 4 5 6 
#
# 1 0.010050 -0.004657 0.001129 0.000000 0.000000 0.000000
# 2 -0.004657 0.013274 -0.000252 0.000000 0.000000 0.000000
# 3 0.001129 -0.000252 0.029084 0.000000 0.000000 0.000000
# 4 0.000000 0.000000 0.000000 -0.140999 0.000000 0.000000
# 5 0.000000 0.000000 0.000000 0.000000 0.147082 0.000000
# 6 0.000000 0.000000 0.000000 0.000000 0.000000 0.026510
#
#
# Mechanical properties :
#
#
# Convention : Reuss Voigt Hill
#
# Bulk Modulus (GPa) = 22.29660 35.24403 28.77032
# Shear Modulus (GPa) = 46.50769 21.29842 33.90306
#
# Velocity S-wave (km/s) = 4.82843 3.26751 4.12252
# Velocity P-wave (km/s) = 6.50092 5.64827 6.08954
#
# Compressibility (1/GPa) = 0.04484989
#
# Stress axis : x y z
#
# Youngs Moduli (GPa) = 99.50230 75.33257 34.38355
#
# Poissons Ratio (x) = 0.35080 -0.03883
# Poissons Ratio (y) = 0.46335 0.00865
# Poissons Ratio (z) = -0.11236 0.01896
#
# Static dielectric constant tensor:
#      x y z
#    x 1.854320 0.000000 0.000000 
#    y 0.000000 1.776300 0.000000 
#    z 0.000000 0.000000 1.698460 
# 
# From -- ./inp_files/12699.got.cif
#   From: 2010.05.17/outbox.cif.g08.bks.cpg/sg21_7_cif.got.tgz:12699.got - 2010.06.03 23:14:55.
