data_PCOD9325586
_publ_section_title
;
Structure prediction by ZEFSAII (Michael W. Deem and Ramdas Pophale) SiO2 
 PCOD9325586
Probable space group: C 2 2 2
;
_chemical_formula_sum "Si O2"
_cell_formula_units_Z 38
_cell_length_a 14.737118
_cell_length_b 13.929497
_cell_length_c 8.802453
_cell_angle_alpha 90.000000
_cell_angle_beta 90.000000
_cell_angle_gamma 90.000000
_cell_volume 1806.973194
_symmetry_space_group_name_H-M "C 2 2 2"
_symmetry_group_IT_number 21
_symmetry_cell_setting 'orthorhombic'
loop_
_space_group_symop_operation_xyz
x,y,z
-x,-y,z
x,-y,-z
-x,y,-z
1/2+x,1/2+y,z
1/2-x,1/2-y,z
1/2+x,1/2-y,-z
1/2-x,1/2+y,-z
loop_
_atom_site_type_symbol
_atom_site_label
_atom_site_fract_x
_atom_site_fract_y
_atom_site_fract_z
Si Si1 0.343538 0.022966 0.674149
Si Si2 0.250000 0.750000 0.593581
Si Si3 0.162245 0.107985 0.652016
Si Si4 0.894457 0.334915 0.827559
Si Si5 0.500000 0.500000 0.500000
Si Si6 0.603283 0.786061 0.832326
O O1 0.234126 0.024617 0.692489
O O2 0.368911 0.131292 0.714930
O O3 0.366823 0.000000 0.500000
O O4 0.392693 0.947608 0.784205
O O5 0.207075 0.831990 0.486555
O O6 0.171587 0.710135 0.702662
O O7 0.145097 0.184966 0.784141
O O8 0.067110 0.064355 0.600563
O O9 0.994112 0.288180 0.822347
O O10 0.864826 0.317775 0.000732
#
# Coordination Sequence:
#
# PCOD9325586 Si02
#       6
#     8   4   8   8   2   8
#     4  12  22  42  66 102 132 174 231 280 333 405
#     4  12  22  42  68 100 132 180 228 278 342 418
#     4  12  23  44  69 101 132 178 224 279 348 401
#     4  11  25  42  67 100 135 176 231 278 345 407
#     4  12  24  40  72  98 136 172 228 294 332 416
#     4  11  25  44  67  97 138 182 222 284 348 409
#
# _framework density 21.029641999999999
#
# number of rings (size 3 to 8) (size 9 to 14) (size 15 to 20)
#    0.000    0.421    5.263    2.526    2.947    5.053 
#    0.000    0.000    0.000    1.263    0.000    0.000 
#    0.000    0.000    0.000    0.000    0.000    0.000 
#
# Total GULP energy -106297.504324 kJ/mol
# GULP energy per Si atom -5594.605491 kJ/mol
# Density = 2.098178 g / cm^3
# Si number density = 21.029642 Si / 1000 Ang^3
#
#
#
# Elastic Constant Matrix: (Units=GPa)
#
#
# Indices 1 2 3 4 5 6 
#
# 1 81.6344 6.2614 33.4221 0.0000 0.0000 0.0000
# 2 6.2614 66.9034 45.6462 0.0000 0.0000 0.0000
# 3 33.4221 45.6462 130.5241 0.0000 0.0000 0.0000
# 4 0.0000 0.0000 0.0000 31.2349 0.0000 0.0000
# 5 0.0000 0.0000 0.0000 0.0000 30.8623 0.0000
# 6 0.0000 0.0000 0.0000 0.0000 0.0000 47.5092
#
#
#
# Elastic Compliance Matrix: (Units=1/GPa)
#
#
# Indices 1 2 3 4 5 6 
#
# 1 0.013793 0.001469 -0.004046 0.000000 0.000000 0.000000
# 2 0.001469 0.019787 -0.007296 0.000000 0.000000 0.000000
# 3 -0.004046 -0.007296 0.011249 0.000000 0.000000 0.000000
# 4 0.000000 0.000000 0.000000 0.032015 0.000000 0.000000
# 5 0.000000 0.000000 0.000000 0.000000 0.032402 0.000000
# 6 0.000000 0.000000 0.000000 0.000000 0.000000 0.021049
#
#
# Mechanical properties :
#
#
# Convention : Reuss Voigt Hill
#
# Bulk Modulus (GPa) = 39.86506 49.96904 44.91705
# Shear Modulus (GPa) = 31.56512 34.83675 33.20093
#
# Velocity S-wave (km/s) = 3.87845 4.07449 3.97768
# Velocity P-wave (km/s) = 6.24934 6.77851 6.51930
#
# Compressibility (1/GPa) = 0.02508463
#
# Stress axis : x y z
#
# Youngs Moduli (GPa) = 72.49820 50.53720 88.89676
#
# Poissons Ratio (x) = -0.07426 0.35966
# Poissons Ratio (y) = -0.10653 0.64861
# Poissons Ratio (z) = 0.29332 0.36873
#
# Static dielectric constant tensor:
#      x y z
#    x 1.804200 0.000000 0.000000 
#    y 0.000000 1.759650 0.000000 
#    z 0.000000 0.000000 1.740330 
# 
# From -- ./inp_files/14439.got.cif
#   From: 2010.05.17/outbox.cif.g08.bks.cpg/sg21_8_cif.got.tgz:14439.got - 2010.06.03 23:14:55.
