data_PCOD9325663
_publ_section_title
;
Structure prediction by ZEFSAII (Michael W. Deem and Ramdas Pophale) SiO2 
 PCOD9325663
Probable space group: C 2 2 2
;
_chemical_formula_sum "Si O2"
_cell_formula_units_Z 34
_cell_length_a 14.576364
_cell_length_b 16.081197
_cell_length_c 7.313376
_cell_angle_alpha 90.000000
_cell_angle_beta 90.000000
_cell_angle_gamma 90.000000
_cell_volume 1714.294688
_symmetry_space_group_name_H-M "C 2 2 2"
_symmetry_group_IT_number 21
_symmetry_cell_setting 'orthorhombic'
loop_
_space_group_symop_operation_xyz
x,y,z
-x,-y,z
x,-y,-z
-x,y,-z
1/2+x,1/2+y,z
1/2-x,1/2-y,z
1/2+x,1/2-y,-z
1/2-x,1/2+y,-z
loop_
_atom_site_type_symbol
_atom_site_label
_atom_site_fract_x
_atom_site_fract_y
_atom_site_fract_z
Si Si1 0.161290 0.594489 0.564745
Si Si2 0.622873 0.360529 0.586219
Si Si3 0.360923 0.763559 0.282934
Si Si4 0.500000 0.500000 0.500000
Si Si5 0.142470 0.720280 0.869038
O O1 0.144054 0.500000 0.500000
O O2 0.270938 0.611743 0.575612
O O3 0.122318 0.656428 0.409875
O O4 0.130161 0.632897 0.761112
O O5 0.602043 0.316340 0.391820
O O6 0.564298 0.441589 0.618015
O O7 0.603692 0.291628 0.738252
O O8 0.250000 0.750000 0.280516
O O9 0.391725 0.777550 0.076168
O O10 0.250000 0.750000 0.875589
#
# Coordination Sequence:
#
# PCOD9325663 Si02
#       5
#     8   8   8   2   8
#     4   9  15  26  46  72  95 116 151 201 242 278
#     4   9  18  30  43  63  96 132 161 185 223 279
#     4   8  15  29  46  62  87 123 158 196 241 278
#     4  12  20  32  50  68 102 142 160 186 222 272
#     4   8  15  29  46  62  87 123 158 196 241 278
#
# _framework density 19.833228999999999
#
# number of rings (size 3 to 8) (size 9 to 14) (size 15 to 20)
#    0.000    3.294    1.176    2.824    0.000    0.941 
#    0.000    3.529    0.000    0.000    0.000   13.176 
#    0.000   15.059    0.000    0.000    0.000    0.000 
#
# Total GULP energy -94698.394488 kJ/mol
# GULP energy per Si atom -5570.493793 kJ/mol
# Density = 1.978809 g / cm^3
# Si number density = 19.833229 Si / 1000 Ang^3
#
#
#
# Elastic Constant Matrix: (Units=GPa)
#
#
# Indices 1 2 3 4 5 6 
#
# 1 29.8648 4.4351 9.5678 0.0000 0.0000 0.0000
# 2 4.4351 132.9048 54.7710 0.0000 0.0000 0.0000
# 3 9.5678 54.7710 163.1452 0.0000 0.0000 0.0000
# 4 0.0000 0.0000 0.0000 9.5012 0.0000 0.0000
# 5 0.0000 0.0000 0.0000 0.0000 -0.0091 0.0000
# 6 0.0000 0.0000 0.0000 0.0000 0.0000 31.0577
#
#
#
# Elastic Compliance Matrix: (Units=1/GPa)
#
#
# Indices 1 2 3 4 5 6 
#
# 1 0.034141 -0.000365 -0.001880 0.000000 0.000000 0.000000
# 2 -0.000365 0.008736 -0.002912 0.000000 0.000000 0.000000
# 3 -0.001880 -0.002912 0.007217 0.000000 0.000000 0.000000
# 4 0.000000 0.000000 0.000000 0.105250 0.000000 0.000000
# 5 0.000000 0.000000 0.000000 0.000000********** 0.000000
# 6 0.000000 0.000000 0.000000 0.000000 0.000000 0.032198
#
#
# Mechanical properties :
#
#
# Convention : Reuss Voigt Hill
#
# Bulk Modulus (GPa) = 25.13688 51.49583 38.31636
# Shear Modulus (GPa) = -0.04537 25.25269 12.60366
#
# Velocity S-wave (km/s) = -0.15141 3.57214 2.52361
# Velocity P-wave (km/s) = 3.55965 6.56006 5.27757
#
# Compressibility (1/GPa) = 0.03978218
#
# Stress axis : x y z
#
# Youngs Moduli (GPa) = 29.29061 114.46610 138.55773
#
# Poissons Ratio (x) = 0.04173 0.26046
# Poissons Ratio (y) = 0.01068 0.40342
# Poissons Ratio (z) = 0.05506 0.33327
#
# Static dielectric constant tensor:
#      x y z
#    x 1.782920 0.000000 0.000000 
#    y 0.000000 1.666460 0.000000 
#    z 0.000000 0.000000 1.686110 
# 
# From -- ./inp_files/14699.got.cif
#   From: 2010.05.17/outbox.cif.g08.bks.cpg/sg21_8_cif.got.tgz:14699.got - 2010.06.03 23:14:55.
