data_PCOD9325859
_publ_section_title
;
Structure prediction by ZEFSAII (Michael W. Deem and Ramdas Pophale) SiO2 
 PCOD9325859
Probable space group: C 2 2 2
;
_chemical_formula_sum "Si O2"
_cell_formula_units_Z 19
_cell_length_a 9.000000
_cell_length_b 12.000000
_cell_length_c 18.000000
_cell_angle_alpha 90.000000
_cell_angle_beta 90.000000
_cell_angle_gamma 90.000000
_cell_volume 1944.000000
_symmetry_space_group_name_H-M "C 2 2 2"
_symmetry_group_IT_number 21
_symmetry_cell_setting 'orthorhombic'
loop_
_space_group_symop_operation_xyz
x,y,z
-x,-y,z
x,-y,-z
-x,y,-z
1/2+x,1/2+y,z
1/2-x,1/2-y,z
1/2+x,1/2-y,-z
1/2-x,1/2+y,-z
loop_
_atom_site_type_symbol
_atom_site_label
_atom_site_fract_x
_atom_site_fract_y
_atom_site_fract_z
Si Si1 0.107415 0.893271 0.797675
Si Si2 0.500000 0.500000 0.500000
Si Si3 0.678408 0.010016 0.087166
Si Si4 0.000000 0.500000 0.318839
Si Si5 0.388938 0.188771 0.796041
Si Si6 0.786347 0.119366 0.623898
O O1 0.152874 0.887187 0.710142
O O2 0.016611 0.779419 0.814216
O O3 0.238820 0.921621 0.857528
O O4 0.000000 0.000000 0.805501
O O5 0.395323 0.570973 0.558721
O O6 0.685640 0.127198 0.132388
O O7 0.500000 0.000000 0.084994
O O8 0.729826 0.000000 0.000000
O O9 0.050775 0.597865 0.262152
O O10 0.135357 0.453571 0.368580
O O11 0.250000 0.250000 0.757984
O O12 0.750000 0.250000 0.609781
#
# Coordination Sequence:
#
# PCOD9325859 Si02
#       6
#     8   2   8   4   8   8
#     4  12  23  46  77 104 138 197 247 289 358 431
#     4  12  32  50  68 114 150 166 232 300 358 434
#     4  11  25  46  63 105 151 185 245 304 358 416
#     4  12  24  43  79 104 136 186 246 282 349 433
#     4  12  23  44  71 108 141 187 248 302 346 420
#     4  12  26  48  76 107 141 188 232 293 358 430
#
# _framework density 9.7736630000000009
#
# number of rings (size 3 to 8) (size 9 to 14) (size 15 to 20)
#    0.000    0.211    8.421    0.000    0.000    2.526 
#    7.579    0.000    0.000    0.000    0.000    0.000 
#    0.000    0.000    0.000    0.000    0.000    0.000 
#
# Total GULP energy -106058.403641 kJ/mol
# GULP energy per Si atom -5582.021244 kJ/mol
# Density = 0.975142 g / cm^3
# Si number density = 9.773663 Si / 1000 Ang^3
#
#
#
# Elastic Constant Matrix: (Units=GPa)
#
#
# Indices 1 2 3 4 5 6 
#
# 1 127.8913 76.9626 66.8129 0.0000 0.0000 0.0000
# 2 76.9626 163.2997 58.3245 0.0000 0.0000 0.0000
# 3 66.8129 58.3245 164.6242 0.0000 0.0000 0.0000
# 4 0.0000 0.0000 0.0000 19.9311 0.0000 0.0000
# 5 0.0000 0.0000 0.0000 0.0000 45.8087 0.0000
# 6 0.0000 0.0000 0.0000 0.0000 0.0000 58.6549
#
#
#
# Elastic Compliance Matrix: (Units=1/GPa)
#
#
# Indices 1 2 3 4 5 6 
#
# 1 0.012366 -0.004620 -0.003382 0.000000 0.000000 0.000000
# 2 -0.004620 0.008737 -0.001220 0.000000 0.000000 0.000000
# 3 -0.003382 -0.001220 0.007879 0.000000 0.000000 0.000000
# 4 0.000000 0.000000 0.000000 0.050173 0.000000 0.000000
# 5 0.000000 0.000000 0.000000 0.000000 0.021830 0.000000
# 6 0.000000 0.000000 0.000000 0.000000 0.000000 0.017049
#
#
# Mechanical properties :
#
#
# Convention : Reuss Voigt Hill
#
# Bulk Modulus (GPa) = 94.89783 95.55722 95.22753
# Shear Modulus (GPa) = 35.71626 41.79327 38.75477
#
# Velocity S-wave (km/s) = 4.27918 4.62893 4.45748
# Velocity P-wave (km/s) = 8.54800 8.80684 8.67839
#
# Compressibility (1/GPa) = 0.01053765
#
# Stress axis : x y z
#
# Youngs Moduli (GPa) = 80.86443 114.45453 126.91390
#
# Poissons Ratio (x) = 0.52882 0.42922
# Poissons Ratio (y) = 0.37362 0.15487
# Poissons Ratio (z) = 0.27348 0.13967
#
# Static dielectric constant tensor:
#      x y z
#    x 1.760670 0.000000 0.000000 
#    y 0.000000 1.732380 0.000000 
#    z 0.000000 0.000000 1.670160 
# 
# From -- ./inp_files/35514.got.cif
#   From: 2010.05.17/outbox.ucp.g08.bks.cvg/sg21_18_cif.got.tgz:35514.got - 2010.06.11 15:15:05.
