data_PCOD9325989
_publ_section_title
;
Structure prediction by ZEFSAII (Michael W. Deem and Ramdas Pophale) SiO2 
 PCOD9325989
Probable space group: F 2 2 2
;
_chemical_formula_sum "Si O2"
_cell_formula_units_Z 112
_cell_length_a 11.880774
_cell_length_b 22.721659
_cell_length_c 20.002077
_cell_angle_alpha 90.000000
_cell_angle_beta 90.000000
_cell_angle_gamma 90.000000
_cell_volume 5399.578598
_symmetry_space_group_name_H-M "F 2 2 2"
_symmetry_group_IT_number 22
_symmetry_cell_setting 'orthorhombic'
loop_
_space_group_symop_operation_xyz
x,y,z
-x,-y,z
x,-y,-z
-x,y,-z
x,1/2+y,1/2+z
-x,1/2-y,1/2+z
x,1/2-y,1/2-z
-x,1/2+y,1/2-z
1/2+x,y,1/2+z
1/2-x,-y,1/2+z
1/2+x,-y,1/2-z
1/2-x,y,1/2-z
1/2+x,1/2+y,z
1/2-x,1/2-y,z
1/2+x,1/2-y,-z
1/2-x,1/2+y,-z
loop_
_atom_site_type_symbol
_atom_site_label
_atom_site_fract_x
_atom_site_fract_y
_atom_site_fract_z
Si Si1 0.878417 0.415987 0.810122
Si Si2 0.880716 0.938769 0.161561
Si Si3 0.952367 0.644079 0.575405
Si Si4 0.797401 0.535247 0.569146
Si Si5 0.129988 0.218405 0.309628
Si Si6 0.959208 0.224072 0.424547
Si Si7 0.559721 0.090346 0.073363
O O1 0.906947 0.447443 0.740163
O O2 0.753908 0.426127 0.838896
O O3 0.868142 0.348379 0.788073
O O4 0.969982 0.422408 0.868121
O O5 0.954934 0.887716 0.124805
O O6 0.875088 0.999536 0.121056
O O7 0.849228 0.599885 0.569220
O O8 0.913311 0.710733 0.593439
O O9 0.000000 0.646752 0.500000
O O10 0.809351 0.500000 0.500000
O O11 0.664810 0.546353 0.580903
O O12 0.064060 0.250000 0.250000
O O13 0.250000 0.250000 0.315834
O O14 0.069735 0.220675 0.379396
O O15 0.902815 0.159468 0.417391
O O16 0.000000 0.226448 0.500000
O O17 0.500000 0.085107 0.000000
#
# Coordination Sequence:
#
# PCOD9325989 Si02
#       7
#    16  16  16  16  16  16  16
#     4  10  22  40  63  95 128 164 212 272 313 374
#     4  11  22  40  63  95 128 168 219 259 321 377
#     4  11  22  40  65  92 131 167 216 270 323 386
#     4  12  25  42  64  91 127 178 218 260 319 392
#     4  10  17  32  62  93 127 160 202 259 329 378
#     4   9  20  38  59  95 127 165 209 267 326 380
#     4  10  23  44  66  94 131 170 220 265 327 387
#
# _framework density 20.742359
#
# number of rings (size 3 to 8) (size 9 to 14) (size 15 to 20)
#    0.000    1.571    1.429    4.714    0.000    2.571 
#   18.000    0.000    0.000    0.000    0.000    3.000 
#    0.000    0.000    0.000    0.000    0.000    0.000 
#
# Total GULP energy -156024.887986 kJ/mol
# GULP energy per Si atom -5572.317428 kJ/mol
# Density = 2.069515 g / cm^3
# Si number density = 20.742359 Si / 1000 Ang^3
#
#
#
# Elastic Constant Matrix: (Units=GPa)
#
#
# Indices 1 2 3 4 5 6 
#
# 1 84.4726 34.2650 53.2663 0.0000 0.0000 0.0000
# 2 34.2650 115.9524 24.6966 0.0000 0.0000 0.0000
# 3 53.2663 24.6966 121.7651 0.0000 0.0000 0.0000
# 4 0.0000 0.0000 0.0000 19.4431 0.0000 0.0000
# 5 0.0000 0.0000 0.0000 0.0000 177.1697 0.0000
# 6 0.0000 0.0000 0.0000 0.0000 0.0000 50.1567
#
#
#
# Elastic Compliance Matrix: (Units=1/GPa)
#
#
# Indices 1 2 3 4 5 6 
#
# 1 0.017791 -0.003762 -0.007019 0.000000 0.000000 0.000000
# 2 -0.003762 0.009809 -0.000344 0.000000 0.000000 0.000000
# 3 -0.007019 -0.000344 0.011353 0.000000 0.000000 0.000000
# 4 0.000000 0.000000 0.000000 0.051432 0.000000 0.000000
# 5 0.000000 0.000000 0.000000 0.000000 0.005644 0.000000
# 6 0.000000 0.000000 0.000000 0.000000 0.000000 0.019938
#
#
# Mechanical properties :
#
#
# Convention : Reuss Voigt Hill
#
# Bulk Modulus (GPa) = 59.87345 60.73844 60.30594
# Shear Modulus (GPa) = 34.77425 63.35138 49.06282
#
# Velocity S-wave (km/s) = 4.09893 5.53248 4.86876
# Velocity P-wave (km/s) = 7.16447 8.37598 7.79380
#
# Compressibility (1/GPa) = 0.01670189
#
# Stress axis : x y z
#
# Youngs Moduli (GPa) = 56.20972 101.94503 88.08314
#
# Poissons Ratio (x) = 0.38354 0.61829
# Poissons Ratio (y) = 0.21147 0.03028
# Poissons Ratio (z) = 0.39456 0.03504
#
# Static dielectric constant tensor:
#      x y z
#    x 1.737170 0.000000 0.000000 
#    y 0.000000 0.619820 0.000000 
#    z 0.000000 0.000000 1.708550 
# 
# From -- ./inp_files/42890.got.cif
#   From: 2010.05.17/outbox.cif.g08.bks.cpg/sg22_22_cif.got.tgz:42890.got - 2010.06.03 23:40:54.
