data_PCOD9325653
_publ_section_title
;
Structure prediction by ZEFSAII (Michael W. Deem and Ramdas Pophale) SiO2 
 PCOD9325653
Probable space group: C 2 2 2
;
_chemical_formula_sum "Si O2"
_cell_formula_units_Z 40
_cell_length_a 8.607309
_cell_length_b 23.985781
_cell_length_c 8.324015
_cell_angle_alpha 90.000000
_cell_angle_beta 90.000000
_cell_angle_gamma 90.000000
_cell_volume 1718.518107
_symmetry_space_group_name_H-M "C 2 2 2"
_symmetry_group_IT_number 21
_symmetry_cell_setting 'orthorhombic'
loop_
_space_group_symop_operation_xyz
x,y,z
-x,-y,z
x,-y,-z
-x,y,-z
1/2+x,1/2+y,z
1/2-x,1/2-y,z
1/2+x,1/2-y,-z
1/2-x,1/2+y,-z
loop_
_atom_site_type_symbol
_atom_site_label
_atom_site_fract_x
_atom_site_fract_y
_atom_site_fract_z
Si Si1 0.123001 0.595736 0.375058
Si Si2 0.321682 0.309101 0.453015
Si Si3 0.826406 0.192010 0.933908
Si Si4 0.679676 0.500688 0.804178
Si Si5 0.114502 0.403288 0.125546
O O1 0.227027 0.641294 0.463932
O O2 0.228669 0.550520 0.282839
O O3 0.000000 0.569244 0.500000
O O4 0.005147 0.624986 0.248457
O O5 0.500000 0.312991 0.500000
O O6 0.250000 0.250000 0.505375
O O7 0.320521 0.310109 0.259594
O O8 0.750000 0.250000 0.988539
O O9 0.719394 0.139319 0.974585
O O10 0.000000 0.186398 0.000000
O O11 0.500000 0.500000 0.751675
O O12 0.774027 0.443958 0.775655
O O13 0.678385 0.500000 0.000000
O O14 0.000000 0.434022 0.000000
#
# Coordination Sequence:
#
# PCOD9325653 Si02
#       5
#     8   8   8   8   8
#     4  12  26  50  76 111 153 202 257 316 382 456
#     4  11  27  48  77 111 153 199 250 315 387 452
#     4  11  27  49  77 114 151 197 254 313 381 455
#     4  11  27  48  76 109 152 203 256 315 381 451
#     4  12  26  46  76 109 152 203 256 312 384 452
#
# _framework density 23.275867999999999
#
# number of rings (size 3 to 8) (size 9 to 14) (size 15 to 20)
#    0.000    0.600    4.000    1.800   11.200    2.400 
#    0.000    1.000    0.000    0.000    0.000    0.000 
#    0.000    0.000    0.000    0.000    0.000    0.000 
#
# Total GULP energy -111874.189942 kJ/mol
# GULP energy per Si atom -5593.709497 kJ/mol
# Density = 2.322289 g / cm^3
# Si number density = 23.275868 Si / 1000 Ang^3
#
#
#
# Elastic Constant Matrix: (Units=GPa)
#
#
# Indices 1 2 3 4 5 6 
#
# 1 248.2145 112.1436 70.9989 0.0000 0.0000 0.0000
# 2 112.1436 172.1027 47.7802 0.0000 0.0000 0.0000
# 3 70.9989 47.7802 73.6016 0.0000 0.0000 0.0000
# 4 0.0000 0.0000 0.0000 26.4090 0.0000 0.0000
# 5 0.0000 0.0000 0.0000 0.0000 44.2543 0.0000
# 6 0.0000 0.0000 0.0000 0.0000 0.0000 44.3702
#
#
#
# Elastic Compliance Matrix: (Units=1/GPa)
#
#
# Indices 1 2 3 4 5 6 
#
# 1 0.006720 -0.003146 -0.004440 0.000000 0.000000 0.000000
# 2 -0.003146 0.008561 -0.002522 0.000000 0.000000 0.000000
# 3 -0.004440 -0.002522 0.019507 0.000000 0.000000 0.000000
# 4 0.000000 0.000000 0.000000 0.037866 0.000000 0.000000
# 5 0.000000 0.000000 0.000000 0.000000 0.022597 0.000000
# 6 0.000000 0.000000 0.000000 0.000000 0.000000 0.022538
#
#
# Mechanical properties :
#
#
# Convention : Reuss Voigt Hill
#
# Bulk Modulus (GPa) = 68.63099 106.19603 87.41351
# Shear Modulus (GPa) = 34.99836 40.53976 37.76906
#
# Velocity S-wave (km/s) = 3.88188 4.17790 4.03261
# Velocity P-wave (km/s) = 7.04570 8.30645 7.70192
#
# Compressibility (1/GPa) = 0.01457068
#
# Stress axis : x y z
#
# Youngs Moduli (GPa) = 148.80160 116.80925 51.26261
#
# Poissons Ratio (x) = 0.36752 0.22762
# Poissons Ratio (y) = 0.46818 0.12931
# Poissons Ratio (z) = 0.66071 0.29465
#
# Static dielectric constant tensor:
#      x y z
#    x 1.825030 0.000000 0.000000 
#    y 0.000000 1.878560 0.000000 
#    z 0.000000 0.000000 2.019550 
# 
# From -- ./inp_files/10945.got.cif
#   From: 2010.05.17/outbox.cif.g08.bks.cpg/sg21_6_cif.got.tgz:10945.got - 2010.06.03 23:14:55.
