data_PCOD9325018
_publ_section_title
;
Structure prediction by ZEFSAII (Michael W. Deem and Ramdas Pophale) SiO2 
 PCOD9325018
Probable space group: C 2 2 2
;
_chemical_formula_sum "Si O2"
_cell_formula_units_Z 38
_cell_length_a 17.486156
_cell_length_b 5.502688
_cell_length_c 19.507199
_cell_angle_alpha 90.000000
_cell_angle_beta 90.000000
_cell_angle_gamma 90.000000
_cell_volume 1876.999479
_symmetry_space_group_name_H-M "C 2 2 2"
_symmetry_group_IT_number 21
_symmetry_cell_setting 'orthorhombic'
loop_
_space_group_symop_operation_xyz
x,y,z
-x,-y,z
x,-y,-z
-x,y,-z
1/2+x,1/2+y,z
1/2-x,1/2-y,z
1/2+x,1/2-y,-z
1/2-x,1/2+y,-z
loop_
_atom_site_type_symbol
_atom_site_label
_atom_site_fract_x
_atom_site_fract_y
_atom_site_fract_z
Si Si1 0.294546 0.999068 0.417712
Si Si2 0.797050 0.498693 0.810048
Si Si3 0.567408 0.191368 0.882751
Si Si4 0.500000 0.500000 0.000000
Si Si5 0.000000 0.000000 0.758625
Si Si6 0.415319 0.109896 0.689151
O O1 0.250000 0.750000 0.397825
O O2 0.376305 0.967562 0.381423
O O3 0.301549 0.000000 0.500000
O O4 0.250000 0.250000 0.398345
O O5 0.750000 0.250000 0.799754
O O6 0.852581 0.443682 0.874106
O O7 0.853870 0.533474 0.745981
O O8 0.750000 0.750000 0.817496
O O9 0.555673 0.353943 0.949225
O O10 0.547899 0.338573 0.813082
O O11 0.500000 0.000000 0.887219
O O12 0.936061 0.885958 0.708752
O O13 0.500000 0.000000 0.696335
#
# Coordination Sequence:
#
# PCOD9325018 Si02
#       6
#     8   8   8   2   4   8
#     4  10  24  46  68  95 140 188 233 287 353 425
#     4  12  25  41  69 103 141 177 220 285 351 407
#     4  11  22  45  70 102 134 184 232 285 340 427
#     4  10  26  40  84  90 134 180 254 264 356 400
#     4  11  20  39  68 103 143 166 230 304 335 402
#     4  12  24  39  68 103 137 181 237 287 347 413
#
# _framework density 20.245076999999998
#
# number of rings (size 3 to 8) (size 9 to 14) (size 15 to 20)
#    0.000    0.842    4.211    2.842    5.895    0.421 
#    0.000    0.000    4.632    0.000    0.000    0.000 
#    0.000    0.000    0.000    0.000    0.000    0.000 
#
# Total GULP energy -105969.965520 kJ/mol
# GULP energy per Si atom -5577.366606 kJ/mol
# Density = 2.019900 g / cm^3
# Si number density = 20.245077 Si / 1000 Ang^3
#
#
#
# Elastic Constant Matrix: (Units=GPa)
#
#
# Indices 1 2 3 4 5 6 
#
# 1 150.1658 79.6572 47.7863 0.0000 0.0000 0.0000
# 2 79.6572 143.0532 45.0176 0.0000 0.0000 0.0000
# 3 47.7863 45.0176 65.1995 0.0000 0.0000 0.0000
# 4 0.0000 0.0000 0.0000 21.0093 0.0000 0.0000
# 5 0.0000 0.0000 0.0000 0.0000 44.0568 0.0000
# 6 0.0000 0.0000 0.0000 0.0000 0.0000 65.9720
#
#
#
# Elastic Compliance Matrix: (Units=1/GPa)
#
#
# Indices 1 2 3 4 5 6 
#
# 1 0.010450 -0.004355 -0.004652 0.000000 0.000000 0.000000
# 2 -0.004355 0.010746 -0.004228 0.000000 0.000000 0.000000
# 3 -0.004652 -0.004228 0.021666 0.000000 0.000000 0.000000
# 4 0.000000 0.000000 0.000000 0.047598 0.000000 0.000000
# 5 0.000000 0.000000 0.000000 0.000000 0.022698 0.000000
# 6 0.000000 0.000000 0.000000 0.000000 0.000000 0.015158
#
#
# Mechanical properties :
#
#
# Convention : Reuss Voigt Hill
#
# Bulk Modulus (GPa) = 61.00355 78.14898 69.57627
# Shear Modulus (GPa) = 31.20143 38.60479 34.90311
#
# Velocity S-wave (km/s) = 3.93005 4.37151 4.15665
# Velocity P-wave (km/s) = 7.12683 8.01033 7.58146
#
# Compressibility (1/GPa) = 0.01639249
#
# Stress axis : x y z
#
# Youngs Moduli (GPa) = 95.69574 93.05978 46.15482
#
# Poissons Ratio (x) = 0.40526 0.21471
# Poissons Ratio (y) = 0.41674 0.19513
# Poissons Ratio (z) = 0.44518 0.39343
#
# Static dielectric constant tensor:
#      x y z
#    x 1.711550 0.000000 0.000000 
#    y 0.000000 1.882400 0.000000 
#    z 0.000000 0.000000 1.673300 
# 
# From -- ./inp_files/36831.got.cif
#   From: 2010.05.17/outbox.cif.g08.bks.cpg/sg21_19_cif.got.tgz:36831.got - 2010.06.03 23:14:55.
