data_PCOD9325892
_publ_section_title
;
Structure prediction by ZEFSAII (Michael W. Deem and Ramdas Pophale) SiO2 
 PCOD9325892
Probable space group: F 2 2 2
;
_chemical_formula_sum "Si O2"
_cell_formula_units_Z 112
_cell_length_a 30.299675
_cell_length_b 11.960704
_cell_length_c 13.347839
_cell_angle_alpha 90.000000
_cell_angle_beta 90.000000
_cell_angle_gamma 90.000000
_cell_volume 4837.329519
_symmetry_space_group_name_H-M "F 2 2 2"
_symmetry_group_IT_number 22
_symmetry_cell_setting 'orthorhombic'
loop_
_space_group_symop_operation_xyz
x,y,z
-x,-y,z
x,-y,-z
-x,y,-z
x,1/2+y,1/2+z
-x,1/2-y,1/2+z
x,1/2-y,1/2-z
-x,1/2+y,1/2-z
1/2+x,y,1/2+z
1/2-x,-y,1/2+z
1/2+x,-y,1/2-z
1/2-x,y,1/2-z
1/2+x,1/2+y,z
1/2-x,1/2-y,z
1/2+x,1/2-y,-z
1/2-x,1/2+y,-z
loop_
_atom_site_type_symbol
_atom_site_label
_atom_site_fract_x
_atom_site_fract_y
_atom_site_fract_z
Si Si1 0.453579 0.049858 0.664506
Si Si2 0.299371 0.538724 0.711832
Si Si3 0.130034 0.809073 0.643302
Si Si4 0.067089 0.479841 0.891733
Si Si5 0.634536 0.931749 0.400410
Si Si6 0.391871 0.247640 0.628521
Si Si7 0.704517 0.210293 0.135876
O O1 0.456564 0.053493 0.786825
O O2 0.433584 0.163457 0.614690
O O3 0.500000 0.000000 0.628024
O O4 0.413287 0.968738 0.638934
O O5 0.250000 0.559103 0.750000
O O6 0.321501 0.635722 0.645519
O O7 0.330967 0.538921 0.811062
O O8 0.300041 0.423641 0.648629
O O9 0.121961 0.750000 0.750000
O O10 0.128765 0.699268 0.576509
O O11 0.095696 0.908900 0.628984
O O12 0.097386 0.371389 0.908881
O O13 0.045090 0.500000 0.000000
O O14 0.645330 0.000000 0.500000
O O15 0.390263 0.250000 0.750000
O O16 0.340383 0.230563 0.602914
O O17 0.708291 0.250000 0.250000
O O18 0.750000 0.250000 0.084197
#
# Coordination Sequence:
#
# PCOD9325892 Si02
#       7
#    16  16  16  16  16  16  16
#     4  11  24  46  73 102 139 190 247 306 370 441
#     4  11  20  39  72 100 143 194 242 291 371 440
#     4  10  21  43  68  98 141 198 231 290 362 448
#     4  11  22  42  70 105 138 179 231 296 373 435
#     4  11  25  45  74  99 140 192 251 301 365 437
#     4   9  19  38  63  99 137 178 232 290 367 422
#     4  10  16  28  61 101 132 176 231 281 357 426
#
# _framework density 23.153271
#
# number of rings (size 3 to 8) (size 9 to 14) (size 15 to 20)
#    0.000    1.571    5.714    1.714    2.000    3.143 
#    7.714    0.714    3.143    0.000    0.000    0.000 
#    0.000    0.000    0.000    0.000    0.000    0.000 
#
# Total GULP energy -156094.141788 kJ/mol
# GULP energy per Si atom -5574.790778 kJ/mol
# Density = 2.310057 g / cm^3
# Si number density = 23.153271 Si / 1000 Ang^3
#
#
#
# Elastic Constant Matrix: (Units=GPa)
#
#
# Indices 1 2 3 4 5 6 
#
# 1 172.0296 40.1811 4.8030 0.0000 0.0000 0.0000
# 2 40.1811 159.1833 -1.1378 0.0000 0.0000 0.0000
# 3 4.8030 -1.1378 46.8234 0.0000 0.0000 0.0000
# 4 0.0000 0.0000 0.0000 18.3335 0.0000 0.0000
# 5 0.0000 0.0000 0.0000 0.0000 21.3040 0.0000
# 6 0.0000 0.0000 0.0000 0.0000 0.0000 14.9780
#
#
#
# Elastic Compliance Matrix: (Units=1/GPa)
#
#
# Indices 1 2 3 4 5 6 
#
# 1 0.006198 -0.001569 -0.000674 0.000000 0.000000 0.000000
# 2 -0.001569 0.006681 0.000323 0.000000 0.000000 0.000000
# 3 -0.000674 0.000323 0.021434 0.000000 0.000000 0.000000
# 4 0.000000 0.000000 0.000000 0.054545 0.000000 0.000000
# 5 0.000000 0.000000 0.000000 0.000000 0.046940 0.000000
# 6 0.000000 0.000000 0.000000 0.000000 0.000000 0.066764
#
#
# Mechanical properties :
#
#
# Convention : Reuss Voigt Hill
#
# Bulk Modulus (GPa) = 32.81634 51.74765 42.28200
# Shear Modulus (GPa) = 23.08838 33.20245 28.14542
#
# Velocity S-wave (km/s) = 3.16127 3.79097 3.49035
# Velocity P-wave (km/s) = 5.24682 6.44674 5.87748
#
# Compressibility (1/GPa) = 0.03047263
#
# Stress axis : x y z
#
# Youngs Moduli (GPa) = 161.33362 149.68886 46.65525
#
# Poissons Ratio (x) = 0.23492 0.03144
# Poissons Ratio (y) = 0.25320 -0.01508
# Poissons Ratio (z) = 0.10873 -0.04840
#
# Static dielectric constant tensor:
#      x y z
#    x 1.850760 0.000000 0.000000 
#    y 0.000000 1.779150 0.000000 
#    z 0.000000 0.000000 3.873690 
# 
# From -- ./inp_files/33511.got.cif
#   From: 2010.05.17/outbox.cif.g08.bks.cpg/sg22_17_cif.got.tgz:33511.got - 2010.06.03 23:40:54.
