data_PCOD9325217
_publ_section_title
;
Structure prediction by ZEFSAII (Michael W. Deem and Ramdas Pophale) SiO2 
 PCOD9325217
Probable space group: C 2 2 2
;
_chemical_formula_sum "Si O2"
_cell_formula_units_Z 48
_cell_length_a 24.370338
_cell_length_b 12.007731
_cell_length_c 8.206468
_cell_angle_alpha 90.000000
_cell_angle_beta 90.000000
_cell_angle_gamma 90.000000
_cell_volume 2401.478944
_symmetry_space_group_name_H-M "C 2 2 2"
_symmetry_group_IT_number 21
_symmetry_cell_setting 'orthorhombic'
loop_
_space_group_symop_operation_xyz
x,y,z
-x,-y,z
x,-y,-z
-x,y,-z
1/2+x,1/2+y,z
1/2-x,1/2-y,z
1/2+x,1/2-y,-z
1/2-x,1/2+y,-z
loop_
_atom_site_type_symbol
_atom_site_label
_atom_site_fract_x
_atom_site_fract_y
_atom_site_fract_z
Si Si1 0.710095 0.360528 0.196841
Si Si2 0.611379 0.087972 0.385520
Si Si3 0.315374 0.284110 0.466667
Si Si4 0.158115 0.228263 0.121449
Si Si5 0.061462 0.367978 0.959630
Si Si6 0.801327 0.538230 0.172420
O O1 0.750000 0.250000 0.196519
O O2 0.681380 0.359050 0.371725
O O3 0.745472 0.471627 0.188788
O O4 0.674373 0.342975 0.035504
O O5 0.644509 0.181455 0.485177
O O6 0.578763 0.138660 0.231577
O O7 0.658607 0.010314 0.306674
O O8 0.579234 0.000000 0.500000
O O9 0.250000 0.250000 0.455862
O O10 0.338630 0.330870 0.296399
O O11 0.200609 0.330392 0.156714
O O12 0.103356 0.295981 0.070179
O O13 0.062209 0.500000 0.000000
O O14 0.000000 0.329381 0.000000
O O15 0.824673 0.500000 0.000000
#
# Coordination Sequence:
#
# PCOD9325217 Si02
#       6
#     8   8   8   8   8   8
#     4  11  20  33  48  76 108 143 187 226 262 325
#     4  12  19  32  51  72 106 142 184 230 267 317
#     4  11  21  30  50  78 103 144 185 218 269 331
#     4  12  21  36  55  73 112 154 187 222 275 325
#     4  11  21  36  53  73 102 145 197 236 266 310
#     4  12  19  32  52  74 108 153 183 213 272 332
#
# _framework density 19.987683000000001
#
# number of rings (size 3 to 8) (size 9 to 14) (size 15 to 20)
#    0.000    0.500   11.667    0.500    0.000    0.000 
#    0.000    5.833    0.000    0.000    0.000    0.000 
#    0.000    0.667    0.000    3.000    0.333    0.167 
#
# Total GULP energy -133892.827298 kJ/mol
# GULP energy per Si atom -5578.867804 kJ/mol
# Density = 1.994219 g / cm^3
# Si number density = 19.987683 Si / 1000 Ang^3
#
#
#
# Elastic Constant Matrix: (Units=GPa)
#
#
# Indices 1 2 3 4 5 6 
#
# 1 102.7475 35.8094 59.4428 0.0000 0.0000 0.0000
# 2 35.8094 37.2252 13.2027 0.0000 0.0000 0.0000
# 3 59.4428 13.2027 178.4876 0.0000 0.0000 0.0000
# 4 0.0000 0.0000 0.0000 22.3043 0.0000 0.0000
# 5 0.0000 0.0000 0.0000 0.0000 -23.9521 0.0000
# 6 0.0000 0.0000 0.0000 0.0000 0.0000 22.0366
#
#
#
# Elastic Compliance Matrix: (Units=1/GPa)
#
#
# Indices 1 2 3 4 5 6 
#
# 1 0.017944 -0.015550 -0.004826 0.000000 0.000000 0.000000
# 2 -0.015550 0.041063 0.002141 0.000000 0.000000 0.000000
# 3 -0.004826 0.002141 0.007051 0.000000 0.000000 0.000000
# 4 0.000000 0.000000 0.000000 0.044834 0.000000 0.000000
# 5 0.000000 0.000000 0.000000 0.000000 -0.041750 0.000000
# 6 0.000000 0.000000 0.000000 0.000000 0.000000 0.045379
#
#
# Mechanical properties :
#
#
# Convention : Reuss Voigt Hill
#
# Bulk Modulus (GPa) = 33.79617 59.48556 46.64087
# Shear Modulus (GPa) = 31.08432 18.07812 24.58122
#
# Velocity S-wave (km/s) = 3.94785 3.01069 3.51068
# Velocity P-wave (km/s) = 6.14214 6.47390 6.31020
#
# Compressibility (1/GPa) = 0.02958915
#
# Stress axis : x y z
#
# Youngs Moduli (GPa) = 55.72945 24.35310 141.81621
#
# Poissons Ratio (x) = 0.37869 0.68437
# Poissons Ratio (y) = 0.86658 -0.30366
# Poissons Ratio (z) = 0.26893 -0.05215
#
# Static dielectric constant tensor:
#      x y z
#    x 1.750150 0.000000 0.000000 
#    y 0.000000 1.733730 0.000000 
#    z 0.000000 0.000000 1.817530 
# 
# From -- ./inp_files/17577.got.cif
#   From: 2010.05.17/outbox.cif.g08.bks.cpg/sg21_9_cif.got.tgz:17577.got - 2010.06.03 23:14:55.
