data_PCOD9325261
_publ_section_title
;
Structure prediction by ZEFSAII (Michael W. Deem and Ramdas Pophale) SiO2 
 PCOD9325261
Probable space group: C 2 2 2
;
_chemical_formula_sum "Si O2"
_cell_formula_units_Z 40
_cell_length_a 4.857722
_cell_length_b 24.587404
_cell_length_c 15.108819
_cell_angle_alpha 90.000000
_cell_angle_beta 90.000000
_cell_angle_gamma 90.000000
_cell_volume 1804.578808
_symmetry_space_group_name_H-M "C 2 2 2"
_symmetry_group_IT_number 21
_symmetry_cell_setting 'orthorhombic'
loop_
_space_group_symop_operation_xyz
x,y,z
-x,-y,z
x,-y,-z
-x,y,-z
1/2+x,1/2+y,z
1/2-x,1/2-y,z
1/2+x,1/2-y,-z
1/2-x,1/2+y,-z
loop_
_atom_site_type_symbol
_atom_site_label
_atom_site_fract_x
_atom_site_fract_y
_atom_site_fract_z
Si Si1 0.774879 0.964274 0.758959
Si Si2 0.074742 0.657123 0.205795
Si Si3 0.581560 0.306547 0.901190
Si Si4 0.929021 0.912640 0.406501
Si Si5 0.573654 0.839056 0.595691
O O1 0.680904 0.904982 0.791708
O O2 0.955238 0.946698 0.673462
O O3 0.500000 0.000000 0.743284
O O4 0.000000 0.000000 0.812918
O O5 0.794469 0.656075 0.151277
O O6 0.304900 0.691827 0.155778
O O7 0.024658 0.681924 0.304687
O O8 0.750000 0.250000 0.907952
O O9 0.500000 0.323409 0.000000
O O10 0.108592 0.856761 0.405685
O O11 0.000000 0.938635 0.500000
O O12 0.614031 0.894126 0.403245
O O13 0.500000 0.812355 0.500000
#
# Coordination Sequence:
#
# PCOD9325261 Si02
#       5
#     8   8   8   8   8
#     4  11  21  35  55  86 127 172 218 251 289 359
#     4  11  22  40  66  95 131 171 202 250 319 368
#     4  12  25  45  72 102 123 142 193 268 339 391
#     4   9  17  30  47  75 119 168 220 270 301 329
#     4   9  17  32  56  87 124 169 214 248 292 360
#
# _framework density 22.165835999999999
#
# number of rings (size 3 to 8) (size 9 to 14) (size 15 to 20)
#    0.000    1.600    0.000    8.400    0.000    0.400 
#    0.000    7.000    0.000   11.400    0.000    2.800 
#    0.000    0.000    0.000    0.000    0.000    0.000 
#
# Total GULP energy -111529.273720 kJ/mol
# GULP energy per Si atom -5576.463686 kJ/mol
# Density = 2.211539 g / cm^3
# Si number density = 22.165836 Si / 1000 Ang^3
#
#
#
# Elastic Constant Matrix: (Units=GPa)
#
#
# Indices 1 2 3 4 5 6 
#
# 1 121.2744 14.9828 43.3931 0.0000 0.0000 0.0000
# 2 14.9828 30.4463 27.7478 0.0000 0.0000 0.0000
# 3 43.3931 27.7478 162.6725 0.0000 0.0000 0.0000
# 4 0.0000 0.0000 0.0000 11.3105 0.0000 0.0000
# 5 0.0000 0.0000 0.0000 0.0000 57.9241 0.0000
# 6 0.0000 0.0000 0.0000 0.0000 0.0000 36.8882
#
#
#
# Elastic Compliance Matrix: (Units=1/GPa)
#
#
# Indices 1 2 3 4 5 6 
#
# 1 0.009305 -0.002744 -0.002014 0.000000 0.000000 0.000000
# 2 -0.002744 0.039699 -0.006040 0.000000 0.000000 0.000000
# 3 -0.002014 -0.006040 0.007715 0.000000 0.000000 0.000000
# 4 0.000000 0.000000 0.000000 0.088414 0.000000 0.000000
# 5 0.000000 0.000000 0.000000 0.000000 0.017264 0.000000
# 6 0.000000 0.000000 0.000000 0.000000 0.000000 0.027109
#
#
# Mechanical properties :
#
#
# Convention : Reuss Voigt Hill
#
# Bulk Modulus (GPa) = 28.47025 54.07119 41.27072
# Shear Modulus (GPa) = 22.44066 36.44253 29.44159
#
# Velocity S-wave (km/s) = 3.18527 4.05913 3.64846
# Velocity P-wave (km/s) = 5.13810 6.81290 6.03389
#
# Compressibility (1/GPa) = 0.03512439
#
# Stress axis : x y z
#
# Youngs Moduli (GPa) = 107.46414 25.18927 129.61971
#
# Poissons Ratio (x) = 0.06911 0.26109
# Poissons Ratio (y) = 0.29483 0.78289
# Poissons Ratio (z) = 0.21646 0.15214
#
# Static dielectric constant tensor:
#      x y z
#    x 1.725990 0.000000 0.000000 
#    y 0.000000 1.780220 0.000000 
#    z 0.000000 0.000000 1.862290 
# 
# From -- ./inp_files/29112.got.cif
#   From: 2010.05.17/outbox.cif.g08.bks.cpg/sg21_15_cif.got.tgz:29112.got - 2010.06.03 23:14:55.
