data_PCOD9325971
_publ_section_title
;
Structure prediction by ZEFSAII (Michael W. Deem and Ramdas Pophale) SiO2 
 PCOD9325971
Probable space group: F 2 2 2
;
_chemical_formula_sum "Si O2"
_cell_formula_units_Z 88
_cell_length_a 13.984124
_cell_length_b 23.681164
_cell_length_c 14.102950
_cell_angle_alpha 90.000000
_cell_angle_beta 90.000000
_cell_angle_gamma 90.000000
_cell_volume 4670.337630
_symmetry_space_group_name_H-M "F 2 2 2"
_symmetry_group_IT_number 22
_symmetry_cell_setting 'orthorhombic'
loop_
_space_group_symop_operation_xyz
x,y,z
-x,-y,z
x,-y,-z
-x,y,-z
x,1/2+y,1/2+z
-x,1/2-y,1/2+z
x,1/2-y,1/2-z
-x,1/2+y,1/2-z
1/2+x,y,1/2+z
1/2-x,-y,1/2+z
1/2+x,-y,1/2-z
1/2-x,y,1/2-z
1/2+x,1/2+y,z
1/2-x,1/2-y,z
1/2+x,1/2-y,-z
1/2-x,1/2+y,-z
loop_
_atom_site_type_symbol
_atom_site_label
_atom_site_fract_x
_atom_site_fract_y
_atom_site_fract_z
Si Si1 0.416447 0.878527 0.782889
Si Si2 0.770214 0.631764 0.605498
Si Si3 0.324343 0.490961 0.892813
Si Si4 0.274937 0.383641 0.112062
Si Si5 0.391264 0.316099 0.730983
Si Si6 0.000000 0.000000 0.246959
O O1 0.365877 0.872801 0.679515
O O2 0.327864 0.863982 0.851032
O O3 0.502414 0.835200 0.791790
O O4 0.461878 0.941954 0.796174
O O5 0.759477 0.564194 0.616331
O O6 0.790331 0.638026 0.494176
O O7 0.678870 0.664110 0.646576
O O8 0.855343 0.651941 0.673960
O O9 0.266719 0.548272 0.877894
O O10 0.410907 0.484137 0.820383
O O11 0.362877 0.500000 0.000000
O O12 0.381856 0.250000 0.750000
#
# Coordination Sequence:
#
# PCOD9325971 Si02
#       6
#    16  16  16  16  16   8
#     4  10  21  37  59  86 122 153 198 238 297 358
#     4  10  20  38  59  84 119 155 193 249 293 345
#     4   9  17  30  54  88 119 150 189 236 291 356
#     4   9  21  37  58  88 123 150 190 239 303 366
#     4  11  24  41  61  86 114 156 213 251 286 347
#     4  10  17  30  56  87 116 162 184 234 299 349
#
# _framework density 18.842320999999998
#
# number of rings (size 3 to 8) (size 9 to 14) (size 15 to 20)
#    0.000    2.182    1.818    1.364    2.545    2.909 
#    0.000    7.273    0.000    0.000    0.000    0.000 
#    0.000    0.000    0.000    0.000    0.000    0.000 
#
# Total GULP energy -122599.485569 kJ/mol
# GULP energy per Si atom -5572.703889 kJ/mol
# Density = 1.879944 g / cm^3
# Si number density = 18.842321 Si / 1000 Ang^3
#
#
#
# Elastic Constant Matrix: (Units=GPa)
#
#
# Indices 1 2 3 4 5 6 
#
# 1 65.9791 1.8586 -12.5340 0.0000 0.0000 0.0000
# 2 1.8586 64.1266 -6.4608 0.0000 0.0000 0.0000
# 3 -12.5340 -6.4608 39.8644 0.0000 0.0000 0.0000
# 4 0.0000 0.0000 0.0000 17.0866 0.0000 0.0000
# 5 0.0000 0.0000 0.0000 0.0000 -3.6888 0.0000
# 6 0.0000 0.0000 0.0000 0.0000 0.0000 19.2864
#
#
#
# Elastic Compliance Matrix: (Units=1/GPa)
#
#
# Indices 1 2 3 4 5 6 
#
# 1 0.016119 0.000044 0.005075 0.000000 0.000000 0.000000
# 2 0.000044 0.015853 0.002583 0.000000 0.000000 0.000000
# 3 0.005075 0.002583 0.027099 0.000000 0.000000 0.000000
# 4 0.000000 0.000000 0.000000 0.058525 0.000000 0.000000
# 5 0.000000 0.000000 0.000000 0.000000 -0.271093 0.000000
# 6 0.000000 0.000000 0.000000 0.000000 0.000000 0.051850
#
#
# Mechanical properties :
#
#
# Convention : Reuss Voigt Hill
#
# Bulk Modulus (GPa) = 13.42695 15.07752 14.25224
# Shear Modulus (GPa) = -54.21481 19.01061 -17.60210
#
# Velocity S-wave (km/s) = -5.36986 3.17981 -3.05975
# Velocity P-wave (km/s) = 5.59515 4.63691 2.21413
#
# Compressibility (1/GPa) = 0.07447708
#
# Stress axis : x y z
#
# Youngs Moduli (GPa) = 62.03769 63.07903 36.90115
#
# Poissons Ratio (x) = -0.00278 -0.18728
# Poissons Ratio (y) = -0.00274 -0.09532
# Poissons Ratio (z) = -0.31486 -0.16295
#
# Static dielectric constant tensor:
#      x y z
#    x 1.633270 0.000000 0.000000 
#    y 0.000000 1.673790 0.000000 
#    z 0.000000 0.000000 1.688630 
# 
# From -- ./inp_files/29253.got.cif
#   From: 2010.05.17/outbox.cif.g08.bks.cpg/sg22_15_cif.got.tgz:29253.got - 2010.06.03 23:40:54.
