data_PCOD9325169
_publ_section_title
;
Structure prediction by ZEFSAII (Michael W. Deem and Ramdas Pophale) SiO2 
 PCOD9325169
Probable space group: C 2 2 2
;
_chemical_formula_sum "Si O2"
_cell_formula_units_Z 30
_cell_length_a 31.305109
_cell_length_b 5.000315
_cell_length_c 8.283581
_cell_angle_alpha 90.000000
_cell_angle_beta 90.000000
_cell_angle_gamma 90.000000
_cell_volume 1296.673716
_symmetry_space_group_name_H-M "C 2 2 2"
_symmetry_group_IT_number 21
_symmetry_cell_setting 'orthorhombic'
loop_
_space_group_symop_operation_xyz
x,y,z
-x,-y,z
x,-y,-z
-x,y,-z
1/2+x,1/2+y,z
1/2-x,1/2-y,z
1/2+x,1/2-y,-z
1/2-x,1/2+y,-z
loop_
_atom_site_type_symbol
_atom_site_label
_atom_site_fract_x
_atom_site_fract_y
_atom_site_fract_z
Si Si1 0.160909 0.500000 0.000000
Si Si2 0.898486 0.000000 0.000000
Si Si3 0.924469 0.189737 0.655982
Si Si4 0.721599 0.004246 0.279187
Si Si5 0.500000 0.000000 0.500000
Si Si6 0.350018 0.000000 0.500000
O O1 0.130571 0.253829 0.954974
O O2 0.192545 0.607437 0.863081
O O3 0.923726 0.069734 0.834930
O O4 0.968357 0.340020 0.617461
O O5 0.882133 0.368056 0.628003
O O6 0.920596 0.000000 0.500000
O O7 0.750000 0.750000 0.340641
O O8 0.685824 0.149548 0.393971
O O9 0.750000 0.250000 0.221926
#
# Coordination Sequence:
#
# PCOD9325169 Si02
#       6
#     4   4   8   8   2   4
#     4  12  24  47  68 109 147 204 263 319 378 455
#     4  12  26  47  83 112 151 202 265 308 392 476
#     4  11  25  49  81 111 153 202 249 326 389 482
#     4  12  25  41  65 103 151 204 262 323 380 439
#     4  10  26  52  78 122 156 194 258 320 416 474
#     4  11  24  43  68 104 150 200 266 313 380 463
#
# _framework density 23.136119999999998
#
# number of rings (size 3 to 8) (size 9 to 14) (size 15 to 20)
#    0.000    0.533    2.667    5.200    7.467    0.000 
#    0.000    4.000    0.000    0.000    0.000    0.000 
#    0.000    0.000    0.000    0.000    0.000    0.000 
#
# Total GULP energy -83628.432626 kJ/mol
# GULP energy per Si atom -5575.228842 kJ/mol
# Density = 2.308346 g / cm^3
# Si number density = 23.136120 Si / 1000 Ang^3
#
#
#
# Elastic Constant Matrix: (Units=GPa)
#
#
# Indices 1 2 3 4 5 6 
#
# 1 172.5589 66.2931 80.1331 0.0000 0.0000 0.0000
# 2 66.2931 103.4503 31.0769 0.0000 0.0000 0.0000
# 3 80.1331 31.0769 166.0028 0.0000 0.0000 0.0000
# 4 0.0000 0.0000 0.0000 54.4056 0.0000 0.0000
# 5 0.0000 0.0000 0.0000 0.0000 20.0114 0.0000
# 6 0.0000 0.0000 0.0000 0.0000 0.0000 -6.3388
#
#
#
# Elastic Compliance Matrix: (Units=1/GPa)
#
#
# Indices 1 2 3 4 5 6 
#
# 1 0.009352 -0.004913 -0.003595 0.000000 0.000000 0.000000
# 2 -0.004913 0.012824 -0.000029 0.000000 0.000000 0.000000
# 3 -0.003595 -0.000029 0.007765 0.000000 0.000000 0.000000
# 4 0.000000 0.000000 0.000000 0.018380 0.000000 0.000000
# 5 0.000000 0.000000 0.000000 0.000000 0.049972 0.000000
# 6 0.000000 0.000000 0.000000 0.000000 0.000000 -0.157758
#
#
# Mechanical properties :
#
#
# Convention : Reuss Voigt Hill
#
# Bulk Modulus (GPa) = 77.71982 88.55757 83.13870
# Shear Modulus (GPa) = -131.21942 31.24955 -49.98493
#
# Velocity S-wave (km/s) = -7.53919 3.67915 -4.65313
# Velocity P-wave (km/s) = 6.49003 7.51053 2.67278
#
# Compressibility (1/GPa) = 0.01286673
#
# Stress axis : x y z
#
# Youngs Moduli (GPa) = 106.93066 77.98141 128.78941
#
# Poissons Ratio (x) = 0.38313 0.46294
# Poissons Ratio (y) = 0.52535 0.00374
# Poissons Ratio (z) = 0.38437 0.00226
#
# Static dielectric constant tensor:
#      x y z
#    x 1.715360 0.000000 0.000000 
#    y 0.000000 1.712920 0.000000 
#    z 0.000000 0.000000 2.014790 
# 
# From -- ./inp_files/19366.got.cif
#   From: 2010.05.17/outbox.cif.g08.bks.cpg/sg21_10_cif.got.tgz:19366.got - 2010.06.03 23:14:55.
