data_PCOD9325911
_publ_section_title
;
Structure prediction by ZEFSAII (Michael W. Deem and Ramdas Pophale) SiO2 
 PCOD9325911
Probable space group: F 2 2 2
;
_chemical_formula_sum "Si O2"
_cell_formula_units_Z 64
_cell_length_a 26.653826
_cell_length_b 11.015843
_cell_length_c 9.566429
_cell_angle_alpha 90.000000
_cell_angle_beta 90.000000
_cell_angle_gamma 90.000000
_cell_volume 2808.840953
_symmetry_space_group_name_H-M "F 2 2 2"
_symmetry_group_IT_number 22
_symmetry_cell_setting 'orthorhombic'
loop_
_space_group_symop_operation_xyz
x,y,z
-x,-y,z
x,-y,-z
-x,y,-z
x,1/2+y,1/2+z
-x,1/2-y,1/2+z
x,1/2-y,1/2-z
-x,1/2+y,1/2-z
1/2+x,y,1/2+z
1/2-x,-y,1/2+z
1/2+x,-y,1/2-z
1/2-x,y,1/2-z
1/2+x,1/2+y,z
1/2-x,1/2-y,z
1/2+x,1/2-y,-z
1/2-x,1/2+y,-z
loop_
_atom_site_type_symbol
_atom_site_label
_atom_site_fract_x
_atom_site_fract_y
_atom_site_fract_z
Si Si1 0.032621 0.750000 0.750000
Si Si2 0.904816 0.822581 0.520677
Si Si3 0.192113 0.261374 0.418054
Si Si4 0.368027 0.000000 0.500000
Si Si5 0.561449 0.908743 0.707207
O O1 0.063762 0.795505 0.617780
O O2 0.995999 0.862596 0.796160
O O3 0.846641 0.835275 0.483620
O O4 0.925314 0.920389 0.629733
O O5 0.912993 0.702963 0.619356
O O6 0.188999 0.250000 0.250000
O O7 0.250000 0.250000 0.459034
O O8 0.169346 0.387899 0.473005
O O9 0.408006 0.987783 0.627873
#
# Coordination Sequence:
#
# PCOD9325911 Si02
#       5
#     8  16  16   8  16
#     4  10  16  32  65  96 127 174 206 264 328 380
#     4   9  17  34  61  91 125 170 208 264 326 381
#     4  10  21  42  65  91 128 173 210 274 333 375
#     4  10  22  42  63  98 126 170 229 260 320 412
#     4   9  18  33  57  95 123 164 210 257 317 388
#
# _framework density 22.785198000000001
#
# number of rings (size 3 to 8) (size 9 to 14) (size 15 to 20)
#    0.000    2.750    1.250    3.000    0.000    0.000 
#    9.000   18.750    0.000    0.000   58.500    0.000 
#    0.000    0.000    0.000    0.000    0.000    0.000 
#
# Total GULP energy -89165.629081 kJ/mol
# GULP energy per Si atom -5572.851818 kJ/mol
# Density = 2.273334 g / cm^3
# Si number density = 22.785198 Si / 1000 Ang^3
#
#
#
# Elastic Constant Matrix: (Units=GPa)
#
#
# Indices 1 2 3 4 5 6 
#
# 1 238.9217 36.3007 96.9856 0.0000 0.0000 0.0000
# 2 36.3007 72.6349 23.6504 0.0000 0.0000 0.0000
# 3 96.9856 23.6504 173.7739 0.0000 0.0000 0.0000
# 4 0.0000 0.0000 0.0000 25.0638 0.0000 0.0000
# 5 0.0000 0.0000 0.0000 0.0000 -93.4294 0.0000
# 6 0.0000 0.0000 0.0000 0.0000 0.0000 21.3683
#
#
#
# Elastic Compliance Matrix: (Units=1/GPa)
#
#
# Indices 1 2 3 4 5 6 
#
# 1 0.005646 -0.001879 -0.002896 0.000000 0.000000 0.000000
# 2 -0.001879 0.015031 -0.000997 0.000000 0.000000 0.000000
# 3 -0.002896 -0.000997 0.007506 0.000000 0.000000 0.000000
# 4 0.000000 0.000000 0.000000 0.039898 0.000000 0.000000
# 5 0.000000 0.000000 0.000000 0.000000 -0.010703 0.000000
# 6 0.000000 0.000000 0.000000 0.000000 0.000000 0.046798
#
#
# Mechanical properties :
#
#
# Convention : Reuss Voigt Hill
#
# Bulk Modulus (GPa) = 60.09378 88.80044 74.44711
# Shear Modulus (GPa) = 41.23123 12.49346 26.86234
#
# Velocity S-wave (km/s) = 4.25851 2.34415 3.43729
# Velocity P-wave (km/s) = 7.11415 6.81059 6.96403
#
# Compressibility (1/GPa) = 0.01664066
#
# Stress axis : x y z
#
# Youngs Moduli (GPa) = 177.10482 66.52826 133.22040
#
# Poissons Ratio (x) = 0.12501 0.38575
# Poissons Ratio (y) = 0.33279 0.13282
# Poissons Ratio (z) = 0.51282 0.06633
#
# Static dielectric constant tensor:
#      x y z
#    x 1.838450 0.000000 0.000000 
#    y 0.000000 2.382000 0.000000 
#    z 0.000000 0.000000 1.928680 
# 
# From -- ./inp_files/14431.got.cif
#   From: 2010.05.17/outbox.cif.g08.bks.cpg/sg22_8_cif.got.tgz:14431.got - 2010.06.03 23:40:54.
