data_PCOD9325932
_publ_section_title
;
Structure prediction by ZEFSAII (Michael W. Deem and Ramdas Pophale) SiO2 
 PCOD9325932
Probable space group: F 2 2 2
;
_chemical_formula_sum "Si O2"
_cell_formula_units_Z 108
_cell_length_a 20.504249
_cell_length_b 13.143385
_cell_length_c 17.834573
_cell_angle_alpha 90.000000
_cell_angle_beta 90.000000
_cell_angle_gamma 90.000000
_cell_volume 4806.332509
_symmetry_space_group_name_H-M "F 2 2 2"
_symmetry_group_IT_number 22
_symmetry_cell_setting 'orthorhombic'
loop_
_space_group_symop_operation_xyz
x,y,z
-x,-y,z
x,-y,-z
-x,y,-z
x,1/2+y,1/2+z
-x,1/2-y,1/2+z
x,1/2-y,1/2-z
-x,1/2+y,1/2-z
1/2+x,y,1/2+z
1/2-x,-y,1/2+z
1/2+x,-y,1/2-z
1/2-x,y,1/2-z
1/2+x,1/2+y,z
1/2-x,1/2-y,z
1/2+x,1/2-y,-z
1/2-x,1/2+y,-z
loop_
_atom_site_type_symbol
_atom_site_label
_atom_site_fract_x
_atom_site_fract_y
_atom_site_fract_z
Si Si1 0.294780 0.549692 0.418142
Si Si2 0.750000 0.250000 0.858325
Si Si3 0.326454 0.548083 0.869895
Si Si4 0.492972 0.718882 0.670079
Si Si5 0.500000 0.500000 0.500000
Si Si6 0.939698 0.871945 0.051333
Si Si7 0.406792 0.824367 0.041012
Si Si8 0.859889 0.399761 0.800966
O O1 0.288941 0.500000 0.500000
O O2 0.223582 0.543529 0.381895
O O3 0.333880 0.651488 0.434380
O O4 0.340712 0.484379 0.362044
O O5 0.712364 0.347374 0.893745
O O6 0.808175 0.309160 0.816081
O O7 0.389626 0.543503 0.921576
O O8 0.346533 0.561198 0.783166
O O9 0.521299 0.750000 0.750000
O O10 0.464597 0.817321 0.627406
O O11 0.547307 0.676316 0.614376
O O12 0.432457 0.643147 0.686673
O O13 0.442528 0.411290 0.490777
O O14 0.908171 0.779548 0.004440
O O15 0.000000 0.900380 0.000000
#
# Coordination Sequence:
#
# PCOD9325932 Si02
#       8
#    16   8  16  16   4  16  16  16
#     4  11  23  37  56  88 127 165 205 254 325 385
#     4  10  17  26  50  90 120 146 189 266 317 352
#     4  11  21  34  61  86 122 162 211 263 315 367
#     4  11  18  32  58  89 119 154 200 259 321 369
#     4  12  16  32  56  84 132 168 186 248 320 376
#     4  10  20  37  60  92 125 159 204 264 320 374
#     4  11  22  34  56  90 129 163 201 254 320 387
#     4  11  19  33  58  90 121 154 206 270 316 365
#
# _framework density 22.470355999999999
#
# number of rings (size 3 to 8) (size 9 to 14) (size 15 to 20)
#    0.000    1.185    5.926    4.444    2.074    0.000 
#    0.000    0.000   13.037    0.444    0.000    0.000 
#    0.000    0.000    0.000    0.000    0.000    0.000 
#
# Total GULP energy -150637.354630 kJ/mol
# GULP energy per Si atom -5579.161283 kJ/mol
# Density = 2.241921 g / cm^3
# Si number density = 22.470356 Si / 1000 Ang^3
#
#
#
# Elastic Constant Matrix: (Units=GPa)
#
#
# Indices 1 2 3 4 5 6 
#
# 1 95.2401 0.3606 41.6098 0.0000 0.0000 0.0000
# 2 0.3606 40.4533 12.1556 0.0000 0.0000 0.0000
# 3 41.6098 12.1556 121.2100 0.0000 0.0000 0.0000
# 4 0.0000 0.0000 0.0000 48.5605 0.0000 0.0000
# 5 0.0000 0.0000 0.0000 0.0000 -10.3388 0.0000
# 6 0.0000 0.0000 0.0000 0.0000 0.0000 8.2644
#
#
#
# Elastic Compliance Matrix: (Units=1/GPa)
#
#
# Indices 1 2 3 4 5 6 
#
# 1 0.012409 0.001206 -0.004381 0.000000 0.000000 0.000000
# 2 0.001206 0.025605 -0.002982 0.000000 0.000000 0.000000
# 3 -0.004381 -0.002982 0.010053 0.000000 0.000000 0.000000
# 4 0.000000 0.000000 0.000000 0.020593 0.000000 0.000000
# 5 0.000000 0.000000 0.000000 0.000000 -0.096723 0.000000
# 6 0.000000 0.000000 0.000000 0.000000 0.000000 0.121002
#
#
# Mechanical properties :
#
#
# Convention : Reuss Voigt Hill
#
# Bulk Modulus (GPa) = 27.96914 40.57283 34.27099
# Shear Modulus (GPa) = 42.67303 22.81570 32.74436
#
# Velocity S-wave (km/s) = 4.36257 3.18994 3.82150
# Velocity P-wave (km/s) = 6.15225 5.62699 5.89547
#
# Compressibility (1/GPa) = 0.03575369
#
# Stress axis : x y z
#
# Youngs Moduli (GPa) = 80.58555 39.05473 99.47230
#
# Poissons Ratio (x) = -0.04709 0.43577
# Poissons Ratio (y) = -0.09717 0.29660
# Poissons Ratio (z) = 0.35303 0.11645
#
# Static dielectric constant tensor:
#      x y z
#    x 1.819250 0.000000 0.000000 
#    y 0.000000 1.869120 0.000000 
#    z 0.000000 0.000000 1.846230 
# 
# From -- ./inp_files/39073.got.cif
#   From: 2010.05.17/outbox.cif.g08.bks.cpg/sg22_20_cif.got.tgz:39073.got - 2010.06.03 23:40:54.
