data_PCOD9325289
_publ_section_title
;
Structure prediction by ZEFSAII (Michael W. Deem and Ramdas Pophale) SiO2 
 PCOD9325289
Probable space group: C 2 2 2
;
_chemical_formula_sum "Si O2"
_cell_formula_units_Z 54
_cell_length_a 14.481535
_cell_length_b 11.603813
_cell_length_c 14.628081
_cell_angle_alpha 90.000000
_cell_angle_beta 90.000000
_cell_angle_gamma 90.000000
_cell_volume 2458.117712
_symmetry_space_group_name_H-M "C 2 2 2"
_symmetry_group_IT_number 21
_symmetry_cell_setting 'orthorhombic'
loop_
_space_group_symop_operation_xyz
x,y,z
-x,-y,z
x,-y,-z
-x,y,-z
1/2+x,1/2+y,z
1/2-x,1/2-y,z
1/2+x,1/2-y,-z
1/2-x,1/2+y,-z
loop_
_atom_site_type_symbol
_atom_site_label
_atom_site_fract_x
_atom_site_fract_y
_atom_site_fract_z
Si Si1 0.500000 0.500000 0.000000
Si Si2 0.151902 0.681560 0.199835
Si Si3 0.628191 0.557650 0.402006
Si Si4 0.315350 0.920573 0.820260
Si Si5 0.535866 0.646090 0.692757
Si Si6 0.750000 0.750000 0.314389
Si Si7 0.098567 0.913815 0.860123
Si Si8 0.858649 0.285853 0.990052
O O1 0.424946 0.472123 0.918753
O O2 0.250000 0.750000 0.203337
O O3 0.159519 0.545282 0.216233
O O4 0.086193 0.739982 0.274622
O O5 0.116156 0.692410 0.094722
O O6 0.641493 0.500000 0.500000
O O7 0.612861 0.450602 0.331563
O O8 0.533683 0.632525 0.392551
O O9 0.706964 0.646690 0.372828
O O10 0.326038 0.813014 0.750784
O O11 0.204807 0.920132 0.834301
O O12 0.361481 0.891180 0.917656
O O13 0.467617 0.614217 0.776492
O O14 0.087405 0.815785 0.937905
O O15 0.750000 0.250000 0.991007
#
# Coordination Sequence:
#
# PCOD9325289 Si02
#       8
#     2   8   8   8   8   4   8   8
#     4  12  24  24  56  88 128 168 254 304 324 370
#     4  11  24  34  59 100 143 187 243 294 339 398
#     4  11  25  47  78 105 132 171 225 292 372 444
#     4  11  21  40  63  94 137 190 236 286 346 419
#     4  11  22  44  69 101 138 175 229 292 353 417
#     4  12  22  48  76 100 140 182 222 276 366 444
#     4  11  22  35  59  92 129 186 243 291 344 403
#     4   9  19  36  54  86 141 190 242 292 338 384
#
# _framework density 21.968029000000001
#
# number of rings (size 3 to 8) (size 9 to 14) (size 15 to 20)
#    0.000    1.185    3.704    4.000   10.370    0.000 
#    4.000    2.963    0.000    3.556    0.000    0.000 
#    0.000    0.000    0.000    0.000    0.000    0.000 
#
# Total GULP energy -150516.804889 kJ/mol
# GULP energy per Si atom -5574.696477 kJ/mol
# Density = 2.191803 g / cm^3
# Si number density = 21.968029 Si / 1000 Ang^3
#
#
#
# Elastic Constant Matrix: (Units=GPa)
#
#
# Indices 1 2 3 4 5 6 
#
# 1 48.4533 32.5421 29.9365 0.0000 0.0000 0.0000
# 2 32.5421 159.1438 57.2516 0.0000 0.0000 0.0000
# 3 29.9365 57.2516 119.4027 0.0000 0.0000 0.0000
# 4 0.0000 0.0000 0.0000 42.0135 0.0000 0.0000
# 5 0.0000 0.0000 0.0000 0.0000 28.8204 0.0000
# 6 0.0000 0.0000 0.0000 0.0000 0.0000 36.4976
#
#
#
# Elastic Compliance Matrix: (Units=1/GPa)
#
#
# Indices 1 2 3 4 5 6 
#
# 1 0.026017 -0.003593 -0.004800 0.000000 0.000000 0.000000
# 2 -0.003593 0.008090 -0.002978 0.000000 0.000000 0.000000
# 3 -0.004800 -0.002978 0.011006 0.000000 0.000000 0.000000
# 4 0.000000 0.000000 0.000000 0.023802 0.000000 0.000000
# 5 0.000000 0.000000 0.000000 0.000000 0.034698 0.000000
# 6 0.000000 0.000000 0.000000 0.000000 0.000000 0.027399
#
#
# Mechanical properties :
#
#
# Convention : Reuss Voigt Hill
#
# Bulk Modulus (GPa) = 44.70118 62.94001 53.82059
# Shear Modulus (GPa) = 31.01511 35.28429 33.14970
#
# Velocity S-wave (km/s) = 3.76151 4.01205 3.88880
# Velocity P-wave (km/s) = 6.26560 7.08343 6.68703
#
# Compressibility (1/GPa) = 0.02237077
#
# Stress axis : x y z
#
# Youngs Moduli (GPa) = 38.43575 123.61389 90.85628
#
# Poissons Ratio (x) = 0.44418 0.43612
# Poissons Ratio (y) = 0.13811 0.27057
# Poissons Ratio (z) = 0.18450 0.36812
#
# Static dielectric constant tensor:
#      x y z
#    x 1.923730 0.000000 0.000000 
#    y 0.000000 1.436770 0.000000 
#    z 0.000000 0.000000 1.850550 
# 
# From -- ./inp_files/32346.got.cif
#   From: 2010.05.17/outbox.cif.g08.bks.cpg/sg21_17_cif.got.tgz:32346.got - 2010.06.03 23:14:55.
