data_PCOD9325879
_publ_section_title
;
Structure prediction by ZEFSAII (Michael W. Deem and Ramdas Pophale) SiO2 
 PCOD9325879
Probable space group: F 2 2 2
;
_chemical_formula_sum "Si O2"
_cell_formula_units_Z 104
_cell_length_a 18.446000
_cell_length_b 28.867897
_cell_length_c 7.313915
_cell_angle_alpha 90.000000
_cell_angle_beta 90.000000
_cell_angle_gamma 90.000000
_cell_volume 3894.639464
_symmetry_space_group_name_H-M "F 2 2 2"
_symmetry_group_IT_number 22
_symmetry_cell_setting 'orthorhombic'
loop_
_space_group_symop_operation_xyz
x,y,z
-x,-y,z
x,-y,-z
-x,y,-z
x,1/2+y,1/2+z
-x,1/2-y,1/2+z
x,1/2-y,1/2-z
-x,1/2+y,1/2-z
1/2+x,y,1/2+z
1/2-x,-y,1/2+z
1/2+x,-y,1/2-z
1/2-x,y,1/2-z
1/2+x,1/2+y,z
1/2-x,1/2-y,z
1/2+x,1/2-y,-z
1/2-x,1/2+y,-z
loop_
_atom_site_type_symbol
_atom_site_label
_atom_site_fract_x
_atom_site_fract_y
_atom_site_fract_z
Si Si1 0.663301 0.392552 0.088514
Si Si2 0.214620 0.448718 0.054725
Si Si3 0.989088 0.750000 0.750000
Si Si4 0.354447 0.710841 0.043903
Si Si5 0.870631 0.300229 0.885947
Si Si6 0.092738 0.602499 0.819964
Si Si7 0.532107 0.049839 0.293653
O O1 0.615312 0.432606 0.190600
O O2 0.743846 0.411706 0.065507
O O3 0.667862 0.337760 0.133834
O O4 0.623080 0.391994 0.887545
O O5 0.250000 0.440541 0.250000
O O6 0.130366 0.441401 0.087596
O O7 0.232905 0.500000 0.000000
O O8 0.935734 0.718382 0.626846
O O9 0.046805 0.717277 0.853409
O O10 0.342086 0.703012 0.823892
O O11 0.332609 0.766359 0.034345
O O12 0.878298 0.353557 0.930247
O O13 0.008765 0.592324 0.803752
O O14 0.500000 0.049932 0.500000
O O15 0.500000 0.000000 0.225254
#
# Coordination Sequence:
#
# PCOD9325879 Si02
#       7
#    16  16   8  16  16  16  16
#     4   9  18  32  54  85 114 153 205 252 293 360
#     4  10  22  38  62  83 116 159 208 253 309 378
#     4  10  16  26  50  80 114 148 182 238 298 360
#     4   9  17  29  48  78 111 146 190 237 297 357
#     4   9  16  29  50  71 110 152 187 230 301 361
#     4   9  18  33  53  82 115 154 196 251 304 358
#     4   9  17  27  52  85 119 144 194 257 301 339
#
# _framework density 26.70337
#
# number of rings (size 3 to 8) (size 9 to 14) (size 15 to 20)
#    0.000    2.923    0.000    2.769    6.462    4.923 
#    0.000    2.308    6.769    6.462    0.000    1.077 
#    0.000    0.000    0.000    0.000    0.000    0.000 
#
# Total GULP energy -144804.491590 kJ/mol
# GULP energy per Si atom -5569.403523 kJ/mol
# Density = 2.664259 g / cm^3
# Si number density = 26.703370 Si / 1000 Ang^3
#
#
#
# Elastic Constant Matrix: (Units=GPa)
#
#
# Indices 1 2 3 4 5 6 
#
# 1 76.4084 19.2995 -19.5304 -0.0003 0.0007 0.0013
# 2 19.2995 171.4969 9.3090 -0.0001 0.0000 0.0012
# 3 -19.5304 9.3090 79.9654 -0.0007 0.0017 0.0009
# 4 -0.0003 -0.0001 -0.0007 22.9217 0.0005 -0.0008
# 5 0.0007 0.0000 0.0017 0.0005 48.1034 0.0065
# 6 0.0013 0.0012 0.0009 -0.0008 0.0065 440.3860
#
#
#
# Elastic Compliance Matrix: (Units=1/GPa)
#
#
# Indices 1 2 3 4 5 6 
#
# 1 0.014512 -0.001837 0.003758 0.000000 0.000000 0.000000
# 2 -0.001837 0.006101 -0.001159 0.000000 0.000000 0.000000
# 3 0.003758 -0.001159 0.013558 0.000000 -0.000001 0.000000
# 4 0.000000 0.000000 0.000000 0.043627 0.000000 0.000000
# 5 0.000000 0.000000 -0.000001 0.000000 0.020789 0.000000
# 6 0.000000 0.000000 0.000000 0.000000 0.000000 0.002271
#
#
# Mechanical properties :
#
#
# Convention : Reuss Voigt Hill
#
# Bulk Modulus (GPa) = 28.01467 38.44743 33.23105
# Shear Modulus (GPa) = 44.95143 123.53507 84.24325
#
# Velocity S-wave (km/s) = 4.10733 6.80899 5.62284
# Velocity P-wave (km/s) = 5.74521 8.73188 7.39098
#
# Compressibility (1/GPa) = 0.03569558
#
# Stress axis : x y z
#
# Youngs Moduli (GPa) = 68.90743 163.91673 73.75595
#
# Poissons Ratio (x) = 0.30114 -0.27719
# Poissons Ratio (y) = 0.12659 0.08548
# Poissons Ratio (z) = -0.25897 0.18996
#
# Static dielectric constant tensor:
#      x y z
#    x 2.020480 0.000000 0.000000 
#    y 0.000000 2.056110 0.000000 
#    z 0.000000 0.000000 2.303070 
# 
# From -- ./inp_files/13069.got.cif
#   From: 2010.05.17/outbox.cif.g08.bks.cpg/sg22_7_cif.got.tgz:13069.got - 2010.06.03 23:40:54.
