data_PCOD9325694
_publ_section_title
;
Structure prediction by ZEFSAII (Michael W. Deem and Ramdas Pophale) SiO2 
 PCOD9325694
Probable space group: C 2 2 2
;
_chemical_formula_sum "Si O2"
_cell_formula_units_Z 34
_cell_length_a 5.274028
_cell_length_b 33.572591
_cell_length_c 9.843264
_cell_angle_alpha 90.000000
_cell_angle_beta 90.000000
_cell_angle_gamma 90.000000
_cell_volume 1742.875737
_symmetry_space_group_name_H-M "C 2 2 2"
_symmetry_group_IT_number 21
_symmetry_cell_setting 'orthorhombic'
loop_
_space_group_symop_operation_xyz
x,y,z
-x,-y,z
x,-y,-z
-x,y,-z
1/2+x,1/2+y,z
1/2-x,1/2-y,z
1/2+x,1/2-y,-z
1/2-x,1/2+y,-z
loop_
_atom_site_type_symbol
_atom_site_label
_atom_site_fract_x
_atom_site_fract_y
_atom_site_fract_z
Si Si1 0.389681 0.044142 0.147595
Si Si2 0.000000 0.000000 0.000000
Si Si3 0.046115 0.166768 0.736477
Si Si4 0.536047 0.118014 0.663504
Si Si5 0.000000 0.773485 0.500000
Si Si6 0.500000 0.278039 0.000000
O O1 0.426829 0.075168 0.266105
O O2 0.108139 0.032142 0.107404
O O3 0.500000 0.000000 0.174851
O O4 0.500000 0.057683 0.000000
O O5 0.286318 0.137463 0.731147
O O6 0.097911 0.198900 0.619860
O O7 0.786278 0.143771 0.699415
O O8 0.017325 0.192380 0.872081
O O9 0.500000 0.116277 0.500000
O O10 0.750000 0.750000 0.451810
O O11 0.750000 0.250000 0.993043
#
# Coordination Sequence:
#
# PCOD9325694 Si02
#       6
#     8   2   8   8   4   4
#     4   9  22  40  69  97 131 174 227 268 328 393
#     4   8  18  42  64 104 124 168 238 262 330 384
#     4  12  26  44  66 103 134 172 223 274 336 394
#     4  12  25  44  66  99 141 177 219 274 326 397
#     4  12  22  42  70  90 125 178 215 262 324 392
#     4  12  26  47  70 100 133 170 227 286 334 402
#
# _framework density 19.507991000000001
#
# number of rings (size 3 to 8) (size 9 to 14) (size 15 to 20)
#    0.000    1.176    2.353    4.235    9.882    0.471 
#    0.000    0.000    0.000    0.000    0.000    0.000 
#    0.000    0.000    0.000    0.000    0.000    0.000 
#
# Total GULP energy -94754.766742 kJ/mol
# GULP energy per Si atom -5573.809808 kJ/mol
# Density = 1.946359 g / cm^3
# Si number density = 19.507991 Si / 1000 Ang^3
#
#
#
# Elastic Constant Matrix: (Units=GPa)
#
#
# Indices 1 2 3 4 5 6 
#
# 1 119.7451 51.4563 33.5796 0.0000 0.0000 0.0000
# 2 51.4563 115.3569 77.5484 0.0000 0.0000 0.0000
# 3 33.5796 77.5484 138.8429 0.0000 0.0000 0.0000
# 4 0.0000 0.0000 0.0000 51.9360 0.0000 0.0000
# 5 0.0000 0.0000 0.0000 0.0000 27.2982 0.0000
# 6 0.0000 0.0000 0.0000 0.0000 0.0000 366.7394
#
#
#
# Elastic Compliance Matrix: (Units=1/GPa)
#
#
# Indices 1 2 3 4 5 6 
#
# 1 0.010333 -0.004690 0.000121 0.000000 0.000000 0.000000
# 2 -0.004690 0.016009 -0.007807 0.000000 0.000000 0.000000
# 3 0.000121 -0.007807 0.011534 0.000000 0.000000 0.000000
# 4 0.000000 0.000000 0.000000 0.019254 0.000000 0.000000
# 5 0.000000 0.000000 0.000000 0.000000 0.036632 0.000000
# 6 0.000000 0.000000 0.000000 0.000000 0.000000 0.002727
#
#
# Mechanical properties :
#
#
# Convention : Reuss Voigt Hill
#
# Bulk Modulus (GPa) = 76.20751 77.67930 76.94341
# Shear Modulus (GPa) = 39.80339 103.28542 71.54441
#
# Velocity S-wave (km/s) = 4.52194 7.28424 6.06251
# Velocity P-wave (km/s) = 8.14945 10.51915 9.40920
#
# Compressibility (1/GPa) = 0.01312207
#
# Stress axis : x y z
#
# Youngs Moduli (GPa) = 96.78062 62.46359 86.70068
#
# Poissons Ratio (x) = 0.29296 -0.01045
# Poissons Ratio (y) = 0.45391 0.67691
# Poissons Ratio (z) = -0.01167 0.48768
#
# Static dielectric constant tensor:
#      x y z
#    x 2.019610 0.000000 0.000000 
#    y 0.000000 1.658800 0.000000 
#    z 0.000000 0.000000 1.372070 
# 
# From -- ./inp_files/9237.got.cif
#   From: 2010.05.17/outbox.cif.g08.bks.cpg/sg21_5_cif.got.tgz:9237.got - 2010.06.03 23:14:55.
