data_PCOD9325607
_publ_section_title
;
Structure prediction by ZEFSAII (Michael W. Deem and Ramdas Pophale) SiO2 
 PCOD9325607
Probable space group: C 2 2 2
;
_chemical_formula_sum "Si O2"
_cell_formula_units_Z 24
_cell_length_a 13.816064
_cell_length_b 8.234650
_cell_length_c 8.601794
_cell_angle_alpha 90.000000
_cell_angle_beta 90.000000
_cell_angle_gamma 90.000000
_cell_volume 978.629986
_symmetry_space_group_name_H-M "C 2 2 2"
_symmetry_group_IT_number 21
_symmetry_cell_setting 'orthorhombic'
loop_
_space_group_symop_operation_xyz
x,y,z
-x,-y,z
x,-y,-z
-x,y,-z
1/2+x,1/2+y,z
1/2-x,1/2-y,z
1/2+x,1/2-y,-z
1/2-x,1/2+y,-z
loop_
_atom_site_type_symbol
_atom_site_label
_atom_site_fract_x
_atom_site_fract_y
_atom_site_fract_z
Si Si1 0.502595 0.688462 0.690174
Si Si2 0.177181 0.615607 0.634346
Si Si3 0.328093 0.874031 0.125896
O O1 0.500000 0.500000 0.736605
O O2 0.500000 0.691137 0.500000
O O3 0.405755 0.788920 0.724934
O O4 0.590027 0.779055 0.777129
O O5 0.136042 0.500000 0.500000
O O6 0.250000 0.750000 0.569407
O O7 0.227597 0.489861 0.750416
O O8 0.250000 0.750000 0.057705
O O9 0.367703 0.000000 0.000000
#
# Coordination Sequence:
#
# PCOD9325607 Si02
#       3
#     8   8   8
#     4  11  25  45  76 116 157 201 262 320 384 457
#     4  12  25  43  73 112 151 203 258 313 380 457
#     4  12  27  50  76 113 157 207 258 316 396 463
#
# _framework density 24.524080999999999
#
# number of rings (size 3 to 8) (size 9 to 14) (size 15 to 20)
#    0.000    0.333    3.333    5.000    4.667    2.667 
#    0.000    1.667    0.000    0.000    0.000    0.000 
#    0.000    0.000    0.000    0.000    0.000    0.000 
#
# Total GULP energy -67113.840300 kJ/mol
# GULP energy per Si atom -5592.820025 kJ/mol
# Density = 2.446826 g / cm^3
# Si number density = 24.524081 Si / 1000 Ang^3
#
#
#
# Elastic Constant Matrix: (Units=GPa)
#
#
# Indices 1 2 3 4 5 6 
#
# 1 124.4078 83.9178 24.1212 0.0000 0.0000 0.0000
# 2 83.9178 218.6782 72.6464 0.0000 0.0000 0.0000
# 3 24.1212 72.6464 83.3562 0.0000 0.0000 0.0000
# 4 0.0000 0.0000 0.0000 43.7461 0.0000 0.0000
# 5 0.0000 0.0000 0.0000 0.0000 24.8677 0.0000
# 6 0.0000 0.0000 0.0000 0.0000 0.0000 45.4109
#
#
#
# Elastic Compliance Matrix: (Units=1/GPa)
#
#
# Indices 1 2 3 4 5 6 
#
# 1 0.010874 -0.004402 0.000690 0.000000 0.000000 0.000000
# 2 -0.004402 0.008218 -0.005889 0.000000 0.000000 0.000000
# 3 0.000690 -0.005889 0.016929 0.000000 0.000000 0.000000
# 4 0.000000 0.000000 0.000000 0.022859 0.000000 0.000000
# 5 0.000000 0.000000 0.000000 0.000000 0.040213 0.000000
# 6 0.000000 0.000000 0.000000 0.000000 0.000000 0.022021
#
#
# Mechanical properties :
#
#
# Convention : Reuss Voigt Hill
#
# Bulk Modulus (GPa) = 59.45448 87.53481 73.49464
# Shear Modulus (GPa) = 34.26475 39.18872 36.72673
#
# Velocity S-wave (km/s) = 3.74195 4.00180 3.87405
# Velocity P-wave (km/s) = 6.55481 7.55800 7.07421
#
# Compressibility (1/GPa) = 0.01681959
#
# Stress axis : x y z
#
# Youngs Moduli (GPa) = 91.96601 121.67781 59.06949
#
# Poissons Ratio (x) = 0.53561 -0.04075
# Poissons Ratio (y) = 0.40482 0.34784
# Poissons Ratio (z) = -0.06344 0.71652
#
# Static dielectric constant tensor:
#      x y z
#    x 1.898300 0.000000 0.000000 
#    y 0.000000 1.938820 0.000000 
#    z 0.000000 0.000000 2.022390 
# 
# From -- ./inp_files/9740.got.cif
#   From: 2010.05.17/outbox.cif.g08.bks.cpg/sg21_5_cif.got.tgz:9740.got - 2010.06.03 23:14:55.
