data_PCOD9325207
_publ_section_title
;
Structure prediction by ZEFSAII (Michael W. Deem and Ramdas Pophale) SiO2 
 PCOD9325207
Probable space group: C 2 2 2
;
_chemical_formula_sum "Si O2"
_cell_formula_units_Z 40
_cell_length_a 12.429259
_cell_length_b 16.836380
_cell_length_c 8.587632
_cell_angle_alpha 90.000000
_cell_angle_beta 90.000000
_cell_angle_gamma 90.000000
_cell_volume 1797.079884
_symmetry_space_group_name_H-M "C 2 2 2"
_symmetry_group_IT_number 21
_symmetry_cell_setting 'orthorhombic'
loop_
_space_group_symop_operation_xyz
x,y,z
-x,-y,z
x,-y,-z
-x,y,-z
1/2+x,1/2+y,z
1/2-x,1/2-y,z
1/2+x,1/2-y,-z
1/2-x,1/2+y,-z
loop_
_atom_site_type_symbol
_atom_site_label
_atom_site_fract_x
_atom_site_fract_y
_atom_site_fract_z
Si Si1 0.482645 0.321251 0.814929
Si Si2 0.894278 0.580510 0.090130
Si Si3 0.783436 0.157146 0.717760
Si Si4 0.766179 0.153844 0.359660
Si Si5 0.968255 0.356345 0.322098
O O1 0.591218 0.356799 0.745274
O O2 0.373674 0.358793 0.741939
O O3 0.483649 0.229396 0.759038
O O4 0.500000 0.325082 0.000000
O O5 0.784885 0.624637 0.135017
O O6 0.948460 0.579256 0.259726
O O7 0.872941 0.500000 0.000000
O O8 0.000000 0.616233 0.000000
O O9 0.750000 0.250000 0.713882
O O10 0.766786 0.127817 0.540259
O O11 0.750000 0.250000 0.360406
O O12 0.655088 0.119826 0.292280
O O13 0.000000 0.341974 0.500000
#
# Coordination Sequence:
#
# PCOD9325207 Si02
#       5
#     8   8   8   8   8
#     4  11  22  32  57 106 143 172 216 289 362 413
#     4  11  25  42  62  93 138 181 229 294 353 410
#     4  11  20  37  65  93 137 184 228 287 344 421
#     4   9  19  34  58  97 139 180 224 274 349 432
#     4  11  19  39  64  92 136 186 230 281 350 426
#
# _framework density 22.258331999999999
#
# number of rings (size 3 to 8) (size 9 to 14) (size 15 to 20)
#    0.000    1.400    4.000    3.600    2.800    0.800 
#    0.000    2.000    0.000    1.800    0.000    0.000 
#   12.000    0.000    1.200    0.000    0.000    0.000 
#
# Total GULP energy -111464.840199 kJ/mol
# GULP energy per Si atom -5573.242010 kJ/mol
# Density = 2.220767 g / cm^3
# Si number density = 22.258332 Si / 1000 Ang^3
#
#
#
# Elastic Constant Matrix: (Units=GPa)
#
#
# Indices 1 2 3 4 5 6 
#
# 1 194.1769 13.8741 44.7024 0.0000 0.0000 0.0000
# 2 13.8741 28.5874 20.1254 0.0000 0.0000 0.0000
# 3 44.7024 20.1254 108.7680 0.0000 0.0000 0.0000
# 4 0.0000 0.0000 0.0000 11.6794 0.0000 0.0000
# 5 0.0000 0.0000 0.0000 0.0000 48.8107 0.0000
# 6 0.0000 0.0000 0.0000 0.0000 0.0000 14.8390
#
#
#
# Elastic Compliance Matrix: (Units=1/GPa)
#
#
# Indices 1 2 3 4 5 6 
#
# 1 0.005729 -0.001291 -0.002116 0.000000 0.000000 0.000000
# 2 -0.001291 0.040510 -0.006965 0.000000 0.000000 0.000000
# 3 -0.002116 -0.006965 0.011352 0.000000 0.000000 0.000000
# 4 0.000000 0.000000 0.000000 0.085621 0.000000 0.000000
# 5 0.000000 0.000000 0.000000 0.000000 0.020487 0.000000
# 6 0.000000 0.000000 0.000000 0.000000 0.000000 0.067390
#
#
# Mechanical properties :
#
#
# Convention : Reuss Voigt Hill
#
# Bulk Modulus (GPa) = 27.13845 54.32623 40.73234
# Shear Modulus (GPa) = 18.93106 31.92118 25.42612
#
# Velocity S-wave (km/s) = 2.91952 3.79109 3.38349
# Velocity P-wave (km/s) = 4.85631 6.60479 5.79686
#
# Compressibility (1/GPa) = 0.03684809
#
# Stress axis : x y z
#
# Youngs Moduli (GPa) = 174.54213 24.68505 88.08876
#
# Poissons Ratio (x) = 0.03187 0.18638
# Poissons Ratio (y) = 0.22534 0.61354
# Poissons Ratio (z) = 0.36929 0.17193
#
# Static dielectric constant tensor:
#      x y z
#    x 1.885500 0.000000 0.000000 
#    y 0.000000 1.874820 0.000000 
#    z 0.000000 0.000000 1.925680 
# 
# From -- ./inp_files/12715.got.cif
#   From: 2010.05.17/outbox.cif.g08.bks.cpg/sg21_7_cif.got.tgz:12715.got - 2010.06.03 23:14:55.
