data_PCOD9325375
_publ_section_title
;
Structure prediction by ZEFSAII (Michael W. Deem and Ramdas Pophale) SiO2 
 PCOD9325375
Probable space group: C 2 2 2
;
_chemical_formula_sum "Si O2"
_cell_formula_units_Z 30
_cell_length_a 16.861364
_cell_length_b 11.010385
_cell_length_c 8.405226
_cell_angle_alpha 90.000000
_cell_angle_beta 90.000000
_cell_angle_gamma 90.000000
_cell_volume 1560.431125
_symmetry_space_group_name_H-M "C 2 2 2"
_symmetry_group_IT_number 21
_symmetry_cell_setting 'orthorhombic'
loop_
_space_group_symop_operation_xyz
x,y,z
-x,-y,z
x,-y,-z
-x,y,-z
1/2+x,1/2+y,z
1/2-x,1/2-y,z
1/2+x,1/2-y,-z
1/2-x,1/2+y,-z
loop_
_atom_site_type_symbol
_atom_site_label
_atom_site_fract_x
_atom_site_fract_y
_atom_site_fract_z
Si Si1 0.000000 0.500000 0.000000
Si Si2 0.250000 0.250000 0.130664
Si Si3 0.582194 0.445498 0.181884
Si Si4 0.873266 0.316819 0.134668
Si Si5 0.246666 0.498226 0.686140
O O1 0.940255 0.414441 0.095558
O O2 0.235560 0.369754 0.234958
O O3 0.174277 0.256434 0.013494
O O4 0.500000 0.500000 0.242718
O O5 0.580449 0.300137 0.197822
O O6 0.661058 0.476681 0.277888
O O7 0.590601 0.500000 0.000000
O O8 0.806400 0.392042 0.232479
O O9 0.229528 0.500000 0.500000
#
# Coordination Sequence:
#
# PCOD9325375 Si02
#       5
#     2   4   8   8   8
#     4  12  24  40  68 108 122 172 238 290 332 372
#     4  12  22  44  72  94 126 184 238 260 328 412
#     4  11  22  41  70 102 129 176 232 281 329 400
#     4  12  23  44  71  98 132 177 233 283 327 410
#     4  12  26  42  68 102 138 181 219 278 346 406
#
# _framework density 19.225455
#
# number of rings (size 3 to 8) (size 9 to 14) (size 15 to 20)
#    0.000    0.267    8.000    1.600    3.733    0.533 
#    0.000    0.667    5.867    0.000    0.000    0.000 
#    0.000    0.000    0.000    0.000    0.000    0.000 
#
# Total GULP energy -83626.815014 kJ/mol
# GULP energy per Si atom -5575.121001 kJ/mol
# Density = 1.918170 g / cm^3
# Si number density = 19.225455 Si / 1000 Ang^3
#
#
#
# Elastic Constant Matrix: (Units=GPa)
#
#
# Indices 1 2 3 4 5 6 
#
# 1 147.8151 62.7197 34.0043 0.0000 0.0000 0.0000
# 2 62.7197 169.7614 38.9684 0.0000 0.0000 0.0000
# 3 34.0043 38.9684 71.1744 0.0000 0.0000 0.0000
# 4 0.0000 0.0000 0.0000 1.9627 0.0000 0.0000
# 5 0.0000 0.0000 0.0000 0.0000 10.4244 0.0000
# 6 0.0000 0.0000 0.0000 0.0000 0.0000 54.7455
#
#
#
# Elastic Compliance Matrix: (Units=1/GPa)
#
#
# Indices 1 2 3 4 5 6 
#
# 1 0.008441 -0.002508 -0.002660 0.000000 0.000000 0.000000
# 2 -0.002508 0.007483 -0.002898 0.000000 0.000000 0.000000
# 3 -0.002660 -0.002898 0.016908 0.000000 0.000000 0.000000
# 4 0.000000 0.000000 0.000000 0.509490 0.000000 0.000000
# 5 0.000000 0.000000 0.000000 0.000000 0.095929 0.000000
# 6 0.000000 0.000000 0.000000 0.000000 0.000000 0.018266
#
#
# Mechanical properties :
#
#
# Convention : Reuss Voigt Hill
#
# Bulk Modulus (GPa) = 59.88423 73.34841 66.61632
# Shear Modulus (GPa) = 7.37228 30.29709 18.83469
#
# Velocity S-wave (km/s) = 1.96035 3.97405 3.13337
# Velocity P-wave (km/s) = 6.02827 7.70013 6.91491
#
# Compressibility (1/GPa) = 0.01669889
#
# Stress axis : x y z
#
# Youngs Moduli (GPa) = 118.46503 133.64290 59.14490
#
# Poissons Ratio (x) = 0.33520 0.15731
# Poissons Ratio (y) = 0.29713 0.17143
# Poissons Ratio (z) = 0.31508 0.38736
#
# Static dielectric constant tensor:
#      x y z
#    x 1.661660 0.000000 0.000000 
#    y 0.000000 1.688070 0.000000 
#    z 0.000000 0.000000 1.639910 
# 
# From -- ./inp_files/12234.got.cif
#   From: 2010.05.17/outbox.cif.g08.bks.cpg/sg21_7_cif.got.tgz:12234.got - 2010.06.03 23:14:55.
