data_PCOD9325183
_publ_section_title
;
Structure prediction by ZEFSAII (Michael W. Deem and Ramdas Pophale) SiO2 
 PCOD9325183
Probable space group: C 2 2 2
;
_chemical_formula_sum "Si O2"
_cell_formula_units_Z 26
_cell_length_a 9.063402
_cell_length_b 9.842181
_cell_length_c 13.789034
_cell_angle_alpha 90.000000
_cell_angle_beta 90.000000
_cell_angle_gamma 90.000000
_cell_volume 1230.032066
_symmetry_space_group_name_H-M "C 2 2 2"
_symmetry_group_IT_number 21
_symmetry_cell_setting 'orthorhombic'
loop_
_space_group_symop_operation_xyz
x,y,z
-x,-y,z
x,-y,-z
-x,y,-z
1/2+x,1/2+y,z
1/2-x,1/2-y,z
1/2+x,1/2-y,-z
1/2-x,1/2+y,-z
loop_
_atom_site_type_symbol
_atom_site_label
_atom_site_fract_x
_atom_site_fract_y
_atom_site_fract_z
Si Si1 0.500000 0.500000 0.000000
Si Si2 0.000000 0.000000 0.329884
Si Si3 0.072059 0.280371 0.596997
Si Si4 0.500000 0.000000 0.763319
Si Si5 0.285279 0.591884 0.163734
O O1 0.392047 0.419678 0.928077
O O2 0.012941 0.136921 0.390098
O O3 0.866886 0.033560 0.258103
O O4 0.250000 0.250000 0.589586
O O5 0.000000 0.342010 0.500000
O O6 0.030827 0.374319 0.689638
O O7 0.360957 0.000888 0.835378
O O8 0.250000 0.750000 0.175700
#
# Coordination Sequence:
#
# PCOD9325183 Si02
#       5
#     2   4   8   4   8
#     4  10  28  46  74 102 138 178 222 298 360 428
#     4  11  21  47  69  94 146 182 225 293 341 405
#     4  12  27  44  65 106 144 186 247 283 336 404
#     4  12  23  45  72 100 144 184 234 285 347 412
#     4  11  24  48  70 107 135 176 235 283 356 427
#
# _framework density 21.13766
#
# number of rings (size 3 to 8) (size 9 to 14) (size 15 to 20)
#    0.000    0.615    6.154    0.923    4.308    5.538 
#    0.000    0.000    0.000    0.000    0.000    0.000 
#    0.000    0.000    0.000    0.000    0.000    0.000 
#
# Total GULP energy -72507.666541 kJ/mol
# GULP energy per Si atom -5577.512811 kJ/mol
# Density = 2.108955 g / cm^3
# Si number density = 21.137660 Si / 1000 Ang^3
#
#
#
# Elastic Constant Matrix: (Units=GPa)
#
#
# Indices 1 2 3 4 5 6 
#
# 1 143.9965 48.0760 52.6634 0.0000 0.0000 0.0000
# 2 48.0760 123.0994 33.5844 0.0000 0.0000 0.0000
# 3 52.6634 33.5844 103.8339 0.0000 0.0000 0.0000
# 4 0.0000 0.0000 0.0000 -0.0294 0.0000 0.0000
# 5 0.0000 0.0000 0.0000 0.0000 24.7471 0.0000
# 6 0.0000 0.0000 0.0000 0.0000 0.0000 29.0413
#
#
#
# Elastic Compliance Matrix: (Units=1/GPa)
#
#
# Indices 1 2 3 4 5 6 
#
# 1 0.009200 -0.002544 -0.003843 0.000000 0.000000 0.000000
# 2 -0.002544 0.009613 -0.001819 0.000000 0.000000 0.000000
# 3 -0.003843 -0.001819 0.012168 0.000000 0.000000 0.000000
# 4 0.000000 0.000000 0.000000-34.011876 0.000000 0.000000
# 5 0.000000 0.000000 0.000000 0.000000 0.040409 0.000000
# 6 0.000000 0.000000 0.000000 0.000000 0.000000 0.034434
#
#
# Mechanical properties :
#
#
# Convention : Reuss Voigt Hill
#
# Bulk Modulus (GPa) = 68.64042 71.06416 69.85229
# Shear Modulus (GPa) = -0.14756 26.52552 13.18898
#
# Velocity S-wave (km/s) = -0.26450 3.54629 2.50062
# Velocity P-wave (km/s) = 5.69651 7.10358 6.43860
#
# Compressibility (1/GPa) = 0.01456868
#
# Stress axis : x y z
#
# Youngs Moduli (GPa) = 108.70056 104.02073 82.18149
#
# Poissons Ratio (x) = 0.26467 0.31582
# Poissons Ratio (y) = 0.27658 0.14948
# Poissons Ratio (z) = 0.41773 0.18920
#
# Static dielectric constant tensor:
#      x y z
#    x 1.841090 0.000000 0.000000 
#    y 0.000000 1.832430 0.000000 
#    z 0.000000 0.000000 1.805220 
# 
# From -- ./inp_files/29775.got.cif
#   From: 2010.05.17/outbox.cif.g08.bks.cpg/sg21_15_cif.got.tgz:29775.got - 2010.06.03 23:14:55.
