data_PCOD9325469
_publ_section_title
;
Structure prediction by ZEFSAII (Michael W. Deem and Ramdas Pophale) SiO2 
 PCOD9325469
Probable space group: C 2 2 2
;
_chemical_formula_sum "Si O2"
_cell_formula_units_Z 32
_cell_length_a 17.165367
_cell_length_b 9.539303
_cell_length_c 8.258589
_cell_angle_alpha 90.000000
_cell_angle_beta 90.000000
_cell_angle_gamma 90.000000
_cell_volume 1352.307916
_symmetry_space_group_name_H-M "C 2 2 2"
_symmetry_group_IT_number 21
_symmetry_cell_setting 'orthorhombic'
loop_
_space_group_symop_operation_xyz
x,y,z
-x,-y,z
x,-y,-z
-x,y,-z
1/2+x,1/2+y,z
1/2-x,1/2-y,z
1/2+x,1/2-y,-z
1/2-x,1/2+y,-z
loop_
_atom_site_type_symbol
_atom_site_label
_atom_site_fract_x
_atom_site_fract_y
_atom_site_fract_z
Si Si1 0.582359 0.813924 0.103734
Si Si2 0.409604 0.046724 0.669008
Si Si3 0.835308 0.195347 0.196436
Si Si4 0.081787 0.946183 0.685750
O O1 0.615343 0.960327 0.172235
O O2 0.579622 0.716037 0.265112
O O3 0.500000 0.825811 0.000000
O O4 0.640318 0.735426 0.983916
O O5 0.500000 0.000000 0.663928
O O6 0.372779 0.000000 0.500000
O O7 0.393981 0.209832 0.694753
O O8 0.750000 0.250000 0.234300
O O9 0.849332 0.033421 0.231377
O O10 0.083452 0.000000 0.500000
O O11 0.000000 0.000000 0.758520
#
# Coordination Sequence:
#
# PCOD9325469 Si02
#       4
#     8   8   8   8
#     4  12  23  41  70 101 133 177 223 277 332 393
#     4  11  23  43  71 101 134 179 230 273 328 405
#     4  12  27  43  67 105 139 175 223 282 340 395
#     4  11  23  43  71 101 134 179 230 273 328 405
#
# _framework density 23.663249
#
# number of rings (size 3 to 8) (size 9 to 14) (size 15 to 20)
#    0.000    0.500    5.000    3.000    0.000    9.000 
#    0.000    2.500    0.000    0.000    0.000    0.000 
#    0.000    0.000    0.000    0.000    0.000    0.000 
#
# Total GULP energy -89348.609339 kJ/mol
# GULP energy per Si atom -5584.288084 kJ/mol
# Density = 2.360939 g / cm^3
# Si number density = 23.663249 Si / 1000 Ang^3
#
#
#
# Elastic Constant Matrix: (Units=GPa)
#
#
# Indices 1 2 3 4 5 6 
#
# 1 77.8060 8.2250 -7.5242 0.0000 0.0000 0.0000
# 2 8.2250 110.2103 23.0915 0.0000 0.0000 0.0000
# 3 -7.5242 23.0915 125.4187 0.0000 0.0000 0.0000
# 4 0.0000 0.0000 0.0000 38.8535 0.0000 0.0000
# 5 0.0000 0.0000 0.0000 0.0000 7.5224 0.0000
# 6 0.0000 0.0000 0.0000 0.0000 0.0000 26.7307
#
#
#
# Elastic Compliance Matrix: (Units=1/GPa)
#
#
# Indices 1 2 3 4 5 6 
#
# 1 0.013075 -0.001186 0.001003 0.000000 0.000000 0.000000
# 2 -0.001186 0.009545 -0.001829 0.000000 0.000000 0.000000
# 3 0.001003 -0.001829 0.008370 0.000000 0.000000 0.000000
# 4 0.000000 0.000000 0.000000 0.025738 0.000000 0.000000
# 5 0.000000 0.000000 0.000000 0.000000 0.132937 0.000000
# 6 0.000000 0.000000 0.000000 0.000000 0.000000 0.037410
#
#
# Mechanical properties :
#
#
# Convention : Reuss Voigt Hill
#
# Bulk Modulus (GPa) = 37.08275 40.11328 38.59802
# Shear Modulus (GPa) = 20.82578 33.93083 27.37830
#
# Velocity S-wave (km/s) = 2.96985 3.79080 3.40516
# Velocity P-wave (km/s) = 5.24071 6.01238 5.63976
#
# Compressibility (1/GPa) = 0.02696672
#
# Stress axis : x y z
#
# Youngs Moduli (GPa) = 76.48299 104.76486 119.47273
#
# Poissons Ratio (x) = 0.12424 -0.11980
# Poissons Ratio (y) = 0.09070 0.21846
# Poissons Ratio (z) = -0.07669 0.19157
#
# Static dielectric constant tensor:
#      x y z
#    x 1.925360 0.000000 0.000000 
#    y 0.000000 1.919220 0.000000 
#    z 0.000000 0.000000 1.987430 
# 
# From -- ./inp_files/17106.got.cif
#   From: 2010.05.17/outbox.cif.g08.bks.cpg/sg21_9_cif.got.tgz:17106.got - 2010.06.03 23:14:55.
