data_PCOD9325994
_publ_section_title
;
Structure prediction by ZEFSAII (Michael W. Deem and Ramdas Pophale) SiO2 
 PCOD9325994
Probable space group: F 2 2 2
;
_chemical_formula_sum "Si O2"
_cell_formula_units_Z 56
_cell_length_a 17.229711
_cell_length_b 13.259435
_cell_length_c 10.011928
_cell_angle_alpha 90.000000
_cell_angle_beta 90.000000
_cell_angle_gamma 90.000000
_cell_volume 2287.287357
_symmetry_space_group_name_H-M "F 2 2 2"
_symmetry_group_IT_number 22
_symmetry_cell_setting 'orthorhombic'
loop_
_space_group_symop_operation_xyz
x,y,z
-x,-y,z
x,-y,-z
-x,y,-z
x,1/2+y,1/2+z
-x,1/2-y,1/2+z
x,1/2-y,1/2-z
-x,1/2+y,1/2-z
1/2+x,y,1/2+z
1/2-x,-y,1/2+z
1/2+x,-y,1/2-z
1/2-x,y,1/2-z
1/2+x,1/2+y,z
1/2-x,1/2-y,z
1/2+x,1/2-y,-z
1/2-x,1/2+y,-z
loop_
_atom_site_type_symbol
_atom_site_label
_atom_site_fract_x
_atom_site_fract_y
_atom_site_fract_z
Si Si1 0.821250 0.641874 0.672597
Si Si2 0.621659 0.602444 0.432967
Si Si3 0.470472 0.860807 0.201026
Si Si4 0.750000 0.750000 0.071469
O O1 0.826491 0.750000 0.750000
O O2 0.750000 0.587562 0.750000
O O3 0.906601 0.598653 0.693702
O O4 0.795944 0.671436 0.525083
O O5 0.653722 0.500000 0.500000
O O6 0.578389 0.650346 0.562419
O O7 0.550136 0.582931 0.334159
O O8 0.684777 0.676528 0.368929
O O9 0.495043 0.750000 0.250000
#
# Coordination Sequence:
#
# PCOD9325994 Si02
#       4
#    16  16  16   8
#     4   8  12  26  53  81 100 150 200 225 277 361
#     4  11  22  34  61  94 119 155 214 260 297 368
#     4  10  17  33  58  86 119 154 199 244 303 365
#     4  10  17  36  61  82 120 162 207 246 309 366
#
# _framework density 24.483150999999999
#
# number of rings (size 3 to 8) (size 9 to 14) (size 15 to 20)
#    0.000    2.571    8.571    1.714    0.000    0.000 
#    0.000    0.714   18.857    0.000    0.000   10.000 
#    0.000    0.000    0.000    0.000    0.000    0.000 
#
# Total GULP energy -77993.058690 kJ/mol
# GULP energy per Si atom -5570.932764 kJ/mol
# Density = 2.442743 g / cm^3
# Si number density = 24.483151 Si / 1000 Ang^3
#
#
#
# Elastic Constant Matrix: (Units=GPa)
#
#
# Indices 1 2 3 4 5 6 
#
# 1 187.1864 52.7540 20.2438 0.0000 0.0000 0.0000
# 2 52.7540 87.2664 15.2106 0.0000 0.0000 0.0000
# 3 20.2438 15.2106 31.1155 0.0000 0.0000 0.0000
# 4 0.0000 0.0000 0.0000 26.6739 0.0000 0.0000
# 5 0.0000 0.0000 0.0000 0.0000 25.9193 0.0000
# 6 0.0000 0.0000 0.0000 0.0000 0.0000 15.8411
#
#
#
# Elastic Compliance Matrix: (Units=1/GPa)
#
#
# Indices 1 2 3 4 5 6 
#
# 1 0.006622 -0.003555 -0.002570 0.000000 0.000000 0.000000
# 2 -0.003555 0.014435 -0.004743 0.000000 0.000000 0.000000
# 3 -0.002570 -0.004743 0.036129 0.000000 0.000000 0.000000
# 4 0.000000 0.000000 0.000000 0.037490 0.000000 0.000000
# 5 0.000000 0.000000 0.000000 0.000000 0.038581 0.000000
# 6 0.000000 0.000000 0.000000 0.000000 0.000000 0.063127
#
#
# Mechanical properties :
#
#
# Convention : Reuss Voigt Hill
#
# Bulk Modulus (GPa) = 28.20997 53.55389 40.88193
# Shear Modulus (GPa) = 21.74487 28.17753 24.96120
#
# Velocity S-wave (km/s) = 2.98343 3.39616 3.19647
# Velocity P-wave (km/s) = 4.83891 6.10736 5.50976
#
# Compressibility (1/GPa) = 0.03544846
#
# Stress axis : x y z
#
# Youngs Moduli (GPa) = 151.00708 69.27547 27.67826
#
# Poissons Ratio (x) = 0.24629 0.07115
# Poissons Ratio (y) = 0.53686 0.13129
# Poissons Ratio (z) = 0.38816 0.32861
#
# Static dielectric constant tensor:
#      x y z
#    x 2.057080 0.000000 0.000000 
#    y 0.000000 1.991030 0.000000 
#    z 0.000000 0.000000 2.004000 
# 
# From -- ./inp_files/20783.got.cif
#   From: 2010.05.17/outbox.cif.g08.bks.cpg/sg22_11_cif.got.tgz:20783.got - 2010.06.03 23:40:54.
