data_PCOD9325707
_publ_section_title
;
Structure prediction by ZEFSAII (Michael W. Deem and Ramdas Pophale) SiO2 
 PCOD9325707
Probable space group: C 2 2 2
;
_chemical_formula_sum "Si O2"
_cell_formula_units_Z 26
_cell_length_a 6.731398
_cell_length_b 22.854049
_cell_length_c 7.349365
_cell_angle_alpha 90.000000
_cell_angle_beta 90.000000
_cell_angle_gamma 90.000000
_cell_volume 1130.624105
_symmetry_space_group_name_H-M "C 2 2 2"
_symmetry_group_IT_number 21
_symmetry_cell_setting 'orthorhombic'
loop_
_space_group_symop_operation_xyz
x,y,z
-x,-y,z
x,-y,-z
-x,y,-z
1/2+x,1/2+y,z
1/2-x,1/2-y,z
1/2+x,1/2-y,-z
1/2-x,1/2+y,-z
loop_
_atom_site_type_symbol
_atom_site_label
_atom_site_fract_x
_atom_site_fract_y
_atom_site_fract_z
Si Si1 0.205886 0.971471 0.721576
Si Si2 0.500000 0.000000 0.000000
Si Si3 0.653241 0.188345 0.172537
Si Si4 0.500000 0.107037 0.500000
Si Si5 0.500000 0.614533 0.000000
O O1 0.339371 0.016813 0.841409
O O2 0.325155 0.936909 0.566363
O O3 0.137450 0.922704 0.865868
O O4 0.000000 0.000000 0.672731
O O5 0.750000 0.250000 0.233316
O O6 0.553247 0.149923 0.332080
O O7 0.500000 0.195267 0.000000
O O8 0.845602 0.153179 0.109298
#
# Coordination Sequence:
#
# PCOD9325707 Si02
#       5
#     8   2   8   4   4
#     4  12  26  49  78 116 162 215 269 329 396 477
#     4  12  22  50  78 106 154 218 266 314 392 478
#     4  12  27  52  84 116 158 207 267 337 414 484
#     4  12  30  51  82 124 164 204 283 336 400 486
#     4  12  23  50  83 104 152 215 257 322 410 476
#
# _framework density 22.99615
#
# number of rings (size 3 to 8) (size 9 to 14) (size 15 to 20)
#    0.000    0.000    7.692    1.846    0.000    5.538 
#    5.538    0.000    0.000    0.000    0.000    0.000 
#    0.000    0.000    0.000    0.000    0.000    0.000 
#
# Total GULP energy -72530.974312 kJ/mol
# GULP energy per Si atom -5579.305716 kJ/mol
# Density = 2.294381 g / cm^3
# Si number density = 22.996150 Si / 1000 Ang^3
#
#
#
# Elastic Constant Matrix: (Units=GPa)
#
#
# Indices 1 2 3 4 5 6 
#
# 1 152.5129 51.6996 73.7547 0.0000 0.0000 0.0000
# 2 51.6996 139.2554 58.0201 0.0000 0.0000 0.0000
# 3 73.7547 58.0201 153.4974 0.0000 0.0000 0.0000
# 4 0.0000 0.0000 0.0000 30.9415 0.0000 0.0000
# 5 0.0000 0.0000 0.0000 0.0000 56.1919 0.0000
# 6 0.0000 0.0000 0.0000 0.0000 0.0000 -4.8411
#
#
#
# Elastic Compliance Matrix: (Units=1/GPa)
#
#
# Indices 1 2 3 4 5 6 
#
# 1 0.008910 -0.001809 -0.003597 0.000000 0.000000 0.000000
# 2 -0.001809 0.008891 -0.002491 0.000000 0.000000 0.000000
# 3 -0.003597 -0.002491 0.009185 0.000000 0.000000 0.000000
# 4 0.000000 0.000000 0.000000 0.032319 0.000000 0.000000
# 5 0.000000 0.000000 0.000000 0.000000 0.017796 0.000000
# 6 0.000000 0.000000 0.000000 0.000000 0.000000 -0.206566
#
#
# Mechanical properties :
#
#
# Convention : Reuss Voigt Hill
#
# Bulk Modulus (GPa) = 89.36517 90.24605 89.80561
# Shear Modulus (GPa) = -45.47937 33.91123 -5.78407
#
# Velocity S-wave (km/s) = -4.45195 3.84428 -1.58767
# Velocity P-wave (km/s) = 3.53819 7.68335 5.98133
#
# Compressibility (1/GPa) = 0.01119004
#
# Stress axis : x y z
#
# Youngs Moduli (GPa) = 112.23751 112.47762 108.87393
#
# Poissons Ratio (x) = 0.20347 0.39165
# Poissons Ratio (y) = 0.20304 0.27124
# Poissons Ratio (z) = 0.40375 0.28022
#
# Static dielectric constant tensor:
#      x y z
#    x 1.856110 0.000000 0.000000 
#    y 0.000000 1.881110 0.000000 
#    z 0.000000 0.000000 1.935690 
# 
# From -- ./inp_files/8693.got.cif
#   From: 2010.05.17/outbox.cif.g08.bks.cpg/sg21_5_cif.got.tgz:8693.got - 2010.06.03 23:14:55.
