data_PCOD9325964
_publ_section_title
;
Structure prediction by ZEFSAII (Michael W. Deem and Ramdas Pophale) SiO2 
 PCOD9325964
Probable space group: F 2 2 2
;
_chemical_formula_sum "Si O2"
_cell_formula_units_Z 104
_cell_length_a 22.483126
_cell_length_b 14.893012
_cell_length_c 12.504068
_cell_angle_alpha 90.000000
_cell_angle_beta 90.000000
_cell_angle_gamma 90.000000
_cell_volume 4186.880452
_symmetry_space_group_name_H-M "F 2 2 2"
_symmetry_group_IT_number 22
_symmetry_cell_setting 'orthorhombic'
loop_
_space_group_symop_operation_xyz
x,y,z
-x,-y,z
x,-y,-z
-x,y,-z
x,1/2+y,1/2+z
-x,1/2-y,1/2+z
x,1/2-y,1/2-z
-x,1/2+y,1/2-z
1/2+x,y,1/2+z
1/2-x,-y,1/2+z
1/2+x,-y,1/2-z
1/2-x,y,1/2-z
1/2+x,1/2+y,z
1/2-x,1/2-y,z
1/2+x,1/2-y,-z
1/2-x,1/2+y,-z
loop_
_atom_site_type_symbol
_atom_site_label
_atom_site_fract_x
_atom_site_fract_y
_atom_site_fract_z
Si Si1 0.046919 0.922513 0.207152
Si Si2 0.352570 0.299146 0.857193
Si Si3 0.250000 0.914271 0.750000
Si Si4 0.642715 0.094961 0.867698
Si Si5 0.933955 0.159010 0.812904
Si Si6 0.824875 0.800187 0.078495
Si Si7 0.437904 0.359606 0.558717
O O1 0.111812 0.891997 0.167394
O O2 0.047963 0.915729 0.335332
O O3 0.003142 0.842076 0.169508
O O4 0.000000 0.000000 0.169631
O O5 0.329432 0.250000 0.750000
O O6 0.399627 0.225106 0.901673
O O7 0.307144 0.311614 0.955566
O O8 0.300179 0.960856 0.825560
O O9 0.211470 0.854989 0.833390
O O10 0.594677 0.088634 0.770848
O O11 0.670467 0.196251 0.885483
O O12 0.604580 0.089346 0.974859
O O13 0.921731 0.250000 0.750000
O O14 0.891827 0.159308 0.914219
O O15 0.500000 0.337821 0.500000
#
# Coordination Sequence:
#
# PCOD9325964 Si02
#       7
#    16  16   8  16  16  16  16
#     4  11  22  33  47  74 113 152 189 232 274 344
#     4   9  20  33  51  75 112 155 195 221 281 361
#     4  10  17  30  52  90 118 132 182 260 309 330
#     4   9  16  27  49  80 108 135 173 233 292 331
#     4   9  16  29  49  76 103 141 178 218 277 339
#     4   9  17  28  52  76 107 139 181 240 291 336
#     4  10  18  32  54  78 107 146 186 227 284 355
#
# _framework density 24.839497000000001
#
# number of rings (size 3 to 8) (size 9 to 14) (size 15 to 20)
#    0.000    2.462    1.538    3.692    4.308    0.308 
#    0.000    1.538    0.000   15.692    0.000   17.231 
#    0.000    0.000    0.000    0.000    0.000    0.000 
#
# Total GULP energy -144825.390129 kJ/mol
# GULP energy per Si atom -5570.207313 kJ/mol
# Density = 2.478296 g / cm^3
# Si number density = 24.839497 Si / 1000 Ang^3
#
#
#
# Elastic Constant Matrix: (Units=GPa)
#
#
# Indices 1 2 3 4 5 6 
#
# 1 82.0459 -22.5810 25.0354 0.0000 0.0000 0.0000
# 2 -22.5810 35.7033 2.7253 0.0000 0.0000 0.0000
# 3 25.0354 2.7253 135.9762 0.0000 0.0000 0.0000
# 4 0.0000 0.0000 0.0000 -22.9109 0.0000 0.0000
# 5 0.0000 0.0000 0.0000 0.0000 27.3264 0.0000
# 6 0.0000 0.0000 0.0000 0.0000 0.0000 -4.0747
#
#
#
# Elastic Compliance Matrix: (Units=1/GPa)
#
#
# Indices 1 2 3 4 5 6 
#
# 1 0.016002 0.010362 -0.003154 0.000000 0.000000 0.000000
# 2 0.010362 0.034761 -0.002604 0.000000 0.000000 0.000000
# 3 -0.003154 -0.002604 0.007987 0.000000 0.000000 0.000000
# 4 0.000000 0.000000 0.000000 -0.043647 0.000000 0.000000
# 5 0.000000 0.000000 0.000000 0.000000 0.036595 0.000000
# 6 0.000000 0.000000 0.000000 0.000000 0.000000 -0.245415
#
#
# Mechanical properties :
#
#
# Convention : Reuss Voigt Hill
#
# Bulk Modulus (GPa) = 14.71519 29.34276 22.02897
# Shear Modulus (GPa) = -27.73592 16.63787 -5.54902
#
# Velocity S-wave (km/s) = -3.34519 2.59089 -1.49626
# Velocity P-wave (km/s) = 2.99724 4.55948 2.42955
#
# Compressibility (1/GPa) = 0.06795697
#
# Stress axis : x y z
#
# Youngs Moduli (GPa) = 62.49035 28.76803 125.20155
#
# Poissons Ratio (x) = -0.29809 0.39488
# Poissons Ratio (y) = -0.64751 0.32608
# Poissons Ratio (z) = 0.19709 0.07492
#
# Static dielectric constant tensor:
#      x y z
#    x 2.111520 0.000000 0.000000 
#    y 0.000000 2.237080 0.000000 
#    z 0.000000 0.000000 1.999710 
# 
# From -- ./inp_files/24683.got.cif
#   From: 2010.05.17/outbox.cif.g08.bks.cpg/sg22_13_cif.got.tgz:24683.got - 2010.06.03 23:40:54.
