data_PCOD9325796
_publ_section_title
;
Structure prediction by ZEFSAII (Michael W. Deem and Ramdas Pophale) SiO2 
 PCOD9325796
Probable space group: C 2 2 2
;
_chemical_formula_sum "Si O2"
_cell_formula_units_Z 24
_cell_length_a 8.667672
_cell_length_b 5.003692
_cell_length_c 22.687181
_cell_angle_alpha 90.000000
_cell_angle_beta 90.000000
_cell_angle_gamma 90.000000
_cell_volume 983.951231
_symmetry_space_group_name_H-M "C 2 2 2"
_symmetry_group_IT_number 21
_symmetry_cell_setting 'orthorhombic'
loop_
_space_group_symop_operation_xyz
x,y,z
-x,-y,z
x,-y,-z
-x,y,-z
1/2+x,1/2+y,z
1/2-x,1/2-y,z
1/2+x,1/2-y,-z
1/2-x,1/2+y,-z
loop_
_atom_site_type_symbol
_atom_site_label
_atom_site_fract_x
_atom_site_fract_y
_atom_site_fract_z
Si Si1 0.750000 0.250000 0.584062
Si Si2 0.500000 0.500000 0.837946
Si Si3 0.000000 0.500000 0.500000
Si Si4 0.500000 0.000000 0.751968
Si Si5 0.500000 0.000000 0.000000
Si Si6 0.250000 0.250000 0.085984
Si Si7 0.750000 0.750000 0.665002
O O1 0.890704 0.331087 0.542503
O O2 0.700056 0.504812 0.623277
O O3 0.477822 0.753379 0.795837
O O4 0.341779 0.524235 0.876110
O O5 0.630711 0.895247 0.708121
O O6 0.386212 0.847447 0.956194
#
# Coordination Sequence:
#
# PCOD9325796 Si02
#       7
#     4   4   2   4   2   4   4
#     4  12  29  51  80 114 156 203 257 318 384 458
#     4  12  26  47  78 112 154 201 254 316 382 456
#     4  12  30  52  80 116 156 204 258 318 384 458
#     4  12  26  48  76 112 152 200 254 314 380 454
#     4  12  26  48  76 112 152 200 254 314 380 454
#     4  12  26  47  77 112 153 201 254 316 382 456
#     4  12  27  48  77 112 153 202 255 316 382 456
#
# _framework density 24.391455000000001
#
# number of rings (size 3 to 8) (size 9 to 14) (size 15 to 20)
#    0.000    0.000    0.000    9.000    0.000   14.000 
#    0.000    0.000    0.000    0.000    0.000    0.000 
#    0.000    0.000    0.000    0.000    0.000    0.000 
#
# Total GULP energy -67228.406442 kJ/mol
# GULP energy per Si atom -5602.367203 kJ/mol
# Density = 2.433594 g / cm^3
# Si number density = 24.391455 Si / 1000 Ang^3
#
#
#
# Elastic Constant Matrix: (Units=GPa)
#
#
# Indices 1 2 3 4 5 6 
#
# 1 213.9173 94.8519 114.5793 0.0000 0.0000 0.0000
# 2 94.8519 205.6686 113.8297 0.0000 0.0000 0.0000
# 3 114.5793 113.8297 187.9390 0.0000 0.0000 0.0000
# 4 0.0000 0.0000 0.0000 71.1237 0.0000 0.0000
# 5 0.0000 0.0000 0.0000 0.0000 45.5822 0.0000
# 6 0.0000 0.0000 0.0000 0.0000 0.0000 61.5431
#
#
#
# Elastic Compliance Matrix: (Units=1/GPa)
#
#
# Indices 1 2 3 4 5 6 
#
# 1 0.007178 -0.001336 -0.003567 0.000000 0.000000 0.000000
# 2 -0.001336 0.007563 -0.003766 0.000000 0.000000 0.000000
# 3 -0.003567 -0.003766 0.009776 0.000000 0.000000 0.000000
# 4 0.000000 0.000000 0.000000 0.014060 0.000000 0.000000
# 5 0.000000 0.000000 0.000000 0.000000 0.021938 0.000000
# 6 0.000000 0.000000 0.000000 0.000000 0.000000 0.016249
#
#
# Mechanical properties :
#
#
# Convention : Reuss Voigt Hill
#
# Bulk Modulus (GPa) = 139.29380 139.33851 139.31616
# Shear Modulus (GPa) = 51.81675 54.60076 53.20876
#
# Velocity S-wave (km/s) = 4.61410 4.73643 4.67567
# Velocity P-wave (km/s) = 9.25301 9.33604 9.29462
#
# Compressibility (1/GPa) = 0.00717907
#
# Stress axis : x y z
#
# Youngs Moduli (GPa) = 139.32386 132.22752 102.28972
#
# Poissons Ratio (x) = 0.17669 0.36482
# Poissons Ratio (y) = 0.18617 0.38521
# Poissons Ratio (z) = 0.49690 0.49795
#
# Static dielectric constant tensor:
#      x y z
#    x 1.892650 0.000000 0.000000 
#    y 0.000000 1.911900 0.000000 
#    z 0.000000 0.000000 1.953540 
# 
# From -- ./inp_files/38017.got.cif
#   From: 2010.05.17/outbox.cif.g08.bks.cpg/sg21_20_cif.got.tgz:38017.got - 2010.06.03 23:14:55.
