data_PCOD9325355
_publ_section_title
;
Structure prediction by ZEFSAII (Michael W. Deem and Ramdas Pophale) SiO2 
 PCOD9325355
Probable space group: C 2 2 2
;
_chemical_formula_sum "Si O2"
_cell_formula_units_Z 64
_cell_length_a 25.990569
_cell_length_b 9.973913
_cell_length_c 12.565805
_cell_angle_alpha 90.000000
_cell_angle_beta 90.000000
_cell_angle_gamma 90.000000
_cell_volume 3257.404402
_symmetry_space_group_name_H-M "C 2 2 2"
_symmetry_group_IT_number 21
_symmetry_cell_setting 'orthorhombic'
loop_
_space_group_symop_operation_xyz
x,y,z
-x,-y,z
x,-y,-z
-x,y,-z
1/2+x,1/2+y,z
1/2-x,1/2-y,z
1/2+x,1/2-y,-z
1/2-x,1/2+y,-z
loop_
_atom_site_type_symbol
_atom_site_label
_atom_site_fract_x
_atom_site_fract_y
_atom_site_fract_z
Si Si1 0.005972 0.338796 0.372374
Si Si2 0.561682 0.845682 0.991808
Si Si3 0.257955 0.407395 0.406245
Si Si4 0.168743 0.502510 0.729768
Si Si5 0.839626 0.990905 0.764465
Si Si6 0.406847 0.231996 0.753363
Si Si7 0.751612 0.594524 0.905069
Si Si8 0.099020 0.745894 0.781370
O O1 0.960017 0.263419 0.310611
O O2 0.000000 0.500000 0.355564
O O3 0.000000 0.315156 0.500000
O O4 0.058192 0.292478 0.311693
O O5 0.580990 0.783910 0.880044
O O6 0.500000 0.847181 0.000000
O O7 0.578665 0.775504 0.099752
O O8 0.580073 0.000000 0.000000
O O9 0.278037 0.500000 0.500000
O O10 0.250000 0.250000 0.428298
O O11 0.202871 0.466910 0.372483
O O12 0.201823 0.062139 0.312647
O O13 0.121403 0.403272 0.715503
O O14 0.207277 0.429418 0.811631
O O15 0.146988 0.644022 0.769737
O O16 0.883034 0.101883 0.776820
O O17 0.868343 0.854664 0.730533
O O18 0.804663 0.951509 0.865504
O O19 0.750000 0.750000 0.934675
O O20 0.768232 0.500000 0.000000
#
# Coordination Sequence:
#
# PCOD9325355 Si02
#       8
#     8   8   8   8   8   8   8   8
#     4  11  24  44  71 102 134 174 231 284 331 406
#     4  11  22  39  69  97 133 177 231 284 327 397
#     4  11  26  46  70 100 133 176 229 289 342 401
#     4  11  24  41  68  93 132 174 227 272 333 406
#     4  11  28  45  65  98 142 174 221 281 340 409
#     4  12  24  44  67 103 135 181 227 277 343 403
#     4  11  26  42  62  98 137 177 224 275 332 401
#     4  12  24  44  68  99 137 180 226 275 342 408
#
# _framework density 19.647544
#
# number of rings (size 3 to 8) (size 9 to 14) (size 15 to 20)
#    0.000    0.750    6.250    0.000    7.000    2.500 
#    0.000    1.250    0.000    0.000    0.000    0.000 
#    0.000    0.000    0.000    0.000    0.000    0.000 
#
# Total GULP energy -178659.917050 kJ/mol
# GULP energy per Si atom -5583.122408 kJ/mol
# Density = 1.960283 g / cm^3
# Si number density = 19.647544 Si / 1000 Ang^3
#
#
#
# Elastic Constant Matrix: (Units=GPa)
#
#
# Indices 1 2 3 4 5 6 
#
# 1 59.7488 4.7527 16.3220 0.0000 0.0000 0.0000
# 2 4.7527 106.7431 29.1476 0.0000 0.0000 0.0000
# 3 16.3220 29.1476 85.1947 0.0000 0.0000 0.0000
# 4 0.0000 0.0000 0.0000 9.2622 0.0000 0.0000
# 5 0.0000 0.0000 0.0000 0.0000 2.3109 0.0000
# 6 0.0000 0.0000 0.0000 0.0000 0.0000 -44.9290
#
#
#
# Elastic Compliance Matrix: (Units=1/GPa)
#
#
# Indices 1 2 3 4 5 6 
#
# 1 0.017663 0.000152 -0.003436 0.000000 0.000000 0.000000
# 2 0.000152 0.010335 -0.003565 0.000000 0.000000 0.000000
# 3 -0.003436 -0.003565 0.013616 0.000000 0.000000 0.000000
# 4 0.000000 0.000000 0.000000 0.107965 0.000000 0.000000
# 5 0.000000 0.000000 0.000000 0.000000 0.432724 0.000000
# 6 0.000000 0.000000 0.000000 0.000000 0.000000 -0.022257
#
#
# Mechanical properties :
#
#
# Convention : Reuss Voigt Hill
#
# Bulk Modulus (GPa) = 35.82208 39.12571 37.47389
# Shear Modulus (GPa) = 8.57561 6.75979 7.66770
#
# Velocity S-wave (km/s) = 2.09146 1.85688 1.97765
# Velocity P-wave (km/s) = 4.90960 4.95523 4.93247
#
# Compressibility (1/GPa) = 0.02791574
#
# Stress axis : x y z
#
# Youngs Moduli (GPa) = 56.61465 96.75865 73.44420
#
# Poissons Ratio (x) = -0.01469 0.25235
# Poissons Ratio (y) = -0.00859 0.26183
# Poissons Ratio (z) = 0.19452 0.34494
#
# Static dielectric constant tensor:
#      x y z
#    x 1.767920 0.000000 0.000000 
#    y 0.000000 1.812650 0.000000 
#    z 0.000000 0.000000 1.736560 
# 
# From -- ./inp_files/28093.got.cif
#   From: 2010.05.17/outbox.cif.g08.bks.cpg/sg21_15_cif.got.tgz:28093.got - 2010.06.03 23:14:55.
