data_PCOD9325962
_publ_section_title
;
Structure prediction by ZEFSAII (Michael W. Deem and Ramdas Pophale) SiO2 
 PCOD9325962
Probable space group: F 2 2 2
;
_chemical_formula_sum "Si O2"
_cell_formula_units_Z 100
_cell_length_a 21.788421
_cell_length_b 7.350194
_cell_length_c 26.045393
_cell_angle_alpha 90.000000
_cell_angle_beta 90.000000
_cell_angle_gamma 90.000000
_cell_volume 4171.146803
_symmetry_space_group_name_H-M "F 2 2 2"
_symmetry_group_IT_number 22
_symmetry_cell_setting 'orthorhombic'
loop_
_space_group_symop_operation_xyz
x,y,z
-x,-y,z
x,-y,-z
-x,y,-z
x,1/2+y,1/2+z
-x,1/2-y,1/2+z
x,1/2-y,1/2-z
-x,1/2+y,1/2-z
1/2+x,y,1/2+z
1/2-x,-y,1/2+z
1/2+x,-y,1/2-z
1/2-x,y,1/2-z
1/2+x,1/2+y,z
1/2-x,1/2-y,z
1/2+x,1/2-y,-z
1/2-x,1/2+y,-z
loop_
_atom_site_type_symbol
_atom_site_label
_atom_site_fract_x
_atom_site_fract_y
_atom_site_fract_z
Si Si1 0.009396 0.719374 0.403820
Si Si2 0.875548 0.289706 0.565620
Si Si3 0.407377 0.742393 0.310381
Si Si4 0.795928 0.101033 0.359197
Si Si5 0.250000 0.750000 0.750000
Si Si6 0.364851 0.771839 0.454288
Si Si7 0.321410 0.584166 0.840613
O O1 0.033595 0.779381 0.347440
O O2 0.064667 0.773269 0.441304
O O3 0.000000 0.500000 0.401237
O O4 0.945012 0.777969 0.427421
O O5 0.849040 0.218185 0.512312
O O6 0.866447 0.509054 0.556344
O O7 0.849937 0.263144 0.622651
O O8 0.420950 0.750000 0.250000
O O9 0.355043 0.591215 0.322517
O O10 0.372493 0.927141 0.330747
O O11 0.750000 0.250000 0.332803
O O12 0.822123 0.176717 0.412616
O O13 0.742376 0.960037 0.369703
O O14 0.295071 0.637764 0.785946
#
# Coordination Sequence:
#
# PCOD9325962 Si02
#       7
#    16  16  16  16   4  16  16
#     4   9  15  30  47  78 118 137 173 222 279 340
#     4  10  17  30  52  82 118 145 169 224 286 348
#     4  10  18  31  55  81 102 142 194 247 278 312
#     4   9  16  32  53  80 106 136 183 237 272 328
#     4  12  28  40  50  72 104 168 196 234 300 340
#     4   9  16  28  53  85 110 140 177 223 282 332
#     4  11  21  39  53  73 113 147 195 237 282 351
#
# _framework density 23.974221
#
# number of rings (size 3 to 8) (size 9 to 14) (size 15 to 20)
#    0.000    2.240    6.400    1.440    0.000    4.160 
#    2.880    0.000    0.000    0.000    0.000    0.000 
#    0.000    7.680    0.000    0.000    0.000    0.000 
#
# Total GULP energy -139339.963447 kJ/mol
# GULP energy per Si atom -5573.598538 kJ/mol
# Density = 2.391965 g / cm^3
# Si number density = 23.974221 Si / 1000 Ang^3
#
#
#
# Elastic Constant Matrix: (Units=GPa)
#
#
# Indices 1 2 3 4 5 6 
#
# 1 58.9733 14.5690 19.9835 0.0000 -0.0001 -0.0002
# 2 14.5690 48.1952 11.2693 0.0000 -0.0001 -0.0004
# 3 19.9835 11.2693 170.2906 0.0000 0.0000 0.0000
# 4 0.0000 0.0000 0.0000 23.1598 0.0000 0.0000
# 5 -0.0001 -0.0001 0.0000 0.0000 24.8244 0.0001
# 6 -0.0002 -0.0004 0.0000 0.0000 0.0001 8.1032
#
#
#
# Elastic Compliance Matrix: (Units=1/GPa)
#
#
# Indices 1 2 3 4 5 6 
#
# 1 0.018893 -0.005274 -0.001868 0.000000 0.000000 0.000000
# 2 -0.005274 0.022547 -0.000873 0.000000 0.000000 0.000001
# 3 -0.001868 -0.000873 0.006149 0.000000 0.000000 0.000000
# 4 0.000000 0.000000 0.000000 0.043178 0.000000 0.000000
# 5 0.000000 0.000000 0.000000 0.000000 0.040283 0.000000
# 6 0.000000 0.000001 0.000000 0.000000 0.000000 0.123408
#
#
# Mechanical properties :
#
#
# Convention : Reuss Voigt Hill
#
# Bulk Modulus (GPa) = 31.68716 41.01143 36.34929
# Shear Modulus (GPa) = 17.79301 26.65999 22.22650
#
# Velocity S-wave (km/s) = 2.72724 3.33832 3.04813
# Velocity P-wave (km/s) = 4.81279 5.65710 5.25194
#
# Compressibility (1/GPa) = 0.03155852
#
# Stress axis : x y z
#
# Youngs Moduli (GPa) = 52.93022 44.35082 162.61991
#
# Poissons Ratio (x) = 0.23392 0.30378
# Poissons Ratio (y) = 0.27917 0.14200
# Poissons Ratio (z) = 0.09887 0.03873
#
# Static dielectric constant tensor:
#      x y z
#    x 1.921920 0.000000 0.000000 
#    y 0.000000 2.271360 0.000000 
#    z 0.000000 0.000000 1.965780 
# 
# From -- ./inp_files/53944.got.cif
#   From: 2010.05.17/outbox.cif.g08.bks.cpg/sg22_27_cif.got.tgz:53944.got - 2010.06.03 23:40:54.
