data_PCOD9325246
_publ_section_title
;
Structure prediction by ZEFSAII (Michael W. Deem and Ramdas Pophale) SiO2 
 PCOD9325246
Probable space group: C 2 2 2
;
_chemical_formula_sum "Si O2"
_cell_formula_units_Z 32
_cell_length_a 14.038825
_cell_length_b 8.644600
_cell_length_c 10.500347
_cell_angle_alpha 90.000000
_cell_angle_beta 90.000000
_cell_angle_gamma 90.000000
_cell_volume 1274.322391
_symmetry_space_group_name_H-M "C 2 2 2"
_symmetry_group_IT_number 21
_symmetry_cell_setting 'orthorhombic'
loop_
_space_group_symop_operation_xyz
x,y,z
-x,-y,z
x,-y,-z
-x,y,-z
1/2+x,1/2+y,z
1/2-x,1/2-y,z
1/2+x,1/2-y,-z
1/2-x,1/2+y,-z
loop_
_atom_site_type_symbol
_atom_site_label
_atom_site_fract_x
_atom_site_fract_y
_atom_site_fract_z
Si Si1 0.905444 0.900451 0.311413
Si Si2 0.434278 0.123901 0.126271
Si Si3 0.852761 0.680202 0.530354
Si Si4 0.276150 0.906768 0.209414
O O1 0.914539 0.781547 0.195737
O O2 0.909539 0.795529 0.439152
O O3 0.810267 0.003458 0.283333
O O4 0.000000 0.000000 0.311937
O O5 0.500000 0.000000 0.201094
O O6 0.334204 0.032432 0.129934
O O7 0.500000 0.151114 0.000000
O O8 0.868594 0.500000 0.500000
O O9 0.750000 0.750000 0.493032
O O10 0.844618 0.671374 0.682648
O O11 0.250000 0.750000 0.132618
#
# Coordination Sequence:
#
# PCOD9325246 Si02
#       4
#     8   8   8   8
#     4  12  25  47  78 120 162 207 268 326 392 488
#     4  11  25  49  75 110 152 203 269 337 395 459
#     4  11  20  42  76 112 159 208 252 311 397 482
#     4  11  24  47  81 115 161 210 257 328 406 478
#
# _framework density 25.111384999999999
#
# number of rings (size 3 to 8) (size 9 to 14) (size 15 to 20)
#    0.000    0.750    5.000    2.250    0.000    0.500 
#    0.000   46.250    0.000    0.000    0.000    0.000 
#    0.000    0.000    0.000    0.000    0.000    0.000 
#
# Total GULP energy -89202.910193 kJ/mol
# GULP energy per Si atom -5575.181887 kJ/mol
# Density = 2.505423 g / cm^3
# Si number density = 25.111385 Si / 1000 Ang^3
#
#
#
# Elastic Constant Matrix: (Units=GPa)
#
#
# Indices 1 2 3 4 5 6 
#
# 1 139.2751 90.4085 85.0160 0.0000 0.0000 0.0000
# 2 90.4085 233.0708 85.9918 0.0000 0.0000 0.0000
# 3 85.0160 85.9918 111.3504 0.0000 0.0000 0.0000
# 4 0.0000 0.0000 0.0000 100.7997 0.0000 0.0000
# 5 0.0000 0.0000 0.0000 0.0000 26.6254 0.0000
# 6 0.0000 0.0000 0.0000 0.0000 0.0000 43.7715
#
#
#
# Elastic Compliance Matrix: (Units=1/GPa)
#
#
# Indices 1 2 3 4 5 6 
#
# 1 0.014147 -0.002101 -0.009178 0.000000 0.000000 0.000000
# 2 -0.002101 0.006312 -0.003270 0.000000 0.000000 0.000000
# 3 -0.009178 -0.003270 0.018514 0.000000 0.000000 0.000000
# 4 0.000000 0.000000 0.000000 0.009921 0.000000 0.000000
# 5 0.000000 0.000000 0.000000 0.000000 0.037558 0.000000
# 6 0.000000 0.000000 0.000000 0.000000 0.000000 0.022846
#
#
# Mechanical properties :
#
#
# Convention : Reuss Voigt Hill
#
# Bulk Modulus (GPa) = 101.28680 111.83654 106.56167
# Shear Modulus (GPa) = 35.28880 49.05799 42.17340
#
# Velocity S-wave (km/s) = 3.75279 4.42477 4.10256
# Velocity P-wave (km/s) = 7.69418 8.41057 8.06034
#
# Compressibility (1/GPa) = 0.00987295
#
# Stress axis : x y z
#
# Youngs Moduli (GPa) = 70.68881 158.42270 54.01339
#
# Poissons Ratio (x) = 0.33287 0.49575
# Poissons Ratio (y) = 0.14853 0.17665
# Poissons Ratio (z) = 0.64880 0.51812
#
# Static dielectric constant tensor:
#      x y z
#    x 2.015260 0.000000 0.000000 
#    y 0.000000 2.016670 0.000000 
#    z 0.000000 0.000000 2.081940 
# 
# From -- ./inp_files/24784.got.cif
#   From: 2010.05.17/outbox.cif.g08.bks.cpg/sg21_13_cif.got.tgz:24784.got - 2010.06.03 23:14:55.
