data_PCOD9325672
_publ_section_title
;
Structure prediction by ZEFSAII (Michael W. Deem and Ramdas Pophale) SiO2 
 PCOD9325672
Probable space group: C 2 2 2
;
_chemical_formula_sum "Si O2"
_cell_formula_units_Z 54
_cell_length_a 14.438228
_cell_length_b 13.237956
_cell_length_c 14.257443
_cell_angle_alpha 90.000000
_cell_angle_beta 90.000000
_cell_angle_gamma 90.000000
_cell_volume 2725.062535
_symmetry_space_group_name_H-M "C 2 2 2"
_symmetry_group_IT_number 21
_symmetry_cell_setting 'orthorhombic'
loop_
_space_group_symop_operation_xyz
x,y,z
-x,-y,z
x,-y,-z
-x,y,-z
1/2+x,1/2+y,z
1/2-x,1/2-y,z
1/2+x,1/2-y,-z
1/2-x,1/2+y,-z
loop_
_atom_site_type_symbol
_atom_site_label
_atom_site_fract_x
_atom_site_fract_y
_atom_site_fract_z
Si Si1 0.210156 0.560175 0.272673
Si Si2 0.250000 0.250000 0.421356
Si Si3 0.158875 0.994282 0.898261
Si Si4 0.997273 0.158803 0.898966
Si Si5 0.651918 0.405806 0.437561
Si Si6 0.403685 0.113871 0.341791
Si Si7 0.000000 0.500000 0.500000
Si Si8 0.922167 0.254664 0.287631
O O1 0.277054 0.533298 0.185914
O O2 0.268921 0.549510 0.368788
O O3 0.128594 0.477351 0.275647
O O4 0.167342 0.672977 0.274435
O O5 0.304770 0.327107 0.488767
O O6 0.320548 0.190427 0.356034
O O7 0.072701 0.070044 0.911238
O O8 0.104969 0.888244 0.879628
O O9 0.207963 0.000000 0.000000
O O10 0.039730 0.215124 0.810870
O O11 0.000000 0.213682 0.000000
O O12 0.612944 0.500000 0.500000
O O13 0.592858 0.336149 0.363581
O O14 0.496445 0.171935 0.318514
O O15 0.430336 0.065985 0.440337
#
# Coordination Sequence:
#
# PCOD9325672 Si02
#       8
#     8   4   8   8   8   8   2   8
#     4  12  22  43  69  96 130 178 224 275 330 414
#     4  12  24  42  60  92 130 172 224 274 316 384
#     4   9  20  41  68  95 128 173 219 278 346 403
#     4   9  20  41  68  96 132 172 218 280 350 412
#     4  12  24  42  68  98 135 176 227 279 326 388
#     4  12  26  41  66  91 129 178 223 274 333 399
#     4  12  20  48  64  80 120 186 220 240 336 420
#     4  12  24  43  68  98 134 176 226 274 346 406
#
# _framework density 19.816058999999999
#
# number of rings (size 3 to 8) (size 9 to 14) (size 15 to 20)
#    0.000    0.889    5.926    2.667    2.074    0.000 
#    2.667    2.222    0.000    0.000    0.000    0.000 
#    0.000    0.000    0.000    0.000    0.000    0.000 
#
# Total GULP energy -150554.340998 kJ/mol
# GULP energy per Si atom -5576.086704 kJ/mol
# Density = 1.977096 g / cm^3
# Si number density = 19.816059 Si / 1000 Ang^3
#
#
#
# Elastic Constant Matrix: (Units=GPa)
#
#
# Indices 1 2 3 4 5 6 
#
# 1 82.5020 48.9435 37.1026 0.0000 0.0000 0.0000
# 2 48.9435 100.4206 59.4159 0.0000 0.0000 0.0000
# 3 37.1026 59.4159 111.7971 0.0000 0.0000 0.0000
# 4 0.0000 0.0000 0.0000 413.3789 0.0000 0.0000
# 5 0.0000 0.0000 0.0000 0.0000 40.7612 0.0000
# 6 0.0000 0.0000 0.0000 0.0000 0.0000 38.6275
#
#
#
# Elastic Compliance Matrix: (Units=1/GPa)
#
#
# Indices 1 2 3 4 5 6 
#
# 1 0.017306 -0.007347 -0.001839 0.000000 0.000000 0.000000
# 2 -0.007347 0.017645 -0.006939 0.000000 0.000000 0.000000
# 3 -0.001839 -0.006939 0.013243 0.000000 0.000000 0.000000
# 4 0.000000 0.000000 0.000000 0.002419 0.000000 0.000000
# 5 0.000000 0.000000 0.000000 0.000000 0.024533 0.000000
# 6 0.000000 0.000000 0.000000 0.000000 0.000000 0.025888
#
#
# Mechanical properties :
#
#
# Convention : Reuss Voigt Hill
#
# Bulk Modulus (GPa) = 62.71969 65.07154 63.89561
# Shear Modulus (GPa) = 36.07530 108.50403 72.28967
#
# Velocity S-wave (km/s) = 4.27137 7.40773 6.04645
# Velocity P-wave (km/s) = 7.48637 10.29927 9.00336
#
# Compressibility (1/GPa) = 0.01594396
#
# Stress axis : x y z
#
# Youngs Moduli (GPa) = 57.78226 56.67475 75.51148
#
# Poissons Ratio (x) = 0.41638 0.13887
# Poissons Ratio (y) = 0.42451 0.52399
# Poissons Ratio (z) = 0.10626 0.39328
#
# Static dielectric constant tensor:
#      x y z
#    x 0.763460 0.000000 0.000000 
#    y 0.000000 1.680380 0.000000 
#    z 0.000000 0.000000 1.727960 
# 
# From -- ./inp_files/32351.got.cif
#   From: 2010.05.17/outbox.cif.g08.bks.cpg/sg21_17_cif.got.tgz:32351.got - 2010.06.03 23:14:55.
