data_PCOD9325825
_publ_section_title
;
Structure prediction by ZEFSAII (Michael W. Deem and Ramdas Pophale) SiO2 
 PCOD9325825
Probable space group: C 2 2 2
;
_chemical_formula_sum "Si O2"
_cell_formula_units_Z 18
_cell_length_a 19.232071
_cell_length_b 7.712512
_cell_length_c 5.202090
_cell_angle_alpha 90.000000
_cell_angle_beta 90.000000
_cell_angle_gamma 90.000000
_cell_volume 771.613412
_symmetry_space_group_name_H-M "C 2 2 2"
_symmetry_group_IT_number 21
_symmetry_cell_setting 'orthorhombic'
loop_
_space_group_symop_operation_xyz
x,y,z
-x,-y,z
x,-y,-z
-x,y,-z
1/2+x,1/2+y,z
1/2-x,1/2-y,z
1/2+x,1/2-y,-z
1/2-x,1/2+y,-z
loop_
_atom_site_type_symbol
_atom_site_label
_atom_site_fract_x
_atom_site_fract_y
_atom_site_fract_z
Si Si1 0.173307 0.000000 0.500000
Si Si2 0.873255 0.652416 0.290700
Si Si3 0.250000 0.250000 0.898107
Si Si4 0.000000 0.500000 0.000000
O O1 0.373441 0.340959 0.413930
O O2 0.219999 0.096040 0.717284
O O3 0.859557 0.500000 0.500000
O O4 0.812687 0.680494 0.077067
O O5 0.947104 0.611466 0.167901
#
# Coordination Sequence:
#
# PCOD9325825 Si02
#       4
#     4   8   4   2
#     4  12  30  48  85 127 172 216 286 352 418 501
#     4  12  30  54  84 124 174 225 279 350 424 505
#     4  12  30  52  84 132 170 218 286 352 420 502
#     4  12  30  56  82 118 180 230 276 340 432 508
#
# _framework density 23.327746000000001
#
# number of rings (size 3 to 8) (size 9 to 14) (size 15 to 20)
#    0.000    0.000    0.000    6.000   31.111    0.000 
#    0.000   31.111    0.000    0.000    0.000    0.000 
#    0.000    0.000    0.000    0.000    0.000    0.000 
#
# Total GULP energy -50408.318108 kJ/mol
# GULP energy per Si atom -5600.924234 kJ/mol
# Density = 2.327465 g / cm^3
# Si number density = 23.327746 Si / 1000 Ang^3
#
#
#
# Elastic Constant Matrix: (Units=GPa)
#
#
# Indices 1 2 3 4 5 6 
#
# 1 233.1557 111.4263 113.2596 0.0000 0.0000 0.0000
# 2 111.4263 279.4087 119.3161 0.0000 0.0000 0.0000
# 3 113.2596 119.3161 165.1901 0.0000 0.0000 0.0000
# 4 0.0000 0.0000 0.0000 58.0970 0.0000 0.0000
# 5 0.0000 0.0000 0.0000 0.0000 53.3173 0.0000
# 6 0.0000 0.0000 0.0000 0.0000 0.0000 50.9025
#
#
#
# Elastic Compliance Matrix: (Units=1/GPa)
#
#
# Indices 1 2 3 4 5 6 
#
# 1 0.006624 -0.001015 -0.003808 0.000000 0.000000 0.000000
# 2 -0.001015 0.005331 -0.003154 0.000000 0.000000 0.000000
# 3 -0.003808 -0.003154 0.010943 0.000000 0.000000 0.000000
# 4 0.000000 0.000000 0.000000 0.017213 0.000000 0.000000
# 5 0.000000 0.000000 0.000000 0.000000 0.018756 0.000000
# 6 0.000000 0.000000 0.000000 0.000000 0.000000 0.019645
#
#
# Mechanical properties :
#
#
# Convention : Reuss Voigt Hill
#
# Bulk Modulus (GPa) = 144.04843 151.75095 147.89969
# Shear Modulus (GPa) = 51.66249 54.71352 53.18800
#
# Velocity S-wave (km/s) = 4.71110 4.84821 4.78015
# Velocity P-wave (km/s) = 9.56433 9.82513 9.69561
#
# Compressibility (1/GPa) = 0.00694211
#
# Stress axis : x y z
#
# Youngs Moduli (GPa) = 150.96099 187.58543 91.38186
#
# Poissons Ratio (x) = 0.19048 0.34801
# Poissons Ratio (y) = 0.15329 0.28824
# Poissons Ratio (z) = 0.57491 0.59170
#
# Static dielectric constant tensor:
#      x y z
#    x 1.803490 0.000000 0.000000 
#    y 0.000000 1.881070 0.000000 
#    z 0.000000 0.000000 2.044610 
# 
# From -- ./inp_files/1773.got.cif
#   From: 2010.05.17/outbox.cif.g08.bks.cpg/sg21_1_cif.got.tgz:1773.got - 2010.06.03 23:14:55.
