data_PCOD9325507
_publ_section_title
;
Structure prediction by ZEFSAII (Michael W. Deem and Ramdas Pophale) SiO2 
 PCOD9325507
Probable space group: C 2 2 2
;
_chemical_formula_sum "Si O2"
_cell_formula_units_Z 42
_cell_length_a 8.341944
_cell_length_b 15.487739
_cell_length_c 14.765237
_cell_angle_alpha 90.000000
_cell_angle_beta 90.000000
_cell_angle_gamma 90.000000
_cell_volume 1907.636896
_symmetry_space_group_name_H-M "C 2 2 2"
_symmetry_group_IT_number 21
_symmetry_cell_setting 'orthorhombic'
loop_
_space_group_symop_operation_xyz
x,y,z
-x,-y,z
x,-y,-z
-x,y,-z
1/2+x,1/2+y,z
1/2-x,1/2-y,z
1/2+x,1/2-y,-z
1/2-x,1/2+y,-z
loop_
_atom_site_type_symbol
_atom_site_label
_atom_site_fract_x
_atom_site_fract_y
_atom_site_fract_z
Si Si1 0.500000 0.000000 0.000000
Si Si2 0.438855 0.269932 0.596367
Si Si3 0.880147 0.370823 0.146199
Si Si4 0.550245 0.910981 0.334138
Si Si5 0.911437 0.908256 0.268097
Si Si6 0.519931 0.316403 0.105948
O O1 0.400359 0.059738 0.932471
O O2 0.500000 0.304185 0.500000
O O3 0.250000 0.250000 0.597789
O O4 0.523318 0.177891 0.613366
O O5 0.490400 0.337870 0.673114
O O6 0.694494 0.344538 0.142884
O O7 0.985195 0.286112 0.122670
O O8 0.940866 0.403740 0.243143
O O9 0.735397 0.917145 0.308237
O O10 0.500000 0.000000 0.381660
O O11 0.897302 0.869283 0.167194
O O12 0.000000 0.000000 0.266909
O O13 0.500000 0.333424 0.000000
#
# Coordination Sequence:
#
# PCOD9325507 Si02
#       6
#     2   8   8   8   8   8
#     4  12  24  40  66  96 128 184 254 280 344 400
#     4  12  26  49  78 107 141 179 230 289 358 428
#     4  11  24  40  65  97 136 183 232 289 347 402
#     4  12  25  45  72 103 144 186 234 289 355 418
#     4  12  27  45  71 105 142 188 237 291 352 418
#     4  11  25  42  65  97 142 185 235 286 350 409
#
# _framework density 22.016770000000001
#
# number of rings (size 3 to 8) (size 9 to 14) (size 15 to 20)
#    0.000    0.381    3.810    5.143    2.667    1.143 
#    0.000    3.810    0.000    0.000    0.000    0.000 
#    0.000    0.000    0.000    0.000    0.000    0.000 
#
# Total GULP energy -117631.821350 kJ/mol
# GULP energy per Si atom -5601.515302 kJ/mol
# Density = 2.196666 g / cm^3
# Si number density = 22.016770 Si / 1000 Ang^3
#
#
#
# Elastic Constant Matrix: (Units=GPa)
#
#
# Indices 1 2 3 4 5 6 
#
# 1 96.0464 20.5557 -2.2081 0.0000 0.0000 0.0000
# 2 20.5557 141.6031 28.3173 0.0000 0.0000 0.0000
# 3 -2.2081 28.3173 99.8387 0.0000 0.0000 0.0000
# 4 0.0000 0.0000 0.0000 -2.0796 0.0000 0.0000
# 5 0.0000 0.0000 0.0000 0.0000 22.7245 0.0000
# 6 0.0000 0.0000 0.0000 0.0000 0.0000 17.4097
#
#
#
# Elastic Compliance Matrix: (Units=1/GPa)
#
#
# Indices 1 2 3 4 5 6 
#
# 1 0.010795 -0.001712 0.000724 0.000000 0.000000 0.000000
# 2 -0.001712 0.007758 -0.002238 0.000000 0.000000 0.000000
# 3 0.000724 -0.002238 0.010667 0.000000 0.000000 0.000000
# 4 0.000000 0.000000 0.000000 -0.480867 0.000000 0.000000
# 5 0.000000 0.000000 0.000000 0.000000 0.044005 0.000000
# 6 0.000000 0.000000 0.000000 0.000000 0.000000 0.057439
#
#
# Mechanical properties :
#
#
# Convention : Reuss Voigt Hill
#
# Bulk Modulus (GPa) = 43.92116 47.86864 45.89490
# Shear Modulus (GPa) = -14.87382 26.99915 6.06266
#
# Velocity S-wave (km/s) = -2.60199 3.50565 1.66121
# Velocity P-wave (km/s) = 3.31136 6.17861 4.95683
#
# Compressibility (1/GPa) = 0.02276807
#
# Stress axis : x y z
#
# Youngs Moduli (GPa) = 92.63845 128.89761 93.74688
#
# Poissons Ratio (x) = 0.22065 -0.06790
# Poissons Ratio (y) = 0.15858 0.20983
# Poissons Ratio (z) = -0.06710 0.28851
#
# Static dielectric constant tensor:
#      x y z
#    x 2.192400 0.000000 0.000000 
#    y 0.000000 1.815010 0.000000 
#    z 0.000000 0.000000 1.776490 
# 
# From -- ./inp_files/30240.got.cif
#   From: 2010.05.17/outbox.cif.g08.bks.cpg/sg21_16_cif.got.tgz:30240.got - 2010.06.03 23:14:55.
