data_PCOD9325968
_publ_section_title
;
Structure prediction by ZEFSAII (Michael W. Deem and Ramdas Pophale) SiO2 
 PCOD9325968
Probable space group: F 2 2 2
;
_chemical_formula_sum "Si O2"
_cell_formula_units_Z 120
_cell_length_a 21.967826
_cell_length_b 13.051195
_cell_length_c 18.032067
_cell_angle_alpha 90.000000
_cell_angle_beta 90.000000
_cell_angle_gamma 90.000000
_cell_volume 5169.908669
_symmetry_space_group_name_H-M "F 2 2 2"
_symmetry_group_IT_number 22
_symmetry_cell_setting 'orthorhombic'
loop_
_space_group_symop_operation_xyz
x,y,z
-x,-y,z
x,-y,-z
-x,y,-z
x,1/2+y,1/2+z
-x,1/2-y,1/2+z
x,1/2-y,1/2-z
-x,1/2+y,1/2-z
1/2+x,y,1/2+z
1/2-x,-y,1/2+z
1/2+x,-y,1/2-z
1/2-x,y,1/2-z
1/2+x,1/2+y,z
1/2-x,1/2-y,z
1/2+x,1/2-y,-z
1/2-x,1/2+y,-z
loop_
_atom_site_type_symbol
_atom_site_label
_atom_site_fract_x
_atom_site_fract_y
_atom_site_fract_z
Si Si1 0.316938 0.756499 0.961644
Si Si2 0.811504 0.039769 0.875024
Si Si3 0.387018 0.856892 0.737635
Si Si4 0.898256 0.000000 0.000000
Si Si5 0.063611 0.473977 0.836353
Si Si6 0.440442 0.790359 0.465556
Si Si7 0.485344 0.117402 0.682895
Si Si8 0.180499 0.018354 0.413077
O O1 0.250000 0.750000 0.999171
O O2 0.315063 0.653508 0.912043
O O3 0.324051 0.857464 0.911199
O O4 0.375275 0.756906 0.014787
O O5 0.843605 0.058226 0.797616
O O6 0.744072 0.996467 0.872393
O O7 0.854524 0.977047 0.930399
O O8 0.354513 0.750000 0.750000
O O9 0.416943 0.915235 0.805136
O O10 0.447518 0.833277 0.689508
O O11 0.936596 0.898489 0.010363
O O12 0.047666 0.402337 0.763708
O O13 0.122833 0.453143 0.885292
O O14 0.000000 0.500000 0.876273
O O15 0.500000 0.735583 0.500000
O O16 0.450103 0.818613 0.379256
O O17 0.500000 0.000000 0.658020
O O18 0.190670 0.000000 0.500000
#
# Coordination Sequence:
#
# PCOD9325968 Si02
#       8
#    16  16  16   8  16  16  16  16
#     4   9  21  38  54  85 121 149 187 247 296 344
#     4  10  19  34  61  87 115 151 185 237 301 350
#     4  10  19  34  57  86 119 150 179 233 299 356
#     4  10  17  30  54  88 121 146 180 242 303 344
#     4   9  21  39  56  79 116 154 195 240 286 338
#     4  11  19  31  57  91 119 150 194 241 296 355
#     4   9  18  35  54  86 120 154 190 235 294 350
#     4  11  22  41  59  80 110 154 207 240 287 346
#
# _framework density 23.211241000000001
#
# number of rings (size 3 to 8) (size 9 to 14) (size 15 to 20)
#    0.000    2.400    0.667    5.000    0.000    0.800 
#    7.200    0.667    0.000    0.000    0.000    2.800 
#    0.000    0.000    0.000    0.000    0.000    0.000 
#
# Total GULP energy -167267.177126 kJ/mol
# GULP energy per Si atom -5575.572571 kJ/mol
# Density = 2.315841 g / cm^3
# Si number density = 23.211241 Si / 1000 Ang^3
#
#
#
# Elastic Constant Matrix: (Units=GPa)
#
#
# Indices 1 2 3 4 5 6 
#
# 1 206.6241 4.9632 50.8963 0.0000 0.0000 0.0000
# 2 4.9632 17.9841 11.8760 0.0000 0.0000 0.0000
# 3 50.8963 11.8760 33.2090 0.0000 0.0000 0.0000
# 4 0.0000 0.0000 0.0000 15.8564 0.0000 0.0000
# 5 0.0000 0.0000 0.0000 0.0000 29.3088 0.0000
# 6 0.0000 0.0000 0.0000 0.0000 0.0000 2.6057
#
#
#
# Elastic Compliance Matrix: (Units=1/GPa)
#
#
# Indices 1 2 3 4 5 6 
#
# 1 0.008631 0.008317 -0.016202 0.000000 0.000000 0.000000
# 2 0.008317 0.080811 -0.041646 0.000000 0.000000 0.000000
# 3 -0.016202 -0.041646 0.069837 0.000000 0.000000 0.000000
# 4 0.000000 0.000000 0.000000 0.063066 0.000000 0.000000
# 5 0.000000 0.000000 0.000000 0.000000 0.034120 0.000000
# 6 0.000000 0.000000 0.000000 0.000000 0.000000 0.383777
#
#
# Mechanical properties :
#
#
# Convention : Reuss Voigt Hill
#
# Bulk Modulus (GPa) = 16.60668 43.69868 30.15268
# Shear Modulus (GPa) = 6.58436 22.22627 14.40532
#
# Velocity S-wave (km/s) = 1.68608 3.09781 2.49392
# Velocity P-wave (km/s) = 3.31068 5.62696 4.61645
#
# Compressibility (1/GPa) = 0.06021674
#
# Stress axis : x y z
#
# Youngs Moduli (GPa) = 115.86297 12.37459 14.31905
#
# Poissons Ratio (x) = -0.10292 0.23200
# Poissons Ratio (y) = -0.96367 0.59633
# Poissons Ratio (z) = 1.87723 0.51535
#
# Static dielectric constant tensor:
#      x y z
#    x 1.945380 0.000000 0.000000 
#    y 0.000000 1.949870 0.000000 
#    z 0.000000 0.000000 1.982030 
# 
# From -- ./inp_files/44924.got.cif
#   From: 2010.05.17/outbox.cif.g08.bks.cpg/sg22_23_cif.got.tgz:44924.got - 2010.06.03 23:40:54.
