data_PCOD9325805
_publ_section_title
;
Structure prediction by ZEFSAII (Michael W. Deem and Ramdas Pophale) SiO2 
 PCOD9325805
Probable space group: C 2 2 2
;
_chemical_formula_sum "Si O2"
_cell_formula_units_Z 22
_cell_length_a 5.765906
_cell_length_b 13.427076
_cell_length_c 12.000625
_cell_angle_alpha 90.000000
_cell_angle_beta 90.000000
_cell_angle_gamma 90.000000
_cell_volume 929.079484
_symmetry_space_group_name_H-M "C 2 2 2"
_symmetry_group_IT_number 21
_symmetry_cell_setting 'orthorhombic'
loop_
_space_group_symop_operation_xyz
x,y,z
-x,-y,z
x,-y,-z
-x,y,-z
1/2+x,1/2+y,z
1/2-x,1/2-y,z
1/2+x,1/2-y,-z
1/2-x,1/2+y,-z
loop_
_atom_site_type_symbol
_atom_site_label
_atom_site_fract_x
_atom_site_fract_y
_atom_site_fract_z
Si Si1 0.139670 0.648141 0.828027
Si Si2 0.000000 0.000000 0.275377
Si Si3 0.355621 0.855223 0.395774
Si Si4 0.000000 0.500000 0.000000
O O1 0.250000 0.750000 0.873745
O O2 0.349875 0.572905 0.802045
O O3 0.017683 0.667912 0.710366
O O4 0.961002 0.587557 0.905570
O O5 0.166222 0.933185 0.352460
O O6 0.500000 0.893100 0.500000
O O7 0.250000 0.750000 0.431488
#
# Coordination Sequence:
#
# PCOD9325805 Si02
#       4
#     8   4   8   2
#     4  12  27  50  78 113 154 202 266 318 380 460
#     4  12  26  50  80 106 158 205 249 318 388 454
#     4  12  27  50  78 118 157 202 256 315 393 466
#     4  12  28  50  74 122 150 208 268 316 384 442
#
# _framework density 23.679354
#
# number of rings (size 3 to 8) (size 9 to 14) (size 15 to 20)
#    0.000    0.000    7.273    1.091    0.000    9.455 
#    0.000    0.000    0.000    0.000    0.000    0.000 
#    0.000    0.000    0.000    0.000    0.000    0.000 
#
# Total GULP energy -61394.384235 kJ/mol
# GULP energy per Si atom -5581.307658 kJ/mol
# Density = 2.362546 g / cm^3
# Si number density = 23.679354 Si / 1000 Ang^3
#
#
#
# Elastic Constant Matrix: (Units=GPa)
#
#
# Indices 1 2 3 4 5 6 
#
# 1 42.4993 20.3365 -28.7994 0.0000 0.0000 0.0000
# 2 20.3365 170.8068 -6.0093 0.0000 0.0000 0.0000
# 3 -28.7994 -6.0093 62.9040 0.0000 0.0000 0.0000
# 4 0.0000 0.0000 0.0000 35.4381 0.0000 0.0000
# 5 0.0000 0.0000 0.0000 0.0000 -46.8219 0.0000
# 6 0.0000 0.0000 0.0000 0.0000 0.0000 21.1016
#
#
#
# Elastic Compliance Matrix: (Units=1/GPa)
#
#
# Indices 1 2 3 4 5 6 
#
# 1 0.036367 -0.003757 0.016291 0.000000 0.000000 0.000000
# 2 -0.003757 0.006262 -0.001122 0.000000 0.000000 0.000000
# 3 0.016291 -0.001122 0.023249 0.000000 0.000000 0.000000
# 4 0.000000 0.000000 0.000000 0.028218 0.000000 0.000000
# 5 0.000000 0.000000 0.000000 0.000000 -0.021358 0.000000
# 6 0.000000 0.000000 0.000000 0.000000 0.000000 0.047390
#
#
# Mechanical properties :
#
#
# Convention : Reuss Voigt Hill
#
# Bulk Modulus (GPa) = 11.27356 27.47398 19.37377
# Shear Modulus (GPa) = 39.41006 21.32236 30.36621
#
# Velocity S-wave (km/s) = 4.08404 3.00403 3.58493
# Velocity P-wave (km/s) = 5.19715 4.86415 5.03340
#
# Compressibility (1/GPa) = 0.08870311
#
# Stress axis : x y z
#
# Youngs Moduli (GPa) = 27.49747 159.68338 43.01329
#
# Poissons Ratio (x) = 0.59989 -0.70073
# Poissons Ratio (y) = 0.10330 0.04825
# Poissons Ratio (z) = -0.44796 0.17912
#
# Static dielectric constant tensor:
#      x y z
#    x 1.930280 0.000000 0.000000 
#    y 0.000000 1.891080 0.000000 
#    z 0.000000 0.000000 1.859430 
# 
# From -- ./inp_files/20177.got.cif
#   From: 2010.05.17/outbox.cif.g08.bks.cpg/sg21_11_cif.got.tgz:20177.got - 2010.06.03 23:14:55.
