data_PCOD9325735
_publ_section_title
;
Structure prediction by ZEFSAII (Michael W. Deem and Ramdas Pophale) SiO2 
 PCOD9325735
Probable space group: C 2 2 2
;
_chemical_formula_sum "Si O2"
_cell_formula_units_Z 40
_cell_length_a 25.314507
_cell_length_b 8.295530
_cell_length_c 8.716087
_cell_angle_alpha 90.000000
_cell_angle_beta 90.000000
_cell_angle_gamma 90.000000
_cell_volume 1830.354320
_symmetry_space_group_name_H-M "C 2 2 2"
_symmetry_group_IT_number 21
_symmetry_cell_setting 'orthorhombic'
loop_
_space_group_symop_operation_xyz
x,y,z
-x,-y,z
x,-y,-z
-x,y,-z
1/2+x,1/2+y,z
1/2-x,1/2-y,z
1/2+x,1/2-y,-z
1/2-x,1/2+y,-z
loop_
_atom_site_type_symbol
_atom_site_label
_atom_site_fract_x
_atom_site_fract_y
_atom_site_fract_z
Si Si1 0.385299 0.193120 0.322637
Si Si2 0.792625 0.127551 0.121872
Si Si3 0.499484 0.196401 0.678062
Si Si4 0.116387 0.683922 0.302107
Si Si5 0.711416 0.608470 0.359625
O O1 0.442963 0.247283 0.263456
O O2 0.382969 0.197605 0.510863
O O3 0.337736 0.307528 0.276837
O O4 0.377801 0.007740 0.273917
O O5 0.750000 0.250000 0.052897
O O6 0.838696 0.218365 0.214222
O O7 0.761404 0.017309 0.245904
O O8 0.813182 0.000000 0.000000
O O9 0.500000 0.247852 0.500000
O O10 0.442745 0.240422 0.746368
O O11 0.500000 0.000000 0.677876
O O12 0.692602 0.500000 0.500000
O O13 0.750000 0.750000 0.412240
#
# Coordination Sequence:
#
# PCOD9325735 Si02
#       5
#     8   8   8   8   8
#     4   9  17  32  60  94 125 156 202 262 323 372
#     4  12  26  44  60  85 124 173 218 262 318 381
#     4   7  12  26  52  89 123 156 194 243 310 384
#     4   9  17  33  61  90 124 163 207 257 313 377
#     4  12  24  37  59  89 121 161 210 269 322 371
#
# _framework density 21.853691999999999
#
# number of rings (size 3 to 8) (size 9 to 14) (size 15 to 20)
#    0.000    2.200    2.000    4.800    2.800    0.000 
#    0.000    1.000    0.000    2.400    0.000    4.200 
#    0.000    0.000    0.000    0.000    0.000    0.000 
#
# Total GULP energy -111523.317177 kJ/mol
# GULP energy per Si atom -5576.165859 kJ/mol
# Density = 2.180395 g / cm^3
# Si number density = 21.853692 Si / 1000 Ang^3
#
#
#
# Elastic Constant Matrix: (Units=GPa)
#
#
# Indices 1 2 3 4 5 6 
#
# 1 160.4472 69.2719 20.2737 0.0000 0.0000 0.0000
# 2 69.2719 93.8424 31.9771 0.0000 0.0000 0.0000
# 3 20.2737 31.9771 33.0195 0.0000 0.0000 0.0000
# 4 0.0000 0.0000 0.0000 32.9474 0.0000 0.0000
# 5 0.0000 0.0000 0.0000 0.0000 11.6633 0.0000
# 6 0.0000 0.0000 0.0000 0.0000 0.0000 27.1690
#
#
#
# Elastic Compliance Matrix: (Units=1/GPa)
#
#
# Indices 1 2 3 4 5 6 
#
# 1 0.009190 -0.007255 0.001384 0.000000 0.000000 0.000000
# 2 -0.007255 0.021633 -0.016495 0.000000 0.000000 0.000000
# 3 0.001384 -0.016495 0.045410 0.000000 0.000000 0.000000
# 4 0.000000 0.000000 0.000000 0.030351 0.000000 0.000000
# 5 0.000000 0.000000 0.000000 0.000000 0.085739 0.000000
# 6 0.000000 0.000000 0.000000 0.000000 0.000000 0.036807
#
#
# Mechanical properties :
#
#
# Convention : Reuss Voigt Hill
#
# Bulk Modulus (GPa) = 31.74679 58.92827 45.33753
# Shear Modulus (GPa) = 17.58318 25.40839 21.49579
#
# Velocity S-wave (km/s) = 2.83960 3.41348 3.13968
# Velocity P-wave (km/s) = 5.03087 6.52374 5.82533
#
# Compressibility (1/GPa) = 0.03149924
#
# Stress axis : x y z
#
# Youngs Moduli (GPa) = 108.81105 46.22642 22.02171
#
# Poissons Ratio (x) = 0.33540 -0.03047
# Poissons Ratio (y) = 0.78948 0.36325
# Poissons Ratio (z) = -0.15056 0.76250
#
# Static dielectric constant tensor:
#      x y z
#    x 1.826150 0.000000 0.000000 
#    y 0.000000 1.820660 0.000000 
#    z 0.000000 0.000000 1.819250 
# 
# From -- ./inp_files/18968.got.cif
#   From: 2010.05.17/outbox.cif.g08.bks.cpg/sg21_10_cif.got.tgz:18968.got - 2010.06.03 23:14:55.
