data_PCOD9325167
_publ_section_title
;
Structure prediction by ZEFSAII (Michael W. Deem and Ramdas Pophale) SiO2 
 PCOD9325167
Probable space group: C 2 2 2
;
_chemical_formula_sum "Si O2"
_cell_formula_units_Z 16
_cell_length_a 20.778168
_cell_length_b 5.199508
_cell_length_c 5.579713
_cell_angle_alpha 90.000000
_cell_angle_beta 90.000000
_cell_angle_gamma 90.000000
_cell_volume 602.811273
_symmetry_space_group_name_H-M "C 2 2 2"
_symmetry_group_IT_number 21
_symmetry_cell_setting 'orthorhombic'
loop_
_space_group_symop_operation_xyz
x,y,z
-x,-y,z
x,-y,-z
-x,y,-z
1/2+x,1/2+y,z
1/2-x,1/2-y,z
1/2+x,1/2-y,-z
1/2-x,1/2+y,-z
loop_
_atom_site_type_symbol
_atom_site_label
_atom_site_fract_x
_atom_site_fract_y
_atom_site_fract_z
Si Si1 0.073354 0.101673 0.253182
Si Si2 0.641729 0.000000 0.000000
Si Si3 0.750000 0.250000 0.329065
O O1 0.101314 0.000000 0.500000
O O2 0.092468 0.395439 0.206548
O O3 0.000000 0.000000 0.256410
O O4 0.098594 0.000000 0.000000
O O5 0.691512 0.824859 0.847867
O O6 0.741244 0.500000 0.500000
#
# Coordination Sequence:
#
# PCOD9325167 Si02
#       3
#     8   4   4
#     4  10  26  51  83 126 173 225 284 356 440 525
#     4  12  30  51  86 128 175 230 296 364 440 526
#     4  12  32  54  84 130 176 238 302 364 438 518
#
# _framework density 26.542301999999999
#
# number of rings (size 3 to 8) (size 9 to 14) (size 15 to 20)
#    0.000    1.000    0.000    1.500   17.500    4.000 
#    0.000   20.000    0.000    0.000    0.000    0.000 
#    0.000    0.000    0.000    0.000    0.000    0.000 
#
# Total GULP energy -44616.313996 kJ/mol
# GULP energy per Si atom -5577.039250 kJ/mol
# Density = 2.648189 g / cm^3
# Si number density = 26.542302 Si / 1000 Ang^3
#
#
#
# Elastic Constant Matrix: (Units=GPa)
#
#
# Indices 1 2 3 4 5 6 
#
# 1 217.6861 93.0841 69.7520 0.0000 0.0000 0.0000
# 2 93.0841 134.7718 89.1639 0.0000 0.0000 0.0000
# 3 69.7520 89.1639 267.4871 0.0000 0.0000 0.0000
# 4 0.0000 0.0000 0.0000 109.4291 0.0000 0.0000
# 5 0.0000 0.0000 0.0000 0.0000 41.3299 0.0000
# 6 0.0000 0.0000 0.0000 0.0000 0.0000 58.4880
#
#
#
# Elastic Compliance Matrix: (Units=1/GPa)
#
#
# Indices 1 2 3 4 5 6 
#
# 1 0.006533 -0.004343 -0.000256 0.000000 0.000000 0.000000
# 2 -0.004343 0.012406 -0.003003 0.000000 0.000000 0.000000
# 3 -0.000256 -0.003003 0.004806 0.000000 0.000000 0.000000
# 4 0.000000 0.000000 0.000000 0.009138 0.000000 0.000000
# 5 0.000000 0.000000 0.000000 0.000000 0.024196 0.000000
# 6 0.000000 0.000000 0.000000 0.000000 0.000000 0.017098
#
#
# Mechanical properties :
#
#
# Convention : Reuss Voigt Hill
#
# Bulk Modulus (GPa) = 117.07092 124.88278 120.97685
# Shear Modulus (GPa) = 54.21397 66.37907 60.29652
#
# Velocity S-wave (km/s) = 4.52436 5.00630 4.77142
# Velocity P-wave (km/s) = 8.45554 8.97608 8.71970
#
# Compressibility (1/GPa) = 0.00854183
#
# Stress axis : x y z
#
# Youngs Moduli (GPa) = 153.07487 80.60530 208.06205
#
# Poissons Ratio (x) = 0.35005 0.05325
# Poissons Ratio (y) = 0.66476 0.62481
# Poissons Ratio (z) = 0.03918 0.24206
#
# Static dielectric constant tensor:
#      x y z
#    x 1.418830 0.000000 0.000000 
#    y 0.000000 1.033860 0.000000 
#    z 0.000000 0.000000 2.056040 
# 
# From -- ./inp_files/370.got.cif
#   From: 2010.05.17/outbox.cif.g08.bks.cpg/sg21_1_cif.got.tgz:370.got - 2010.06.03 23:14:55.
