data_PCOD9325356
_publ_section_title
;
Structure prediction by ZEFSAII (Michael W. Deem and Ramdas Pophale) SiO2 
 PCOD9325356
Probable space group: C 2 2 2
;
_chemical_formula_sum "Si O2"
_cell_formula_units_Z 58
_cell_length_a 11.118744
_cell_length_b 10.676184
_cell_length_c 25.175894
_cell_angle_alpha 90.000000
_cell_angle_beta 90.000000
_cell_angle_gamma 90.000000
_cell_volume 2988.523550
_symmetry_space_group_name_H-M "C 2 2 2"
_symmetry_group_IT_number 21
_symmetry_cell_setting 'orthorhombic'
loop_
_space_group_symop_operation_xyz
x,y,z
-x,-y,z
x,-y,-z
-x,y,-z
1/2+x,1/2+y,z
1/2-x,1/2-y,z
1/2+x,1/2-y,-z
1/2-x,1/2+y,-z
loop_
_atom_site_type_symbol
_atom_site_label
_atom_site_fract_x
_atom_site_fract_y
_atom_site_fract_z
Si Si1 0.857622 0.344434 0.913121
Si Si2 0.500000 0.000000 0.000000
Si Si3 0.557468 0.198174 0.441951
Si Si4 0.871013 0.829560 0.367980
Si Si5 0.647117 0.643092 0.247654
Si Si6 0.448764 0.732892 0.164224
Si Si7 0.716716 0.447851 0.441089
Si Si8 0.236675 0.451585 0.828147
O O1 0.750000 0.250000 0.926941
O O2 0.914984 0.416470 0.962506
O O3 0.806675 0.444183 0.870024
O O4 0.965360 0.270272 0.884173
O O5 0.500000 0.172411 0.500000
O O6 0.462612 0.237840 0.397752
O O7 0.638144 0.323126 0.446600
O O8 0.648252 0.089127 0.424233
O O9 0.750000 0.750000 0.365717
O O10 0.899590 0.867316 0.307717
O O11 0.846787 0.952422 0.403252
O O12 0.750000 0.750000 0.244978
O O13 0.537198 0.681541 0.209669
O O14 0.712328 0.520520 0.224049
O O15 0.348676 0.629582 0.150190
O O16 0.373158 0.855862 0.181770
O O17 0.726425 0.500000 0.500000
#
# Coordination Sequence:
#
# PCOD9325356 Si02
#       8
#     8   2   8   8   8   8   8   8
#     4  12  24  44  70 100 138 182 228 274 329 388
#     4  12  28  44  68 104 148 180 220 292 318 380
#     4  11  23  40  63  88 121 169 215 266 334 403
#     4  11  25  41  61  95 132 166 224 272 329 394
#     4  11  23  41  65  96 133 177 218 281 330 388
#     4  11  22  39  69  99 129 177 227 265 332 400
#     4  11  23  40  63  88 121 169 215 266 334 403
#     4  11  22  39  69  99 129 177 227 265 332 400
#
# _framework density 19.407575999999999
#
# number of rings (size 3 to 8) (size 9 to 14) (size 15 to 20)
#    0.000    0.828    5.517    1.655    0.000    6.345 
#    0.000    5.517    0.000    0.000    0.000    0.000 
#    0.000    0.000    0.000    0.000    0.000    0.000 
#
# Total GULP energy -162104.144308 kJ/mol
# GULP energy per Si atom -5589.798080 kJ/mol
# Density = 1.936340 g / cm^3
# Si number density = 19.407576 Si / 1000 Ang^3
#
#
#
# Elastic Constant Matrix: (Units=GPa)
#
#
# Indices 1 2 3 4 5 6 
#
# 1 101.5374 7.5622 29.8023 0.0000 0.0000 0.0000
# 2 7.5622 41.4033 6.7785 0.0000 0.0000 0.0000
# 3 29.8023 6.7785 96.8712 0.0000 0.0000 0.0000
# 4 0.0000 0.0000 0.0000 41.4200 0.0000 0.0000
# 5 0.0000 0.0000 0.0000 0.0000 5.6622 0.0000
# 6 0.0000 0.0000 0.0000 0.0000 0.0000 45.3724
#
#
#
# Elastic Compliance Matrix: (Units=1/GPa)
#
#
# Indices 1 2 3 4 5 6 
#
# 1 0.010913 -0.001460 -0.003255 0.000000 0.000000 0.000000
# 2 -0.001460 0.024628 -0.001274 0.000000 0.000000 0.000000
# 3 -0.003255 -0.001274 0.011414 0.000000 0.000000 0.000000
# 4 0.000000 0.000000 0.000000 0.024143 0.000000 0.000000
# 5 0.000000 0.000000 0.000000 0.000000 0.176609 0.000000
# 6 0.000000 0.000000 0.000000 0.000000 0.000000 0.022040
#
#
# Mechanical properties :
#
#
# Convention : Reuss Voigt Hill
#
# Bulk Modulus (GPa) = 28.59152 36.45531 32.52341
# Shear Modulus (GPa) = 17.04257 31.53554 24.28906
#
# Velocity S-wave (km/s) = 2.96656 4.03539 3.54153
# Velocity P-wave (km/s) = 5.14763 6.36689 5.78945
#
# Compressibility (1/GPa) = 0.03497541
#
# Stress axis : x y z
#
# Youngs Moduli (GPa) = 91.63591 40.60424 87.61505
#
# Poissons Ratio (x) = 0.05929 0.28520
# Poissons Ratio (y) = 0.13381 0.11163
# Poissons Ratio (z) = 0.29829 0.05173
#
# Static dielectric constant tensor:
#      x y z
#    x 1.658100 0.000000 0.000000 
#    y 0.000000 1.692550 0.000000 
#    z 0.000000 0.000000 1.692160 
# 
# From -- ./inp_files/39261.got.cif
#   From: 2010.05.17/outbox.cif.g08.bks.cpg/sg21_20_cif.got.tgz:39261.got - 2010.06.03 23:14:55.
