data_PCOD9325668
_publ_section_title
;
Structure prediction by ZEFSAII (Michael W. Deem and Ramdas Pophale) SiO2 
 PCOD9325668
Probable space group: C 2 2 2
;
_chemical_formula_sum "Si O2"
_cell_formula_units_Z 22
_cell_length_a 11.727825
_cell_length_b 14.410617
_cell_length_c 6.443053
_cell_angle_alpha 90.000000
_cell_angle_beta 90.000000
_cell_angle_gamma 90.000000
_cell_volume 1088.909424
_symmetry_space_group_name_H-M "C 2 2 2"
_symmetry_group_IT_number 21
_symmetry_cell_setting 'orthorhombic'
loop_
_space_group_symop_operation_xyz
x,y,z
-x,-y,z
x,-y,-z
-x,y,-z
1/2+x,1/2+y,z
1/2-x,1/2-y,z
1/2+x,1/2-y,-z
1/2-x,1/2+y,-z
loop_
_atom_site_type_symbol
_atom_site_label
_atom_site_fract_x
_atom_site_fract_y
_atom_site_fract_z
Si Si1 0.123705 0.667163 0.043032
Si Si2 0.500000 0.500000 0.500000
Si Si3 0.655852 0.354138 0.291238
Si Si4 0.250000 0.250000 0.329496
O O1 0.219580 0.621774 0.192758
O O2 0.109553 0.770933 0.144421
O O3 0.181337 0.682449 0.820751
O O4 0.000000 0.625073 0.000000
O O5 0.576629 0.439524 0.342709
O O6 0.671305 0.307303 0.516063
#
# Coordination Sequence:
#
# PCOD9325668 Si02
#       4
#     8   2   8   4
#     4   9  17  34  56  81 107 147 196 229 264 330
#     4  12  20  36  54  86 124 140 176 234 290 340
#     4   9  20  31  53  83 112 148 179 229 286 322
#     4   8  16  34  52  78 108 144 192 224 264 330
#
# _framework density 20.203700000000001
#
# number of rings (size 3 to 8) (size 9 to 14) (size 15 to 20)
#    0.000    3.636    0.000    2.182    0.000    4.364 
#    0.000   22.727    0.000    6.545    0.000   10.182 
#    0.000    0.000    0.000    0.000    0.000    0.000 
#
# Total GULP energy -61255.317124 kJ/mol
# GULP energy per Si atom -5568.665193 kJ/mol
# Density = 2.015772 g / cm^3
# Si number density = 20.203700 Si / 1000 Ang^3
#
#
#
# Elastic Constant Matrix: (Units=GPa)
#
#
# Indices 1 2 3 4 5 6 
#
# 1 117.8584 41.4090 24.8667 0.0000 0.0000 0.0000
# 2 41.4090 65.3803 16.0150 0.0000 0.0000 0.0000
# 3 24.8667 16.0150 109.2262 0.0000 0.0000 0.0000
# 4 0.0000 0.0000 0.0000 1.6427 0.0000 0.0000
# 5 0.0000 0.0000 0.0000 0.0000 19.2413 0.0000
# 6 0.0000 0.0000 0.0000 0.0000 0.0000 34.5564
#
#
#
# Elastic Compliance Matrix: (Units=1/GPa)
#
#
# Indices 1 2 3 4 5 6 
#
# 1 0.011164 -0.006688 -0.001561 0.000000 0.000000 0.000000
# 2 -0.006688 0.019872 -0.001391 0.000000 0.000000 0.000000
# 3 -0.001561 -0.001391 0.009715 0.000000 0.000000 0.000000
# 4 0.000000 0.000000 0.000000 0.608771 0.000000 0.000000
# 5 0.000000 0.000000 0.000000 0.000000 0.051971 0.000000
# 6 0.000000 0.000000 0.000000 0.000000 0.000000 0.028938
#
#
# Mechanical properties :
#
#
# Convention : Reuss Voigt Hill
#
# Bulk Modulus (GPa) = 46.57676 50.78291 48.67983
# Shear Modulus (GPa) = 6.60617 25.09969 15.85293
#
# Velocity S-wave (km/s) = 1.81022 3.52850 2.80421
# Velocity P-wave (km/s) = 5.24145 6.46455 5.88486
#
# Compressibility (1/GPa) = 0.02146994
#
# Stress axis : x y z
#
# Youngs Moduli (GPa) = 89.57315 50.32204 102.93756
#
# Poissons Ratio (x) = 0.33658 0.16068
# Poissons Ratio (y) = 0.59911 0.14318
# Poissons Ratio (z) = 0.13982 0.07000
#
# Static dielectric constant tensor:
#      x y z
#    x 1.821680 0.000000 0.000000 
#    y 0.000000 1.754590 0.000000 
#    z 0.000000 0.000000 1.682960 
# 
# From -- ./inp_files/1975.got.cif
#   From: 2010.05.17/outbox.cif.g08.bks.cpg/sg21_1_cif.got.tgz:1975.got - 2010.06.03 23:14:55.
