data_PCOD9325720
_publ_section_title
;
Structure prediction by ZEFSAII (Michael W. Deem and Ramdas Pophale) SiO2 
 PCOD9325720
Probable space group: C 2 2 2
;
_chemical_formula_sum "Si O2"
_cell_formula_units_Z 20
_cell_length_a 14.881713
_cell_length_b 4.772238
_cell_length_c 11.515118
_cell_angle_alpha 90.000000
_cell_angle_beta 90.000000
_cell_angle_gamma 90.000000
_cell_volume 817.793044
_symmetry_space_group_name_H-M "C 2 2 2"
_symmetry_group_IT_number 21
_symmetry_cell_setting 'orthorhombic'
loop_
_space_group_symop_operation_xyz
x,y,z
-x,-y,z
x,-y,-z
-x,y,-z
1/2+x,1/2+y,z
1/2-x,1/2-y,z
1/2+x,1/2-y,-z
1/2-x,1/2+y,-z
loop_
_atom_site_type_symbol
_atom_site_label
_atom_site_fract_x
_atom_site_fract_y
_atom_site_fract_z
Si Si1 0.354720 0.834827 0.119745
Si Si2 0.088256 0.857571 0.740326
Si Si3 0.250000 0.750000 0.577572
O O1 0.250000 0.750000 0.132849
O O2 0.400943 0.539747 0.142269
O O3 0.397854 0.038167 0.217560
O O4 0.364838 0.000000 0.000000
O O5 0.173110 0.891483 0.655662
O O6 0.000000 0.000000 0.685196
O O7 0.210326 0.500000 0.500000
#
# Coordination Sequence:
#
# PCOD9325720 Si02
#       3
#     8   8   4
#     4  12  23  43  72 109 154 203 245 298 375 463
#     4  12  26  46  73 110 150 192 256 316 380 460
#     4  12  26  50  78 102 146 200 258 328 398 446
#
# _framework density 24.456063
#
# number of rings (size 3 to 8) (size 9 to 14) (size 15 to 20)
#    0.000    0.000    4.000    7.200    0.000    5.600 
#    0.000    2.000    0.000    0.000    0.000    0.000 
#    0.000    0.000    0.000    0.000    0.000    0.000 
#
# Total GULP energy -55838.501650 kJ/mol
# GULP energy per Si atom -5583.850165 kJ/mol
# Density = 2.440040 g / cm^3
# Si number density = 24.456063 Si / 1000 Ang^3
#
#
#
# Elastic Constant Matrix: (Units=GPa)
#
#
# Indices 1 2 3 4 5 6 
#
# 1 171.7252 18.5621 42.1849 0.0000 0.0000 0.0000
# 2 18.5621 140.1645 30.5291 0.0000 0.0000 0.0000
# 3 42.1849 30.5291 83.2186 0.0000 0.0000 0.0000
# 4 0.0000 0.0000 0.0000 34.3484 0.0000 0.0000
# 5 0.0000 0.0000 0.0000 0.0000 0.8522 0.0000
# 6 0.0000 0.0000 0.0000 0.0000 0.0000 45.0715
#
#
#
# Elastic Compliance Matrix: (Units=1/GPa)
#
#
# Indices 1 2 3 4 5 6 
#
# 1 0.006655 -0.000159 -0.003315 0.000000 0.000000 0.000000
# 2 -0.000159 0.007758 -0.002765 0.000000 0.000000 0.000000
# 3 -0.003315 -0.002765 0.014711 0.000000 0.000000 0.000000
# 4 0.000000 0.000000 0.000000 0.029113 0.000000 0.000000
# 5 0.000000 0.000000 0.000000 0.000000 1.173376 0.000000
# 6 0.000000 0.000000 0.000000 0.000000 0.000000 0.022187
#
#
# Mechanical properties :
#
#
# Convention : Reuss Voigt Hill
#
# Bulk Modulus (GPa) = 60.07803 64.18449 62.13126
# Shear Modulus (GPa) = 3.93135 36.30991 20.12063
#
# Velocity S-wave (km/s) = 1.26925 3.85736 2.87143
# Velocity P-wave (km/s) = 5.17369 6.79270 6.03771
#
# Compressibility (1/GPa) = 0.01664502
#
# Stress axis : x y z
#
# Youngs Moduli (GPa) = 150.26705 128.90139 67.97438
#
# Poissons Ratio (x) = 0.02053 0.22534
# Poissons Ratio (y) = 0.02393 0.18797
# Poissons Ratio (z) = 0.49814 0.35645
#
# Static dielectric constant tensor:
#      x y z
#    x 2.025030 0.000000 0.000000 
#    y 0.000000 1.625580 0.000000 
#    z 0.000000 0.000000 1.992670 
# 
# From -- ./inp_files/20170.got.cif
#   From: 2010.05.17/outbox.cif.g08.bks.cpg/sg21_11_cif.got.tgz:20170.got - 2010.06.03 23:14:55.
