data_PCOD9325365
_publ_section_title
;
Structure prediction by ZEFSAII (Michael W. Deem and Ramdas Pophale) SiO2 
 PCOD9325365
Probable space group: C 2 2 2
;
_chemical_formula_sum "Si O2"
_cell_formula_units_Z 34
_cell_length_a 13.598016
_cell_length_b 5.579570
_cell_length_c 21.099401
_cell_angle_alpha 90.000000
_cell_angle_beta 90.000000
_cell_angle_gamma 90.000000
_cell_volume 1600.834386
_symmetry_space_group_name_H-M "C 2 2 2"
_symmetry_group_IT_number 21
_symmetry_cell_setting 'orthorhombic'
loop_
_space_group_symop_operation_xyz
x,y,z
-x,-y,z
x,-y,-z
-x,y,-z
1/2+x,1/2+y,z
1/2-x,1/2-y,z
1/2+x,1/2-y,-z
1/2-x,1/2+y,-z
loop_
_atom_site_type_symbol
_atom_site_label
_atom_site_fract_x
_atom_site_fract_y
_atom_site_fract_z
Si Si1 0.811715 0.003079 0.136991
Si Si2 0.000000 0.000000 0.500000
Si Si3 0.000000 0.500000 0.685225
Si Si4 0.686260 0.500000 0.000000
Si Si5 0.361339 0.715189 0.395261
Si Si6 0.642272 0.623830 0.272276
O O1 0.750000 0.250000 0.135278
O O2 0.750000 0.750000 0.138175
O O3 0.866294 0.997879 0.068706
O O4 0.862191 0.013463 0.205566
O O5 0.070294 0.147002 0.546519
O O6 0.909708 0.558882 0.638790
O O7 0.951865 0.295898 0.727092
O O8 0.750000 0.750000 0.000126
O O9 0.250000 0.750000 0.415709
O O10 0.363525 0.526278 0.337225
O O11 0.750000 0.750000 0.273820
#
# Coordination Sequence:
#
# PCOD9325365 Si02
#       6
#     8   2   4   4   8   8
#     4   9  18  31  57  94 137 179 229 282 339 399
#     4  12  28  46  64 102 126 170 224 274 356 414
#     4  12  24  43  70  96 133 172 218 282 340 407
#     4   8  14  28  48  86 137 175 224 280 330 401
#     4  12  26  46  69  96 130 170 221 277 340 415
#     4  11  22  40  68  98 133 173 226 280 337 404
#
# _framework density 21.238925999999999
#
# number of rings (size 3 to 8) (size 9 to 14) (size 15 to 20)
#    0.000    1.412    4.706    0.706    3.294    3.294 
#    0.000    0.000    0.000    0.000    0.000    4.941 
#    0.000    0.000    0.000    0.000    0.000    0.000 
#
# Total GULP energy -94685.681097 kJ/mol
# GULP energy per Si atom -5569.745947 kJ/mol
# Density = 2.119059 g / cm^3
# Si number density = 21.238926 Si / 1000 Ang^3
#
#
#
# Elastic Constant Matrix: (Units=GPa)
#
#
# Indices 1 2 3 4 5 6 
#
# 1 114.7604 23.0458 44.6265 0.0000 0.0000 0.0000
# 2 23.0458 81.2418 31.8399 0.0000 0.0000 0.0000
# 3 44.6265 31.8399 208.3845 0.0000 0.0000 0.0000
# 4 0.0000 0.0000 0.0000 20.1454 0.0000 0.0000
# 5 0.0000 0.0000 0.0000 0.0000 -13.4212 0.0000
# 6 0.0000 0.0000 0.0000 0.0000 0.0000 29.4391
#
#
#
# Elastic Compliance Matrix: (Units=1/GPa)
#
#
# Indices 1 2 3 4 5 6 
#
# 1 0.009827 -0.002088 -0.001786 0.000000 0.000000 0.000000
# 2 -0.002088 0.013537 -0.001621 0.000000 0.000000 0.000000
# 3 -0.001786 -0.001621 0.005429 0.000000 0.000000 0.000000
# 4 0.000000 0.000000 0.000000 0.049639 0.000000 0.000000
# 5 0.000000 0.000000 0.000000 0.000000 -0.074509 0.000000
# 6 0.000000 0.000000 0.000000 0.000000 0.000000 0.033968
#
#
# Mechanical properties :
#
#
# Convention : Reuss Voigt Hill
#
# Bulk Modulus (GPa) = 56.16849 67.04569 61.60709
# Shear Modulus (GPa) = 91.21512 27.55761 59.38636
#
# Velocity S-wave (km/s) = 6.56052 3.60600 5.29356
# Velocity P-wave (km/s) = 9.15918 6.99811 8.15059
#
# Compressibility (1/GPa) = 0.01780357
#
# Stress axis : x y z
#
# Youngs Moduli (GPa) = 101.75575 73.87386 184.19889
#
# Poissons Ratio (x) = 0.15425 0.32890
# Poissons Ratio (y) = 0.21246 0.29862
# Poissons Ratio (z) = 0.18169 0.11976
#
# Static dielectric constant tensor:
#      x y z
#    x 1.800180 0.000000 0.000000 
#    y 0.000000 1.865090 0.000000 
#    z 0.000000 0.000000 1.799640 
# 
# From -- ./inp_files/37502.got.cif
#   From: 2010.05.17/outbox.cif.g08.bks.cpg/sg21_19_cif.got.tgz:37502.got - 2010.06.03 23:14:55.
