data_PCOD9325145
_publ_section_title
;
Structure prediction by ZEFSAII (Michael W. Deem and Ramdas Pophale) SiO2 
 PCOD9325145
Probable space group: C 2 2 2
;
_chemical_formula_sum "Si O2"
_cell_formula_units_Z 26
_cell_length_a 28.233470
_cell_length_b 6.967385
_cell_length_c 6.570630
_cell_angle_alpha 90.000000
_cell_angle_beta 90.000000
_cell_angle_gamma 90.000000
_cell_volume 1292.531331
_symmetry_space_group_name_H-M "C 2 2 2"
_symmetry_group_IT_number 21
_symmetry_cell_setting 'orthorhombic'
loop_
_space_group_symop_operation_xyz
x,y,z
-x,-y,z
x,-y,-z
-x,y,-z
1/2+x,1/2+y,z
1/2-x,1/2-y,z
1/2+x,1/2-y,-z
1/2-x,1/2+y,-z
loop_
_atom_site_type_symbol
_atom_site_label
_atom_site_fract_x
_atom_site_fract_y
_atom_site_fract_z
Si Si1 0.500000 0.000000 0.000000
Si Si2 0.658749 0.000000 0.000000
Si Si3 0.803176 0.311337 0.363016
Si Si4 0.077921 0.643862 0.696882
Si Si5 0.620474 0.500000 0.500000
O O1 0.533640 0.881227 0.152314
O O2 0.691958 0.859171 0.874434
O O3 0.623620 0.088496 0.832479
O O4 0.812457 0.500000 0.500000
O O5 0.750000 0.250000 0.414543
O O6 0.843311 0.151745 0.399367
O O7 0.073632 0.500000 0.500000
O O8 0.086787 0.862015 0.630576
#
# Coordination Sequence:
#
# PCOD9325145 Si02
#       5
#     2   4   8   8   4
#     4  10  26  48  74 102 140 178 238 296 358 428
#     4  11  22  43  68 102 134 186 236 285 342 415
#     4  12  25  43  68 105 149 186 238 292 338 403
#     4  11  23  47  74 100 141 179 231 296 354 421
#     4  12  22  44  77  96 144 192 222 285 366 402
#
# _framework density 20.115568
#
# number of rings (size 3 to 8) (size 9 to 14) (size 15 to 20)
#    0.000    0.615    7.692    0.462    0.000    4.923 
#    0.000    4.615    0.000    0.000    0.000    0.000 
#    0.000    0.000    0.000    0.000    0.000    0.000 
#
# Total GULP energy -72517.227886 kJ/mol
# GULP energy per Si atom -5578.248299 kJ/mol
# Density = 2.006978 g / cm^3
# Si number density = 20.115568 Si / 1000 Ang^3
#
#
#
# Elastic Constant Matrix: (Units=GPa)
#
#
# Indices 1 2 3 4 5 6 
#
# 1 122.0221 61.9425 54.3316 0.0000 0.0000 0.0000
# 2 61.9425 145.6562 73.7123 0.0000 0.0000 0.0000
# 3 54.3316 73.7123 131.6668 0.0000 0.0000 0.0000
# 4 0.0000 0.0000 0.0000 38.0532 0.0000 0.0000
# 5 0.0000 0.0000 0.0000 0.0000 -80.2315 0.0000
# 6 0.0000 0.0000 0.0000 0.0000 0.0000 57.7494
#
#
#
# Elastic Compliance Matrix: (Units=1/GPa)
#
#
# Indices 1 2 3 4 5 6 
#
# 1 0.011101 -0.003353 -0.002704 0.000000 0.000000 0.000000
# 2 -0.003353 0.010592 -0.004546 0.000000 0.000000 0.000000
# 3 -0.002704 -0.004546 0.011256 0.000000 0.000000 0.000000
# 4 0.000000 0.000000 0.000000 0.026279 0.000000 0.000000
# 5 0.000000 0.000000 0.000000 0.000000 -0.012464 0.000000
# 6 0.000000 0.000000 0.000000 0.000000 0.000000 0.017316
#
#
# Mechanical properties :
#
#
# Convention : Reuss Voigt Hill
#
# Bulk Modulus (GPa) = 85.15507 86.59089 85.87298
# Shear Modulus (GPa) = 56.05358 17.07146 36.56252
#
# Velocity S-wave (km/s) = 5.28453 2.91635 4.26798
# Velocity P-wave (km/s) = 8.92524 7.38108 8.18963
#
# Compressibility (1/GPa) = 0.01174328
#
# Stress axis : x y z
#
# Youngs Moduli (GPa) = 90.08175 94.41093 88.84187
#
# Poissons Ratio (x) = 0.31651 0.24022
# Poissons Ratio (y) = 0.30200 0.40391
# Poissons Ratio (z) = 0.24357 0.42923
#
# Static dielectric constant tensor:
#      x y z
#    x 1.715430 0.000000 0.000000 
#    y 0.000000 1.813110 0.000000 
#    z 0.000000 0.000000 1.731470 
# 
# From -- ./inp_files/7670.got.cif
#   From: 2010.05.17/outbox.cif.g08.bks.cpg/sg21_4_cif.got.tgz:7670.got - 2010.06.03 23:14:55.
