data_PCOD9325349
_publ_section_title
;
Structure prediction by ZEFSAII (Michael W. Deem and Ramdas Pophale) SiO2 
 PCOD9325349
Probable space group: C 2 2 2
;
_chemical_formula_sum "Si O2"
_cell_formula_units_Z 56
_cell_length_a 14.328883
_cell_length_b 14.960093
_cell_length_c 12.240052
_cell_angle_alpha 90.000000
_cell_angle_beta 90.000000
_cell_angle_gamma 90.000000
_cell_volume 2623.794955
_symmetry_space_group_name_H-M "C 2 2 2"
_symmetry_group_IT_number 21
_symmetry_cell_setting 'orthorhombic'
loop_
_space_group_symop_operation_xyz
x,y,z
-x,-y,z
x,-y,-z
-x,y,-z
1/2+x,1/2+y,z
1/2-x,1/2-y,z
1/2+x,1/2-y,-z
1/2-x,1/2+y,-z
loop_
_atom_site_type_symbol
_atom_site_label
_atom_site_fract_x
_atom_site_fract_y
_atom_site_fract_z
Si Si1 0.240439 0.357695 0.840556
Si Si2 0.606876 0.584186 0.671045
Si Si3 0.914972 0.409730 0.568066
Si Si4 0.593494 0.376905 0.718047
Si Si5 0.711295 0.664728 0.473979
Si Si6 0.737499 0.642762 0.095184
Si Si7 0.099583 0.514932 0.809715
O O1 0.250000 0.250000 0.829588
O O2 0.315496 0.396794 0.759394
O O3 0.148423 0.416270 0.808477
O O4 0.265930 0.377476 0.966555
O O5 0.597005 0.477679 0.672207
O O6 0.516139 0.639999 0.708796
O O7 0.644232 0.611679 0.553310
O O8 0.908900 0.500000 0.500000
O O9 0.808925 0.376612 0.561808
O O10 0.928142 0.437139 0.694235
O O11 0.000000 0.360084 0.500000
O O12 0.652643 0.315561 0.635515
O O13 0.644409 0.377562 0.834612
O O14 0.750000 0.750000 0.538490
O O15 0.750000 0.750000 0.107207
O O16 0.823681 0.582923 0.139895
O O17 0.000000 0.500000 0.867669
#
# Coordination Sequence:
#
# PCOD9325349 Si02
#       7
#     8   8   8   8   8   8   8
#     4  11  25  46  69 101 140 182 230 294 354 414
#     4  11  24  41  67  97 129 178 227 284 342 416
#     4  11  22  39  65  96 131 179 223 272 345 414
#     4  11  23  42  68  96 129 176 231 281 345 411
#     4  12  24  41  63  95 137 177 222 282 348 421
#     4  11  25  46  71  99 138 183 233 292 353 415
#     4  12  24  44  75 106 140 185 239 292 355 428
#
# _framework density 21.343132000000001
#
# number of rings (size 3 to 8) (size 9 to 14) (size 15 to 20)
#    0.000    0.714    4.286    3.857    0.000    5.143 
#    0.000    4.286    0.000    0.000    0.000    0.000 
#    0.000    0.000    0.000    0.000    0.000    0.000 
#
# Total GULP energy -156045.253795 kJ/mol
# GULP energy per Si atom -5573.044778 kJ/mol
# Density = 2.129455 g / cm^3
# Si number density = 21.343132 Si / 1000 Ang^3
#
#
#
# Elastic Constant Matrix: (Units=GPa)
#
#
# Indices 1 2 3 4 5 6 
#
# 1 155.5337 11.5431 25.2875 0.0000 0.0000 0.0000
# 2 11.5431 57.0203 -5.1584 0.0000 0.0000 0.0000
# 3 25.2875 -5.1584 104.1706 0.0000 0.0000 0.0000
# 4 0.0000 0.0000 0.0000 58.2123 0.0000 0.0000
# 5 0.0000 0.0000 0.0000 0.0000 916.5728 0.0000
# 6 0.0000 0.0000 0.0000 0.0000 0.0000 0.9111
#
#
#
# Elastic Compliance Matrix: (Units=1/GPa)
#
#
# Indices 1 2 3 4 5 6 
#
# 1 0.006825 -0.001539 -0.001733 0.000000 0.000000 0.000000
# 2 -0.001539 0.017963 0.001263 0.000000 0.000000 0.000000
# 3 -0.001733 0.001263 0.010083 0.000000 0.000000 0.000000
# 4 0.000000 0.000000 0.000000 0.017179 0.000000 0.000000
# 5 0.000000 0.000000 0.000000 0.000000 0.001091 0.000000
# 6 0.000000 0.000000 0.000000 0.000000 0.000000 1.097566
#
#
# Mechanical properties :
#
#
# Convention : Reuss Voigt Hill
#
# Bulk Modulus (GPa) = 32.41022 42.22988 37.32005
# Shear Modulus (GPa) = 4.29181 214.14273 109.21727
#
# Velocity S-wave (km/s) = 1.41959 10.02752 7.16123
# Velocity P-wave (km/s) = 4.23146 12.40554 9.26829
#
# Compressibility (1/GPa) = 0.03085447
#
# Stress axis : x y z
#
# Youngs Moduli (GPa) = 146.51096 55.66901 99.17800
#
# Poissons Ratio (x) = 0.08565 0.17188
# Poissons Ratio (y) = 0.22541 -0.12526
# Poissons Ratio (z) = 0.25391 -0.07031
#
# Static dielectric constant tensor:
#      x y z
#    x 1.901530 0.000000 0.000000 
#    y 0.000000 1.762730 0.000000 
#    z 0.000000 0.000000 1.783440 
# 
# From -- ./inp_files/25284.got.cif
#   From: 2010.05.17/outbox.cif.g08.bks.cpg/sg21_13_cif.got.tgz:25284.got - 2010.06.03 23:14:55.
