data_PCOD9325444
_publ_section_title
;
Structure prediction by ZEFSAII (Michael W. Deem and Ramdas Pophale) SiO2 
 PCOD9325444
Probable space group: C 2 2 2
;
_chemical_formula_sum "Si O2"
_cell_formula_units_Z 28
_cell_length_a 11.110815
_cell_length_b 14.965624
_cell_length_c 7.969701
_cell_angle_alpha 90.000000
_cell_angle_beta 90.000000
_cell_angle_gamma 90.000000
_cell_volume 1325.204111
_symmetry_space_group_name_H-M "C 2 2 2"
_symmetry_group_IT_number 21
_symmetry_cell_setting 'orthorhombic'
loop_
_space_group_symop_operation_xyz
x,y,z
-x,-y,z
x,-y,-z
-x,y,-z
1/2+x,1/2+y,z
1/2-x,1/2-y,z
1/2+x,1/2-y,-z
1/2-x,1/2+y,-z
loop_
_atom_site_type_symbol
_atom_site_label
_atom_site_fract_x
_atom_site_fract_y
_atom_site_fract_z
Si Si1 0.209834 0.500000 0.000000
Si Si2 0.631659 0.540793 0.325557
Si Si3 0.868267 0.693322 0.041699
Si Si4 0.877482 0.247861 0.590670
O O1 0.289940 0.517844 0.835588
O O2 0.139136 0.592670 0.026817
O O3 0.500000 0.500000 0.302264
O O4 0.682069 0.500000 0.500000
O O5 0.611442 0.645961 0.348807
O O6 0.750000 0.750000 0.986587
O O7 0.862209 0.692178 0.244009
O O8 0.000000 0.733174 0.000000
O O9 0.750000 0.250000 0.492341
O O10 0.000000 0.273424 0.500000
#
# Coordination Sequence:
#
# PCOD9325444 Si02
#       4
#     4   8   8   8
#     4  12  24  46  72 102 159 182 251 306 377 442
#     4  11  23  41  72 109 141 195 253 305 373 438
#     4  11  26  45  70 107 143 194 244 300 376 442
#     4  11  23  46  70 108 148 186 252 310 370 446
#
# _framework density 21.128820999999999
#
# number of rings (size 3 to 8) (size 9 to 14) (size 15 to 20)
#    0.000    0.857    8.571    0.857    4.000    3.429 
#    0.000    0.000    0.000    0.000    0.000    0.000 
#    0.000    0.000    0.000    0.000    0.000    0.000 
#
# Total GULP energy -78167.427752 kJ/mol
# GULP energy per Si atom -5583.387697 kJ/mol
# Density = 2.108073 g / cm^3
# Si number density = 21.128821 Si / 1000 Ang^3
#
#
#
# Elastic Constant Matrix: (Units=GPa)
#
#
# Indices 1 2 3 4 5 6 
#
# 1 180.2849 21.9321 19.0273 0.0000 0.0000 0.0000
# 2 21.9321 105.2353 -8.3476 0.0000 0.0000 0.0000
# 3 19.0273 -8.3476 68.2701 0.0000 0.0000 0.0000
# 4 0.0000 0.0000 0.0000 28.7206 0.0000 0.0000
# 5 0.0000 0.0000 0.0000 0.0000 33.5377 0.0000
# 6 0.0000 0.0000 0.0000 0.0000 0.0000 32.6855
#
#
#
# Elastic Compliance Matrix: (Units=1/GPa)
#
#
# Indices 1 2 3 4 5 6 
#
# 1 0.005905 -0.001375 -0.001814 0.000000 0.000000 0.000000
# 2 -0.001375 0.009916 0.001596 0.000000 0.000000 0.000000
# 3 -0.001814 0.001596 0.015348 0.000000 0.000000 0.000000
# 4 0.000000 0.000000 0.000000 0.034818 0.000000 0.000000
# 5 0.000000 0.000000 0.000000 0.000000 0.029817 0.000000
# 6 0.000000 0.000000 0.000000 0.000000 0.000000 0.030595
#
#
# Mechanical properties :
#
#
# Convention : Reuss Voigt Hill
#
# Bulk Modulus (GPa) = 35.73570 46.55709 41.14640
# Shear Modulus (GPa) = 35.99365 40.40064 38.19715
#
# Velocity S-wave (km/s) = 4.13187 4.37751 4.25646
# Velocity P-wave (km/s) = 6.30183 6.90166 6.60855
#
# Compressibility (1/GPa) = 0.02798322
#
# Stress axis : x y z
#
# Youngs Moduli (GPa) = 169.33507 100.85156 65.15351
#
# Poissons Ratio (x) = 0.13863 0.11819
# Poissons Ratio (y) = 0.23278 -0.10395
# Poissons Ratio (z) = 0.30717 -0.16091
#
# Static dielectric constant tensor:
#      x y z
#    x 1.839170 0.000000 0.000000 
#    y 0.000000 1.764420 0.000000 
#    z 0.000000 0.000000 1.773400 
# 
# From -- ./inp_files/12029.got.cif
#   From: 2010.05.17/outbox.cif.g08.bks.cpg/sg21_7_cif.got.tgz:12029.got - 2010.06.03 23:14:55.
