data_PCOD9325741
_publ_section_title
;
Structure prediction by ZEFSAII (Michael W. Deem and Ramdas Pophale) SiO2 
 PCOD9325741
Probable space group: C 2 2 2
;
_chemical_formula_sum "Si O2"
_cell_formula_units_Z 28
_cell_length_a 8.035320
_cell_length_b 5.585507
_cell_length_c 26.518393
_cell_angle_alpha 90.000000
_cell_angle_beta 90.000000
_cell_angle_gamma 90.000000
_cell_volume 1190.180909
_symmetry_space_group_name_H-M "C 2 2 2"
_symmetry_group_IT_number 21
_symmetry_cell_setting 'orthorhombic'
loop_
_space_group_symop_operation_xyz
x,y,z
-x,-y,z
x,-y,-z
-x,y,-z
1/2+x,1/2+y,z
1/2-x,1/2-y,z
1/2+x,1/2-y,-z
1/2-x,1/2+y,-z
loop_
_atom_site_type_symbol
_atom_site_label
_atom_site_fract_x
_atom_site_fract_y
_atom_site_fract_z
Si Si1 0.750000 0.250000 0.076265
Si Si2 0.750000 0.250000 0.573487
Si Si3 0.000000 0.000000 0.701914
Si Si4 0.000000 0.000000 0.000000
Si Si5 0.000000 0.000000 0.500000
Si Si6 0.750000 0.750000 0.225847
Si Si7 0.500000 0.000000 0.151614
Si Si8 0.250000 0.250000 0.634494
O O1 0.856988 0.409313 0.114213
O O2 0.617803 0.360740 0.038164
O O3 0.601761 0.324797 0.536426
O O4 0.774078 0.497742 0.604827
O O5 0.843684 0.069238 0.736913
O O6 0.081606 0.203196 0.666829
O O7 0.600217 0.829440 0.189345
#
# Coordination Sequence:
#
# PCOD9325741 Si02
#       8
#     4   4   4   2   2   4   4   4
#     4  12  24  42  66  96 134 180 230 292 356 428
#     4  12  30  52  80 114 154 200 252 310 374 448
#     4  12  27  47  74 107 146 191 242 303 369 440
#     4  12  24  42  64  96 134 176 232 290 356 428
#     4  12  30  52  80 114 154 200 252 310 374 444
#     4  12  25  45  70 103 140 185 238 297 361 436
#     4  12  24  43  68  98 136 182 234 291 360 432
#     4  12  29  51  78 113 152 199 250 309 377 448
#
# _framework density 23.525834
#
# number of rings (size 3 to 8) (size 9 to 14) (size 15 to 20)
#    0.000    0.000    0.000    9.429    0.000   15.429 
#    0.000    0.000    0.000    0.000    0.000    0.000 
#    0.000    0.000    0.000    0.000    0.000    0.000 
#
# Total GULP energy -78281.474968 kJ/mol
# GULP energy per Si atom -5591.533926 kJ/mol
# Density = 2.347229 g / cm^3
# Si number density = 23.525834 Si / 1000 Ang^3
#
#
#
# Elastic Constant Matrix: (Units=GPa)
#
#
# Indices 1 2 3 4 5 6 
#
# 1 112.3288 53.8479 55.2351 0.0000 0.0000 0.0000
# 2 53.8479 134.7241 96.0930 0.0000 0.0000 0.0000
# 3 55.2351 96.0930 170.5170 0.0000 0.0000 0.0000
# 4 0.0000 0.0000 0.0000 77.6248 0.0000 0.0000
# 5 0.0000 0.0000 0.0000 0.0000 109.0829 0.0000
# 6 0.0000 0.0000 0.0000 0.0000 0.0000 69.7959
#
#
#
# Elastic Compliance Matrix: (Units=1/GPa)
#
#
# Indices 1 2 3 4 5 6 
#
# 1 0.011360 -0.003203 -0.001875 0.000000 0.000000 0.000000
# 2 -0.003203 0.013315 -0.006466 0.000000 0.000000 0.000000
# 3 -0.001875 -0.006466 0.010115 0.000000 0.000000 0.000000
# 4 0.000000 0.000000 0.000000 0.012882 0.000000 0.000000
# 5 0.000000 0.000000 0.000000 0.000000 0.009167 0.000000
# 6 0.000000 0.000000 0.000000 0.000000 0.000000 0.014327
#
#
# Mechanical properties :
#
#
# Convention : Reuss Voigt Hill
#
# Bulk Modulus (GPa) = 85.45038 91.99132 88.72085
# Shear Modulus (GPa) = 50.93978 65.46030 58.20004
#
# Velocity S-wave (km/s) = 4.65829 5.28065 4.97921
# Velocity P-wave (km/s) = 8.08293 8.73885 8.41728
#
# Compressibility (1/GPa) = 0.01170270
#
# Stress axis : x y z
#
# Youngs Moduli (GPa) = 88.02955 75.10549 98.85945
#
# Poissons Ratio (x) = 0.24059 0.18531
# Poissons Ratio (y) = 0.28199 0.63919
# Poissons Ratio (z) = 0.16501 0.48561
#
# Static dielectric constant tensor:
#      x y z
#    x 1.820630 0.000000 0.000000 
#    y 0.000000 1.909780 0.000000 
#    z 0.000000 0.000000 2.153540 
# 
# From -- ./inp_files/38946.got.cif
#   From: 2010.05.17/outbox.cif.g08.bks.cpg/sg21_20_cif.got.tgz:38946.got - 2010.06.03 23:14:55.
