data_PCOD9325505
_publ_section_title
;
Structure prediction by ZEFSAII (Michael W. Deem and Ramdas Pophale) SiO2 
 PCOD9325505
Probable space group: C 2 2 2
;
_chemical_formula_sum "Si O2"
_cell_formula_units_Z 56
_cell_length_a 20.129456
_cell_length_b 8.142433
_cell_length_c 15.491274
_cell_angle_alpha 90.000000
_cell_angle_beta 90.000000
_cell_angle_gamma 90.000000
_cell_volume 2539.062360
_symmetry_space_group_name_H-M "C 2 2 2"
_symmetry_group_IT_number 21
_symmetry_cell_setting 'orthorhombic'
loop_
_space_group_symop_operation_xyz
x,y,z
-x,-y,z
x,-y,-z
-x,y,-z
1/2+x,1/2+y,z
1/2-x,1/2-y,z
1/2+x,1/2-y,-z
1/2-x,1/2+y,-z
loop_
_atom_site_type_symbol
_atom_site_label
_atom_site_fract_x
_atom_site_fract_y
_atom_site_fract_z
Si Si1 0.778340 0.435132 0.906624
Si Si2 0.057159 0.868948 0.238673
Si Si3 0.991063 0.301075 0.597864
Si Si4 0.306500 0.437297 0.255728
Si Si5 0.777035 0.566861 0.595513
Si Si6 0.623865 0.876793 0.300572
Si Si7 0.571289 0.963243 0.860591
O O1 0.750000 0.250000 0.907890
O O2 0.741360 0.503678 0.820731
O O3 0.857623 0.479291 0.900204
O O4 0.756316 0.500000 0.000000
O O5 0.069369 0.726212 0.168335
O O6 0.035405 0.788616 0.330327
O O7 0.125075 0.966802 0.247651
O O8 0.000000 0.000000 0.213908
O O9 0.915219 0.275487 0.627577
O O10 0.000000 0.500000 0.599376
O O11 0.000000 0.244677 0.500000
O O12 0.276684 0.465985 0.350089
O O13 0.324608 0.244033 0.253777
O O14 0.788085 0.500000 0.500000
O O15 0.750000 0.750000 0.592882
O O16 0.842138 0.531595 0.653356
O O17 0.572181 0.933011 0.228675
O O18 0.500000 0.000000 0.903780
#
# Coordination Sequence:
#
# PCOD9325505 Si02
#       7
#     8   8   8   8   8   8   8
#     4  12  29  51  81 116 152 194 251 316 391 469
#     4  12  24  42  70 110 144 195 255 309 373 448
#     4  11  24  40  63 101 142 199 251 308 371 446
#     4  12  25  45  75 103 148 196 248 310 379 444
#     4  12  27  42  66 101 140 192 249 306 372 448
#     4  12  21  46  69  99 144 198 242 308 371 442
#     4  12  23  46  79 104 147 198 251 303 379 443
#
# _framework density 22.055385999999999
#
# number of rings (size 3 to 8) (size 9 to 14) (size 15 to 20)
#    0.000    0.143    7.143    2.143    4.000    1.714 
#    0.000    0.000    0.000    0.429    0.000    0.000 
#    0.000    0.000    0.000    0.000    0.000    0.000 
#
# Total GULP energy -156384.664061 kJ/mol
# GULP energy per Si atom -5585.166574 kJ/mol
# Density = 2.200519 g / cm^3
# Si number density = 22.055386 Si / 1000 Ang^3
#
#
#
# Elastic Constant Matrix: (Units=GPa)
#
#
# Indices 1 2 3 4 5 6 
#
# 1 145.1470 34.1225 40.2350 0.0000 0.0000 0.0000
# 2 34.1225 98.5535 29.5412 0.0000 0.0000 0.0000
# 3 40.2350 29.5412 115.7410 0.0000 0.0000 0.0000
# 4 0.0000 0.0000 0.0000 19.4919 0.0000 0.0000
# 5 0.0000 0.0000 0.0000 0.0000 -3.5421 0.0000
# 6 0.0000 0.0000 0.0000 0.0000 0.0000 44.6689
#
#
#
# Elastic Compliance Matrix: (Units=1/GPa)
#
#
# Indices 1 2 3 4 5 6 
#
# 1 0.008006 -0.002098 -0.002248 0.000000 0.000000 0.000000
# 2 -0.002098 0.011537 -0.002215 0.000000 0.000000 0.000000
# 3 -0.002248 -0.002215 0.009987 0.000000 0.000000 0.000000
# 4 0.000000 0.000000 0.000000 0.051303 0.000000 0.000000
# 5 0.000000 0.000000 0.000000 0.000000 -0.282318 0.000000
# 6 0.000000 0.000000 0.000000 0.000000 0.000000 0.022387
#
#
# Mechanical properties :
#
#
# Convention : Reuss Voigt Hill
#
# Bulk Modulus (GPa) = 60.94687 63.02653 61.98670
# Shear Modulus (GPa) = -31.15142 29.15994 -0.99574
#
# Velocity S-wave (km/s) = -3.76229 3.64005 -0.67265
# Velocity P-wave (km/s) = 2.96992 6.80478 5.25002
#
# Compressibility (1/GPa) = 0.01640773
#
# Stress axis : x y z
#
# Youngs Moduli (GPa) = 124.90862 86.67552 100.13304
#
# Poissons Ratio (x) = 0.18186 0.22505
# Poissons Ratio (y) = 0.26208 0.22183
# Poissons Ratio (z) = 0.28074 0.19201
#
# Static dielectric constant tensor:
#      x y z
#    x 1.870560 0.000000 0.000000 
#    y 0.000000 1.845190 0.000000 
#    z 0.000000 0.000000 1.787500 
# 
# From -- ./inp_files/33295.got.cif
#   From: 2010.05.17/outbox.cif.g08.bks.cpg/sg21_17_cif.got.tgz:33295.got - 2010.06.03 23:14:55.
