data_PCOD9325259
_publ_section_title
;
Structure prediction by ZEFSAII (Michael W. Deem and Ramdas Pophale) SiO2 
 PCOD9325259
Probable space group: C 2 2 2
;
_chemical_formula_sum "Si O2"
_cell_formula_units_Z 40
_cell_length_a 14.987983
_cell_length_b 11.977179
_cell_length_c 11.039888
_cell_angle_alpha 90.000000
_cell_angle_beta 90.000000
_cell_angle_gamma 90.000000
_cell_volume 1981.811752
_symmetry_space_group_name_H-M "C 2 2 2"
_symmetry_group_IT_number 21
_symmetry_cell_setting 'orthorhombic'
loop_
_space_group_symop_operation_xyz
x,y,z
-x,-y,z
x,-y,-z
-x,y,-z
1/2+x,1/2+y,z
1/2-x,1/2-y,z
1/2+x,1/2-y,-z
1/2-x,1/2+y,-z
loop_
_atom_site_type_symbol
_atom_site_label
_atom_site_fract_x
_atom_site_fract_y
_atom_site_fract_z
Si Si1 0.270205 0.368383 0.767358
Si Si2 0.348232 0.744711 0.756591
Si Si3 0.895117 0.512058 0.145125
Si Si4 0.906079 0.034764 0.639689
Si Si5 0.603459 0.633520 0.996287
O O1 0.250000 0.250000 0.703357
O O2 0.175992 0.424074 0.802634
O O3 0.326363 0.463178 0.697795
O O4 0.334296 0.337059 0.882148
O O5 0.250000 0.750000 0.704575
O O6 0.374700 0.867633 0.797126
O O7 0.401453 0.666961 0.663660
O O8 0.349836 0.675740 0.882167
O O9 0.000000 0.500000 0.169743
O O10 0.883359 0.500000 0.000000
O O11 0.907286 0.000000 0.500000
O O12 0.000000 0.000000 0.699197
O O13 0.600041 0.500000 0.000000
O O14 0.500000 0.675776 0.000000
#
# Coordination Sequence:
#
# PCOD9325259 Si02
#       5
#     8   8   8   8   8
#     4  12  24  42  65  98 137 171 224 282 337 409
#     4  12  22  41  68  92 136 174 213 277 336 406
#     4  11  25  41  62 103 144 178 212 260 344 421
#     4  11  26  47  70  96 124 175 239 289 339 390
#     4  11  21  34  62 100 132 168 221 271 336 408
#
# _framework density 20.183551999999999
#
# number of rings (size 3 to 8) (size 9 to 14) (size 15 to 20)
#    0.000    0.600    4.000    4.800    8.400    0.800 
#    0.000    0.000    0.000    0.600    0.000    0.000 
#    0.000    0.000    0.000    0.000    0.000    0.000 
#
# Total GULP energy -111638.425629 kJ/mol
# GULP energy per Si atom -5581.921281 kJ/mol
# Density = 2.013761 g / cm^3
# Si number density = 20.183552 Si / 1000 Ang^3
#
#
#
# Elastic Constant Matrix: (Units=GPa)
#
#
# Indices 1 2 3 4 5 6 
#
# 1 137.3118 51.5656 5.4905 0.0000 0.0000 0.0000
# 2 51.5656 154.1769 20.6357 0.0000 0.0000 0.0000
# 3 5.4905 20.6357 46.1239 0.0000 0.0000 0.0000
# 4 0.0000 0.0000 0.0000 25.3893 0.0000 0.0000
# 5 0.0000 0.0000 0.0000 0.0000 77.2030 0.0000
# 6 0.0000 0.0000 0.0000 0.0000 0.0000 27.0468
#
#
#
# Elastic Compliance Matrix: (Units=1/GPa)
#
#
# Indices 1 2 3 4 5 6 
#
# 1 0.008332 -0.002823 0.000271 0.000000 0.000000 0.000000
# 2 -0.002823 0.007856 -0.003179 0.000000 0.000000 0.000000
# 3 0.000271 -0.003179 0.023071 0.000000 0.000000 0.000000
# 4 0.000000 0.000000 0.000000 0.039387 0.000000 0.000000
# 5 0.000000 0.000000 0.000000 0.000000 0.012953 0.000000
# 6 0.000000 0.000000 0.000000 0.000000 0.000000 0.036973
#
#
# Mechanical properties :
#
#
# Convention : Reuss Voigt Hill
#
# Bulk Modulus (GPa) = 35.97455 54.77737 45.37596
# Shear Modulus (GPa) = 33.49026 43.25588 38.37307
#
# Velocity S-wave (km/s) = 4.07785 4.63441 4.36501
# Velocity P-wave (km/s) = 6.32726 7.47232 6.92350
#
# Compressibility (1/GPa) = 0.02779743
#
# Stress axis : x y z
#
# Youngs Moduli (GPa) = 120.01935 127.29683 43.34534
#
# Poissons Ratio (x) = 0.35936 -0.01175
# Poissons Ratio (y) = 0.33881 0.13778
# Poissons Ratio (z) = -0.03254 0.40462
#
# Static dielectric constant tensor:
#      x y z
#    x 1.765030 0.000000 0.000000 
#    y 0.000000 1.643410 0.000000 
#    z 0.000000 0.000000 1.707560 
# 
# From -- ./inp_files/23768.got.cif
#   From: 2010.05.17/outbox.cif.g08.bks.cpg/sg21_12_cif.got.tgz:23768.got - 2010.06.03 23:14:55.
