data_PCOD9325757
_publ_section_title
;
Structure prediction by ZEFSAII (Michael W. Deem and Ramdas Pophale) SiO2 
 PCOD9325757
Probable space group: C 2 2 2
;
_chemical_formula_sum "Si O2"
_cell_formula_units_Z 24
_cell_length_a 5.506654
_cell_length_b 17.335638
_cell_length_c 11.027943
_cell_angle_alpha 90.000000
_cell_angle_beta 90.000000
_cell_angle_gamma 90.000000
_cell_volume 1052.742440
_symmetry_space_group_name_H-M "C 2 2 2"
_symmetry_group_IT_number 21
_symmetry_cell_setting 'orthorhombic'
loop_
_space_group_symop_operation_xyz
x,y,z
-x,-y,z
x,-y,-z
-x,y,-z
1/2+x,1/2+y,z
1/2-x,1/2-y,z
1/2+x,1/2-y,-z
1/2-x,1/2+y,-z
loop_
_atom_site_type_symbol
_atom_site_label
_atom_site_fract_x
_atom_site_fract_y
_atom_site_fract_z
Si Si1 0.500000 0.353502 0.500000
Si Si2 0.250847 0.451950 0.316955
Si Si3 0.107741 0.330565 0.127031
Si Si4 0.250000 0.250000 0.696363
O O1 0.285037 0.404712 0.442816
O O2 0.419487 0.299286 0.609156
O O3 0.500000 0.500000 0.310568
O O4 0.253395 0.394439 0.201501
O O5 0.000000 0.500000 0.314600
O O6 0.250000 0.250000 0.104752
O O7 0.893907 0.307771 0.218380
O O8 0.000000 0.358466 0.000000
#
# Coordination Sequence:
#
# PCOD9325757 Si02
#       4
#     4   8   8   4
#     4  12  25  46  80 110 159 202 250 316 383 460
#     4  12  29  51  76 116 161 204 252 311 389 462
#     4  12  26  50  79 109 145 203 262 322 375 451
#     4  12  24  46  76 116 148 190 270 318 378 440
#
# _framework density 22.797598000000001
#
# number of rings (size 3 to 8) (size 9 to 14) (size 15 to 20)
#    0.000    0.000    5.000    4.500    0.000    8.667 
#    0.000    5.000    0.000    0.000    0.000    0.000 
#    0.000    0.000    0.000    0.000    0.000    0.000 
#
# Total GULP energy -67236.951700 kJ/mol
# GULP energy per Si atom -5603.079308 kJ/mol
# Density = 2.274571 g / cm^3
# Si number density = 22.797598 Si / 1000 Ang^3
#
#
#
# Elastic Constant Matrix: (Units=GPa)
#
#
# Indices 1 2 3 4 5 6 
#
# 1 112.4950 40.4559 44.7415 0.0000 0.0000 0.0000
# 2 40.4559 76.9142 41.6503 0.0000 0.0000 0.0000
# 3 44.7415 41.6503 170.1020 0.0000 0.0000 0.0000
# 4 0.0000 0.0000 0.0000 205.2052 0.0000 0.0000
# 5 0.0000 0.0000 0.0000 0.0000 46.2554 0.0000
# 6 0.0000 0.0000 0.0000 0.0000 0.0000 36.2742
#
#
#
# Elastic Compliance Matrix: (Units=1/GPa)
#
#
# Indices 1 2 3 4 5 6 
#
# 1 0.011405 -0.005043 -0.001765 0.000000 0.000000 0.000000
# 2 -0.005043 0.017219 -0.002890 0.000000 0.000000 0.000000
# 3 -0.001765 -0.002890 0.007051 0.000000 0.000000 0.000000
# 4 0.000000 0.000000 0.000000 0.004873 0.000000 0.000000
# 5 0.000000 0.000000 0.000000 0.000000 0.021619 0.000000
# 6 0.000000 0.000000 0.000000 0.000000 0.000000 0.027568
#
#
# Mechanical properties :
#
#
# Convention : Reuss Voigt Hill
#
# Bulk Modulus (GPa) = 61.42895 68.13406 64.78151
# Shear Modulus (GPa) = 43.64675 73.05787 58.35231
#
# Velocity S-wave (km/s) = 4.38028 5.66709 5.06472
# Velocity P-wave (km/s) = 7.25165 8.53068 7.91704
#
# Compressibility (1/GPa) = 0.01627897
#
# Stress axis : x y z
#
# Youngs Moduli (GPa) = 87.68200 58.07577 141.83170
#
# Poissons Ratio (x) = 0.29288 0.25033
# Poissons Ratio (y) = 0.44218 0.40985
# Poissons Ratio (z) = 0.15476 0.16782
#
# Static dielectric constant tensor:
#      x y z
#    x 1.855050 0.000000 0.000000 
#    y 0.000000 1.924390 0.000000 
#    z 0.000000 0.000000 1.786350 
# 
# From -- ./inp_files/20300.got.cif
#   From: 2010.05.17/outbox.cif.g08.bks.cpg/sg21_11_cif.got.tgz:20300.got - 2010.06.03 23:14:55.
