data_PCOD9325398
_publ_section_title
;
Structure prediction by ZEFSAII (Michael W. Deem and Ramdas Pophale) SiO2 
 PCOD9325398
Probable space group: C 2 2 2
;
_chemical_formula_sum "Si O2"
_cell_formula_units_Z 38
_cell_length_a 8.782288
_cell_length_b 12.392544
_cell_length_c 16.905155
_cell_angle_alpha 90.000000
_cell_angle_beta 90.000000
_cell_angle_gamma 90.000000
_cell_volume 1839.870693
_symmetry_space_group_name_H-M "C 2 2 2"
_symmetry_group_IT_number 21
_symmetry_cell_setting 'orthorhombic'
loop_
_space_group_symop_operation_xyz
x,y,z
-x,-y,z
x,-y,-z
-x,y,-z
1/2+x,1/2+y,z
1/2-x,1/2-y,z
1/2+x,1/2-y,-z
1/2-x,1/2+y,-z
loop_
_atom_site_type_symbol
_atom_site_label
_atom_site_fract_x
_atom_site_fract_y
_atom_site_fract_z
Si Si1 0.186373 0.514364 0.408436
Si Si2 0.000000 0.000000 0.185954
Si Si3 0.367831 0.161233 0.291510
Si Si4 0.500000 0.000000 0.000000
Si Si5 0.205662 0.623675 0.875572
Si Si6 0.126072 0.178952 0.695587
O O1 0.224731 0.500000 0.500000
O O2 0.223127 0.415618 0.350825
O O3 0.281182 0.615192 0.373136
O O4 0.000000 0.500000 0.402233
O O5 0.943148 0.093999 0.244666
O O6 0.140462 0.052911 0.138337
O O7 0.250000 0.250000 0.266755
O O8 0.395548 0.109097 0.206041
O O9 0.503760 0.230131 0.330370
O O10 0.607059 0.074835 0.945828
O O11 0.250000 0.750000 0.890630
O O12 0.250000 0.250000 0.741131
#
# Coordination Sequence:
#
# PCOD9325398 Si02
#       6
#     8   4   8   2   8   8
#     4  11  24  42  62 101 147 183 239 301 350 411
#     4  12  24  43  75 104 136 182 232 288 345 421
#     4  11  22  45  72  98 139 184 239 291 344 425
#     4  12  32  46  76 110 142 182 224 292 356 416
#     4  11  26  49  74 106 144 182 231 287 349 427
#     4  12  23  40  72 104 127 190 243 283 352 411
#
# _framework density 20.653625000000002
#
# number of rings (size 3 to 8) (size 9 to 14) (size 15 to 20)
#    0.000    0.632    8.421    0.000    4.421    2.947 
#    0.000    3.684    0.000    0.000    0.000    0.000 
#    0.000    0.000    0.000    0.000    0.000    0.000 
#
# Total GULP energy -105768.206528 kJ/mol
# GULP energy per Si atom -5566.747712 kJ/mol
# Density = 2.060662 g / cm^3
# Si number density = 20.653625 Si / 1000 Ang^3
#
#
#
# Elastic Constant Matrix: (Units=GPa)
#
#
# Indices 1 2 3 4 5 6 
#
# 1 109.1575 60.2710 56.0585 0.0000 0.0000 0.0000
# 2 60.2710 131.9357 69.1381 0.0000 0.0000 0.0000
# 3 56.0585 69.1381 136.5351 0.0000 0.0000 0.0000
# 4 0.0000 0.0000 0.0000 12.7709 0.0000 0.0000
# 5 0.0000 0.0000 0.0000 0.0000 26.2615 0.0000
# 6 0.0000 0.0000 0.0000 0.0000 0.0000 60.8584
#
#
#
# Elastic Compliance Matrix: (Units=1/GPa)
#
#
# Indices 1 2 3 4 5 6 
#
# 1 0.013218 -0.004348 -0.003225 0.000000 0.000000 0.000000
# 2 -0.004348 0.011748 -0.004163 0.000000 0.000000 0.000000
# 3 -0.003225 -0.004163 0.010757 0.000000 0.000000 0.000000
# 4 0.000000 0.000000 0.000000 0.078303 0.000000 0.000000
# 5 0.000000 0.000000 0.000000 0.000000 0.038078 0.000000
# 6 0.000000 0.000000 0.000000 0.000000 0.000000 0.016432
#
#
# Mechanical properties :
#
#
# Convention : Reuss Voigt Hill
#
# Bulk Modulus (GPa) = 81.64202 83.17370 82.40786
# Shear Modulus (GPa) = 25.49821 32.78888 29.14355
#
# Velocity S-wave (km/s) = 3.51745 3.98874 3.76049
# Velocity P-wave (km/s) = 7.49076 7.84676 7.67083
#
# Compressibility (1/GPa) = 0.01224859
#
# Stress axis : x y z
#
# Youngs Moduli (GPa) = 75.65249 85.12413 92.96603
#
# Poissons Ratio (x) = 0.37014 0.29985
# Poissons Ratio (y) = 0.32896 0.38705
# Poissons Ratio (z) = 0.24400 0.35440
#
# Static dielectric constant tensor:
#      x y z
#    x 1.656940 0.000000 0.000000 
#    y 0.000000 1.771140 0.000000 
#    z 0.000000 0.000000 1.730830 
# 
# From -- ./inp_files/35491.got.cif
#   From: 2010.05.17/outbox.cif.g08.bks.cpg/sg21_18_cif.got.tgz:35491.got - 2010.06.03 23:14:55.
