data_PCOD9325546
_publ_section_title
;
Structure prediction by ZEFSAII (Michael W. Deem and Ramdas Pophale) SiO2 
 PCOD9325546
Probable space group: C 2 2 2
;
_chemical_formula_sum "Si O2"
_cell_formula_units_Z 34
_cell_length_a 6.912049
_cell_length_b 7.938889
_cell_length_c 27.842718
_cell_angle_alpha 90.000000
_cell_angle_beta 90.000000
_cell_angle_gamma 90.000000
_cell_volume 1527.841023
_symmetry_space_group_name_H-M "C 2 2 2"
_symmetry_group_IT_number 21
_symmetry_cell_setting 'orthorhombic'
loop_
_space_group_symop_operation_xyz
x,y,z
-x,-y,z
x,-y,-z
-x,y,-z
1/2+x,1/2+y,z
1/2-x,1/2-y,z
1/2+x,1/2-y,-z
1/2-x,1/2+y,-z
loop_
_atom_site_type_symbol
_atom_site_label
_atom_site_fract_x
_atom_site_fract_y
_atom_site_fract_z
Si Si1 0.750000 0.750000 0.434597
Si Si2 0.000000 0.000000 0.500000
Si Si3 0.778069 0.945426 0.715655
Si Si4 0.500000 0.000000 0.371858
Si Si5 0.500000 0.000000 0.207355
Si Si6 0.750000 0.750000 0.859625
Si Si7 0.462951 0.305088 0.052967
O O1 0.636732 0.615853 0.467147
O O2 0.912019 0.651201 0.403413
O O3 0.750000 0.750000 0.730972
O O4 0.675754 0.954936 0.664001
O O5 0.660116 0.062029 0.753536
O O6 0.000000 0.000000 0.714038
O O7 0.361102 0.885769 0.173790
O O8 0.583568 0.720638 0.899044
O O9 0.500000 0.500000 0.045211
O O10 0.250000 0.250000 0.065177
O O11 0.500000 0.221714 0.000000
#
# Coordination Sequence:
#
# PCOD9325546 Si02
#       7
#     4   2   8   4   4   4   8
#     4  12  26  48  76 111 163 198 270 298 386 428
#     4  12  28  48  72 112 158 218 240 326 364 446
#     4  11  25  49  77 111 152 192 249 313 379 438
#     4  11  26  43  80 117 143 206 255 324 357 460
#     4  11  26  46  71 109 149 189 244 298 377 456
#     4  12  24  48  68 107 133 196 234 300 370 456
#     4  11  24  44  70 102 138 184 238 301 355 434
#
# _framework density 22.253623999999999
#
# number of rings (size 3 to 8) (size 9 to 14) (size 15 to 20)
#    0.000    0.706    2.353    4.235    4.941    5.647 
#    4.235    0.000    0.000    0.000    0.000    0.000 
#    0.000    0.000    0.000    0.000    0.000    0.000 
#
# Total GULP energy -94720.670846 kJ/mol
# GULP energy per Si atom -5571.804167 kJ/mol
# Density = 2.220297 g / cm^3
# Si number density = 22.253624 Si / 1000 Ang^3
#
#
#
# Elastic Constant Matrix: (Units=GPa)
#
#
# Indices 1 2 3 4 5 6 
#
# 1 242.6576 81.7098 99.9589 0.0000 0.0000 0.0000
# 2 81.7098 100.2088 76.7934 0.0000 0.0000 0.0000
# 3 99.9589 76.7934 198.0815 0.0000 0.0000 0.0000
# 4 0.0000 0.0000 0.0000-4117.3588 0.0000 0.0000
# 5 0.0000 0.0000 0.0000 0.0000 -44.1151 0.0000
# 6 0.0000 0.0000 0.0000 0.0000 0.0000 52.4259
#
#
#
# Elastic Compliance Matrix: (Units=1/GPa)
#
#
# Indices 1 2 3 4 5 6 
#
# 1 0.006023 -0.003674 -0.001615 0.000000 0.000000 0.000000
# 2 -0.003674 0.016437 -0.004519 0.000000 0.000000 0.000000
# 3 -0.001615 -0.004519 0.007616 0.000000 0.000000 0.000000
# 4 0.000000 0.000000 0.000000 -0.000243 0.000000 0.000000
# 5 0.000000 0.000000 0.000000 0.000000 -0.022668 0.000000
# 6 0.000000 0.000000 0.000000 0.000000 0.000000 0.019075
#
#
# Mechanical properties :
#
#
# Convention : Reuss Voigt Hill
#
# Bulk Modulus (GPa) = 95.59434 117.54134 106.56784
# Shear Modulus (GPa) = 101.33238 -802.97720 -350.82241
#
# Velocity S-wave (km/s) = 6.75530 -19.01613 -12.56939
# Velocity P-wave (km/s) = 10.19291 20.71756 12.75386
#
# Compressibility (1/GPa) = 0.01046087
#
# Stress axis : x y z
#
# Youngs Moduli (GPa) = 166.01675 60.83688 131.31081
#
# Poissons Ratio (x) = 0.22349 0.21213
# Poissons Ratio (y) = 0.60986 0.59336
# Poissons Ratio (z) = 0.26820 0.27491
#
# Static dielectric constant tensor:
#      x y z
#    x 3.112010 0.000000 0.000000 
#    y 0.000000 1.931660 0.000000 
#    z 0.000000 0.000000 2.005180 
# 
# From -- ./inp_files/39447.got.cif
#   From: 2010.05.17/outbox.cif.g08.bks.cpg/sg21_20_cif.got.tgz:39447.got - 2010.06.03 23:14:55.
