data_PCOD9325426
_publ_section_title
;
Structure prediction by ZEFSAII (Michael W. Deem and Ramdas Pophale) SiO2 
 PCOD9325426
Probable space group: C 2 2 2
;
_chemical_formula_sum "Si O2"
_cell_formula_units_Z 26
_cell_length_a 14.615103
_cell_length_b 15.909639
_cell_length_c 5.140993
_cell_angle_alpha 90.000000
_cell_angle_beta 90.000000
_cell_angle_gamma 90.000000
_cell_volume 1195.388899
_symmetry_space_group_name_H-M "C 2 2 2"
_symmetry_group_IT_number 21
_symmetry_cell_setting 'orthorhombic'
loop_
_space_group_symop_operation_xyz
x,y,z
-x,-y,z
x,-y,-z
-x,y,-z
1/2+x,1/2+y,z
1/2-x,1/2-y,z
1/2+x,1/2-y,-z
1/2-x,1/2+y,-z
loop_
_atom_site_type_symbol
_atom_site_label
_atom_site_fract_x
_atom_site_fract_y
_atom_site_fract_z
Si Si1 0.500000 0.273521 0.000000
Si Si2 0.858345 0.909342 0.858674
Si Si3 0.168523 0.445506 0.738858
Si Si4 0.500000 0.500000 0.500000
Si Si5 0.000000 0.656811 0.500000
O O1 0.588277 0.334057 0.007237
O O2 0.483755 0.215654 0.251318
O O3 0.753683 0.885093 0.804257
O O4 0.930254 0.936500 0.638958
O O5 0.849649 0.000000 0.000000
O O6 0.208242 0.500000 0.500000
O O7 0.082319 0.401089 0.605992
O O8 0.145158 0.500000 0.000000
#
# Coordination Sequence:
#
# PCOD9325426 Si02
#       5
#     4   8   8   2   4
#     4  12  25  44  69 102 154 184 216 292 357 428
#     4  11  23  40  72 107 135 185 239 289 344 408
#     4  11  25  47  76 101 131 183 249 293 332 413
#     4  12  16  40  68 106 140 162 242 286 354 384
#     4  12  28  46  69 103 146 194 220 282 368 412
#
# _framework density 21.750245
#
# number of rings (size 3 to 8) (size 9 to 14) (size 15 to 20)
#    0.000    0.615    4.615    3.231    0.000    2.462 
#    0.000    6.154    0.000    0.000    0.000    0.000 
#    0.000    0.000    0.000    0.000    0.000    0.000 
#
# Total GULP energy -72482.639857 kJ/mol
# GULP energy per Si atom -5575.587681 kJ/mol
# Density = 2.170074 g / cm^3
# Si number density = 21.750245 Si / 1000 Ang^3
#
#
#
# Elastic Constant Matrix: (Units=GPa)
#
#
# Indices 1 2 3 4 5 6 
#
# 1 202.7182 56.6708 50.9682 0.0000 0.0000 0.0000
# 2 56.6708 70.8152 44.6829 0.0000 0.0000 0.0000
# 3 50.9682 44.6829 139.4616 0.0000 0.0000 0.0000
# 4 0.0000 0.0000 0.0000 48.6201 0.0000 0.0000
# 5 0.0000 0.0000 0.0000 0.0000 39.0852 0.0000
# 6 0.0000 0.0000 0.0000 0.0000 0.0000 -10.3442
#
#
#
# Elastic Compliance Matrix: (Units=1/GPa)
#
#
# Indices 1 2 3 4 5 6 
#
# 1 0.006440 -0.004598 -0.000880 0.000000 0.000000 0.000000
# 2 -0.004598 0.020982 -0.005042 0.000000 0.000000 0.000000
# 3 -0.000880 -0.005042 0.009108 0.000000 0.000000 0.000000
# 4 0.000000 0.000000 0.000000 0.020568 0.000000 0.000000
# 5 0.000000 0.000000 0.000000 0.000000 0.025585 0.000000
# 6 0.000000 0.000000 0.000000 0.000000 0.000000 -0.096673
#
#
# Mechanical properties :
#
#
# Convention : Reuss Voigt Hill
#
# Bulk Modulus (GPa) = 64.56339 79.73764 72.15051
# Shear Modulus (GPa) = 409.37060 32.85043 221.11051
#
# Velocity S-wave (km/s) = 13.73400 3.89054 10.09354
# Velocity P-wave (km/s) = 16.77038 7.54466 13.00322
#
# Compressibility (1/GPa) = 0.01548865
#
# Stress axis : x y z
#
# Youngs Moduli (GPa) = 155.28737 47.65890 109.79754
#
# Poissons Ratio (x) = 0.21914 0.09665
# Poissons Ratio (y) = 0.71401 0.55363
# Poissons Ratio (z) = 0.13670 0.24031
#
# Static dielectric constant tensor:
#      x y z
#    x 1.896120 0.000000 0.000000 
#    y 0.000000 1.842770 0.000000 
#    z 0.000000 0.000000 1.866530 
# 
# From -- ./inp_files/3269.got.cif
#   From: 2010.05.17/outbox.cif.g08.bks.cpg/sg21_2_cif.got.tgz:3269.got - 2010.06.03 23:14:55.
