data_PCOD9325031
_publ_section_title
;
Structure prediction by ZEFSAII (Michael W. Deem and Ramdas Pophale) SiO2 
 PCOD9325031
Probable space group: C 2 2 2
;
_chemical_formula_sum "Si O2"
_cell_formula_units_Z 30
_cell_length_a 19.713679
_cell_length_b 5.497618
_cell_length_c 13.282157
_cell_angle_alpha 90.000000
_cell_angle_beta 90.000000
_cell_angle_gamma 90.000000
_cell_volume 1439.497284
_symmetry_space_group_name_H-M "C 2 2 2"
_symmetry_group_IT_number 21
_symmetry_cell_setting 'orthorhombic'
loop_
_space_group_symop_operation_xyz
x,y,z
-x,-y,z
x,-y,-z
-x,y,-z
1/2+x,1/2+y,z
1/2-x,1/2-y,z
1/2+x,1/2-y,-z
1/2-x,1/2+y,-z
loop_
_atom_site_type_symbol
_atom_site_label
_atom_site_fract_x
_atom_site_fract_y
_atom_site_fract_z
Si Si1 0.706372 0.500000 0.500000
Si Si2 0.327701 0.696741 0.914717
Si Si3 0.569741 0.113375 0.152030
Si Si4 0.500000 0.500000 0.000000
Si Si5 0.176247 0.880544 0.281888
O O1 0.750000 0.250000 0.509670
O O2 0.666799 0.472045 0.395183
O O3 0.250000 0.750000 0.942446
O O4 0.323504 0.586233 0.803080
O O5 0.380744 0.917318 0.902405
O O6 0.346068 0.500000 0.000000
O O7 0.540653 0.319739 0.075948
O O8 0.615855 0.212222 0.242117
O O9 0.500000 0.000000 0.191003
O O10 0.250000 0.750000 0.277330
#
# Coordination Sequence:
#
# PCOD9325031 Si02
#       5
#     4   8   8   2   8
#     4  10  24  46  82 117 151 196 254 324 388 464
#     4  12  27  43  73 112 151 193 248 321 385 454
#     4  12  29  47  72 104 155 204 254 310 377 463
#     4  12  30  52  70  98 156 226 254 294 378 468
#     4  11  24  46  75 114 148 192 254 315 382 452
#
# _framework density 20.840610999999999
#
# number of rings (size 3 to 8) (size 9 to 14) (size 15 to 20)
#    0.000    0.533    2.667    3.600   14.933    0.000 
#    0.000    0.000    0.000   12.000    0.000    0.000 
#    0.000    0.000    0.000    0.000    0.000    0.000 
#
# Total GULP energy -83769.356900 kJ/mol
# GULP energy per Si atom -5584.623793 kJ/mol
# Density = 2.079318 g / cm^3
# Si number density = 20.840611 Si / 1000 Ang^3
#
#
#
# Elastic Constant Matrix: (Units=GPa)
#
#
# Indices 1 2 3 4 5 6 
#
# 1 171.9401 69.7970 58.9530 0.0000 0.0000 0.0000
# 2 69.7970 132.9628 77.6984 0.0000 0.0000 0.0000
# 3 58.9530 77.6984 215.0743 0.0000 0.0000 0.0000
# 4 0.0000 0.0000 0.0000 38.0922 0.0000 0.0000
# 5 0.0000 0.0000 0.0000 0.0000 85.0162 0.0000
# 6 0.0000 0.0000 0.0000 0.0000 0.0000 60.3005
#
#
#
# Elastic Compliance Matrix: (Units=1/GPa)
#
#
# Indices 1 2 3 4 5 6 
#
# 1 0.007499 -0.003467 -0.000803 0.000000 0.000000 0.000000
# 2 -0.003467 0.011137 -0.003073 0.000000 0.000000 0.000000
# 3 -0.000803 -0.003073 0.005980 0.000000 0.000000 0.000000
# 4 0.000000 0.000000 0.000000 0.026252 0.000000 0.000000
# 5 0.000000 0.000000 0.000000 0.000000 0.011762 0.000000
# 6 0.000000 0.000000 0.000000 0.000000 0.000000 0.016584
#
#
# Mechanical properties :
#
#
# Convention : Reuss Voigt Hill
#
# Bulk Modulus (GPa) = 100.71283 103.65267 102.18275
# Shear Modulus (GPa) = 51.43563 57.58370 54.50966
#
# Velocity S-wave (km/s) = 4.97334 5.26218 5.11979
# Velocity P-wave (km/s) = 9.02269 9.31475 9.16988
#
# Compressibility (1/GPa) = 0.00992922
#
# Stress axis : x y z
#
# Youngs Moduli (GPa) = 133.35607 89.79384 167.23122
#
# Poissons Ratio (x) = 0.31133 0.13427
# Poissons Ratio (y) = 0.46237 0.51388
# Poissons Ratio (z) = 0.10707 0.27593
#
# Static dielectric constant tensor:
#      x y z
#    x 1.815500 0.000000 0.000000 
#    y 0.000000 1.858370 0.000000 
#    z 0.000000 0.000000 1.711580 
# 
# From -- ./inp_files/26489.got.cif
#   From: 2010.05.17/outbox.cif.g08.bks.cpg/sg21_14_cif.got.tgz:26489.got - 2010.06.03 23:14:55.
