data_PCOD9325427
_publ_section_title
;
Structure prediction by ZEFSAII (Michael W. Deem and Ramdas Pophale) SiO2 
 PCOD9325427
Probable space group: C 2 2 2
;
_chemical_formula_sum "Si O2"
_cell_formula_units_Z 34
_cell_length_a 9.605905
_cell_length_b 15.083331
_cell_length_c 11.646100
_cell_angle_alpha 90.000000
_cell_angle_beta 90.000000
_cell_angle_gamma 90.000000
_cell_volume 1687.392303
_symmetry_space_group_name_H-M "C 2 2 2"
_symmetry_group_IT_number 21
_symmetry_cell_setting 'orthorhombic'
loop_
_space_group_symop_operation_xyz
x,y,z
-x,-y,z
x,-y,-z
-x,y,-z
1/2+x,1/2+y,z
1/2-x,1/2-y,z
1/2+x,1/2-y,-z
1/2-x,1/2+y,-z
loop_
_atom_site_type_symbol
_atom_site_label
_atom_site_fract_x
_atom_site_fract_y
_atom_site_fract_z
Si Si1 0.000000 0.500000 0.696871
Si Si2 0.929220 0.645987 0.119748
Si Si3 0.899362 0.849810 0.165332
Si Si4 0.369575 0.323801 0.431273
Si Si5 0.500000 0.500000 0.000000
Si Si6 0.229178 0.500000 0.500000
O O1 0.991096 0.414111 0.778604
O O2 0.867873 0.499903 0.612711
O O3 0.951069 0.750744 0.136685
O O4 0.761504 0.636435 0.124615
O O5 0.000000 0.618564 0.000000
O O6 0.904464 0.854602 0.302706
O O7 0.983463 0.923322 0.098998
O O8 0.500000 0.284957 0.500000
O O9 0.250000 0.250000 0.422216
O O10 0.317883 0.410633 0.497900
#
# Coordination Sequence:
#
# PCOD9325427 Si02
#       6
#     4   8   8   8   2   4
#     4  11  23  40  76 102 141 181 236 298 346 427
#     4  11  23  45  69  99 134 185 229 294 348 413
#     4  11  25  47  67  97 147 175 237 293 348 423
#     4  12  27  47  74 103 146 191 235 298 359 421
#     4  12  28  44  68 102 132 196 224 288 360 414
#     4  11  25  44  68 108 142 182 240 284 360 422
#
# _framework density 20.149433999999999
#
# number of rings (size 3 to 8) (size 9 to 14) (size 15 to 20)
#    0.000    0.706    5.882    0.706   13.176    0.000 
#    0.000    0.000    0.000    0.000    0.000    0.000 
#    0.000    0.000    0.000    0.000    0.000    0.000 
#
# Total GULP energy -94819.313942 kJ/mol
# GULP energy per Si atom -5577.606702 kJ/mol
# Density = 2.010357 g / cm^3
# Si number density = 20.149434 Si / 1000 Ang^3
#
#
#
# Elastic Constant Matrix: (Units=GPa)
#
#
# Indices 1 2 3 4 5 6 
#
# 1 79.4855 65.0083 69.1157 0.0000 0.0000 0.0000
# 2 65.0083 174.8504 62.5876 0.0000 0.0000 0.0000
# 3 69.1157 62.5876 174.0589 0.0000 0.0000 0.0000
# 4 0.0000 0.0000 0.0000 49.1385 0.0000 0.0000
# 5 0.0000 0.0000 0.0000 0.0000 23.5005 0.0000
# 6 0.0000 0.0000 0.0000 0.0000 0.0000 0.8676
#
#
#
# Elastic Compliance Matrix: (Units=1/GPa)
#
#
# Indices 1 2 3 4 5 6 
#
# 1 0.024122 -0.006358 -0.007292 0.000000 0.000000 0.000000
# 2 -0.006358 0.008240 -0.000438 0.000000 0.000000 0.000000
# 3 -0.007292 -0.000438 0.008798 0.000000 0.000000 0.000000
# 4 0.000000 0.000000 0.000000 0.020351 0.000000 0.000000
# 5 0.000000 0.000000 0.000000 0.000000 0.042552 0.000000
# 6 0.000000 0.000000 0.000000 0.000000 0.000000 1.152630
#
#
# Mechanical properties :
#
#
# Convention : Reuss Voigt Hill
#
# Bulk Modulus (GPa) = 77.02271 91.31312 84.16792
# Shear Modulus (GPa) = 3.87838 30.14685 17.01262
#
# Velocity S-wave (km/s) = 1.38888 3.87222 2.90887
# Velocity P-wave (km/s) = 6.39380 8.08755 7.29003
#
# Compressibility (1/GPa) = 0.01298318
#
# Stress axis : x y z
#
# Youngs Moduli (GPa) = 41.45636 121.36020 113.65817
#
# Poissons Ratio (x) = 0.77162 0.82881
# Poissons Ratio (y) = 0.26358 0.04980
# Poissons Ratio (z) = 0.30230 0.05318
#
# Static dielectric constant tensor:
#      x y z
#    x 1.743730 0.000000 0.000000 
#    y 0.000000 1.683270 0.000000 
#    z 0.000000 0.000000 1.698110 
# 
# From -- ./inp_files/22051.got.cif
#   From: 2010.05.17/outbox.cif.g08.bks.cpg/sg21_12_cif.got.tgz:22051.got - 2010.06.03 23:14:55.
