data_PCOD9325187
_publ_section_title
;
Structure prediction by ZEFSAII (Michael W. Deem and Ramdas Pophale) SiO2 
 PCOD9325187
Probable space group: C 2 2 2
;
_chemical_formula_sum "Si O2"
_cell_formula_units_Z 40
_cell_length_a 8.813316
_cell_length_b 19.842761
_cell_length_c 11.393146
_cell_angle_alpha 90.000000
_cell_angle_beta 90.000000
_cell_angle_gamma 90.000000
_cell_volume 1992.439331
_symmetry_space_group_name_H-M "C 2 2 2"
_symmetry_group_IT_number 21
_symmetry_cell_setting 'orthorhombic'
loop_
_space_group_symop_operation_xyz
x,y,z
-x,-y,z
x,-y,-z
-x,y,-z
1/2+x,1/2+y,z
1/2-x,1/2-y,z
1/2+x,1/2-y,-z
1/2-x,1/2+y,-z
loop_
_atom_site_type_symbol
_atom_site_label
_atom_site_fract_x
_atom_site_fract_y
_atom_site_fract_z
Si Si1 0.700782 0.955908 0.198632
Si Si2 0.546349 0.640360 0.135530
Si Si3 0.000000 0.000000 0.500000
Si Si4 0.000000 0.500000 0.000000
Si Si5 0.699215 0.592182 0.687525
Si Si6 0.750000 0.750000 0.261501
Si Si7 0.019343 0.355284 0.364326
O O1 0.861692 0.927902 0.159565
O O2 0.617032 0.912726 0.298238
O O3 0.724033 0.030898 0.242533
O O4 0.599449 0.954152 0.083585
O O5 0.411845 0.633626 0.228604
O O6 0.660575 0.698204 0.178619
O O7 0.500000 0.647405 0.000000
O O8 0.104996 0.948732 0.417891
O O9 0.841802 0.642117 0.668317
O O10 0.621366 0.789088 0.337502
O O11 0.000000 0.370751 0.500000
#
# Coordination Sequence:
#
# PCOD9325187 Si02
#       7
#     8   8   2   2   8   4   8
#     4  11  22  41  65 108 133 173 212 269 341 410
#     4  11  25  45  67  93 136 173 226 278 328 394
#     4  12  24  40  68 108 148 164 222 274 338 438
#     4  12  20  36  68 100 144 168 218 258 338 420
#     4  12  23  41  71 103 134 178 212 268 355 397
#     4  10  28  48  62  98 126 180 240 276 322 384
#     4  11  25  45  70  95 136 174 226 278 329 397
#
# _framework density 20.075893000000001
#
# number of rings (size 3 to 8) (size 9 to 14) (size 15 to 20)
#    0.000    0.800    4.000    2.400    2.800    5.600 
#    3.600    0.000    0.000    0.000    0.000    0.000 
#    0.000    0.000    0.000    0.000    0.000    0.000 
#
# Total GULP energy -111466.070106 kJ/mol
# GULP energy per Si atom -5573.303505 kJ/mol
# Density = 2.003020 g / cm^3
# Si number density = 20.075893 Si / 1000 Ang^3
#
#
#
# Elastic Constant Matrix: (Units=GPa)
#
#
# Indices 1 2 3 4 5 6 
#
# 1 144.5320 20.0118 55.3207 0.0000 0.0000 0.0000
# 2 20.0118 35.4403 16.9632 0.0000 0.0000 0.0000
# 3 55.3207 16.9632 126.2537 0.0000 0.0000 0.0000
# 4 0.0000 0.0000 0.0000 11.5729 0.0000 0.0000
# 5 0.0000 0.0000 0.0000 0.0000 4.8592 0.0000
# 6 0.0000 0.0000 0.0000 0.0000 0.0000 30.8999
#
#
#
# Elastic Compliance Matrix: (Units=1/GPa)
#
#
# Indices 1 2 3 4 5 6 
#
# 1 0.008656 -0.003284 -0.003352 0.000000 0.000000 0.000000
# 2 -0.003284 0.031401 -0.002780 0.000000 0.000000 0.000000
# 3 -0.003352 -0.002780 0.009763 0.000000 0.000000 0.000000
# 4 0.000000 0.000000 0.000000 0.086409 0.000000 0.000000
# 5 0.000000 0.000000 0.000000 0.000000 0.205794 0.000000
# 6 0.000000 0.000000 0.000000 0.000000 0.000000 0.032363
#
#
# Mechanical properties :
#
#
# Convention : Reuss Voigt Hill
#
# Bulk Modulus (GPa) = 32.26931 54.53524 43.40227
# Shear Modulus (GPa) = 12.39013 23.72844 18.05928
#
# Velocity S-wave (km/s) = 2.48697 3.44166 3.00250
# Velocity P-wave (km/s) = 4.93511 6.55873 5.80397
#
# Compressibility (1/GPa) = 0.03098920
#
# Stress axis : x y z
#
# Youngs Moduli (GPa) = 115.52047 31.84577 102.42987
#
# Poissons Ratio (x) = 0.10457 0.34333
# Poissons Ratio (y) = 0.37933 0.28478
# Poissons Ratio (z) = 0.38720 0.08854
#
# Static dielectric constant tensor:
#      x y z
#    x 1.688700 0.000000 0.000000 
#    y 0.000000 1.664700 0.000000 
#    z 0.000000 0.000000 1.721080 
# 
# From -- ./inp_files/22625.got.cif
#   From: 2010.05.17/outbox.cif.g08.bks.cpg/sg21_12_cif.got.tgz:22625.got - 2010.06.03 23:14:55.
