data_PCOD9325935
_publ_section_title
;
Structure prediction by ZEFSAII (Michael W. Deem and Ramdas Pophale) SiO2 
 PCOD9325935
Probable space group: F 2 2 2
;
_chemical_formula_sum "Si O2"
_cell_formula_units_Z 112
_cell_length_a 15.997750
_cell_length_b 13.133358
_cell_length_c 25.584085
_cell_angle_alpha 90.000000
_cell_angle_beta 90.000000
_cell_angle_gamma 90.000000
_cell_volume 5375.323147
_symmetry_space_group_name_H-M "F 2 2 2"
_symmetry_group_IT_number 22
_symmetry_cell_setting 'orthorhombic'
loop_
_space_group_symop_operation_xyz
x,y,z
-x,-y,z
x,-y,-z
-x,y,-z
x,1/2+y,1/2+z
-x,1/2-y,1/2+z
x,1/2-y,1/2-z
-x,1/2+y,1/2-z
1/2+x,y,1/2+z
1/2-x,-y,1/2+z
1/2+x,-y,1/2-z
1/2-x,y,1/2-z
1/2+x,1/2+y,z
1/2-x,1/2-y,z
1/2+x,1/2-y,-z
1/2-x,1/2+y,-z
loop_
_atom_site_type_symbol
_atom_site_label
_atom_site_fract_x
_atom_site_fract_y
_atom_site_fract_z
Si Si1 0.648135 0.266772 0.531129
Si Si2 0.155314 0.298156 0.913601
Si Si3 0.736960 0.131006 0.689412
Si Si4 0.846602 0.785406 0.805206
Si Si5 0.376554 0.045350 0.444950
Si Si6 0.814089 0.964184 0.410950
Si Si7 0.407862 0.497775 0.832912
O O1 0.750000 0.250000 0.532790
O O2 0.621197 0.268169 0.470478
O O3 0.608754 0.166581 0.557034
O O4 0.634785 0.374697 0.559930
O O5 0.250000 0.250000 0.913620
O O6 0.116052 0.258037 0.859422
O O7 0.154512 0.420653 0.912025
O O8 0.750000 0.106523 0.750000
O O9 0.750000 0.250000 0.680777
O O10 0.794585 0.070651 0.648378
O O11 0.642524 0.100487 0.676220
O O12 0.884387 0.750000 0.750000
O O13 0.750000 0.750000 0.804653
O O14 0.854149 0.906347 0.809397
O O15 0.276274 0.031608 0.439344
O O16 0.403034 0.000000 0.500000
O O17 0.411518 0.985536 0.395425
O O18 0.500000 0.500000 0.810556
#
# Coordination Sequence:
#
# PCOD9325935 Si02
#       7
#    16  16  16  16  16  16  16
#     4   9  16  26  45  75 115 149 194 242 300 351
#     4  10  17  27  45  78 111 150 195 247 294 356
#     4  10  21  37  60  84 115 159 211 256 305 370
#     4  10  21  36  60  84 115 156 202 249 298 360
#     4  10  17  30  52  78 115 159 193 236 298 371
#     4  10  17  27  49  78 117 151 195 250 307 350
#     4  11  24  40  60  89 128 155 197 253 314 362
#
# _framework density 20.835955999999999
#
# number of rings (size 3 to 8) (size 9 to 14) (size 15 to 20)
#    0.000    2.000    0.000    9.429    4.000    0.286 
#    2.571    0.000    0.000    0.000    0.000    0.000 
#    0.000    4.571    0.000    0.143    0.000    0.000 
#
# Total GULP energy -156230.016100 kJ/mol
# GULP energy per Si atom -5579.643432 kJ/mol
# Density = 2.078853 g / cm^3
# Si number density = 20.835956 Si / 1000 Ang^3
#
#
#
# Elastic Constant Matrix: (Units=GPa)
#
#
# Indices 1 2 3 4 5 6 
#
# 1 29.0041 19.0026 0.3257 0.0000 0.0000 0.0000
# 2 19.0026 128.4678 38.4261 0.0000 0.0000 0.0000
# 3 0.3257 38.4261 122.3380 0.0000 0.0000 0.0000
# 4 0.0000 0.0000 0.0000 36.0802 0.0000 0.0000
# 5 0.0000 0.0000 0.0000 0.0000 -8.2122 0.0000
# 6 0.0000 0.0000 0.0000 0.0000 0.0000 -0.8886
#
#
#
# Elastic Compliance Matrix: (Units=1/GPa)
#
#
# Indices 1 2 3 4 5 6 
#
# 1 0.038559 -0.006261 0.001864 0.000000 0.000000 0.000000
# 2 -0.006261 0.009608 -0.003001 0.000000 0.000000 0.000000
# 3 0.001864 -0.003001 0.009112 0.000000 0.000000 0.000000
# 4 0.000000 0.000000 0.000000 0.027716 0.000000 0.000000
# 5 0.000000 0.000000 0.000000 0.000000 -0.121770 0.000000
# 6 0.000000 0.000000 0.000000 0.000000 0.000000 -1.125350
#
#
# Mechanical properties :
#
#
# Convention : Reuss Voigt Hill
#
# Bulk Modulus (GPa) = 23.53934 43.92432 33.73183
# Shear Modulus (GPa) = -4.41241 20.19958 7.89359
#
# Velocity S-wave (km/s) = -1.45681 3.11699 1.94850
# Velocity P-wave (km/s) = 2.91415 5.83789 4.61374
#
# Compressibility (1/GPa) = 0.04248208
#
# Stress axis : x y z
#
# Youngs Moduli (GPa) = 25.93426 104.08163 109.74824
#
# Poissons Ratio (x) = 0.65166 -0.20456
# Poissons Ratio (y) = 0.16238 0.32937
# Poissons Ratio (z) = -0.04834 0.31236
#
# Static dielectric constant tensor:
#      x y z
#    x 1.770750 0.000000 0.000000 
#    y 0.000000 1.759770 0.000000 
#    z 0.000000 0.000000 1.797870 
# 
# From -- ./inp_files/54008.got.cif
#   From: 2010.05.17/outbox.cif.g08.bks.cpg/sg22_28_cif.got.tgz:54008.got - 2010.06.03 23:40:54.
