data_PCOD9325153
_publ_section_title
;
Structure prediction by ZEFSAII (Michael W. Deem and Ramdas Pophale) SiO2 
 PCOD9325153
Probable space group: C 2 2 2
;
_chemical_formula_sum "Si O2"
_cell_formula_units_Z 30
_cell_length_a 19.461603
_cell_length_b 13.321117
_cell_length_c 4.990957
_cell_angle_alpha 90.000000
_cell_angle_beta 90.000000
_cell_angle_gamma 90.000000
_cell_volume 1293.907052
_symmetry_space_group_name_H-M "C 2 2 2"
_symmetry_group_IT_number 21
_symmetry_cell_setting 'orthorhombic'
loop_
_space_group_symop_operation_xyz
x,y,z
-x,-y,z
x,-y,-z
-x,y,-z
1/2+x,1/2+y,z
1/2-x,1/2-y,z
1/2+x,1/2-y,-z
1/2-x,1/2+y,-z
loop_
_atom_site_type_symbol
_atom_site_label
_atom_site_fract_x
_atom_site_fract_y
_atom_site_fract_z
Si Si1 0.932261 0.713441 0.823050
Si Si2 0.822440 0.435727 0.234110
Si Si3 0.893409 0.171408 0.695842
Si Si4 0.000000 0.000000 0.500000
Si Si5 0.250000 0.250000 0.519069
O O1 0.895374 0.607301 0.856835
O O2 0.926720 0.747043 0.513657
O O3 0.895565 0.802159 0.990872
O O4 0.000000 0.707607 0.000000
O O5 0.828420 0.500000 0.500000
O O6 0.782839 0.335311 0.301001
O O7 0.789562 0.500000 0.000000
O O8 0.944393 0.074848 0.649560
O O9 0.812118 0.189629 0.630042
#
# Coordination Sequence:
#
# PCOD9325153 Si02
#       5
#     8   8   8   2   4
#     4  11  22  46  68  97 143 186 225 304 370 427
#     4  11  25  44  70 102 136 185 250 294 370 446
#     4  11  25  42  73 101 150 184 244 297 372 432
#     4  12  24  46  72 126 130 204 252 314 360 470
#     4  10  26  50  68 104 148 198 232 322 364 444
#
# _framework density 23.185590000000001
#
# number of rings (size 3 to 8) (size 9 to 14) (size 15 to 20)
#    0.000    1.067    2.667    3.200    1.867   12.267 
#    0.000    4.000    0.000    0.000    0.000    0.000 
#    0.000    0.000    0.000    0.000    0.000    0.000 
#
# Total GULP energy -83519.603631 kJ/mol
# GULP energy per Si atom -5567.973575 kJ/mol
# Density = 2.313282 g / cm^3
# Si number density = 23.185590 Si / 1000 Ang^3
#
#
#
# Elastic Constant Matrix: (Units=GPa)
#
#
# Indices 1 2 3 4 5 6 
#
# 1 102.6038 12.6620 4.3546 0.0000 0.0000 0.0000
# 2 12.6620 123.0215 20.3204 0.0000 0.0000 0.0000
# 3 4.3546 20.3204 83.8179 0.0000 0.0000 0.0000
# 4 0.0000 0.0000 0.0000 7.5120 0.0000 0.0000
# 5 0.0000 0.0000 0.0000 0.0000 7.3803 0.0000
# 6 0.0000 0.0000 0.0000 0.0000 0.0000 64.7644
#
#
#
# Elastic Compliance Matrix: (Units=1/GPa)
#
#
# Indices 1 2 3 4 5 6 
#
# 1 0.009878 -0.000971 -0.000278 0.000000 0.000000 0.000000
# 2 -0.000971 0.008563 -0.002026 0.000000 0.000000 0.000000
# 3 -0.000278 -0.002026 0.012436 0.000000 0.000000 0.000000
# 4 0.000000 0.000000 0.000000 0.133121 0.000000 0.000000
# 5 0.000000 0.000000 0.000000 0.000000 0.135496 0.000000
# 6 0.000000 0.000000 0.000000 0.000000 0.000000 0.015441
#
#
# Mechanical properties :
#
#
# Convention : Reuss Voigt Hill
#
# Bulk Modulus (GPa) = 41.10364 42.67967 41.89166
# Shear Modulus (GPa) = 15.17027 34.07175 24.62101
#
# Velocity S-wave (km/s) = 2.56070 3.83759 3.26223
# Velocity P-wave (km/s) = 5.14874 6.17122 5.68302
#
# Compressibility (1/GPa) = 0.02432874
#
# Stress axis : x y z
#
# Youngs Moduli (GPa) = 101.23686 116.77939 80.41084
#
# Poissons Ratio (x) = 0.11337 0.02234
# Poissons Ratio (y) = 0.09828 0.16288
# Poissons Ratio (z) = 0.02813 0.23655
#
# Static dielectric constant tensor:
#      x y z
#    x 2.117420 0.000000 0.000000 
#    y 0.000000 1.880960 0.000000 
#    z 0.000000 0.000000 1.826280 
# 
# From -- ./inp_files/2435.got.cif
#   From: 2010.05.17/outbox.cif.g08.bks.cpg/sg21_2_cif.got.tgz:2435.got - 2010.06.03 23:14:55.
