data_PCOD9325897
_publ_section_title
;
Structure prediction by ZEFSAII (Michael W. Deem and Ramdas Pophale) SiO2 
 PCOD9325897
Probable space group: F 2 2 2
;
_chemical_formula_sum "Si O2"
_cell_formula_units_Z 88
_cell_length_a 8.639389
_cell_length_b 19.886005
_cell_length_c 26.765246
_cell_angle_alpha 90.000000
_cell_angle_beta 90.000000
_cell_angle_gamma 90.000000
_cell_volume 4598.347761
_symmetry_space_group_name_H-M "F 2 2 2"
_symmetry_group_IT_number 22
_symmetry_cell_setting 'orthorhombic'
loop_
_space_group_symop_operation_xyz
x,y,z
-x,-y,z
x,-y,-z
-x,y,-z
x,1/2+y,1/2+z
-x,1/2-y,1/2+z
x,1/2-y,1/2-z
-x,1/2+y,1/2-z
1/2+x,y,1/2+z
1/2-x,-y,1/2+z
1/2+x,-y,1/2-z
1/2-x,y,1/2-z
1/2+x,1/2+y,z
1/2-x,1/2-y,z
1/2+x,1/2-y,-z
1/2-x,1/2+y,-z
loop_
_atom_site_type_symbol
_atom_site_label
_atom_site_fract_x
_atom_site_fract_y
_atom_site_fract_z
Si Si1 0.652316 0.029733 0.418545
Si Si2 0.910224 0.633716 0.948203
Si Si3 0.115109 0.435883 0.132467
Si Si4 0.250000 0.750000 0.387852
Si Si5 0.347790 0.124605 0.674647
Si Si6 0.979194 0.579251 0.772542
O O1 0.775098 0.075834 0.449236
O O2 0.609633 0.075972 0.370960
O O3 0.500000 0.000000 0.443887
O O4 0.737023 0.966194 0.393665
O O5 0.843707 0.702267 0.925635
O O6 0.031675 0.611575 0.906299
O O7 0.000000 0.639277 0.000000
O O8 0.000000 0.500000 0.138077
O O9 0.116345 0.406036 0.188079
O O10 0.333305 0.802340 0.350321
O O11 0.180846 0.098000 0.697023
O O12 0.463599 0.118914 0.721021
O O13 0.000000 0.500000 0.759078
#
# Coordination Sequence:
#
# PCOD9325897 Si02
#       6
#    16  16  16   8  16  16
#     4  10  19  35  59  94 126 151 198 266 311 370
#     4  10  21  40  62  82 115 165 206 254 322 375
#     4   9  16  34  54  82 125 158 192 237 316 375
#     4  10  20  39  58  88 118 156 227 258 284 360
#     4  10  19  30  55  89 128 163 204 242 289 360
#     4  10  16  30  52  87 129 163 193 229 301 380
#
# _framework density 19.137308999999998
#
# number of rings (size 3 to 8) (size 9 to 14) (size 15 to 20)
#    0.000    2.182    7.273    0.545    0.000    4.727 
#    0.000    5.455    0.000    0.000    0.000    0.000 
#   21.818    0.000    0.000    0.000    0.000    0.000 
#
# Total GULP energy -122474.364841 kJ/mol
# GULP energy per Si atom -5567.016584 kJ/mol
# Density = 1.909375 g / cm^3
# Si number density = 19.137309 Si / 1000 Ang^3
#
#
#
# Elastic Constant Matrix: (Units=GPa)
#
#
# Indices 1 2 3 4 5 6 
#
# 1 78.4704 57.3045 44.8263 0.0000 0.0000 0.0000
# 2 57.3045 115.0044 71.8496 0.0000 0.0000 0.0000
# 3 44.8263 71.8496 161.9689 0.0000 0.0000 0.0000
# 4 0.0000 0.0000 0.0000 135.0288 0.0000 0.0000
# 5 0.0000 0.0000 0.0000 0.0000 12.0801 0.0000
# 6 0.0000 0.0000 0.0000 0.0000 0.0000 -7.9906
#
#
#
# Elastic Compliance Matrix: (Units=1/GPa)
#
#
# Indices 1 2 3 4 5 6 
#
# 1 0.020317 -0.009145 -0.001566 0.000000 0.000000 0.000000
# 2 -0.009145 0.016145 -0.004631 0.000000 0.000000 0.000000
# 3 -0.001566 -0.004631 0.008662 0.000000 0.000000 0.000000
# 4 0.000000 0.000000 0.000000 0.007406 0.000000 0.000000
# 5 0.000000 0.000000 0.000000 0.000000 0.082781 0.000000
# 6 0.000000 0.000000 0.000000 0.000000 0.000000 -0.125147
#
#
# Mechanical properties :
#
#
# Convention : Reuss Voigt Hill
#
# Bulk Modulus (GPa) = 69.25485 78.15604 73.70545
# Shear Modulus (GPa) = 109.50250 39.92121 74.71186
#
# Velocity S-wave (km/s) = 7.57256 4.57227 6.25497
# Velocity P-wave (km/s) = 10.61721 8.29473 9.52700
#
# Compressibility (1/GPa) = 0.01443942
#
# Stress axis : x y z
#
# Youngs Moduli (GPa) = 49.22097 61.93708 115.44878
#
# Poissons Ratio (x) = 0.56641 0.18080
# Poissons Ratio (y) = 0.45012 0.53466
# Poissons Ratio (z) = 0.07708 0.28684
#
# Static dielectric constant tensor:
#      x y z
#    x 1.713180 0.000000 0.000000 
#    y 0.000000 1.685960 0.000000 
#    z 0.000000 0.000000 1.714690 
# 
# From -- ./inp_files/55518.got.cif
#   From: 2010.05.17/outbox.cif.g08.bks.cpg/sg22_28_cif.got.tgz:55518.got - 2010.06.03 23:40:54.
