data_PCOD9325597
_publ_section_title
;
Structure prediction by ZEFSAII (Michael W. Deem and Ramdas Pophale) SiO2 
 PCOD9325597
Probable space group: C 2 2 2
;
_chemical_formula_sum "Si O2"
_cell_formula_units_Z 24
_cell_length_a 7.175026
_cell_length_b 21.962431
_cell_length_c 7.010530
_cell_angle_alpha 90.000000
_cell_angle_beta 90.000000
_cell_angle_gamma 90.000000
_cell_volume 1104.726422
_symmetry_space_group_name_H-M "C 2 2 2"
_symmetry_group_IT_number 21
_symmetry_cell_setting 'orthorhombic'
loop_
_space_group_symop_operation_xyz
x,y,z
-x,-y,z
x,-y,-z
-x,y,-z
1/2+x,1/2+y,z
1/2-x,1/2-y,z
1/2+x,1/2-y,-z
1/2-x,1/2+y,-z
loop_
_atom_site_type_symbol
_atom_site_label
_atom_site_fract_x
_atom_site_fract_y
_atom_site_fract_z
Si Si1 0.500000 0.349960 0.500000
Si Si2 0.820056 0.816094 0.876975
Si Si3 0.500000 0.091670 0.000000
Si Si4 0.675479 0.937291 0.385247
O O1 0.390212 0.312803 0.659537
O O2 0.350989 0.393601 0.396960
O O3 0.750000 0.750000 0.942077
O O4 0.656398 0.864966 0.904307
O O5 0.000000 0.833984 0.000000
O O6 0.607187 0.056019 0.831927
O O7 0.500000 0.909657 0.500000
O O8 0.714885 0.000000 0.500000
#
# Coordination Sequence:
#
# PCOD9325597 Si02
#       4
#     4   8   4   8
#     4  12  25  46  72 106 146 188 231 302 344 420
#     4  12  26  44  74 107 143 186 240 290 356 419
#     4  12  24  47  74 102 142 190 235 298 350 420
#     4  11  25  44  72 104 142 184 240 288 354 419
#
# _framework density 21.724837000000001
#
# number of rings (size 3 to 8) (size 9 to 14) (size 15 to 20)
#    0.000    0.333    8.333    0.500    0.000    6.667 
#    0.000    0.000    0.000    0.000    0.000    0.000 
#    0.000    0.000    0.000    0.000    0.000    0.000 
#
# Total GULP energy -67094.385512 kJ/mol
# GULP energy per Si atom -5591.198793 kJ/mol
# Density = 2.167539 g / cm^3
# Si number density = 21.724837 Si / 1000 Ang^3
#
#
#
# Elastic Constant Matrix: (Units=GPa)
#
#
# Indices 1 2 3 4 5 6 
#
# 1 92.2967 5.6389 2.7781 0.0000 0.0000 0.0000
# 2 5.6389 40.6692 -3.8936 0.0000 0.0000 0.0000
# 3 2.7781 -3.8936 117.2522 0.0000 0.0000 0.0000
# 4 0.0000 0.0000 0.0000 20.9870 0.0000 0.0000
# 5 0.0000 0.0000 0.0000 0.0000 46.7300 0.0000
# 6 0.0000 0.0000 0.0000 0.0000 0.0000 27.2285
#
#
#
# Elastic Compliance Matrix: (Units=1/GPa)
#
#
# Indices 1 2 3 4 5 6 
#
# 1 0.010938 -0.001546 -0.000311 0.000000 0.000000 0.000000
# 2 -0.001546 0.024886 0.000863 0.000000 0.000000 0.000000
# 3 -0.000311 0.000863 0.008565 0.000000 0.000000 0.000000
# 4 0.000000 0.000000 0.000000 0.047649 0.000000 0.000000
# 5 0.000000 0.000000 0.000000 0.000000 0.021400 0.000000
# 6 0.000000 0.000000 0.000000 0.000000 0.000000 0.036726
#
#
# Mechanical properties :
#
#
# Convention : Reuss Voigt Hill
#
# Bulk Modulus (GPa) = 23.58435 28.80722 26.19578
# Shear Modulus (GPa) = 30.06894 35.36874 32.71884
#
# Velocity S-wave (km/s) = 3.72436 4.03927 3.88501
# Velocity P-wave (km/s) = 5.41978 5.91972 5.67525
#
# Compressibility (1/GPa) = 0.04240100
#
# Stress axis : x y z
#
# Youngs Moduli (GPa) = 91.42069 40.18376 116.75910
#
# Poissons Ratio (x) = 0.06214 0.03626
# Poissons Ratio (y) = 0.14137 -0.10077
# Poissons Ratio (z) = 0.02839 -0.03468
#
# Static dielectric constant tensor:
#      x y z
#    x 1.767710 0.000000 0.000000 
#    y 0.000000 1.773020 0.000000 
#    z 0.000000 0.000000 1.846880 
# 
# From -- ./inp_files/1166.got.cif
#   From: 2010.05.17/outbox.cif.g08.bks.cpg/sg21_1_cif.got.tgz:1166.got - 2010.06.03 23:14:55.
