data_PCOD9325209
_publ_section_title
;
Structure prediction by ZEFSAII (Michael W. Deem and Ramdas Pophale) SiO2 
 PCOD9325209
Probable space group: C 2 2 2
;
_chemical_formula_sum "Si O2"
_cell_formula_units_Z 28
_cell_length_a 14.563662
_cell_length_b 11.207564
_cell_length_c 8.025401
_cell_angle_alpha 90.000000
_cell_angle_beta 90.000000
_cell_angle_gamma 90.000000
_cell_volume 1309.931423
_symmetry_space_group_name_H-M "C 2 2 2"
_symmetry_group_IT_number 21
_symmetry_cell_setting 'orthorhombic'
loop_
_space_group_symop_operation_xyz
x,y,z
-x,-y,z
x,-y,-z
-x,y,-z
1/2+x,1/2+y,z
1/2-x,1/2-y,z
1/2+x,1/2-y,-z
1/2-x,1/2+y,-z
loop_
_atom_site_type_symbol
_atom_site_label
_atom_site_fract_x
_atom_site_fract_y
_atom_site_fract_z
Si Si1 0.250000 0.750000 0.352324
Si Si2 0.084604 0.570067 0.682609
Si Si3 0.411086 0.671986 0.594152
Si Si4 0.720966 0.495834 0.808180
O O1 0.337711 0.733395 0.470160
O O2 0.255649 0.630072 0.247231
O O3 0.096614 0.500000 0.500000
O O4 0.054624 0.708169 0.684707
O O5 0.182161 0.568475 0.773662
O O6 0.000000 0.500000 0.763299
O O7 0.500000 0.624719 0.500000
O O8 0.356110 0.572753 0.699212
O O9 0.693887 0.500000 0.000000
#
# Coordination Sequence:
#
# PCOD9325209 Si02
#       4
#     4   8   8   8
#     4  12  24  44  70 102 136 198 256 296 370 462
#     4  11  19  42  74 109 135 187 262 313 365 455
#     4  12  23  45  77 104 143 197 262 308 366 465
#     4  12  27  43  69 108 156 194 241 327 395 438
#
# _framework density 21.375164999999999
#
# number of rings (size 3 to 8) (size 9 to 14) (size 15 to 20)
#    0.000    0.286    8.571    0.857    4.000    2.857 
#    0.000    2.857    0.000    0.000    0.000    0.000 
#    0.000    0.000    0.000    0.000    0.000    0.000 
#
# Total GULP energy -78129.757794 kJ/mol
# GULP energy per Si atom -5580.696985 kJ/mol
# Density = 2.132651 g / cm^3
# Si number density = 21.375165 Si / 1000 Ang^3
#
#
#
# Elastic Constant Matrix: (Units=GPa)
#
#
# Indices 1 2 3 4 5 6 
#
# 1 178.5165 57.9744 59.1910 0.0000 0.0000 0.0000
# 2 57.9744 189.8512 61.6992 0.0000 0.0000 0.0000
# 3 59.1910 61.6992 93.9239 0.0000 0.0000 0.0000
# 4 0.0000 0.0000 0.0000 3.4445 0.0000 0.0000
# 5 0.0000 0.0000 0.0000 0.0000 6.4817 0.0000
# 6 0.0000 0.0000 0.0000 0.0000 0.0000 35.3171
#
#
#
# Elastic Compliance Matrix: (Units=1/GPa)
#
#
# Indices 1 2 3 4 5 6 
#
# 1 0.007206 -0.000921 -0.003936 0.000000 0.000000 0.000000
# 2 -0.000921 0.006815 -0.003896 0.000000 0.000000 0.000000
# 3 -0.003936 -0.003896 0.015687 0.000000 0.000000 0.000000
# 4 0.000000 0.000000 0.000000 0.290319 0.000000 0.000000
# 5 0.000000 0.000000 0.000000 0.000000 0.154282 0.000000
# 6 0.000000 0.000000 0.000000 0.000000 0.000000 0.028315
#
#
# Mechanical properties :
#
#
# Convention : Reuss Voigt Hill
#
# Bulk Modulus (GPa) = 81.96217 91.11340 86.53779
# Shear Modulus (GPa) = 9.53840 27.94379 18.74110
#
# Velocity S-wave (km/s) = 2.11473 3.61959 2.96424
# Velocity P-wave (km/s) = 6.66263 7.75802 7.23109
#
# Compressibility (1/GPa) = 0.01220075
#
# Stress axis : x y z
#
# Youngs Moduli (GPa) = 138.77325 146.73954 63.74807
#
# Poissons Ratio (x) = 0.13519 0.25091
# Poissons Ratio (y) = 0.12786 0.24837
# Poissons Ratio (z) = 0.54621 0.57171
#
# Static dielectric constant tensor:
#      x y z
#    x 1.825020 0.000000 0.000000 
#    y 0.000000 1.968170 0.000000 
#    z 0.000000 0.000000 1.846300 
# 
# From -- ./inp_files/13945.got.cif
#   From: 2010.05.17/outbox.cif.g08.bks.cpg/sg21_7_cif.got.tgz:13945.got - 2010.06.03 23:14:55.
