data_PCOD9325733
_publ_section_title
;
Structure prediction by ZEFSAII (Michael W. Deem and Ramdas Pophale) SiO2 
 PCOD9325733
Probable space group: C 2 2 2
;
_chemical_formula_sum "Si O2"
_cell_formula_units_Z 34
_cell_length_a 8.877389
_cell_length_b 11.230086
_cell_length_c 16.173409
_cell_angle_alpha 90.000000
_cell_angle_beta 90.000000
_cell_angle_gamma 90.000000
_cell_volume 1612.389280
_symmetry_space_group_name_H-M "C 2 2 2"
_symmetry_group_IT_number 21
_symmetry_cell_setting 'orthorhombic'
loop_
_space_group_symop_operation_xyz
x,y,z
-x,-y,z
x,-y,-z
-x,y,-z
1/2+x,1/2+y,z
1/2-x,1/2-y,z
1/2+x,1/2-y,-z
1/2-x,1/2+y,-z
loop_
_atom_site_type_symbol
_atom_site_label
_atom_site_fract_x
_atom_site_fract_y
_atom_site_fract_z
Si Si1 0.537878 0.698405 0.725138
Si Si2 0.000000 0.500000 0.000000
Si Si3 0.741979 0.513071 0.291526
Si Si4 0.608239 0.160090 0.577119
Si Si5 0.115008 0.654776 0.853131
O O1 0.687258 0.621354 0.715299
O O2 0.401568 0.601306 0.718851
O O3 0.494851 0.782668 0.649147
O O4 0.519267 0.768988 0.811040
O O5 0.088550 0.412578 0.061751
O O6 0.817933 0.545173 0.378878
O O7 0.843360 0.555867 0.215525
O O8 0.500000 0.142223 0.500000
O O9 0.750000 0.250000 0.559512
O O10 0.250000 0.750000 0.860699
#
# Coordination Sequence:
#
# PCOD9325733 Si02
#       5
#     8   2   8   8   8
#     4   8  15  33  60  82 109 157 203 239 286 349
#     4  12  24  36  56  92 122 140 180 240 300 360
#     4   8  15  33  60  84 111 155 204 240 286 351
#     4   9  17  31  54  85 121 158 200 254 302 344
#     4   9  20  37  56  82 116 149 187 237 289 350
#
# _framework density 21.086718999999999
#
# number of rings (size 3 to 8) (size 9 to 14) (size 15 to 20)
#    0.000    3.294    0.000    2.824    0.000    1.882 
#    0.000   14.118    0.000   24.000    0.000    0.000 
#    0.000    0.000    0.000    0.000    0.000    0.000 
#
# Total GULP energy -94940.063210 kJ/mol
# GULP energy per Si atom -5584.709601 kJ/mol
# Density = 2.103873 g / cm^3
# Si number density = 21.086719 Si / 1000 Ang^3
#
#
#
# Elastic Constant Matrix: (Units=GPa)
#
#
# Indices 1 2 3 4 5 6 
#
# 1 100.7739 62.9382 64.3840 0.0000 0.0000 0.0000
# 2 62.9382 137.4462 64.3652 0.0000 0.0000 0.0000
# 3 64.3840 64.3652 154.6947 0.0000 0.0000 0.0000
# 4 0.0000 0.0000 0.0000 18.7766 0.0000 0.0000
# 5 0.0000 0.0000 0.0000 0.0000 19.8576 0.0000
# 6 0.0000 0.0000 0.0000 0.0000 0.0000 44.3183
#
#
#
# Elastic Compliance Matrix: (Units=1/GPa)
#
#
# Indices 1 2 3 4 5 6 
#
# 1 0.016085 -0.005254 -0.004508 0.000000 0.000000 0.000000
# 2 -0.005254 0.010753 -0.002287 0.000000 0.000000 0.000000
# 3 -0.004508 -0.002287 0.009292 0.000000 0.000000 0.000000
# 4 0.000000 0.000000 0.000000 0.053258 0.000000 0.000000
# 5 0.000000 0.000000 0.000000 0.000000 0.050359 0.000000
# 6 0.000000 0.000000 0.000000 0.000000 0.000000 0.022564
#
#
# Mechanical properties :
#
#
# Convention : Reuss Voigt Hill
#
# Bulk Modulus (GPa) = 83.12223 86.25438 84.68830
# Shear Modulus (GPa) = 26.25768 30.00565 28.13166
#
# Velocity S-wave (km/s) = 3.53260 3.77631 3.65649
# Velocity P-wave (km/s) = 7.49292 7.74645 7.62074
#
# Compressibility (1/GPa) = 0.01203048
#
# Stress axis : x y z
#
# Youngs Moduli (GPa) = 62.16887 93.00062 107.61510
#
# Poissons Ratio (x) = 0.48866 0.48518
# Poissons Ratio (y) = 0.32666 0.24612
# Poissons Ratio (z) = 0.28029 0.21270
#
# Static dielectric constant tensor:
#      x y z
#    x 1.827380 0.000000 0.000000 
#    y 0.000000 1.799170 0.000000 
#    z 0.000000 0.000000 1.699910 
# 
# From -- ./inp_files/29961.got.cif
#   From: 2010.05.17/outbox.cif.g08.bks.cpg/sg21_15_cif.got.tgz:29961.got - 2010.06.03 23:14:55.
