data_PCOD9325013
_publ_section_title
;
Structure prediction by ZEFSAII (Michael W. Deem and Ramdas Pophale) SiO2 
 PCOD9325013
Probable space group: C 2 2 2
;
_chemical_formula_sum "Si O2"
_cell_formula_units_Z 56
_cell_length_a 19.542319
_cell_length_b 8.935803
_cell_length_c 14.934681
_cell_angle_alpha 90.000000
_cell_angle_beta 90.000000
_cell_angle_gamma 90.000000
_cell_volume 2607.988275
_symmetry_space_group_name_H-M "C 2 2 2"
_symmetry_group_IT_number 21
_symmetry_cell_setting 'orthorhombic'
loop_
_space_group_symop_operation_xyz
x,y,z
-x,-y,z
x,-y,-z
-x,y,-z
1/2+x,1/2+y,z
1/2-x,1/2-y,z
1/2+x,1/2-y,-z
1/2-x,1/2+y,-z
loop_
_atom_site_type_symbol
_atom_site_label
_atom_site_fract_x
_atom_site_fract_y
_atom_site_fract_z
Si Si1 0.936280 0.208634 0.441301
Si Si2 0.152230 0.480459 0.299407
Si Si3 0.528681 0.173969 0.094773
Si Si4 0.859657 0.986572 0.325445
Si Si5 0.861540 0.500000 0.500000
Si Si6 0.031056 0.261071 0.280716
Si Si7 0.170923 0.762952 0.178749
Si Si8 0.750000 0.750000 0.301420
O O1 0.879473 0.092251 0.408346
O O2 0.905506 0.349029 0.493252
O O3 0.000000 0.153394 0.500000
O O4 0.968640 0.266854 0.348833
O O5 0.173828 0.489740 0.403526
O O6 0.077582 0.408276 0.292924
O O7 0.163114 0.637053 0.254723
O O8 0.199931 0.360087 0.249085
O O9 0.494213 0.249945 0.180110
O O10 0.609789 0.213741 0.109644
O O11 0.500000 0.000000 0.099975
O O12 0.500000 0.229267 0.000000
O O13 0.840604 0.083393 0.236310
O O14 0.925504 0.885391 0.304625
O O15 0.801942 0.864110 0.349176
O O16 0.250000 0.750000 0.145077
#
# Coordination Sequence:
#
# PCOD9325013 Si02
#       8
#     8   8   8   8   4   8   8   4
#     4  12  24  38  64 104 142 181 251 313 370 431
#     4  11  22  41  64  96 138 191 246 300 360 438
#     4  11  24  44  77 113 148 188 242 308 380 460
#     4  11  24  42  69  97 140 191 240 305 370 431
#     4  12  23  38  60 100 134 188 241 308 362 432
#     4  11  23  41  68 101 140 187 242 302 371 428
#     4  12  23  43  77 105 141 191 250 306 379 456
#     4  10  24  46  58  92 138 194 242 292 370 442
#
# _framework density 21.472487999999998
#
# number of rings (size 3 to 8) (size 9 to 14) (size 15 to 20)
#    0.000    0.714    7.143    0.643    0.000    1.143 
#    3.857    1.429   12.571    0.000    0.000    0.000 
#    0.000    0.000    0.000    0.000    0.000    0.000 
#
# Total GULP energy -156262.114594 kJ/mol
# GULP energy per Si atom -5580.789807 kJ/mol
# Density = 2.142362 g / cm^3
# Si number density = 21.472488 Si / 1000 Ang^3
#
#
#
# Elastic Constant Matrix: (Units=GPa)
#
#
# Indices 1 2 3 4 5 6 
#
# 1 123.6902 39.5547 36.0067 0.0000 0.0000 0.0000
# 2 39.5547 106.6982 10.6618 0.0000 0.0000 0.0000
# 3 36.0067 10.6618 121.8042 0.0000 0.0000 0.0000
# 4 0.0000 0.0000 0.0000 12.5807 0.0000 0.0000
# 5 0.0000 0.0000 0.0000 0.0000 7.5039 0.0000
# 6 0.0000 0.0000 0.0000 0.0000 0.0000 33.9029
#
#
#
# Elastic Compliance Matrix: (Units=1/GPa)
#
#
# Indices 1 2 3 4 5 6 
#
# 1 0.009949 -0.003424 -0.002641 0.000000 0.000000 0.000000
# 2 -0.003424 0.010633 0.000081 0.000000 0.000000 0.000000
# 3 -0.002641 0.000081 0.008984 0.000000 0.000000 0.000000
# 4 0.000000 0.000000 0.000000 0.079487 0.000000 0.000000
# 5 0.000000 0.000000 0.000000 0.000000 0.133264 0.000000
# 6 0.000000 0.000000 0.000000 0.000000 0.000000 0.029496
#
#
# Mechanical properties :
#
#
# Convention : Reuss Voigt Hill
#
# Bulk Modulus (GPa) = 56.82537 58.29324 57.55931
# Shear Modulus (GPa) = 17.26246 28.52880 22.89563
#
# Velocity S-wave (km/s) = 2.83845 3.64898 3.26893
# Velocity P-wave (km/s) = 6.10443 6.70524 6.41188
#
# Compressibility (1/GPa) = 0.01759777
#
# Stress axis : x y z
#
# Youngs Moduli (GPa) = 100.51683 94.04255 111.31481
#
# Poissons Ratio (x) = 0.32202 0.29400
# Poissons Ratio (y) = 0.34419 -0.00907
# Poissons Ratio (z) = 0.26548 -0.00766
#
# Static dielectric constant tensor:
#      x y z
#    x 1.889510 0.000000 0.000000 
#    y 0.000000 1.855330 0.000000 
#    z 0.000000 0.000000 1.755000 
# 
# From -- ./inp_files/33329.got.cif
#   From: 2010.05.17/outbox.cif.g08.bks.cpg/sg21_17_cif.got.tgz:33329.got - 2010.06.03 23:14:55.
