data_PCOD9325137
_publ_section_title
;
Structure prediction by ZEFSAII (Michael W. Deem and Ramdas Pophale) SiO2 
 PCOD9325137
Probable space group: C 2 2 2
;
_chemical_formula_sum "Si O2"
_cell_formula_units_Z 18
_cell_length_a 28.544326
_cell_length_b 5.437787
_cell_length_c 4.939121
_cell_angle_alpha 90.000000
_cell_angle_beta 90.000000
_cell_angle_gamma 90.000000
_cell_volume 766.640310
_symmetry_space_group_name_H-M "C 2 2 2"
_symmetry_group_IT_number 21
_symmetry_cell_setting 'orthorhombic'
loop_
_space_group_symop_operation_xyz
x,y,z
-x,-y,z
x,-y,-z
-x,y,-z
1/2+x,1/2+y,z
1/2-x,1/2-y,z
1/2+x,1/2-y,-z
1/2-x,1/2+y,-z
loop_
_atom_site_type_symbol
_atom_site_label
_atom_site_fract_x
_atom_site_fract_y
_atom_site_fract_z
Si Si1 0.277679 0.000000 0.000000
Si Si2 0.576724 0.674741 0.740633
Si Si3 0.841269 0.500000 0.500000
Si Si4 0.500000 0.000000 0.500000
O O1 0.250000 0.750000 0.083521
O O2 0.308735 0.089328 0.255259
O O3 0.562342 0.500000 0.500000
O O4 0.624945 0.803918 0.648748
O O5 0.535729 0.871570 0.712059
O O6 0.581049 0.500000 0.000000
#
# Coordination Sequence:
#
# PCOD9325137 Si02
#       4
#     4   8   4   2
#     4  12  28  48  78 115 156 203 258 326 394 472
#     4  11  25  45  75 105 151 201 251 317 379 461
#     4  11  26  47  74 112 150 198 258 313 390 467
#     4  10  26  46  68 116 148 202 262 310 384 454
#
# _framework density 23.479067000000001
#
# number of rings (size 3 to 8) (size 9 to 14) (size 15 to 20)
#    0.000    0.889    0.000    4.667    9.333   10.667 
#    0.000    0.000    0.000    0.000    0.000    0.000 
#    0.000    0.000    0.000    0.000    0.000    0.000 
#
# Total GULP energy -50251.466970 kJ/mol
# GULP energy per Si atom -5583.496330 kJ/mol
# Density = 2.342563 g / cm^3
# Si number density = 23.479067 Si / 1000 Ang^3
#
#
#
# Elastic Constant Matrix: (Units=GPa)
#
#
# Indices 1 2 3 4 5 6 
#
# 1 125.5997 56.2043 57.6669 0.0000 0.0000 0.0000
# 2 56.2043 104.5171 52.4486 0.0000 0.0000 0.0000
# 3 57.6669 52.4486 198.9396 0.0000 0.0000 0.0000
# 4 0.0000 0.0000 0.0000 55.5706 0.0000 0.0000
# 5 0.0000 0.0000 0.0000 0.0000 11.7991 0.0000
# 6 0.0000 0.0000 0.0000 0.0000 0.0000 127.0568
#
#
#
# Elastic Compliance Matrix: (Units=1/GPa)
#
#
# Indices 1 2 3 4 5 6 
#
# 1 0.011068 -0.005004 -0.001889 0.000000 0.000000 0.000000
# 2 -0.005004 0.013289 -0.002053 0.000000 0.000000 0.000000
# 3 -0.001889 -0.002053 0.006116 0.000000 0.000000 0.000000
# 4 0.000000 0.000000 0.000000 0.017995 0.000000 0.000000
# 5 0.000000 0.000000 0.000000 0.000000 0.084752 0.000000
# 6 0.000000 0.000000 0.000000 0.000000 0.000000 0.007870
#
#
# Mechanical properties :
#
#
# Convention : Reuss Voigt Hill
#
# Bulk Modulus (GPa) = 79.48784 84.63287 82.06036
# Shear Modulus (GPa) = 30.64169 56.40109 43.52139
#
# Velocity S-wave (km/s) = 3.61649 4.90653 4.31005
# Velocity P-wave (km/s) = 7.16707 8.25972 7.73272
#
# Compressibility (1/GPa) = 0.01258054
#
# Stress axis : x y z
#
# Youngs Moduli (GPa) = 90.34705 75.25031 163.51867
#
# Poissons Ratio (x) = 0.37656 0.30891
# Poissons Ratio (y) = 0.45210 0.33570
# Poissons Ratio (z) = 0.17068 0.15449
#
# Static dielectric constant tensor:
#      x y z
#    x 1.975540 0.000000 0.000000 
#    y 0.000000 1.880450 0.000000 
#    z 0.000000 0.000000 1.842220 
# 
# From -- ./inp_files/434.got.cif
#   From: 2010.05.17/outbox.cif.g08.bks.cpg/sg21_1_cif.got.tgz:434.got - 2010.06.03 23:14:55.
