data_PCOD9325697
_publ_section_title
;
Structure prediction by ZEFSAII (Michael W. Deem and Ramdas Pophale) SiO2 
 PCOD9325697
Probable space group: C 2 2 2
;
_chemical_formula_sum "Si O2"
_cell_formula_units_Z 38
_cell_length_a 29.353777
_cell_length_b 10.034443
_cell_length_c 6.299465
_cell_angle_alpha 90.000000
_cell_angle_beta 90.000000
_cell_angle_gamma 90.000000
_cell_volume 1855.499870
_symmetry_space_group_name_H-M "C 2 2 2"
_symmetry_group_IT_number 21
_symmetry_cell_setting 'orthorhombic'
loop_
_space_group_symop_operation_xyz
x,y,z
-x,-y,z
x,-y,-z
-x,y,-z
1/2+x,1/2+y,z
1/2-x,1/2-y,z
1/2+x,1/2-y,-z
1/2-x,1/2+y,-z
loop_
_atom_site_type_symbol
_atom_site_label
_atom_site_fract_x
_atom_site_fract_y
_atom_site_fract_z
Si Si1 0.546964 0.636525 0.613477
Si Si2 0.622648 0.146998 0.488832
Si Si3 0.801380 0.221288 0.223824
Si Si4 0.699600 0.877770 0.170545
Si Si5 0.227069 0.000000 0.500000
Si Si6 0.500000 0.500000 0.000000
O O1 0.561934 0.500000 0.500000
O O2 0.500000 0.678413 0.500000
O O3 0.584623 0.745969 0.567414
O O4 0.531838 0.592413 0.850215
O O5 0.661676 0.176203 0.313360
O O6 0.652860 0.146480 0.702449
O O7 0.601866 0.000000 0.500000
O O8 0.750000 0.250000 0.296145
O O9 0.806411 0.081002 0.341047
O O10 0.798214 0.243834 0.973092
O O11 0.738709 0.917587 0.341685
O O12 0.700579 0.000000 0.000000
#
# Coordination Sequence:
#
# PCOD9325697 Si02
#       6
#     8   8   8   8   4   2
#     4   9  22  45  72 102 138 176 220 292 339 425
#     4  12  24  43  67 102 144 177 234 287 348 416
#     4  12  25  40  65  94 137 188 234 290 346 402
#     4  12  22  43  64  96 137 190 224 295 353 402
#     4  12  26  44  64  96 134 194 250 294 336 424
#     4   8  18  48  76 100 136 180 218 266 376 402
#
# _framework density 20.479655999999999
#
# number of rings (size 3 to 8) (size 9 to 14) (size 15 to 20)
#    0.000    1.053    7.368    0.000    4.421    3.789 
#    0.000    2.105    0.000    5.053    0.000    0.000 
#    0.000    0.000    0.000    0.000    0.000    0.000 
#
# Total GULP energy -105781.099626 kJ/mol
# GULP energy per Si atom -5567.426296 kJ/mol
# Density = 2.043304 g / cm^3
# Si number density = 20.479656 Si / 1000 Ang^3
#
#
#
# Elastic Constant Matrix: (Units=GPa)
#
#
# Indices 1 2 3 4 5 6 
#
# 1 91.1892 62.9571 41.0271 0.0000 0.0000 0.0000
# 2 62.9571 111.8472 70.1277 0.0000 0.0000 0.0000
# 3 41.0271 70.1277 156.8898 0.0000 0.0000 0.0000
# 4 0.0000 0.0000 0.0000 36.2360 0.0000 0.0000
# 5 0.0000 0.0000 0.0000 0.0000 2.7905 0.0000
# 6 0.0000 0.0000 0.0000 0.0000 0.0000 32.2341
#
#
#
# Elastic Compliance Matrix: (Units=1/GPa)
#
#
# Indices 1 2 3 4 5 6 
#
# 1 0.017944 -0.009945 -0.000247 0.000000 0.000000 0.000000
# 2 -0.009945 0.017935 -0.005416 0.000000 0.000000 0.000000
# 3 -0.000247 -0.005416 0.008859 0.000000 0.000000 0.000000
# 4 0.000000 0.000000 0.000000 0.027597 0.000000 0.000000
# 5 0.000000 0.000000 0.000000 0.000000 0.358354 0.000000
# 6 0.000000 0.000000 0.000000 0.000000 0.000000 0.031023
#
#
# Mechanical properties :
#
#
# Convention : Reuss Voigt Hill
#
# Bulk Modulus (GPa) = 73.95707 78.68335 76.32021
# Shear Modulus (GPa) = 10.05157 26.63976 18.34567
#
# Velocity S-wave (km/s) = 2.21782 3.61056 2.99624
# Velocity P-wave (km/s) = 6.53828 7.47564 7.02262
#
# Compressibility (1/GPa) = 0.01352136
#
# Stress axis : x y z
#
# Youngs Moduli (GPa) = 55.73027 55.75836 112.87679
#
# Poissons Ratio (x) = 0.55454 0.02786
# Poissons Ratio (y) = 0.55426 0.61131
# Poissons Ratio (z) = 0.01376 0.30197
#
# Static dielectric constant tensor:
#      x y z
#    x 1.730830 0.000000 0.000000 
#    y 0.000000 1.963940 0.000000 
#    z 0.000000 0.000000 1.776580 
# 
# From -- ./inp_files/7172.got.cif
#   From: 2010.05.17/outbox.cif.g08.bks.cpg/sg21_4_cif.got.tgz:7172.got - 2010.06.03 23:14:55.
