data_PCOD9325925
_publ_section_title
;
Structure prediction by ZEFSAII (Michael W. Deem and Ramdas Pophale) SiO2 
 PCOD9325925
Probable space group: F 2 2 2
;
_chemical_formula_sum "Si O2"
_cell_formula_units_Z 120
_cell_length_a 19.607943
_cell_length_b 14.286255
_cell_length_c 16.637645
_cell_angle_alpha 90.000000
_cell_angle_beta 90.000000
_cell_angle_gamma 90.000000
_cell_volume 4660.604895
_symmetry_space_group_name_H-M "F 2 2 2"
_symmetry_group_IT_number 22
_symmetry_cell_setting 'orthorhombic'
loop_
_space_group_symop_operation_xyz
x,y,z
-x,-y,z
x,-y,-z
-x,y,-z
x,1/2+y,1/2+z
-x,1/2-y,1/2+z
x,1/2-y,1/2-z
-x,1/2+y,1/2-z
1/2+x,y,1/2+z
1/2-x,-y,1/2+z
1/2+x,-y,1/2-z
1/2-x,y,1/2-z
1/2+x,1/2+y,z
1/2-x,1/2-y,z
1/2+x,1/2-y,-z
1/2-x,1/2+y,-z
loop_
_atom_site_type_symbol
_atom_site_label
_atom_site_fract_x
_atom_site_fract_y
_atom_site_fract_z
Si Si1 0.250000 0.972895 0.250000
Si Si2 0.563079 0.780831 0.557518
Si Si3 0.397431 0.401088 0.792405
Si Si4 0.936547 0.928920 0.608726
Si Si5 0.919173 0.104482 0.820899
Si Si6 0.187230 0.064762 0.409168
Si Si7 0.106819 0.794848 0.674599
Si Si8 0.829111 0.900098 0.033072
O O1 0.220714 0.034245 0.323342
O O2 0.315320 0.914941 0.284095
O O3 0.500000 0.817450 0.500000
O O4 0.579096 0.821342 0.647156
O O5 0.444686 0.789558 0.655996
O O6 0.631577 0.820282 0.514229
O O7 0.425035 0.399268 0.701886
O O8 0.430641 0.495066 0.831301
O O9 0.943810 0.830890 0.562717
O O10 0.868358 0.983149 0.580352
O O11 0.000000 0.000000 0.597898
O O12 0.922280 0.117256 0.724499
O O13 0.850486 0.111967 0.874191
O O14 0.147325 0.161235 0.395993
O O15 0.248006 0.090331 0.469574
O O16 0.148795 0.750000 0.750000
O O17 0.855774 0.000000 0.000000
#
# Coordination Sequence:
#
# PCOD9325925 Si02
#       8
#     8  16  16  16  16  16  16  16
#     4  10  16  38  80 120 162 198 260 352 438 478
#     4  12  30  55  79 115 170 230 281 342 427 528
#     4  11  21  49  86 119 159 208 283 360 427 497
#     4  11  27  54  85 114 156 227 291 349 415 507
#     4   9  18  38  68 111 152 192 252 331 409 477
#     4  11  20  43  74 114 162 207 263 344 411 491
#     4   8  17  35  63 108 149 192 248 331 405 460
#     4  12  24  47  72 113 162 209 265 330 429 503
#
# _framework density 25.747731000000002
#
# number of rings (size 3 to 8) (size 9 to 14) (size 15 to 20)
#    0.800    0.533    5.333    0.400    0.000    3.200 
#    9.600    8.000    0.000    0.000    0.000    0.000 
#    0.000    0.000    0.000    0.000    0.000    0.000 
#
# Total GULP energy -167146.412481 kJ/mol
# GULP energy per Si atom -5571.547083 kJ/mol
# Density = 2.568913 g / cm^3
# Si number density = 25.747731 Si / 1000 Ang^3
#
#
#
# Elastic Constant Matrix: (Units=GPa)
#
#
# Indices 1 2 3 4 5 6 
#
# 1 195.6986 67.9559 59.9394 0.0000 0.0000 0.0000
# 2 67.9559 171.0873 45.8998 0.0000 0.0000 0.0000
# 3 59.9394 45.8998 131.0419 0.0000 0.0000 0.0000
# 4 0.0000 0.0000 0.0000 40.7169 0.0000 0.0000
# 5 0.0000 0.0000 0.0000 0.0000 11.4055 0.0000
# 6 0.0000 0.0000 0.0000 0.0000 0.0000 13.2356
#
#
#
# Elastic Compliance Matrix: (Units=1/GPa)
#
#
# Indices 1 2 3 4 5 6 
#
# 1 0.006491 -0.001967 -0.002280 0.000000 0.000000 0.000000
# 2 -0.001967 0.007047 -0.001569 0.000000 0.000000 0.000000
# 3 -0.002280 -0.001569 0.009224 0.000000 0.000000 0.000000
# 4 0.000000 0.000000 0.000000 0.024560 0.000000 0.000000
# 5 0.000000 0.000000 0.000000 0.000000 0.087677 0.000000
# 6 0.000000 0.000000 0.000000 0.000000 0.000000 0.075554
#
#
# Mechanical properties :
#
#
# Convention : Reuss Voigt Hill
#
# Bulk Modulus (GPa) = 89.84301 93.93532 91.88917
# Shear Modulus (GPa) = 22.13429 34.67379 28.40404
#
# Velocity S-wave (km/s) = 2.93518 3.67369 3.32500
# Velocity P-wave (km/s) = 6.81589 7.38626 7.10680
#
# Compressibility (1/GPa) = 0.01113053
#
# Stress axis : x y z
#
# Youngs Moduli (GPa) = 154.05494 141.90506 108.41661
#
# Poissons Ratio (x) = 0.27906 0.24722
# Poissons Ratio (y) = 0.30295 0.17009
# Poissons Ratio (z) = 0.35129 0.22262
#
# Static dielectric constant tensor:
#      x y z
#    x 2.131170 0.000000 0.000000 
#    y 0.000000 2.098780 0.000000 
#    z 0.000000 0.000000 1.891530 
# 
# From -- ./inp_files/44376.got.cif
#   From: 2010.05.17/outbox.cif.g08.bks.cpg/sg22_23_cif.got.tgz:44376.got - 2010.06.03 23:40:54.
