data_PCOD9325308
_publ_section_title
;
Structure prediction by ZEFSAII (Michael W. Deem and Ramdas Pophale) SiO2 
 PCOD9325308
Probable space group: C 2 2 2
;
_chemical_formula_sum "Si O2"
_cell_formula_units_Z 48
_cell_length_a 28.475421
_cell_length_b 10.178368
_cell_length_c 8.507401
_cell_angle_alpha 90.000000
_cell_angle_beta 90.000000
_cell_angle_gamma 90.000000
_cell_volume 2465.728224
_symmetry_space_group_name_H-M "C 2 2 2"
_symmetry_group_IT_number 21
_symmetry_cell_setting 'orthorhombic'
loop_
_space_group_symop_operation_xyz
x,y,z
-x,-y,z
x,-y,-z
-x,y,-z
1/2+x,1/2+y,z
1/2-x,1/2-y,z
1/2+x,1/2-y,-z
1/2-x,1/2+y,-z
loop_
_atom_site_type_symbol
_atom_site_label
_atom_site_fract_x
_atom_site_fract_y
_atom_site_fract_z
Si Si1 0.342652 0.001486 0.308932
Si Si2 0.893186 0.756825 0.686898
Si Si3 0.089492 0.735315 0.685930
Si Si4 0.756097 0.095858 0.650201
Si Si5 0.146816 0.972021 0.817136
Si Si6 0.992859 0.656044 0.814160
O O1 0.355930 0.854778 0.261741
O O2 0.342207 0.000000 0.500000
O O3 0.383541 0.102393 0.261650
O O4 0.291547 0.052524 0.260670
O O5 0.899495 0.753664 0.498354
O O6 0.873780 0.897549 0.736090
O O7 0.942741 0.712372 0.761249
O O8 0.034594 0.723588 0.717686
O O9 0.111019 0.854700 0.782209
O O10 0.750000 0.250000 0.606686
O O11 0.759802 0.000000 0.500000
O O12 0.803259 0.072453 0.746994
O O13 0.151399 0.000000 0.000000
O O14 0.000000 0.500000 0.785032
O O15 0.000000 0.678038 0.000000
#
# Coordination Sequence:
#
# PCOD9325308 Si02
#       6
#     8   8   8   8   8   8
#     4   9  20  37  65  96 125 161 215 273 318 367
#     4  11  23  42  68  98 123 175 228 270 320 383
#     4  11  21  42  69  94 128 171 224 271 317 388
#     4  11  23  43  70  99 129 171 222 274 322 387
#     4  12  27  45  62  95 139 175 212 273 341 395
#     4  11  23  39  63 100 140 173 207 266 337 399
#
# _framework density 19.466867000000001
#
# number of rings (size 3 to 8) (size 9 to 14) (size 15 to 20)
#    0.000    1.167    3.333    3.000    4.667    1.333 
#    3.000    3.333    0.000    0.000    0.000    0.000 
#    0.000    0.000    0.000    0.000    0.000    0.000 
#
# Total GULP energy -134130.086668 kJ/mol
# GULP energy per Si atom -5588.753611 kJ/mol
# Density = 1.942256 g / cm^3
# Si number density = 19.466867 Si / 1000 Ang^3
#
#
#
# Elastic Constant Matrix: (Units=GPa)
#
#
# Indices 1 2 3 4 5 6 
#
# 1 108.7426 37.7129 15.2783 0.0000 0.0000 0.0000
# 2 37.7129 130.4863 32.3611 0.0000 0.0000 0.0000
# 3 15.2783 32.3611 67.5818 0.0000 0.0000 0.0000
# 4 0.0000 0.0000 0.0000 13.7249 0.0000 0.0000
# 5 0.0000 0.0000 0.0000 0.0000 -7.5695 0.0000
# 6 0.0000 0.0000 0.0000 0.0000 0.0000 18.5378
#
#
#
# Elastic Compliance Matrix: (Units=1/GPa)
#
#
# Indices 1 2 3 4 5 6 
#
# 1 0.010282 -0.002718 -0.001023 0.000000 0.000000 0.000000
# 2 -0.002718 0.009415 -0.003894 0.000000 0.000000 0.000000
# 3 -0.001023 -0.003894 0.016893 0.000000 0.000000 0.000000
# 4 0.000000 0.000000 0.000000 0.072860 0.000000 0.000000
# 5 0.000000 0.000000 0.000000 0.000000 -0.132108 0.000000
# 6 0.000000 0.000000 0.000000 0.000000 0.000000 0.053944
#
#
# Mechanical properties :
#
#
# Convention : Reuss Voigt Hill
#
# Bulk Modulus (GPa) = 46.90386 53.05725 49.98055
# Shear Modulus (GPa) = 93.17529 19.70252 56.43890
#
# Velocity S-wave (km/s) = 6.92585 3.18481 5.39029
# Velocity P-wave (km/s) = 9.38632 6.39049 8.02937
#
# Compressibility (1/GPa) = 0.02132021
#
# Stress axis : x y z
#
# Youngs Moduli (GPa) = 97.25337 106.21479 59.19726
#
# Poissons Ratio (x) = 0.28870 0.06056
# Poissons Ratio (y) = 0.26434 0.23050
# Poissons Ratio (z) = 0.09949 0.41358
#
# Static dielectric constant tensor:
#      x y z
#    x 1.677030 0.000000 0.000000 
#    y 0.000000 1.682600 0.000000 
#    z 0.000000 0.000000 1.667040 
# 
# From -- ./inp_files/19634.got.cif
#   From: 2010.05.17/outbox.cif.g08.bks.cpg/sg21_10_cif.got.tgz:19634.got - 2010.06.03 23:14:55.
