data_PCOD9325438
_publ_section_title
;
Structure prediction by ZEFSAII (Michael W. Deem and Ramdas Pophale) SiO2 
 PCOD9325438
Probable space group: C 2 2 2
;
_chemical_formula_sum "Si O2"
_cell_formula_units_Z 20
_cell_length_a 4.530870
_cell_length_b 9.079784
_cell_length_c 19.291334
_cell_angle_alpha 90.000000
_cell_angle_beta 90.000000
_cell_angle_gamma 90.000000
_cell_volume 793.632381
_symmetry_space_group_name_H-M "C 2 2 2"
_symmetry_group_IT_number 21
_symmetry_cell_setting 'orthorhombic'
loop_
_space_group_symop_operation_xyz
x,y,z
-x,-y,z
x,-y,-z
-x,y,-z
1/2+x,1/2+y,z
1/2-x,1/2-y,z
1/2+x,1/2-y,-z
1/2-x,1/2+y,-z
loop_
_atom_site_type_symbol
_atom_site_label
_atom_site_fract_x
_atom_site_fract_y
_atom_site_fract_z
Si Si1 0.250000 0.250000 0.901984
Si Si2 0.000000 0.000000 0.000000
Si Si3 0.000000 0.000000 0.500000
Si Si4 0.250000 0.750000 0.796376
Si Si5 0.500000 0.000000 0.401174
Si Si6 0.500000 0.500000 0.301795
O O1 0.326917 0.387830 0.950334
O O2 0.501614 0.198919 0.849494
O O3 0.751313 0.922563 0.450560
O O4 0.361510 0.622146 0.746835
O O5 0.737889 0.071059 0.348909
#
# Coordination Sequence:
#
# PCOD9325438 Si02
#       6
#     4   2   2   4   4   4
#     4  12  29  50  76 108 149 192 248 308 372 448
#     4  12  30  52  78 110 146 196 244 308 376 444
#     4   8  16  34  66 102 140 194 240 300 356 426
#     4  12  27  46  72 106 145 190 244 302 368 438
#     4   9  18  36  66 100 144 189 244 298 360 429
#     4  11  23  41  68 101 143 193 242 304 366 435
#
# _framework density 25.200583000000002
#
# number of rings (size 3 to 8) (size 9 to 14) (size 15 to 20)
#    0.000    1.200    0.000    4.800    0.000   13.600 
#    0.000    0.000    0.000   67.200    0.000    0.000 
#    0.000    0.000    0.000    0.000    0.000    0.000 
#
# Total GULP energy -55745.152622 kJ/mol
# GULP energy per Si atom -5574.515262 kJ/mol
# Density = 2.514323 g / cm^3
# Si number density = 25.200583 Si / 1000 Ang^3
#
#
#
# Elastic Constant Matrix: (Units=GPa)
#
#
# Indices 1 2 3 4 5 6 
#
# 1 219.8104 65.0777 126.8174 0.0000 0.0000 0.0000
# 2 65.0777 169.3683 87.8156 0.0000 0.0000 0.0000
# 3 126.8174 87.8156 194.5833 0.0000 0.0000 0.0000
# 4 0.0000 0.0000 0.0000 -50.5816 0.0000 0.0000
# 5 0.0000 0.0000 0.0000 0.0000 62.9820 0.0000
# 6 0.0000 0.0000 0.0000 0.0000 0.0000 28.8346
#
#
#
# Elastic Compliance Matrix: (Units=1/GPa)
#
#
# Indices 1 2 3 4 5 6 
#
# 1 0.007316 -0.000442 -0.004569 0.000000 0.000000 0.000000
# 2 -0.000442 0.007735 -0.003202 0.000000 0.000000 0.000000
# 3 -0.004569 -0.003202 0.009562 0.000000 0.000000 0.000000
# 4 0.000000 0.000000 0.000000 -0.019770 0.000000 0.000000
# 5 0.000000 0.000000 0.000000 0.000000 0.015878 0.000000
# 6 0.000000 0.000000 0.000000 0.000000 0.000000 0.034681
#
#
# Mechanical properties :
#
#
# Convention : Reuss Voigt Hill
#
# Bulk Modulus (GPa) = 122.15777 127.02040 124.58909
# Shear Modulus (GPa) = 67.06370 28.51709 47.79040
#
# Velocity S-wave (km/s) = 5.16428 3.36758 4.35949
# Velocity P-wave (km/s) = 9.17273 8.10148 8.65370
#
# Compressibility (1/GPa) = 0.00818614
#
# Stress axis : x y z
#
# Youngs Moduli (GPa) = 136.68426 129.28833 104.58168
#
# Poissons Ratio (x) = 0.05720 0.47779
# Poissons Ratio (y) = 0.06047 0.33491
# Poissons Ratio (z) = 0.62445 0.41402
#
# Static dielectric constant tensor:
#      x y z
#    x 1.963570 0.000000 0.000000 
#    y 0.000000 1.958900 0.000000 
#    z 0.000000 0.000000 2.031010 
# 
# From -- ./inp_files/34179.got.cif
#   From: 2010.05.17/outbox.cif.g08.bks.cpg/sg21_18_cif.got.tgz:34179.got - 2010.06.03 23:14:55.
