data_PCOD9325785
_publ_section_title
;
Structure prediction by ZEFSAII (Michael W. Deem and Ramdas Pophale) SiO2 
 PCOD9325785
Probable space group: C 2 2 2
;
_chemical_formula_sum "Si O2"
_cell_formula_units_Z 32
_cell_length_a 13.933914
_cell_length_b 5.596442
_cell_length_c 18.726847
_cell_angle_alpha 90.000000
_cell_angle_beta 90.000000
_cell_angle_gamma 90.000000
_cell_volume 1460.325925
_symmetry_space_group_name_H-M "C 2 2 2"
_symmetry_group_IT_number 21
_symmetry_cell_setting 'orthorhombic'
loop_
_space_group_symop_operation_xyz
x,y,z
-x,-y,z
x,-y,-z
-x,y,-z
1/2+x,1/2+y,z
1/2-x,1/2-y,z
1/2+x,1/2-y,-z
1/2-x,1/2+y,-z
loop_
_atom_site_type_symbol
_atom_site_label
_atom_site_fract_x
_atom_site_fract_y
_atom_site_fract_z
Si Si1 0.555406 0.241037 0.365525
Si Si2 0.250000 0.250000 0.543630
Si Si3 0.638108 0.791470 0.790834
Si Si4 0.500000 0.500000 0.882808
Si Si5 0.355398 0.136286 0.074828
O O1 0.500000 0.500000 0.368801
O O2 0.653688 0.266513 0.409337
O O3 0.584579 0.180937 0.283844
O O4 0.500000 0.000000 0.391615
O O5 0.244541 0.500000 0.500000
O O6 0.750000 0.750000 0.777021
O O7 0.586521 0.575974 0.831213
O O8 0.629807 0.993858 0.851192
O O9 0.447679 0.696354 0.929221
O O10 0.250000 0.250000 0.081143
O O11 0.351253 0.000000 0.000000
#
# Coordination Sequence:
#
# PCOD9325785 Si02
#       5
#     8   4   8   4   8
#     4  12  27  49  81 119 159 207 262 316 381 462
#     4  12  28  52  80 120 164 210 254 316 388 462
#     4  12  25  48  76 108 144 196 250 320 378 457
#     4  12  26  49  72 100 143 190 250 306 397 444
#     4  12  28  49  71 103 146 194 254 320 392 463
#
# _framework density 21.912915000000002
#
# number of rings (size 3 to 8) (size 9 to 14) (size 15 to 20)
#    0.000    0.000    5.000    4.500    0.000    6.000 
#    2.250    0.000    0.000    0.000    0.000    0.000 
#    0.000    0.000    0.000    0.000    0.000    0.000 
#
# Total GULP energy -89430.586522 kJ/mol
# GULP energy per Si atom -5589.411658 kJ/mol
# Density = 2.186304 g / cm^3
# Si number density = 21.912915 Si / 1000 Ang^3
#
#
#
# Elastic Constant Matrix: (Units=GPa)
#
#
# Indices 1 2 3 4 5 6 
#
# 1 171.0999 73.3552 62.6230 0.0000 0.0000 0.0000
# 2 73.3552 126.1812 71.7025 0.0000 0.0000 0.0000
# 3 62.6230 71.7025 141.8626 0.0000 0.0000 0.0000
# 4 0.0000 0.0000 0.0000 -5.5359 0.0000 0.0000
# 5 0.0000 0.0000 0.0000 0.0000 31.5023 0.0000
# 6 0.0000 0.0000 0.0000 0.0000 0.0000 57.2183
#
#
#
# Elastic Compliance Matrix: (Units=1/GPa)
#
#
# Indices 1 2 3 4 5 6 
#
# 1 0.008057 -0.003736 -0.001668 0.000000 0.000000 0.000000
# 2 -0.003736 0.012851 -0.004846 0.000000 0.000000 0.000000
# 3 -0.001668 -0.004846 0.010235 0.000000 0.000000 0.000000
# 4 0.000000 0.000000 0.000000 -0.180638 0.000000 0.000000
# 5 0.000000 0.000000 0.000000 0.000000 0.031744 0.000000
# 6 0.000000 0.000000 0.000000 0.000000 0.000000 0.017477
#
#
# Mechanical properties :
#
#
# Convention : Reuss Voigt Hill
#
# Bulk Modulus (GPa) = 93.96751 94.94498 94.45625
# Shear Modulus (GPa) = -65.59304 32.06781 -16.76262
#
# Velocity S-wave (km/s) = -5.47709 3.82962 -2.76880
# Velocity P-wave (km/s) = 1.72550 7.93581 5.74258
#
# Compressibility (1/GPa) = 0.01064198
#
# Stress axis : x y z
#
# Youngs Moduli (GPa) = 124.11911 77.81684 97.70449
#
# Poissons Ratio (x) = 0.29070 0.16301
# Poissons Ratio (y) = 0.46368 0.47349
# Poissons Ratio (z) = 0.20707 0.37711
#
# Static dielectric constant tensor:
#      x y z
#    x 1.760060 0.000000 0.000000 
#    y 0.000000 1.918970 0.000000 
#    z 0.000000 0.000000 2.113910 
# 
# From -- ./inp_files/36463.got.cif
#   From: 2010.05.17/outbox.cif.g08.bks.cpg/sg21_19_cif.got.tgz:36463.got - 2010.06.03 23:14:55.
