data_PCOD9325809
_publ_section_title
;
Structure prediction by ZEFSAII (Michael W. Deem and Ramdas Pophale) SiO2 
 PCOD9325809
Probable space group: C 2 2 2
;
_chemical_formula_sum "Si O2"
_cell_formula_units_Z 26
_cell_length_a 30.938798
_cell_length_b 7.312347
_cell_length_c 5.429397
_cell_angle_alpha 90.000000
_cell_angle_beta 90.000000
_cell_angle_gamma 90.000000
_cell_volume 1228.320861
_symmetry_space_group_name_H-M "C 2 2 2"
_symmetry_group_IT_number 21
_symmetry_cell_setting 'orthorhombic'
loop_
_space_group_symop_operation_xyz
x,y,z
-x,-y,z
x,-y,-z
-x,y,-z
1/2+x,1/2+y,z
1/2-x,1/2-y,z
1/2+x,1/2-y,-z
1/2-x,1/2+y,-z
loop_
_atom_site_type_symbol
_atom_site_label
_atom_site_fract_x
_atom_site_fract_y
_atom_site_fract_z
Si Si1 0.079178 0.810740 0.264352
Si Si2 0.209117 0.617882 0.751068
Si Si3 0.385138 0.280167 0.236009
Si Si4 0.500000 0.500000 0.500000
O O1 0.106430 0.001152 0.249052
O O2 0.096557 0.709231 0.504729
O O3 0.030915 0.877252 0.328233
O O4 0.088124 0.718110 0.004113
O O5 0.205716 0.500000 0.500000
O O6 0.164634 0.729229 0.784905
O O7 0.214712 0.500000 0.000000
O O8 0.250000 0.250000 0.274783
#
# Coordination Sequence:
#
# PCOD9325809 Si02
#       4
#     8   8   8   2
#     4   9  18  31  60  85 122 157 193 265 289 381
#     4  12  27  42  64  90 122 169 219 267 313 380
#     4   9  19  34  53  81 118 157 192 246 315 348
#     4   8  16  30  52 102 122 150 208 250 330 334
#
# _framework density 21.167109
#
# number of rings (size 3 to 8) (size 9 to 14) (size 15 to 20)
#    0.000    2.462    0.000    2.769    8.615    9.846 
#    0.000    0.000    0.000    0.000    0.000  112.000 
#    0.000    0.000    0.000    0.000    0.000    0.000 
#
# Total GULP energy -72532.810493 kJ/mol
# GULP energy per Si atom -5579.446961 kJ/mol
# Density = 2.111893 g / cm^3
# Si number density = 21.167109 Si / 1000 Ang^3
#
#
#
# Elastic Constant Matrix: (Units=GPa)
#
#
# Indices 1 2 3 4 5 6 
#
# 1 187.7990 44.1524 64.5441 0.0000 0.0000 0.0000
# 2 44.1524 83.3633 30.8416 0.0000 0.0000 0.0000
# 3 64.5441 30.8416 226.6638 0.0000 0.0000 0.0000
# 4 0.0000 0.0000 0.0000 8.8515 0.0000 0.0000
# 5 0.0000 0.0000 0.0000 0.0000 40.1044 0.0000
# 6 0.0000 0.0000 0.0000 0.0000 0.0000 14.6997
#
#
#
# Elastic Compliance Matrix: (Units=1/GPa)
#
#
# Indices 1 2 3 4 5 6 
#
# 1 0.006510 -0.002908 -0.001458 0.000000 0.000000 0.000000
# 2 -0.002908 0.013931 -0.001067 0.000000 0.000000 0.000000
# 3 -0.001458 -0.001067 0.004972 0.000000 0.000000 0.000000
# 4 0.000000 0.000000 0.000000 0.112976 0.000000 0.000000
# 5 0.000000 0.000000 0.000000 0.000000 0.024935 0.000000
# 6 0.000000 0.000000 0.000000 0.000000 0.000000 0.068029
#
#
# Mechanical properties :
#
#
# Convention : Reuss Voigt Hill
#
# Bulk Modulus (GPa) = 68.74990 86.32247 77.53619
# Shear Modulus (GPa) = 20.23734 36.61697 28.42716
#
# Velocity S-wave (km/s) = 3.09540 4.16372 3.66865
# Velocity P-wave (km/s) = 6.73242 7.99908 7.39293
#
# Compressibility (1/GPa) = 0.01454548
#
# Stress axis : x y z
#
# Youngs Moduli (GPa) = 153.61704 71.78248 201.11761
#
# Poissons Ratio (x) = 0.20877 0.29322
# Poissons Ratio (y) = 0.44678 0.21467
# Poissons Ratio (z) = 0.22397 0.07662
#
# Static dielectric constant tensor:
#      x y z
#    x 1.709410 0.000000 0.000000 
#    y 0.000000 1.601640 0.000000 
#    z 0.000000 0.000000 1.945370 
# 
# From -- ./inp_files/5457.got.cif
#   From: 2010.05.17/outbox.cif.g08.bks.cpg/sg21_3_cif.got.tgz:5457.got - 2010.06.03 23:14:55.
