data_PCOD9325069
_publ_section_title
;
Structure prediction by ZEFSAII (Michael W. Deem and Ramdas Pophale) SiO2 
 PCOD9325069
Probable space group: C 2 2 2
;
_chemical_formula_sum "Si O2"
_cell_formula_units_Z 20
_cell_length_a 17.790994
_cell_length_b 4.963397
_cell_length_c 8.671812
_cell_angle_alpha 90.000000
_cell_angle_beta 90.000000
_cell_angle_gamma 90.000000
_cell_volume 765.753660
_symmetry_space_group_name_H-M "C 2 2 2"
_symmetry_group_IT_number 21
_symmetry_cell_setting 'orthorhombic'
loop_
_space_group_symop_operation_xyz
x,y,z
-x,-y,z
x,-y,-z
-x,y,-z
1/2+x,1/2+y,z
1/2-x,1/2-y,z
1/2+x,1/2-y,-z
1/2-x,1/2+y,-z
loop_
_atom_site_type_symbol
_atom_site_label
_atom_site_fract_x
_atom_site_fract_y
_atom_site_fract_z
Si Si1 0.693835 0.500000 0.500000
Si Si2 0.395033 0.735989 0.749724
Si Si3 0.000000 0.500000 0.500000
Si Si4 0.750000 0.250000 0.903405
Si Si5 0.000000 0.500000 0.000000
O O1 0.750000 0.250000 0.506093
O O2 0.642884 0.517039 0.656910
O O3 0.445264 0.839979 0.610947
O O4 0.318261 0.873732 0.807211
O O5 0.449619 0.799166 0.894376
O O6 0.717273 0.500000 0.000000
#
# Coordination Sequence:
#
# PCOD9325069 Si02
#       5
#     4   8   2   4   2
#     4  12  27  49  90 124 160 210 280 346 403 481
#     4  11  25  51  84 119 166 214 275 335 412 487
#     4  10  26  52  84 122 164 214 264 344 414 484
#     4  12  28  48  82 118 160 212 276 336 402 484
#     4  10  24  58  82 122 170 220 270 342 418 490
#
# _framework density 26.118061999999998
#
# number of rings (size 3 to 8) (size 9 to 14) (size 15 to 20)
#    0.000    0.800    4.000    1.200    2.800    0.800 
#    7.200    0.000    0.000    0.000    0.000    0.000 
#    0.000    0.000    0.000    0.000    0.000    0.000 
#
# Total GULP energy -55724.428139 kJ/mol
# GULP energy per Si atom -5572.442814 kJ/mol
# Density = 2.605862 g / cm^3
# Si number density = 26.118062 Si / 1000 Ang^3
#
#
#
# Elastic Constant Matrix: (Units=GPa)
#
#
# Indices 1 2 3 4 5 6 
#
# 1 208.2506 48.4787 97.6510 0.0000 0.0000 0.0000
# 2 48.4787 115.3112 51.1382 0.0000 0.0000 0.0000
# 3 97.6510 51.1382 197.3871 0.0000 0.0000 0.0000
# 4 0.0000 0.0000 0.0000 10.5533 0.0000 0.0000
# 5 0.0000 0.0000 0.0000 0.0000 22.8036 0.0000
# 6 0.0000 0.0000 0.0000 0.0000 0.0000 34.4460
#
#
#
# Elastic Compliance Matrix: (Units=1/GPa)
#
#
# Indices 1 2 3 4 5 6 
#
# 1 0.006465 -0.001468 -0.002818 0.000000 0.000000 0.000000
# 2 -0.001468 0.010131 -0.001898 0.000000 0.000000 0.000000
# 3 -0.002818 -0.001898 0.006952 0.000000 0.000000 0.000000
# 4 0.000000 0.000000 0.000000 0.094757 0.000000 0.000000
# 5 0.000000 0.000000 0.000000 0.000000 0.043853 0.000000
# 6 0.000000 0.000000 0.000000 0.000000 0.000000 0.029031
#
#
# Mechanical properties :
#
#
# Convention : Reuss Voigt Hill
#
# Bulk Modulus (GPa) = 89.45176 101.72052 95.58614
# Shear Modulus (GPa) = 24.12135 35.13930 29.63032
#
# Velocity S-wave (km/s) = 3.04229 3.67195 3.37185
# Velocity P-wave (km/s) = 6.83111 7.55040 7.19975
#
# Compressibility (1/GPa) = 0.01117921
#
# Stress axis : x y z
#
# Youngs Moduli (GPa) = 154.67643 98.70319 143.84073
#
# Poissons Ratio (x) = 0.14493 0.40534
# Poissons Ratio (y) = 0.22711 0.27307
# Poissons Ratio (z) = 0.43588 0.18738
#
# Static dielectric constant tensor:
#      x y z
#    x 2.034360 0.000000 0.000000 
#    y 0.000000 2.087490 0.000000 
#    z 0.000000 0.000000 2.175560 
# 
# From -- ./inp_files/8467.got.cif
#   From: 2010.05.17/outbox.cif.g08.bks.cpg/sg21_5_cif.got.tgz:8467.got - 2010.06.03 23:14:55.
