data_PCOD9325368
_publ_section_title
;
Structure prediction by ZEFSAII (Michael W. Deem and Ramdas Pophale) SiO2 
 PCOD9325368
Probable space group: C 2 2 2
;
_chemical_formula_sum "Si O2"
_cell_formula_units_Z 32
_cell_length_a 5.372427
_cell_length_b 17.412598
_cell_length_c 16.796237
_cell_angle_alpha 90.000000
_cell_angle_beta 90.000000
_cell_angle_gamma 90.000000
_cell_volume 1571.252895
_symmetry_space_group_name_H-M "C 2 2 2"
_symmetry_group_IT_number 21
_symmetry_cell_setting 'orthorhombic'
loop_
_space_group_symop_operation_xyz
x,y,z
-x,-y,z
x,-y,-z
-x,y,-z
1/2+x,1/2+y,z
1/2-x,1/2-y,z
1/2+x,1/2-y,-z
1/2-x,1/2+y,-z
loop_
_atom_site_type_symbol
_atom_site_label
_atom_site_fract_x
_atom_site_fract_y
_atom_site_fract_z
Si Si1 0.750000 0.250000 0.133333
Si Si2 0.499090 0.302195 0.412895
Si Si3 0.750151 0.950172 0.113308
Si Si4 0.000000 0.655492 0.000000
Si Si5 0.607203 0.667572 0.241856
O O1 0.634368 0.314303 0.189301
O O2 0.561346 0.209279 0.073966
O O3 0.500000 0.341327 0.500000
O O4 0.750000 0.250000 0.404301
O O5 0.466644 0.350926 0.332487
O O6 0.250000 0.250000 0.415901
O O7 0.752728 0.897160 0.192354
O O8 0.500000 0.000000 0.114740
O O9 0.719610 0.897711 0.034254
O O10 0.000000 0.000000 0.112117
O O11 0.750000 0.750000 0.242785
#
# Coordination Sequence:
#
# PCOD9325368 Si02
#       5
#     4   8   8   4   8
#     4  12  22  40  64  94 122 156 222 268 324 350
#     4   9  18  33  60  96 127 153 193 255 314 365
#     4  12  28  45  62  90 128 172 214 261 317 372
#     4  12  25  42  64  88 125 168 218 270 313 368
#     4  11  22  41  65  92 124 164 208 261 312 374
#
# _framework density 20.365912999999999
#
# number of rings (size 3 to 8) (size 9 to 14) (size 15 to 20)
#    0.000    1.000    3.750    3.375    0.000    6.000 
#    0.000    0.000    0.000    0.750    0.000    5.250 
#    0.000    0.000    0.000    0.000    0.000    0.000 
#
# Total GULP energy -89353.132485 kJ/mol
# GULP energy per Si atom -5584.570780 kJ/mol
# Density = 2.031956 g / cm^3
# Si number density = 20.365913 Si / 1000 Ang^3
#
#
#
# Elastic Constant Matrix: (Units=GPa)
#
#
# Indices 1 2 3 4 5 6 
#
# 1 106.8964 25.3464 21.4285 0.0000 0.0000 0.0000
# 2 25.3464 53.3347 28.7487 0.0000 0.0000 0.0000
# 3 21.4285 28.7487 190.9797 0.0000 0.0000 0.0000
# 4 0.0000 0.0000 0.0000 5.0983 0.0000 0.0000
# 5 0.0000 0.0000 0.0000 0.0000 30.0889 0.0000
# 6 0.0000 0.0000 0.0000 0.0000 0.0000 26.1150
#
#
#
# Elastic Compliance Matrix: (Units=1/GPa)
#
#
# Indices 1 2 3 4 5 6 
#
# 1 0.010581 -0.004776 -0.000468 0.000000 0.000000 0.000000
# 2 -0.004776 0.022561 -0.002860 0.000000 0.000000 0.000000
# 3 -0.000468 -0.002860 0.005719 0.000000 0.000000 0.000000
# 4 0.000000 0.000000 0.000000 0.196143 0.000000 0.000000
# 5 0.000000 0.000000 0.000000 0.000000 0.033235 0.000000
# 6 0.000000 0.000000 0.000000 0.000000 0.000000 0.038292
#
#
# Mechanical properties :
#
#
# Convention : Reuss Voigt Hill
#
# Bulk Modulus (GPa) = 44.14588 55.80643 49.97616
# Shear Modulus (GPa) = 15.13812 30.63959 22.88885
#
# Velocity S-wave (km/s) = 2.72932 3.88294 3.35607
# Velocity P-wave (km/s) = 5.62634 6.89669 6.29365
#
# Compressibility (1/GPa) = 0.02265217
#
# Stress axis : x y z
#
# Youngs Moduli (GPa) = 94.50726 44.32415 174.84759
#
# Poissons Ratio (x) = 0.21170 0.08188
# Poissons Ratio (y) = 0.45138 0.50011
# Poissons Ratio (z) = 0.04426 0.12678
#
# Static dielectric constant tensor:
#      x y z
#    x 1.785460 0.000000 0.000000 
#    y 0.000000 1.741920 0.000000 
#    z 0.000000 0.000000 1.744560 
# 
# From -- ./inp_files/28641.got.cif
#   From: 2010.05.17/outbox.cif.g08.bks.cpg/sg21_15_cif.got.tgz:28641.got - 2010.06.03 23:14:55.
