data_PCOD9325985
_publ_section_title
;
Structure prediction by ZEFSAII (Michael W. Deem and Ramdas Pophale) SiO2 
 PCOD9325985
Probable space group: F 2 2 2
;
_chemical_formula_sum "Si O2"
_cell_formula_units_Z 96
_cell_length_a 11.484990
_cell_length_b 21.477850
_cell_length_c 19.305818
_cell_angle_alpha 90.000000
_cell_angle_beta 90.000000
_cell_angle_gamma 90.000000
_cell_volume 4762.221968
_symmetry_space_group_name_H-M "F 2 2 2"
_symmetry_group_IT_number 22
_symmetry_cell_setting 'orthorhombic'
loop_
_space_group_symop_operation_xyz
x,y,z
-x,-y,z
x,-y,-z
-x,y,-z
x,1/2+y,1/2+z
-x,1/2-y,1/2+z
x,1/2-y,1/2-z
-x,1/2+y,1/2-z
1/2+x,y,1/2+z
1/2-x,-y,1/2+z
1/2+x,-y,1/2-z
1/2-x,y,1/2-z
1/2+x,1/2+y,z
1/2-x,1/2-y,z
1/2+x,1/2-y,-z
1/2-x,1/2+y,-z
loop_
_atom_site_type_symbol
_atom_site_label
_atom_site_fract_x
_atom_site_fract_y
_atom_site_fract_z
Si Si1 0.370614 0.222637 0.826451
Si Si2 0.739707 0.974135 0.362126
Si Si3 0.087492 0.577489 0.192960
Si Si4 0.750000 0.866009 0.250000
Si Si5 0.582965 0.090205 0.934975
Si Si6 0.869999 0.288548 0.858479
Si Si7 0.500000 0.500000 0.181581
O O1 0.374761 0.250000 0.750000
O O2 0.250000 0.250000 0.858881
O O3 0.365975 0.147607 0.816466
O O4 0.498214 0.238494 0.858923
O O5 0.727982 0.912654 0.313566
O O6 0.806860 0.954656 0.430988
O O7 0.813015 0.027065 0.322561
O O8 0.609950 0.996042 0.367318
O O9 0.027227 0.557144 0.264953
O O10 0.990974 0.572099 0.133094
O O11 0.850491 0.822322 0.282943
O O12 0.625238 0.159953 0.919198
O O13 0.500000 0.085125 0.000000
O O14 0.750000 0.250000 0.866355
#
# Coordination Sequence:
#
# PCOD9325985 Si02
#       7
#    16  16  16   8  16  16   8
#     4  10  22  33  49  86 128 171 197 245 320 390
#     4  11  20  33  56  94 122 166 200 254 328 371
#     4  11  21  37  57  87 127 173 206 252 325 381
#     4  10  17  32  56  90 131 152 198 260 326 390
#     4  10  22  41  61  85 115 165 225 261 302 380
#     4  10  20  37  60  87 115 160 212 264 324 370
#     4  12  20  32  59  93 134 152 196 266 320 400
#
# _framework density 20.158657999999999
#
# number of rings (size 3 to 8) (size 9 to 14) (size 15 to 20)
#    0.000    1.500    3.333    3.250    4.667    2.667 
#    0.000    3.333    0.000    2.000    0.000    0.000 
#    0.000    0.000    0.000    0.000    0.000    0.000 
#
# Total GULP energy -133745.922726 kJ/mol
# GULP energy per Si atom -5572.746780 kJ/mol
# Density = 2.011278 g / cm^3
# Si number density = 20.158658 Si / 1000 Ang^3
#
#
#
# Elastic Constant Matrix: (Units=GPa)
#
#
# Indices 1 2 3 4 5 6 
#
# 1 197.6692 66.7431 45.0502 0.0000 0.0000 0.0000
# 2 66.7431 98.8255 19.5892 0.0000 0.0000 0.0000
# 3 45.0502 19.5892 59.4017 0.0000 0.0000 0.0000
# 4 0.0000 0.0000 0.0000 11.7299 0.0000 0.0000
# 5 0.0000 0.0000 0.0000 0.0000 29.0310 0.0000
# 6 0.0000 0.0000 0.0000 0.0000 0.0000 -0.6062
#
#
#
# Elastic Compliance Matrix: (Units=1/GPa)
#
#
# Indices 1 2 3 4 5 6 
#
# 1 0.007443 -0.004181 -0.004266 0.000000 0.000000 0.000000
# 2 -0.004181 0.013175 -0.001174 0.000000 0.000000 0.000000
# 3 -0.004266 -0.001174 0.020457 0.000000 0.000000 0.000000
# 4 0.000000 0.000000 0.000000 0.085252 0.000000 0.000000
# 5 0.000000 0.000000 0.000000 0.000000 0.034446 0.000000
# 6 0.000000 0.000000 0.000000 0.000000 0.000000 -1.649685
#
#
# Mechanical properties :
#
#
# Convention : Reuss Voigt Hill
#
# Bulk Modulus (GPa) = 45.80159 68.74014 57.27087
# Shear Modulus (GPa) = -3.41906 22.99856 9.78975
#
# Velocity S-wave (km/s) = -1.30375 3.38135 2.20610
# Velocity P-wave (km/s) = 4.52808 7.02982 5.91278
#
# Compressibility (1/GPa) = 0.02183330
#
# Stress axis : x y z
#
# Youngs Moduli (GPa) = 134.35563 75.89960 48.88318
#
# Poissons Ratio (x) = 0.31734 0.20853
# Poissons Ratio (y) = 0.56175 0.05739
# Poissons Ratio (z) = 0.57315 0.08910
#
# Static dielectric constant tensor:
#      x y z
#    x 1.846780 0.000000 0.000000 
#    y 0.000000 1.826790 0.000000 
#    z 0.000000 0.000000 1.691900 
# 
# From -- ./inp_files/42798.got.cif
#   From: 2010.05.17/outbox.cif.g08.bks.cpg/sg22_22_cif.got.tgz:42798.got - 2010.06.03 23:40:54.
