data_PCOD9325121
_publ_section_title
;
Structure prediction by ZEFSAII (Michael W. Deem and Ramdas Pophale) SiO2 
 PCOD9325121
Probable space group: C 2 2 2
;
_chemical_formula_sum "Si O2"
_cell_formula_units_Z 32
_cell_length_a 6.058391
_cell_length_b 17.763962
_cell_length_c 13.590000
_cell_angle_alpha 90.000000
_cell_angle_beta 90.000000
_cell_angle_gamma 90.000000
_cell_volume 1462.569764
_symmetry_space_group_name_H-M "C 2 2 2"
_symmetry_group_IT_number 21
_symmetry_cell_setting 'orthorhombic'
loop_
_space_group_symop_operation_xyz
x,y,z
-x,-y,z
x,-y,-z
-x,y,-z
1/2+x,1/2+y,z
1/2-x,1/2-y,z
1/2+x,1/2-y,-z
1/2-x,1/2+y,-z
loop_
_atom_site_type_symbol
_atom_site_label
_atom_site_fract_x
_atom_site_fract_y
_atom_site_fract_z
Si Si1 0.500000 0.618918 0.500000
Si Si2 0.487471 0.416307 0.169081
Si Si3 0.500000 0.707915 0.000000
Si Si4 0.771173 0.668470 0.681438
Si Si5 0.657593 0.928416 0.348473
O O1 0.618079 0.666033 0.585348
O O2 0.675444 0.571027 0.438773
O O3 0.500000 0.500000 0.123891
O O4 0.469938 0.348560 0.092496
O O5 0.691486 0.394089 0.240483
O O6 0.287016 0.422905 0.246095
O O7 0.250000 0.750000 0.008108
O O8 0.750000 0.750000 0.728353
O O9 0.012448 0.646669 0.646426
O O10 0.500000 0.000000 0.353935
#
# Coordination Sequence:
#
# PCOD9325121 Si02
#       5
#     4   8   4   8   8
#     4  10  26  39  66 104 147 198 258 302 379 438
#     4  11  25  49  74 109 146 195 248 308 381 462
#     4  12  31  52  85 122 154 194 250 318 397 468
#     4  11  25  42  69 101 148 194 249 313 372 444
#     4  11  24  45  72 104 150 198 255 312 380 450
#
# _framework density 21.879301000000002
#
# number of rings (size 3 to 8) (size 9 to 14) (size 15 to 20)
#    0.000    1.000    2.500    1.875   10.500    5.000 
#    0.000    1.250    0.000    0.000    0.000    0.000 
#    0.000    0.000    0.000    0.000    0.000    0.000 
#
# Total GULP energy -89329.616774 kJ/mol
# GULP energy per Si atom -5583.101048 kJ/mol
# Density = 2.182950 g / cm^3
# Si number density = 21.879301 Si / 1000 Ang^3
#
#
#
# Elastic Constant Matrix: (Units=GPa)
#
#
# Indices 1 2 3 4 5 6 
#
# 1 122.7237 69.4497 33.6060 0.0000 0.0000 0.0000
# 2 69.4497 148.8128 50.9348 0.0000 0.0000 0.0000
# 3 33.6060 50.9348 96.9388 0.0000 0.0000 0.0000
# 4 0.0000 0.0000 0.0000 51.9641 0.0000 0.0000
# 5 0.0000 0.0000 0.0000 0.0000 5.3077 0.0000
# 6 0.0000 0.0000 0.0000 0.0000 0.0000 9.5730
#
#
#
# Elastic Compliance Matrix: (Units=1/GPa)
#
#
# Indices 1 2 3 4 5 6 
#
# 1 0.011224 -0.004763 -0.001388 0.000000 0.000000 0.000000
# 2 -0.004763 0.010214 -0.003716 0.000000 0.000000 0.000000
# 3 -0.001388 -0.003716 0.012750 0.000000 0.000000 0.000000
# 4 0.000000 0.000000 0.000000 0.019244 0.000000 0.000000
# 5 0.000000 0.000000 0.000000 0.000000 0.188405 0.000000
# 6 0.000000 0.000000 0.000000 0.000000 0.000000 0.104460
#
#
# Mechanical properties :
#
#
# Convention : Reuss Voigt Hill
#
# Bulk Modulus (GPa) = 69.18701 75.16181 72.17441
# Shear Modulus (GPa) = 13.48257 27.66795 20.57526
#
# Velocity S-wave (km/s) = 2.48508 3.55994 3.06992
# Velocity P-wave (km/s) = 6.31862 7.16415 6.75463
#
# Compressibility (1/GPa) = 0.01445358
#
# Stress axis : x y z
#
# Youngs Moduli (GPa) = 89.09546 97.90008 78.43407
#
# Poissons Ratio (x) = 0.46629 0.10890
# Poissons Ratio (y) = 0.42435 0.29145
# Poissons Ratio (z) = 0.12370 0.36378
#
# Static dielectric constant tensor:
#      x y z
#    x 1.844120 0.000000 0.000000 
#    y 0.000000 1.831570 0.000000 
#    z 0.000000 0.000000 1.777080 
# 
# From -- ./inp_files/28742.got.cif
#   From: 2010.05.17/outbox.cif.g08.bks.cpg/sg21_15_cif.got.tgz:28742.got - 2010.06.03 23:14:55.
