data_PCOD9325198
_publ_section_title
;
Structure prediction by ZEFSAII (Michael W. Deem and Ramdas Pophale) SiO2 
 PCOD9325198
Probable space group: C 2 2 2
;
_chemical_formula_sum "Si O2"
_cell_formula_units_Z 64
_cell_length_a 16.666445
_cell_length_b 22.495726
_cell_length_c 9.525940
_cell_angle_alpha 90.000000
_cell_angle_beta 90.000000
_cell_angle_gamma 90.000000
_cell_volume 3571.501434
_symmetry_space_group_name_H-M "C 2 2 2"
_symmetry_group_IT_number 21
_symmetry_cell_setting 'orthorhombic'
loop_
_space_group_symop_operation_xyz
x,y,z
-x,-y,z
x,-y,-z
-x,y,-z
1/2+x,1/2+y,z
1/2-x,1/2-y,z
1/2+x,1/2-y,-z
1/2-x,1/2+y,-z
loop_
_atom_site_type_symbol
_atom_site_label
_atom_site_fract_x
_atom_site_fract_y
_atom_site_fract_z
Si Si1 0.335912 0.235330 0.005953
Si Si2 0.079665 0.145719 0.932447
Si Si3 0.685428 0.145707 0.756355
Si Si4 0.997339 0.660902 0.336443
Si Si5 0.652228 0.864692 0.785144
Si Si6 0.261318 0.569772 0.008436
Si Si7 0.944572 0.799496 0.632338
Si Si8 0.236943 0.818130 0.472455
O O1 0.250000 0.250000 0.936889
O O2 0.314241 0.207089 0.154834
O O3 0.392718 0.292079 0.005802
O O4 0.367412 0.184158 0.904997
O O5 0.156480 0.104042 0.953152
O O6 0.054262 0.163155 0.775085
O O7 0.000000 0.119785 0.000000
O O8 0.590770 0.144568 0.718708
O O9 0.737252 0.146711 0.613180
O O10 0.722107 0.098010 0.866541
O O11 0.000000 0.650017 0.500000
O O12 0.065169 0.619685 0.270096
O O13 0.027926 0.731052 0.327523
O O14 0.701158 0.915011 0.864483
O O15 0.705953 0.838199 0.657354
O O16 0.274282 0.500000 0.000000
O O17 0.854694 0.813897 0.578342
O O18 0.000000 0.815788 0.500000
O O19 0.250000 0.750000 0.511614
#
# Coordination Sequence:
#
# PCOD9325198 Si02
#       8
#     8   8   8   8   8   8   8   8
#     4  11  19  34  55  92 128 160 200 246 318 389
#     4  12  23  38  64  93 130 166 206 265 329 388
#     4  11  24  36  62  95 130 165 211 267 310 389
#     4  11  20  35  56  98 136 163 191 248 326 397
#     4  11  20  38  64  87 128 170 205 254 322 387
#     4  11  27  48  65  86 116 174 241 274 313 365
#     4  11  22  34  58  99 141 166 193 240 318 414
#     4  12  19  34  61  94 135 170 194 241 324 401
#
# _framework density 17.919635
#
# number of rings (size 3 to 8) (size 9 to 14) (size 15 to 20)
#    0.000    0.750    7.500    2.250    1.750    1.750 
#    0.000    1.875    0.000    0.750    0.000    0.000 
#    0.000    0.000    0.000    0.000    0.000    0.000 
#
# Total GULP energy -178236.541310 kJ/mol
# GULP energy per Si atom -5569.891916 kJ/mol
# Density = 1.787885 g / cm^3
# Si number density = 17.919635 Si / 1000 Ang^3
#
#
#
# Elastic Constant Matrix: (Units=GPa)
#
#
# Indices 1 2 3 4 5 6 
#
# 1 106.4894 14.2576 35.8801 0.0000 0.0000 0.0000
# 2 14.2576 60.4636 26.1479 0.0000 0.0000 0.0000
# 3 35.8801 26.1479 108.2256 0.0000 0.0000 0.0000
# 4 0.0000 0.0000 0.0000 13.0284 0.0000 0.0000
# 5 0.0000 0.0000 0.0000 0.0000 33.0365 0.0000
# 6 0.0000 0.0000 0.0000 0.0000 0.0000 -7.3672
#
#
#
# Elastic Compliance Matrix: (Units=1/GPa)
#
#
# Indices 1 2 3 4 5 6 
#
# 1 0.010636 -0.001098 -0.003261 0.000000 0.000000 0.000000
# 2 -0.001098 0.018582 -0.004126 0.000000 0.000000 0.000000
# 3 -0.003261 -0.004126 0.011318 0.000000 0.000000 0.000000
# 4 0.000000 0.000000 0.000000 0.076756 0.000000 0.000000
# 5 0.000000 0.000000 0.000000 0.000000 0.030270 0.000000
# 6 0.000000 0.000000 0.000000 0.000000 0.000000 -0.135737
#
#
# Mechanical properties :
#
#
# Convention : Reuss Voigt Hill
#
# Bulk Modulus (GPa) = 42.43174 47.52776 44.97975
# Shear Modulus (GPa) = 136.42874 20.99906 78.71390
#
# Velocity S-wave (km/s) = 8.73493 3.42694 6.63486
# Velocity P-wave (km/s) = 11.20099 6.49914 9.15699
#
# Compressibility (1/GPa) = 0.02356726
#
# Stress axis : x y z
#
# Youngs Moduli (GPa) = 94.01721 53.81596 88.35607
#
# Poissons Ratio (x) = 0.05908 0.28813
# Poissons Ratio (y) = 0.10322 0.36451
# Poissons Ratio (z) = 0.30659 0.22202
#
# Static dielectric constant tensor:
#      x y z
#    x 1.352360 0.000000 0.000000 
#    y 0.000000 1.638480 0.000000 
#    z 0.000000 0.000000 1.883260 
# 
# From -- ./inp_files/15495.got.cif
#   From: 2010.05.17/outbox.cif.g08.bks.cpg/sg21_8_cif.got.tgz:15495.got - 2010.06.03 23:14:55.
