data_PCOD9325266
_publ_section_title
;
Structure prediction by ZEFSAII (Michael W. Deem and Ramdas Pophale) SiO2 
 PCOD9325266
Probable space group: C 2 2 2
;
_chemical_formula_sum "Si O2"
_cell_formula_units_Z 48
_cell_length_a 21.079177
_cell_length_b 9.416688
_cell_length_c 12.243855
_cell_angle_alpha 90.000000
_cell_angle_beta 90.000000
_cell_angle_gamma 90.000000
_cell_volume 2430.356647
_symmetry_space_group_name_H-M "C 2 2 2"
_symmetry_group_IT_number 21
_symmetry_cell_setting 'orthorhombic'
loop_
_space_group_symop_operation_xyz
x,y,z
-x,-y,z
x,-y,-z
-x,y,-z
1/2+x,1/2+y,z
1/2-x,1/2-y,z
1/2+x,1/2-y,-z
1/2-x,1/2+y,-z
loop_
_atom_site_type_symbol
_atom_site_label
_atom_site_fract_x
_atom_site_fract_y
_atom_site_fract_z
Si Si1 0.366865 0.024185 0.373147
Si Si2 0.697905 0.628813 0.085724
Si Si3 0.625655 0.430055 0.381985
Si Si4 0.750028 0.596430 0.745603
Si Si5 0.597434 0.292302 0.745119
Si Si6 0.976017 0.319083 0.373197
O O1 0.362896 0.186848 0.334553
O O2 0.353468 0.000000 0.500000
O O3 0.318182 0.935979 0.302225
O O4 0.437561 0.964626 0.352459
O O5 0.750000 0.750000 0.053713
O O6 0.730469 0.537222 0.181862
O O7 0.634345 0.701927 0.138237
O O8 0.683483 0.500000 0.000000
O O9 0.623120 0.500000 0.500000
O O10 0.697285 0.393468 0.348948
O O11 0.600505 0.548318 0.298296
O O12 0.580108 0.296710 0.376134
O O13 0.750000 0.750000 0.802874
O O14 0.526468 0.234991 0.717872
O O15 0.000000 0.319964 0.500000
#
# Coordination Sequence:
#
# PCOD9325266 Si02
#       6
#     8   8   8   8   8   8
#     4  12  22  38  60  95 147 186 219 266 326 414
#     4  11  24  47  74  96 123 166 226 302 359 398
#     4  11  21  36  57  85 132 186 220 263 314 394
#     4  11  23  40  60  97 128 168 225 282 340 393
#     4  11  24  37  62  98 130 171 231 271 325 401
#     4  12  22  37  60  90 141 194 225 247 311 416
#
# _framework density 19.750188999999999
#
# number of rings (size 3 to 8) (size 9 to 14) (size 15 to 20)
#    0.000    0.667    6.667    2.000    0.000    0.000 
#    0.000    0.000    0.000    8.000    0.000    1.167 
#    0.000    0.000    0.000    0.000    0.000    0.000 
#
# Total GULP energy -133821.585505 kJ/mol
# GULP energy per Si atom -5575.899396 kJ/mol
# Density = 1.970524 g / cm^3
# Si number density = 19.750189 Si / 1000 Ang^3
#
#
#
# Elastic Constant Matrix: (Units=GPa)
#
#
# Indices 1 2 3 4 5 6 
#
# 1 103.5222 5.2317 38.8375 0.0000 0.0000 0.0000
# 2 5.2317 78.6293 5.7331 0.0000 0.0000 0.0000
# 3 38.8375 5.7331 70.7561 0.0000 0.0000 0.0000
# 4 0.0000 0.0000 0.0000 33.9147 0.0000 0.0000
# 5 0.0000 0.0000 0.0000 0.0000 11.4933 0.0000
# 6 0.0000 0.0000 0.0000 0.0000 0.0000 30.8901
#
#
#
# Elastic Compliance Matrix: (Units=1/GPa)
#
#
# Indices 1 2 3 4 5 6 
#
# 1 0.012173 -0.000325 -0.006655 0.000000 0.000000 0.000000
# 2 -0.000325 0.012802 -0.000859 0.000000 0.000000 0.000000
# 3 -0.006655 -0.000859 0.017856 0.000000 0.000000 0.000000
# 4 0.000000 0.000000 0.000000 0.029486 0.000000 0.000000
# 5 0.000000 0.000000 0.000000 0.000000 0.087007 0.000000
# 6 0.000000 0.000000 0.000000 0.000000 0.000000 0.032373
#
#
# Mechanical properties :
#
#
# Convention : Reuss Voigt Hill
#
# Bulk Modulus (GPa) = 36.82886 39.16801 37.99844
# Shear Modulus (GPa) = 23.10260 28.79997 25.95128
#
# Velocity S-wave (km/s) = 3.42386 3.82280 3.62881
# Velocity P-wave (km/s) = 5.85818 6.27374 6.06952
#
# Compressibility (1/GPa) = 0.02715262
#
# Stress axis : x y z
#
# Youngs Moduli (GPa) = 82.14894 78.11188 56.00433
#
# Poissons Ratio (x) = 0.02536 0.37273
# Poissons Ratio (y) = 0.02667 0.04811
# Poissons Ratio (z) = 0.54673 0.06711
#
# Static dielectric constant tensor:
#      x y z
#    x 1.724440 0.000000 0.000000 
#    y 0.000000 1.745370 0.000000 
#    z 0.000000 0.000000 1.689650 
# 
# From -- ./inp_files/33164.got.cif
#   From: 2010.05.17/outbox.cif.g08.bks.cpg/sg21_17_cif.got.tgz:33164.got - 2010.06.03 23:14:55.
