data_PCOD9325178
_publ_section_title
;
Structure prediction by ZEFSAII (Michael W. Deem and Ramdas Pophale) SiO2 
 PCOD9325178
Probable space group: C 2 2 2
;
_chemical_formula_sum "Si O2"
_cell_formula_units_Z 18
_cell_length_a 26.522694
_cell_length_b 5.143734
_cell_length_c 5.710285
_cell_angle_alpha 90.000000
_cell_angle_beta 90.000000
_cell_angle_gamma 90.000000
_cell_volume 779.029531
_symmetry_space_group_name_H-M "C 2 2 2"
_symmetry_group_IT_number 21
_symmetry_cell_setting 'orthorhombic'
loop_
_space_group_symop_operation_xyz
x,y,z
-x,-y,z
x,-y,-z
-x,y,-z
1/2+x,1/2+y,z
1/2-x,1/2-y,z
1/2+x,1/2-y,-z
1/2-x,1/2+y,-z
loop_
_atom_site_type_symbol
_atom_site_label
_atom_site_fract_x
_atom_site_fract_y
_atom_site_fract_z
Si Si1 0.750000 0.250000 0.165705
Si Si2 0.169687 0.500000 0.500000
Si Si3 0.926389 0.260226 0.650998
Si Si4 0.500000 0.500000 0.000000
O O1 0.796113 0.316357 0.340010
O O2 0.741197 0.500000 0.000000
O O3 0.132049 0.655156 0.676221
O O4 0.946522 0.500000 0.500000
O O5 0.926599 0.000000 0.500000
O O6 0.961925 0.189398 0.863304
#
# Coordination Sequence:
#
# PCOD9325178 Si02
#       4
#     4   4   8   2
#     4  12  28  46  84 114 158 212 256 316 396 478
#     4  10  28  56  73 120 170 189 264 334 382 456
#     4  10  27  49  77 112 162 202 257 329 373 464
#     4  12  26  54  84 112 156 218 262 306 408 454
#
# _framework density 23.105671999999998
#
# number of rings (size 3 to 8) (size 9 to 14) (size 15 to 20)
#    1.333    0.000    0.000    2.000    9.333   10.667 
#    0.000    4.444    0.000    0.000    0.000    0.000 
#    0.000    0.000    0.000    0.000    0.000    0.000 
#
# Total GULP energy -50286.660720 kJ/mol
# GULP energy per Si atom -5587.406747 kJ/mol
# Density = 2.305308 g / cm^3
# Si number density = 23.105672 Si / 1000 Ang^3
#
#
#
# Elastic Constant Matrix: (Units=GPa)
#
#
# Indices 1 2 3 4 5 6 
#
# 1 216.5356 84.5840 105.2428 0.0000 0.0000 0.0000
# 2 84.5840 190.0865 69.6735 0.0000 0.0000 0.0000
# 3 105.2428 69.6735 107.4411 0.0000 0.0000 0.0000
# 4 0.0000 0.0000 0.0000 50.6180 0.0000 0.0000
# 5 0.0000 0.0000 0.0000 0.0000 84.6897 0.0000
# 6 0.0000 0.0000 0.0000 0.0000 0.0000 145.1452
#
#
#
# Elastic Compliance Matrix: (Units=1/GPa)
#
#
# Indices 1 2 3 4 5 6 
#
# 1 0.008960 -0.001010 -0.008122 0.000000 0.000000 0.000000
# 2 -0.001010 0.007015 -0.003560 0.000000 0.000000 0.000000
# 3 -0.008122 -0.003560 0.019571 0.000000 0.000000 0.000000
# 4 0.000000 0.000000 0.000000 0.019756 0.000000 0.000000
# 5 0.000000 0.000000 0.000000 0.000000 0.011808 0.000000
# 6 0.000000 0.000000 0.000000 0.000000 0.000000 0.006890
#
#
# Mechanical properties :
#
#
# Convention : Reuss Voigt Hill
#
# Bulk Modulus (GPa) = 98.39176 114.78488 106.58832
# Shear Modulus (GPa) = 48.65194 73.06144 60.85669
#
# Velocity S-wave (km/s) = 4.59369 5.62932 5.13766
# Velocity P-wave (km/s) = 8.41498 9.59366 9.02358
#
# Compressibility (1/GPa) = 0.01016345
#
# Stress axis : x y z
#
# Youngs Moduli (GPa) = 111.60442 142.55225 51.09498
#
# Poissons Ratio (x) = 0.14400 0.41498
# Poissons Ratio (y) = 0.11274 0.18188
# Poissons Ratio (z) = 0.90643 0.50743
#
# Static dielectric constant tensor:
#      x y z
#    x 1.918690 0.000000 0.000000 
#    y 0.000000 1.812250 0.000000 
#    z 0.000000 0.000000 1.873980 
# 
# From -- ./inp_files/7002.got.cif
#   From: 2010.05.17/outbox.cif.g08.bks.cpg/sg21_4_cif.got.tgz:7002.got - 2010.06.03 23:14:55.
