data_PCOD9325374
_publ_section_title
;
Structure prediction by ZEFSAII (Michael W. Deem and Ramdas Pophale) SiO2 
 PCOD9325374
Probable space group: C 2 2 2
;
_chemical_formula_sum "Si O2"
_cell_formula_units_Z 40
_cell_length_a 18.594716
_cell_length_b 11.207257
_cell_length_c 8.819307
_cell_angle_alpha 90.000000
_cell_angle_beta 90.000000
_cell_angle_gamma 90.000000
_cell_volume 1837.906194
_symmetry_space_group_name_H-M "C 2 2 2"
_symmetry_group_IT_number 21
_symmetry_cell_setting 'orthorhombic'
loop_
_space_group_symop_operation_xyz
x,y,z
-x,-y,z
x,-y,-z
-x,y,-z
1/2+x,1/2+y,z
1/2-x,1/2-y,z
1/2+x,1/2-y,-z
1/2-x,1/2+y,-z
loop_
_atom_site_type_symbol
_atom_site_label
_atom_site_fract_x
_atom_site_fract_y
_atom_site_fract_z
Si Si1 0.666472 0.500020 0.317086
Si Si2 0.316325 0.009300 0.823491
Si Si3 0.165743 0.262815 0.356508
Si Si4 0.058465 0.183487 0.612039
Si Si5 0.532125 0.876754 0.831564
O O1 0.669026 0.500000 0.500000
O O2 0.743292 0.455423 0.260186
O O3 0.653141 0.636990 0.268519
O O4 0.602125 0.409855 0.286713
O O5 0.382382 0.101196 0.824774
O O6 0.339890 0.882774 0.744772
O O7 0.297573 0.000000 0.000000
O O8 0.250000 0.250000 0.402948
O O9 0.114688 0.256355 0.504216
O O10 0.015115 0.270360 0.721205
O O11 0.000000 0.127898 0.500000
O O12 0.500000 0.000000 0.772138
O O13 0.500000 0.861165 0.000000
#
# Coordination Sequence:
#
# PCOD9325374 Si02
#       5
#     8   8   8   8   8
#     4   9  22  44  67 103 134 175 234 285 348 420
#     4  11  22  41  69  96 141 181 227 293 343 422
#     4   9  21  41  69 100 135 171 236 286 343 419
#     4  11  24  41  71  99 138 184 232 293 351 409
#     4  11  24  43  61  99 138 182 235 284 352 416
#
# _framework density 21.763897
#
# number of rings (size 3 to 8) (size 9 to 14) (size 15 to 20)
#    0.000    1.800    2.000    1.200    8.400    5.600 
#   10.800    0.000    0.000    1.200    0.000    0.000 
#    0.000    0.000    0.000    0.000    0.000    0.000 
#
# Total GULP energy -111646.602327 kJ/mol
# GULP energy per Si atom -5582.330116 kJ/mol
# Density = 2.171436 g / cm^3
# Si number density = 21.763897 Si / 1000 Ang^3
#
#
#
# Elastic Constant Matrix: (Units=GPa)
#
#
# Indices 1 2 3 4 5 6 
#
# 1 88.9537 38.7368 18.3016 0.0000 0.0000 0.0000
# 2 38.7368 100.4845 42.7318 0.0000 0.0000 0.0000
# 3 18.3016 42.7318 39.9565 0.0000 0.0000 0.0000
# 4 0.0000 0.0000 0.0000 4.7139 0.0000 0.0000
# 5 0.0000 0.0000 0.0000 0.0000 33.7683 0.0000
# 6 0.0000 0.0000 0.0000 0.0000 0.0000 34.6664
#
#
#
# Elastic Compliance Matrix: (Units=1/GPa)
#
#
# Indices 1 2 3 4 5 6 
#
# 1 0.013538 -0.004736 -0.001136 0.000000 0.000000 0.000000
# 2 -0.004736 0.019910 -0.019124 0.000000 0.000000 0.000000
# 3 -0.001136 -0.019124 0.046000 0.000000 0.000000 0.000000
# 4 0.000000 0.000000 0.000000 0.212140 0.000000 0.000000
# 5 0.000000 0.000000 0.000000 0.000000 0.029614 0.000000
# 6 0.000000 0.000000 0.000000 0.000000 0.000000 0.028846
#
#
# Mechanical properties :
#
#
# Convention : Reuss Voigt Hill
#
# Bulk Modulus (GPa) = 33.94873 47.65946 40.80410
# Shear Modulus (GPa) = 12.19936 23.27133 17.73535
#
# Velocity S-wave (km/s) = 2.37012 3.27351 2.85774
# Velocity P-wave (km/s) = 4.80859 6.01945 5.44776
#
# Compressibility (1/GPa) = 0.02945618
#
# Stress axis : x y z
#
# Youngs Moduli (GPa) = 73.86713 50.22641 21.73925
#
# Poissons Ratio (x) = 0.23785 0.02470
# Poissons Ratio (y) = 0.34981 0.41573
# Poissons Ratio (z) = 0.08394 0.96051
#
# Static dielectric constant tensor:
#      x y z
#    x 1.868490 0.000000 0.000000 
#    y 0.000000 1.861290 0.000000 
#    z 0.000000 0.000000 1.763950 
# 
# From -- ./inp_files/12728.got.cif
#   From: 2010.05.17/outbox.cif.g08.bks.cpg/sg21_7_cif.got.tgz:12728.got - 2010.06.03 23:14:55.
