data_PCOD9325528
_publ_section_title
;
Structure prediction by ZEFSAII (Michael W. Deem and Ramdas Pophale) SiO2 
 PCOD9325528
Probable space group: C 2 2 2
;
_chemical_formula_sum "Si O2"
_cell_formula_units_Z 58
_cell_length_a 19.619971
_cell_length_b 17.300153
_cell_length_c 7.629454
_cell_angle_alpha 90.000000
_cell_angle_beta 90.000000
_cell_angle_gamma 90.000000
_cell_volume 2589.654128
_symmetry_space_group_name_H-M "C 2 2 2"
_symmetry_group_IT_number 21
_symmetry_cell_setting 'orthorhombic'
loop_
_space_group_symop_operation_xyz
x,y,z
-x,-y,z
x,-y,-z
-x,y,-z
1/2+x,1/2+y,z
1/2-x,1/2-y,z
1/2+x,1/2-y,-z
1/2-x,1/2+y,-z
loop_
_atom_site_type_symbol
_atom_site_label
_atom_site_fract_x
_atom_site_fract_y
_atom_site_fract_z
Si Si1 0.687623 0.202616 0.015954
Si Si2 0.216518 0.921119 0.896208
Si Si3 0.403151 0.366700 0.353355
Si Si4 0.522816 0.920043 0.295193
Si Si5 0.042189 0.264723 0.152236
Si Si6 0.830013 0.420160 0.604382
Si Si7 0.000000 0.000000 0.500000
Si Si8 0.172046 0.256129 0.582507
O O1 0.750000 0.250000 0.927704
O O2 0.670743 0.236214 0.207336
O O3 0.728978 0.122144 0.026548
O O4 0.618606 0.211877 0.907104
O O5 0.146806 0.884253 0.814470
O O6 0.262499 0.922137 0.720241
O O7 0.200111 0.000000 0.000000
O O8 0.452999 0.296776 0.303589
O O9 0.447562 0.441915 0.399843
O O10 0.362336 0.322503 0.510035
O O11 0.500000 0.918022 0.500000
O O12 0.500798 0.841062 0.206507
O O13 0.603417 0.925137 0.278103
O O14 0.500000 0.000000 0.215370
O O15 0.000000 0.225749 0.000000
O O16 0.829713 0.500000 0.500000
O O17 0.845858 0.341010 0.496504
O O18 0.250000 0.250000 0.527293
#
# Coordination Sequence:
#
# PCOD9325528 Si02
#       8
#     8   8   8   8   8   8   2   8
#     4  11  24  46  73 114 145 187 249 317 388 453
#     4  12  26  45  77 110 155 190 248 330 391 450
#     4  12  28  54  78 106 151 204 268 327 386 465
#     4  11  24  43  65 102 154 197 239 292 362 466
#     4  12  28  44  75 107 150 201 250 312 393 464
#     4  12  23  42  72 112 149 190 243 304 389 455
#     4  12  36  52  78 108 154 212 284 316 392 476
#     4  11  24  45  83 108 145 193 255 314 382 466
#
# _framework density 22.396813999999999
#
# number of rings (size 3 to 8) (size 9 to 14) (size 15 to 20)
#    0.000    0.414    6.897    0.828    5.793    4.690 
#    0.000    0.000    0.000    0.000    0.000    0.000 
#    0.000    0.000    0.000    0.000    0.000    0.000 
#
# Total GULP energy -161608.752309 kJ/mol
# GULP energy per Si atom -5572.715597 kJ/mol
# Density = 2.234584 g / cm^3
# Si number density = 22.396814 Si / 1000 Ang^3
#
#
#
# Elastic Constant Matrix: (Units=GPa)
#
#
# Indices 1 2 3 4 5 6 
#
# 1 79.3984 41.3185 14.4512 0.0000 0.0000 0.0000
# 2 41.3185 138.0200 40.9379 0.0000 0.0000 0.0000
# 3 14.4512 40.9379 75.2582 0.0000 0.0000 0.0000
# 4 0.0000 0.0000 0.0000 35.6118 0.0000 0.0000
# 5 0.0000 0.0000 0.0000 0.0000 20.0889 0.0000
# 6 0.0000 0.0000 0.0000 0.0000 0.0000 36.7848
#
#
#
# Elastic Compliance Matrix: (Units=1/GPa)
#
#
# Indices 1 2 3 4 5 6 
#
# 1 0.014936 -0.004317 -0.000520 0.000000 0.000000 0.000000
# 2 -0.004317 0.009887 -0.004549 0.000000 0.000000 0.000000
# 3 -0.000520 -0.004549 0.015862 0.000000 0.000000 0.000000
# 4 0.000000 0.000000 0.000000 0.028081 0.000000 0.000000
# 5 0.000000 0.000000 0.000000 0.000000 0.049779 0.000000
# 6 0.000000 0.000000 0.000000 0.000000 0.000000 0.027185
#
#
# Mechanical properties :
#
#
# Convention : Reuss Voigt Hill
#
# Bulk Modulus (GPa) = 45.63518 54.01021 49.82269
# Shear Modulus (GPa) = 29.10262 31.56169 30.33216
#
# Velocity S-wave (km/s) = 3.60864 3.75801 3.68408
# Velocity P-wave (km/s) = 6.14679 6.55726 6.35534
#
# Compressibility (1/GPa) = 0.02191292
#
# Stress axis : x y z
#
# Youngs Moduli (GPa) = 66.95265 101.14197 63.04370
#
# Poissons Ratio (x) = 0.43665 0.03276
# Poissons Ratio (y) = 0.28905 0.28680
# Poissons Ratio (z) = 0.03479 0.46012
#
# Static dielectric constant tensor:
#      x y z
#    x 1.891140 0.000000 0.000000 
#    y 0.000000 2.131680 0.000000 
#    z 0.000000 0.000000 1.849190 
# 
# From -- ./inp_files/17754.got.cif
#   From: 2010.05.17/outbox.cif.g08.bks.cpg/sg21_9_cif.got.tgz:17754.got - 2010.06.03 23:14:55.
