data_PCOD9325160
_publ_section_title
;
Structure prediction by ZEFSAII (Michael W. Deem and Ramdas Pophale) SiO2 
 PCOD9325160
Probable space group: C 2 2 2
;
_chemical_formula_sum "Si O2"
_cell_formula_units_Z 18
_cell_length_a 4.972567
_cell_length_b 8.572676
_cell_length_c 17.303399
_cell_angle_alpha 90.000000
_cell_angle_beta 90.000000
_cell_angle_gamma 90.000000
_cell_volume 737.612853
_symmetry_space_group_name_H-M "C 2 2 2"
_symmetry_group_IT_number 21
_symmetry_cell_setting 'orthorhombic'
loop_
_space_group_symop_operation_xyz
x,y,z
-x,-y,z
x,-y,-z
-x,y,-z
1/2+x,1/2+y,z
1/2-x,1/2-y,z
1/2+x,1/2-y,-z
1/2-x,1/2+y,-z
loop_
_atom_site_type_symbol
_atom_site_label
_atom_site_fract_x
_atom_site_fract_y
_atom_site_fract_z
Si Si1 0.750000 0.250000 0.056041
Si Si2 0.500000 0.000000 0.387362
Si Si3 0.750000 0.250000 0.722036
Si Si4 0.000000 0.000000 0.500000
Si Si5 0.500000 0.500000 0.163058
O O1 0.699876 0.402015 0.108646
O O2 0.500000 0.227693 0.000000
O O3 0.433702 0.147613 0.334350
O O4 0.235011 0.952697 0.437472
O O5 0.618770 0.372448 0.779720
#
# Coordination Sequence:
#
# PCOD9325160 Si02
#       5
#     4   4   4   2   4
#     4  12  29  52  80 115 156 204 258 318 384 457
#     4  11  26  50  80 114 155 204 258 318 383 456
#     4  12  27  50  78 113 154 202 256 316 382 455
#     4  10  26  50  80 114 156 202 258 316 384 456
#     4  12  28  50  78 114 154 202 256 316 382 456
#
# _framework density 24.403044000000001
#
# number of rings (size 3 to 8) (size 9 to 14) (size 15 to 20)
#    0.000    0.444    0.000    6.000    0.000   19.556 
#    0.000    0.000    0.000    0.000    0.000    0.000 
#    0.000    0.000    0.000    0.000    0.000    0.000 
#
# Total GULP energy -50312.236816 kJ/mol
# GULP energy per Si atom -5590.248535 kJ/mol
# Density = 2.434750 g / cm^3
# Si number density = 24.403044 Si / 1000 Ang^3
#
#
#
# Elastic Constant Matrix: (Units=GPa)
#
#
# Indices 1 2 3 4 5 6 
#
# 1 200.3506 93.9393 126.9569 0.0000 0.0000 0.0000
# 2 93.9393 217.7051 124.7016 0.0000 0.0000 0.0000
# 3 126.9569 124.7016 226.8676 0.0000 0.0000 0.0000
# 4 0.0000 0.0000 0.0000 -80.3254 0.0000 0.0000
# 5 0.0000 0.0000 0.0000 0.0000-3800.2056 0.0000
# 6 0.0000 0.0000 0.0000 0.0000 0.0000 52.0339
#
#
#
# Elastic Compliance Matrix: (Units=1/GPa)
#
#
# Indices 1 2 3 4 5 6 
#
# 1 0.007975 -0.001291 -0.003753 0.000000 0.000000 0.000000
# 2 -0.001291 0.006913 -0.003077 0.000000 0.000000 0.000000
# 3 -0.003753 -0.003077 0.008200 0.000000 0.000000 0.000000
# 4 0.000000 0.000000 0.000000 -0.012449 0.000000 0.000000
# 5 0.000000 0.000000 0.000000 0.000000 -0.000263 0.000000
# 6 0.000000 0.000000 0.000000 0.000000 0.000000 0.019218
#
#
# Mechanical properties :
#
#
# Convention : Reuss Voigt Hill
#
# Bulk Modulus (GPa) = 146.10650 148.45764 147.28207
# Shear Modulus (GPa) = 103.91025 -745.74438 -320.91706
#
# Velocity S-wave (km/s) = 6.53248 -17.50024 -11.48009
# Velocity P-wave (km/s) = 10.81203 18.63804 10.73491
#
# Compressibility (1/GPa) = 0.00684432
#
# Stress axis : x y z
#
# Youngs Moduli (GPa) = 125.39278 144.64834 121.95813
#
# Poissons Ratio (x) = 0.18681 0.45770
# Poissons Ratio (y) = 0.16194 0.37530
# Poissons Ratio (z) = 0.47059 0.44513
#
# Static dielectric constant tensor:
#      x y z
#    x 1.955880 0.000000 0.000000 
#    y 0.000000 4.149350 0.000000 
#    z 0.000000 0.000000 1.917770 
# 
# From -- ./inp_files/34109.got.cif
#   From: 2010.05.17/outbox.cif.g08.bks.cpg/sg21_18_cif.got.tgz:34109.got - 2010.06.03 23:14:55.
