data_PCOD9325481
_publ_section_title
;
Structure prediction by ZEFSAII (Michael W. Deem and Ramdas Pophale) SiO2 
 PCOD9325481
Probable space group: C 2 2 2
;
_chemical_formula_sum "Si O2"
_cell_formula_units_Z 58
_cell_length_a 25.357584
_cell_length_b 9.011005
_cell_length_c 11.972538
_cell_angle_alpha 90.000000
_cell_angle_beta 90.000000
_cell_angle_gamma 90.000000
_cell_volume 2735.692801
_symmetry_space_group_name_H-M "C 2 2 2"
_symmetry_group_IT_number 21
_symmetry_cell_setting 'orthorhombic'
loop_
_space_group_symop_operation_xyz
x,y,z
-x,-y,z
x,-y,-z
-x,y,-z
1/2+x,1/2+y,z
1/2-x,1/2-y,z
1/2+x,1/2-y,-z
1/2-x,1/2+y,-z
loop_
_atom_site_type_symbol
_atom_site_label
_atom_site_fract_x
_atom_site_fract_y
_atom_site_fract_z
Si Si1 0.836064 0.981479 0.716803
Si Si2 0.123817 0.314539 0.634457
Si Si3 0.500000 0.500000 0.000000
Si Si4 0.348692 0.084409 0.215970
Si Si5 0.495194 0.177180 0.633921
Si Si6 0.570383 0.669909 0.183381
Si Si7 0.247174 0.428204 0.886623
Si Si8 0.810286 0.242127 0.575330
O O1 0.841044 0.808491 0.693229
O O2 0.784396 0.993388 0.791116
O O3 0.888395 0.044906 0.775492
O O4 0.827750 0.075997 0.605024
O O5 0.125455 0.468170 0.699103
O O6 0.148270 0.316743 0.510011
O O7 0.063967 0.264255 0.648111
O O8 0.535575 0.603595 0.082431
O O9 0.391465 0.189444 0.156615
O O10 0.314614 0.182725 0.302623
O O11 0.311040 0.991931 0.135577
O O12 0.500000 0.188954 0.500000
O O13 0.534566 0.270833 0.712599
O O14 0.500000 0.000000 0.660519
O O15 0.250000 0.250000 0.890329
O O16 0.267502 0.500000 0.000000
O O17 0.750000 0.250000 0.533713
#
# Coordination Sequence:
#
# PCOD9325481 Si02
#       8
#     8   8   2   8   8   8   8   8
#     4  11  25  45  69 104 143 186 232 291 349 430
#     4  12  24  41  69 105 145 183 235 281 353 430
#     4  12  28  52  80 104 140 192 250 318 380 430
#     4  11  24  46  68 106 142 184 236 294 353 430
#     4  11  23  44  72 104 140 186 235 293 356 429
#     4  11  26  49  77 104 143 190 241 306 366 429
#     4  12  28  46  72 100 138 189 241 299 361 429
#     4  11  24  38  68 105 149 190 223 280 354 430
#
# _framework density 21.201211000000001
#
# number of rings (size 3 to 8) (size 9 to 14) (size 15 to 20)
#    0.000    0.690    4.138    3.310    8.690    1.103 
#    2.483    2.759    0.000    0.000    0.000    0.000 
#    0.000    0.000    0.000    0.000    0.000    0.000 
#
# Total GULP energy -161939.855797 kJ/mol
# GULP energy per Si atom -5584.132959 kJ/mol
# Density = 2.115296 g / cm^3
# Si number density = 21.201211 Si / 1000 Ang^3
#
#
#
# Elastic Constant Matrix: (Units=GPa)
#
#
# Indices 1 2 3 4 5 6 
#
# 1 111.6507 37.4762 36.5376 0.0000 0.0000 0.0000
# 2 37.4762 115.3681 58.0453 0.0000 0.0000 0.0000
# 3 36.5376 58.0453 85.6000 0.0000 0.0000 0.0000
# 4 0.0000 0.0000 0.0000 30.8115 0.0000 0.0000
# 5 0.0000 0.0000 0.0000 0.0000 -16.4601 0.0000
# 6 0.0000 0.0000 0.0000 0.0000 0.0000 15.0472
#
#
#
# Elastic Compliance Matrix: (Units=1/GPa)
#
#
# Indices 1 2 3 4 5 6 
#
# 1 0.010646 -0.001779 -0.003338 0.000000 0.000000 0.000000
# 2 -0.001779 0.013454 -0.008364 0.000000 0.000000 0.000000
# 3 -0.003338 -0.008364 0.018778 0.000000 0.000000 0.000000
# 4 0.000000 0.000000 0.000000 0.032455 0.000000 0.000000
# 5 0.000000 0.000000 0.000000 0.000000 -0.060753 0.000000
# 6 0.000000 0.000000 0.000000 0.000000 0.000000 0.066458
#
#
# Mechanical properties :
#
#
# Convention : Reuss Voigt Hill
#
# Bulk Modulus (GPa) = 62.82500 64.08191 63.45345
# Shear Modulus (GPa) = 44.12883 17.91705 31.02294
#
# Velocity S-wave (km/s) = 4.56722 2.91021 3.82941
# Velocity P-wave (km/s) = 7.58352 6.44854 7.03894
#
# Compressibility (1/GPa) = 0.01591723
#
# Stress axis : x y z
#
# Youngs Moduli (GPa) = 93.93292 74.32847 53.25261
#
# Poissons Ratio (x) = 0.13222 0.17775
# Poissons Ratio (y) = 0.16709 0.44539
# Poissons Ratio (z) = 0.31354 0.62166
#
# Static dielectric constant tensor:
#      x y z
#    x 1.798330 0.000000 0.000000 
#    y 0.000000 1.790340 0.000000 
#    z 0.000000 0.000000 1.801650 
# 
# From -- ./inp_files/27787.got.cif
#   From: 2010.05.17/outbox.cif.g08.bks.cpg/sg21_14_cif.got.tgz:27787.got - 2010.06.03 23:14:55.
