data_PCOD9325007
_publ_section_title
;
Structure prediction by ZEFSAII (Michael W. Deem and Ramdas Pophale) SiO2 
 PCOD9325007
Probable space group: C 2 2 2
;
_chemical_formula_sum "Si O2"
_cell_formula_units_Z 40
_cell_length_a 13.992864
_cell_length_b 14.724028
_cell_length_c 8.679284
_cell_angle_alpha 90.000000
_cell_angle_beta 90.000000
_cell_angle_gamma 90.000000
_cell_volume 1788.204351
_symmetry_space_group_name_H-M "C 2 2 2"
_symmetry_group_IT_number 21
_symmetry_cell_setting 'orthorhombic'
loop_
_space_group_symop_operation_xyz
x,y,z
-x,-y,z
x,-y,-z
-x,y,-z
1/2+x,1/2+y,z
1/2-x,1/2-y,z
1/2+x,1/2-y,-z
1/2-x,1/2+y,-z
loop_
_atom_site_type_symbol
_atom_site_label
_atom_site_fract_x
_atom_site_fract_y
_atom_site_fract_z
Si Si1 0.672899 0.904585 0.742210
Si Si2 0.000000 0.230804 0.000000
Si Si3 0.677609 0.397556 0.991673
Si Si4 0.479784 0.156978 0.320867
Si Si5 0.250000 0.250000 0.559756
Si Si6 0.260306 0.904471 0.660190
O O1 0.726208 0.897060 0.904704
O O2 0.560617 0.918555 0.721198
O O3 0.680021 0.804400 0.669917
O O4 0.731808 0.985221 0.657497
O O5 0.094368 0.171143 0.965856
O O6 0.981845 0.283676 0.838005
O O7 0.638632 0.500000 0.000000
O O8 0.710806 0.380619 0.819627
O O9 0.500000 0.189895 0.500000
O O10 0.371207 0.123380 0.336073
O O11 0.211723 0.166228 0.458399
#
# Coordination Sequence:
#
# PCOD9325007 Si02
#       6
#     8   4   8   8   4   8
#     4  11  24  43  67 100 139 179 230 287 351 420
#     4  12  25  46  71 102 144 184 242 300 340 428
#     4  10  24  45  71  97 132 189 239 294 355 409
#     4  12  25  41  69 107 140 186 226 284 362 427
#     4  12  22  36  62  94 134 180 218 268 338 406
#     4  11  24  43  67 100 139 179 230 287 351 420
#
# _framework density 22.368808000000001
#
# number of rings (size 3 to 8) (size 9 to 14) (size 15 to 20)
#    0.000    0.800    2.000    5.100    0.000    3.200 
#    0.000    4.000    0.000    1.200    0.000    0.000 
#    0.000    0.000    0.000    0.000    0.000    0.000 
#
# Total GULP energy -111363.375083 kJ/mol
# GULP energy per Si atom -5568.168754 kJ/mol
# Density = 2.231790 g / cm^3
# Si number density = 22.368808 Si / 1000 Ang^3
#
#
#
# Elastic Constant Matrix: (Units=GPa)
#
#
# Indices 1 2 3 4 5 6 
#
# 1 57.8710 30.8086 6.3335 0.0000 0.0000 0.0000
# 2 30.8086 126.9442 53.5832 0.0000 0.0000 0.0000
# 3 6.3335 53.5832 106.8743 0.0000 0.0000 0.0000
# 4 0.0000 0.0000 0.0000 32.4644 0.0000 0.0000
# 5 0.0000 0.0000 0.0000 0.0000 -146.7534 0.0000
# 6 0.0000 0.0000 0.0000 0.0000 0.0000 197.2578
#
#
#
# Elastic Compliance Matrix: (Units=1/GPa)
#
#
# Indices 1 2 3 4 5 6 
#
# 1 0.020054 -0.005537 0.001588 0.000000 0.000000 0.000000
# 2 -0.005537 0.011521 -0.005448 0.000000 0.000000 0.000000
# 3 0.001588 -0.005448 0.011994 0.000000 0.000000 0.000000
# 4 0.000000 0.000000 0.000000 0.030803 0.000000 0.000000
# 5 0.000000 0.000000 0.000000 0.000000 -0.006814 0.000000
# 6 0.000000 0.000000 0.000000 0.000000 0.000000 0.005070
#
#
# Mechanical properties :
#
#
# Convention : Reuss Voigt Hill
#
# Bulk Modulus (GPa) = 40.36495 52.57113 46.46804
# Shear Modulus (GPa) = 50.16041 29.99138 40.07589
#
# Velocity S-wave (km/s) = 4.74056 3.66562 4.23732
# Velocity P-wave (km/s) = 6.93169 6.43962 6.69018
#
# Compressibility (1/GPa) = 0.02477397
#
# Stress axis : x y z
#
# Youngs Moduli (GPa) = 49.86585 86.79846 83.37376
#
# Poissons Ratio (x) = 0.48061 -0.13237
# Poissons Ratio (y) = 0.27611 0.45423
# Poissons Ratio (z) = -0.07917 0.47289
#
# Static dielectric constant tensor:
#      x y z
#    x 1.874760 0.000000 0.000000 
#    y 0.000000 2.153810 0.000000 
#    z 0.000000 0.000000 1.871170 
# 
# From -- ./inp_files/14592.got.cif
#   From: 2010.05.17/outbox.cif.g08.bks.cpg/sg21_8_cif.got.tgz:14592.got - 2010.06.03 23:14:55.
