data_PCOD9325675
_publ_section_title
;
Structure prediction by ZEFSAII (Michael W. Deem and Ramdas Pophale) SiO2 
 PCOD9325675
Probable space group: C 2 2 2
;
_chemical_formula_sum "Si O2"
_cell_formula_units_Z 34
_cell_length_a 5.159468
_cell_length_b 23.684816
_cell_length_c 12.050716
_cell_angle_alpha 90.000000
_cell_angle_beta 90.000000
_cell_angle_gamma 90.000000
_cell_volume 1472.610151
_symmetry_space_group_name_H-M "C 2 2 2"
_symmetry_group_IT_number 21
_symmetry_cell_setting 'orthorhombic'
loop_
_space_group_symop_operation_xyz
x,y,z
-x,-y,z
x,-y,-z
-x,y,-z
1/2+x,1/2+y,z
1/2-x,1/2-y,z
1/2+x,1/2-y,-z
1/2-x,1/2+y,-z
loop_
_atom_site_type_symbol
_atom_site_label
_atom_site_fract_x
_atom_site_fract_y
_atom_site_fract_z
Si Si1 0.491892 0.213263 0.246460
Si Si2 0.856186 0.943408 0.269919
Si Si3 0.838690 0.593939 0.832685
Si Si4 0.500000 0.172361 0.500000
Si Si5 0.000000 0.098819 0.500000
Si Si6 0.000000 0.500000 0.000000
O O1 0.250000 0.250000 0.206585
O O2 0.540227 0.156997 0.172013
O O3 0.443075 0.200438 0.379382
O O4 0.750000 0.250000 0.242533
O O5 0.555717 0.936596 0.244818
O O6 0.901257 0.937355 0.398883
O O7 0.046009 0.898367 0.210996
O O8 0.000000 0.000000 0.234124
O O9 0.835499 0.547498 0.932115
O O10 0.244483 0.137074 0.530228
#
# Coordination Sequence:
#
# PCOD9325675 Si02
#       6
#     8   8   8   4   4   2
#     4  12  24  44  68 103 148 189 234 284 336 417
#     4  12  22  42  65 103 144 185 224 291 348 431
#     4  12  26  46  73 103 139 175 244 295 362 406
#     4  12  22  39  67 101 142 204 232 271 320 428
#     4  12  21  37  64 101 150 187 228 272 348 416
#     4  12  28  54  80 104 128 182 240 320 364 428
#
# _framework density 23.088253999999999
#
# number of rings (size 3 to 8) (size 9 to 14) (size 15 to 20)
#    0.000    0.000    7.059    3.882    0.000    1.882 
#    0.000    4.706    0.000    0.000    0.000    0.000 
#    0.000    0.000    0.000    0.000    0.000    0.000 
#
# Total GULP energy -94737.856278 kJ/mol
# GULP energy per Si atom -5572.815075 kJ/mol
# Density = 2.303570 g / cm^3
# Si number density = 23.088254 Si / 1000 Ang^3
#
#
#
# Elastic Constant Matrix: (Units=GPa)
#
#
# Indices 1 2 3 4 5 6 
#
# 1 79.9800 -4.9828 2.5575 0.0000 0.0000 0.0000
# 2 -4.9828 121.9868 15.2532 0.0000 0.0000 0.0000
# 3 2.5575 15.2532 55.8284 0.0000 0.0000 0.0000
# 4 0.0000 0.0000 0.0000 -76.9057 0.0000 0.0000
# 5 0.0000 0.0000 0.0000 0.0000 4.1696 0.0000
# 6 0.0000 0.0000 0.0000 0.0000 0.0000 29.2051
#
#
#
# Elastic Compliance Matrix: (Units=1/GPa)
#
#
# Indices 1 2 3 4 5 6 
#
# 1 0.012565 0.000606 -0.000741 0.000000 0.000000 0.000000
# 2 0.000606 0.008517 -0.002355 0.000000 0.000000 0.000000
# 3 -0.000741 -0.002355 0.018589 0.000000 0.000000 0.000000
# 4 0.000000 0.000000 0.000000 -0.013003 0.000000 0.000000
# 5 0.000000 0.000000 0.000000 0.000000 0.239833 0.000000
# 6 0.000000 0.000000 0.000000 0.000000 0.000000 0.034241
#
#
# Mechanical properties :
#
#
# Convention : Reuss Voigt Hill
#
# Bulk Modulus (GPa) = 28.82604 31.49456 30.16030
# Shear Modulus (GPa) = 15.75870 7.62494 11.69182
#
# Velocity S-wave (km/s) = 2.61538 1.81925 2.25277
# Velocity P-wave (km/s) = 4.65108 4.25247 4.45623
#
# Compressibility (1/GPa) = 0.03469086
#
# Stress axis : x y z
#
# Youngs Moduli (GPa) = 79.58885 117.41514 53.79431
#
# Poissons Ratio (x) = -0.07114 0.03987
# Poissons Ratio (y) = -0.04822 0.12667
# Poissons Ratio (z) = 0.05899 0.27648
#
# Static dielectric constant tensor:
#      x y z
#    x 1.856600 0.000000 0.000000 
#    y 0.000000 1.985790 0.000000 
#    z 0.000000 0.000000 1.954340 
# 
# From -- ./inp_files/21011.got.cif
#   From: 2010.05.17/outbox.cif.g08.bks.cpg/sg21_11_cif.got.tgz:21011.got - 2010.06.03 23:14:55.
