data_PCOD9325580
_publ_section_title
;
Structure prediction by ZEFSAII (Michael W. Deem and Ramdas Pophale) SiO2 
 PCOD9325580
Probable space group: C 2 2 2
;
_chemical_formula_sum "Si O2"
_cell_formula_units_Z 40
_cell_length_a 7.786793
_cell_length_b 26.315787
_cell_length_c 8.595394
_cell_angle_alpha 90.000000
_cell_angle_beta 90.000000
_cell_angle_gamma 90.000000
_cell_volume 1761.330198
_symmetry_space_group_name_H-M "C 2 2 2"
_symmetry_group_IT_number 21
_symmetry_cell_setting 'orthorhombic'
loop_
_space_group_symop_operation_xyz
x,y,z
-x,-y,z
x,-y,-z
-x,y,-z
1/2+x,1/2+y,z
1/2-x,1/2-y,z
1/2+x,1/2-y,-z
1/2-x,1/2+y,-z
loop_
_atom_site_type_symbol
_atom_site_label
_atom_site_fract_x
_atom_site_fract_y
_atom_site_fract_z
Si Si1 0.854262 0.700575 0.891324
Si Si2 0.521479 0.442958 0.316215
Si Si3 0.368893 0.634000 0.876395
Si Si4 0.130908 0.206169 0.381170
Si Si5 0.337946 0.128648 0.604967
O O1 0.750000 0.750000 0.836780
O O2 0.903347 0.665967 0.743409
O O3 0.769029 0.661855 0.017471
O O4 0.000000 0.724035 0.000000
O O5 0.500000 0.500000 0.253113
O O6 0.500000 0.445634 0.500000
O O7 0.359772 0.411976 0.244151
O O8 0.705909 0.412134 0.313135
O O9 0.448934 0.677162 0.764453
O O10 0.500000 0.612182 0.000000
O O11 0.250000 0.250000 0.318043
O O12 0.228234 0.164570 0.487493
O O13 0.000000 0.231229 0.500000
O O14 0.500000 0.109497 0.500000
#
# Coordination Sequence:
#
# PCOD9325580 Si02
#       5
#     8   8   8   8   8
#     4  12  27  43  68 105 151 200 241 293 370 433
#     4  11  24  48  79 104 133 187 249 300 369 432
#     4  12  22  43  69 100 144 180 235 302 353 436
#     4  12  23  40  64  97 138 193 245 287 349 430
#     4  12  24  45  71 101 145 184 241 307 357 439
#
# _framework density 22.710106
#
# number of rings (size 3 to 8) (size 9 to 14) (size 15 to 20)
#    0.000    0.200    6.000    3.600    0.000    5.200 
#    0.000    4.000    0.000    1.200    0.000    0.000 
#    0.000    0.000    0.000    0.000    0.000    0.000 
#
# Total GULP energy -111474.531010 kJ/mol
# GULP energy per Si atom -5573.726550 kJ/mol
# Density = 2.265842 g / cm^3
# Si number density = 22.710106 Si / 1000 Ang^3
#
#
#
# Elastic Constant Matrix: (Units=GPa)
#
#
# Indices 1 2 3 4 5 6 
#
# 1 40.8744 20.5375 10.5401 0.0000 0.0000 0.0000
# 2 20.5375 126.6079 26.1601 0.0000 0.0000 0.0000
# 3 10.5401 26.1601 109.5006 0.0000 0.0000 0.0000
# 4 0.0000 0.0000 0.0000 25.8935 0.0000 0.0000
# 5 0.0000 0.0000 0.0000 0.0000 42.2727 0.0000
# 6 0.0000 0.0000 0.0000 0.0000 0.0000 24.5267
#
#
#
# Elastic Compliance Matrix: (Units=1/GPa)
#
#
# Indices 1 2 3 4 5 6 
#
# 1 0.026909 -0.004029 -0.001628 0.000000 0.000000 0.000000
# 2 -0.004029 0.008912 -0.001741 0.000000 0.000000 0.000000
# 3 -0.001628 -0.001741 0.009705 0.000000 0.000000 0.000000
# 4 0.000000 0.000000 0.000000 0.038620 0.000000 0.000000
# 5 0.000000 0.000000 0.000000 0.000000 0.023656 0.000000
# 6 0.000000 0.000000 0.000000 0.000000 0.000000 0.040772
#
#
# Mechanical properties :
#
#
# Convention : Reuss Voigt Hill
#
# Bulk Modulus (GPa) = 32.54087 43.49538 38.01812
# Shear Modulus (GPa) = 28.79977 33.18823 30.99400
#
# Velocity S-wave (km/s) = 3.56497 3.82696 3.69828
# Velocity P-wave (km/s) = 5.59511 6.22266 5.91721
#
# Compressibility (1/GPa) = 0.03073059
#
# Stress axis : x y z
#
# Youngs Moduli (GPa) = 37.16203 112.21202 103.03926
#
# Poissons Ratio (x) = 0.45207 0.16772
# Poissons Ratio (y) = 0.14972 0.17942
# Poissons Ratio (z) = 0.06049 0.19539
#
# Static dielectric constant tensor:
#      x y z
#    x 2.000060 0.000000 0.000000 
#    y 0.000000 1.817240 0.000000 
#    z 0.000000 0.000000 1.862550 
# 
# From -- ./inp_files/10882.got.cif
#   From: 2010.05.17/outbox.cif.g08.bks.cpg/sg21_6_cif.got.tgz:10882.got - 2010.06.03 23:14:55.
