data_PCOD9325875
_publ_section_title
;
Structure prediction by ZEFSAII (Michael W. Deem and Ramdas Pophale) SiO2 
 PCOD9325875
Probable space group: F 2 2 2
;
_chemical_formula_sum "Si O2"
_cell_formula_units_Z 56
_cell_length_a 13.911428
_cell_length_b 34.254818
_cell_length_c 5.262927
_cell_angle_alpha 90.000000
_cell_angle_beta 90.000000
_cell_angle_gamma 90.000000
_cell_volume 2507.960678
_symmetry_space_group_name_H-M "F 2 2 2"
_symmetry_group_IT_number 22
_symmetry_cell_setting 'orthorhombic'
loop_
_space_group_symop_operation_xyz
x,y,z
-x,-y,z
x,-y,-z
-x,y,-z
x,1/2+y,1/2+z
-x,1/2-y,1/2+z
x,1/2-y,1/2-z
-x,1/2+y,1/2-z
1/2+x,y,1/2+z
1/2-x,-y,1/2+z
1/2+x,-y,1/2-z
1/2-x,y,1/2-z
1/2+x,1/2+y,z
1/2-x,1/2-y,z
1/2+x,1/2-y,-z
1/2-x,1/2+y,-z
loop_
_atom_site_type_symbol
_atom_site_label
_atom_site_fract_x
_atom_site_fract_y
_atom_site_fract_z
Si Si1 0.566428 0.292754 0.751407
Si Si2 0.357178 0.872547 0.574246
Si Si3 0.750000 0.025140 0.250000
Si Si4 0.642202 0.097235 0.068737
O O1 0.500000 0.297163 0.500000
O O2 0.615420 0.250000 0.750000
O O3 0.632825 0.329975 0.803434
O O4 0.500000 0.291525 0.000000
O O5 0.402156 0.876502 0.292624
O O6 0.248314 0.885251 0.503510
O O7 0.401001 0.901433 0.787339
O O8 0.662759 0.054284 0.175211
O O9 0.728687 0.000000 0.500000
#
# Coordination Sequence:
#
# PCOD9325875 Si02
#       4
#    16  16   8  16
#     4  10  20  32  48  69  92 122 161 205 241 269
#     4   9  16  31  46  63  95 123 150 192 230 273
#     4  10  16  26  44  70 101 120 141 180 228 282
#     4   9  18  29  47  70  94 123 150 184 229 282
#
# _framework density 22.328897999999999
#
# number of rings (size 3 to 8) (size 9 to 14) (size 15 to 20)
#    0.000    2.857    0.000    5.143    0.000    0.000 
#    0.000    2.857    0.000   10.286    0.000    0.000 
#    0.000  366.857    0.000    0.000    0.000    0.000 
#
# Total GULP energy -77941.942302 kJ/mol
# GULP energy per Si atom -5567.281593 kJ/mol
# Density = 2.227808 g / cm^3
# Si number density = 22.328898 Si / 1000 Ang^3
#
#
#
# Elastic Constant Matrix: (Units=GPa)
#
#
# Indices 1 2 3 4 5 6 
#
# 1 51.5364 17.2233 14.0493 -0.0005 -0.0007 0.0002
# 2 17.2233 165.0494 69.5277 -0.0007 -0.0003 0.0001
# 3 14.0493 69.5277 246.0820 -0.0038 -0.0016 0.0009
# 4 -0.0005 -0.0007 -0.0038 60.2431 0.0015 -0.0005
# 5 -0.0007 -0.0003 -0.0016 0.0015 11.5464 -0.0005
# 6 0.0002 0.0001 0.0009 -0.0005 -0.0005 13.7356
#
#
#
# Elastic Compliance Matrix: (Units=1/GPa)
#
#
# Indices 1 2 3 4 5 6 
#
# 1 0.020191 -0.001840 -0.000633 0.000000 0.000001 0.000000
# 2 -0.001840 0.007045 -0.001885 0.000000 0.000000 0.000000
# 3 -0.000633 -0.001885 0.004633 0.000000 0.000001 0.000000
# 4 0.000000 0.000000 0.000000 0.016599 -0.000002 0.000001
# 5 0.000001 0.000000 0.000001 -0.000002 0.086607 0.000003
# 6 0.000000 0.000000 0.000000 0.000001 0.000003 0.072804
#
#
# Mechanical properties :
#
#
# Convention : Reuss Voigt Hill
#
# Bulk Modulus (GPa) = 43.19347 73.80758 58.50052
# Shear Modulus (GPa) = 22.29024 41.22952 31.75988
#
# Velocity S-wave (km/s) = 3.16297 4.30171 3.77552
# Velocity P-wave (km/s) = 5.72061 7.60260 6.72773
#
# Compressibility (1/GPa) = 0.02315165
#
# Stress axis : x y z
#
# Youngs Moduli (GPa) = 49.52615 141.94270 215.86517
#
# Poissons Ratio (x) = 0.26124 0.13659
# Poissons Ratio (y) = 0.09115 0.40700
# Poissons Ratio (z) = 0.03134 0.26762
#
# Static dielectric constant tensor:
#      x y z
#    x 2.012060 0.000000 0.000000 
#    y 0.000000 1.874770 0.000000 
#    z 0.000000 0.000000 2.100780 
# 
# From -- ./inp_files/1895.got.cif
#   From: 2010.05.17/outbox.cif.g08.bks.cpg/sg22_1_cif.got.tgz:1895.got - 2010.06.03 23:40:54.
