data_PCOD9325035
_publ_section_title
;
Structure prediction by ZEFSAII (Michael W. Deem and Ramdas Pophale) SiO2 
 PCOD9325035
Probable space group: C 2 2 2
;
_chemical_formula_sum "Si O2"
_cell_formula_units_Z 48
_cell_length_a 16.910815
_cell_length_b 10.518958
_cell_length_c 11.447258
_cell_angle_alpha 90.000000
_cell_angle_beta 90.000000
_cell_angle_gamma 90.000000
_cell_volume 2036.285790
_symmetry_space_group_name_H-M "C 2 2 2"
_symmetry_group_IT_number 21
_symmetry_cell_setting 'orthorhombic'
loop_
_space_group_symop_operation_xyz
x,y,z
-x,-y,z
x,-y,-z
-x,y,-z
1/2+x,1/2+y,z
1/2-x,1/2-y,z
1/2+x,1/2-y,-z
1/2-x,1/2+y,-z
loop_
_atom_site_type_symbol
_atom_site_label
_atom_site_fract_x
_atom_site_fract_y
_atom_site_fract_z
Si Si1 0.804230 0.370661 0.534009
Si Si2 0.453133 0.204846 0.608945
Si Si3 0.165314 0.200874 0.787582
Si Si4 0.314506 0.859513 0.983411
Si Si5 0.100411 0.321756 0.237275
Si Si6 0.410681 0.535519 0.861326
O O1 0.760253 0.500000 0.500000
O O2 0.750000 0.250000 0.508920
O O3 0.883936 0.374873 0.454042
O O4 0.832690 0.355040 0.667546
O O5 0.500000 0.265179 0.500000
O O6 0.402056 0.290222 0.692674
O O7 0.519405 0.146996 0.694549
O O8 0.250000 0.250000 0.747258
O O9 0.160292 0.053879 0.818426
O O10 0.149682 0.291644 0.900611
O O11 0.250000 0.750000 0.947274
O O12 0.379482 0.887325 0.884504
O O13 0.278894 0.000000 0.000000
O O14 0.100458 0.175249 0.192628
O O15 0.500000 0.500000 0.823109
O O16 0.411826 0.500000 0.000000
#
# Coordination Sequence:
#
# PCOD9325035 Si02
#       6
#     8   8   8   8   8   8
#     4  11  27  51  78 111 151 207 268 336 406 482
#     4  10  24  47  71 103 146 201 255 322 383 472
#     4  11  24  41  73 113 152 197 254 321 396 470
#     4  11  27  46  72 115 158 198 256 323 405 489
#     4  11  24  46  76 112 154 199 264 321 403 481
#     4  11  22  43  75 112 158 204 256 319 397 480
#
# _framework density 23.572327999999999
#
# number of rings (size 3 to 8) (size 9 to 14) (size 15 to 20)
#    0.000    1.167    3.333    1.000    7.000    6.333 
#    0.000    5.833    0.000    0.000    0.000    0.000 
#    0.000    0.000    0.000    0.000    0.000    0.000 
#
# Total GULP energy -133810.578658 kJ/mol
# GULP energy per Si atom -5575.440777 kJ/mol
# Density = 2.351868 g / cm^3
# Si number density = 23.572328 Si / 1000 Ang^3
#
#
#
# Elastic Constant Matrix: (Units=GPa)
#
#
# Indices 1 2 3 4 5 6 
#
# 1 105.4192 31.9441 39.8731 0.0000 0.0000 0.0000
# 2 31.9441 140.6821 16.3733 0.0000 0.0000 0.0000
# 3 39.8731 16.3733 127.3990 0.0000 0.0000 0.0000
# 4 0.0000 0.0000 0.0000 9.9730 0.0000 0.0000
# 5 0.0000 0.0000 0.0000 0.0000 38.5507 0.0000
# 6 0.0000 0.0000 0.0000 0.0000 0.0000 15.4797
#
#
#
# Elastic Compliance Matrix: (Units=1/GPa)
#
#
# Indices 1 2 3 4 5 6 
#
# 1 0.011396 -0.002206 -0.003283 0.000000 0.000000 0.000000
# 2 -0.002206 0.007643 -0.000292 0.000000 0.000000 0.000000
# 3 -0.003283 -0.000292 0.008914 0.000000 0.000000 0.000000
# 4 0.000000 0.000000 0.000000 0.100271 0.000000 0.000000
# 5 0.000000 0.000000 0.000000 0.000000 0.025940 0.000000
# 6 0.000000 0.000000 0.000000 0.000000 0.000000 0.064601
#
#
# Mechanical properties :
#
#
# Convention : Reuss Voigt Hill
#
# Bulk Modulus (GPa) = 61.00547 61.09792 61.05169
# Shear Modulus (GPa) = 21.20523 31.82133 26.51328
#
# Velocity S-wave (km/s) = 3.00256 3.67814 3.35739
# Velocity P-wave (km/s) = 6.16091 6.63430 6.40198
#
# Compressibility (1/GPa) = 0.01639197
#
# Stress axis : x y z
#
# Youngs Moduli (GPa) = 87.74930 130.83850 112.17712
#
# Poissons Ratio (x) = 0.28857 0.36831
# Poissons Ratio (y) = 0.19353 0.03275
# Poissons Ratio (z) = 0.28811 0.03820
#
# Static dielectric constant tensor:
#      x y z
#    x 1.920190 0.000000 0.000000 
#    y 0.000000 1.929230 0.000000 
#    z 0.000000 0.000000 1.969970 
# 
# From -- ./inp_files/26039.got.cif
#   From: 2010.05.17/outbox.cif.g08.bks.cpg/sg21_14_cif.got.tgz:26039.got - 2010.06.03 23:14:55.
