data_PCOD9325171
_publ_section_title
;
Structure prediction by ZEFSAII (Michael W. Deem and Ramdas Pophale) SiO2 
 PCOD9325171
Probable space group: C 2 2 2
;
_chemical_formula_sum "Si O2"
_cell_formula_units_Z 26
_cell_length_a 27.354372
_cell_length_b 5.141504
_cell_length_c 7.607123
_cell_angle_alpha 90.000000
_cell_angle_beta 90.000000
_cell_angle_gamma 90.000000
_cell_volume 1069.885657
_symmetry_space_group_name_H-M "C 2 2 2"
_symmetry_group_IT_number 21
_symmetry_cell_setting 'orthorhombic'
loop_
_space_group_symop_operation_xyz
x,y,z
-x,-y,z
x,-y,-z
-x,y,-z
1/2+x,1/2+y,z
1/2-x,1/2-y,z
1/2+x,1/2-y,-z
1/2-x,1/2+y,-z
loop_
_atom_site_type_symbol
_atom_site_label
_atom_site_fract_x
_atom_site_fract_y
_atom_site_fract_z
Si Si1 0.912188 0.201715 0.657629
Si Si2 0.666230 0.000000 0.500000
Si Si3 0.250000 0.250000 0.321346
Si Si4 0.632313 0.500000 0.000000
Si Si5 0.500000 0.000000 0.500000
Si Si6 0.701810 0.000000 0.000000
O O1 0.873578 0.442391 0.651943
O O2 0.964943 0.321706 0.619090
O O3 0.900989 0.000000 0.500000
O O4 0.902156 0.050469 0.834505
O O5 0.704204 0.230367 0.545648
O O6 0.265578 0.033114 0.176676
O O7 0.667971 0.746999 0.982253
#
# Coordination Sequence:
#
# PCOD9325171 Si02
#       6
#     8   4   4   4   2   4
#     4  11  25  52  80 115 161 209 269 342 412 492
#     4  11  26  43  70 116 158 209 272 319 404 460
#     4  12  26  44  74 112 168 218 270 332 384 480
#     4  12  27  52  87 116 163 219 272 343 405 480
#     4  10  26  52  82 122 160 198 270 346 428 494
#     4  12  27  50  74 115 163 217 277 326 389 472
#
# _framework density 24.301662
#
# number of rings (size 3 to 8) (size 9 to 14) (size 15 to 20)
#    0.000    0.615    3.077    3.231    6.462    3.692 
#    0.000    4.615    0.000    0.000    0.000    0.000 
#    0.000    0.000    0.000    0.000    0.000    0.000 
#
# Total GULP energy -72516.173075 kJ/mol
# GULP energy per Si atom -5578.167160 kJ/mol
# Density = 2.424635 g / cm^3
# Si number density = 24.301662 Si / 1000 Ang^3
#
#
#
# Elastic Constant Matrix: (Units=GPa)
#
#
# Indices 1 2 3 4 5 6 
#
# 1 201.4471 78.5983 71.4649 0.0000 0.0000 0.0000
# 2 78.5983 171.0123 85.7474 0.0000 0.0000 0.0000
# 3 71.4649 85.7474 203.8195 0.0000 0.0000 0.0000
# 4 0.0000 0.0000 0.0000 38.9976 0.0000 0.0000
# 5 0.0000 0.0000 0.0000 0.0000 16.4824 0.0000
# 6 0.0000 0.0000 0.0000 0.0000 0.0000 44.9692
#
#
#
# Elastic Compliance Matrix: (Units=1/GPa)
#
#
# Indices 1 2 3 4 5 6 
#
# 1 0.006292 -0.002263 -0.001254 0.000000 0.000000 0.000000
# 2 -0.002263 0.008225 -0.002667 0.000000 0.000000 0.000000
# 3 -0.001254 -0.002667 0.006468 0.000000 0.000000 0.000000
# 4 0.000000 0.000000 0.000000 0.025643 0.000000 0.000000
# 5 0.000000 0.000000 0.000000 0.000000 0.060671 0.000000
# 6 0.000000 0.000000 0.000000 0.000000 0.000000 0.022237
#
#
# Mechanical properties :
#
#
# Convention : Reuss Voigt Hill
#
# Bulk Modulus (GPa) = 116.04944 116.43333 116.24139
# Shear Modulus (GPa) = 34.53633 42.78775 38.66204
#
# Velocity S-wave (km/s) = 3.77391 4.20061 3.99296
# Velocity P-wave (km/s) = 8.17601 8.45828 8.31835
#
# Compressibility (1/GPa) = 0.00861702
#
# Stress axis : x y z
#
# Youngs Moduli (GPa) = 158.93380 121.58454 154.60967
#
# Poissons Ratio (x) = 0.27515 0.19389
# Poissons Ratio (y) = 0.35967 0.41230
# Poissons Ratio (z) = 0.19932 0.32423
#
# Static dielectric constant tensor:
#      x y z
#    x 1.920540 0.000000 0.000000 
#    y 0.000000 2.039210 0.000000 
#    z 0.000000 0.000000 1.988360 
# 
# From -- ./inp_files/18843.got.cif
#   From: 2010.05.17/outbox.cif.g08.bks.cpg/sg21_10_cif.got.tgz:18843.got - 2010.06.03 23:14:55.
