data_PCOD9325434
_publ_section_title
;
Structure prediction by ZEFSAII (Michael W. Deem and Ramdas Pophale) SiO2 
 PCOD9325434
Probable space group: C 2 2 2
;
_chemical_formula_sum "Si O2"
_cell_formula_units_Z 32
_cell_length_a 4.842064
_cell_length_b 23.310258
_cell_length_c 11.124251
_cell_angle_alpha 90.000000
_cell_angle_beta 90.000000
_cell_angle_gamma 90.000000
_cell_volume 1255.591553
_symmetry_space_group_name_H-M "C 2 2 2"
_symmetry_group_IT_number 21
_symmetry_cell_setting 'orthorhombic'
loop_
_space_group_symop_operation_xyz
x,y,z
-x,-y,z
x,-y,-z
-x,y,-z
1/2+x,1/2+y,z
1/2-x,1/2-y,z
1/2+x,1/2-y,-z
1/2-x,1/2+y,-z
loop_
_atom_site_type_symbol
_atom_site_label
_atom_site_fract_x
_atom_site_fract_y
_atom_site_fract_z
Si Si1 0.729976 0.097092 0.580224
Si Si2 0.644325 0.666747 0.119762
Si Si3 0.741394 0.540809 0.165099
Si Si4 0.629594 0.190682 0.279804
O O1 0.500000 0.066361 0.500000
O O2 0.799148 0.059176 0.695529
O O3 0.551789 0.151621 0.631383
O O4 0.000000 0.110950 0.500000
O O5 0.750214 0.601740 0.098532
O O6 0.400398 0.662443 0.220097
O O7 0.910003 0.699814 0.171777
O O8 0.500000 0.689038 0.000000
O O9 0.500000 0.500000 0.126483
O O10 0.000000 0.500000 0.153765
O O11 0.750000 0.250000 0.331326
#
# Coordination Sequence:
#
# PCOD9325434 Si02
#       4
#     8   8   8   8
#     4  11  23  42  67  97 134 176 226 283 341 407
#     4  11  24  44  69 102 142 182 232 290 348 418
#     4  11  23  41  65  97 135 176 224 279 340 407
#     4  11  24  45  71 102 140 180 231 292 350 416
#
# _framework density 25.485997999999999
#
# number of rings (size 3 to 8) (size 9 to 14) (size 15 to 20)
#    0.000    1.000    0.000    9.000    0.000    5.500 
#    0.000   10.000    0.000    3.000    0.000    7.000 
#    0.000    0.000    0.000    0.000    0.000    0.000 
#
# Total GULP energy -89577.005670 kJ/mol
# GULP energy per Si atom -5598.562854 kJ/mol
# Density = 2.542799 g / cm^3
# Si number density = 25.485998 Si / 1000 Ang^3
#
#
#
# Elastic Constant Matrix: (Units=GPa)
#
#
# Indices 1 2 3 4 5 6 
#
# 1 216.1186 56.6574 48.6547 0.0000 0.0000 0.0000
# 2 56.6574 126.9451 15.4041 0.0000 0.0000 0.0000
# 3 48.6547 15.4041 117.3955 0.0000 0.0000 0.0000
# 4 0.0000 0.0000 0.0000 13.0785 0.0000 0.0000
# 5 0.0000 0.0000 0.0000 0.0000 61.7664 0.0000
# 6 0.0000 0.0000 0.0000 0.0000 0.0000 23.9817
#
#
#
# Elastic Compliance Matrix: (Units=1/GPa)
#
#
# Indices 1 2 3 4 5 6 
#
# 1 0.005691 -0.002290 -0.002058 0.000000 0.000000 0.000000
# 2 -0.002290 0.008926 -0.000222 0.000000 0.000000 0.000000
# 3 -0.002058 -0.000222 0.009400 0.000000 0.000000 0.000000
# 4 0.000000 0.000000 0.000000 0.076462 0.000000 0.000000
# 5 0.000000 0.000000 0.000000 0.000000 0.016190 0.000000
# 6 0.000000 0.000000 0.000000 0.000000 0.000000 0.041698
#
#
# Mechanical properties :
#
#
# Convention : Reuss Voigt Hill
#
# Bulk Modulus (GPa) = 67.21812 77.98795 72.60303
# Shear Modulus (GPa) = 28.99099 42.41485 35.70292
#
# Velocity S-wave (km/s) = 3.37638 4.08394 3.74690
# Velocity P-wave (km/s) = 6.45227 7.27357 6.87519
#
# Compressibility (1/GPa) = 0.01487694
#
# Stress axis : x y z
#
# Youngs Moduli (GPa) = 175.72218 112.02600 106.37927
#
# Poissons Ratio (x) = 0.25656 0.21893
# Poissons Ratio (y) = 0.40243 0.02363
# Poissons Ratio (z) = 0.36165 0.02488
#
# Static dielectric constant tensor:
#      x y z
#    x 1.934230 0.000000 0.000000 
#    y 0.000000 2.016010 0.000000 
#    z 0.000000 0.000000 2.073420 
# 
# From -- ./inp_files/20550.got.cif
#   From: 2010.05.17/outbox.cif.g08.bks.cpg/sg21_11_cif.got.tgz:20550.got - 2010.06.03 23:14:55.
