data_PCOD9325022
_publ_section_title
;
Structure prediction by ZEFSAII (Michael W. Deem and Ramdas Pophale) SiO2 
 PCOD9325022
Probable space group: C 2 2 2
;
_chemical_formula_sum "Si O2"
_cell_formula_units_Z 40
_cell_length_a 15.576641
_cell_length_b 8.012562
_cell_length_c 15.111784
_cell_angle_alpha 90.000000
_cell_angle_beta 90.000000
_cell_angle_gamma 90.000000
_cell_volume 1886.083654
_symmetry_space_group_name_H-M "C 2 2 2"
_symmetry_group_IT_number 21
_symmetry_cell_setting 'orthorhombic'
loop_
_space_group_symop_operation_xyz
x,y,z
-x,-y,z
x,-y,-z
-x,y,-z
1/2+x,1/2+y,z
1/2-x,1/2-y,z
1/2+x,1/2-y,-z
1/2-x,1/2+y,-z
loop_
_atom_site_type_symbol
_atom_site_label
_atom_site_fract_x
_atom_site_fract_y
_atom_site_fract_z
Si Si1 0.750000 0.750000 0.868476
Si Si2 0.867739 0.103108 0.274578
Si Si3 0.821644 0.115336 0.584501
Si Si4 0.500000 0.500000 0.850777
Si Si5 0.000000 0.264049 0.000000
Si Si6 0.994994 0.305439 0.607122
Si Si7 0.841289 0.500000 0.000000
O O1 0.826351 0.783267 0.799822
O O2 0.779927 0.594489 0.929771
O O3 0.931868 0.202032 0.340788
O O4 0.921238 0.972602 0.215094
O O5 0.798536 0.010191 0.335865
O O6 0.750000 0.250000 0.561454
O O7 0.903978 0.215666 0.619447
O O8 0.841502 0.000000 0.500000
O O9 0.520796 0.650996 0.915807
O O10 0.086812 0.362097 0.027654
O O11 0.000000 0.500000 0.633754
O O12 0.000000 0.300786 0.500000
#
# Coordination Sequence:
#
# PCOD9325022 Si02
#       7
#     4   8   8   4   4   8   4
#     4  12  30  46  72 110 150 192 250 314 370 434
#     4  12  26  46  72 106 148 189 247 300 354 444
#     4  12  28  45  71 105 148 191 238 301 363 424
#     4  11  22  44  73 104 132 186 237 300 346 437
#     4  10  24  46  74 100 136 192 248 282 380 448
#     4  11  25  46  73 101 142 196 237 289 361 435
#     4  11  26  48  70 101 146 196 236 315 372 434
#
# _framework density 21.207968000000001
#
# number of rings (size 3 to 8) (size 9 to 14) (size 15 to 20)
#    0.000    0.600    6.000    0.000    9.800    3.200 
#    0.000    0.000    0.000    0.000    0.000    0.000 
#    0.000    0.000    0.000    0.000    0.000    0.000 
#
# Total GULP energy -111488.532016 kJ/mol
# GULP energy per Si atom -5574.426601 kJ/mol
# Density = 2.115970 g / cm^3
# Si number density = 21.207968 Si / 1000 Ang^3
#
#
#
# Elastic Constant Matrix: (Units=GPa)
#
#
# Indices 1 2 3 4 5 6 
#
# 1 82.6614 41.6518 39.8890 0.0000 0.0000 0.0000
# 2 41.6518 112.3740 62.7334 0.0000 0.0000 0.0000
# 3 39.8890 62.7334 130.8000 0.0000 0.0000 0.0000
# 4 0.0000 0.0000 0.0000 28.4010 0.0000 0.0000
# 5 0.0000 0.0000 0.0000 0.0000 19.8654 0.0000
# 6 0.0000 0.0000 0.0000 0.0000 0.0000 31.0202
#
#
#
# Elastic Compliance Matrix: (Units=1/GPa)
#
#
# Indices 1 2 3 4 5 6 
#
# 1 0.015544 -0.004254 -0.002700 0.000000 0.000000 0.000000
# 2 -0.004254 0.013317 -0.005090 0.000000 0.000000 0.000000
# 3 -0.002700 -0.005090 0.010910 0.000000 0.000000 0.000000
# 4 0.000000 0.000000 0.000000 0.035210 0.000000 0.000000
# 5 0.000000 0.000000 0.000000 0.000000 0.050339 0.000000
# 6 0.000000 0.000000 0.000000 0.000000 0.000000 0.032237
#
#
# Mechanical properties :
#
#
# Convention : Reuss Voigt Hill
#
# Bulk Modulus (GPa) = 63.76268 68.26488 66.01378
# Shear Modulus (GPa) = 26.75630 27.96141 27.35886
#
# Velocity S-wave (km/s) = 3.55578 3.63497 3.59559
# Velocity P-wave (km/s) = 6.85484 7.06226 6.95932
#
# Compressibility (1/GPa) = 0.01568315
#
# Stress axis : x y z
#
# Youngs Moduli (GPa) = 64.33325 75.09199 91.66149
#
# Poissons Ratio (x) = 0.31946 0.24748
# Poissons Ratio (y) = 0.27369 0.46652
# Poissons Ratio (z) = 0.17370 0.38219
#
# Static dielectric constant tensor:
#      x y z
#    x 1.776820 0.000000 0.000000 
#    y 0.000000 1.800620 0.000000 
#    z 0.000000 0.000000 1.733410 
# 
# From -- ./inp_files/32155.got.cif
#   From: 2010.05.17/outbox.cif.g08.bks.cpg/sg21_17_cif.got.tgz:32155.got - 2010.06.03 23:14:55.
