data_PCOD9325544
_publ_section_title
;
Structure prediction by ZEFSAII (Michael W. Deem and Ramdas Pophale) SiO2 
 PCOD9325544
Probable space group: C 2 2 2
;
_chemical_formula_sum "Si O2"
_cell_formula_units_Z 44
_cell_length_a 23.706693
_cell_length_b 5.316925
_cell_length_c 14.809838
_cell_angle_alpha 90.000000
_cell_angle_beta 90.000000
_cell_angle_gamma 90.000000
_cell_volume 1866.731336
_symmetry_space_group_name_H-M "C 2 2 2"
_symmetry_group_IT_number 21
_symmetry_cell_setting 'orthorhombic'
loop_
_space_group_symop_operation_xyz
x,y,z
-x,-y,z
x,-y,-z
-x,y,-z
1/2+x,1/2+y,z
1/2-x,1/2-y,z
1/2+x,1/2-y,-z
1/2-x,1/2+y,-z
loop_
_atom_site_type_symbol
_atom_site_label
_atom_site_fract_x
_atom_site_fract_y
_atom_site_fract_z
Si Si1 0.750000 0.750000 0.943682
Si Si2 0.077732 0.388745 0.155372
Si Si3 0.614868 0.500000 0.500000
Si Si4 0.856916 0.899566 0.827900
Si Si5 0.817476 0.280072 0.358916
Si Si6 0.419035 0.120012 0.358123
Si Si7 0.000000 0.500000 0.000000
Si Si8 0.000000 0.500000 0.500000
O O1 0.802536 0.816357 0.881865
O O2 0.763152 0.500000 0.000000
O O3 0.097386 0.679802 0.153357
O O4 0.056190 0.345851 0.258124
O O5 0.125734 0.178946 0.145247
O O6 0.037281 0.344693 0.070856
O O7 0.658067 0.307470 0.453670
O O8 0.579292 0.636927 0.422114
O O9 0.841961 0.888808 0.722276
O O10 0.750000 0.250000 0.356547
O O11 0.853413 0.537425 0.344091
O O12 0.453669 0.921915 0.421361
#
# Coordination Sequence:
#
# PCOD9325544 Si02
#       8
#     4   8   4   8   8   8   2   2
#     4  12  26  44  76 116 142 200 246 304 392 460
#     4  11  27  49  76 109 150 195 258 320 381 460
#     4  12  22  42  68 108 143 199 246 306 380 446
#     4  11  25  49  74 109 156 190 245 316 383 467
#     4  11  24  44  69 106 154 199 247 304 385 466
#     4  11  25  45  68 107 146 195 252 318 374 460
#     4  12  30  54  84 112 148 214 262 334 404 442
#     4  12  22  44  68  94 148 192 258 304 384 444
#
# _framework density 23.570611
#
# number of rings (size 3 to 8) (size 9 to 14) (size 15 to 20)
#    0.000    0.727    4.545    1.636    6.364    1.818 
#    0.000    1.818    0.000    0.000    0.000    0.000 
#    0.000    0.000    0.000    0.000    0.000    0.000 
#
# Total GULP energy -122712.560473 kJ/mol
# GULP energy per Si atom -5577.843658 kJ/mol
# Density = 2.351696 g / cm^3
# Si number density = 23.570611 Si / 1000 Ang^3
#
#
#
# Elastic Constant Matrix: (Units=GPa)
#
#
# Indices 1 2 3 4 5 6 
#
# 1 106.8292 18.1496 50.8252 0.0000 0.0000 0.0000
# 2 18.1496 87.0324 26.6048 0.0000 0.0000 0.0000
# 3 50.8252 26.6048 181.9466 0.0000 0.0000 0.0000
# 4 0.0000 0.0000 0.0000 40.5529 0.0000 0.0000
# 5 0.0000 0.0000 0.0000 0.0000 28.0179 0.0000
# 6 0.0000 0.0000 0.0000 0.0000 0.0000 -2.0714
#
#
#
# Elastic Compliance Matrix: (Units=1/GPa)
#
#
# Indices 1 2 3 4 5 6 
#
# 1 0.010959 -0.001413 -0.002855 0.000000 0.000000 0.000000
# 2 -0.001413 0.012210 -0.001391 0.000000 0.000000 0.000000
# 3 -0.002855 -0.001391 0.006497 0.000000 0.000000 0.000000
# 4 0.000000 0.000000 0.000000 0.024659 0.000000 0.000000
# 5 0.000000 0.000000 0.000000 0.000000 0.035691 0.000000
# 6 0.000000 0.000000 0.000000 0.000000 0.000000 -0.482754
#
#
# Mechanical properties :
#
#
# Convention : Reuss Voigt Hill
#
# Bulk Modulus (GPa) = 54.49809 62.99639 58.74724
# Shear Modulus (GPa) = -13.32249 31.98179 9.32965
#
# Velocity S-wave (km/s) = -2.38001 3.68754 1.99167
# Velocity P-wave (km/s) = 3.95207 6.70189 5.50155
#
# Compressibility (1/GPa) = 0.01834927
#
# Stress axis : x y z
#
# Youngs Moduli (GPa) = 91.25001 81.90208 153.91931
#
# Poissons Ratio (x) = 0.11570 0.43939
# Poissons Ratio (y) = 0.12891 0.21406
# Poissons Ratio (z) = 0.26049 0.11390
#
# Static dielectric constant tensor:
#      x y z
#    x 1.916670 0.000000 0.000000 
#    y 0.000000 2.109570 0.000000 
#    z 0.000000 0.000000 1.891530 
# 
# From -- ./inp_files/33787.got.cif
#   From: 2010.05.17/outbox.cif.g08.bks.cpg/sg21_17_cif.got.tgz:33787.got - 2010.06.03 23:14:55.
