data_PCOD9325700
_publ_section_title
;
Structure prediction by ZEFSAII (Michael W. Deem and Ramdas Pophale) SiO2 
 PCOD9325700
Probable space group: C 2 2 2
;
_chemical_formula_sum "Si O2"
_cell_formula_units_Z 38
_cell_length_a 16.985240
_cell_length_b 5.771200
_cell_length_c 18.931138
_cell_angle_alpha 90.000000
_cell_angle_beta 90.000000
_cell_angle_gamma 90.000000
_cell_volume 1855.728912
_symmetry_space_group_name_H-M "C 2 2 2"
_symmetry_group_IT_number 21
_symmetry_cell_setting 'orthorhombic'
loop_
_space_group_symop_operation_xyz
x,y,z
-x,-y,z
x,-y,-z
-x,y,-z
1/2+x,1/2+y,z
1/2-x,1/2-y,z
1/2+x,1/2-y,-z
1/2-x,1/2+y,-z
loop_
_atom_site_type_symbol
_atom_site_label
_atom_site_fract_x
_atom_site_fract_y
_atom_site_fract_z
Si Si1 0.330125 0.106515 0.782467
Si Si2 0.250000 0.750000 0.682650
Si Si3 0.955458 0.749244 0.676167
Si Si4 0.585126 0.107782 0.074274
Si Si5 0.500000 0.500000 0.000000
Si Si6 0.171908 0.894930 0.426815
O O1 0.250000 0.250000 0.780494
O O2 0.401110 0.245186 0.745890
O O3 0.355786 0.064868 0.862510
O O4 0.310433 0.885876 0.733518
O O5 0.299016 0.581254 0.631245
O O6 0.895349 0.746380 0.610312
O O7 0.000000 0.500000 0.676434
O O8 0.000000 0.000000 0.672901
O O9 0.500000 0.000000 0.093249
O O10 0.558818 0.363569 0.051854
O O11 0.612530 0.000000 0.000000
O O12 0.250000 0.750000 0.444036
O O13 0.142620 0.000000 0.500000
#
# Coordination Sequence:
#
# PCOD9325700 Si02
#       6
#     8   4   8   8   2   8
#     4  12  25  42  71 100 140 188 240 304 355 438
#     4  12  22  46  68 102 144 178 252 292 364 430
#     4  12  27  47  73 109 147 186 246 303 368 435
#     4   9  21  42  63 100 133 185 235 285 372 431
#     4   8  18  40  72  86 144 172 238 284 364 458
#     4  12  25  46  75 103 139 196 238 302 364 443
#
# _framework density 20.477131
#
# number of rings (size 3 to 8) (size 9 to 14) (size 15 to 20)
#    0.000    1.053    5.263    1.895    1.474    3.789 
#    3.789    3.158    0.000    0.000    0.000    0.000 
#    0.000    0.000    0.000    0.000    0.000    0.000 
#
# Total GULP energy -106040.815597 kJ/mol
# GULP energy per Si atom -5581.095558 kJ/mol
# Density = 2.043052 g / cm^3
# Si number density = 20.477131 Si / 1000 Ang^3
#
#
#
# Elastic Constant Matrix: (Units=GPa)
#
#
# Indices 1 2 3 4 5 6 
#
# 1 78.7226 29.6647 33.5094 0.0000 0.0000 0.0000
# 2 29.6647 76.8434 31.8473 0.0000 0.0000 0.0000
# 3 33.5094 31.8473 134.4476 0.0000 0.0000 0.0000
# 4 0.0000 0.0000 0.0000 61.4509 0.0000 0.0000
# 5 0.0000 0.0000 0.0000 0.0000 56.4176 0.0000
# 6 0.0000 0.0000 0.0000 0.0000 0.0000 59.7146
#
#
#
# Elastic Compliance Matrix: (Units=1/GPa)
#
#
# Indices 1 2 3 4 5 6 
#
# 1 0.015733 -0.004933 -0.002753 0.000000 0.000000 0.000000
# 2 -0.004933 0.015977 -0.002555 0.000000 0.000000 0.000000
# 3 -0.002753 -0.002555 0.008729 0.000000 0.000000 0.000000
# 4 0.000000 0.000000 0.000000 0.016273 0.000000 0.000000
# 5 0.000000 0.000000 0.000000 0.000000 0.017725 0.000000
# 6 0.000000 0.000000 0.000000 0.000000 0.000000 0.016746
#
#
# Mechanical properties :
#
#
# Convention : Reuss Voigt Hill
#
# Bulk Modulus (GPa) = 50.10575 53.33960 51.72268
# Shear Modulus (GPa) = 42.25903 48.51610 45.38757
#
# Velocity S-wave (km/s) = 4.54775 4.87281 4.71308
# Velocity P-wave (km/s) = 7.21791 7.60026 7.41155
#
# Compressibility (1/GPa) = 0.01995779
#
# Stress axis : x y z
#
# Youngs Moduli (GPa) = 63.55880 62.59129 114.55811
#
# Poissons Ratio (x) = 0.30875 0.31537
# Poissons Ratio (y) = 0.31352 0.29270
# Poissons Ratio (z) = 0.17497 0.15992
#
# Static dielectric constant tensor:
#      x y z
#    x 1.732020 0.000000 0.000000 
#    y 0.000000 1.854720 0.000000 
#    z 0.000000 0.000000 1.672720 
# 
# From -- ./inp_files/36822.got.cif
#   From: 2010.05.17/outbox.cif.g08.bks.cpg/sg21_19_cif.got.tgz:36822.got - 2010.06.03 23:14:55.
