data_PCOD9325146
_publ_section_title
;
Structure prediction by ZEFSAII (Michael W. Deem and Ramdas Pophale) SiO2 
 PCOD9325146
Probable space group: C 2 2 2
;
_chemical_formula_sum "Si O2"
_cell_formula_units_Z 26
_cell_length_a 7.166780
_cell_length_b 28.125677
_cell_length_c 6.410812
_cell_angle_alpha 90.000000
_cell_angle_beta 90.000000
_cell_angle_gamma 90.000000
_cell_volume 1292.230833
_symmetry_space_group_name_H-M "C 2 2 2"
_symmetry_group_IT_number 21
_symmetry_cell_setting 'orthorhombic'
loop_
_space_group_symop_operation_xyz
x,y,z
-x,-y,z
x,-y,-z
-x,y,-z
1/2+x,1/2+y,z
1/2-x,1/2-y,z
1/2+x,1/2-y,-z
1/2-x,1/2+y,-z
loop_
_atom_site_type_symbol
_atom_site_label
_atom_site_fract_x
_atom_site_fract_y
_atom_site_fract_z
Si Si1 0.500000 0.650073 0.000000
Si Si2 0.000000 0.000000 0.000000
Si Si3 0.345691 0.796107 0.829423
Si Si4 0.360827 0.574135 0.317395
Si Si5 0.500000 0.873216 0.500000
O O1 0.318824 0.680414 0.960198
O O2 0.539918 0.617913 0.799450
O O3 0.867195 0.032597 0.144870
O O4 0.250000 0.750000 0.721920
O O5 0.421977 0.836841 0.675474
O O6 0.500000 0.781772 0.000000
O O7 0.500000 0.558935 0.500000
O O8 0.164097 0.593324 0.405668
#
# Coordination Sequence:
#
# PCOD9325146 Si02
#       5
#     4   2   8   8   4
#     4  11  22  41  70  94 136 184 224 279 340 397
#     4  10  26  48  74  98 136 178 222 288 362 408
#     4  12  25  41  67 104 142 185 236 282 329 395
#     4  11  23  45  73 100 135 175 228 286 346 417
#     4  12  26  42  75 104 138 184 230 281 348 404
#
# _framework density 20.120244
#
# number of rings (size 3 to 8) (size 9 to 14) (size 15 to 20)
#    0.000    0.615    7.692    0.462    0.000    3.692 
#    0.000    4.615    0.000    0.000    0.000    0.000 
#    0.000    0.000    0.000    0.000    0.000    0.000 
#
# Total GULP energy -72575.917860 kJ/mol
# GULP energy per Si atom -5582.762912 kJ/mol
# Density = 2.007445 g / cm^3
# Si number density = 20.120244 Si / 1000 Ang^3
#
#
#
# Elastic Constant Matrix: (Units=GPa)
#
#
# Indices 1 2 3 4 5 6 
#
# 1 142.7257 67.4520 60.3346 0.0000 0.0000 0.0000
# 2 67.4520 125.1289 54.1488 0.0000 0.0000 0.0000
# 3 60.3346 54.1488 100.2973 0.0000 0.0000 0.0000
# 4 0.0000 0.0000 0.0000 1.2255 0.0000 0.0000
# 5 0.0000 0.0000 0.0000 0.0000 40.4169 0.0000
# 6 0.0000 0.0000 0.0000 0.0000 0.0000 56.2629
#
#
#
# Elastic Compliance Matrix: (Units=1/GPa)
#
#
# Indices 1 2 3 4 5 6 
#
# 1 0.010667 -0.003880 -0.004322 0.000000 0.000000 0.000000
# 2 -0.003880 0.011839 -0.004058 0.000000 0.000000 0.000000
# 3 -0.004322 -0.004058 0.014761 0.000000 0.000000 0.000000
# 4 0.000000 0.000000 0.000000 0.815968 0.000000 0.000000
# 5 0.000000 0.000000 0.000000 0.000000 0.024742 0.000000
# 6 0.000000 0.000000 0.000000 0.000000 0.000000 0.017774
#
#
# Mechanical properties :
#
#
# Convention : Reuss Voigt Hill
#
# Bulk Modulus (GPa) = 78.44537 81.33585 79.89061
# Shear Modulus (GPa) = 5.40821 31.99551 18.70186
#
# Velocity S-wave (km/s) = 1.64127 3.99208 3.05209
# Velocity P-wave (km/s) = 6.53182 7.85885 7.22586
#
# Compressibility (1/GPa) = 0.01274772
#
# Stress axis : x y z
#
# Youngs Moduli (GPa) = 93.74524 84.46491 67.74502
#
# Poissons Ratio (x) = 0.32771 0.29281
# Poissons Ratio (y) = 0.36371 0.27490
# Poissons Ratio (z) = 0.40519 0.34275
#
# Static dielectric constant tensor:
#      x y z
#    x 1.706540 0.000000 0.000000 
#    y 0.000000 1.731350 0.000000 
#    z 0.000000 0.000000 1.564990 
# 
# From -- ./inp_files/1288.got.cif
#   From: 2010.05.17/outbox.cif.g08.bks.cpg/sg21_1_cif.got.tgz:1288.got - 2010.06.03 23:14:55.
