data_PCOD9325405
_publ_section_title
;
Structure prediction by ZEFSAII (Michael W. Deem and Ramdas Pophale) SiO2 
 PCOD9325405
Probable space group: C 2 2 2
;
_chemical_formula_sum "Si O2"
_cell_formula_units_Z 48
_cell_length_a 11.248277
_cell_length_b 10.761135
_cell_length_c 19.527041
_cell_angle_alpha 90.000000
_cell_angle_beta 90.000000
_cell_angle_gamma 90.000000
_cell_volume 2363.635590
_symmetry_space_group_name_H-M "C 2 2 2"
_symmetry_group_IT_number 21
_symmetry_cell_setting 'orthorhombic'
loop_
_space_group_symop_operation_xyz
x,y,z
-x,-y,z
x,-y,-z
-x,y,-z
1/2+x,1/2+y,z
1/2-x,1/2-y,z
1/2+x,1/2-y,-z
1/2-x,1/2+y,-z
loop_
_atom_site_type_symbol
_atom_site_label
_atom_site_fract_x
_atom_site_fract_y
_atom_site_fract_z
Si Si1 0.505261 0.794631 0.576781
Si Si2 0.442984 0.207466 0.925657
Si Si3 0.226108 0.945161 0.074725
Si Si4 0.145960 0.856568 0.675755
Si Si5 0.299396 0.008083 0.577324
Si Si6 0.865916 0.164467 0.831713
O O1 0.500000 0.741767 0.500000
O O2 0.463911 0.696629 0.632547
O O3 0.404252 0.903393 0.577662
O O4 0.631153 0.862551 0.588159
O O5 0.355648 0.098829 0.900300
O O6 0.358608 0.327116 0.935203
O O7 0.536736 0.251333 0.869504
O O8 0.500000 0.178529 0.000000
O O9 0.162943 0.044268 0.122890
O O10 0.244767 0.000000 0.000000
O O11 0.250000 0.750000 0.675649
O O12 0.205636 0.970925 0.635232
O O13 0.108778 0.875823 0.754027
O O14 0.248736 0.000000 0.500000
O O15 0.750000 0.250000 0.830176
#
# Coordination Sequence:
#
# PCOD9325405 Si02
#       6
#     8   8   8   8   8   8
#     4   8  14  27  50  77 106 148 196 239 288 341
#     4  11  23  40  63  87 115 157 205 248 296 354
#     4  11  23  40  63  87 115 157 205 248 296 354
#     4   9  18  31  51  81 117 150 189 238 289 352
#     4   8  14  27  50  77 106 148 196 239 288 341
#     4  11  23  37  57  91 125 158 195 241 308 364
#
# _framework density 20.307699
#
# number of rings (size 3 to 8) (size 9 to 14) (size 15 to 20)
#    0.000    2.333    1.667    2.500    0.000    3.667 
#    0.000    3.333    7.333    0.000    0.000    0.000 
#    0.000    0.000    0.000    0.000    0.000    0.000 
#
# Total GULP energy -134016.887721 kJ/mol
# GULP energy per Si atom -5584.036988 kJ/mol
# Density = 2.026148 g / cm^3
# Si number density = 20.307699 Si / 1000 Ang^3
#
#
#
# Elastic Constant Matrix: (Units=GPa)
#
#
# Indices 1 2 3 4 5 6 
#
# 1 79.3745 15.6313 58.4397 0.0000 0.0000 0.0000
# 2 15.6313 26.4997 33.7490 0.0000 0.0000 0.0000
# 3 58.4397 33.7490 153.4390 0.0000 0.0000 0.0000
# 4 0.0000 0.0000 0.0000 52.4184 0.0000 0.0000
# 5 0.0000 0.0000 0.0000 0.0000 -32.6063 0.0000
# 6 0.0000 0.0000 0.0000 0.0000 0.0000 31.7398
#
#
#
# Elastic Compliance Matrix: (Units=1/GPa)
#
#
# Indices 1 2 3 4 5 6 
#
# 1 0.017633 -0.002567 -0.006151 0.000000 0.000000 0.000000
# 2 -0.002567 0.052794 -0.010634 0.000000 0.000000 0.000000
# 3 -0.006151 -0.010634 0.011199 0.000000 0.000000 0.000000
# 4 0.000000 0.000000 0.000000 0.019077 0.000000 0.000000
# 5 0.000000 0.000000 0.000000 0.000000 -0.030669 0.000000
# 6 0.000000 0.000000 0.000000 0.000000 0.000000 0.031506
#
#
# Mechanical properties :
#
#
# Convention : Reuss Voigt Hill
#
# Bulk Modulus (GPa) = 23.29880 52.77256 38.03568
# Shear Modulus (GPa) = 32.35141 20.40991 26.38066
#
# Velocity S-wave (km/s) = 3.99565 3.17367 3.60814
# Velocity P-wave (km/s) = 5.72579 6.28271 6.01071
#
# Compressibility (1/GPa) = 0.04292067
#
# Stress axis : x y z
#
# Youngs Moduli (GPa) = 56.71239 18.94149 89.29368
#
# Poissons Ratio (x) = 0.04863 0.54925
# Poissons Ratio (y) = 0.14560 0.94958
# Poissons Ratio (z) = 0.34884 0.20143
#
# Static dielectric constant tensor:
#      x y z
#    x 1.709590 0.000000 0.000000 
#    y 0.000000 1.729330 0.000000 
#    z 0.000000 0.000000 1.693560 
# 
# From -- ./inp_files/36159.got.cif
#   From: 2010.05.17/outbox.cif.g08.bks.cpg/sg21_19_cif.got.tgz:36159.got - 2010.06.03 23:14:55.
