data_PCOD9325118
_publ_section_title
;
Structure prediction by ZEFSAII (Michael W. Deem and Ramdas Pophale) SiO2 
 PCOD9325118
Probable space group: C 2 2 2
;
_chemical_formula_sum "Si O2"
_cell_formula_units_Z 20
_cell_length_a 5.792453
_cell_length_b 25.746390
_cell_length_c 5.338748
_cell_angle_alpha 90.000000
_cell_angle_beta 90.000000
_cell_angle_gamma 90.000000
_cell_volume 796.192870
_symmetry_space_group_name_H-M "C 2 2 2"
_symmetry_group_IT_number 21
_symmetry_cell_setting 'orthorhombic'
loop_
_space_group_symop_operation_xyz
x,y,z
-x,-y,z
x,-y,-z
-x,y,-z
1/2+x,1/2+y,z
1/2-x,1/2-y,z
1/2+x,1/2-y,-z
1/2-x,1/2+y,-z
loop_
_atom_site_type_symbol
_atom_site_label
_atom_site_fract_x
_atom_site_fract_y
_atom_site_fract_z
Si Si1 0.105010 0.441531 0.246248
Si Si2 0.652069 0.807497 0.748103
Si Si3 0.500000 0.612198 0.000000
O O1 0.000000 0.500000 0.242024
O O2 0.000000 0.421294 0.500000
O O3 0.368883 0.427624 0.192393
O O4 0.000000 0.415893 0.000000
O O5 0.500000 0.818600 0.500000
O O6 0.750000 0.750000 0.704069
O O7 0.852653 0.848911 0.821713
O O8 0.500000 0.803906 0.000000
#
# Coordination Sequence:
#
# PCOD9325118 Si02
#       3
#     8   8   4
#     4  10  25  51  79 117 161 209 272 327 396 476
#     4  12  28  52  79 117 164 216 271 331 404 484
#     4  12  28  51  84 120 166 218 261 342 396 474
#
# _framework density 25.119541000000002
#
# number of rings (size 3 to 8) (size 9 to 14) (size 15 to 20)
#    0.000    0.800    2.000    2.400    0.000   14.400 
#    0.000   16.000    0.000    0.000    0.000    0.000 
#    0.000    0.000    0.000    0.000    0.000    0.000 
#
# Total GULP energy -55782.423815 kJ/mol
# GULP energy per Si atom -5578.242381 kJ/mol
# Density = 2.506237 g / cm^3
# Si number density = 25.119541 Si / 1000 Ang^3
#
#
#
# Elastic Constant Matrix: (Units=GPa)
#
#
# Indices 1 2 3 4 5 6 
#
# 1 134.5211 102.8711 91.3418 0.0000 0.0000 0.0000
# 2 102.8711 251.3868 51.9011 0.0000 0.0000 0.0000
# 3 91.3418 51.9011 279.4523 0.0000 0.0000 0.0000
# 4 0.0000 0.0000 0.0000 -163.2122 0.0000 0.0000
# 5 0.0000 0.0000 0.0000 0.0000 28.6319 0.0000
# 6 0.0000 0.0000 0.0000 0.0000 0.0000 72.5308
#
#
#
# Elastic Compliance Matrix: (Units=1/GPa)
#
#
# Indices 1 2 3 4 5 6 
#
# 1 0.013488 -0.004793 -0.003519 0.000000 0.000000 0.000000
# 2 -0.004793 0.005840 0.000482 0.000000 0.000000 0.000000
# 3 -0.003519 0.000482 0.004639 0.000000 0.000000 0.000000
# 4 0.000000 0.000000 0.000000 -0.006127 0.000000 0.000000
# 5 0.000000 0.000000 0.000000 0.000000 0.034926 0.000000
# 6 0.000000 0.000000 0.000000 0.000000 0.000000 0.013787
#
#
# Mechanical properties :
#
#
# Convention : Reuss Voigt Hill
#
# Bulk Modulus (GPa) = 120.36840 128.62093 124.49466
# Shear Modulus (GPa) = 58.83574 15.53983 37.18778
#
# Velocity S-wave (km/s) = 4.84491 2.48994 3.85181
# Velocity P-wave (km/s) = 8.90617 7.71888 8.33369
#
# Compressibility (1/GPa) = 0.00830783
#
# Stress axis : x y z
#
# Youngs Moduli (GPa) = 74.13757 171.23724 215.56438
#
# Poissons Ratio (x) = 0.82078 0.75849
# Poissons Ratio (y) = 0.35536 -0.10393
# Poissons Ratio (z) = 0.26086 -0.08255
#
# Static dielectric constant tensor:
#      x y z
#    x 2.734530 0.000000 0.000000 
#    y 0.000000 4.684800 0.000000 
#    z 0.000000 0.000000 1.893490 
# 
# From -- ./inp_files/607.got.cif
#   From: 2010.05.17/outbox.cif.g08.bks.cpg/sg21_1_cif.got.tgz:607.got - 2010.06.03 23:14:55.
