data_PCOD9325936
_publ_section_title
;
Structure prediction by ZEFSAII (Michael W. Deem and Ramdas Pophale) SiO2 
 PCOD9325936
Probable space group: F 2 2 2
;
_chemical_formula_sum "Si O2"
_cell_formula_units_Z 68
_cell_length_a 16.820691
_cell_length_b 17.667993
_cell_length_c 12.803748
_cell_angle_alpha 90.000000
_cell_angle_beta 90.000000
_cell_angle_gamma 90.000000
_cell_volume 3805.118351
_symmetry_space_group_name_H-M "F 2 2 2"
_symmetry_group_IT_number 22
_symmetry_cell_setting 'orthorhombic'
loop_
_space_group_symop_operation_xyz
x,y,z
-x,-y,z
x,-y,-z
-x,y,-z
x,1/2+y,1/2+z
-x,1/2-y,1/2+z
x,1/2-y,1/2-z
-x,1/2+y,1/2-z
1/2+x,y,1/2+z
1/2-x,-y,1/2+z
1/2+x,-y,1/2-z
1/2-x,y,1/2-z
1/2+x,1/2+y,z
1/2-x,1/2-y,z
1/2+x,1/2-y,-z
1/2-x,1/2+y,-z
loop_
_atom_site_type_symbol
_atom_site_label
_atom_site_fract_x
_atom_site_fract_y
_atom_site_fract_z
Si Si1 0.542801 0.616552 0.164345
Si Si2 0.000000 0.500000 0.500000
Si Si3 0.598008 0.732608 0.862163
Si Si4 0.970377 0.869198 0.393467
Si Si5 0.840576 0.255527 0.585636
O O1 0.459409 0.659750 0.142868
O O2 0.537941 0.588519 0.283557
O O3 0.610088 0.680741 0.148527
O O4 0.550895 0.552327 0.077749
O O5 0.636492 0.750000 0.750000
O O6 0.536328 0.802377 0.879113
O O7 0.653102 0.724811 0.962375
O O8 0.887971 0.823461 0.405767
O O9 0.000000 0.908365 0.500000
O O10 0.750000 0.250000 0.618979
#
# Coordination Sequence:
#
# PCOD9325936 Si02
#       5
#    16   4  16  16  16
#     4  10  18  31  49  75 102 131 172 201 250 302
#     4  12  20  32  54  76 100 140 170 208 232 304
#     4   8  14  28  47  71 104 125 163 218 253 294
#     4   8  16  30  49  72  99 126 162 222 259 287
#     4  10  17  27  47  81 108 126 162 215 272 299
#
# _framework density 17.870667000000001
#
# number of rings (size 3 to 8) (size 9 to 14) (size 15 to 20)
#    0.000    2.824    2.353    3.529    0.000    2.353 
#    0.000    0.588    0.000    0.000   36.706    0.000 
#    0.000    0.000    0.000    0.000    0.000    0.000 
#
# Total GULP energy -94640.894914 kJ/mol
# GULP energy per Si atom -5567.111466 kJ/mol
# Density = 1.782999 g / cm^3
# Si number density = 17.870667 Si / 1000 Ang^3
#
#
#
# Elastic Constant Matrix: (Units=GPa)
#
#
# Indices 1 2 3 4 5 6 
#
# 1 70.9055 14.7194 24.7198 0.0000 0.0000 0.0000
# 2 14.7194 45.3084 29.5300 0.0000 0.0000 0.0000
# 3 24.7198 29.5300 165.6077 0.0000 0.0000 0.0000
# 4 0.0000 0.0000 0.0000 21.8027 0.0000 0.0000
# 5 0.0000 0.0000 0.0000 0.0000 9.9903 0.0000
# 6 0.0000 0.0000 0.0000 0.0000 0.0000 5.5087
#
#
#
# Elastic Compliance Matrix: (Units=1/GPa)
#
#
# Indices 1 2 3 4 5 6 
#
# 1 0.015489 -0.003989 -0.001601 0.000000 0.000000 0.000000
# 2 -0.003989 0.026000 -0.004041 0.000000 0.000000 0.000000
# 3 -0.001601 -0.004041 0.006998 0.000000 0.000000 0.000000
# 4 0.000000 0.000000 0.000000 0.045866 0.000000 0.000000
# 5 0.000000 0.000000 0.000000 0.000000 0.100097 0.000000
# 6 0.000000 0.000000 0.000000 0.000000 0.000000 0.181532
#
#
# Mechanical properties :
#
#
# Convention : Reuss Voigt Hill
#
# Bulk Modulus (GPa) = 34.21501 46.64002 40.42751
# Shear Modulus (GPa) = 12.34610 21.65048 16.99829
#
# Velocity S-wave (km/s) = 2.63127 3.48445 3.08747
# Velocity P-wave (km/s) = 5.33094 6.50721 5.94822
#
# Compressibility (1/GPa) = 0.02922694
#
# Stress axis : x y z
#
# Youngs Moduli (GPa) = 64.56034 38.46088 142.90099
#
# Poissons Ratio (x) = 0.15341 0.22876
# Poissons Ratio (y) = 0.25751 0.57744
# Poissons Ratio (z) = 0.10335 0.15541
#
# Static dielectric constant tensor:
#      x y z
#    x 1.567170 0.000000 0.000000 
#    y 0.000000 1.612190 0.000000 
#    z 0.000000 0.000000 1.714870 
# 
# From -- ./inp_files/29125.got.cif
#   From: 2010.05.17/outbox.cif.g08.bks.cpg/sg22_15_cif.got.tgz:29125.got - 2010.06.03 23:40:54.
