data_PCOD9325396
_publ_section_title
;
Structure prediction by ZEFSAII (Michael W. Deem and Ramdas Pophale) SiO2 
 PCOD9325396
Probable space group: C 2 2 2
;
_chemical_formula_sum "Si O2"
_cell_formula_units_Z 64
_cell_length_a 8.538677
_cell_length_b 31.482064
_cell_length_c 11.310552
_cell_angle_alpha 90.000000
_cell_angle_beta 90.000000
_cell_angle_gamma 90.000000
_cell_volume 3040.448024
_symmetry_space_group_name_H-M "C 2 2 2"
_symmetry_group_IT_number 21
_symmetry_cell_setting 'orthorhombic'
loop_
_space_group_symop_operation_xyz
x,y,z
-x,-y,z
x,-y,-z
-x,y,-z
1/2+x,1/2+y,z
1/2-x,1/2-y,z
1/2+x,1/2-y,-z
1/2-x,1/2+y,-z
loop_
_atom_site_type_symbol
_atom_site_label
_atom_site_fract_x
_atom_site_fract_y
_atom_site_fract_z
Si Si1 0.302445 0.878994 0.310402
Si Si2 0.144093 0.631138 0.780671
Si Si3 0.225621 0.799341 0.941179
Si Si4 0.666270 0.640769 0.455282
Si Si5 0.671811 0.547998 0.846150
Si Si6 0.902867 0.807723 0.809126
Si Si7 0.306607 0.550571 0.872275
Si Si8 0.416683 0.265275 0.393699
O O1 0.473690 0.864269 0.273968
O O2 0.287544 0.877961 0.451258
O O3 0.266382 0.922805 0.243411
O O4 0.169155 0.846538 0.263375
O O5 0.158329 0.667025 0.882019
O O6 0.274201 0.635272 0.677517
O O7 0.180730 0.584109 0.827629
O O8 0.250000 0.750000 0.911005
O O9 0.062645 0.814803 0.882239
O O10 0.217506 0.799667 0.083654
O O11 0.500000 0.622154 0.500000
O O12 0.641693 0.691473 0.458630
O O13 0.486339 0.558039 0.830439
O O14 0.715686 0.498357 0.834626
O O15 0.697307 0.555860 0.985726
O O16 0.959096 0.773602 0.710939
O O17 0.500000 0.239501 0.500000
O O18 0.250000 0.250000 0.345522
#
# Coordination Sequence:
#
# PCOD9325396 Si02
#       8
#     8   8   8   8   8   8   8   8
#     4  12  24  40  65  98 133 173 215 274 341 394
#     4  12  25  40  65  97 135 171 220 273 337 403
#     4  11  25  44  65  89 127 177 224 275 330 396
#     4  11  22  45  67  87 121 171 224 274 331 400
#     4   9  19  38  68  97 134 171 221 265 321 394
#     4  11  23  43  65  88 126 174 220 269 336 398
#     4   9  19  39  66 100 129 176 221 265 316 397
#     4  11  23  44  69  95 123 170 229 290 345 395
#
# _framework density 21.049527999999999
#
# number of rings (size 3 to 8) (size 9 to 14) (size 15 to 20)
#    0.000    1.250    3.750    3.750    0.000    8.000 
#    0.000    1.875    0.000    3.750    0.000    0.000 
#    0.000    0.000    0.000    0.000    0.000    0.000 
#
# Total GULP energy -178456.367681 kJ/mol
# GULP energy per Si atom -5576.761490 kJ/mol
# Density = 2.100162 g / cm^3
# Si number density = 21.049528 Si / 1000 Ang^3
#
#
#
# Elastic Constant Matrix: (Units=GPa)
#
#
# Indices 1 2 3 4 5 6 
#
# 1 70.4904 22.3415 30.9205 0.0000 0.0000 0.0000
# 2 22.3415 48.5847 28.2825 0.0000 0.0000 0.0000
# 3 30.9205 28.2825 130.1277 0.0000 0.0000 0.0000
# 4 0.0000 0.0000 0.0000 9.4995 0.0000 0.0000
# 5 0.0000 0.0000 0.0000 0.0000 31.4326 0.0000
# 6 0.0000 0.0000 0.0000 0.0000 0.0000 21.0502
#
#
#
# Elastic Compliance Matrix: (Units=1/GPa)
#
#
# Indices 1 2 3 4 5 6 
#
# 1 0.017424 -0.006414 -0.002746 0.000000 0.000000 0.000000
# 2 -0.006414 0.025925 -0.004111 0.000000 0.000000 0.000000
# 3 -0.002746 -0.004111 0.009231 0.000000 0.000000 0.000000
# 4 0.000000 0.000000 0.000000 0.105269 0.000000 0.000000
# 5 0.000000 0.000000 0.000000 0.000000 0.031814 0.000000
# 6 0.000000 0.000000 0.000000 0.000000 0.000000 0.047505
#
#
# Mechanical properties :
#
#
# Convention : Reuss Voigt Hill
#
# Bulk Modulus (GPa) = 38.40488 45.81022 42.10755
# Shear Modulus (GPa) = 18.35619 23.57370 20.96495
#
# Velocity S-wave (km/s) = 2.95625 3.35014 3.15934
# Velocity P-wave (km/s) = 5.47149 6.06423 5.77547
#
# Compressibility (1/GPa) = 0.02603836
#
# Stress axis : x y z
#
# Youngs Moduli (GPa) = 57.39316 38.57315 108.33391
#
# Poissons Ratio (x) = 0.24739 0.29751
# Poissons Ratio (y) = 0.36810 0.44532
# Poissons Ratio (z) = 0.15761 0.15856
#
# Static dielectric constant tensor:
#      x y z
#    x 1.836550 0.000000 0.000000 
#    y 0.000000 1.791110 0.000000 
#    z 0.000000 0.000000 1.794840 
# 
# From -- ./inp_files/23142.got.cif
#   From: 2010.05.17/outbox.cif.g08.bks.cpg/sg21_12_cif.got.tgz:23142.got - 2010.06.03 23:14:55.
