data_PCOD9325141
_publ_section_title
;
Structure prediction by ZEFSAII (Michael W. Deem and Ramdas Pophale) SiO2 
 PCOD9325141
Probable space group: C 2 2 2
;
_chemical_formula_sum "Si O2"
_cell_formula_units_Z 24
_cell_length_a 8.907807
_cell_length_b 15.708775
_cell_length_c 7.084524
_cell_angle_alpha 90.000000
_cell_angle_beta 90.000000
_cell_angle_gamma 90.000000
_cell_volume 991.342657
_symmetry_space_group_name_H-M "C 2 2 2"
_symmetry_group_IT_number 21
_symmetry_cell_setting 'orthorhombic'
loop_
_space_group_symop_operation_xyz
x,y,z
-x,-y,z
x,-y,-z
-x,y,-z
1/2+x,1/2+y,z
1/2-x,1/2-y,z
1/2+x,1/2-y,-z
1/2-x,1/2+y,-z
loop_
_atom_site_type_symbol
_atom_site_label
_atom_site_fract_x
_atom_site_fract_y
_atom_site_fract_z
Si Si1 0.296290 0.573559 0.665310
Si Si2 0.000000 0.219323 0.500000
Si Si3 0.019795 0.650996 0.200072
Si Si4 0.500000 0.000000 0.000000
Si Si5 0.500000 0.500000 0.000000
O O1 0.295796 0.500000 0.500000
O O2 0.379257 0.656949 0.587723
O O3 0.131400 0.607897 0.718962
O O4 0.391253 0.548339 0.851208
O O5 0.074717 0.282506 0.651290
O O6 0.099055 0.564228 0.127844
O O7 0.000000 0.698073 0.000000
#
# Coordination Sequence:
#
# PCOD9325141 Si02
#       5
#     8   4   8   2   2
#     4  12  26  49  75 109 151 206 250 314 380 471
#     4  12  25  47  70 116 148 190 250 323 377 436
#     4  10  26  46  73 107 144 195 255 306 379 439
#     4   8  22  48  68 106 128 206 244 290 380 444
#     4  12  24  46  78  98 156 200 270 282 398 454
#
# _framework density 24.209593000000002
#
# number of rings (size 3 to 8) (size 9 to 14) (size 15 to 20)
#    1.000    0.000    3.333    2.000    7.000    0.000 
#    6.000    0.000    0.000    0.000    0.000    0.000 
#    0.000    0.000    0.000    0.000    0.000    0.000 
#
# Total GULP energy -66921.717435 kJ/mol
# GULP energy per Si atom -5576.809786 kJ/mol
# Density = 2.415449 g / cm^3
# Si number density = 24.209593 Si / 1000 Ang^3
#
#
#
# Elastic Constant Matrix: (Units=GPa)
#
#
# Indices 1 2 3 4 5 6 
#
# 1 102.6320 50.6095 45.3351 0.0000 0.0000 0.0000
# 2 50.6095 168.1719 111.8990 0.0000 0.0000 0.0000
# 3 45.3351 111.8990 209.4375 0.0000 0.0000 0.0000
# 4 0.0000 0.0000 0.0000 78.1064 0.0000 0.0000
# 5 0.0000 0.0000 0.0000 0.0000 45.6452 0.0000
# 6 0.0000 0.0000 0.0000 0.0000 0.0000 -235.6513
#
#
#
# Elastic Compliance Matrix: (Units=1/GPa)
#
#
# Indices 1 2 3 4 5 6 
#
# 1 0.011575 -0.002818 -0.001000 0.000000 0.000000 0.000000
# 2 -0.002818 0.009912 -0.004686 0.000000 0.000000 0.000000
# 3 -0.001000 -0.004686 0.007495 0.000000 0.000000 0.000000
# 4 0.000000 0.000000 0.000000 0.012803 0.000000 0.000000
# 5 0.000000 0.000000 0.000000 0.000000 0.021908 0.000000
# 6 0.000000 0.000000 0.000000 0.000000 0.000000 -0.004244
#
#
# Mechanical properties :
#
#
# Convention : Reuss Voigt Hill
#
# Bulk Modulus (GPa) = 83.51323 99.54761 91.53042
# Shear Modulus (GPa) = 62.15132 -4.22009 28.96562
#
# Velocity S-wave (km/s) = 5.07227 -1.32172 3.46273
# Velocity P-wave (km/s) = 8.29908 6.23531 7.34009
#
# Compressibility (1/GPa) = 0.01197415
#
# Stress axis : x y z
#
# Youngs Moduli (GPa) = 86.39429 100.88421 133.42596
#
# Poissons Ratio (x) = 0.28429 0.13341
# Poissons Ratio (y) = 0.24346 0.62524
# Poissons Ratio (z) = 0.08638 0.47275
#
# Static dielectric constant tensor:
#      x y z
#    x 1.931340 0.000000 0.000000 
#    y 0.000000 1.944150 0.000000 
#    z 0.000000 0.000000 2.172650 
# 
# From -- ./inp_files/9832.got.cif
#   From: 2010.05.17/outbox.cif.g08.bks.cpg/sg21_5_cif.got.tgz:9832.got - 2010.06.03 23:14:55.
