data_PCOD9325024
_publ_section_title
;
Structure prediction by ZEFSAII (Michael W. Deem and Ramdas Pophale) SiO2 
 PCOD9325024
Probable space group: C 2 2 2
;
_chemical_formula_sum "Si O2"
_cell_formula_units_Z 26
_cell_length_a 19.030604
_cell_length_b 10.240803
_cell_length_c 5.454917
_cell_angle_alpha 90.000000
_cell_angle_beta 90.000000
_cell_angle_gamma 90.000000
_cell_volume 1063.101500
_symmetry_space_group_name_H-M "C 2 2 2"
_symmetry_group_IT_number 21
_symmetry_cell_setting 'orthorhombic'
loop_
_space_group_symop_operation_xyz
x,y,z
-x,-y,z
x,-y,-z
-x,y,-z
1/2+x,1/2+y,z
1/2-x,1/2-y,z
1/2+x,1/2-y,-z
1/2-x,1/2+y,-z
loop_
_atom_site_type_symbol
_atom_site_label
_atom_site_fract_x
_atom_site_fract_y
_atom_site_fract_z
Si Si1 0.201338 0.500000 0.500000
Si Si2 0.000000 0.500000 0.000000
Si Si3 0.920219 0.945987 0.251114
Si Si4 0.250000 0.250000 0.770071
Si Si5 0.380173 0.827341 0.902096
O O1 0.246095 0.380769 0.609219
O O2 0.154361 0.569515 0.712078
O O3 0.059603 0.607576 0.072435
O O4 0.916072 0.790317 0.246045
O O5 0.888447 0.000000 0.500000
O O6 0.000000 0.000000 0.248200
O O7 0.887237 0.000000 0.000000
O O8 0.318158 0.234200 0.939434
#
# Coordination Sequence:
#
# PCOD9325024 Si02
#       5
#     4   2   8   4   8
#     4  12  28  53  88 118 165 236 286 360 438 535
#     4  12  24  54  86 128 170 218 276 380 440 510
#     4  10  24  46  74 118 163 219 274 354 431 525
#     4  12  28  58  76 126 162 234 288 360 432 534
#     4  12  28  51  83 119 173 217 290 359 442 521
#
# _framework density 24.456742999999999
#
# number of rings (size 3 to 8) (size 9 to 14) (size 15 to 20)
#    0.000    0.615    3.077    2.769    4.308   10.462 
#    2.769    0.000    0.000    0.000    0.000    0.000 
#    0.000    0.000    0.000    0.000    0.000    0.000 
#
# Total GULP energy -72534.993070 kJ/mol
# GULP energy per Si atom -5579.614852 kJ/mol
# Density = 2.440108 g / cm^3
# Si number density = 24.456743 Si / 1000 Ang^3
#
#
#
# Elastic Constant Matrix: (Units=GPa)
#
#
# Indices 1 2 3 4 5 6 
#
# 1 176.5068 86.9578 40.4417 0.0000 0.0000 0.0000
# 2 86.9578 223.0821 62.2129 0.0000 0.0000 0.0000
# 3 40.4417 62.2129 139.4676 0.0000 0.0000 0.0000
# 4 0.0000 0.0000 0.0000 57.5865 0.0000 0.0000
# 5 0.0000 0.0000 0.0000 0.0000 -12.6520 0.0000
# 6 0.0000 0.0000 0.0000 0.0000 0.0000 79.5103
#
#
#
# Elastic Compliance Matrix: (Units=1/GPa)
#
#
# Indices 1 2 3 4 5 6 
#
# 1 0.007119 -0.002512 -0.000944 0.000000 0.000000 0.000000
# 2 -0.002512 0.006006 -0.001951 0.000000 0.000000 0.000000
# 3 -0.000944 -0.001951 0.008314 0.000000 0.000000 0.000000
# 4 0.000000 0.000000 0.000000 0.017365 0.000000 0.000000
# 5 0.000000 0.000000 0.000000 0.000000 -0.079039 0.000000
# 6 0.000000 0.000000 0.000000 0.000000 0.000000 0.012577
#
#
# Mechanical properties :
#
#
# Convention : Reuss Voigt Hill
#
# Bulk Modulus (GPa) = 94.10739 102.03127 98.06933
# Shear Modulus (GPa) = -375.86847 48.18523 -163.84162
#
# Velocity S-wave (km/s) = -12.41051 4.44353 -8.19377
# Velocity P-wave (km/s) = 12.91504 8.25447 7.02360
#
# Compressibility (1/GPa) = 0.01062616
#
# Stress axis : x y z
#
# Youngs Moduli (GPa) = 140.46378 166.50617 120.27947
#
# Poissons Ratio (x) = 0.41824 0.11353
# Poissons Ratio (y) = 0.35283 0.23462
# Poissons Ratio (z) = 0.13259 0.32480
#
# Static dielectric constant tensor:
#      x y z
#    x 1.723790 0.000000 0.000000 
#    y 0.000000 1.911570 0.000000 
#    z 0.000000 0.000000 1.922780 
# 
# From -- ./inp_files/4508.got.cif
#   From: 2010.05.17/outbox.cif.g08.bks.cpg/sg21_3_cif.got.tgz:4508.got - 2010.06.03 23:14:55.
