data_PCOD9325472
_publ_section_title
;
Structure prediction by ZEFSAII (Michael W. Deem and Ramdas Pophale) SiO2 
 PCOD9325472
Probable space group: C 2 2 2
;
_chemical_formula_sum "Si O2"
_cell_formula_units_Z 34
_cell_length_a 7.717602
_cell_length_b 22.177794
_cell_length_c 8.992779
_cell_angle_alpha 90.000000
_cell_angle_beta 90.000000
_cell_angle_gamma 90.000000
_cell_volume 1539.198544
_symmetry_space_group_name_H-M "C 2 2 2"
_symmetry_group_IT_number 21
_symmetry_cell_setting 'orthorhombic'
loop_
_space_group_symop_operation_xyz
x,y,z
-x,-y,z
x,-y,-z
-x,y,-z
1/2+x,1/2+y,z
1/2-x,1/2-y,z
1/2+x,1/2-y,-z
1/2-x,1/2+y,-z
loop_
_atom_site_type_symbol
_atom_site_label
_atom_site_fract_x
_atom_site_fract_y
_atom_site_fract_z
Si Si1 0.250000 0.750000 0.715870
Si Si2 0.000000 0.000000 0.500000
Si Si3 0.800294 0.907351 0.627795
Si Si4 0.305433 0.014709 0.174204
Si Si5 0.500000 0.826241 0.500000
Si Si6 0.085430 0.134449 0.162201
O O1 0.387021 0.784222 0.608943
O O2 0.172613 0.801167 0.821010
O O3 0.854575 0.945852 0.483413
O O4 0.630000 0.869596 0.592984
O O5 0.942636 0.865619 0.705555
O O6 0.805827 0.963654 0.743809
O O7 0.226805 0.081317 0.183793
O O8 0.500000 0.000000 0.230230
O O9 0.304823 0.000000 0.000000
O O10 0.000000 0.125950 0.000000
#
# Coordination Sequence:
#
# PCOD9325472 Si02
#       6
#     4   2   8   8   4   8
#     4  12  28  50  70 100 148 202 256 306 356 444
#     4  12  24  36  66 108 146 178 228 294 384 448
#     4  12  25  43  74 105 145 186 240 304 378 441
#     4  11  23  43  72 108 143 179 235 308 380 442
#     4  12  28  50  74 102 152 202 262 302 366 448
#     4  12  25  48  74 106 147 193 247 311 380 445
#
# _framework density 22.089418999999999
#
# number of rings (size 3 to 8) (size 9 to 14) (size 15 to 20)
#    0.000    0.235    4.706    4.235    3.294    1.882 
#    4.235    0.000    0.000    0.000    0.000    0.000 
#    0.000    0.000    0.000    0.000    0.000    0.000 
#
# Total GULP energy -94686.925731 kJ/mol
# GULP energy per Si atom -5569.819161 kJ/mol
# Density = 2.203914 g / cm^3
# Si number density = 22.089419 Si / 1000 Ang^3
#
#
#
# Elastic Constant Matrix: (Units=GPa)
#
#
# Indices 1 2 3 4 5 6 
#
# 1 120.3909 91.0298 22.7491 0.0000 0.0000 0.0000
# 2 91.0298 188.7187 37.3533 0.0000 0.0000 0.0000
# 3 22.7491 37.3533 69.0721 0.0000 0.0000 0.0000
# 4 0.0000 0.0000 0.0000 53.5402 0.0000 0.0000
# 5 0.0000 0.0000 0.0000 0.0000 18.9886 0.0000
# 6 0.0000 0.0000 0.0000 0.0000 0.0000 65.4879
#
#
#
# Elastic Compliance Matrix: (Units=1/GPa)
#
#
# Indices 1 2 3 4 5 6 
#
# 1 0.013137 -0.006137 -0.001008 0.000000 0.000000 0.000000
# 2 -0.006137 0.008801 -0.002738 0.000000 0.000000 0.000000
# 3 -0.001008 -0.002738 0.016290 0.000000 0.000000 0.000000
# 4 0.000000 0.000000 0.000000 0.018678 0.000000 0.000000
# 5 0.000000 0.000000 0.000000 0.000000 0.052663 0.000000
# 6 0.000000 0.000000 0.000000 0.000000 0.000000 0.015270
#
#
# Mechanical properties :
#
#
# Convention : Reuss Voigt Hill
#
# Bulk Modulus (GPa) = 54.16509 75.60511 64.88510
# Shear Modulus (GPa) = 33.16519 42.73999 37.95259
#
# Velocity S-wave (km/s) = 3.87900 4.40348 4.14954
# Velocity P-wave (km/s) = 6.68104 7.75599 7.23849
#
# Compressibility (1/GPa) = 0.01846208
#
# Stress axis : x y z
#
# Youngs Moduli (GPa) = 76.11906 113.61970 61.38600
#
# Poissons Ratio (x) = 0.69733 0.06186
# Poissons Ratio (y) = 0.46717 0.16809
# Poissons Ratio (z) = 0.07671 0.31112
#
# Static dielectric constant tensor:
#      x y z
#    x 1.918210 0.000000 0.000000 
#    y 0.000000 1.767660 0.000000 
#    z 0.000000 0.000000 2.026970 
# 
# From -- ./inp_files/10636.got.cif
#   From: 2010.05.17/outbox.cif.g08.bks.cpg/sg21_6_cif.got.tgz:10636.got - 2010.06.03 23:14:55.
