data_PCOD9325882
_publ_section_title
;
Structure prediction by ZEFSAII (Michael W. Deem and Ramdas Pophale) SiO2 
 PCOD9325882
Probable space group: F 2 2 2
;
_chemical_formula_sum "Si O2"
_cell_formula_units_Z 108
_cell_length_a 18.304570
_cell_length_b 22.819360
_cell_length_c 16.180231
_cell_angle_alpha 90.000000
_cell_angle_beta 90.000000
_cell_angle_gamma 90.000000
_cell_volume 6758.459391
_symmetry_space_group_name_H-M "F 2 2 2"
_symmetry_group_IT_number 22
_symmetry_cell_setting 'orthorhombic'
loop_
_space_group_symop_operation_xyz
x,y,z
-x,-y,z
x,-y,-z
-x,y,-z
x,1/2+y,1/2+z
-x,1/2-y,1/2+z
x,1/2-y,1/2-z
-x,1/2+y,1/2-z
1/2+x,y,1/2+z
1/2-x,-y,1/2+z
1/2+x,-y,1/2-z
1/2-x,y,1/2-z
1/2+x,1/2+y,z
1/2-x,1/2-y,z
1/2+x,1/2-y,-z
1/2-x,1/2+y,-z
loop_
_atom_site_type_symbol
_atom_site_label
_atom_site_fract_x
_atom_site_fract_y
_atom_site_fract_z
Si Si1 0.180479 0.004142 0.810420
Si Si2 0.160961 0.647650 0.511117
Si Si3 0.726123 0.947991 0.050422
Si Si4 0.914205 0.889579 0.185003
Si Si5 0.815086 0.644870 0.183727
Si Si6 0.750000 0.750000 0.078843
Si Si7 0.000000 0.000000 0.000000
Si Si8 0.426635 0.591352 0.123575
O O1 0.250000 0.007176 0.750000
O O2 0.135514 0.063713 0.818970
O O3 0.214670 0.984951 0.897668
O O4 0.121809 0.952637 0.792429
O O5 0.226751 0.600314 0.500335
O O6 0.121310 0.630517 0.597733
O O7 0.195621 0.710983 0.524617
O O8 0.106337 0.641275 0.435015
O O9 0.682833 0.907983 0.116993
O O10 0.686313 0.000000 0.000000
O O11 0.886321 0.849540 0.259955
O O12 0.000229 0.892524 0.172041
O O13 0.750000 0.631672 0.250000
O O14 0.792580 0.703597 0.136291
O O15 0.951122 0.959498 0.941263
#
# Coordination Sequence:
#
# PCOD9325882 Si02
#       8
#    16  16  16  16  16   8   4  16
#     4  11  18  29  44  74 112 145 167 203 258 336
#     4  10  19  29  47  76 106 138 172 213 268 321
#     4  10  16  27  47  71 110 135 169 206 263 311
#     4  11  18  28  46  77 113 135 168 219 272 320
#     4  11  18  30  49  76 110 137 180 222 262 317
#     4  10  21  32  50  78 103 140 184 222 269 306
#     4  12  16  28  48  80 120 136 148 208 278 344
#     4  12  20  29  48  80 114 139 167 213 281 331
#
# _framework density 15.979972999999999
#
# number of rings (size 3 to 8) (size 9 to 14) (size 15 to 20)
#    0.000    1.185   10.370    1.111    0.000    0.000 
#    0.000    0.000    0.000    0.000   11.556    2.074 
#    0.000    0.000    0.000    0.000    0.000    0.000 
#
# Total GULP energy -150433.508209 kJ/mol
# GULP energy per Si atom -5571.611415 kJ/mol
# Density = 1.594360 g / cm^3
# Si number density = 15.979973 Si / 1000 Ang^3
#
#
#
# Elastic Constant Matrix: (Units=GPa)
#
#
# Indices 1 2 3 4 5 6 
#
# 1 99.9535 42.9612 47.9974 0.0000 0.0000 0.0000
# 2 42.9612 91.4445 43.3376 0.0000 0.0000 0.0000
# 3 47.9974 43.3376 54.8075 0.0000 0.0000 0.0000
# 4 0.0000 0.0000 0.0000 21.2801 0.0000 0.0000
# 5 0.0000 0.0000 0.0000 0.0000 33.3254 0.0000
# 6 0.0000 0.0000 0.0000 0.0000 0.0000 17.9765
#
#
#
# Elastic Compliance Matrix: (Units=1/GPa)
#
#
# Indices 1 2 3 4 5 6 
#
# 1 0.017397 -0.001524 -0.014030 0.000000 0.000000 0.000000
# 2 -0.001524 0.017623 -0.012601 0.000000 0.000000 0.000000
# 3 -0.014030 -0.012601 0.040496 0.000000 0.000000 0.000000
# 4 0.000000 0.000000 0.000000 0.046992 0.000000 0.000000
# 5 0.000000 0.000000 0.000000 0.000000 0.030007 0.000000
# 6 0.000000 0.000000 0.000000 0.000000 0.000000 0.055628
#
#
# Mechanical properties :
#
#
# Convention : Reuss Voigt Hill
#
# Bulk Modulus (GPa) = 52.06477 57.19979 54.63228
# Shear Modulus (GPa) = 18.46001 21.97702 20.21852
#
# Velocity S-wave (km/s) = 3.40251 3.71251 3.56088
# Velocity P-wave (km/s) = 6.93455 7.36541 7.15323
#
# Compressibility (1/GPa) = 0.01920685
#
# Stress axis : x y z
#
# Youngs Moduli (GPa) = 57.48124 56.74334 24.69369
#
# Poissons Ratio (x) = 0.08647 0.34646
# Poissons Ratio (y) = 0.08760 0.31115
# Poissons Ratio (z) = 0.80648 0.71500
#
# Static dielectric constant tensor:
#      x y z
#    x 1.550350 0.000000 0.000000 
#    y 0.000000 1.567290 0.000000 
#    z 0.000000 0.000000 1.570660 
# 
# From -- ./inp_files/38255.got.cif
#   From: 2010.05.17/outbox.cif.g08.bks.cpg/sg22_20_cif.got.tgz:38255.got - 2010.06.03 23:40:54.
