data_PCOD9325973
_publ_section_title
;
Structure prediction by ZEFSAII (Michael W. Deem and Ramdas Pophale) SiO2 
 PCOD9325973
Probable space group: F 2 2 2
;
_chemical_formula_sum "Si O2"
_cell_formula_units_Z 88
_cell_length_a 14.320740
_cell_length_b 23.475716
_cell_length_c 11.121459
_cell_angle_alpha 90.000000
_cell_angle_beta 90.000000
_cell_angle_gamma 90.000000
_cell_volume 3738.919132
_symmetry_space_group_name_H-M "F 2 2 2"
_symmetry_group_IT_number 22
_symmetry_cell_setting 'orthorhombic'
loop_
_space_group_symop_operation_xyz
x,y,z
-x,-y,z
x,-y,-z
-x,y,-z
x,1/2+y,1/2+z
-x,1/2-y,1/2+z
x,1/2-y,1/2-z
-x,1/2+y,1/2-z
1/2+x,y,1/2+z
1/2-x,-y,1/2+z
1/2+x,-y,1/2-z
1/2-x,y,1/2-z
1/2+x,1/2+y,z
1/2-x,1/2-y,z
1/2+x,1/2-y,-z
1/2-x,1/2+y,-z
loop_
_atom_site_type_symbol
_atom_site_label
_atom_site_fract_x
_atom_site_fract_y
_atom_site_fract_z
Si Si1 0.390444 0.602938 0.504248
Si Si2 0.878765 0.625720 0.273793
Si Si3 0.696067 0.064682 0.486183
Si Si4 0.383464 0.250000 0.250000
Si Si5 0.859615 0.234941 0.486060
Si Si6 0.065408 0.653643 0.381775
O O1 0.500000 0.588107 0.500000
O O2 0.364426 0.598729 0.645454
O O3 0.305475 0.566529 0.450516
O O4 0.373370 0.668227 0.458244
O O5 0.835185 0.593403 0.386379
O O6 0.838963 0.689116 0.271890
O O7 0.990141 0.639340 0.280970
O O8 0.641944 0.104529 0.391477
O O9 0.664221 0.000000 0.500000
O O10 0.418606 0.241431 0.111401
O O11 0.750000 0.250000 0.510285
O O12 0.889900 0.283596 0.391169
O O13 0.000000 0.648645 0.500000
#
# Coordination Sequence:
#
# PCOD9325973 Si02
#       6
#    16  16  16   8  16  16
#     4  11  24  41  64  98 131 175 222 280 346 404
#     4  10  22  39  67  99 136 170 224 274 344 409
#     4  11  23  43  67  93 130 178 232 283 327 395
#     4  10  17  30  58  98 135 166 212 273 336 404
#     4  11  18  32  60  94 136 172 214 275 346 410
#     4  10  19  37  59  96 131 172 219 277 341 405
#
# _framework density 23.536214999999999
#
# number of rings (size 3 to 8) (size 9 to 14) (size 15 to 20)
#    0.000    1.455    5.455    1.364    2.545    6.545 
#    0.000    6.364    0.000    1.091    0.000    0.000 
#    0.000    0.000    0.000    0.000    0.000    0.000 
#
# Total GULP energy -122528.173272 kJ/mol
# GULP energy per Si atom -5569.462421 kJ/mol
# Density = 2.348265 g / cm^3
# Si number density = 23.536215 Si / 1000 Ang^3
#
#
#
# Elastic Constant Matrix: (Units=GPa)
#
#
# Indices 1 2 3 4 5 6 
#
# 1 156.2459 52.6417 12.5630 0.0000 0.0000 0.0000
# 2 52.6417 75.9710 26.0445 0.0000 0.0000 0.0000
# 3 12.5630 26.0445 22.0573 0.0000 0.0000 0.0000
# 4 0.0000 0.0000 0.0000 9.1228 0.0000 0.0000
# 5 0.0000 0.0000 0.0000 0.0000 13.1756 0.0000
# 6 0.0000 0.0000 0.0000 0.0000 0.0000 5.9695
#
#
#
# Elastic Compliance Matrix: (Units=1/GPa)
#
#
# Indices 1 2 3 4 5 6 
#
# 1 0.008512 -0.007117 0.003555 0.000000 0.000000 0.000000
# 2 -0.007117 0.028065 -0.029085 0.000000 0.000000 0.000000
# 3 0.003555 -0.029085 0.077654 0.000000 0.000000 0.000000
# 4 0.000000 0.000000 0.000000 0.109615 0.000000 0.000000
# 5 0.000000 0.000000 0.000000 0.000000 0.075898 0.000000
# 6 0.000000 0.000000 0.000000 0.000000 0.000000 0.167517
#
#
# Mechanical properties :
#
#
# Convention : Reuss Voigt Hill
#
# Bulk Modulus (GPa) = 20.43395 48.53028 34.48212
# Shear Modulus (GPa) = 9.10967 16.52194 12.81580
#
# Velocity S-wave (km/s) = 1.96949 2.65236 2.33601
# Velocity P-wave (km/s) = 3.72460 5.48126 4.68598
#
# Compressibility (1/GPa) = 0.04893816
#
# Stress axis : x y z
#
# Youngs Moduli (GPa) = 117.47913 35.63095 12.87762
#
# Poissons Ratio (x) = 0.25359 -0.04579
# Poissons Ratio (y) = 0.83611 0.37455
# Poissons Ratio (z) = -0.41769 1.03633
#
# Static dielectric constant tensor:
#      x y z
#    x 2.044900 0.000000 0.000000 
#    y 0.000000 1.848680 0.000000 
#    z 0.000000 0.000000 1.949640 
# 
# From -- ./inp_files/19941.got.cif
#   From: 2010.05.17/outbox.cif.g08.bks.cpg/sg22_10_cif.got.tgz:19941.got - 2010.06.03 23:40:54.
