data_PCOD9325565
_publ_section_title
;
Structure prediction by ZEFSAII (Michael W. Deem and Ramdas Pophale) SiO2 
 PCOD9325565
Probable space group: C 2 2 2
;
_chemical_formula_sum "Si O2"
_cell_formula_units_Z 38
_cell_length_a 22.148251
_cell_length_b 6.720533
_cell_length_c 11.653537
_cell_angle_alpha 90.000000
_cell_angle_beta 90.000000
_cell_angle_gamma 90.000000
_cell_volume 1734.606278
_symmetry_space_group_name_H-M "C 2 2 2"
_symmetry_group_IT_number 21
_symmetry_cell_setting 'orthorhombic'
loop_
_space_group_symop_operation_xyz
x,y,z
-x,-y,z
x,-y,-z
-x,y,-z
1/2+x,1/2+y,z
1/2-x,1/2-y,z
1/2+x,1/2-y,-z
1/2-x,1/2+y,-z
loop_
_atom_site_type_symbol
_atom_site_label
_atom_site_fract_x
_atom_site_fract_y
_atom_site_fract_z
Si Si1 0.564149 0.388574 0.103109
Si Si2 0.313125 0.137338 0.217799
Si Si3 0.391521 0.000000 0.000000
Si Si4 0.000000 0.000000 0.500000
Si Si5 0.107525 0.036202 0.343796
Si Si6 0.685729 0.829131 0.584975
O O1 0.500000 0.500000 0.109506
O O2 0.590660 0.422576 0.226671
O O3 0.599177 0.500000 0.000000
O O4 0.566933 0.162461 0.063331
O O5 0.250000 0.250000 0.195728
O O6 0.351967 0.282441 0.300317
O O7 0.304342 0.935125 0.291555
O O8 0.349374 0.091113 0.100837
O O9 0.047347 0.103272 0.412378
O O10 0.143004 0.861288 0.409346
O O11 0.750000 0.750000 0.540937
O O12 0.662885 0.000000 0.500000
#
# Coordination Sequence:
#
# PCOD9325565 Si02
#       6
#     8   8   4   2   8   8
#     4  11  24  46  74 106 145 200 252 308 383 461
#     4  12  26  46  76 115 153 201 247 317 395 465
#     4  12  26  45  78 116 156 199 262 314 392 474
#     4  12  28  48  72 104 140 194 252 324 358 448
#     4  12  25  49  75 104 154 192 252 319 385 448
#     4  12  26  45  74 108 145 197 254 314 384 466
#
# _framework density 21.906988999999999
#
# number of rings (size 3 to 8) (size 9 to 14) (size 15 to 20)
#    0.000    0.211    7.368    1.895    1.474    4.211 
#    0.000    6.842    0.000    0.000    0.000    0.000 
#    0.000    0.000    0.000    0.000    0.000    0.000 
#
# Total GULP energy -106127.856403 kJ/mol
# GULP energy per Si atom -5585.676653 kJ/mol
# Density = 2.185713 g / cm^3
# Si number density = 21.906989 Si / 1000 Ang^3
#
#
#
# Elastic Constant Matrix: (Units=GPa)
#
#
# Indices 1 2 3 4 5 6 
#
# 1 125.1040 65.2584 47.2620 0.0000 0.0000 0.0000
# 2 65.2584 138.8606 54.5955 0.0000 0.0000 0.0000
# 3 47.2620 54.5955 121.4726 0.0000 0.0000 0.0000
# 4 0.0000 0.0000 0.0000 56.6824 0.0000 0.0000
# 5 0.0000 0.0000 0.0000 0.0000 13.4728 0.0000
# 6 0.0000 0.0000 0.0000 0.0000 0.0000 26.2886
#
#
#
# Elastic Compliance Matrix: (Units=1/GPa)
#
#
# Indices 1 2 3 4 5 6 
#
# 1 0.011140 -0.004289 -0.002407 0.000000 0.000000 0.000000
# 2 -0.004289 0.010399 -0.003005 0.000000 0.000000 0.000000
# 3 -0.002407 -0.003005 0.010519 0.000000 0.000000 0.000000
# 4 0.000000 0.000000 0.000000 0.017642 0.000000 0.000000
# 5 0.000000 0.000000 0.000000 0.000000 0.074224 0.000000
# 6 0.000000 0.000000 0.000000 0.000000 0.000000 0.038039
#
#
# Mechanical properties :
#
#
# Convention : Reuss Voigt Hill
#
# Bulk Modulus (GPa) = 79.00970 79.96323 79.48646
# Shear Modulus (GPa) = 26.94220 33.84351 30.39285
#
# Velocity S-wave (km/s) = 3.51072 3.93475 3.72877
# Velocity P-wave (km/s) = 7.25106 7.56462 7.40950
#
# Compressibility (1/GPa) = 0.01265667
#
# Stress axis : x y z
#
# Youngs Moduli (GPa) = 89.76826 96.16742 95.06483
#
# Poissons Ratio (x) = 0.41247 0.22878
# Poissons Ratio (y) = 0.38502 0.28565
# Poissons Ratio (z) = 0.21603 0.28897
#
# Static dielectric constant tensor:
#      x y z
#    x 1.781930 0.000000 0.000000 
#    y 0.000000 1.912090 0.000000 
#    z 0.000000 0.000000 1.924140 
# 
# From -- ./inp_files/27650.got.cif
#   From: 2010.05.17/outbox.cif.g08.bks.cpg/sg21_14_cif.got.tgz:27650.got - 2010.06.03 23:14:55.
