data_PCOD9325921
_publ_section_title
;
Structure prediction by ZEFSAII (Michael W. Deem and Ramdas Pophale) SiO2 
 PCOD9325921
Probable space group: F 2 2 2
;
_chemical_formula_sum "Si O2"
_cell_formula_units_Z 88
_cell_length_a 14.851256
_cell_length_b 10.303983
_cell_length_c 27.149041
_cell_angle_alpha 90.000000
_cell_angle_beta 90.000000
_cell_angle_gamma 90.000000
_cell_volume 4154.538723
_symmetry_space_group_name_H-M "F 2 2 2"
_symmetry_group_IT_number 22
_symmetry_cell_setting 'orthorhombic'
loop_
_space_group_symop_operation_xyz
x,y,z
-x,-y,z
x,-y,-z
-x,y,-z
x,1/2+y,1/2+z
-x,1/2-y,1/2+z
x,1/2-y,1/2-z
-x,1/2+y,1/2-z
1/2+x,y,1/2+z
1/2-x,-y,1/2+z
1/2+x,-y,1/2-z
1/2-x,y,1/2-z
1/2+x,1/2+y,z
1/2-x,1/2-y,z
1/2+x,1/2-y,-z
1/2-x,1/2+y,-z
loop_
_atom_site_type_symbol
_atom_site_label
_atom_site_fract_x
_atom_site_fract_y
_atom_site_fract_z
Si Si1 0.592409 0.198401 0.305003
Si Si2 0.955532 0.634502 0.383997
Si Si3 0.597879 0.465485 0.356704
Si Si4 0.250000 0.250000 0.933476
Si Si5 0.285578 0.994024 0.359692
Si Si6 0.941787 0.339078 0.047787
O O1 0.587648 0.250000 0.250000
O O2 0.497742 0.159308 0.329769
O O3 0.622387 0.322714 0.336944
O O4 0.661084 0.080834 0.315851
O O5 0.850647 0.605073 0.380368
O O6 0.000000 0.500000 0.401820
O O7 0.995398 0.746030 0.418339
O O8 0.500000 0.500000 0.335443
O O9 0.686955 0.545717 0.345422
O O10 0.585346 0.455883 0.415506
O O11 0.271880 0.378626 0.900363
O O12 0.156599 0.275768 0.962466
O O13 0.000000 0.364510 0.000000
#
# Coordination Sequence:
#
# PCOD9325921 Si02
#       6
#    16  16  16   8  16  16
#     4  10  19  34  58  86 113 143 187 235 278 341
#     4   9  17  34  57  83 112 141 181 239 282 328
#     4  10  21  37  55  77 114 152 190 232 285 339
#     4  10  16  36  57  78 110 146 187 232 274 334
#     4  10  17  36  59  79 110 152 183 232 283 331
#     4  10  20  36  56  79 113 146 188 240 284 337
#
# _framework density 21.181654000000002
#
# number of rings (size 3 to 8) (size 9 to 14) (size 15 to 20)
#    0.000    2.182    7.273    0.000    0.000    4.364 
#    3.273    2.727    0.000    1.091    0.000    0.000 
#    0.000    0.000    0.000    0.000    0.000    0.000 
#
# Total GULP energy -122548.902211 kJ/mol
# GULP energy per Si atom -5570.404646 kJ/mol
# Density = 2.113344 g / cm^3
# Si number density = 21.181654 Si / 1000 Ang^3
#
#
#
# Elastic Constant Matrix: (Units=GPa)
#
#
# Indices 1 2 3 4 5 6 
#
# 1 208.6662 35.2997 32.3201 0.0000 0.0000 0.0000
# 2 35.2997 44.8735 16.0669 0.0000 0.0000 0.0000
# 3 32.3201 16.0669 103.2177 0.0000 0.0000 0.0000
# 4 0.0000 0.0000 0.0000 14.5322 0.0000 0.0000
# 5 0.0000 0.0000 0.0000 0.0000 9.7893 0.0000
# 6 0.0000 0.0000 0.0000 0.0000 0.0000 35.0646
#
#
#
# Elastic Compliance Matrix: (Units=1/GPa)
#
#
# Indices 1 2 3 4 5 6 
#
# 1 0.005652 -0.004038 -0.001141 0.000000 0.000000 0.000000
# 2 -0.004038 0.026484 -0.002858 0.000000 0.000000 0.000000
# 3 -0.001141 -0.002858 0.010491 0.000000 0.000000 0.000000
# 4 0.000000 0.000000 0.000000 0.068813 0.000000 0.000000
# 5 0.000000 0.000000 0.000000 0.000000 0.102152 0.000000
# 6 0.000000 0.000000 0.000000 0.000000 0.000000 0.028519
#
#
# Mechanical properties :
#
#
# Convention : Reuss Voigt Hill
#
# Bulk Modulus (GPa) = 37.66096 58.23673 47.94885
# Shear Modulus (GPa) = 18.72403 30.08193 24.40298
#
# Velocity S-wave (km/s) = 2.97640 3.77263 3.39791
# Velocity P-wave (km/s) = 5.44339 6.82133 6.17094
#
# Compressibility (1/GPa) = 0.02655270
#
# Stress axis : x y z
#
# Youngs Moduli (GPa) = 176.92352 37.75798 95.32371
#
# Poissons Ratio (x) = 0.15245 0.10880
# Poissons Ratio (y) = 0.71435 0.27246
# Poissons Ratio (z) = 0.20193 0.10792
#
# Static dielectric constant tensor:
#      x y z
#    x 1.888920 0.000000 0.000000 
#    y 0.000000 1.837380 0.000000 
#    z 0.000000 0.000000 1.777890 
# 
# From -- ./inp_files/33037.got.cif
#   From: 2010.05.17/outbox.cif.g08.bks.cpg/sg22_17_cif.got.tgz:33037.got - 2010.06.03 23:40:54.
