data_PCOD9325849
_publ_section_title
;
Structure prediction by ZEFSAII (Michael W. Deem and Ramdas Pophale) SiO2 
 PCOD9325849
Probable space group: C 2 2 2
;
_chemical_formula_sum "Si O2"
_cell_formula_units_Z 24
_cell_length_a 18.000000
_cell_length_b 15.000000
_cell_length_c 9.000000
_cell_angle_alpha 90.000000
_cell_angle_beta 90.000000
_cell_angle_gamma 90.000000
_cell_volume 2430.000000
_symmetry_space_group_name_H-M "C 2 2 2"
_symmetry_group_IT_number 21
_symmetry_cell_setting 'orthorhombic'
loop_
_space_group_symop_operation_xyz
x,y,z
-x,-y,z
x,-y,-z
-x,y,-z
1/2+x,1/2+y,z
1/2-x,1/2-y,z
1/2+x,1/2-y,-z
1/2-x,1/2+y,-z
loop_
_atom_site_type_symbol
_atom_site_label
_atom_site_fract_x
_atom_site_fract_y
_atom_site_fract_z
Si Si1 0.825276 0.623441 0.154750
Si Si2 0.856011 0.836538 0.627483
Si Si3 0.500000 0.750298 0.500000
Si Si4 0.250000 0.250000 0.385646
Si Si5 0.647211 0.171028 0.171664
Si Si6 0.255461 0.969015 0.333141
Si Si7 0.487419 0.101031 0.256885
O O1 0.804745 0.697247 0.276530
O O2 0.774724 0.541642 0.208996
O O3 0.911465 0.595442 0.165371
O O4 0.815746 0.656389 0.987514
O O5 0.936340 0.812443 0.565190
O O6 0.799586 0.810049 0.494563
O O7 0.847828 0.771449 0.768978
O O8 0.829212 0.934798 0.670319
O O9 0.526952 0.821132 0.376556
O O10 0.691184 0.113101 0.292761
O O11 0.562298 0.134779 0.175281
O O12 0.273768 0.000000 0.500000
O O13 0.500000 0.000000 0.315294
#
# Coordination Sequence:
#
# PCOD9325849 Si02
#       7
#     8   8   4   4   8   8   8
#     4  12  25  39  61  94 131 169 209 263 326 387
#     4  11  22  43  62  89 125 171 217 264 312 382
#     4  10  23  40  63  88 122 172 220 260 319 385
#     4  12  22  40  64  86 130 164 216 258 318 392
#     4  11  24  39  61  92 133 168 206 256 326 391
#     4  12  23  39  62  89 127 162 212 265 310 375
#     4  11  22  35  60  92 131 166 209 254 324 400
#
# _framework density 9.8765429999999999
#
# number of rings (size 3 to 8) (size 9 to 14) (size 15 to 20)
#    0.000    0.667    6.667    1.250    4.667    0.667 
#    0.000    0.417    0.000    0.000    0.000    0.000 
#    5.000    0.000    0.000    0.000    0.000    0.000 
#
# Total GULP energy -133942.925000 kJ/mol
# GULP energy per Si atom -5580.955208 kJ/mol
# Density = 0.985406 g / cm^3
# Si number density = 9.876543 Si / 1000 Ang^3
#
#
#
# Elastic Constant Matrix: (Units=GPa)
#
#
# Indices 1 2 3 4 5 6 
#
# 1 89.7142 45.0930 50.7099 0.0000 0.0000 0.0000
# 2 45.0930 43.1338 47.0613 0.0000 0.0000 0.0000
# 3 50.7099 47.0613 121.2147 0.0000 0.0000 0.0000
# 4 0.0000 0.0000 0.0000 16.0688 0.0000 0.0000
# 5 0.0000 0.0000 0.0000 0.0000 5.6256 0.0000
# 6 0.0000 0.0000 0.0000 0.0000 0.0000 34.7576
#
#
#
# Elastic Compliance Matrix: (Units=1/GPa)
#
#
# Indices 1 2 3 4 5 6 
#
# 1 0.023507 -0.024020 -0.000508 0.000000 0.000000 0.000000
# 2 -0.024020 0.064766 -0.015096 0.000000 0.000000 0.000000
# 3 -0.000508 -0.015096 0.014324 0.000000 0.000000 0.000000
# 4 0.000000 0.000000 0.000000 0.062232 0.000000 0.000000
# 5 0.000000 0.000000 0.000000 0.000000 0.177758 0.000000
# 6 0.000000 0.000000 0.000000 0.000000 0.000000 0.028771
#
#
# Mechanical properties :
#
#
# Convention : Reuss Voigt Hill
#
# Bulk Modulus (GPa) = 42.83258 59.97679 51.40468
# Shear Modulus (GPa) = 10.90775 18.70365 14.80570
#
# Velocity S-wave (km/s) = 2.35245 3.08047 2.74074
# Velocity P-wave (km/s) = 5.39535 6.56365 6.00797
#
# Compressibility (1/GPa) = 0.02334672
#
# Stress axis : x y z
#
# Youngs Moduli (GPa) = 42.54044 15.44025 69.81461
#
# Poissons Ratio (x) = 0.37088 0.03549
# Poissons Ratio (y) = 1.02182 1.05395
# Poissons Ratio (z) = 0.02163 0.23309
#
# Static dielectric constant tensor:
#      x y z
#    x 1.710570 0.000000 0.000000 
#    y 0.000000 1.741390 0.000000 
#    z 0.000000 0.000000 1.695090 
# 
# From -- ./inp_files/16453.got.cif
#   From: 2010.05.17/outbox.ucp.g08.bks.cvg/sg21_9_cif.got.tgz:16453.got - 2010.06.11 15:15:05.
