data_PCOD9325196
_publ_section_title
;
Structure prediction by ZEFSAII (Michael W. Deem and Ramdas Pophale) SiO2 
 PCOD9325196
Probable space group: C 2 2 2
;
_chemical_formula_sum "Si O2"
_cell_formula_units_Z 40
_cell_length_a 8.983940
_cell_length_b 26.932436
_cell_length_c 9.226604
_cell_angle_alpha 90.000000
_cell_angle_beta 90.000000
_cell_angle_gamma 90.000000
_cell_volume 2232.463467
_symmetry_space_group_name_H-M "C 2 2 2"
_symmetry_group_IT_number 21
_symmetry_cell_setting 'orthorhombic'
loop_
_space_group_symop_operation_xyz
x,y,z
-x,-y,z
x,-y,-z
-x,y,-z
1/2+x,1/2+y,z
1/2-x,1/2-y,z
1/2+x,1/2-y,-z
1/2-x,1/2+y,-z
loop_
_atom_site_type_symbol
_atom_site_label
_atom_site_fract_x
_atom_site_fract_y
_atom_site_fract_z
Si Si1 0.432741 0.949727 0.835417
Si Si2 0.409799 0.230953 0.636902
Si Si3 0.160356 0.102392 0.056681
Si Si4 0.893608 0.786707 0.141113
Si Si5 0.405572 0.857348 0.144443
O O1 0.257858 0.938958 0.858657
O O2 0.501748 0.899532 0.771519
O O3 0.500000 0.000000 0.769857
O O4 0.500000 0.949293 0.000000
O O5 0.500000 0.211391 0.500000
O O6 0.250000 0.250000 0.587819
O O7 0.510883 0.271774 0.718530
O O8 0.381183 0.189549 0.757591
O O9 0.149433 0.154907 0.142582
O O10 0.255437 0.118463 0.915480
O O11 0.000000 0.086053 0.000000
O O12 0.750000 0.750000 0.130438
O O13 0.000000 0.780658 0.000000
O O14 0.500000 0.843317 0.000000
#
# Coordination Sequence:
#
# PCOD9325196 Si02
#       5
#     8   8   8   8   8
#     4   8  15  29  47  69  97 126 157 198 246 292
#     4  12  24  35  48  71 103 136 171 211 253 296
#     4   9  16  26  47  74  98 127 164 203 243 290
#     4  11  19  31  51  75 103 137 172 205 243 298
#     4   9  18  33  52  72  98 132 164 198 245 300
#
# _framework density 17.917427
#
# number of rings (size 3 to 8) (size 9 to 14) (size 15 to 20)
#    0.000    2.600    0.000    7.800    0.000    0.800 
#    0.000    8.000    0.000    0.600    0.000    0.000 
#    0.000    1.600    0.000    0.000    0.000    0.000 
#
# Total GULP energy -111396.798589 kJ/mol
# GULP energy per Si atom -5569.839929 kJ/mol
# Density = 1.787665 g / cm^3
# Si number density = 17.917427 Si / 1000 Ang^3
#
#
#
# Elastic Constant Matrix: (Units=GPa)
#
#
# Indices 1 2 3 4 5 6 
#
# 1 137.4148 25.8577 9.7387 0.0000 0.0000 0.0000
# 2 25.8577 71.2517 -7.6170 0.0000 0.0000 0.0000
# 3 9.7387 -7.6170 27.7192 0.0000 0.0000 0.0000
# 4 0.0000 0.0000 0.0000 -2.6377 0.0000 0.0000
# 5 0.0000 0.0000 0.0000 0.0000 17.0565 0.0000
# 6 0.0000 0.0000 0.0000 0.0000 0.0000 20.2806
#
#
#
# Elastic Compliance Matrix: (Units=1/GPa)
#
#
# Indices 1 2 3 4 5 6 
#
# 1 0.008182 -0.003376 -0.003802 0.000000 0.000000 0.000000
# 2 -0.003376 0.015852 0.005542 0.000000 0.000000 0.000000
# 3 -0.003802 0.005542 0.038935 0.000000 0.000000 0.000000
# 4 0.000000 0.000000 0.000000 -0.379119 0.000000 0.000000
# 5 0.000000 0.000000 0.000000 0.000000 0.058629 0.000000
# 6 0.000000 0.000000 0.000000 0.000000 0.000000 0.049308
#
#
# Mechanical properties :
#
#
# Convention : Reuss Voigt Hill
#
# Bulk Modulus (GPa) = 16.75118 32.48272 24.61695
# Shear Modulus (GPa) = -27.02095 20.83362 -3.09366
#
# Velocity S-wave (km/s) = -3.88762 3.41362 -1.31544
# Velocity P-wave (km/s) = 3.28360 5.80565 3.38552
#
# Compressibility (1/GPa) = 0.05969728
#
# Stress axis : x y z
#
# Youngs Moduli (GPa) = 122.22064 63.08236 25.68396
#
# Poissons Ratio (x) = 0.21295 0.09766
# Poissons Ratio (y) = 0.41258 -0.14234
# Poissons Ratio (z) = 0.46471 -0.34961
#
# Static dielectric constant tensor:
#      x y z
#    x 1.676690 0.000000 0.000000 
#    y 0.000000 1.708780 0.000000 
#    z 0.000000 0.000000 1.596780 
# 
# From -- ./inp_files/11189.got.cif
#   From: 2010.05.17/outbox.cif.g08.bks.cpg/sg21_6_cif.got.tgz:11189.got - 2010.06.03 23:14:55.
