data_PCOD9325830
_publ_section_title
;
Structure prediction by ZEFSAII (Michael W. Deem and Ramdas Pophale) SiO2 
 PCOD9325830
Probable space group: C 2 2 2
;
_chemical_formula_sum "Si O2"
_cell_formula_units_Z 24
_cell_length_a 9.000000
_cell_length_b 18.000000
_cell_length_c 15.000000
_cell_angle_alpha 90.000000
_cell_angle_beta 90.000000
_cell_angle_gamma 90.000000
_cell_volume 2430.000000
_symmetry_space_group_name_H-M "C 2 2 2"
_symmetry_group_IT_number 21
_symmetry_cell_setting 'orthorhombic'
loop_
_space_group_symop_operation_xyz
x,y,z
-x,-y,z
x,-y,-z
-x,y,-z
1/2+x,1/2+y,z
1/2-x,1/2-y,z
1/2+x,1/2-y,-z
1/2-x,1/2+y,-z
loop_
_atom_site_type_symbol
_atom_site_label
_atom_site_fract_x
_atom_site_fract_y
_atom_site_fract_z
Si Si1 0.823389 0.520250 0.196752
Si Si2 0.250000 0.750000 0.665581
Si Si3 0.500000 0.500000 0.500000
Si Si4 0.222284 0.139665 0.857060
Si Si5 0.996637 0.259124 0.816037
Si Si6 0.749664 0.584443 0.389952
Si Si7 0.500000 0.000000 0.500000
Si Si8 0.650998 0.139834 0.953889
O O1 0.738324 0.445081 0.171162
O O2 0.767285 0.554928 0.289028
O O3 0.800418 0.580977 0.119638
O O4 0.000000 0.500000 0.202544
O O5 0.392373 0.759571 0.730430
O O6 0.259972 0.673598 0.611187
O O7 0.606569 0.549745 0.438149
O O8 0.071837 0.179418 0.827994
O O9 0.364214 0.183370 0.814313
O O10 0.239839 0.150104 0.963538
O O11 0.901356 0.286931 0.900798
O O12 0.893408 0.552297 0.441238
O O13 0.500000 0.109246 0.000000
#
# Coordination Sequence:
#
# PCOD9325830 Si02
#       8
#     8   4   2   8   8   8   2   8
#     4  12  19  37  68  98 128 181 230 275 315 400
#     4  12  24  44  70 102 130 174 214 278 330 414
#     4  10  28  52  72 106 130 168 192 294 360 420
#     4  10  22  36  61  95 137 183 232 276 312 374
#     4  10  22  38  56  97 128 179 227 272 327 372
#     4  11  25  46  74  99 135 162 217 266 350 406
#     4  10  24  48  76 102 114 172 212 258 324 440
#     4  10  19  34  58  93 133 181 234 274 316 367
#
# _framework density 9.8765429999999999
#
# number of rings (size 3 to 8) (size 9 to 14) (size 15 to 20)
#    0.000    1.333    5.833    0.500    2.333    4.667 
#    0.000    0.000    0.000    0.000    0.000    0.000 
#    0.000    0.000    0.000    0.000    0.000    0.000 
#
# Total GULP energy -134207.773763 kJ/mol
# GULP energy per Si atom -5591.990573 kJ/mol
# Density = 0.985406 g / cm^3
# Si number density = 9.876543 Si / 1000 Ang^3
#
#
#
# Elastic Constant Matrix: (Units=GPa)
#
#
# Indices 1 2 3 4 5 6 
#
# 1 83.3088 70.1417 46.0114 0.0000 0.0000 0.0000
# 2 70.1417 157.2244 64.2449 0.0000 0.0000 0.0000
# 3 46.0114 64.2449 93.2910 0.0000 0.0000 0.0000
# 4 0.0000 0.0000 0.0000 33.9603 0.0000 0.0000
# 5 0.0000 0.0000 0.0000 0.0000 14.8652 0.0000
# 6 0.0000 0.0000 0.0000 0.0000 0.0000 27.0227
#
#
#
# Elastic Compliance Matrix: (Units=1/GPa)
#
#
# Indices 1 2 3 4 5 6 
#
# 1 0.021041 -0.007162 -0.005446 0.000000 0.000000 0.000000
# 2 -0.007162 0.011289 -0.004242 0.000000 0.000000 0.000000
# 3 -0.005446 -0.004242 0.016326 0.000000 0.000000 0.000000
# 4 0.000000 0.000000 0.000000 0.029446 0.000000 0.000000
# 5 0.000000 0.000000 0.000000 0.000000 0.067271 0.000000
# 6 0.000000 0.000000 0.000000 0.000000 0.000000 0.037006
#
#
# Mechanical properties :
#
#
# Convention : Reuss Voigt Hill
#
# Bulk Modulus (GPa) = 66.85590 77.18002 72.01796
# Shear Modulus (GPa) = 22.61806 25.39807 24.00807
#
# Velocity S-wave (km/s) = 3.38751 3.58966 3.49005
# Velocity P-wave (km/s) = 7.01567 7.50587 7.26491
#
# Compressibility (1/GPa) = 0.01495754
#
# Stress axis : x y z
#
# Youngs Moduli (GPa) = 47.52658 88.58499 61.25217
#
# Poissons Ratio (x) = 0.63442 0.33355
# Poissons Ratio (y) = 0.34037 0.25981
# Poissons Ratio (z) = 0.25881 0.37575
#
# Static dielectric constant tensor:
#      x y z
#    x 1.701480 0.000000 0.000000 
#    y 0.000000 1.706110 0.000000 
#    z 0.000000 0.000000 1.669210 
# 
# From -- ./inp_files/30574.got.cif
#   From: 2010.05.17/outbox.ucp.g08.bks.cvg/sg21_16_cif.got.tgz:30574.got - 2010.06.11 15:15:05.
