data_PCOD9325327
_publ_section_title
;
Structure prediction by ZEFSAII (Michael W. Deem and Ramdas Pophale) SiO2 
 PCOD9325327
Probable space group: C 2 2 2
;
_chemical_formula_sum "Si O2"
_cell_formula_units_Z 56
_cell_length_a 8.708085
_cell_length_b 20.717399
_cell_length_c 15.177770
_cell_angle_alpha 90.000000
_cell_angle_beta 90.000000
_cell_angle_gamma 90.000000
_cell_volume 2738.204357
_symmetry_space_group_name_H-M "C 2 2 2"
_symmetry_group_IT_number 21
_symmetry_cell_setting 'orthorhombic'
loop_
_space_group_symop_operation_xyz
x,y,z
-x,-y,z
x,-y,-z
-x,y,-z
1/2+x,1/2+y,z
1/2-x,1/2-y,z
1/2+x,1/2-y,-z
1/2-x,1/2+y,-z
loop_
_atom_site_type_symbol
_atom_site_label
_atom_site_fract_x
_atom_site_fract_y
_atom_site_fract_z
Si Si1 0.015990 0.109236 0.099123
Si Si2 0.749775 0.000113 0.099824
Si Si3 0.136781 0.189367 0.752142
Si Si4 0.853985 0.434837 0.270347
Si Si5 0.165467 0.022868 0.400113
Si Si6 0.575927 0.890095 0.408122
Si Si7 0.435004 0.258519 0.407799
O O1 0.969894 0.163904 0.168180
O O2 0.175105 0.070565 0.117357
O O3 0.110099 0.051782 0.899786
O O4 0.000000 0.135452 0.000000
O O5 0.646523 0.029833 0.176585
O O6 0.687323 0.000000 0.000000
O O7 0.250000 0.250000 0.770713
O O8 0.248172 0.128901 0.733144
O O9 0.023496 0.206688 0.671513
O O10 0.777344 0.481695 0.340829
O O11 0.012261 0.416933 0.316130
O O12 0.241270 0.094315 0.405488
O O13 0.168106 0.000000 0.500000
O O14 0.000000 0.000000 0.364932
O O15 0.500000 0.917142 0.500000
O O16 0.519403 0.816790 0.406273
O O17 0.500000 0.286022 0.500000
O O18 0.250000 0.250000 0.403978
#
# Coordination Sequence:
#
# PCOD9325327 Si02
#       7
#     8   8   8   8   8   8   8
#     4   8  16  33  61  92 128 164 206 262 314 377
#     4   8  16  33  59  97 128 159 206 256 319 384
#     4  11  22  40  60  93 126 164 219 257 317 387
#     4  11  22  36  66  93 126 168 200 260 324 382
#     4  11  25  39  59  91 121 158 209 257 312 385
#     4  11  23  43  60  87 132 169 204 263 338 375
#     4  11  26  42  63  85 124 176 225 273 314 382
#
# _framework density 20.451357000000002
#
# number of rings (size 3 to 8) (size 9 to 14) (size 15 to 20)
#    0.000    1.857    2.857    1.714    8.000    0.000 
#    0.000    0.714    0.000    3.429    0.000    0.000 
#    0.000    0.000    0.000    0.000    0.000    0.000 
#
# Total GULP energy -155993.424163 kJ/mol
# GULP energy per Si atom -5571.193720 kJ/mol
# Density = 2.040481 g / cm^3
# Si number density = 20.451357 Si / 1000 Ang^3
#
#
#
# Elastic Constant Matrix: (Units=GPa)
#
#
# Indices 1 2 3 4 5 6 
#
# 1 90.7701 29.5846 52.6251 0.0000 0.0000 0.0000
# 2 29.5846 83.7468 65.8093 0.0000 0.0000 0.0000
# 3 52.6251 65.8093 159.7433 0.0000 0.0000 0.0000
# 4 0.0000 0.0000 0.0000 33.0522 0.0000 0.0000
# 5 0.0000 0.0000 0.0000 0.0000 39.7720 0.0000
# 6 0.0000 0.0000 0.0000 0.0000 0.0000 21.5998
#
#
#
# Elastic Compliance Matrix: (Units=1/GPa)
#
#
# Indices 1 2 3 4 5 6 
#
# 1 0.013825 -0.001930 -0.003760 0.000000 0.000000 0.000000
# 2 -0.001930 0.017926 -0.006749 0.000000 0.000000 0.000000
# 3 -0.003760 -0.006749 0.010279 0.000000 0.000000 0.000000
# 4 0.000000 0.000000 0.000000 0.030255 0.000000 0.000000
# 5 0.000000 0.000000 0.000000 0.000000 0.025143 0.000000
# 6 0.000000 0.000000 0.000000 0.000000 0.000000 0.046297
#
#
# Mechanical properties :
#
#
# Convention : Reuss Voigt Hill
#
# Bulk Modulus (GPa) = 58.29715 70.03314 64.16514
# Shear Modulus (GPa) = 28.68270 31.30086 29.99178
#
# Velocity S-wave (km/s) = 3.74904 3.91641 3.83364
# Velocity P-wave (km/s) = 6.87805 7.40062 7.14411
#
# Compressibility (1/GPa) = 0.01715350
#
# Stress axis : x y z
#
# Youngs Moduli (GPa) = 72.33022 55.78453 97.28464
#
# Poissons Ratio (x) = 0.10764 0.36576
# Poissons Ratio (y) = 0.13957 0.65660
# Poissons Ratio (z) = 0.27194 0.37651
#
# Static dielectric constant tensor:
#      x y z
#    x 1.803620 0.000000 0.000000 
#    y 0.000000 1.767460 0.000000 
#    z 0.000000 0.000000 1.744350 
# 
# From -- ./inp_files/30758.got.cif
#   From: 2010.05.17/outbox.cif.g08.bks.cpg/sg21_16_cif.got.tgz:30758.got - 2010.06.03 23:14:55.
