data_PCOD9325895
_publ_section_title
;
Structure prediction by ZEFSAII (Michael W. Deem and Ramdas Pophale) SiO2 
 PCOD9325895
Probable space group: F 2 2 2
;
_chemical_formula_sum "Si O2"
_cell_formula_units_Z 88
_cell_length_a 16.349666
_cell_length_b 13.760974
_cell_length_c 21.091076
_cell_angle_alpha 90.000000
_cell_angle_beta 90.000000
_cell_angle_gamma 90.000000
_cell_volume 4745.224849
_symmetry_space_group_name_H-M "F 2 2 2"
_symmetry_group_IT_number 22
_symmetry_cell_setting 'orthorhombic'
loop_
_space_group_symop_operation_xyz
x,y,z
-x,-y,z
x,-y,-z
-x,y,-z
x,1/2+y,1/2+z
-x,1/2-y,1/2+z
x,1/2-y,1/2-z
-x,1/2+y,1/2-z
1/2+x,y,1/2+z
1/2-x,-y,1/2+z
1/2+x,-y,1/2-z
1/2-x,y,1/2-z
1/2+x,1/2+y,z
1/2-x,1/2-y,z
1/2+x,1/2-y,-z
1/2-x,1/2+y,-z
loop_
_atom_site_type_symbol
_atom_site_label
_atom_site_fract_x
_atom_site_fract_y
_atom_site_fract_z
Si Si1 0.828972 0.500000 0.500000
Si Si2 0.347530 0.361167 0.755133
Si Si3 0.096372 0.497720 0.859623
Si Si4 0.659112 0.339151 0.439820
Si Si5 0.150151 0.363869 0.603147
Si Si6 0.209889 0.850977 0.578116
O O1 0.879705 0.566782 0.547615
O O2 0.773925 0.429889 0.546661
O O3 0.379808 0.250000 0.750000
O O4 0.250000 0.353341 0.750000
O O5 0.372896 0.433761 0.699719
O O6 0.365678 0.398276 0.826041
O O7 0.112171 0.435747 0.923164
O O8 0.150557 0.594267 0.872303
O O9 0.000000 0.500000 0.851266
O O10 0.751551 0.355277 0.412331
O O11 0.621502 0.246489 0.405000
O O12 0.662466 0.319318 0.514134
O O13 0.250000 0.750000 0.602229
#
# Coordination Sequence:
#
# PCOD9325895 Si02
#       6
#     8  16  16  16  16  16
#     4  10  16  30  57  88 111 144 200 254 308 354
#     4  11  18  34  65  87 108 152 217 266 292 357
#     4  12  24  36  57  93 132 167 202 258 335 384
#     4  10  16  32  57  92 114 149 200 254 313 354
#     4  10  16  29  58  89 109 135 202 268 289 333
#     4  11  19  33  58  90 132 158 198 255 315 380
#
# _framework density 18.544958000000001
#
# number of rings (size 3 to 8) (size 9 to 14) (size 15 to 20)
#    0.000    1.273   10.909    1.091    0.000    1.455 
#    0.000    0.000    8.000    1.091    0.000    1.273 
#    0.000    0.000    0.000    0.000    0.000    0.000 
#
# Total GULP energy -122472.952830 kJ/mol
# GULP energy per Si atom -5566.952401 kJ/mol
# Density = 1.850275 g / cm^3
# Si number density = 18.544958 Si / 1000 Ang^3
#
#
#
# Elastic Constant Matrix: (Units=GPa)
#
#
# Indices 1 2 3 4 5 6 
#
# 1 46.9636 38.4271 20.7069 0.0000 0.0000 0.0000
# 2 38.4271 117.9148 40.4688 0.0000 0.0000 0.0000
# 3 20.7069 40.4688 107.6944 0.0000 0.0000 0.0000
# 4 0.0000 0.0000 0.0000 28.6382 0.0000 0.0000
# 5 0.0000 0.0000 0.0000 0.0000 4.9412 0.0000
# 6 0.0000 0.0000 0.0000 0.0000 0.0000 2.8256
#
#
#
# Elastic Compliance Matrix: (Units=1/GPa)
#
#
# Indices 1 2 3 4 5 6 
#
# 1 0.029553 -0.008818 -0.002369 0.000000 0.000000 0.000000
# 2 -0.008818 0.012367 -0.002952 0.000000 0.000000 0.000000
# 3 -0.002369 -0.002952 0.010850 0.000000 0.000000 0.000000
# 4 0.000000 0.000000 0.000000 0.034918 0.000000 0.000000
# 5 0.000000 0.000000 0.000000 0.000000 0.202378 0.000000
# 6 0.000000 0.000000 0.000000 0.000000 0.000000 0.353905
#
#
# Mechanical properties :
#
#
# Convention : Reuss Voigt Hill
#
# Bulk Modulus (GPa) = 40.82756 52.41980 46.62368
# Shear Modulus (GPa) = 7.34847 18.81234 13.08041
#
# Velocity S-wave (km/s) = 1.99277 3.18845 2.65870
# Velocity P-wave (km/s) = 5.23049 6.47168 5.88391
#
# Compressibility (1/GPa) = 0.02449326
#
# Stress axis : x y z
#
# Youngs Moduli (GPa) = 33.83808 80.85732 92.16400
#
# Poissons Ratio (x) = 0.71299 0.21830
# Poissons Ratio (y) = 0.29838 0.27206
# Poissons Ratio (z) = 0.08015 0.23868
#
# Static dielectric constant tensor:
#      x y z
#    x 1.677480 0.000000 0.000000 
#    y 0.000000 1.714760 0.000000 
#    z 0.000000 0.000000 1.652060 
# 
# From -- ./inp_files/44204.got.cif
#   From: 2010.05.17/outbox.cif.g08.bks.cpg/sg22_23_cif.got.tgz:44204.got - 2010.06.03 23:40:54.
