data_PCOD9325970
_publ_section_title
;
Structure prediction by ZEFSAII (Michael W. Deem and Ramdas Pophale) SiO2 
 PCOD9325970
Probable space group: F 2 2 2
;
_chemical_formula_sum "Si O2"
_cell_formula_units_Z 64
_cell_length_a 13.901035
_cell_length_b 12.342118
_cell_length_c 15.177845
_cell_angle_alpha 90.000000
_cell_angle_beta 90.000000
_cell_angle_gamma 90.000000
_cell_volume 2604.035763
_symmetry_space_group_name_H-M "F 2 2 2"
_symmetry_group_IT_number 22
_symmetry_cell_setting 'orthorhombic'
loop_
_space_group_symop_operation_xyz
x,y,z
-x,-y,z
x,-y,-z
-x,y,-z
x,1/2+y,1/2+z
-x,1/2-y,1/2+z
x,1/2-y,1/2-z
-x,1/2+y,1/2-z
1/2+x,y,1/2+z
1/2-x,-y,1/2+z
1/2+x,-y,1/2-z
1/2-x,y,1/2-z
1/2+x,1/2+y,z
1/2-x,1/2-y,z
1/2+x,1/2-y,-z
1/2-x,1/2+y,-z
loop_
_atom_site_type_symbol
_atom_site_label
_atom_site_fract_x
_atom_site_fract_y
_atom_site_fract_z
Si Si1 0.408101 0.451902 0.403446
Si Si2 0.702043 0.455560 0.834390
Si Si3 0.357348 0.695231 0.164210
Si Si4 0.863685 0.220841 0.962122
O O1 0.500000 0.500000 0.353065
O O2 0.412734 0.500000 0.500000
O O3 0.302677 0.490019 0.377404
O O4 0.410727 0.322921 0.413396
O O5 0.750000 0.395030 0.750000
O O6 0.650760 0.568058 0.814079
O O7 0.638011 0.383790 0.899262
O O8 0.405846 0.750000 0.250000
O O9 0.250000 0.750000 0.160057
O O10 0.396526 0.705893 0.063647
O O11 0.750000 0.250000 0.967345
#
# Coordination Sequence:
#
# PCOD9325970 Si02
#       4
#    16  16  16  16
#     4  10  21  37  60  88 129 177 223 274 357 418
#     4  11  20  34  62  96 132 171 230 294 340 404
#     4  10  17  30  55  94 123 162 219 284 338 393
#     4   9  19  33  56  88 126 164 223 290 337 396
#
# _framework density 24.577235000000002
#
# number of rings (size 3 to 8) (size 9 to 14) (size 15 to 20)
#    0.000    2.000    2.500    5.250    0.000    4.500 
#    0.000    0.000    5.500    0.000    0.000   14.000 
#    0.000    0.000    0.000    0.000    0.000    0.000 
#
# Total GULP energy -89269.197417 kJ/mol
# GULP energy per Si atom -5579.324839 kJ/mol
# Density = 2.452130 g / cm^3
# Si number density = 24.577235 Si / 1000 Ang^3
#
#
#
# Elastic Constant Matrix: (Units=GPa)
#
#
# Indices 1 2 3 4 5 6 
#
# 1 55.8018 33.3853 13.1033 0.0000 0.0000 0.0000
# 2 33.3853 185.5652 67.7302 0.0000 0.0000 0.0000
# 3 13.1033 67.7302 142.6391 0.0000 0.0000 0.0000
# 4 0.0000 0.0000 0.0000 42.3047 0.0000 0.0000
# 5 0.0000 0.0000 0.0000 0.0000 -0.7226 0.0000
# 6 0.0000 0.0000 0.0000 0.0000 0.0000 31.0617
#
#
#
# Elastic Compliance Matrix: (Units=1/GPa)
#
#
# Indices 1 2 3 4 5 6 
#
# 1 0.020085 -0.003556 -0.000156 0.000000 0.000000 0.000000
# 2 -0.003556 0.007148 -0.003068 0.000000 0.000000 0.000000
# 3 -0.000156 -0.003068 0.008482 0.000000 0.000000 0.000000
# 4 0.000000 0.000000 0.000000 0.023638 0.000000 0.000000
# 5 0.000000 0.000000 0.000000 0.000000 -1.383922 0.000000
# 6 0.000000 0.000000 0.000000 0.000000 0.000000 0.032194
#
#
# Mechanical properties :
#
#
# Convention : Reuss Voigt Hill
#
# Bulk Modulus (GPa) = 45.13792 68.04928 56.59360
# Shear Modulus (GPa) = -3.93258 32.51458 14.29100
#
# Velocity S-wave (km/s) = -1.26632 3.64119 2.41399
# Velocity P-wave (km/s) = 4.03330 6.73986 5.55397
#
# Compressibility (1/GPa) = 0.02215432
#
# Stress axis : x y z
#
# Youngs Moduli (GPa) = 49.78822 139.89030 117.90106
#
# Poissons Ratio (x) = 0.49752 0.01843
# Poissons Ratio (y) = 0.17707 0.36168
# Poissons Ratio (z) = 0.00778 0.42913
#
# Static dielectric constant tensor:
#      x y z
#    x 1.624990 0.000000 0.000000 
#    y 0.000000 1.985840 0.000000 
#    z 0.000000 0.000000 2.125140 
# 
# From -- ./inp_files/30239.got.cif
#   From: 2010.05.17/outbox.cif.g08.bks.cpg/sg22_16_cif.got.tgz:30239.got - 2010.06.03 23:40:54.
