data_PCOD9325996
_publ_section_title
;
Structure prediction by ZEFSAII (Michael W. Deem and Ramdas Pophale) SiO2 
 PCOD9325996
Probable space group: F 2 2 2
;
_chemical_formula_sum "Si O2"
_cell_formula_units_Z 96
_cell_length_a 11.486848
_cell_length_b 16.309050
_cell_length_c 23.209382
_cell_angle_alpha 90.000000
_cell_angle_beta 90.000000
_cell_angle_gamma 90.000000
_cell_volume 4348.035838
_symmetry_space_group_name_H-M "F 2 2 2"
_symmetry_group_IT_number 22
_symmetry_cell_setting 'orthorhombic'
loop_
_space_group_symop_operation_xyz
x,y,z
-x,-y,z
x,-y,-z
-x,y,-z
x,1/2+y,1/2+z
-x,1/2-y,1/2+z
x,1/2-y,1/2-z
-x,1/2+y,1/2-z
1/2+x,y,1/2+z
1/2-x,-y,1/2+z
1/2+x,-y,1/2-z
1/2-x,y,1/2-z
1/2+x,1/2+y,z
1/2-x,1/2-y,z
1/2+x,1/2-y,-z
1/2-x,1/2+y,-z
loop_
_atom_site_type_symbol
_atom_site_label
_atom_site_fract_x
_atom_site_fract_y
_atom_site_fract_z
Si Si1 0.376400 0.654445 0.766351
Si Si2 0.187802 0.407436 0.485305
Si Si3 0.772299 0.845190 0.885760
Si Si4 0.555667 0.907712 0.057133
Si Si5 0.043907 0.406721 0.828508
Si Si6 0.973087 0.902338 0.116617
O O1 0.370081 0.750000 0.750000
O O2 0.250000 0.617594 0.750000
O O3 0.490083 0.626365 0.730274
O O4 0.391769 0.628026 0.832106
O O5 0.152478 0.500000 0.500000
O O6 0.225893 0.366655 0.545657
O O7 0.306829 0.413028 0.448947
O O8 0.085706 0.375083 0.443911
O O9 0.750000 0.750000 0.877769
O O10 0.678283 0.895220 0.847334
O O11 0.903401 0.863513 0.869299
O O12 0.520041 0.865306 0.116300
O O13 0.500000 0.000000 0.058165
O O14 0.500000 0.868129 0.000000
O O15 0.000000 0.500000 0.827896
O O16 0.000000 0.000000 0.115565
#
# Coordination Sequence:
#
# PCOD9325996 Si02
#       6
#    16  16  16  16  16  16
#     4  11  26  49  71 103 146 191 246 314 384 447
#     4  12  21  43  70 105 150 192 240 305 368 452
#     4  12  27  46  69 111 148 187 243 307 386 450
#     4  10  17  33  65 103 134 170 235 294 348 414
#     4  11  23  44  74 101 139 184 250 301 349 447
#     4  12  27  45  76 105 149 201 255 306 382 457
#
# _framework density 22.078935000000001
#
# number of rings (size 3 to 8) (size 9 to 14) (size 15 to 20)
#    0.000    0.667    5.000    4.000    2.333    0.667 
#   12.000    1.667    0.000    0.000    0.000    0.000 
#    0.000    0.000    0.000    0.000    0.000    0.000 
#
# Total GULP energy -133939.129205 kJ/mol
# GULP energy per Si atom -5580.797050 kJ/mol
# Density = 2.202868 g / cm^3
# Si number density = 22.078935 Si / 1000 Ang^3
#
#
#
# Elastic Constant Matrix: (Units=GPa)
#
#
# Indices 1 2 3 4 5 6 
#
# 1 159.0847 22.6546 30.5615 0.0000 0.0000 0.0000
# 2 22.6546 56.3726 -13.8441 0.0000 0.0000 0.0000
# 3 30.5615 -13.8441 84.7052 0.0000 0.0000 0.0000
# 4 0.0000 0.0000 0.0000 13.8839 0.0000 0.0000
# 5 0.0000 0.0000 0.0000 0.0000 70.2991 0.0000
# 6 0.0000 0.0000 0.0000 0.0000 0.0000 17.1066
#
#
#
# Elastic Compliance Matrix: (Units=1/GPa)
#
#
# Indices 1 2 3 4 5 6 
#
# 1 0.007467 -0.003815 -0.003318 0.000000 0.000000 0.000000
# 2 -0.003815 0.020430 0.004716 0.000000 0.000000 0.000000
# 3 -0.003318 0.004716 0.013773 0.000000 0.000000 0.000000
# 4 0.000000 0.000000 0.000000 0.072026 0.000000 0.000000
# 5 0.000000 0.000000 0.000000 0.000000 0.014225 0.000000
# 6 0.000000 0.000000 0.000000 0.000000 0.000000 0.058457
#
#
# Mechanical properties :
#
#
# Convention : Reuss Voigt Hill
#
# Bulk Modulus (GPa) = 27.14730 42.10073 34.62401
# Shear Modulus (GPa) = 24.57109 37.64395 31.10752
#
# Velocity S-wave (km/s) = 3.33960 4.13361 3.75763
# Velocity P-wave (km/s) = 5.21467 6.47240 5.87728
#
# Compressibility (1/GPa) = 0.03683608
#
# Stress axis : x y z
#
# Youngs Moduli (GPa) = 133.92965 48.94650 72.60406
#
# Poissons Ratio (x) = 0.18675 0.24087
# Poissons Ratio (y) = 0.51099 -0.34238
# Poissons Ratio (z) = 0.44431 -0.23082
#
# Static dielectric constant tensor:
#      x y z
#    x 1.844990 0.000000 0.000000 
#    y 0.000000 1.616430 0.000000 
#    z 0.000000 0.000000 1.910730 
# 
# From -- ./inp_files/48154.got.cif
#   From: 2010.05.17/outbox.cif.g08.bks.cpg/sg22_25_cif.got.tgz:48154.got - 2010.06.03 23:40:54.
