data_PCOD9325195
_publ_section_title
;
Structure prediction by ZEFSAII (Michael W. Deem and Ramdas Pophale) SiO2 
 PCOD9325195
Probable space group: C 2 2 2
;
_chemical_formula_sum "Si O2"
_cell_formula_units_Z 32
_cell_length_a 5.366793
_cell_length_b 16.848369
_cell_length_c 17.092791
_cell_angle_alpha 90.000000
_cell_angle_beta 90.000000
_cell_angle_gamma 90.000000
_cell_volume 1545.559371
_symmetry_space_group_name_H-M "C 2 2 2"
_symmetry_group_IT_number 21
_symmetry_cell_setting 'orthorhombic'
loop_
_space_group_symop_operation_xyz
x,y,z
-x,-y,z
x,-y,-z
-x,y,-z
1/2+x,1/2+y,z
1/2-x,1/2-y,z
1/2+x,1/2-y,-z
1/2-x,1/2+y,-z
loop_
_atom_site_type_symbol
_atom_site_label
_atom_site_fract_x
_atom_site_fract_y
_atom_site_fract_z
Si Si1 0.752113 0.448327 0.216398
Si Si2 0.429169 0.178962 0.672690
Si Si3 0.607986 0.334803 0.082211
Si Si4 0.750000 0.750000 0.450585
Si Si5 0.250000 0.750000 0.808845
O O1 0.500000 0.500000 0.216956
O O2 0.772538 0.395413 0.296031
O O3 0.755443 0.396142 0.136420
O O4 0.000000 0.500000 0.216764
O O5 0.250000 0.250000 0.647482
O O6 0.645649 0.179471 0.606799
O O7 0.554000 0.209512 0.752337
O O8 0.750000 0.250000 0.069737
O O9 0.375142 0.314200 0.136777
O O10 0.500000 0.364171 0.000000
O O11 0.500000 0.728011 0.500000
#
# Coordination Sequence:
#
# PCOD9325195 Si02
#       5
#     8   8   8   4   4
#     4  12  27  44  66 100 143 183 235 284 339 408
#     4  11  22  41  74 100 135 179 229 279 327 411
#     4  12  24  40  66  95 131 186 241 299 352 397
#     4  11  24  40  72 119 138 162 214 295 342 390
#     4  11  18  38  66  97 124 168 244 289 328 394
#
# _framework density 20.704477000000001
#
# number of rings (size 3 to 8) (size 9 to 14) (size 15 to 20)
#    0.000    0.500    7.500    1.500    3.500    0.500 
#    0.000    3.750    0.000    0.750    6.500    0.000 
#    0.000    0.000    0.000    0.000    0.000    0.000 
#
# Total GULP energy -89242.387115 kJ/mol
# GULP energy per Si atom -5577.649195 kJ/mol
# Density = 2.065735 g / cm^3
# Si number density = 20.704477 Si / 1000 Ang^3
#
#
#
# Elastic Constant Matrix: (Units=GPa)
#
#
# Indices 1 2 3 4 5 6 
#
# 1 130.6452 47.7972 56.1754 0.0000 0.0000 0.0000
# 2 47.7972 85.3378 35.0148 0.0000 0.0000 0.0000
# 3 56.1754 35.0148 140.1749 0.0000 0.0000 0.0000
# 4 0.0000 0.0000 0.0000 -2.2522 0.0000 0.0000
# 5 0.0000 0.0000 0.0000 0.0000 67.7331 0.0000
# 6 0.0000 0.0000 0.0000 0.0000 0.0000 47.1017
#
#
#
# Elastic Compliance Matrix: (Units=1/GPa)
#
#
# Indices 1 2 3 4 5 6 
#
# 1 0.010724 -0.004728 -0.003117 0.000000 0.000000 0.000000
# 2 -0.004728 0.015140 -0.001887 0.000000 0.000000 0.000000
# 3 -0.003117 -0.001887 0.008854 0.000000 0.000000 0.000000
# 4 0.000000 0.000000 0.000000 -0.444016 0.000000 0.000000
# 5 0.000000 0.000000 0.000000 0.000000 0.014764 0.000000
# 6 0.000000 0.000000 0.000000 0.000000 0.000000 0.021231
#
#
# Mechanical properties :
#
#
# Convention : Reuss Voigt Hill
#
# Bulk Modulus (GPa) = 65.55050 70.45919 68.00485
# Shear Modulus (GPa) = -14.33676 36.99456 11.32890
#
# Velocity S-wave (km/s) = -2.63429 4.23163 2.34171
# Velocity P-wave (km/s) = 4.74090 7.61448 6.34257
#
# Compressibility (1/GPa) = 0.01525541
#
# Stress axis : x y z
#
# Youngs Moduli (GPa) = 93.24767 66.04808 112.93753
#
# Poissons Ratio (x) = 0.31225 0.35200
# Poissons Ratio (y) = 0.44085 0.21316
# Poissons Ratio (z) = 0.29063 0.12466
#
# Static dielectric constant tensor:
#      x y z
#    x 1.815480 0.000000 0.000000 
#    y 0.000000 1.808450 0.000000 
#    z 0.000000 0.000000 1.763250 
# 
# From -- ./inp_files/34489.got.cif
#   From: 2010.05.17/outbox.cif.g08.bks.cpg/sg21_18_cif.got.tgz:34489.got - 2010.06.03 23:14:55.
