data_PCOD9325372
_publ_section_title
;
Structure prediction by ZEFSAII (Michael W. Deem and Ramdas Pophale) SiO2 
 PCOD9325372
Probable space group: C 2 2 2
;
_chemical_formula_sum "Si O2"
_cell_formula_units_Z 40
_cell_length_a 13.602504
_cell_length_b 11.450718
_cell_length_c 11.239050
_cell_angle_alpha 90.000000
_cell_angle_beta 90.000000
_cell_angle_gamma 90.000000
_cell_volume 1750.576866
_symmetry_space_group_name_H-M "C 2 2 2"
_symmetry_group_IT_number 21
_symmetry_cell_setting 'orthorhombic'
loop_
_space_group_symop_operation_xyz
x,y,z
-x,-y,z
x,-y,-z
-x,y,-z
1/2+x,1/2+y,z
1/2-x,1/2-y,z
1/2+x,1/2-y,-z
1/2-x,1/2+y,-z
loop_
_atom_site_type_symbol
_atom_site_label
_atom_site_fract_x
_atom_site_fract_y
_atom_site_fract_z
Si Si1 0.407532 0.586674 0.740187
Si Si2 0.105196 0.742471 0.960873
Si Si3 0.814100 0.449677 0.790471
Si Si4 0.349125 0.789354 0.207764
Si Si5 0.961319 0.310391 0.628648
O O1 0.500000 0.500000 0.727373
O O2 0.415287 0.655524 0.866368
O O3 0.297112 0.537768 0.744360
O O4 0.407976 0.684912 0.636745
O O5 0.172296 0.648416 0.892348
O O6 0.145828 0.785862 0.086955
O O7 0.000000 0.689029 0.000000
O O8 0.844309 0.576677 0.833393
O O9 0.889342 0.404833 0.688495
O O10 0.250000 0.750000 0.272767
O O11 0.444026 0.785387 0.289094
O O12 0.000000 0.343129 0.500000
#
# Coordination Sequence:
#
# PCOD9325372 Si02
#       5
#     8   8   8   8   8
#     4  11  24  47  69 101 139 183 226 288 359 429
#     4  11  22  41  67  99 140 179 226 282 346 425
#     4  11  24  42  71  96 139 183 228 284 356 418
#     4  12  24  41  64 102 136 178 229 286 344 423
#     4  11  25  46  68  95 133 179 237 296 348 417
#
# _framework density 22.849610999999999
#
# number of rings (size 3 to 8) (size 9 to 14) (size 15 to 20)
#    0.000    0.800    4.000    6.000    0.000    4.800 
#    0.000    2.000    0.000    0.000    0.000    0.000 
#    0.000    0.000    0.000    0.000    0.000    0.000 
#
# Total GULP energy -111796.351065 kJ/mol
# GULP energy per Si atom -5589.817553 kJ/mol
# Density = 2.279760 g / cm^3
# Si number density = 22.849611 Si / 1000 Ang^3
#
#
#
# Elastic Constant Matrix: (Units=GPa)
#
#
# Indices 1 2 3 4 5 6 
#
# 1 137.1761 -1.6097 28.4048 0.0000 0.0000 0.0000
# 2 -1.6097 64.1875 3.7468 0.0000 0.0000 0.0000
# 3 28.4048 3.7468 110.6299 0.0000 0.0000 0.0000
# 4 0.0000 0.0000 0.0000 8.3422 0.0000 0.0000
# 5 0.0000 0.0000 0.0000 0.0000 19.3658 0.0000
# 6 0.0000 0.0000 0.0000 0.0000 0.0000 45.6610
#
#
#
# Elastic Compliance Matrix: (Units=1/GPa)
#
#
# Indices 1 2 3 4 5 6 
#
# 1 0.007705 0.000309 -0.001989 0.000000 0.000000 0.000000
# 2 0.000309 0.015623 -0.000609 0.000000 0.000000 0.000000
# 3 -0.001989 -0.000609 0.009570 0.000000 0.000000 0.000000
# 4 0.000000 0.000000 0.000000 0.119873 0.000000 0.000000
# 5 0.000000 0.000000 0.000000 0.000000 0.051637 0.000000
# 6 0.000000 0.000000 0.000000 0.000000 0.000000 0.021901
#
#
# Mechanical properties :
#
#
# Convention : Reuss Voigt Hill
#
# Bulk Modulus (GPa) = 35.30788 41.45302 38.38045
# Shear Modulus (GPa) = 20.80508 33.43723 27.12116
#
# Velocity S-wave (km/s) = 3.02076 3.82954 3.44894
# Velocity P-wave (km/s) = 5.25856 6.14287 5.71784
#
# Compressibility (1/GPa) = 0.02832229
#
# Stress axis : x y z
#
# Youngs Moduli (GPa) = 129.77974 64.00967 104.48876
#
# Poissons Ratio (x) = -0.01980 0.20781
# Poissons Ratio (y) = -0.04014 0.06358
# Poissons Ratio (z) = 0.25811 0.03895
#
# Static dielectric constant tensor:
#      x y z
#    x 1.961790 0.000000 0.000000 
#    y 0.000000 1.875800 0.000000 
#    z 0.000000 0.000000 1.823530 
# 
# From -- ./inp_files/24961.got.cif
#   From: 2010.05.17/outbox.cif.g08.bks.cpg/sg21_13_cif.got.tgz:24961.got - 2010.06.03 23:14:55.
