data_PCOD9325624
_publ_section_title
;
Structure prediction by ZEFSAII (Michael W. Deem and Ramdas Pophale) SiO2 
 PCOD9325624
Probable space group: C 2 2 2
;
_chemical_formula_sum "Si O2"
_cell_formula_units_Z 26
_cell_length_a 6.231780
_cell_length_b 8.294794
_cell_length_c 21.737444
_cell_angle_alpha 90.000000
_cell_angle_beta 90.000000
_cell_angle_gamma 90.000000
_cell_volume 1123.637421
_symmetry_space_group_name_H-M "C 2 2 2"
_symmetry_group_IT_number 21
_symmetry_cell_setting 'orthorhombic'
loop_
_space_group_symop_operation_xyz
x,y,z
-x,-y,z
x,-y,-z
-x,y,-z
1/2+x,1/2+y,z
1/2-x,1/2-y,z
1/2+x,1/2-y,-z
1/2-x,1/2+y,-z
loop_
_atom_site_type_symbol
_atom_site_label
_atom_site_fract_x
_atom_site_fract_y
_atom_site_fract_z
Si Si1 0.250000 0.250000 0.584587
Si Si2 0.520354 0.181959 0.700938
Si Si3 0.750000 0.250000 0.970740
Si Si4 0.500000 0.000000 0.890570
Si Si5 0.500000 0.500000 0.500000
Si Si6 0.750000 0.750000 0.805353
O O1 0.414913 0.179232 0.634027
O O2 0.355247 0.385848 0.542604
O O3 0.750000 0.250000 0.690301
O O4 0.424799 0.299763 0.753768
O O5 0.500000 0.000000 0.725240
O O6 0.822393 0.404553 0.930785
O O7 0.500000 0.282456 0.000000
O O8 0.633916 0.875829 0.849367
#
# Coordination Sequence:
#
# PCOD9325624 Si02
#       6
#     4   8   4   4   2   4
#     4  11  28  46  73 109 146 202 247 324 374 468
#     4  11  25  48  77 107 157 197 249 307 409 457
#     4  12  31  58  83 119 166 223 272 332 402 478
#     4  12  29  50  86 116 160 205 272 326 394 464
#     4  12  28  48  76 104 150 190 268 310 378 442
#     4  11  27  50  76 122 154 199 255 330 386 476
#
# _framework density 23.139137000000002
#
# number of rings (size 3 to 8) (size 9 to 14) (size 15 to 20)
#    0.000    0.615    1.538    3.231    8.615   14.769 
#    0.000    0.000    0.000    0.000    0.000    0.000 
#    0.000    0.000    0.000    0.000    0.000    0.000 
#
# Total GULP energy -72442.561624 kJ/mol
# GULP energy per Si atom -5572.504740 kJ/mol
# Density = 2.308647 g / cm^3
# Si number density = 23.139137 Si / 1000 Ang^3
#
#
#
# Elastic Constant Matrix: (Units=GPa)
#
#
# Indices 1 2 3 4 5 6 
#
# 1 183.1077 92.9252 105.4988 0.0000 0.0000 0.0000
# 2 92.9252 127.8493 81.5450 0.0000 0.0000 0.0000
# 3 105.4988 81.5450 180.5316 0.0000 0.0000 0.0000
# 4 0.0000 0.0000 0.0000 84.5474 0.0000 0.0000
# 5 0.0000 0.0000 0.0000 0.0000 63.4716 0.0000
# 6 0.0000 0.0000 0.0000 0.0000 0.0000 58.2213
#
#
#
# Elastic Compliance Matrix: (Units=1/GPa)
#
#
# Indices 1 2 3 4 5 6 
#
# 1 0.010107 -0.005027 -0.003636 0.000000 0.000000 0.000000
# 2 -0.005027 0.013488 -0.003154 0.000000 0.000000 0.000000
# 3 -0.003636 -0.003154 0.009089 0.000000 0.000000 0.000000
# 4 0.000000 0.000000 0.000000 0.011828 0.000000 0.000000
# 5 0.000000 0.000000 0.000000 0.000000 0.015755 0.000000
# 6 0.000000 0.000000 0.000000 0.000000 0.000000 0.017176
#
#
# Mechanical properties :
#
#
# Convention : Reuss Voigt Hill
#
# Bulk Modulus (GPa) = 110.51289 116.82518 113.66904
# Shear Modulus (GPa) = 48.03364 55.34936 51.69150
#
# Velocity S-wave (km/s) = 4.56111 4.89614 4.73159
# Velocity P-wave (km/s) = 8.69495 9.08629 8.89277
#
# Compressibility (1/GPa) = 0.00904872
#
# Stress axis : x y z
#
# Youngs Moduli (GPa) = 98.93768 74.14105 110.02776
#
# Poissons Ratio (x) = 0.37274 0.40002
# Poissons Ratio (y) = 0.49741 0.34707
# Poissons Ratio (z) = 0.35970 0.23387
#
# Static dielectric constant tensor:
#      x y z
#    x 1.661870 0.000000 0.000000 
#    y 0.000000 1.844090 0.000000 
#    z 0.000000 0.000000 1.852820 
# 
# From -- ./inp_files/38014.got.cif
#   From: 2010.05.17/outbox.cif.g08.bks.cpg/sg21_20_cif.got.tgz:38014.got - 2010.06.03 23:14:55.
