data_PCOD9325585
_publ_section_title
;
Structure prediction by ZEFSAII (Michael W. Deem and Ramdas Pophale) SiO2 
 PCOD9325585
Probable space group: C 2 2 2
;
_chemical_formula_sum "Si O2"
_cell_formula_units_Z 34
_cell_length_a 18.524544
_cell_length_b 6.795787
_cell_length_c 14.257554
_cell_angle_alpha 90.000000
_cell_angle_beta 90.000000
_cell_angle_gamma 90.000000
_cell_volume 1794.867152
_symmetry_space_group_name_H-M "C 2 2 2"
_symmetry_group_IT_number 21
_symmetry_cell_setting 'orthorhombic'
loop_
_space_group_symop_operation_xyz
x,y,z
-x,-y,z
x,-y,-z
-x,y,-z
1/2+x,1/2+y,z
1/2-x,1/2-y,z
1/2+x,1/2-y,-z
1/2-x,1/2+y,-z
loop_
_atom_site_type_symbol
_atom_site_label
_atom_site_fract_x
_atom_site_fract_y
_atom_site_fract_z
Si Si1 0.572418 0.876580 0.088253
Si Si2 0.414725 0.517009 0.386601
Si Si3 0.178394 0.625636 0.411060
Si Si4 0.500000 0.500000 0.000000
Si Si5 0.173269 0.299725 0.261013
O O1 0.549080 0.654551 0.058586
O O2 0.620807 0.867761 0.179283
O O3 0.500000 0.000000 0.109454
O O4 0.604687 0.000000 0.000000
O O5 0.500000 0.500000 0.366772
O O6 0.404432 0.500000 0.500000
O O7 0.382426 0.732199 0.369840
O O8 0.368453 0.362691 0.325229
O O9 0.152530 0.500000 0.500000
O O10 0.250000 0.750000 0.437200
O O11 0.196417 0.470147 0.332138
O O12 0.250000 0.250000 0.215333
#
# Coordination Sequence:
#
# PCOD9325585 Si02
#       5
#     8   8   8   2   8
#     4   9  22  44  69  96 124 166 215 269 328 388
#     4  11  25  42  62  96 131 172 220 264 319 378
#     4  12  23  42  66  88 132 180 217 261 317 388
#     4   8  18  44  72  90 126 164 208 264 336 386
#     4  12  25  42  65  99 130 170 218 264 322 391
#
# _framework density 18.942906000000001
#
# number of rings (size 3 to 8) (size 9 to 14) (size 15 to 20)
#    0.000    1.412    4.706    1.412    4.941    1.882 
#    2.118    0.000    0.000    0.000    0.000    0.000 
#    0.000    0.000    0.000    0.000    0.000    0.000 
#
# Total GULP energy -94801.456802 kJ/mol
# GULP energy per Si atom -5576.556282 kJ/mol
# Density = 1.889979 g / cm^3
# Si number density = 18.942906 Si / 1000 Ang^3
#
#
#
# Elastic Constant Matrix: (Units=GPa)
#
#
# Indices 1 2 3 4 5 6 
#
# 1 101.4749 32.6189 28.7547 0.0000 0.0000 0.0000
# 2 32.6189 99.3177 19.5377 0.0000 0.0000 0.0000
# 3 28.7547 19.5377 86.8613 0.0000 0.0000 0.0000
# 4 0.0000 0.0000 0.0000 12.9974 0.0000 0.0000
# 5 0.0000 0.0000 0.0000 0.0000 99.5087 0.0000
# 6 0.0000 0.0000 0.0000 0.0000 0.0000 10.6413
#
#
#
# Elastic Compliance Matrix: (Units=1/GPa)
#
#
# Indices 1 2 3 4 5 6 
#
# 1 0.011799 -0.003251 -0.003175 0.000000 0.000000 0.000000
# 2 -0.003251 0.011430 -0.001495 0.000000 0.000000 0.000000
# 3 -0.003175 -0.001495 0.012900 0.000000 0.000000 0.000000
# 4 0.000000 0.000000 0.000000 0.076938 0.000000 0.000000
# 5 0.000000 0.000000 0.000000 0.000000 0.010049 0.000000
# 6 0.000000 0.000000 0.000000 0.000000 0.000000 0.093973
#
#
# Mechanical properties :
#
#
# Convention : Reuss Voigt Hill
#
# Bulk Modulus (GPa) = 49.28881 49.94183 49.61532
# Shear Modulus (GPa) = 20.85990 38.41231 29.63611
#
# Velocity S-wave (km/s) = 3.32203 4.50799 3.95966
# Velocity P-wave (km/s) = 6.38676 7.31557 6.86689
#
# Compressibility (1/GPa) = 0.02028858
#
# Stress axis : x y z
#
# Youngs Moduli (GPa) = 84.75127 87.48600 77.52012
#
# Poissons Ratio (x) = 0.28439 0.24612
# Poissons Ratio (y) = 0.27550 0.11589
# Poissons Ratio (z) = 0.26907 0.13079
#
# Static dielectric constant tensor:
#      x y z
#    x 1.661340 0.000000 0.000000 
#    y 0.000000 1.643190 0.000000 
#    z 0.000000 0.000000 1.637250 
# 
# From -- ./inp_files/32621.got.cif
#   From: 2010.05.17/outbox.cif.g08.bks.cpg/sg21_17_cif.got.tgz:32621.got - 2010.06.03 23:14:55.
