data_PCOD9325926
_publ_section_title
;
Structure prediction by ZEFSAII (Michael W. Deem and Ramdas Pophale) SiO2 
 PCOD9325926
Probable space group: F 2 2 2
;
_chemical_formula_sum "Si O2"
_cell_formula_units_Z 52
_cell_length_a 12.310531
_cell_length_b 15.076802
_cell_length_c 12.169715
_cell_angle_alpha 90.000000
_cell_angle_beta 90.000000
_cell_angle_gamma 90.000000
_cell_volume 2258.740948
_symmetry_space_group_name_H-M "F 2 2 2"
_symmetry_group_IT_number 22
_symmetry_cell_setting 'orthorhombic'
loop_
_space_group_symop_operation_xyz
x,y,z
-x,-y,z
x,-y,-z
-x,y,-z
x,1/2+y,1/2+z
-x,1/2-y,1/2+z
x,1/2-y,1/2-z
-x,1/2+y,1/2-z
1/2+x,y,1/2+z
1/2-x,-y,1/2+z
1/2+x,-y,1/2-z
1/2-x,y,1/2-z
1/2+x,1/2+y,z
1/2-x,1/2-y,z
1/2+x,1/2-y,-z
1/2-x,1/2+y,-z
loop_
_atom_site_type_symbol
_atom_site_label
_atom_site_fract_x
_atom_site_fract_y
_atom_site_fract_z
Si Si1 0.000000 0.687262 0.500000
Si Si2 0.649992 0.682094 0.393348
Si Si3 0.250000 0.046874 0.250000
Si Si4 0.750000 0.250000 0.250000
Si Si5 0.791870 0.606536 0.580787
O O1 0.956289 0.758427 0.409105
O O2 0.898789 0.621113 0.510655
O O3 0.750000 0.750000 0.376343
O O4 0.655049 0.610460 0.296369
O O5 0.686847 0.631999 0.506960
O O6 0.219667 0.983557 0.148062
O O7 0.811462 0.316241 0.329608
#
# Coordination Sequence:
#
# PCOD9325926 Si02
#       5
#     8  16   8   4  16
#     4  10  20  44  72  90 128 172 218 266 319 389
#     4  10  21  44  66  94 131 174 213 267 325 386
#     4  11  23  41  69  94 134 170 211 273 331 373
#     4  10  16  40  70  90 120 180 210 256 324 396
#     4  10  21  41  69  94 130 169 221 267 318 384
#
# _framework density 23.021675999999999
#
# number of rings (size 3 to 8) (size 9 to 14) (size 15 to 20)
#    0.000    1.846    4.615    1.385    0.000    0.000 
#   11.077   21.538    0.000    0.000    0.000    0.000 
#    0.000    0.000    0.000    0.000    0.000    0.000 
#
# Total GULP energy -72455.275426 kJ/mol
# GULP energy per Si atom -5573.482725 kJ/mol
# Density = 2.296928 g / cm^3
# Si number density = 23.021676 Si / 1000 Ang^3
#
#
#
# Elastic Constant Matrix: (Units=GPa)
#
#
# Indices 1 2 3 4 5 6 
#
# 1 50.6591 17.9052 -0.7016 0.0000 0.0000 0.0000
# 2 17.9052 142.5368 49.1697 0.0000 0.0000 0.0000
# 3 -0.7016 49.1697 80.7542 0.0000 0.0000 0.0000
# 4 0.0000 0.0000 0.0000 55.7890 0.0000 0.0000
# 5 0.0000 0.0000 0.0000 0.0000 10.1360 0.0000
# 6 0.0000 0.0000 0.0000 0.0000 0.0000 19.6092
#
#
#
# Elastic Compliance Matrix: (Units=1/GPa)
#
#
# Indices 1 2 3 4 5 6 
#
# 1 0.020978 -0.003416 0.002262 0.000000 0.000000 0.000000
# 2 -0.003416 0.009437 -0.005776 0.000000 0.000000 0.000000
# 3 0.002262 -0.005776 0.015920 0.000000 0.000000 0.000000
# 4 0.000000 0.000000 0.000000 0.017925 0.000000 0.000000
# 5 0.000000 0.000000 0.000000 0.000000 0.098658 0.000000
# 6 0.000000 0.000000 0.000000 0.000000 0.000000 0.050996
#
#
# Mechanical properties :
#
#
# Convention : Reuss Voigt Hill
#
# Bulk Modulus (GPa) = 30.79164 45.18851 37.99007
# Shear Modulus (GPa) = 20.95569 30.94529 25.95049
#
# Velocity S-wave (km/s) = 3.02032 3.67028 3.36105
# Velocity P-wave (km/s) = 5.05641 6.13454 5.62138
#
# Compressibility (1/GPa) = 0.03247635
#
# Stress axis : x y z
#
# Youngs Moduli (GPa) = 47.66831 105.96343 62.81525
#
# Poissons Ratio (x) = 0.36192 -0.14208
# Poissons Ratio (y) = 0.16281 0.36281
# Poissons Ratio (z) = -0.10782 0.61203
#
# Static dielectric constant tensor:
#      x y z
#    x 1.963750 0.000000 0.000000 
#    y 0.000000 1.884850 0.000000 
#    z 0.000000 0.000000 2.012620 
# 
# From -- ./inp_files/19093.got.cif
#   From: 2010.05.17/outbox.cif.g08.bks.cpg/sg22_10_cif.got.tgz:19093.got - 2010.06.03 23:40:54.
