data_PCOD9325719
_publ_section_title
;
Structure prediction by ZEFSAII (Michael W. Deem and Ramdas Pophale) SiO2 
 PCOD9325719
Probable space group: C 2 2 2
;
_chemical_formula_sum "Si O2"
_cell_formula_units_Z 30
_cell_length_a 6.505452
_cell_length_b 30.116466
_cell_length_c 7.263454
_cell_angle_alpha 90.000000
_cell_angle_beta 90.000000
_cell_angle_gamma 90.000000
_cell_volume 1423.064798
_symmetry_space_group_name_H-M "C 2 2 2"
_symmetry_group_IT_number 21
_symmetry_cell_setting 'orthorhombic'
loop_
_space_group_symop_operation_xyz
x,y,z
-x,-y,z
x,-y,-z
-x,y,-z
1/2+x,1/2+y,z
1/2-x,1/2-y,z
1/2+x,1/2-y,-z
1/2-x,1/2+y,-z
loop_
_atom_site_type_symbol
_atom_site_label
_atom_site_fract_x
_atom_site_fract_y
_atom_site_fract_z
Si Si1 0.000000 0.500000 0.000000
Si Si2 0.674695 0.870201 0.848205
Si Si3 0.500000 0.178169 0.500000
Si Si4 0.000000 0.799502 0.000000
Si Si5 0.250000 0.750000 0.697532
Si Si6 0.877310 0.958509 0.809315
O O1 0.847911 0.475047 0.136937
O O2 0.557140 0.850680 0.675029
O O3 0.812834 0.831878 0.942028
O O4 0.828452 0.907687 0.760574
O O5 0.500000 0.884802 0.000000
O O6 0.680738 0.210160 0.567897
O O7 0.071793 0.768194 0.832405
O O8 0.000000 0.000000 0.714097
O O9 0.000000 0.953364 0.000000
#
# Coordination Sequence:
#
# PCOD9325719 Si02
#       6
#     2   8   4   4   4   8
#     4   8  14  28  58  88 120 164 208 266 316 396
#     4  12  23  43  67 104 137 180 235 283 346 411
#     4  12  26  42  68 103 138 188 227 294 338 420
#     4  12  24  44  72  96 136 186 231 289 334 420
#     4  12  24  46  66 102 140 182 240 278 356 402
#     4   9  18  33  62 101 123 173 223 272 336 408
#
# _framework density 21.08126
#
# number of rings (size 3 to 8) (size 9 to 14) (size 15 to 20)
#    0.000    1.333    5.333    3.200    0.000    0.000 
#    0.000    0.000    0.000    2.400    0.000    0.000 
#    0.000    0.000    0.000    0.000    0.000    0.000 
#
# Total GULP energy -83544.087663 kJ/mol
# GULP energy per Si atom -5569.605844 kJ/mol
# Density = 2.103328 g / cm^3
# Si number density = 21.081260 Si / 1000 Ang^3
#
#
#
# Elastic Constant Matrix: (Units=GPa)
#
#
# Indices 1 2 3 4 5 6 
#
# 1 82.6636 21.9248 22.2219 0.0000 0.0000 0.0000
# 2 21.9248 106.5257 30.6118 0.0000 0.0000 0.0000
# 3 22.2219 30.6118 90.0574 0.0000 0.0000 0.0000
# 4 0.0000 0.0000 0.0000 -37.0224 0.0000 0.0000
# 5 0.0000 0.0000 0.0000 0.0000 25.9295 0.0000
# 6 0.0000 0.0000 0.0000 0.0000 0.0000 44.2137
#
#
#
# Elastic Compliance Matrix: (Units=1/GPa)
#
#
# Indices 1 2 3 4 5 6 
#
# 1 0.013328 -0.001993 -0.002611 0.000000 0.000000 0.000000
# 2 -0.001993 0.010702 -0.003146 0.000000 0.000000 0.000000
# 3 -0.002611 -0.003146 0.012818 0.000000 0.000000 0.000000
# 4 0.000000 0.000000 0.000000 -0.027011 0.000000 0.000000
# 5 0.000000 0.000000 0.000000 0.000000 0.038566 0.000000
# 6 0.000000 0.000000 0.000000 0.000000 0.000000 0.022617
#
#
# Mechanical properties :
#
#
# Convention : Reuss Voigt Hill
#
# Bulk Modulus (GPa) = 46.84455 47.64041 47.24248
# Shear Modulus (GPa) = 53.39859 20.25670 36.82765
#
# Velocity S-wave (km/s) = 5.03834 3.10318 4.18417
# Velocity P-wave (km/s) = 7.49104 5.95711 6.76767
#
# Compressibility (1/GPa) = 0.02134720
#
# Stress axis : x y z
#
# Youngs Moduli (GPa) = 75.03157 93.44438 78.01695
#
# Poissons Ratio (x) = 0.18620 0.20373
# Poissons Ratio (y) = 0.14951 0.24543
# Poissons Ratio (z) = 0.19593 0.29397
#
# Static dielectric constant tensor:
#      x y z
#    x 1.793320 0.000000 0.000000 
#    y 0.000000 1.881160 0.000000 
#    z 0.000000 0.000000 1.966730 
# 
# From -- ./inp_files/9122.got.cif
#   From: 2010.05.17/outbox.cif.g08.bks.cpg/sg21_5_cif.got.tgz:9122.got - 2010.06.03 23:14:55.
