data_PCOD9325342
_publ_section_title
;
Structure prediction by ZEFSAII (Michael W. Deem and Ramdas Pophale) SiO2 
 PCOD9325342
Probable space group: C 2 2 2
;
_chemical_formula_sum "Si O2"
_cell_formula_units_Z 64
_cell_length_a 8.820974
_cell_length_b 15.601313
_cell_length_c 22.670947
_cell_angle_alpha 90.000000
_cell_angle_beta 90.000000
_cell_angle_gamma 90.000000
_cell_volume 3119.947985
_symmetry_space_group_name_H-M "C 2 2 2"
_symmetry_group_IT_number 21
_symmetry_cell_setting 'orthorhombic'
loop_
_space_group_symop_operation_xyz
x,y,z
-x,-y,z
x,-y,-z
-x,y,-z
1/2+x,1/2+y,z
1/2-x,1/2-y,z
1/2+x,1/2-y,-z
1/2-x,1/2+y,-z
loop_
_atom_site_type_symbol
_atom_site_label
_atom_site_fract_x
_atom_site_fract_y
_atom_site_fract_z
Si Si1 0.076219 0.415586 0.435858
Si Si2 0.938773 0.905964 0.433773
Si Si3 0.146527 0.327353 0.750309
Si Si4 0.429660 0.746566 0.829019
Si Si5 0.915990 0.257558 0.380678
Si Si6 0.252245 0.497678 0.932382
Si Si7 0.393923 0.569793 0.189542
Si Si8 0.484855 0.857014 0.935231
O O1 0.257380 0.415953 0.436860
O O2 0.000000 0.500000 0.405967
O O3 0.000000 0.414781 0.500000
O O4 0.024819 0.326820 0.408648
O O5 0.000000 0.884190 0.500000
O O6 0.002099 0.834236 0.388457
O O7 0.000000 0.000000 0.418351
O O8 0.250000 0.250000 0.775655
O O9 0.121627 0.300527 0.682841
O O10 0.244643 0.408182 0.771470
O O11 0.985940 0.316145 0.781108
O O12 0.250000 0.750000 0.831885
O O13 0.500094 0.653650 0.816883
O O14 0.499999 0.782389 0.888927
O O15 0.750000 0.250000 0.410572
O O16 0.346758 0.468009 0.875046
O O17 0.116875 0.427852 0.933145
O O18 0.170930 0.590120 0.924244
O O19 0.316877 0.500000 0.000000
O O20 0.500000 0.500000 0.220074
O O21 0.500000 0.819372 0.000000
#
# Coordination Sequence:
#
# PCOD9325342 Si02
#       8
#     8   8   8   8   8   8   8   8
#     4  11  22  39  62  95 139 179 222 269 326 391
#     4  11  22  39  66 101 140 179 218 270 335 391
#     4   9  22  43  65  86 122 167 215 270 324 377
#     4  11  22  40  60  87 120 162 206 250 318 389
#     4  11  22  41  64  93 127 174 226 276 323 386
#     4   9  18  35  62  90 121 155 198 251 317 393
#     4  11  22  41  64  89 122 161 208 266 326 390
#     4   9  18  36  58  87 121 156 194 245 312 387
#
# _framework density 20.513162000000001
#
# number of rings (size 3 to 8) (size 9 to 14) (size 15 to 20)
#    0.000    1.750    1.250    5.250    0.000    1.250 
#    6.750   11.875    0.000    0.000    0.000    0.000 
#    0.000    0.000    0.000    0.000    0.000    0.000 
#
# Total GULP energy -178313.828837 kJ/mol
# GULP energy per Si atom -5572.307151 kJ/mol
# Density = 2.046647 g / cm^3
# Si number density = 20.513162 Si / 1000 Ang^3
#
#
#
# Elastic Constant Matrix: (Units=GPa)
#
#
# Indices 1 2 3 4 5 6 
#
# 1 124.8731 45.9048 34.8885 0.0000 0.0000 0.0000
# 2 45.9048 117.3399 41.5713 0.0000 0.0000 0.0000
# 3 34.8885 41.5713 61.0697 0.0000 0.0000 0.0000
# 4 0.0000 0.0000 0.0000 14.7465 0.0000 0.0000
# 5 0.0000 0.0000 0.0000 0.0000 18.5993 0.0000
# 6 0.0000 0.0000 0.0000 0.0000 0.0000 21.2567
#
#
#
# Elastic Compliance Matrix: (Units=1/GPa)
#
#
# Indices 1 2 3 4 5 6 
#
# 1 0.010057 -0.002503 -0.004042 0.000000 0.000000 0.000000
# 2 -0.002503 0.011853 -0.006639 0.000000 0.000000 0.000000
# 3 -0.004042 -0.006639 0.023203 0.000000 0.000000 0.000000
# 4 0.000000 0.000000 0.000000 0.067812 0.000000 0.000000
# 5 0.000000 0.000000 0.000000 0.000000 0.053765 0.000000
# 6 0.000000 0.000000 0.000000 0.000000 0.000000 0.047044
#
#
# Mechanical properties :
#
#
# Convention : Reuss Voigt Hill
#
# Bulk Modulus (GPa) = 53.34337 60.89021 57.11679
# Shear Modulus (GPa) = 20.29610 22.98172 21.63891
#
# Velocity S-wave (km/s) = 3.14891 3.35078 3.25141
# Velocity P-wave (km/s) = 6.26752 6.68717 6.48074
#
# Compressibility (1/GPa) = 0.01874647
#
# Stress axis : x y z
#
# Youngs Moduli (GPa) = 99.42882 84.36403 43.09711
#
# Poissons Ratio (x) = 0.21112 0.17421
# Poissons Ratio (y) = 0.24882 0.28613
# Poissons Ratio (z) = 0.40191 0.56011
#
# Static dielectric constant tensor:
#      x y z
#    x 1.780460 0.000000 0.000000 
#    y 0.000000 1.719610 0.000000 
#    z 0.000000 0.000000 1.637850 
# 
# From -- ./inp_files/38543.got.cif
#   From: 2010.05.17/outbox.cif.g08.bks.cpg/sg21_20_cif.got.tgz:38543.got - 2010.06.03 23:14:55.
