data_PCOD9325263
_publ_section_title
;
Structure prediction by ZEFSAII (Michael W. Deem and Ramdas Pophale) SiO2 
 PCOD9325263
Probable space group: C 2 2 2
;
_chemical_formula_sum "Si O2"
_cell_formula_units_Z 64
_cell_length_a 11.956334
_cell_length_b 19.460856
_cell_length_c 14.951002
_cell_angle_alpha 90.000000
_cell_angle_beta 90.000000
_cell_angle_gamma 90.000000
_cell_volume 3478.806535
_symmetry_space_group_name_H-M "C 2 2 2"
_symmetry_group_IT_number 21
_symmetry_cell_setting 'orthorhombic'
loop_
_space_group_symop_operation_xyz
x,y,z
-x,-y,z
x,-y,-z
-x,y,-z
1/2+x,1/2+y,z
1/2-x,1/2-y,z
1/2+x,1/2-y,-z
1/2-x,1/2+y,-z
loop_
_atom_site_type_symbol
_atom_site_label
_atom_site_fract_x
_atom_site_fract_y
_atom_site_fract_z
Si Si1 0.310430 0.992678 0.604108
Si Si2 0.330610 0.803440 0.291129
Si Si3 0.662451 0.192515 0.931817
Si Si4 0.503068 0.402892 0.105767
Si Si5 0.499989 0.111024 0.396184
Si Si6 0.787390 0.055352 0.230774
Si Si7 0.940058 0.256210 0.117076
Si Si8 0.234308 0.956006 0.909497
O O1 0.377387 0.921380 0.623214
O O2 0.274224 0.000000 0.500000
O O3 0.408972 0.049575 0.613127
O O4 0.215780 0.012445 0.676302
O O5 0.250000 0.750000 0.343287
O O6 0.443055 0.828430 0.340358
O O7 0.265497 0.871390 0.257067
O O8 0.368528 0.761784 0.204659
O O9 0.750000 0.250000 0.899059
O O10 0.549493 0.196856 0.875412
O O11 0.705140 0.115032 0.932800
O O12 0.627846 0.217689 0.031095
O O13 0.600606 0.430263 0.171511
O O14 0.518284 0.321212 0.104127
O O15 0.381795 0.429235 0.134409
O O16 0.500000 0.422829 0.000000
O O17 0.500000 0.130679 0.500000
O O18 0.713899 0.008408 0.162763
O O19 0.220111 0.000000 0.000000
#
# Coordination Sequence:
#
# PCOD9325263 Si02
#       8
#     8   8   8   8   8   8   8   8
#     4   8  16  35  59  87 117 148 189 244 310 369
#     4  11  21  35  58  88 121 153 199 242 295 362
#     4  11  22  39  56  75 109 157 203 238 292 346
#     4  12  21  39  56  79 113 159 208 248 284 355
#     4   8  16  33  60  87 114 150 189 240 307 370
#     4  11  23  35  58  91 116 151 199 249 299 355
#     4  11  22  36  58  80 111 156 203 244 285 357
#     4  12  24  37  56  82 115 151 202 253 297 346
#
# _framework density 18.397113000000001
#
# number of rings (size 3 to 8) (size 9 to 14) (size 15 to 20)
#    0.000    1.500    5.000    2.250    1.750    0.000 
#    0.000    3.750    0.000    6.750    0.000    0.000 
#    0.000    0.000    0.000    0.000    0.000    0.000 
#
# Total GULP energy -178149.447520 kJ/mol
# GULP energy per Si atom -5567.170235 kJ/mol
# Density = 1.835524 g / cm^3
# Si number density = 18.397113 Si / 1000 Ang^3
#
#
#
# Elastic Constant Matrix: (Units=GPa)
#
#
# Indices 1 2 3 4 5 6 
#
# 1 74.5254 36.3417 31.0397 0.0000 0.0000 0.0000
# 2 36.3417 137.6215 30.0479 0.0000 0.0000 0.0000
# 3 31.0397 30.0479 80.0079 0.0000 0.0000 0.0000
# 4 0.0000 0.0000 0.0000 9.5007 0.0000 0.0000
# 5 0.0000 0.0000 0.0000 0.0000 25.7970 0.0000
# 6 0.0000 0.0000 0.0000 0.0000 0.0000 17.5021
#
#
#
# Elastic Compliance Matrix: (Units=1/GPa)
#
#
# Indices 1 2 3 4 5 6 
#
# 1 0.017343 -0.003389 -0.005456 0.000000 0.000000 0.000000
# 2 -0.003389 0.008577 -0.001907 0.000000 0.000000 0.000000
# 3 -0.005456 -0.001907 0.015331 0.000000 0.000000 0.000000
# 4 0.000000 0.000000 0.000000 0.105255 0.000000 0.000000
# 5 0.000000 0.000000 0.000000 0.000000 0.038764 0.000000
# 6 0.000000 0.000000 0.000000 0.000000 0.000000 0.057136
#
#
# Mechanical properties :
#
#
# Convention : Reuss Voigt Hill
#
# Bulk Modulus (GPa) = 50.63343 54.11260 52.37302
# Shear Modulus (GPa) = 18.48483 23.54168 21.01325
#
# Velocity S-wave (km/s) = 3.17325 3.58109 3.38332
# Velocity P-wave (km/s) = 6.40377 6.82469 6.61758
#
# Compressibility (1/GPa) = 0.01974980
#
# Stress axis : x y z
#
# Youngs Moduli (GPa) = 57.66037 116.58497 65.22535
#
# Poissons Ratio (x) = 0.39505 0.35585
# Poissons Ratio (y) = 0.19539 0.12437
# Poissons Ratio (z) = 0.31458 0.22230
#
# Static dielectric constant tensor:
#      x y z
#    x 1.715500 0.000000 0.000000 
#    y 0.000000 1.682360 0.000000 
#    z 0.000000 0.000000 1.645800 
# 
# From -- ./inp_files/31752.got.cif
#   From: 2010.05.17/outbox.cif.g08.bks.cpg/sg21_16_cif.got.tgz:31752.got - 2010.06.03 23:14:55.
