data_PCOD9325037
_publ_section_title
;
Structure prediction by ZEFSAII (Michael W. Deem and Ramdas Pophale) SiO2 
 PCOD9325037
Probable space group: C 2 2 2
;
_chemical_formula_sum "Si O2"
_cell_formula_units_Z 64
_cell_length_a 25.077304
_cell_length_b 11.311470
_cell_length_c 11.006182
_cell_angle_alpha 90.000000
_cell_angle_beta 90.000000
_cell_angle_gamma 90.000000
_cell_volume 3122.026484
_symmetry_space_group_name_H-M "C 2 2 2"
_symmetry_group_IT_number 21
_symmetry_cell_setting 'orthorhombic'
loop_
_space_group_symop_operation_xyz
x,y,z
-x,-y,z
x,-y,-z
-x,y,-z
1/2+x,1/2+y,z
1/2-x,1/2-y,z
1/2+x,1/2-y,-z
1/2-x,1/2+y,-z
loop_
_atom_site_type_symbol
_atom_site_label
_atom_site_fract_x
_atom_site_fract_y
_atom_site_fract_z
Si Si1 0.560014 0.360396 0.516138
Si Si2 0.441442 0.015038 0.142839
Si Si3 0.696190 0.119659 0.577696
Si Si4 0.691105 0.696293 0.078292
Si Si5 0.830534 0.809304 0.615866
Si Si6 0.163860 0.352943 0.846994
Si Si7 0.390753 0.216846 0.274359
Si Si8 0.765651 0.998270 0.227006
O O1 0.555581 0.500000 0.500000
O O2 0.500000 0.309930 0.500000
O O3 0.608484 0.330448 0.424450
O O4 0.580926 0.317097 0.647066
O O5 0.389975 0.930465 0.163940
O O6 0.500000 0.000000 0.200789
O O7 0.427420 0.146587 0.182828
O O8 0.447242 0.000000 0.000000
O O9 0.696175 0.240133 0.497872
O O10 0.636627 0.124076 0.633646
O O11 0.701865 0.000000 0.500000
O O12 0.738095 0.100464 0.686742
O O13 0.750000 0.750000 0.074795
O O14 0.657060 0.738366 0.192544
O O15 0.800727 0.940096 0.120233
O O16 0.665032 0.757313 0.957739
O O17 0.830730 0.717277 0.723571
O O18 0.799061 0.920015 0.676982
O O19 0.217238 0.434032 0.842417
#
# Coordination Sequence:
#
# PCOD9325037 Si02
#       8
#     8   8   8   8   8   8   8   8
#     4  10  24  47  71  96 133 179 235 296 350 416
#     4  11  23  42  71 100 132 178 229 294 359 412
#     4  11  22  40  65  94 142 180 225 282 344 413
#     4  12  24  40  69  95 137 186 226 276 348 424
#     4  11  25  43  66 103 136 186 232 286 353 426
#     4  12  25  45  64 101 146 176 232 292 348 426
#     4  11  22  42  67 103 131 177 231 282 349 423
#     4  12  25  43  65 101 143 191 227 288 348 430
#
# _framework density 20.499504999999999
#
# number of rings (size 3 to 8) (size 9 to 14) (size 15 to 20)
#    0.000    0.750    5.000    1.875    1.750    5.000 
#    0.000    0.000    0.000    0.000    0.000    0.000 
#    0.000    0.000    0.000    0.000    0.000    0.000 
#
# Total GULP energy -178311.696322 kJ/mol
# GULP energy per Si atom -5572.240510 kJ/mol
# Density = 2.045285 g / cm^3
# Si number density = 20.499505 Si / 1000 Ang^3
#
#
#
# Elastic Constant Matrix: (Units=GPa)
#
#
# Indices 1 2 3 4 5 6 
#
# 1 123.4494 36.1269 19.8734 0.0000 0.0000 0.0000
# 2 36.1269 82.1723 38.5331 0.0000 0.0000 0.0000
# 3 19.8734 38.5331 96.5882 0.0000 0.0000 0.0000
# 4 0.0000 0.0000 0.0000 39.4430 0.0000 0.0000
# 5 0.0000 0.0000 0.0000 0.0000 -28.2371 0.0000
# 6 0.0000 0.0000 0.0000 0.0000 0.0000 29.8468
#
#
#
# Elastic Compliance Matrix: (Units=1/GPa)
#
#
# Indices 1 2 3 4 5 6 
#
# 1 0.009306 -0.003928 -0.000348 0.000000 0.000000 0.000000
# 2 -0.003928 0.016628 -0.005825 0.000000 0.000000 0.000000
# 3 -0.000348 -0.005825 0.012749 0.000000 0.000000 0.000000
# 4 0.000000 0.000000 0.000000 0.025353 0.000000 0.000000
# 5 0.000000 0.000000 0.000000 0.000000 -0.035414 0.000000
# 6 0.000000 0.000000 0.000000 0.000000 0.000000 0.033504
#
#
# Mechanical properties :
#
#
# Convention : Reuss Voigt Hill
#
# Bulk Modulus (GPa) = 54.11153 54.58630 54.34892
# Shear Modulus (GPa) = 56.50397 22.05564 39.27981
#
# Velocity S-wave (km/s) = 5.25580 3.28367 4.38212
# Velocity P-wave (km/s) = 7.95519 6.40801 7.22314
#
# Compressibility (1/GPa) = 0.01848035
#
# Stress axis : x y z
#
# Youngs Moduli (GPa) = 107.45678 60.13803 78.43891
#
# Poissons Ratio (x) = 0.23625 0.02726
# Poissons Ratio (y) = 0.42214 0.45694
# Poissons Ratio (z) = 0.03735 0.35033
#
# Static dielectric constant tensor:
#      x y z
#    x 1.916980 0.000000 0.000000 
#    y 0.000000 1.942420 0.000000 
#    z 0.000000 0.000000 1.786790 
# 
# From -- ./inp_files/27847.got.cif
#   From: 2010.05.17/outbox.cif.g08.bks.cpg/sg21_14_cif.got.tgz:27847.got - 2010.06.03 23:14:55.
