data_PCOD9325301
_publ_section_title
;
Structure prediction by ZEFSAII (Michael W. Deem and Ramdas Pophale) SiO2 
 PCOD9325301
Probable space group: C 2 2 2
;
_chemical_formula_sum "Si O2"
_cell_formula_units_Z 48
_cell_length_a 11.862630
_cell_length_b 24.909609
_cell_length_c 7.558391
_cell_angle_alpha 90.000000
_cell_angle_beta 90.000000
_cell_angle_gamma 90.000000
_cell_volume 2233.455222
_symmetry_space_group_name_H-M "C 2 2 2"
_symmetry_group_IT_number 21
_symmetry_cell_setting 'orthorhombic'
loop_
_space_group_symop_operation_xyz
x,y,z
-x,-y,z
x,-y,-z
-x,y,-z
1/2+x,1/2+y,z
1/2-x,1/2-y,z
1/2+x,1/2-y,-z
1/2-x,1/2+y,-z
loop_
_atom_site_type_symbol
_atom_site_label
_atom_site_fract_x
_atom_site_fract_y
_atom_site_fract_z
Si Si1 0.054188 0.312605 0.186038
Si Si2 0.269753 0.889035 0.715879
Si Si3 0.590660 0.301225 0.758446
Si Si4 0.130670 0.498685 0.714667
Si Si5 0.664084 0.299795 0.168103
Si Si6 0.659506 0.879272 0.685285
O O1 0.153126 0.354627 0.151095
O O2 0.111009 0.262132 0.288320
O O3 0.952908 0.345083 0.276121
O O4 0.000000 0.293637 0.000000
O O5 0.154511 0.854586 0.689748
O O6 0.287598 0.951689 0.766826
O O7 0.330026 0.883995 0.525739
O O8 0.455900 0.301065 0.732772
O O9 0.629173 0.303016 0.963624
O O10 0.129033 0.500000 0.500000
O O11 0.164577 0.438794 0.764704
O O12 0.000000 0.500000 0.773670
O O13 0.750000 0.250000 0.194203
O O14 0.734497 0.349028 0.237404
#
# Coordination Sequence:
#
# PCOD9325301 Si02
#       6
#     8   8   8   8   8   8
#     4  12  21  39  61  88 127 169 203 246 316 380
#     4  11  23  38  62  96 125 159 210 262 313 365
#     4  11  23  40  61  86 127 171 203 250 314 382
#     4   9  18  38  63  87 125 164 200 257 324 364
#     4  11  21  41  63  85 123 172 207 244 314 387
#     4  11  22  39  64  93 123 161 209 265 308 366
#
# _framework density 21.491364000000001
#
# number of rings (size 3 to 8) (size 9 to 14) (size 15 to 20)
#    0.000    1.167    5.000    3.000    0.000    2.000 
#    3.000    5.000    0.000    5.000    0.000    0.000 
#    0.000    0.000    0.000    0.000    0.000    0.000 
#
# Total GULP energy -133773.903413 kJ/mol
# GULP energy per Si atom -5573.912642 kJ/mol
# Density = 2.144245 g / cm^3
# Si number density = 21.491364 Si / 1000 Ang^3
#
#
#
# Elastic Constant Matrix: (Units=GPa)
#
#
# Indices 1 2 3 4 5 6 
#
# 1 113.7836 63.5766 6.6616 0.0000 0.0000 0.0000
# 2 63.5766 181.8583 12.4944 0.0000 0.0000 0.0000
# 3 6.6616 12.4944 28.9766 0.0000 0.0000 0.0000
# 4 0.0000 0.0000 0.0000 27.0926 0.0000 0.0000
# 5 0.0000 0.0000 0.0000 0.0000 29.8354 0.0000
# 6 0.0000 0.0000 0.0000 0.0000 0.0000 35.6355
#
#
#
# Elastic Compliance Matrix: (Units=1/GPa)
#
#
# Indices 1 2 3 4 5 6 
#
# 1 0.010944 -0.003765 -0.000893 0.000000 0.000000 0.000000
# 2 -0.003765 0.006962 -0.002136 0.000000 0.000000 0.000000
# 3 -0.000893 -0.002136 0.035637 0.000000 0.000000 0.000000
# 4 0.000000 0.000000 0.000000 0.036911 0.000000 0.000000
# 5 0.000000 0.000000 0.000000 0.000000 0.033517 0.000000
# 6 0.000000 0.000000 0.000000 0.000000 0.000000 0.028062
#
#
# Mechanical properties :
#
#
# Convention : Reuss Voigt Hill
#
# Bulk Modulus (GPa) = 25.02788 54.45375 39.74082
# Shear Modulus (GPa) = 27.94251 34.63843 31.29047
#
# Velocity S-wave (km/s) = 3.60970 4.01900 3.81984
# Velocity P-wave (km/s) = 5.38926 6.85047 6.16332
#
# Compressibility (1/GPa) = 0.03995544
#
# Stress axis : x y z
#
# Youngs Moduli (GPa) = 91.37051 143.64292 28.06078
#
# Poissons Ratio (x) = 0.54078 0.02505
# Poissons Ratio (y) = 0.34399 0.05995
# Poissons Ratio (z) = 0.08157 0.30686
#
# Static dielectric constant tensor:
#      x y z
#    x 1.799680 0.000000 0.000000 
#    y 0.000000 1.908420 0.000000 
#    z 0.000000 0.000000 1.871520 
# 
# From -- ./inp_files/13309.got.cif
#   From: 2010.05.17/outbox.cif.g08.bks.cpg/sg21_7_cif.got.tgz:13309.got - 2010.06.03 23:14:55.
