data_PCOD9325248
_publ_section_title
;
Structure prediction by ZEFSAII (Michael W. Deem and Ramdas Pophale) SiO2 
 PCOD9325248
Probable space group: C 2 2 2
;
_chemical_formula_sum "Si O2"
_cell_formula_units_Z 48
_cell_length_a 17.420852
_cell_length_b 9.269674
_cell_length_c 13.896813
_cell_angle_alpha 90.000000
_cell_angle_beta 90.000000
_cell_angle_gamma 90.000000
_cell_volume 2244.135447
_symmetry_space_group_name_H-M "C 2 2 2"
_symmetry_group_IT_number 21
_symmetry_cell_setting 'orthorhombic'
loop_
_space_group_symop_operation_xyz
x,y,z
-x,-y,z
x,-y,-z
-x,y,-z
1/2+x,1/2+y,z
1/2-x,1/2-y,z
1/2+x,1/2-y,-z
1/2-x,1/2+y,-z
loop_
_atom_site_type_symbol
_atom_site_label
_atom_site_fract_x
_atom_site_fract_y
_atom_site_fract_z
Si Si1 0.716129 0.904953 0.406082
Si Si2 0.580604 0.827701 0.279085
Si Si3 0.413992 0.558820 0.851349
Si Si4 0.000000 0.238452 0.000000
Si Si5 0.464843 0.660172 0.393831
Si Si6 0.000000 0.500000 0.138458
Si Si7 0.310917 0.379840 0.719625
O O1 0.750000 0.750000 0.429078
O O2 0.632543 0.875219 0.365631
O O3 0.716058 0.000000 0.500000
O O4 0.763637 0.986060 0.323560
O O5 0.608740 0.688826 0.219991
O O6 0.500067 0.776864 0.322080
O O7 0.570608 0.954631 0.203943
O O8 0.500000 0.500000 0.831725
O O9 0.431951 0.639896 0.954357
O O10 0.356134 0.431980 0.816879
O O11 0.022363 0.354975 0.918660
O O12 0.500000 0.500000 0.375846
O O13 0.500000 0.693431 0.500000
O O14 0.375370 0.653307 0.363855
O O15 0.250000 0.250000 0.732998
#
# Coordination Sequence:
#
# PCOD9325248 Si02
#       7
#     8   8   8   4   8   4   8
#     4  12  27  44  66 101 146 202 247 302 368 435
#     4  11  22  41  67  97 141 188 253 301 367 432
#     4  11  20  43  72 109 134 188 252 297 369 463
#     4   9  21  40  72 112 135 175 240 322 372 452
#     4  11  23  41  65  95 140 203 260 303 342 435
#     4   9  22  40  67 110 138 172 241 326 380 429
#     4  12  26  42  68 110 151 196 245 306 380 447
#
# _framework density 21.389082999999999
#
# number of rings (size 3 to 8) (size 9 to 14) (size 15 to 20)
#    0.000    1.000    5.000    0.750    9.333    0.000 
#    0.000    0.000    0.000    0.000   56.333    0.000 
#    0.000    0.000    0.000    0.000    0.000    0.000 
#
# Total GULP energy -133797.091803 kJ/mol
# GULP energy per Si atom -5574.878825 kJ/mol
# Density = 2.134040 g / cm^3
# Si number density = 21.389083 Si / 1000 Ang^3
#
#
#
# Elastic Constant Matrix: (Units=GPa)
#
#
# Indices 1 2 3 4 5 6 
#
# 1 88.3725 59.0952 10.9892 0.0000 0.0000 0.0000
# 2 59.0952 149.8437 62.0375 0.0000 0.0000 0.0000
# 3 10.9892 62.0375 79.8278 0.0000 0.0000 0.0000
# 4 0.0000 0.0000 0.0000 60.2854 0.0000 0.0000
# 5 0.0000 0.0000 0.0000 0.0000 10.0289 0.0000
# 6 0.0000 0.0000 0.0000 0.0000 0.0000 32.8776
#
#
#
# Elastic Compliance Matrix: (Units=1/GPa)
#
#
# Indices 1 2 3 4 5 6 
#
# 1 0.016204 -0.008061 0.004034 0.000000 0.000000 0.000000
# 2 -0.008061 0.013849 -0.009653 0.000000 0.000000 0.000000
# 3 0.004034 -0.009653 0.019474 0.000000 0.000000 0.000000
# 4 0.000000 0.000000 0.000000 0.016588 0.000000 0.000000
# 5 0.000000 0.000000 0.000000 0.000000 0.099712 0.000000
# 6 0.000000 0.000000 0.000000 0.000000 0.000000 0.030416
#
#
# Mechanical properties :
#
#
# Convention : Reuss Voigt Hill
#
# Bulk Modulus (GPa) = 45.11282 64.69863 54.90573
# Shear Modulus (GPa) = 21.64583 33.03319 27.33951
#
# Velocity S-wave (km/s) = 3.18465 3.93414 3.57907
# Velocity P-wave (km/s) = 5.88727 7.13798 6.54258
#
# Compressibility (1/GPa) = 0.02216665
#
# Stress axis : x y z
#
# Youngs Moduli (GPa) = 61.71194 72.20716 51.35182
#
# Poissons Ratio (x) = 0.58203 -0.20713
# Poissons Ratio (y) = 0.49743 0.49570
# Poissons Ratio (z) = -0.24892 0.69702
#
# Static dielectric constant tensor:
#      x y z
#    x 1.757240 0.000000 0.000000 
#    y 0.000000 1.845640 0.000000 
#    z 0.000000 0.000000 1.862420 
# 
# From -- ./inp_files/32872.got.cif
#   From: 2010.05.17/outbox.cif.g08.bks.cpg/sg21_17_cif.got.tgz:32872.got - 2010.06.03 23:14:55.
