data_PCOD9325958
_publ_section_title
;
Structure prediction by ZEFSAII (Michael W. Deem and Ramdas Pophale) SiO2 
 PCOD9325958
Probable space group: F 2 2 2
;
_chemical_formula_sum "Si O2"
_cell_formula_units_Z 116
_cell_length_a 33.198442
_cell_length_b 7.286602
_cell_length_c 25.464561
_cell_angle_alpha 90.000000
_cell_angle_beta 90.000000
_cell_angle_gamma 90.000000
_cell_volume 6159.974934
_symmetry_space_group_name_H-M "F 2 2 2"
_symmetry_group_IT_number 22
_symmetry_cell_setting 'orthorhombic'
loop_
_space_group_symop_operation_xyz
x,y,z
-x,-y,z
x,-y,-z
-x,y,-z
x,1/2+y,1/2+z
-x,1/2-y,1/2+z
x,1/2-y,1/2-z
-x,1/2+y,1/2-z
1/2+x,y,1/2+z
1/2-x,-y,1/2+z
1/2+x,-y,1/2-z
1/2-x,y,1/2-z
1/2+x,1/2+y,z
1/2-x,1/2-y,z
1/2+x,1/2-y,-z
1/2-x,1/2+y,-z
loop_
_atom_site_type_symbol
_atom_site_label
_atom_site_fract_x
_atom_site_fract_y
_atom_site_fract_z
Si Si1 0.888778 0.796118 0.577217
Si Si2 0.646943 0.820507 0.194290
Si Si3 0.111932 0.276289 0.083991
Si Si4 0.045435 0.777809 0.505690
Si Si5 0.625976 0.266515 0.308037
Si Si6 0.819284 0.013663 0.057766
Si Si7 0.800702 0.497249 0.672012
Si Si8 0.250000 0.250000 0.750000
O O1 0.924023 0.721095 0.540430
O O2 0.899763 0.773576 0.638797
O O3 0.847437 0.692507 0.564335
O O4 0.882039 0.011801 0.568147
O O5 0.631238 0.750000 0.250000
O O6 0.617259 0.768697 0.146615
O O7 0.650393 0.040312 0.193381
O O8 0.689094 0.786077 0.314588
O O9 0.068817 0.227536 0.059238
O O10 0.147814 0.150458 0.062249
O O11 0.000000 0.710386 0.500000
O O12 0.043420 0.000000 0.500000
O O13 0.607178 0.250000 0.250000
O O14 0.656563 0.100463 0.318155
O O15 0.791673 0.007721 0.109793
O O16 0.800335 0.000000 0.000000
O O17 0.772675 0.610300 0.710710
#
# Coordination Sequence:
#
# PCOD9325958 Si02
#       8
#    16  16  16  16  16  16  16   4
#     4   9  18  29  47  72 101 133 167 216 258 299
#     4  10  17  30  50  74 101 127 164 217 261 292
#     4   9  18  29  45  73 102 128 170 212 259 303
#     4   9  16  29  47  70 102 139 174 212 263 316
#     4  10  17  31  50  75 101 126 168 214 261 295
#     4  10  18  31  52  79 100 130 168 213 258 300
#     4  10  21  33  52  80 104 131 165 208 252 317
#     4  12  20  40  58  80 110 140 172 204 272 320
#
# _framework density 18.831244999999999
#
# number of rings (size 3 to 8) (size 9 to 14) (size 15 to 20)
#    0.000    2.345    3.448    0.000    0.000    0.000 
#    0.000    4.483    0.000    0.828   21.517    0.000 
#    0.000    0.000    0.000    0.000    0.000    0.000 
#
# Total GULP energy -161510.972714 kJ/mol
# GULP energy per Si atom -5569.343887 kJ/mol
# Density = 1.878838 g / cm^3
# Si number density = 18.831245 Si / 1000 Ang^3
#
#
#
# Elastic Constant Matrix: (Units=GPa)
#
#
# Indices 1 2 3 4 5 6 
#
# 1 29.2968 8.9870 20.9446 0.0000 -0.0001 -0.0004
# 2 8.9870 86.2591 12.2593 -0.0002 -0.0001 -0.0018
# 3 20.9446 12.2593 155.5296 0.0002 0.0001 0.0006
# 4 0.0000 -0.0002 0.0002 5.4818 0.0001 0.0003
# 5 -0.0001 -0.0001 0.0001 0.0001 15.1391 0.0004
# 6 -0.0004 -0.0018 0.0006 0.0003 0.0004 0.4599
#
#
#
# Elastic Compliance Matrix: (Units=1/GPa)
#
#
# Indices 1 2 3 4 5 6 
#
# 1 0.038692 -0.003328 -0.004948 0.000000 0.000000 0.000030
# 2 -0.003328 0.012011 -0.000499 0.000000 0.000000 0.000044
# 3 -0.004948 -0.000499 0.007135 0.000000 0.000000 -0.000015
# 4 0.000000 0.000000 0.000000 0.182422 -0.000001 -0.000124
# 5 0.000000 0.000000 0.000000 -0.000001 0.066054 -0.000057
# 6 0.000030 0.000044 -0.000015 -0.000124 -0.000057 2.174425
#
#
# Mechanical properties :
#
#
# Convention : Reuss Voigt Hill
#
# Bulk Modulus (GPa) = 24.82106 39.49635 32.15870
# Shear Modulus (GPa) = 1.99067 19.47579 10.73323
#
# Velocity S-wave (km/s) = 1.02927 3.21943 2.38999
# Velocity P-wave (km/s) = 3.82386 5.90246 4.97297
#
# Compressibility (1/GPa) = 0.04028837
#
# Stress axis : x y z
#
# Youngs Moduli (GPa) = 25.84531 83.26007 140.14843
#
# Poissons Ratio (x) = 0.27708 0.69348
# Poissons Ratio (y) = 0.08601 0.06987
# Poissons Ratio (z) = 0.12789 0.04151
#
# Static dielectric constant tensor:
#      x y z
#    x 1.626200 0.000000 0.000000 
#    y 0.000000 1.724080 0.000000 
#    z 0.000000 0.000000 1.726920 
# 
# From -- ./inp_files/50765.got.cif
#   From: 2010.05.17/outbox.cif.g08.bks.cpg/sg22_26_cif.got.tgz:50765.got - 2010.06.03 23:40:54.
