data_PCOD9325547
_publ_section_title
;
Structure prediction by ZEFSAII (Michael W. Deem and Ramdas Pophale) SiO2 
 PCOD9325547
Probable space group: C 2 2 2
;
_chemical_formula_sum "Si O2"
_cell_formula_units_Z 24
_cell_length_a 16.565221
_cell_length_b 7.524310
_cell_length_c 8.762672
_cell_angle_alpha 90.000000
_cell_angle_beta 90.000000
_cell_angle_gamma 90.000000
_cell_volume 1092.195719
_symmetry_space_group_name_H-M "C 2 2 2"
_symmetry_group_IT_number 21
_symmetry_cell_setting 'orthorhombic'
loop_
_space_group_symop_operation_xyz
x,y,z
-x,-y,z
x,-y,-z
-x,y,-z
1/2+x,1/2+y,z
1/2-x,1/2-y,z
1/2+x,1/2-y,-z
1/2-x,1/2+y,-z
loop_
_atom_site_type_symbol
_atom_site_label
_atom_site_fract_x
_atom_site_fract_y
_atom_site_fract_z
Si Si1 0.912235 0.589530 0.697199
Si Si2 0.095709 0.042355 0.831530
Si Si3 0.658873 0.753049 0.395064
O O1 0.897112 0.747404 0.812298
O O2 0.899509 0.691858 0.534851
O O3 0.850433 0.426810 0.711092
O O4 0.000000 0.500000 0.710770
O O5 0.135567 0.922642 0.698089
O O6 0.000000 0.000000 0.823398
O O7 0.126550 0.000000 0.000000
O O8 0.750000 0.750000 0.454244
#
# Coordination Sequence:
#
# PCOD9325547 Si02
#       3
#     8   8   8
#     4  11  24  44  71 100 130 175 227 275 327 391
#     4  11  25  45  68  97 133 180 223 271 329 401
#     4  11  25  43  68 104 132 171 222 281 335 384
#
# _framework density 21.974081000000002
#
# number of rings (size 3 to 8) (size 9 to 14) (size 15 to 20)
#    0.000    1.000    3.333    3.000    9.333    2.667 
#    6.000    0.000    0.000    0.000    0.000    0.000 
#    0.000    0.000    0.000    0.000    0.000    0.000 
#
# Total GULP energy -67038.463337 kJ/mol
# GULP energy per Si atom -5586.538611 kJ/mol
# Density = 2.192407 g / cm^3
# Si number density = 21.974081 Si / 1000 Ang^3
#
#
#
# Elastic Constant Matrix: (Units=GPa)
#
#
# Indices 1 2 3 4 5 6 
#
# 1 52.9899 23.6610 13.5806 0.0000 0.0000 0.0000
# 2 23.6610 165.7829 33.2789 0.0000 0.0000 0.0000
# 3 13.5806 33.2789 63.1494 0.0000 0.0000 0.0000
# 4 0.0000 0.0000 0.0000 24.5519 0.0000 0.0000
# 5 0.0000 0.0000 0.0000 0.0000 -0.5203 0.0000
# 6 0.0000 0.0000 0.0000 0.0000 0.0000 19.9505
#
#
#
# Elastic Compliance Matrix: (Units=1/GPa)
#
#
# Indices 1 2 3 4 5 6 
#
# 1 0.020733 -0.002308 -0.003242 0.000000 0.000000 0.000000
# 2 -0.002308 0.007003 -0.003194 0.000000 0.000000 0.000000
# 3 -0.003242 -0.003194 0.018216 0.000000 0.000000 0.000000
# 4 0.000000 0.000000 0.000000 0.040730 0.000000 0.000000
# 5 0.000000 0.000000 0.000000 0.000000 -1.922015 0.000000
# 6 0.000000 0.000000 0.000000 0.000000 0.000000 0.050124
#
#
# Mechanical properties :
#
#
# Convention : Reuss Voigt Hill
#
# Bulk Modulus (GPa) = 35.13373 46.99592 41.06482
# Shear Modulus (GPa) = -2.84376 22.88987 10.02305
#
# Velocity S-wave (km/s) = -1.13884 3.23100 2.13804
# Velocity P-wave (km/s) = 3.78076 5.94580 4.98230
#
# Compressibility (1/GPa) = 0.02846268
#
# Stress axis : x y z
#
# Youngs Moduli (GPa) = 48.23189 142.80511 54.89715
#
# Poissons Ratio (x) = 0.32963 0.17800
# Poissons Ratio (y) = 0.11133 0.17533
# Poissons Ratio (z) = 0.15639 0.45610
#
# Static dielectric constant tensor:
#      x y z
#    x 1.840290 0.000000 0.000000 
#    y 0.000000 1.852810 0.000000 
#    z 0.000000 0.000000 1.867660 
# 
# From -- ./inp_files/9751.got.cif
#   From: 2010.05.17/outbox.cif.g08.bks.cpg/sg21_5_cif.got.tgz:9751.got - 2010.06.03 23:14:55.
