data_PCOD9325029
_publ_section_title
;
Structure prediction by ZEFSAII (Michael W. Deem and Ramdas Pophale) SiO2 
 PCOD9325029
Probable space group: C 2 2 2
;
_chemical_formula_sum "Si O2"
_cell_formula_units_Z 18
_cell_length_a 4.998046
_cell_length_b 26.776990
_cell_length_c 5.145524
_cell_angle_alpha 90.000000
_cell_angle_beta 90.000000
_cell_angle_gamma 90.000000
_cell_volume 688.638998
_symmetry_space_group_name_H-M "C 2 2 2"
_symmetry_group_IT_number 21
_symmetry_cell_setting 'orthorhombic'
loop_
_space_group_symop_operation_xyz
x,y,z
-x,-y,z
x,-y,-z
-x,y,-z
1/2+x,1/2+y,z
1/2-x,1/2-y,z
1/2+x,1/2-y,-z
1/2-x,1/2+y,-z
loop_
_atom_site_type_symbol
_atom_site_label
_atom_site_fract_x
_atom_site_fract_y
_atom_site_fract_z
Si Si1 0.670270 0.596917 0.764993
Si Si2 0.000000 0.000000 0.000000
Si Si3 0.750000 0.750000 0.803198
Si Si4 0.500000 0.836396 0.500000
O O1 0.500000 0.603937 0.500000
O O2 0.675358 0.538190 0.829925
O O3 0.955406 0.622541 0.726043
O O4 0.500000 0.620213 0.000000
O O5 0.716185 0.796940 0.609846
O O6 0.500000 0.748140 0.000000
#
# Coordination Sequence:
#
# PCOD9325029 Si02
#       4
#     8   2   4   4
#     4  10  24  46  80 115 166 221 273 353 417 515
#     4   8  22  48  76 120 170 206 286 340 432 502
#     4  12  30  50  80 124 178 228 288 362 420 522
#     4  12  28  48  79 122 170 221 290 344 442 498
#
# _framework density 26.138514000000001
#
# number of rings (size 3 to 8) (size 9 to 14) (size 15 to 20)
#    1.333    0.000    0.000    3.333   15.556    0.000 
#    0.000    6.667    0.000    0.000    0.000    0.000 
#    0.000    0.000    0.000    0.000    0.000    0.000 
#
# Total GULP energy -50110.441759 kJ/mol
# GULP energy per Si atom -5567.826862 kJ/mol
# Density = 2.607902 g / cm^3
# Si number density = 26.138514 Si / 1000 Ang^3
#
#
#
# Elastic Constant Matrix: (Units=GPa)
#
#
# Indices 1 2 3 4 5 6 
#
# 1 169.1093 47.7142 86.2455 0.0000 0.0000 0.0000
# 2 47.7142 219.6655 56.9977 0.0000 0.0000 0.0000
# 3 86.2455 56.9977 207.2703 0.0000 0.0000 0.0000
# 4 0.0000 0.0000 0.0000-2420.2955 0.0000 0.0000
# 5 0.0000 0.0000 0.0000 0.0000 58.9545 0.0000
# 6 0.0000 0.0000 0.0000 0.0000 0.0000 -50.7369
#
#
#
# Elastic Compliance Matrix: (Units=1/GPa)
#
#
# Indices 1 2 3 4 5 6 
#
# 1 0.007669 -0.000902 -0.002943 0.000000 0.000000 0.000000
# 2 -0.000902 0.005008 -0.001002 0.000000 0.000000 0.000000
# 3 -0.002943 -0.001002 0.006325 0.000000 0.000000 0.000000
# 4 0.000000 0.000000 0.000000 -0.000413 0.000000 0.000000
# 5 0.000000 0.000000 0.000000 0.000000 0.016962 0.000000
# 6 0.000000 0.000000 0.000000 0.000000 0.000000 -0.019710
#
#
# Mechanical properties :
#
#
# Convention : Reuss Voigt Hill
#
# Bulk Modulus (GPa) = 107.43551 108.66221 108.04886
# Shear Modulus (GPa) = 174.59531 -455.40973 -140.40721
#
# Velocity S-wave (km/s) = 8.18176 -13.21392 -7.33711
# Velocity P-wave (km/s) = 11.42132 13.82564 5.50916
#
# Compressibility (1/GPa) = 0.00930791
#
# Stress axis : x y z
#
# Youngs Moduli (GPa) = 130.39938 199.66898 158.11112
#
# Poissons Ratio (x) = 0.18013 0.46530
# Poissons Ratio (y) = 0.11764 0.15840
# Poissons Ratio (z) = 0.38375 0.20004
#
# Static dielectric constant tensor:
#      x y z
#    x 2.677470 0.000000 0.000000 
#    y 0.000000 2.026330 0.000000 
#    z 0.000000 0.000000 2.038910 
# 
# From -- ./inp_files/666.got.cif
#   From: 2010.05.17/outbox.cif.g08.bks.cpg/sg21_1_cif.got.tgz:666.got - 2010.06.03 23:14:55.
