data_PCOD9325718
_publ_section_title
;
Structure prediction by ZEFSAII (Michael W. Deem and Ramdas Pophale) SiO2 
 PCOD9325718
Probable space group: C 2 2 2
;
_chemical_formula_sum "Si O2"
_cell_formula_units_Z 34
_cell_length_a 28.126208
_cell_length_b 6.557113
_cell_length_c 8.408296
_cell_angle_alpha 90.000000
_cell_angle_beta 90.000000
_cell_angle_gamma 90.000000
_cell_volume 1550.714487
_symmetry_space_group_name_H-M "C 2 2 2"
_symmetry_group_IT_number 21
_symmetry_cell_setting 'orthorhombic'
loop_
_space_group_symop_operation_xyz
x,y,z
-x,-y,z
x,-y,-z
-x,y,-z
1/2+x,1/2+y,z
1/2-x,1/2-y,z
1/2+x,1/2-y,-z
1/2-x,1/2+y,-z
loop_
_atom_site_type_symbol
_atom_site_label
_atom_site_fract_x
_atom_site_fract_y
_atom_site_fract_z
Si Si1 0.645569 0.982778 0.692673
Si Si2 0.000000 0.000000 0.000000
Si Si3 0.453962 0.882740 0.165096
Si Si4 0.798518 0.823030 0.105428
Si Si5 0.793738 0.123582 0.364178
O O1 0.666137 0.161037 0.809092
O O2 0.652881 0.000000 0.500000
O O3 0.591286 0.924956 0.726824
O O4 0.675174 0.781360 0.732075
O O5 0.031180 0.153462 0.888664
O O6 0.500000 0.000000 0.233218
O O7 0.443475 0.000000 0.000000
O O8 0.750000 0.750000 0.018430
O O9 0.775357 0.950227 0.249648
O O10 0.823256 0.000000 0.000000
O O11 0.750000 0.250000 0.433992
O O12 0.821417 0.000000 0.500000
#
# Coordination Sequence:
#
# PCOD9325718 Si02
#       5
#     8   2   8   8   8
#     4  12  26  45  69 105 143 188 236 291 366 435
#     4   8  18  48  76 104 132 176 224 292 368 418
#     4   9  22  44  73 101 135 175 227 291 353 430
#     4  12  27  44  66 102 145 190 242 303 351 416
#     4  12  23  42  67  95 142 193 235 288 351 424
#
# _framework density 21.925379
#
# number of rings (size 3 to 8) (size 9 to 14) (size 15 to 20)
#    0.000    1.176    4.706    2.118    3.294    4.235 
#    2.118    0.000    0.000    0.000    0.000    0.000 
#    0.000    0.000    0.000    0.000    0.000    0.000 
#
# Total GULP energy -94717.821500 kJ/mol
# GULP energy per Si atom -5571.636559 kJ/mol
# Density = 2.187548 g / cm^3
# Si number density = 21.925379 Si / 1000 Ang^3
#
#
#
# Elastic Constant Matrix: (Units=GPa)
#
#
# Indices 1 2 3 4 5 6 
#
# 1 137.1972 61.5267 31.7071 0.0000 0.0000 0.0000
# 2 61.5267 172.5512 56.4080 0.0000 0.0000 0.0000
# 3 31.7071 56.4080 64.6820 0.0000 0.0000 0.0000
# 4 0.0000 0.0000 0.0000 48.1473 0.0000 0.0000
# 5 0.0000 0.0000 0.0000 0.0000 23.1584 0.0000
# 6 0.0000 0.0000 0.0000 0.0000 0.0000 14.8161
#
#
#
# Elastic Compliance Matrix: (Units=1/GPa)
#
#
# Indices 1 2 3 4 5 6 
#
# 1 0.008901 -0.002444 -0.002232 0.000000 0.000000 0.000000
# 2 -0.002444 0.008778 -0.006457 0.000000 0.000000 0.000000
# 3 -0.002232 -0.006457 0.022185 0.000000 0.000000 0.000000
# 4 0.000000 0.000000 0.000000 0.020770 0.000000 0.000000
# 5 0.000000 0.000000 0.000000 0.000000 0.043181 0.000000
# 6 0.000000 0.000000 0.000000 0.000000 0.000000 0.067494
#
#
# Mechanical properties :
#
#
# Convention : Reuss Voigt Hill
#
# Bulk Modulus (GPa) = 56.82360 74.85713 65.84037
# Shear Modulus (GPa) = 25.07034 32.21027 28.64031
#
# Velocity S-wave (km/s) = 3.38515 3.83702 3.61815
# Velocity P-wave (km/s) = 6.42277 7.33800 6.89559
#
# Compressibility (1/GPa) = 0.01759832
#
# Stress axis : x y z
#
# Youngs Moduli (GPa) = 112.35186 113.92595 45.07573
#
# Poissons Ratio (x) = 0.27846 0.10059
# Poissons Ratio (y) = 0.27461 0.29104
# Poissons Ratio (z) = 0.25072 0.73558
#
# Static dielectric constant tensor:
#      x y z
#    x 1.807920 0.000000 0.000000 
#    y 0.000000 1.891420 0.000000 
#    z 0.000000 0.000000 1.940560 
# 
# From -- ./inp_files/19430.got.cif
#   From: 2010.05.17/outbox.cif.g08.bks.cpg/sg21_10_cif.got.tgz:19430.got - 2010.06.03 23:14:55.
