data_PCOD9325652
_publ_section_title
;
Structure prediction by ZEFSAII (Michael W. Deem and Ramdas Pophale) SiO2 
 PCOD9325652
Probable space group: C 2 2 2
;
_chemical_formula_sum "Si O2"
_cell_formula_units_Z 38
_cell_length_a 17.012591
_cell_length_b 11.105480
_cell_length_c 8.723014
_cell_angle_alpha 90.000000
_cell_angle_beta 90.000000
_cell_angle_gamma 90.000000
_cell_volume 1648.065109
_symmetry_space_group_name_H-M "C 2 2 2"
_symmetry_group_IT_number 21
_symmetry_cell_setting 'orthorhombic'
loop_
_space_group_symop_operation_xyz
x,y,z
-x,-y,z
x,-y,-z
-x,y,-z
1/2+x,1/2+y,z
1/2-x,1/2-y,z
1/2+x,1/2-y,-z
1/2-x,1/2+y,-z
loop_
_atom_site_type_symbol
_atom_site_label
_atom_site_fract_x
_atom_site_fract_y
_atom_site_fract_z
Si Si1 0.517367 0.641233 0.172797
Si Si2 0.500000 0.000000 0.500000
Si Si3 0.666147 0.541262 0.327428
Si Si4 0.894149 0.692473 0.664412
Si Si5 0.236382 0.615813 0.106142
Si Si6 0.250000 0.750000 0.556732
O O1 0.500000 0.500000 0.168747
O O2 0.605212 0.630714 0.241070
O O3 0.457566 0.708369 0.284295
O O4 0.500000 0.687426 0.000000
O O5 0.444619 0.085075 0.597533
O O6 0.640542 0.500000 0.500000
O O7 0.693700 0.428106 0.223021
O O8 0.741822 0.625858 0.352389
O O9 0.843017 0.639004 0.802066
O O10 0.828540 0.737394 0.544453
O O11 0.250000 0.750000 0.036854
O O12 0.229790 0.500000 0.000000
#
# Coordination Sequence:
#
# PCOD9325652 Si02
#       6
#     8   2   8   8   8   4
#     4  11  27  45  75 110 156 199 253 319 393 459
#     4  12  28  48  72 112 152 214 250 330 384 468
#     4  12  25  46  78 111 152 206 264 322 390 458
#     4  12  25  49  75 109 162 198 261 322 390 460
#     4  12  28  48  79 113 159 204 263 325 386 467
#     4  12  24  44  76 110 142 204 264 324 380 456
#
# _framework density 23.057342999999999
#
# number of rings (size 3 to 8) (size 9 to 14) (size 15 to 20)
#    0.000    0.211    3.158    5.053    7.368    3.789 
#    0.000    0.000    0.000    0.000    0.000    0.000 
#    0.000    0.000    0.000    0.000    0.000    0.000 
#
# Total GULP energy -106205.875270 kJ/mol
# GULP energy per Si atom -5589.782909 kJ/mol
# Density = 2.300486 g / cm^3
# Si number density = 23.057343 Si / 1000 Ang^3
#
#
#
# Elastic Constant Matrix: (Units=GPa)
#
#
# Indices 1 2 3 4 5 6 
#
# 1 117.4034 52.4102 21.3023 0.0000 0.0000 0.0000
# 2 52.4102 150.2063 47.4102 0.0000 0.0000 0.0000
# 3 21.3023 47.4102 58.6736 0.0000 0.0000 0.0000
# 4 0.0000 0.0000 0.0000 42.3698 0.0000 0.0000
# 5 0.0000 0.0000 0.0000 0.0000 16.5408 0.0000
# 6 0.0000 0.0000 0.0000 0.0000 0.0000 36.4182
#
#
#
# Elastic Compliance Matrix: (Units=1/GPa)
#
#
# Indices 1 2 3 4 5 6 
#
# 1 0.010142 -0.003190 -0.001104 0.000000 0.000000 0.000000
# 2 -0.003190 0.009940 -0.006874 0.000000 0.000000 0.000000
# 3 -0.001104 -0.006874 0.022999 0.000000 0.000000 0.000000
# 4 0.000000 0.000000 0.000000 0.023602 0.000000 0.000000
# 5 0.000000 0.000000 0.000000 0.000000 0.060457 0.000000
# 6 0.000000 0.000000 0.000000 0.000000 0.000000 0.027459
#
#
# Mechanical properties :
#
#
# Convention : Reuss Voigt Hill
#
# Bulk Modulus (GPa) = 48.20631 63.16986 55.68809
# Shear Modulus (GPa) = 27.19606 32.74311 29.96959
#
# Velocity S-wave (km/s) = 3.43811 3.77247 3.60916
# Velocity P-wave (km/s) = 6.05915 6.81408 6.44768
#
# Compressibility (1/GPa) = 0.02074417
#
# Stress axis : x y z
#
# Youngs Moduli (GPa) = 98.59800 100.60105 43.48068
#
# Poissons Ratio (x) = 0.32094 0.04802
# Poissons Ratio (y) = 0.31455 0.29888
# Poissons Ratio (z) = 0.10890 0.69151
#
# Static dielectric constant tensor:
#      x y z
#    x 2.039260 0.000000 0.000000 
#    y 0.000000 1.929550 0.000000 
#    z 0.000000 0.000000 2.083940 
# 
# From -- ./inp_files/16156.got.cif
#   From: 2010.05.17/outbox.cif.g08.bks.cpg/sg21_9_cif.got.tgz:16156.got - 2010.06.03 23:14:55.
