data_PCOD9325616
_publ_section_title
;
Structure prediction by ZEFSAII (Michael W. Deem and Ramdas Pophale) SiO2 
 PCOD9325616
Probable space group: C 2 2 2
;
_chemical_formula_sum "Si O2"
_cell_formula_units_Z 24
_cell_length_a 17.696932
_cell_length_b 6.762976
_cell_length_c 8.354993
_cell_angle_alpha 90.000000
_cell_angle_beta 90.000000
_cell_angle_gamma 90.000000
_cell_volume 999.958367
_symmetry_space_group_name_H-M "C 2 2 2"
_symmetry_group_IT_number 21
_symmetry_cell_setting 'orthorhombic'
loop_
_space_group_symop_operation_xyz
x,y,z
-x,-y,z
x,-y,-z
-x,y,-z
1/2+x,1/2+y,z
1/2-x,1/2-y,z
1/2+x,1/2-y,-z
1/2-x,1/2+y,-z
loop_
_atom_site_type_symbol
_atom_site_label
_atom_site_fract_x
_atom_site_fract_y
_atom_site_fract_z
Si Si1 0.325504 0.827865 0.103810
Si Si2 0.178372 0.627072 0.637689
Si Si3 0.089663 0.992647 0.693807
O O1 0.250000 0.750000 0.015670
O O2 0.375013 0.658652 0.188918
O O3 0.291092 0.957550 0.247975
O O4 0.365528 0.000000 0.000000
O O5 0.137359 0.500000 0.500000
O O6 0.250000 0.750000 0.575289
O O7 0.124714 0.778642 0.729983
O O8 0.105640 0.000000 0.500000
O O9 0.000000 0.000000 0.712184
#
# Coordination Sequence:
#
# PCOD9325616 Si02
#       3
#     8   8   8
#     4  12  26  45  75 109 147 196 248 307 374 445
#     4  12  22  41  74 106 140 192 255 305 360 432
#     4  11  25  47  73 111 151 193 250 312 366 440
#
# _framework density 24.000997999999999
#
# number of rings (size 3 to 8) (size 9 to 14) (size 15 to 20)
#    0.000    0.333    6.667    3.000    0.000    1.333 
#    0.000    5.000    0.000    0.000    0.000    0.000 
#    0.000    0.000    0.000    0.000    0.000    0.000 
#
# Total GULP energy -66963.832484 kJ/mol
# GULP energy per Si atom -5580.319374 kJ/mol
# Density = 2.394637 g / cm^3
# Si number density = 24.000998 Si / 1000 Ang^3
#
#
#
# Elastic Constant Matrix: (Units=GPa)
#
#
# Indices 1 2 3 4 5 6 
#
# 1 138.7810 78.3576 24.1611 0.0000 0.0000 0.0000
# 2 78.3576 194.8471 63.3715 0.0000 0.0000 0.0000
# 3 24.1611 63.3715 73.0137 0.0000 0.0000 0.0000
# 4 0.0000 0.0000 0.0000 79.4651 0.0000 0.0000
# 5 0.0000 0.0000 0.0000 0.0000 26.1167 0.0000
# 6 0.0000 0.0000 0.0000 0.0000 0.0000 24.9695
#
#
#
# Elastic Compliance Matrix: (Units=1/GPa)
#
#
# Indices 1 2 3 4 5 6 
#
# 1 0.009325 -0.003827 0.000236 0.000000 0.000000 0.000000
# 2 -0.003827 0.008721 -0.006303 0.000000 0.000000 0.000000
# 3 0.000236 -0.006303 0.019089 0.000000 0.000000 0.000000
# 4 0.000000 0.000000 0.000000 0.012584 0.000000 0.000000
# 5 0.000000 0.000000 0.000000 0.000000 0.038290 0.000000
# 6 0.000000 0.000000 0.000000 0.000000 0.000000 0.040049
#
#
# Mechanical properties :
#
#
# Convention : Reuss Voigt Hill
#
# Bulk Modulus (GPa) = 57.64819 82.04692 69.84755
# Shear Modulus (GPa) = 32.54599 42.16037 37.35318
#
# Velocity S-wave (km/s) = 3.68642 4.19574 3.94930
# Velocity P-wave (km/s) = 6.49545 7.59811 7.06831
#
# Compressibility (1/GPa) = 0.01734660
#
# Stress axis : x y z
#
# Youngs Moduli (GPa) = 107.23616 114.66363 52.38661
#
# Poissons Ratio (x) = 0.43879 -0.01234
# Poissons Ratio (y) = 0.41036 0.33020
# Poissons Ratio (z) = -0.02526 0.72274
#
# Static dielectric constant tensor:
#      x y z
#    x 1.818850 0.000000 0.000000 
#    y 0.000000 1.976020 0.000000 
#    z 0.000000 0.000000 2.101610 
# 
# From -- ./inp_files/25615.got.cif
#   From: 2010.05.17/outbox.cif.g08.bks.cpg/sg21_13_cif.got.tgz:25615.got - 2010.06.03 23:14:55.
