data_PCOD9325715
_publ_section_title
;
Structure prediction by ZEFSAII (Michael W. Deem and Ramdas Pophale) SiO2 
 PCOD9325715
Probable space group: C 2 2 2
;
_chemical_formula_sum "Si O2"
_cell_formula_units_Z 34
_cell_length_a 25.031307
_cell_length_b 12.020733
_cell_length_c 4.875089
_cell_angle_alpha 90.000000
_cell_angle_beta 90.000000
_cell_angle_gamma 90.000000
_cell_volume 1466.888238
_symmetry_space_group_name_H-M "C 2 2 2"
_symmetry_group_IT_number 21
_symmetry_cell_setting 'orthorhombic'
loop_
_space_group_symop_operation_xyz
x,y,z
-x,-y,z
x,-y,-z
-x,y,-z
1/2+x,1/2+y,z
1/2-x,1/2-y,z
1/2+x,1/2-y,-z
1/2-x,1/2+y,-z
loop_
_atom_site_type_symbol
_atom_site_label
_atom_site_fract_x
_atom_site_fract_y
_atom_site_fract_z
Si Si1 0.874925 0.000000 0.500000
Si Si2 0.213648 0.650194 0.102209
Si Si3 0.637961 0.876947 0.399815
Si Si4 0.555801 0.683546 0.383842
Si Si5 0.500000 0.500000 0.000000
Si Si6 0.695725 0.500000 0.000000
O O1 0.909601 0.106950 0.408841
O O2 0.842120 0.046264 0.761036
O O3 0.250000 0.750000 0.991539
O O4 0.174810 0.672764 0.356095
O O5 0.176729 0.608109 0.857626
O O6 0.262251 0.569866 0.179855
O O7 0.592183 0.789455 0.315063
O O8 0.619582 0.000000 0.500000
O O9 0.500000 0.727473 0.500000
O O10 0.536132 0.586685 0.174764
#
# Coordination Sequence:
#
# PCOD9325715 Si02
#       6
#     4   8   8   8   2   4
#     4  12  23  42  68 116 138 196 247 316 388 456
#     4  12  24  46  70 107 150 202 254 309 368 463
#     4  12  26  48  74 109 157 205 254 314 390 475
#     4  12  27  46  77 108 155 198 257 338 391 464
#     4  12  24  52  76 116 156 194 276 342 408 446
#     4  12  23  40  71 102 149 188 246 301 378 450
#
# _framework density 23.178317
#
# number of rings (size 3 to 8) (size 9 to 14) (size 15 to 20)
#    0.000    0.000    4.706    5.647    3.294    0.471 
#    0.000    0.000    0.000    0.000    0.000    0.000 
#    0.000    0.000    0.000    0.000    0.000    0.000 
#
# Total GULP energy -94806.740879 kJ/mol
# GULP energy per Si atom -5576.867111 kJ/mol
# Density = 2.312556 g / cm^3
# Si number density = 23.178317 Si / 1000 Ang^3
#
#
#
# Elastic Constant Matrix: (Units=GPa)
#
#
# Indices 1 2 3 4 5 6 
#
# 1 134.8295 70.3177 33.7674 0.0000 0.0000 0.0000
# 2 70.3177 132.2022 18.0816 0.0000 0.0000 0.0000
# 3 33.7674 18.0816 105.3587 0.0000 0.0000 0.0000
# 4 0.0000 0.0000 0.0000 18.4551 0.0000 0.0000
# 5 0.0000 0.0000 0.0000 0.0000 30.1904 0.0000
# 6 0.0000 0.0000 0.0000 0.0000 0.0000 24.1029
#
#
#
# Elastic Compliance Matrix: (Units=1/GPa)
#
#
# Indices 1 2 3 4 5 6 
#
# 1 0.010898 -0.005447 -0.002558 0.000000 0.000000 0.000000
# 2 -0.005447 0.010468 -0.000051 0.000000 0.000000 0.000000
# 3 -0.002558 -0.000051 0.010320 0.000000 0.000000 0.000000
# 4 0.000000 0.000000 0.000000 0.054186 0.000000 0.000000
# 5 0.000000 0.000000 0.000000 0.000000 0.033123 0.000000
# 6 0.000000 0.000000 0.000000 0.000000 0.000000 0.041489
#
#
# Mechanical properties :
#
#
# Convention : Reuss Voigt Hill
#
# Bulk Modulus (GPa) = 64.20583 68.52486 66.36535
# Shear Modulus (GPa) = 27.50474 31.23125 29.36800
#
# Velocity S-wave (km/s) = 3.44853 3.67472 3.56342
# Velocity P-wave (km/s) = 6.60435 6.90168 6.75465
#
# Compressibility (1/GPa) = 0.01557491
#
# Stress axis : x y z
#
# Youngs Moduli (GPa) = 91.75921 95.52704 96.89946
#
# Poissons Ratio (x) = 0.52031 0.24787
# Poissons Ratio (y) = 0.49979 0.00493
# Poissons Ratio (z) = 0.23473 0.00486
#
# Static dielectric constant tensor:
#      x y z
#    x 1.893890 0.000000 0.000000 
#    y 0.000000 1.893330 0.000000 
#    z 0.000000 0.000000 2.023880 
# 
# From -- ./inp_files/6523.got.cif
#   From: 2010.05.17/outbox.cif.g08.bks.cpg/sg21_4_cif.got.tgz:6523.got - 2010.06.03 23:14:55.
