data_PCOD9325890
_publ_section_title
;
Structure prediction by ZEFSAII (Michael W. Deem and Ramdas Pophale) SiO2 
 PCOD9325890
Probable space group: F 2 2 2
;
_chemical_formula_sum "Si O2"
_cell_formula_units_Z 96
_cell_length_a 13.768296
_cell_length_b 20.544976
_cell_length_c 19.190177
_cell_angle_alpha 90.000000
_cell_angle_beta 90.000000
_cell_angle_gamma 90.000000
_cell_volume 5428.312144
_symmetry_space_group_name_H-M "F 2 2 2"
_symmetry_group_IT_number 22
_symmetry_cell_setting 'orthorhombic'
loop_
_space_group_symop_operation_xyz
x,y,z
-x,-y,z
x,-y,-z
-x,y,-z
x,1/2+y,1/2+z
-x,1/2-y,1/2+z
x,1/2-y,1/2-z
-x,1/2+y,1/2-z
1/2+x,y,1/2+z
1/2-x,-y,1/2+z
1/2+x,-y,1/2-z
1/2-x,y,1/2-z
1/2+x,1/2+y,z
1/2-x,1/2-y,z
1/2+x,1/2-y,-z
1/2-x,1/2+y,-z
loop_
_atom_site_type_symbol
_atom_site_label
_atom_site_fract_x
_atom_site_fract_y
_atom_site_fract_z
Si Si1 0.249821 0.877669 0.334548
Si Si2 0.297418 0.478468 0.353284
Si Si3 0.039365 0.833358 0.177144
Si Si4 0.592220 0.951233 0.292968
Si Si5 0.937170 0.690064 0.842371
Si Si6 0.463375 0.428517 0.421699
O O1 0.250000 0.884679 0.250000
O O2 0.361907 0.865626 0.352577
O O3 0.177339 0.820292 0.357110
O O4 0.200520 0.943680 0.362024
O O5 0.359193 0.456795 0.284243
O O6 0.183934 0.467027 0.341080
O O7 0.347750 0.437962 0.414408
O O8 0.026516 0.762766 0.142482
O O9 0.057162 0.820328 0.259290
O O10 0.950393 0.882848 0.180718
O O11 0.500000 0.000000 0.294607
O O12 0.997697 0.632695 0.878478
O O13 0.500000 0.500000 0.395960
O O14 0.500000 0.421480 0.500000
#
# Coordination Sequence:
#
# PCOD9325890 Si02
#       6
#    16  16  16  16  16  16
#     4  10  16  28  49  81 113 144 176 231 287 344
#     4  11  19  30  53  83 116 145 191 235 281 357
#     4  10  19  30  51  82 115 151 178 226 310 353
#     4  11  18  30  52  84 119 153 176 226 309 358
#     4  10  19  32  51  78 118 143 187 239 284 352
#     4  11  22  36  57  82 107 150 198 241 275 327
#
# _framework density 17.685054999999998
#
# number of rings (size 3 to 8) (size 9 to 14) (size 15 to 20)
#    0.000    1.500    6.667    2.000    0.000    2.000 
#    0.000    0.833    0.000    4.000    0.000    7.000 
#    0.000    0.000    0.000    0.000    0.000    0.000 
#
# Total GULP energy -133632.648609 kJ/mol
# GULP energy per Si atom -5568.027025 kJ/mol
# Density = 1.764480 g / cm^3
# Si number density = 17.685055 Si / 1000 Ang^3
#
#
#
# Elastic Constant Matrix: (Units=GPa)
#
#
# Indices 1 2 3 4 5 6 
#
# 1 113.5730 52.0411 19.6538 0.0000 0.0000 0.0000
# 2 52.0411 136.9646 25.2868 0.0000 0.0000 0.0000
# 3 19.6538 25.2868 33.2481 0.0000 0.0000 0.0000
# 4 0.0000 0.0000 0.0000 13.3728 0.0000 0.0000
# 5 0.0000 0.0000 0.0000 0.0000 14.8001 0.0000
# 6 0.0000 0.0000 0.0000 0.0000 0.0000 22.6750
#
#
#
# Elastic Compliance Matrix: (Units=1/GPa)
#
#
# Indices 1 2 3 4 5 6 
#
# 1 0.011078 -0.003490 -0.003894 0.000000 0.000000 0.000000
# 2 -0.003490 0.009593 -0.005233 0.000000 0.000000 0.000000
# 3 -0.003894 -0.005233 0.036359 0.000000 0.000000 0.000000
# 4 0.000000 0.000000 0.000000 0.074778 0.000000 0.000000
# 5 0.000000 0.000000 0.000000 0.000000 0.067567 0.000000
# 6 0.000000 0.000000 0.000000 0.000000 0.000000 0.044102
#
#
# Mechanical properties :
#
#
# Convention : Reuss Voigt Hill
#
# Bulk Modulus (GPa) = 31.45094 53.08323 42.26709
# Shear Modulus (GPa) = 17.90122 22.62318 20.26220
#
# Velocity S-wave (km/s) = 3.18500 3.58051 3.38853
# Velocity P-wave (km/s) = 5.59894 6.86836 6.26588
#
# Compressibility (1/GPa) = 0.03179555
#
# Stress axis : x y z
#
# Youngs Moduli (GPa) = 90.26832 104.23731 27.50365
#
# Poissons Ratio (x) = 0.36382 0.10710
# Poissons Ratio (y) = 0.31506 0.14393
# Poissons Ratio (z) = 0.35150 0.54549
#
# Static dielectric constant tensor:
#      x y z
#    x 1.658080 0.000000 0.000000 
#    y 0.000000 1.654380 0.000000 
#    z 0.000000 0.000000 1.610320 
# 
# From -- ./inp_files/31790.got.cif
#   From: 2010.05.17/outbox.cif.g08.bks.cpg/sg22_16_cif.got.tgz:31790.got - 2010.06.03 23:40:54.
