data_PCOD9325455
_publ_section_title
;
Structure prediction by ZEFSAII (Michael W. Deem and Ramdas Pophale) SiO2 
 PCOD9325455
Probable space group: C 2 2 2
;
_chemical_formula_sum "Si O2"
_cell_formula_units_Z 48
_cell_length_a 8.307930
_cell_length_b 17.838535
_cell_length_c 14.816070
_cell_angle_alpha 90.000000
_cell_angle_beta 90.000000
_cell_angle_gamma 90.000000
_cell_volume 2195.760836
_symmetry_space_group_name_H-M "C 2 2 2"
_symmetry_group_IT_number 21
_symmetry_cell_setting 'orthorhombic'
loop_
_space_group_symop_operation_xyz
x,y,z
-x,-y,z
x,-y,-z
-x,y,-z
1/2+x,1/2+y,z
1/2-x,1/2-y,z
1/2+x,1/2-y,-z
1/2-x,1/2+y,-z
loop_
_atom_site_type_symbol
_atom_site_label
_atom_site_fract_x
_atom_site_fract_y
_atom_site_fract_z
Si Si1 0.849329 0.106446 0.868239
Si Si2 0.202106 0.666565 0.689262
Si Si3 0.824664 0.088651 0.517574
Si Si4 0.786651 0.063463 0.176077
Si Si5 0.324894 0.827179 0.040578
Si Si6 0.601371 0.078431 0.356244
O O1 0.767468 0.153678 0.789134
O O2 0.039314 0.099472 0.846540
O O3 0.787826 0.021146 0.859749
O O4 0.794542 0.140478 0.963250
O O5 0.250000 0.750000 0.660501
O O6 0.283720 0.609321 0.619171
O O7 0.017113 0.642154 0.681785
O O8 0.684032 0.108852 0.447311
O O9 0.000000 0.122393 0.500000
O O10 0.834801 0.000000 0.500000
O O11 0.661593 0.112182 0.119365
O O12 0.737998 0.063380 0.280860
O O13 0.250000 0.750000 0.075263
O O14 0.500000 0.813112 0.000000
O O15 0.500000 0.000000 0.369872
#
# Coordination Sequence:
#
# PCOD9325455 Si02
#       6
#     8   8   8   8   8   8
#     4  11  23  45  68 100 140 181 234 292 355 418
#     4  12  26  42  67 103 141 179 234 294 358 418
#     4  11  23  42  69  99 136 184 235 288 348 419
#     4  11  24  42  71 100 133 183 242 289 343 426
#     4  12  26  43  67  98 140 184 232 292 362 423
#     4  12  23  43  72 102 136 185 244 287 351 429
#
# _framework density 21.860305
#
# number of rings (size 3 to 8) (size 9 to 14) (size 15 to 20)
#    0.000    0.500    3.333    5.000    0.000    7.333 
#    0.000    2.500    0.000    0.000    0.000    0.000 
#    0.000    0.000    0.000    0.000    0.000    0.000 
#
# Total GULP energy -134252.073009 kJ/mol
# GULP energy per Si atom -5593.836375 kJ/mol
# Density = 2.181055 g / cm^3
# Si number density = 21.860305 Si / 1000 Ang^3
#
#
#
# Elastic Constant Matrix: (Units=GPa)
#
#
# Indices 1 2 3 4 5 6 
#
# 1 78.1200 21.1235 6.0551 0.0000 0.0000 0.0000
# 2 21.1235 67.2730 -20.5725 0.0000 0.0000 0.0000
# 3 6.0551 -20.5725 53.2744 0.0000 0.0000 0.0000
# 4 0.0000 0.0000 0.0000 -79.7159 0.0000 0.0000
# 5 0.0000 0.0000 0.0000 0.0000 49.8447 0.0000
# 6 0.0000 0.0000 0.0000 0.0000 0.0000 22.5685
#
#
#
# Elastic Compliance Matrix: (Units=1/GPa)
#
#
# Indices 1 2 3 4 5 6 
#
# 1 0.014673 -0.005802 -0.003908 0.000000 0.000000 0.000000
# 2 -0.005802 0.019150 0.008054 0.000000 0.000000 0.000000
# 3 -0.003908 0.008054 0.022325 0.000000 0.000000 0.000000
# 4 0.000000 0.000000 0.000000 -0.012545 0.000000 0.000000
# 5 0.000000 0.000000 0.000000 0.000000 0.020062 0.000000
# 6 0.000000 0.000000 0.000000 0.000000 0.000000 0.044309
#
#
# Mechanical properties :
#
#
# Convention : Reuss Voigt Hill
#
# Bulk Modulus (GPa) = 18.92678 23.54216 21.23447
# Shear Modulus (GPa) = 38.78998 11.34355 25.06677
#
# Velocity S-wave (km/s) = 4.21699 2.28043 3.38994
# Velocity P-wave (km/s) = 5.69100 4.21029 5.00570
#
# Compressibility (1/GPa) = 0.05283520
#
# Stress axis : x y z
#
# Youngs Moduli (GPa) = 68.15377 52.21986 44.79232
#
# Poissons Ratio (x) = 0.30300 0.17506
# Poissons Ratio (y) = 0.39545 -0.36077
# Poissons Ratio (z) = 0.26637 -0.42060
#
# Static dielectric constant tensor:
#      x y z
#    x 1.857910 0.000000 0.000000 
#    y 0.000000 1.746790 0.000000 
#    z 0.000000 0.000000 1.766650 
# 
# From -- ./inp_files/30484.got.cif
#   From: 2010.05.17/outbox.cif.g08.bks.cpg/sg21_16_cif.got.tgz:30484.got - 2010.06.03 23:14:55.
