data_PCOD9325014
_publ_section_title
;
Structure prediction by ZEFSAII (Michael W. Deem and Ramdas Pophale) SiO2 
 PCOD9325014
Probable space group: C 2 2 2
;
_chemical_formula_sum "Si O2"
_cell_formula_units_Z 38
_cell_length_a 12.077609
_cell_length_b 18.953730
_cell_length_c 9.059275
_cell_angle_alpha 90.000000
_cell_angle_beta 90.000000
_cell_angle_gamma 90.000000
_cell_volume 2073.810641
_symmetry_space_group_name_H-M "C 2 2 2"
_symmetry_group_IT_number 21
_symmetry_cell_setting 'orthorhombic'
loop_
_space_group_symop_operation_xyz
x,y,z
-x,-y,z
x,-y,-z
-x,y,-z
1/2+x,1/2+y,z
1/2-x,1/2-y,z
1/2+x,1/2-y,-z
1/2-x,1/2+y,-z
loop_
_atom_site_type_symbol
_atom_site_label
_atom_site_fract_x
_atom_site_fract_y
_atom_site_fract_z
Si Si1 0.095857 0.908313 0.877045
Si Si2 0.833391 0.030879 0.344329
Si Si3 0.695454 0.101902 0.095372
Si Si4 0.500000 0.000000 0.000000
Si Si5 0.750000 0.250000 0.199467
Si Si6 0.459937 0.673018 0.344135
O O1 0.053582 0.840203 0.782255
O O2 0.116095 0.970500 0.759913
O O3 0.210104 0.906551 0.969194
O O4 0.000000 0.919933 0.000000
O O5 0.741344 0.069270 0.247129
O O6 0.919086 0.093350 0.375356
O O7 0.795415 0.000000 0.500000
O O8 0.691175 0.186280 0.111687
O O9 0.586161 0.056371 0.069451
O O10 0.647721 0.285241 0.287317
O O11 0.500000 0.703456 0.500000
#
# Coordination Sequence:
#
# PCOD9325014 Si02
#       6
#     8   8   8   2   4   8
#     4  12  21  35  67 102 122 159 227 288 337 388
#     4  11  21  34  61  99 129 156 217 284 340 389
#     4  11  25  42  67  93 134 181 222 286 341 419
#     4  12  24  44  68 100 136 178 230 282 356 412
#     4  10  24  46  62  94 142 178 226 276 352 410
#     4  11  23  37  64  95 131 174 215 282 338 409
#
# _framework density 18.323755999999999
#
# number of rings (size 3 to 8) (size 9 to 14) (size 15 to 20)
#    0.000    0.842    8.421    0.632    2.947    1.684 
#    0.000    7.895    0.000    0.000    0.000    0.000 
#    0.000    0.000    0.000    0.000    0.000    0.000 
#
# Total GULP energy -105794.992632 kJ/mol
# GULP energy per Si atom -5568.157507 kJ/mol
# Density = 1.828205 g / cm^3
# Si number density = 18.323756 Si / 1000 Ang^3
#
#
#
# Elastic Constant Matrix: (Units=GPa)
#
#
# Indices 1 2 3 4 5 6 
#
# 1 102.7409 44.4995 51.1835 0.0000 0.0000 0.0000
# 2 44.4995 113.0310 45.0604 0.0000 0.0000 0.0000
# 3 51.1835 45.0604 113.9621 0.0000 0.0000 0.0000
# 4 0.0000 0.0000 0.0000 13.2654 0.0000 0.0000
# 5 0.0000 0.0000 0.0000 0.0000 16.3521 0.0000
# 6 0.0000 0.0000 0.0000 0.0000 0.0000 31.7537
#
#
#
# Elastic Compliance Matrix: (Units=1/GPa)
#
#
# Indices 1 2 3 4 5 6 
#
# 1 0.013592 -0.003463 -0.004735 0.000000 0.000000 0.000000
# 2 -0.003463 0.011385 -0.002946 0.000000 0.000000 0.000000
# 3 -0.004735 -0.002946 0.012066 0.000000 0.000000 0.000000
# 4 0.000000 0.000000 0.000000 0.075384 0.000000 0.000000
# 5 0.000000 0.000000 0.000000 0.000000 0.061154 0.000000
# 6 0.000000 0.000000 0.000000 0.000000 0.000000 0.031492
#
#
# Mechanical properties :
#
#
# Convention : Reuss Voigt Hill
#
# Bulk Modulus (GPa) = 67.77695 67.91341 67.84518
# Shear Modulus (GPa) = 21.52550 24.87361 23.19955
#
# Velocity S-wave (km/s) = 3.43115 3.68836 3.56208
# Velocity P-wave (km/s) = 7.26402 7.43520 7.35011
#
# Compressibility (1/GPa) = 0.01475428
#
# Stress axis : x y z
#
# Youngs Moduli (GPa) = 73.57090 87.83351 82.87427
#
# Poissons Ratio (x) = 0.30421 0.39243
# Poissons Ratio (y) = 0.25481 0.24416
# Poissons Ratio (z) = 0.34838 0.25877
#
# Static dielectric constant tensor:
#      x y z
#    x 1.659700 0.000000 0.000000 
#    y 0.000000 1.659470 0.000000 
#    z 0.000000 0.000000 1.674180 
# 
# From -- ./inp_files/12769.got.cif
#   From: 2010.05.17/outbox.cif.g08.bks.cpg/sg21_7_cif.got.tgz:12769.got - 2010.06.03 23:14:55.
