data_PCOD9325079
_publ_section_title
;
Structure prediction by ZEFSAII (Michael W. Deem and Ramdas Pophale) SiO2 
 PCOD9325079
Probable space group: C 2 2 2
;
_chemical_formula_sum "Si O2"
_cell_formula_units_Z 44
_cell_length_a 7.253483
_cell_length_b 14.582654
_cell_length_c 18.945123
_cell_angle_alpha 90.000000
_cell_angle_beta 90.000000
_cell_angle_gamma 90.000000
_cell_volume 2003.921008
_symmetry_space_group_name_H-M "C 2 2 2"
_symmetry_group_IT_number 21
_symmetry_cell_setting 'orthorhombic'
loop_
_space_group_symop_operation_xyz
x,y,z
-x,-y,z
x,-y,-z
-x,y,-z
1/2+x,1/2+y,z
1/2-x,1/2-y,z
1/2+x,1/2-y,-z
1/2-x,1/2+y,-z
loop_
_atom_site_type_symbol
_atom_site_label
_atom_site_fract_x
_atom_site_fract_y
_atom_site_fract_z
Si Si1 0.233578 0.847992 0.374391
Si Si2 0.280810 0.857483 0.004131
Si Si3 0.719852 0.995310 0.113267
Si Si4 0.800080 0.856595 0.398071
Si Si5 0.500000 0.117740 0.500000
Si Si6 0.716050 0.484614 0.721137
O O1 0.250000 0.750000 0.335830
O O2 0.125862 0.662480 0.439495
O O3 0.296847 0.930010 0.323145
O O4 0.023216 0.865552 0.402156
O O5 0.250000 0.750000 0.006086
O O6 0.211322 0.910318 0.934284
O O7 0.500000 0.868460 0.000000
O O8 0.213463 0.912914 0.073064
O O9 0.753987 0.986431 0.195879
O O10 0.500000 0.000000 0.108030
O O11 0.750000 0.750000 0.410556
O O12 0.671538 0.918064 0.450582
O O13 0.743470 0.890625 0.320032
O O14 0.500000 0.500000 0.712142
#
# Coordination Sequence:
#
# PCOD9325079 Si02
#       6
#     8   8   8   8   4   8
#     4  11  24  41  62  90 121 158 207 262 309 373
#     4   9  19  37  60  96 120 155 203 243 288 355
#     4   9  20  38  62  83 125 162 197 243 294 355
#     4  11  24  41  62  90 121 158 207 262 309 373
#     4  12  24  41  68  87 120 158 212 251 336 345
#     4  10  25  43  58  88 127 158 204 250 303 363
#
# _framework density 21.956952999999999
#
# number of rings (size 3 to 8) (size 9 to 14) (size 15 to 20)
#    0.000    1.818    1.818    2.182    2.545    4.364 
#    0.000   11.818    0.000    0.000    0.000    0.000 
#    0.000    0.000    0.000    0.000    0.000    0.000 
#
# Total GULP energy -122541.151619 kJ/mol
# GULP energy per Si atom -5570.052346 kJ/mol
# Density = 2.190698 g / cm^3
# Si number density = 21.956953 Si / 1000 Ang^3
#
#
#
# Elastic Constant Matrix: (Units=GPa)
#
#
# Indices 1 2 3 4 5 6 
#
# 1 129.0828 3.8989 19.5453 0.0000 0.0000 0.0000
# 2 3.8989 123.4045 74.5742 0.0000 0.0000 0.0000
# 3 19.5453 74.5742 171.4572 0.0000 0.0000 0.0000
# 4 0.0000 0.0000 0.0000 16.1644 0.0000 0.0000
# 5 0.0000 0.0000 0.0000 0.0000 -0.9994 0.0000
# 6 0.0000 0.0000 0.0000 0.0000 0.0000 17.7255
#
#
#
# Elastic Compliance Matrix: (Units=1/GPa)
#
#
# Indices 1 2 3 4 5 6 
#
# 1 0.007898 0.000400 -0.001074 0.000000 0.000000 0.000000
# 2 0.000400 0.011013 -0.004836 0.000000 0.000000 0.000000
# 3 -0.001074 -0.004836 0.008058 0.000000 0.000000 0.000000
# 4 0.000000 0.000000 0.000000 0.061864 0.000000 0.000000
# 5 0.000000 0.000000 0.000000 0.000000 -1.000589 0.000000
# 6 0.000000 0.000000 0.000000 0.000000 0.000000 0.056416
#
#
# Mechanical properties :
#
#
# Convention : Reuss Voigt Hill
#
# Bulk Modulus (GPa) = 62.70250 68.88683 65.79467
# Shear Modulus (GPa) = -5.95944 28.30651 11.17353
#
# Velocity S-wave (km/s) = -1.64925 3.59441 2.25829
# Velocity P-wave (km/s) = 4.99923 6.97625 6.06879
#
# Compressibility (1/GPa) = 0.01594833
#
# Stress axis : x y z
#
# Youngs Moduli (GPa) = 126.62194 90.80192 124.10030
#
# Poissons Ratio (x) = -0.03628 0.13329
# Poissons Ratio (y) = -0.05059 0.60010
# Poissons Ratio (z) = 0.13600 0.43908
#
# Static dielectric constant tensor:
#      x y z
#    x 1.869780 0.000000 0.000000 
#    y 0.000000 1.955450 0.000000 
#    z 0.000000 0.000000 1.808550 
# 
# From -- ./inp_files/35598.got.cif
#   From: 2010.05.17/outbox.cif.g08.bks.cpg/sg21_18_cif.got.tgz:35598.got - 2010.06.03 23:14:55.
