data_PCOD9325452
_publ_section_title
;
Structure prediction by ZEFSAII (Michael W. Deem and Ramdas Pophale) SiO2 
 PCOD9325452
Probable space group: C 2 2 2
;
_chemical_formula_sum "Si O2"
_cell_formula_units_Z 54
_cell_length_a 14.564997
_cell_length_b 5.546150
_cell_length_c 29.843158
_cell_angle_alpha 90.000000
_cell_angle_beta 90.000000
_cell_angle_gamma 90.000000
_cell_volume 2410.720100
_symmetry_space_group_name_H-M "C 2 2 2"
_symmetry_group_IT_number 21
_symmetry_cell_setting 'orthorhombic'
loop_
_space_group_symop_operation_xyz
x,y,z
-x,-y,z
x,-y,-z
-x,y,-z
1/2+x,1/2+y,z
1/2-x,1/2-y,z
1/2+x,1/2-y,-z
1/2-x,1/2+y,-z
loop_
_atom_site_type_symbol
_atom_site_label
_atom_site_fract_x
_atom_site_fract_y
_atom_site_fract_z
Si Si1 0.000000 0.500000 0.500000
Si Si2 0.397125 0.101381 0.722102
Si Si3 0.250000 0.750000 0.736729
Si Si4 0.888384 0.996711 0.900898
Si Si5 0.612208 0.998703 0.051751
Si Si6 0.559038 0.261919 0.370727
Si Si7 0.352295 0.317842 0.540549
Si Si8 0.110085 0.045311 0.796910
O O1 0.931739 0.629186 0.532894
O O2 0.407488 0.282081 0.680635
O O3 0.372734 0.205521 0.770904
O O4 0.500000 0.000000 0.726921
O O5 0.312867 0.930629 0.708600
O O6 0.327685 0.633923 0.768362
O O7 0.859215 0.251279 0.923118
O O8 0.858854 0.750975 0.925655
O O9 0.863712 0.972590 0.848713
O O10 0.000000 0.000000 0.902854
O O11 0.500000 0.000000 0.052408
O O12 0.641479 0.000000 0.000000
O O13 0.500000 0.500000 0.380260
O O14 0.641179 0.320060 0.405663
O O15 0.500000 0.000000 0.373200
O O16 0.377854 0.500000 0.500000
O O17 0.250000 0.250000 0.528528
O O18 0.000000 0.000000 0.793189
#
# Coordination Sequence:
#
# PCOD9325452 Si02
#       8
#     2   8   4   8   8   8   8   8
#     4  12  22  48  68 104 152 188 238 316 362 430
#     4  11  25  47  76 106 152 194 249 304 372 441
#     4  12  26  44  74 106 140 202 240 302 368 436
#     4   9  19  30  54  86 128 178 226 288 357 422
#     4   9  16  29  49  83 127 173 226 289 354 423
#     4  11  26  50  79 112 151 203 247 306 378 438
#     4  12  26  46  78 112 148 198 252 305 372 443
#     4  11  23  42  68 100 145 190 242 301 366 438
#
# _framework density 22.399947000000001
#
# number of rings (size 3 to 8) (size 9 to 14) (size 15 to 20)
#    0.000    1.333    2.963    2.444    4.148    3.556 
#    0.000    0.000    1.630    0.000    0.000    2.074 
#    0.000    0.000    0.000    0.000    0.000    0.000 
#
# Total GULP energy -150352.704951 kJ/mol
# GULP energy per Si atom -5568.618702 kJ/mol
# Density = 2.234896 g / cm^3
# Si number density = 22.399947 Si / 1000 Ang^3
#
#
#
# Elastic Constant Matrix: (Units=GPa)
#
#
# Indices 1 2 3 4 5 6 
#
# 1 94.2869 12.6490 -5.2160 0.0000 0.0000 0.0000
# 2 12.6490 96.1486 19.4542 0.0000 0.0000 0.0000
# 3 -5.2160 19.4542 97.3467 0.0000 0.0000 0.0000
# 4 0.0000 0.0000 0.0000 19.7506 0.0000 0.0000
# 5 0.0000 0.0000 0.0000 0.0000 -2.1859 0.0000
# 6 0.0000 0.0000 0.0000 0.0000 0.0000 16.7109
#
#
#
# Elastic Compliance Matrix: (Units=1/GPa)
#
#
# Indices 1 2 3 4 5 6 
#
# 1 0.010872 -0.001613 0.000905 0.000000 0.000000 0.000000
# 2 -0.001613 0.011078 -0.002300 0.000000 0.000000 0.000000
# 3 0.000905 -0.002300 0.010781 0.000000 0.000000 0.000000
# 4 0.000000 0.000000 0.000000 0.050631 0.000000 0.000000
# 5 0.000000 0.000000 0.000000 0.000000 -0.457477 0.000000
# 6 0.000000 0.000000 0.000000 0.000000 0.000000 0.059841
#
#
# Mechanical properties :
#
#
# Convention : Reuss Voigt Hill
#
# Bulk Modulus (GPa) = 37.43380 37.95072 37.69226
# Shear Modulus (GPa) = -16.70282 24.24811 3.77265
#
# Velocity S-wave (km/s) = -2.73365 3.29372 1.29918
# Velocity P-wave (km/s) = 2.60463 5.60748 4.37195
#
# Compressibility (1/GPa) = 0.02671382
#
# Stress axis : x y z
#
# Youngs Moduli (GPa) = 91.97568 90.26674 92.75773
#
# Poissons Ratio (x) = 0.14564 -0.08395
# Poissons Ratio (y) = 0.14840 0.21338
# Poissons Ratio (z) = -0.08324 0.20765
#
# Static dielectric constant tensor:
#      x y z
#    x 1.821100 0.000000 0.000000 
#    y 0.000000 1.964240 0.000000 
#    z 0.000000 0.000000 1.646800 
# 
# From -- ./inp_files/39604.got.cif
#   From: 2010.05.17/outbox.cif.g08.bks.cpg/sg21_20_cif.got.tgz:39604.got - 2010.06.03 23:14:55.
