data_PCOD9325833
_publ_section_title
;
Structure prediction by ZEFSAII (Michael W. Deem and Ramdas Pophale) SiO2 
 PCOD9325833
Probable space group: C 2 2 2
;
_chemical_formula_sum "Si O2"
_cell_formula_units_Z 28
_cell_length_a 12.000000
_cell_length_b 15.000000
_cell_length_c 15.000000
_cell_angle_alpha 90.000000
_cell_angle_beta 90.000000
_cell_angle_gamma 90.000000
_cell_volume 2700.000000
_symmetry_space_group_name_H-M "C 2 2 2"
_symmetry_group_IT_number 21
_symmetry_cell_setting 'orthorhombic'
loop_
_space_group_symop_operation_xyz
x,y,z
-x,-y,z
x,-y,-z
-x,y,-z
1/2+x,1/2+y,z
1/2-x,1/2-y,z
1/2+x,1/2-y,-z
1/2-x,1/2+y,-z
loop_
_atom_site_type_symbol
_atom_site_label
_atom_site_fract_x
_atom_site_fract_y
_atom_site_fract_z
Si Si1 0.140193 0.588031 0.335963
Si Si2 0.149687 0.311367 0.117798
Si Si3 0.021226 0.857528 0.895913
Si Si4 0.267778 0.473522 0.094737
Si Si5 0.284369 0.650454 0.188419
Si Si6 0.628703 0.795299 0.495127
Si Si7 0.611423 0.881463 0.306470
O O1 0.241855 0.639495 0.289282
O O2 0.125290 0.620922 0.437025
O O3 0.151761 0.482318 0.323863
O O4 0.022115 0.614358 0.290961
O O5 0.250000 0.250000 0.082260
O O6 0.045777 0.248119 0.107287
O O7 0.164659 0.407695 0.076049
O O8 0.164713 0.335431 0.221362
O O9 0.128730 0.915654 0.864293
O O10 0.913135 0.868661 0.834561
O O11 0.000000 0.877274 0.000000
O O12 0.229702 0.563218 0.142876
O O13 0.314030 0.500000 0.000000
O O14 0.250000 0.750000 0.157558
O O15 0.500000 0.753695 0.500000
O O16 0.750000 0.750000 0.515189
O O17 0.635940 0.826188 0.393942
#
# Coordination Sequence:
#
# PCOD9325833 Si02
#       7
#     8   8   8   8   8   8   8
#     4  10  21  38  62  92 126 163 214 269 336 403
#     4  10  22  39  60  87 121 159 208 266 321 388
#     4  11  24  40  63  90 126 171 224 271 339 408
#     4  11  23  41  63  86 122 171 219 271 332 400
#     4  12  24  38  63  92 126 168 216 277 327 395
#     4  10  21  38  67  95 130 172 220 277 345 420
#     4  10  19  39  62  92 124 165 213 267 333 407
#
# _framework density 10.370369999999999
#
# number of rings (size 3 to 8) (size 9 to 14) (size 15 to 20)
#    0.000    1.429    2.857    2.571    2.000    2.857 
#    0.000    0.000    0.000    0.857    0.000    0.000 
#    0.000    0.000    0.000    0.000    0.000    0.000 
#
# Total GULP energy -155871.536870 kJ/mol
# GULP energy per Si atom -5566.840602 kJ/mol
# Density = 1.034677 g / cm^3
# Si number density = 10.370370 Si / 1000 Ang^3
#
#
#
# Elastic Constant Matrix: (Units=GPa)
#
#
# Indices 1 2 3 4 5 6 
#
# 1 67.0747 13.2140 24.4673 0.0000 0.0000 0.0000
# 2 13.2140 100.0074 13.1996 0.0000 0.0000 0.0000
# 3 24.4673 13.1996 64.2287 0.0000 0.0000 0.0000
# 4 0.0000 0.0000 0.0000 21.3219 0.0000 0.0000
# 5 0.0000 0.0000 0.0000 0.0000 24.2880 0.0000
# 6 0.0000 0.0000 0.0000 0.0000 0.0000 25.9369
#
#
#
# Elastic Compliance Matrix: (Units=1/GPa)
#
#
# Indices 1 2 3 4 5 6 
#
# 1 0.017524 -0.001474 -0.006373 0.000000 0.000000 0.000000
# 2 -0.001474 0.010402 -0.001576 0.000000 0.000000 0.000000
# 3 -0.006373 -0.001576 0.018321 0.000000 0.000000 0.000000
# 4 0.000000 0.000000 0.000000 0.046900 0.000000 0.000000
# 5 0.000000 0.000000 0.000000 0.000000 0.041173 0.000000
# 6 0.000000 0.000000 0.000000 0.000000 0.000000 0.038555
#
#
# Mechanical properties :
#
#
# Convention : Reuss Voigt Hill
#
# Bulk Modulus (GPa) = 36.49532 37.00806 36.75169
# Shear Modulus (GPa) = 24.89370 26.33802 25.61586
#
# Velocity S-wave (km/s) = 3.46820 3.56739 3.51814
# Velocity P-wave (km/s) = 5.80276 5.90341 5.85330
#
# Compressibility (1/GPa) = 0.02740077
#
# Stress axis : x y z
#
# Youngs Moduli (GPa) = 57.06536 96.13453 54.58271
#
# Poissons Ratio (x) = 0.14173 0.34783
# Poissons Ratio (y) = 0.08413 0.08603
# Poissons Ratio (z) = 0.36365 0.15152
#
# Static dielectric constant tensor:
#      x y z
#    x 1.806440 0.000000 0.000000 
#    y 0.000000 1.811380 0.000000 
#    z 0.000000 0.000000 1.756080 
# 
# From -- ./inp_files/31583.got.cif
#   From: 2010.05.17/outbox.ucp.g08.bks.cvg/sg21_16_cif.got.tgz:31583.got - 2010.06.11 15:15:05.
