data_PCOD9325116
_publ_section_title
;
Structure prediction by ZEFSAII (Michael W. Deem and Ramdas Pophale) SiO2 
 PCOD9325116
Probable space group: C 2 2 2
;
_chemical_formula_sum "Si O2"
_cell_formula_units_Z 32
_cell_length_a 13.090932
_cell_length_b 5.340128
_cell_length_c 17.398402
_cell_angle_alpha 90.000000
_cell_angle_beta 90.000000
_cell_angle_gamma 90.000000
_cell_volume 1216.274482
_symmetry_space_group_name_H-M "C 2 2 2"
_symmetry_group_IT_number 21
_symmetry_cell_setting 'orthorhombic'
loop_
_space_group_symop_operation_xyz
x,y,z
-x,-y,z
x,-y,-z
-x,y,-z
1/2+x,1/2+y,z
1/2-x,1/2-y,z
1/2+x,1/2-y,-z
1/2-x,1/2+y,-z
loop_
_atom_site_type_symbol
_atom_site_label
_atom_site_fract_x
_atom_site_fract_y
_atom_site_fract_z
Si Si1 0.250000 0.750000 0.794582
Si Si2 0.105866 0.650909 0.222749
Si Si3 0.120878 0.965444 0.085517
Si Si4 0.000000 0.000000 0.329227
Si Si5 0.633332 0.248674 0.448710
O O1 0.194856 0.530212 0.747317
O O2 0.334651 0.662704 0.855561
O O3 0.133892 0.709973 0.133936
O O4 0.000000 0.500000 0.229354
O O5 0.086344 0.913410 0.266953
O O6 0.000000 0.000000 0.080270
O O7 0.163625 0.000000 0.000000
O O8 0.038909 0.786607 0.389722
O O9 0.631253 0.500000 0.500000
O O10 0.750000 0.250000 0.415223
O O11 0.623922 0.000000 0.500000
#
# Coordination Sequence:
#
# PCOD9325116 Si02
#       5
#     4   8   8   4   8
#     4  12  26  46  78 104 162 210 278 336 422 488
#     4  12  26  49  70 117 159 214 276 346 423 505
#     4  11  25  48  73 108 153 209 277 343 409 489
#     4  12  27  46  83 116 166 222 268 336 431 506
#     4  10  25  50  80 123 163 207 273 342 413 507
#
# _framework density 26.309850999999998
#
# number of rings (size 3 to 8) (size 9 to 14) (size 15 to 20)
#    0.000    0.750    3.750    1.125    7.000    5.000 
#    2.250    0.000    0.000    0.000    0.000    0.000 
#    0.000    0.000    0.000    0.000    0.000    0.000 
#
# Total GULP energy -89157.715035 kJ/mol
# GULP energy per Si atom -5572.357190 kJ/mol
# Density = 2.624997 g / cm^3
# Si number density = 26.309851 Si / 1000 Ang^3
#
#
#
# Elastic Constant Matrix: (Units=GPa)
#
#
# Indices 1 2 3 4 5 6 
#
# 1 157.3848 62.3589 46.4269 0.0000 0.0000 0.0000
# 2 62.3589 171.9579 72.3014 0.0000 0.0000 0.0000
# 3 46.4269 72.3014 147.6106 0.0000 0.0000 0.0000
# 4 0.0000 0.0000 0.0000 21.5136 0.0000 0.0000
# 5 0.0000 0.0000 0.0000 0.0000 22.1899 0.0000
# 6 0.0000 0.0000 0.0000 0.0000 0.0000 67.0497
#
#
#
# Elastic Compliance Matrix: (Units=1/GPa)
#
#
# Indices 1 2 3 4 5 6 
#
# 1 0.007617 -0.002210 -0.001313 0.000000 0.000000 0.000000
# 2 -0.002210 0.007965 -0.003206 0.000000 0.000000 0.000000
# 3 -0.001313 -0.003206 0.008758 0.000000 0.000000 0.000000
# 4 0.000000 0.000000 0.000000 0.046482 0.000000 0.000000
# 5 0.000000 0.000000 0.000000 0.000000 0.045066 0.000000
# 6 0.000000 0.000000 0.000000 0.000000 0.000000 0.014914
#
#
# Mechanical properties :
#
#
# Convention : Reuss Voigt Hill
#
# Bulk Modulus (GPa) = 91.90340 93.23641 92.56991
# Shear Modulus (GPa) = 33.80940 41.87505 37.84222
#
# Velocity S-wave (km/s) = 3.58864 3.99383 3.79665
# Velocity P-wave (km/s) = 7.22345 7.53540 7.38107
#
# Compressibility (1/GPa) = 0.01088099
#
# Stress axis : x y z
#
# Youngs Moduli (GPa) = 131.28717 125.55072 114.18086
#
# Poissons Ratio (x) = 0.27747 0.14994
# Poissons Ratio (y) = 0.29015 0.36609
# Poissons Ratio (z) = 0.17240 0.40254
#
# Static dielectric constant tensor:
#      x y z
#    x 2.122220 0.000000 0.000000 
#    y 0.000000 2.208130 0.000000 
#    z 0.000000 0.000000 2.093440 
# 
# From -- ./inp_files/36450.got.cif
#   From: 2010.05.17/outbox.cif.g08.bks.cpg/sg21_19_cif.got.tgz:36450.got - 2010.06.03 23:14:55.
