data_PCOD9325680
_publ_section_title
;
Structure prediction by ZEFSAII (Michael W. Deem and Ramdas Pophale) SiO2 
 PCOD9325680
Probable space group: C 2 2 2
;
_chemical_formula_sum "Si O2"
_cell_formula_units_Z 34
_cell_length_a 20.991147
_cell_length_b 5.485661
_cell_length_c 11.883952
_cell_angle_alpha 90.000000
_cell_angle_beta 90.000000
_cell_angle_gamma 90.000000
_cell_volume 1368.440833
_symmetry_space_group_name_H-M "C 2 2 2"
_symmetry_group_IT_number 21
_symmetry_cell_setting 'orthorhombic'
loop_
_space_group_symop_operation_xyz
x,y,z
-x,-y,z
x,-y,-z
-x,y,-z
1/2+x,1/2+y,z
1/2-x,1/2-y,z
1/2+x,1/2-y,-z
1/2-x,1/2+y,-z
loop_
_atom_site_type_symbol
_atom_site_label
_atom_site_fract_x
_atom_site_fract_y
_atom_site_fract_z
Si Si1 0.406296 0.120160 0.616224
Si Si2 0.675335 0.304568 0.187966
Si Si3 0.942449 0.914568 0.132601
Si Si4 0.106619 0.500000 0.000000
Si Si5 0.000000 0.500000 0.800343
Si Si6 0.000000 0.000000 0.500000
O O1 0.348670 0.208917 0.692323
O O2 0.453812 0.333966 0.575711
O O3 0.385711 0.000000 0.500000
O O4 0.444583 0.943223 0.700779
O O5 0.750000 0.250000 0.185071
O O6 0.630845 0.549654 0.176150
O O7 0.650690 0.163061 0.077032
O O8 0.941613 0.609781 0.094985
O O9 0.020090 0.816342 0.175521
O O10 0.939313 0.000000 0.000000
#
# Coordination Sequence:
#
# PCOD9325680 Si02
#       6
#     8   8   8   4   4   2
#     4  12  24  45  72 108 147 186 252 314 374 455
#     4  12  30  50  72 107 153 206 256 310 387 462
#     4  12  25  46  78 110 151 193 251 324 387 451
#     4  12  28  47  76 106 147 196 254 312 377 458
#     4  12  21  45  72 114 148 183 247 320 374 446
#     4  12  22  40  84 106 142 196 242 314 396 436
#
# _framework density 24.845794000000001
#
# number of rings (size 3 to 8) (size 9 to 14) (size 15 to 20)
#    0.000    0.000    7.059    2.118    3.294    7.059 
#    2.118    0.000    0.000    0.000    0.000    0.000 
#    0.000    0.000    0.000    0.000    0.000    0.000 
#
# Total GULP energy -94634.683875 kJ/mol
# GULP energy per Si atom -5566.746110 kJ/mol
# Density = 2.478924 g / cm^3
# Si number density = 24.845794 Si / 1000 Ang^3
#
#
#
# Elastic Constant Matrix: (Units=GPa)
#
#
# Indices 1 2 3 4 5 6 
#
# 1 257.9959 80.4595 68.9494 0.0000 0.0000 0.0000
# 2 80.4595 151.1330 58.3738 0.0000 0.0000 0.0000
# 3 68.9494 58.3738 226.0974 0.0000 0.0000 0.0000
# 4 0.0000 0.0000 0.0000 54.8424 0.0000 0.0000
# 5 0.0000 0.0000 0.0000 0.0000 46.7775 0.0000
# 6 0.0000 0.0000 0.0000 0.0000 0.0000 21.4946
#
#
#
# Elastic Compliance Matrix: (Units=1/GPa)
#
#
# Indices 1 2 3 4 5 6 
#
# 1 0.004805 -0.002213 -0.000894 0.000000 0.000000 0.000000
# 2 -0.002213 0.008369 -0.001486 0.000000 0.000000 0.000000
# 3 -0.000894 -0.001486 0.005079 0.000000 0.000000 0.000000
# 4 0.000000 0.000000 0.000000 0.018234 0.000000 0.000000
# 5 0.000000 0.000000 0.000000 0.000000 0.021378 0.000000
# 6 0.000000 0.000000 0.000000 0.000000 0.000000 0.046523
#
#
# Mechanical properties :
#
#
# Convention : Reuss Voigt Hill
#
# Bulk Modulus (GPa) = 110.28357 116.75466 113.51912
# Shear Modulus (GPa) = 42.88320 53.11912 48.00116
#
# Velocity S-wave (km/s) = 4.15899 4.62882 4.40018
# Velocity P-wave (km/s) = 8.21867 8.69837 8.46192
#
# Compressibility (1/GPa) = 0.00906753
#
# Stress axis : x y z
#
# Youngs Moduli (GPa) = 208.11463 119.49435 196.88468
#
# Poissons Ratio (x) = 0.26441 0.17602
# Poissons Ratio (y) = 0.46051 0.29253
# Poissons Ratio (z) = 0.18606 0.17755
#
# Static dielectric constant tensor:
#      x y z
#    x 1.976850 0.000000 0.000000 
#    y 0.000000 2.845010 0.000000 
#    z 0.000000 0.000000 1.906940 
# 
# From -- ./inp_files/27178.got.cif
#   From: 2010.05.17/outbox.cif.g08.bks.cpg/sg21_14_cif.got.tgz:27178.got - 2010.06.03 23:14:55.
