data_PCOD9325057
_publ_section_title
;
Structure prediction by ZEFSAII (Michael W. Deem and Ramdas Pophale) SiO2 
 PCOD9325057
Probable space group: C 2 2 2
;
_chemical_formula_sum "Si O2"
_cell_formula_units_Z 32
_cell_length_a 13.862758
_cell_length_b 6.077161
_cell_length_c 16.144712
_cell_angle_alpha 90.000000
_cell_angle_beta 90.000000
_cell_angle_gamma 90.000000
_cell_volume 1360.130834
_symmetry_space_group_name_H-M "C 2 2 2"
_symmetry_group_IT_number 21
_symmetry_cell_setting 'orthorhombic'
loop_
_space_group_symop_operation_xyz
x,y,z
-x,-y,z
x,-y,-z
-x,y,-z
1/2+x,1/2+y,z
1/2-x,1/2-y,z
1/2+x,1/2-y,-z
1/2-x,1/2+y,-z
loop_
_atom_site_type_symbol
_atom_site_label
_atom_site_fract_x
_atom_site_fract_y
_atom_site_fract_z
Si Si1 0.110304 0.932665 0.736655
Si Si2 0.250000 0.250000 0.632459
Si Si3 0.500000 0.500000 0.500000
Si Si4 0.500000 0.000000 0.000000
Si Si5 0.358004 0.334947 0.074875
Si Si6 0.645161 0.840689 0.407181
O O1 0.130785 0.931783 0.833791
O O2 0.125721 0.698394 0.691042
O O3 0.184708 0.091078 0.688747
O O4 0.000000 0.000000 0.724289
O O5 0.168167 0.397695 0.584064
O O6 0.567045 0.674268 0.448425
O O7 0.432692 0.859169 0.940114
O O8 0.250000 0.250000 0.065811
O O9 0.377524 0.500000 0.000000
O O10 0.750000 0.750000 0.428475
#
# Coordination Sequence:
#
# PCOD9325057 Si02
#       6
#     8   4   2   2   8   8
#     4  11  24  46  74 110 151 206 261 319 400 483
#     4  10  24  48  78 110 160 202 256 336 394 492
#     4  12  24  56  86 114 164 218 264 344 410 498
#     4  12  26  48  68 108 148 202 258 340 376 464
#     4  12  26  44  72 108 155 203 265 324 395 460
#     4  10  24  51  78 117 155 205 266 327 410 484
#
# _framework density 23.527146999999999
#
# number of rings (size 3 to 8) (size 9 to 14) (size 15 to 20)
#    0.000    1.000    2.500    4.125    1.750    7.000 
#    9.000    7.500    0.000    0.000    0.000    0.000 
#    0.000    0.000    0.000    0.000    0.000    0.000 
#
# Total GULP energy -89422.429913 kJ/mol
# GULP energy per Si atom -5588.901870 kJ/mol
# Density = 2.347360 g / cm^3
# Si number density = 23.527147 Si / 1000 Ang^3
#
#
#
# Elastic Constant Matrix: (Units=GPa)
#
#
# Indices 1 2 3 4 5 6 
#
# 1 179.0873 70.9609 52.8795 0.0000 0.0000 0.0000
# 2 70.9609 127.6646 69.9256 0.0000 0.0000 0.0000
# 3 52.8795 69.9256 153.3905 0.0000 0.0000 0.0000
# 4 0.0000 0.0000 0.0000 54.5945 0.0000 0.0000
# 5 0.0000 0.0000 0.0000 0.0000 48.6241 0.0000
# 6 0.0000 0.0000 0.0000 0.0000 0.0000 52.7042
#
#
#
# Elastic Compliance Matrix: (Units=1/GPa)
#
#
# Indices 1 2 3 4 5 6 
#
# 1 0.007250 -0.003546 -0.000883 0.000000 0.000000 0.000000
# 2 -0.003546 0.012174 -0.004327 0.000000 0.000000 0.000000
# 3 -0.000883 -0.004327 0.008796 0.000000 0.000000 0.000000
# 4 0.000000 0.000000 0.000000 0.018317 0.000000 0.000000
# 5 0.000000 0.000000 0.000000 0.000000 0.020566 0.000000
# 6 0.000000 0.000000 0.000000 0.000000 0.000000 0.018974
#
#
# Mechanical properties :
#
#
# Convention : Reuss Voigt Hill
#
# Bulk Modulus (GPa) = 93.38911 94.18605 93.78758
# Shear Modulus (GPa) = 46.65982 48.94297 47.80140
#
# Velocity S-wave (km/s) = 4.45818 4.56595 4.51239
# Velocity P-wave (km/s) = 8.14131 8.24118 8.19140
#
# Compressibility (1/GPa) = 0.01070789
#
# Stress axis : x y z
#
# Youngs Moduli (GPa) = 137.93844 82.13986 113.68419
#
# Poissons Ratio (x) = 0.29128 0.10034
# Poissons Ratio (y) = 0.48915 0.49196
# Poissons Ratio (z) = 0.12175 0.35545
#
# Static dielectric constant tensor:
#      x y z
#    x 1.836720 0.000000 0.000000 
#    y 0.000000 2.006510 0.000000 
#    z 0.000000 0.000000 2.075590 
# 
# From -- ./inp_files/36472.got.cif
#   From: 2010.05.17/outbox.cif.g08.bks.cpg/sg21_19_cif.got.tgz:36472.got - 2010.06.03 23:14:55.
