data_PCOD9325977
_publ_section_title
;
Structure prediction by ZEFSAII (Michael W. Deem and Ramdas Pophale) SiO2 
 PCOD9325977
Probable space group: F 2 2 2
;
_chemical_formula_sum "Si O2"
_cell_formula_units_Z 64
_cell_length_a 14.497391
_cell_length_b 17.392705
_cell_length_c 11.742601
_cell_angle_alpha 90.000000
_cell_angle_beta 90.000000
_cell_angle_gamma 90.000000
_cell_volume 2960.883279
_symmetry_space_group_name_H-M "F 2 2 2"
_symmetry_group_IT_number 22
_symmetry_cell_setting 'orthorhombic'
loop_
_space_group_symop_operation_xyz
x,y,z
-x,-y,z
x,-y,-z
-x,y,-z
x,1/2+y,1/2+z
-x,1/2-y,1/2+z
x,1/2-y,1/2-z
-x,1/2+y,1/2-z
1/2+x,y,1/2+z
1/2-x,-y,1/2+z
1/2+x,-y,1/2-z
1/2-x,y,1/2-z
1/2+x,1/2+y,z
1/2-x,1/2-y,z
1/2+x,1/2-y,-z
1/2-x,1/2+y,-z
loop_
_atom_site_type_symbol
_atom_site_label
_atom_site_fract_x
_atom_site_fract_y
_atom_site_fract_z
Si Si1 0.500000 0.129375 0.500000
Si Si2 0.526757 0.102305 0.130996
Si Si3 0.349902 0.260539 0.561798
Si Si4 0.500000 0.500000 0.811564
Si Si5 0.337837 0.329868 0.314069
O O1 0.413782 0.186165 0.532055
O O2 0.476690 0.070280 0.397627
O O3 0.585872 0.179705 0.128374
O O4 0.568631 0.039838 0.217372
O O5 0.428704 0.121227 0.185888
O O6 0.500000 0.082233 0.000000
O O7 0.250000 0.250000 0.617202
O O8 0.323789 0.305749 0.444717
O O9 0.355937 0.250000 0.250000
O O10 0.250000 0.364757 0.250000
#
# Coordination Sequence:
#
# PCOD9325977 Si02
#       5
#     8  16  16   8  16
#     4  11  24  46  70 101 138 192 242 289 346 432
#     4  10  22  40  66 104 137 180 231 298 355 420
#     4  11  21  40  71 105 138 175 244 300 344 407
#     4  11  25  42  70  92 145 193 226 276 382 423
#     4  10  17  31  64 103 126 172 232 286 330 413
#
# _framework density 21.615172999999999
#
# number of rings (size 3 to 8) (size 9 to 14) (size 15 to 20)
#    0.000    1.500    6.250    1.875    0.000    0.000 
#    0.000    5.000    5.500    0.000    0.000    0.000 
#    0.000    0.000    0.000    0.000    0.000    0.000 
#
# Total GULP energy -89068.147486 kJ/mol
# GULP energy per Si atom -5566.759218 kJ/mol
# Density = 2.156598 g / cm^3
# Si number density = 21.615173 Si / 1000 Ang^3
#
#
#
# Elastic Constant Matrix: (Units=GPa)
#
#
# Indices 1 2 3 4 5 6 
#
# 1 154.9764 83.8743 43.1136 0.0000 0.0000 0.0000
# 2 83.8743 147.2142 50.3216 0.0000 0.0000 0.0000
# 3 43.1136 50.3216 139.3571 0.0000 0.0000 0.0000
# 4 0.0000 0.0000 0.0000 44.2411 0.0000 0.0000
# 5 0.0000 0.0000 0.0000 0.0000 24.9939 0.0000
# 6 0.0000 0.0000 0.0000 0.0000 0.0000 2.9753
#
#
#
# Elastic Compliance Matrix: (Units=1/GPa)
#
#
# Indices 1 2 3 4 5 6 
#
# 1 0.009480 -0.005018 -0.001121 0.000000 0.000000 0.000000
# 2 -0.005018 0.010406 -0.002205 0.000000 0.000000 0.000000
# 3 -0.001121 -0.002205 0.008319 0.000000 0.000000 0.000000
# 4 0.000000 0.000000 0.000000 0.022603 0.000000 0.000000
# 5 0.000000 0.000000 0.000000 0.000000 0.040010 0.000000
# 6 0.000000 0.000000 0.000000 0.000000 0.000000 0.336097
#
#
# Mechanical properties :
#
#
# Convention : Reuss Voigt Hill
#
# Bulk Modulus (GPa) = 86.83099 88.46294 87.64697
# Shear Modulus (GPa) = 11.17464 32.05795 21.61629
#
# Velocity S-wave (km/s) = 2.27619 3.85531 3.16579
# Velocity P-wave (km/s) = 6.86779 7.79956 7.34846
#
# Compressibility (1/GPa) = 0.01151663
#
# Stress axis : x y z
#
# Youngs Moduli (GPa) = 105.48192 96.10206 120.20974
#
# Poissons Ratio (x) = 0.48226 0.13474
# Poissons Ratio (y) = 0.52933 0.26506
# Poissons Ratio (z) = 0.11824 0.21190
#
# Static dielectric constant tensor:
#      x y z
#    x 2.040260 0.000000 0.000000 
#    y 0.000000 1.913220 0.000000 
#    z 0.000000 0.000000 1.910540 
# 
# From -- ./inp_files/21041.got.cif
#   From: 2010.05.17/outbox.cif.g08.bks.cpg/sg22_11_cif.got.tgz:21041.got - 2010.06.03 23:40:54.
