data_PCOD9325648
_publ_section_title
;
Structure prediction by ZEFSAII (Michael W. Deem and Ramdas Pophale) SiO2 
 PCOD9325648
Probable space group: C 2 2 2
;
_chemical_formula_sum "Si O2"
_cell_formula_units_Z 24
_cell_length_a 15.429669
_cell_length_b 11.684321
_cell_length_c 5.269998
_cell_angle_alpha 90.000000
_cell_angle_beta 90.000000
_cell_angle_gamma 90.000000
_cell_volume 950.102673
_symmetry_space_group_name_H-M "C 2 2 2"
_symmetry_group_IT_number 21
_symmetry_cell_setting 'orthorhombic'
loop_
_space_group_symop_operation_xyz
x,y,z
-x,-y,z
x,-y,-z
-x,y,-z
1/2+x,1/2+y,z
1/2-x,1/2-y,z
1/2+x,1/2-y,-z
1/2-x,1/2+y,-z
loop_
_atom_site_type_symbol
_atom_site_label
_atom_site_fract_x
_atom_site_fract_y
_atom_site_fract_z
Si Si1 0.903062 0.120789 0.614118
Si Si2 0.885082 0.422226 0.245610
Si Si3 0.000000 0.760859 0.000000
Si Si4 0.250000 0.250000 0.635380
O O1 0.830088 0.208565 0.532501
O O2 0.000000 0.131292 0.500000
O O3 0.924264 0.154258 0.904103
O O4 0.873276 0.000000 0.500000
O O5 0.889816 0.500000 0.500000
O O6 0.793112 0.356398 0.221903
O O7 0.893849 0.500000 0.000000
O O8 0.959501 0.325635 0.208068
#
# Coordination Sequence:
#
# PCOD9325648 Si02
#       4
#     8   8   4   4
#     4  11  26  51  81 118 163 215 276 336 420 490
#     4  12  29  50  81 119 162 216 278 344 417 493
#     4  12  27  51  84 116 168 218 274 348 416 500
#     4  12  26  52  82 114 164 212 276 346 410 500
#
# _framework density 25.260428000000001
#
# number of rings (size 3 to 8) (size 9 to 14) (size 15 to 20)
#    0.000    0.333    3.333    3.500    0.000   14.667 
#    0.000    0.000    0.000    0.000    0.000    0.000 
#    0.000    0.000    0.000    0.000    0.000    0.000 
#
# Total GULP energy -67062.030663 kJ/mol
# GULP energy per Si atom -5588.502555 kJ/mol
# Density = 2.520293 g / cm^3
# Si number density = 25.260428 Si / 1000 Ang^3
#
#
#
# Elastic Constant Matrix: (Units=GPa)
#
#
# Indices 1 2 3 4 5 6 
#
# 1 106.1351 24.4166 7.8607 0.0000 0.0000 0.0000
# 2 24.4166 145.8931 75.1325 0.0000 0.0000 0.0000
# 3 7.8607 75.1325 122.1434 0.0000 0.0000 0.0000
# 4 0.0000 0.0000 0.0000 33.0773 0.0000 0.0000
# 5 0.0000 0.0000 0.0000 0.0000 27.8043 0.0000
# 6 0.0000 0.0000 0.0000 0.0000 0.0000 71.0600
#
#
#
# Elastic Compliance Matrix: (Units=1/GPa)
#
#
# Indices 1 2 3 4 5 6 
#
# 1 0.009825 -0.001930 0.000555 0.000000 0.000000 0.000000
# 2 -0.001930 0.010411 -0.006280 0.000000 0.000000 0.000000
# 3 0.000555 -0.006280 0.012014 0.000000 0.000000 0.000000
# 4 0.000000 0.000000 0.000000 0.030232 0.000000 0.000000
# 5 0.000000 0.000000 0.000000 0.000000 0.035966 0.000000
# 6 0.000000 0.000000 0.000000 0.000000 0.000000 0.014073
#
#
# Mechanical properties :
#
#
# Convention : Reuss Voigt Hill
#
# Bulk Modulus (GPa) = 59.03084 65.44346 62.23715
# Shear Modulus (GPa) = 37.45926 44.17244 40.81585
#
# Velocity S-wave (km/s) = 3.85505 4.18626 4.02406
# Velocity P-wave (km/s) = 6.57532 7.02354 6.80312
#
# Compressibility (1/GPa) = 0.01694030
#
# Stress axis : x y z
#
# Youngs Moduli (GPa) = 101.78252 96.04791 83.23372
#
# Poissons Ratio (x) = 0.18538 -0.04619
# Poissons Ratio (y) = 0.19645 0.52271
# Poissons Ratio (z) = -0.05648 0.60319
#
# Static dielectric constant tensor:
#      x y z
#    x 1.980530 0.000000 0.000000 
#    y 0.000000 2.151700 0.000000 
#    z 0.000000 0.000000 2.142790 
# 
# From -- ./inp_files/3148.got.cif
#   From: 2010.05.17/outbox.cif.g08.bks.cpg/sg21_2_cif.got.tgz:3148.got - 2010.06.03 23:14:55.
