data_PCOD9325084
_publ_section_title
;
Structure prediction by ZEFSAII (Michael W. Deem and Ramdas Pophale) SiO2 
 PCOD9325084
Probable space group: C 2 2 2
;
_chemical_formula_sum "Si O2"
_cell_formula_units_Z 44
_cell_length_a 15.151449
_cell_length_b 17.979218
_cell_length_c 7.071442
_cell_angle_alpha 90.000000
_cell_angle_beta 90.000000
_cell_angle_gamma 90.000000
_cell_volume 1926.340033
_symmetry_space_group_name_H-M "C 2 2 2"
_symmetry_group_IT_number 21
_symmetry_cell_setting 'orthorhombic'
loop_
_space_group_symop_operation_xyz
x,y,z
-x,-y,z
x,-y,-z
-x,y,-z
1/2+x,1/2+y,z
1/2-x,1/2-y,z
1/2+x,1/2-y,-z
1/2-x,1/2+y,-z
loop_
_atom_site_type_symbol
_atom_site_label
_atom_site_fract_x
_atom_site_fract_y
_atom_site_fract_z
Si Si1 0.919576 0.817366 0.352252
Si Si2 0.016669 0.663741 0.732079
Si Si3 0.355868 0.972189 0.701416
Si Si4 0.250000 0.250000 0.564995
Si Si5 0.171683 0.366632 0.857144
Si Si6 0.312231 0.573370 0.869899
O O1 0.830194 0.788492 0.453616
O O2 0.896219 0.886438 0.218250
O O3 0.000000 0.832107 0.500000
O O4 0.943534 0.744337 0.234602
O O5 0.928054 0.661958 0.853448
O O6 0.000000 0.660661 0.500000
O O7 0.081309 0.594093 0.768425
O O8 0.254405 0.946277 0.698176
O O9 0.388360 0.000000 0.500000
O O10 0.348408 0.046200 0.823686
O O11 0.211585 0.317599 0.688424
O O12 0.249709 0.369450 0.011664
O O13 0.329522 0.500000 0.000000
#
# Coordination Sequence:
#
# PCOD9325084 Si02
#       6
#     8   8   8   4   8   8
#     4  11  22  43  74 108 143 196 261 299 364 462
#     4  11  20  37  67 109 138 182 244 301 370 463
#     4  11  20  37  67  98 147 196 241 297 370 460
#     4  12  22  42  72 106 148 200 254 306 376 454
#     4  11  23  39  63 104 148 189 238 311 386 434
#     4  10  25  44  67 105 147 193 246 319 386 430
#
# _framework density 22.841244
#
# number of rings (size 3 to 8) (size 9 to 14) (size 15 to 20)
#    0.000    1.091    5.455    2.727    0.000    2.909 
#    0.000    3.636    0.000   19.091    0.000    0.000 
#    0.000    0.000    0.000    0.000    0.000    0.000 
#
# Total GULP energy -122792.573225 kJ/mol
# GULP energy per Si atom -5581.480601 kJ/mol
# Density = 2.278926 g / cm^3
# Si number density = 22.841244 Si / 1000 Ang^3
#
#
#
# Elastic Constant Matrix: (Units=GPa)
#
#
# Indices 1 2 3 4 5 6 
#
# 1 141.6822 87.0026 49.4519 0.0000 0.0000 0.0000
# 2 87.0026 136.6347 51.2740 0.0000 0.0000 0.0000
# 3 49.4519 51.2740 89.7991 0.0000 0.0000 0.0000
# 4 0.0000 0.0000 0.0000 35.6650 0.0000 0.0000
# 5 0.0000 0.0000 0.0000 0.0000 52.2411 0.0000
# 6 0.0000 0.0000 0.0000 0.0000 0.0000 64.1063
#
#
#
# Elastic Compliance Matrix: (Units=1/GPa)
#
#
# Indices 1 2 3 4 5 6 
#
# 1 0.012153 -0.006653 -0.002894 0.000000 0.000000 0.000000
# 2 -0.006653 0.012956 -0.003734 0.000000 0.000000 0.000000
# 3 -0.002894 -0.003734 0.014862 0.000000 0.000000 0.000000
# 4 0.000000 0.000000 0.000000 0.028039 0.000000 0.000000
# 5 0.000000 0.000000 0.000000 0.000000 0.019142 0.000000
# 6 0.000000 0.000000 0.000000 0.000000 0.000000 0.015599
#
#
# Mechanical properties :
#
#
# Convention : Reuss Voigt Hill
#
# Bulk Modulus (GPa) = 74.57470 82.61923 78.59696
# Shear Modulus (GPa) = 37.37382 42.42831 39.90106
#
# Velocity S-wave (km/s) = 4.04944 4.31458 4.18411
# Velocity P-wave (km/s) = 7.38810 7.81476 7.60442
#
# Compressibility (1/GPa) = 0.01340937
#
# Stress axis : x y z
#
# Youngs Moduli (GPa) = 82.28139 77.18318 67.28558
#
# Poissons Ratio (x) = 0.51347 0.19474
# Poissons Ratio (y) = 0.54739 0.25126
# Poissons Ratio (z) = 0.23814 0.28822
#
# Static dielectric constant tensor:
#      x y z
#    x 2.100640 0.000000 0.000000 
#    y 0.000000 1.859410 0.000000 
#    z 0.000000 0.000000 2.055870 
# 
# From -- ./inp_files/14860.got.cif
#   From: 2010.05.17/outbox.cif.g08.bks.cpg/sg21_8_cif.got.tgz:14860.got - 2010.06.03 23:14:55.
