data_PCOD9325619
_publ_section_title
;
Structure prediction by ZEFSAII (Michael W. Deem and Ramdas Pophale) SiO2 
 PCOD9325619
Probable space group: C 2 2 2
;
_chemical_formula_sum "Si O2"
_cell_formula_units_Z 38
_cell_length_a 13.525312
_cell_length_b 11.850377
_cell_length_c 10.996241
_cell_angle_alpha 90.000000
_cell_angle_beta 90.000000
_cell_angle_gamma 90.000000
_cell_volume 1762.478016
_symmetry_space_group_name_H-M "C 2 2 2"
_symmetry_group_IT_number 21
_symmetry_cell_setting 'orthorhombic'
loop_
_space_group_symop_operation_xyz
x,y,z
-x,-y,z
x,-y,-z
-x,y,-z
1/2+x,1/2+y,z
1/2-x,1/2-y,z
1/2+x,1/2-y,-z
1/2-x,1/2+y,-z
loop_
_atom_site_type_symbol
_atom_site_label
_atom_site_fract_x
_atom_site_fract_y
_atom_site_fract_z
Si Si1 0.448863 0.154220 0.689308
Si Si2 0.662661 0.157558 0.568398
Si Si3 0.138748 0.161559 0.863608
Si Si4 0.500000 0.500000 0.000000
Si Si5 0.250000 0.750000 0.916413
Si Si6 0.799860 0.514801 0.228138
O O1 0.565613 0.172276 0.658854
O O2 0.391728 0.145269 0.560176
O O3 0.406014 0.260953 0.760143
O O4 0.407143 0.046817 0.766330
O O5 0.750000 0.250000 0.562647
O O6 0.716809 0.052371 0.632540
O O7 0.230767 0.086789 0.817654
O O8 0.162617 0.228857 0.987512
O O9 0.062155 0.072841 0.909177
O O10 0.225321 0.632533 0.844663
#
# Coordination Sequence:
#
# PCOD9325619 Si02
#       6
#     8   8   8   2   4   8
#     4  11  26  47  76 110 145 190 252 305 381 453
#     4  11  25  47  75 109 148 190 242 313 379 449
#     4  12  26  46  73 106 146 196 246 308 370 439
#     4  12  28  44  72 104 150 200 248 308 380 444
#     4  12  24  46  70 106 150 194 250 306 364 436
#     4  12  23  45  74 104 144 193 241 307 368 437
#
# _framework density 21.560554
#
# number of rings (size 3 to 8) (size 9 to 14) (size 15 to 20)
#    0.000    0.421    5.263    2.526    5.895    1.684 
#    0.000    0.000    0.000    0.000    0.000    0.000 
#    0.000    0.000    0.000    0.000    0.000    0.000 
#
# Total GULP energy -105795.984533 kJ/mol
# GULP energy per Si atom -5568.209712 kJ/mol
# Density = 2.151148 g / cm^3
# Si number density = 21.560554 Si / 1000 Ang^3
#
#
#
# Elastic Constant Matrix: (Units=GPa)
#
#
# Indices 1 2 3 4 5 6 
#
# 1 123.8921 43.4020 38.0755 0.0000 0.0000 0.0000
# 2 43.4020 101.6946 46.0538 0.0000 0.0000 0.0000
# 3 38.0755 46.0538 121.4791 0.0000 0.0000 0.0000
# 4 0.0000 0.0000 0.0000 40.4260 0.0000 0.0000
# 5 0.0000 0.0000 0.0000 0.0000 36.7160 0.0000
# 6 0.0000 0.0000 0.0000 0.0000 0.0000 51.4402
#
#
#
# Elastic Compliance Matrix: (Units=1/GPa)
#
#
# Indices 1 2 3 4 5 6 
#
# 1 0.009804 -0.003372 -0.001795 0.000000 0.000000 0.000000
# 2 -0.003372 0.013031 -0.003883 0.000000 0.000000 0.000000
# 3 -0.001795 -0.003883 0.010267 0.000000 0.000000 0.000000
# 4 0.000000 0.000000 0.000000 0.024737 0.000000 0.000000
# 5 0.000000 0.000000 0.000000 0.000000 0.027236 0.000000
# 6 0.000000 0.000000 0.000000 0.000000 0.000000 0.019440
#
#
# Mechanical properties :
#
#
# Convention : Reuss Voigt Hill
#
# Bulk Modulus (GPa) = 66.65608 66.90318 66.77963
# Shear Modulus (GPa) = 39.18042 40.35207 39.76625
#
# Velocity S-wave (km/s) = 4.26752 4.33086 4.29930
# Velocity P-wave (km/s) = 7.43405 7.49040 7.46228
#
# Compressibility (1/GPa) = 0.01500238
#
# Stress axis : x y z
#
# Youngs Moduli (GPa) = 101.99658 76.74040 97.40282
#
# Poissons Ratio (x) = 0.25873 0.17482
# Poissons Ratio (y) = 0.34389 0.37825
# Poissons Ratio (z) = 0.18306 0.29801
#
# Static dielectric constant tensor:
#      x y z
#    x 1.952270 0.000000 0.000000 
#    y 0.000000 1.901220 0.000000 
#    z 0.000000 0.000000 1.801150 
# 
# From -- ./inp_files/25022.got.cif
#   From: 2010.05.17/outbox.cif.g08.bks.cpg/sg21_13_cif.got.tgz:25022.got - 2010.06.03 23:14:55.
