data_PCOD9325494
_publ_section_title
;
Structure prediction by ZEFSAII (Michael W. Deem and Ramdas Pophale) SiO2 
 PCOD9325494
Probable space group: C 2 2 2
;
_chemical_formula_sum "Si O2"
_cell_formula_units_Z 28
_cell_length_a 15.522063
_cell_length_b 14.394649
_cell_length_c 5.538702
_cell_angle_alpha 90.000000
_cell_angle_beta 90.000000
_cell_angle_gamma 90.000000
_cell_volume 1237.537935
_symmetry_space_group_name_H-M "C 2 2 2"
_symmetry_group_IT_number 21
_symmetry_cell_setting 'orthorhombic'
loop_
_space_group_symop_operation_xyz
x,y,z
-x,-y,z
x,-y,-z
-x,y,-z
1/2+x,1/2+y,z
1/2-x,1/2-y,z
1/2+x,1/2-y,-z
1/2-x,1/2+y,-z
loop_
_atom_site_type_symbol
_atom_site_label
_atom_site_fract_x
_atom_site_fract_y
_atom_site_fract_z
Si Si1 0.192696 0.598330 0.086330
Si Si2 0.250000 0.750000 0.715084
Si Si3 0.376084 0.553826 0.252792
Si Si4 0.087065 0.254038 0.631858
O O1 0.272811 0.574251 0.261189
O O2 0.121094 0.665361 0.194922
O O3 0.157228 0.500000 0.000000
O O4 0.237813 0.659020 0.878019
O O5 0.164632 0.758950 0.557558
O O6 0.399242 0.500000 0.500000
O O7 0.422273 0.653684 0.244231
O O8 0.391175 0.500000 0.000000
O O9 0.000000 0.280414 0.500000
#
# Coordination Sequence:
#
# PCOD9325494 Si02
#       4
#     8   4   8   8
#     4  11  24  44  75 104 145 209 257 310 392 475
#     4  12  22  50  72 102 152 200 256 324 402 466
#     4  11  23  45  79 110 147 198 253 319 394 470
#     4  12  26  45  73 113 153 198 259 333 395 469
#
# _framework density 22.62557
#
# number of rings (size 3 to 8) (size 9 to 14) (size 15 to 20)
#    0.000    0.571    5.714    3.429    0.000    1.714 
#    0.000   10.000    0.000    0.000    0.000    0.000 
#    0.000    0.000    0.000    0.000    0.000    0.000 
#
# Total GULP energy -78411.833025 kJ/mol
# GULP energy per Si atom -5600.845216 kJ/mol
# Density = 2.257407 g / cm^3
# Si number density = 22.625570 Si / 1000 Ang^3
#
#
#
# Elastic Constant Matrix: (Units=GPa)
#
#
# Indices 1 2 3 4 5 6 
#
# 1 100.0241 22.4566 34.8964 0.0000 0.0000 0.0000
# 2 22.4566 199.7003 79.0889 0.0000 0.0000 0.0000
# 3 34.8964 79.0889 114.3668 0.0000 0.0000 0.0000
# 4 0.0000 0.0000 0.0000 52.6556 0.0000 0.0000
# 5 0.0000 0.0000 0.0000 0.0000 7.8324 0.0000
# 6 0.0000 0.0000 0.0000 0.0000 0.0000 5.5158
#
#
#
# Elastic Compliance Matrix: (Units=1/GPa)
#
#
# Indices 1 2 3 4 5 6 
#
# 1 0.011191 0.000129 -0.003504 0.000000 0.000000 0.000000
# 2 0.000129 0.006898 -0.004809 0.000000 0.000000 0.000000
# 3 -0.003504 -0.004809 0.013139 0.000000 0.000000 0.000000
# 4 0.000000 0.000000 0.000000 0.018991 0.000000 0.000000
# 5 0.000000 0.000000 0.000000 0.000000 0.127674 0.000000
# 6 0.000000 0.000000 0.000000 0.000000 0.000000 0.181297
#
#
# Mechanical properties :
#
#
# Convention : Reuss Voigt Hill
#
# Bulk Modulus (GPa) = 67.29865 76.33055 71.81460
# Shear Modulus (GPa) = 13.14020 31.71071 22.42546
#
# Velocity S-wave (km/s) = 2.41253 3.74778 3.15168
# Velocity P-wave (km/s) = 6.12939 7.24827 6.71219
#
# Compressibility (1/GPa) = 0.01485914
#
# Stress axis : x y z
#
# Youngs Moduli (GPa) = 89.35687 144.97602 76.10975
#
# Poissons Ratio (x) = -0.01875 0.26670
# Poissons Ratio (y) = -0.01155 0.36605
# Poissons Ratio (z) = 0.31312 0.69726
#
# Static dielectric constant tensor:
#      x y z
#    x 1.786580 0.000000 0.000000 
#    y 0.000000 1.878430 0.000000 
#    z 0.000000 0.000000 1.882600 
# 
# From -- ./inp_files/3338.got.cif
#   From: 2010.05.17/outbox.cif.g08.bks.cpg/sg21_2_cif.got.tgz:3338.got - 2010.06.03 23:14:55.
