data_PCOD9325834
_publ_section_title
;
Structure prediction by ZEFSAII (Michael W. Deem and Ramdas Pophale) SiO2 
 PCOD9325834
Probable space group: C 2 2 2
;
_chemical_formula_sum "Si O2"
_cell_formula_units_Z 32
_cell_length_a 18.000000
_cell_length_b 15.000000
_cell_length_c 12.000000
_cell_angle_alpha 90.000000
_cell_angle_beta 90.000000
_cell_angle_gamma 90.000000
_cell_volume 3240.000000
_symmetry_space_group_name_H-M "C 2 2 2"
_symmetry_group_IT_number 21
_symmetry_cell_setting 'orthorhombic'
loop_
_space_group_symop_operation_xyz
x,y,z
-x,-y,z
x,-y,-z
-x,y,-z
1/2+x,1/2+y,z
1/2-x,1/2-y,z
1/2+x,1/2-y,-z
1/2-x,1/2+y,-z
loop_
_atom_site_type_symbol
_atom_site_label
_atom_site_fract_x
_atom_site_fract_y
_atom_site_fract_z
Si Si1 0.565120 0.657864 0.282408
Si Si2 0.105475 0.841728 0.265257
Si Si3 0.898646 0.680891 0.891476
Si Si4 0.835942 0.501310 0.872336
Si Si5 0.807592 0.023613 0.762624
Si Si6 0.927181 0.663078 0.146126
Si Si7 0.139693 0.778077 0.501735
Si Si8 0.720019 0.902031 0.448867
O O1 0.480654 0.629026 0.262599
O O2 0.621707 0.587070 0.230777
O O3 0.581515 0.752416 0.224786
O O4 0.583705 0.674522 0.412107
O O5 0.118385 0.775961 0.161958
O O6 0.111931 0.781236 0.375817
O O7 0.160411 0.925920 0.266267
O O8 0.849681 0.602829 0.836570
O O9 0.984299 0.653086 0.868620
O O10 0.892228 0.685311 0.025031
O O11 0.749075 0.480462 0.864894
O O12 0.886671 0.426745 0.813731
O O13 0.862373 0.500000 0.000000
O O14 0.754160 0.067743 0.669274
O O15 0.211013 0.844866 0.500054
O O16 0.158593 0.677067 0.542833
O O17 0.701061 0.000000 0.500000
#
# Coordination Sequence:
#
# PCOD9325834 Si02
#       8
#     8   8   8   8   8   8   8   8
#     4  10  22  39  59  80 110 156 197 237 283 334
#     4  11  22  38  58  83 115 148 194 244 282 335
#     4   9  20  35  60  87 113 153 190 234 289 340
#     4  10  21  36  59  87 116 148 188 241 291 342
#     4  11  23  37  56  84 116 150 192 234 288 347
#     4   9  18  39  60  83 115 150 195 234 282 348
#     4  10  21  36  59  83 112 150 193 230 277 340
#     4  10  20  36  55  82 114 151 178 225 291 336
#
# _framework density 9.8765429999999999
#
# number of rings (size 3 to 8) (size 9 to 14) (size 15 to 20)
#    0.000    2.000    1.250    1.875    1.750    4.500 
#    0.000    3.750    0.000    4.500    0.000    0.000 
#    0.000    0.000    0.000    0.000    0.000    0.000 
#
# Total GULP energy -178267.549376 kJ/mol
# GULP energy per Si atom -5570.860918 kJ/mol
# Density = 0.985406 g / cm^3
# Si number density = 9.876543 Si / 1000 Ang^3
#
#
#
# Elastic Constant Matrix: (Units=GPa)
#
#
# Indices 1 2 3 4 5 6 
#
# 1 26.4389 19.7490 2.1726 0.0000 0.0000 0.0000
# 2 19.7490 58.5643 -12.9636 0.0000 0.0000 0.0000
# 3 2.1726 -12.9636 23.0719 0.0000 0.0000 0.0000
# 4 0.0000 0.0000 0.0000 18.6018 0.0000 0.0000
# 5 0.0000 0.0000 0.0000 0.0000 18.2015 0.0000
# 6 0.0000 0.0000 0.0000 0.0000 0.0000 15.3051
#
#
#
# Elastic Compliance Matrix: (Units=1/GPa)
#
#
# Indices 1 2 3 4 5 6 
#
# 1 0.056627 -0.023156 -0.018343 0.000000 0.000000 0.000000
# 2 -0.023156 0.028970 0.018458 0.000000 0.000000 0.000000
# 3 -0.018343 0.018458 0.055441 0.000000 0.000000 0.000000
# 4 0.000000 0.000000 0.000000 0.053758 0.000000 0.000000
# 5 0.000000 0.000000 0.000000 0.000000 0.054940 0.000000
# 6 0.000000 0.000000 0.000000 0.000000 0.000000 0.065338
#
#
# Mechanical properties :
#
#
# Convention : Reuss Voigt Hill
#
# Bulk Modulus (GPa) = 10.53130 13.99901 12.26515
# Shear Modulus (GPa) = 12.72883 17.02951 14.87917
#
# Velocity S-wave (km/s) = 2.54125 2.93937 2.74753
# Velocity P-wave (km/s) = 3.73546 4.31535 4.03583
#
# Compressibility (1/GPa) = 0.09495506
#
# Stress axis : x y z
#
# Youngs Moduli (GPa) = 17.65932 34.51875 18.03716
#
# Poissons Ratio (x) = 0.79932 0.33086
# Poissons Ratio (y) = 0.40892 -0.33293
# Poissons Ratio (z) = 0.32393 -0.63715
#
# Static dielectric constant tensor:
#      x y z
#    x 1.701400 0.000000 0.000000 
#    y 0.000000 1.690120 0.000000 
#    z 0.000000 0.000000 1.736610 
# 
# From -- ./inp_files/25477.got.cif
#   From: 2010.05.17/outbox.ucp.g08.bks.cvg/sg21_13_cif.got.tgz:25477.got - 2010.06.11 15:15:05.
