data_PCOD9325513
_publ_section_title
;
Structure prediction by ZEFSAII (Michael W. Deem and Ramdas Pophale) SiO2 
 PCOD9325513
Probable space group: C 2 2 2
;
_chemical_formula_sum "Si O2"
_cell_formula_units_Z 42
_cell_length_a 23.956616
_cell_length_b 8.707265
_cell_length_c 9.132969
_cell_angle_alpha 90.000000
_cell_angle_beta 90.000000
_cell_angle_gamma 90.000000
_cell_volume 1905.106318
_symmetry_space_group_name_H-M "C 2 2 2"
_symmetry_group_IT_number 21
_symmetry_cell_setting 'orthorhombic'
loop_
_space_group_symop_operation_xyz
x,y,z
-x,-y,z
x,-y,-z
-x,y,-z
1/2+x,1/2+y,z
1/2-x,1/2-y,z
1/2+x,1/2-y,-z
1/2-x,1/2+y,-z
loop_
_atom_site_type_symbol
_atom_site_label
_atom_site_fract_x
_atom_site_fract_y
_atom_site_fract_z
Si Si1 0.595056 0.873790 0.696643
Si Si2 0.826766 0.840165 0.505854
Si Si3 0.731091 0.583096 0.788092
Si Si4 0.500000 0.000000 0.500000
Si Si5 0.619094 0.350511 0.053644
Si Si6 0.329096 0.155622 0.210929
O O1 0.640189 0.788342 0.594845
O O2 0.539820 0.900843 0.604210
O O3 0.588219 0.766048 0.837943
O O4 0.623222 0.034798 0.740819
O O5 0.776489 0.895251 0.612972
O O6 0.815861 0.769384 0.346775
O O7 0.861168 0.000000 0.500000
O O8 0.750000 0.750000 0.844035
O O9 0.669793 0.570119 0.855050
O O10 0.774901 0.450015 0.823542
O O11 0.585571 0.500000 0.000000
O O12 0.646811 0.248864 0.925790
#
# Coordination Sequence:
#
# PCOD9325513 Si02
#       6
#     8   8   8   2   8   8
#     4  11  24  45  75 103 129 179 240 295 365 432
#     4  11  24  41  64 102 145 187 231 290 345 414
#     4  11  25  36  60 101 147 196 242 273 333 418
#     4  12  24  52  84 104 128 176 256 316 376 438
#     4  11  26  44  67 105 152 191 233 288 357 426
#     4  12  23  43  69  96 149 191 241 293 337 424
#
# _framework density 22.046014
#
# number of rings (size 3 to 8) (size 9 to 14) (size 15 to 20)
#    0.000    0.762    5.714    2.857    5.333    1.524 
#    0.000    2.381    0.000    1.143    0.000    0.000 
#    0.000    0.000    0.000    0.000    0.000    0.000 
#
# Total GULP energy -117447.150710 kJ/mol
# GULP energy per Si atom -5592.721462 kJ/mol
# Density = 2.199584 g / cm^3
# Si number density = 22.046014 Si / 1000 Ang^3
#
#
#
# Elastic Constant Matrix: (Units=GPa)
#
#
# Indices 1 2 3 4 5 6 
#
# 1 69.1502 44.8347 37.5994 0.0000 0.0000 0.0000
# 2 44.8347 171.4531 84.5124 0.0000 0.0000 0.0000
# 3 37.5994 84.5124 156.8905 0.0000 0.0000 0.0000
# 4 0.0000 0.0000 0.0000 56.7535 0.0000 0.0000
# 5 0.0000 0.0000 0.0000 0.0000 21.3340 0.0000
# 6 0.0000 0.0000 0.0000 0.0000 0.0000 4.9428
#
#
#
# Elastic Compliance Matrix: (Units=1/GPa)
#
#
# Indices 1 2 3 4 5 6 
#
# 1 0.018070 -0.003527 -0.002430 0.000000 0.000000 0.000000
# 2 -0.003527 0.008629 -0.003803 0.000000 0.000000 0.000000
# 3 -0.002430 -0.003803 0.009005 0.000000 0.000000 0.000000
# 4 0.000000 0.000000 0.000000 0.017620 0.000000 0.000000
# 5 0.000000 0.000000 0.000000 0.000000 0.046874 0.000000
# 6 0.000000 0.000000 0.000000 0.000000 0.000000 0.202316
#
#
# Mechanical properties :
#
#
# Convention : Reuss Voigt Hill
#
# Bulk Modulus (GPa) = 61.79490 81.26522 71.53006
# Shear Modulus (GPa) = 15.27046 31.97585 23.62316
#
# Velocity S-wave (km/s) = 2.63470 3.81256 3.27699
# Velocity P-wave (km/s) = 6.11117 7.50483 6.84357
#
# Compressibility (1/GPa) = 0.01618257
#
# Stress axis : x y z
#
# Youngs Moduli (GPa) = 55.34124 115.88165 111.04930
#
# Poissons Ratio (x) = 0.40873 0.26991
# Poissons Ratio (y) = 0.19520 0.42234
# Poissons Ratio (z) = 0.13451 0.44072
#
# Static dielectric constant tensor:
#      x y z
#    x 1.794060 0.000000 0.000000 
#    y 0.000000 1.952800 0.000000 
#    z 0.000000 0.000000 1.881420 
# 
# From -- ./inp_files/18998.got.cif
#   From: 2010.05.17/outbox.cif.g08.bks.cpg/sg21_10_cif.got.tgz:18998.got - 2010.06.03 23:14:55.
