data_PCOD9325139
_publ_section_title
;
Structure prediction by ZEFSAII (Michael W. Deem and Ramdas Pophale) SiO2 
 PCOD9325139
Probable space group: C 2 2 2
;
_chemical_formula_sum "Si O2"
_cell_formula_units_Z 24
_cell_length_a 16.705782
_cell_length_b 11.184799
_cell_length_c 4.911326
_cell_angle_alpha 90.000000
_cell_angle_beta 90.000000
_cell_angle_gamma 90.000000
_cell_volume 917.685260
_symmetry_space_group_name_H-M "C 2 2 2"
_symmetry_group_IT_number 21
_symmetry_cell_setting 'orthorhombic'
loop_
_space_group_symop_operation_xyz
x,y,z
-x,-y,z
x,-y,-z
-x,y,-z
1/2+x,1/2+y,z
1/2-x,1/2-y,z
1/2+x,1/2-y,-z
1/2-x,1/2+y,-z
loop_
_atom_site_type_symbol
_atom_site_label
_atom_site_fract_x
_atom_site_fract_y
_atom_site_fract_z
Si Si1 0.625644 0.825533 0.808757
Si Si2 0.202652 0.919044 0.236224
Si Si3 0.000000 0.500000 0.500000
Si Si4 0.000000 0.000000 0.500000
Si Si5 0.000000 0.821734 0.000000
O O1 0.708674 0.889368 0.873181
O O2 0.661284 0.704512 0.673108
O O3 0.562197 0.913665 0.664720
O O4 0.575448 0.765710 0.052968
O O5 0.207189 0.000000 0.500000
O O6 0.162464 0.000000 0.000000
O O7 0.017194 0.100247 0.735397
#
# Coordination Sequence:
#
# PCOD9325139 Si02
#       5
#     8   8   2   2   4
#     4  11  28  49  85 118 166 216 273 341 416 479
#     4  11  28  53  81 115 164 223 274 331 409 501
#     4  12  26  54  88 126 168 210 276 348 408 498
#     4  10  26  46  70 112 164 200 252 348 406 478
#     4  11  26  45  78 118 154 209 275 336 416 460
#
# _framework density 26.152759
#
# number of rings (size 3 to 8) (size 9 to 14) (size 15 to 20)
#    0.000    1.000    1.667    1.000   11.667   10.667 
#    0.000    0.000    0.000    0.000    0.000    0.000 
#    0.000    0.000    0.000    0.000    0.000    0.000 
#
# Total GULP energy -66829.704548 kJ/mol
# GULP energy per Si atom -5569.142046 kJ/mol
# Density = 2.609323 g / cm^3
# Si number density = 26.152759 Si / 1000 Ang^3
#
#
#
# Elastic Constant Matrix: (Units=GPa)
#
#
# Indices 1 2 3 4 5 6 
#
# 1 158.0109 90.2905 33.6615 0.0000 0.0000 0.0000
# 2 90.2905 203.6459 36.8754 0.0000 0.0000 0.0000
# 3 33.6615 36.8754 78.6009 0.0000 0.0000 0.0000
# 4 0.0000 0.0000 0.0000 28.5735 0.0000 0.0000
# 5 0.0000 0.0000 0.0000 0.0000 13.2624 0.0000
# 6 0.0000 0.0000 0.0000 0.0000 0.0000 24.4428
#
#
#
# Elastic Compliance Matrix: (Units=1/GPa)
#
#
# Indices 1 2 3 4 5 6 
#
# 1 0.008786 -0.003513 -0.002115 0.000000 0.000000 0.000000
# 2 -0.003513 0.006771 -0.001672 0.000000 0.000000 0.000000
# 3 -0.002115 -0.001672 0.014413 0.000000 0.000000 0.000000
# 4 0.000000 0.000000 0.000000 0.034998 0.000000 0.000000
# 5 0.000000 0.000000 0.000000 0.000000 0.075401 0.000000
# 6 0.000000 0.000000 0.000000 0.000000 0.000000 0.040912
#
#
# Mechanical properties :
#
#
# Convention : Reuss Voigt Hill
#
# Bulk Modulus (GPa) = 65.06003 84.65693 74.85848
# Shear Modulus (GPa) = 24.87527 31.88443 28.37985
#
# Velocity S-wave (km/s) = 3.08742 3.49544 3.29775
# Velocity P-wave (km/s) = 6.13519 6.98078 6.57160
#
# Compressibility (1/GPa) = 0.01537042
#
# Stress axis : x y z
#
# Youngs Moduli (GPa) = 113.81180 147.69554 69.38331
#
# Poissons Ratio (x) = 0.51881 0.14674
# Poissons Ratio (y) = 0.39979 0.11602
# Poissons Ratio (z) = 0.24070 0.24696
#
# Static dielectric constant tensor:
#      x y z
#    x 2.227800 0.000000 0.000000 
#    y 0.000000 2.209000 0.000000 
#    z 0.000000 0.000000 2.020450 
# 
# From -- ./inp_files/4515.got.cif
#   From: 2010.05.17/outbox.cif.g08.bks.cpg/sg21_3_cif.got.tgz:4515.got - 2010.06.03 23:14:55.
