data_PCOD9325001
_publ_section_title
;
Structure prediction by ZEFSAII (Michael W. Deem and Ramdas Pophale) SiO2 
 PCOD9325001
Probable space group: C 2 2 2
;
_chemical_formula_sum "Si O2"
_cell_formula_units_Z 22
_cell_length_a 31.853389
_cell_length_b 5.069352
_cell_length_c 5.391040
_cell_angle_alpha 90.000000
_cell_angle_beta 90.000000
_cell_angle_gamma 90.000000
_cell_volume 870.523797
_symmetry_space_group_name_H-M "C 2 2 2"
_symmetry_group_IT_number 21
_symmetry_cell_setting 'orthorhombic'
loop_
_space_group_symop_operation_xyz
x,y,z
-x,-y,z
x,-y,-z
-x,y,-z
1/2+x,1/2+y,z
1/2-x,1/2-y,z
1/2+x,1/2-y,-z
1/2-x,1/2+y,-z
loop_
_atom_site_type_symbol
_atom_site_label
_atom_site_fract_x
_atom_site_fract_y
_atom_site_fract_z
Si Si1 0.432166 0.264064 0.844416
Si Si2 0.500000 0.000000 0.500000
Si Si3 0.640069 0.500000 0.500000
Si Si4 0.799597 0.253560 0.175275
O O1 0.393256 0.411134 0.711238
O O2 0.468034 0.169921 0.660632
O O3 0.451087 0.500000 0.000000
O O4 0.419570 0.000000 0.000000
O O5 0.674339 0.275518 0.428684
O O6 0.750000 0.250000 0.230658
O O7 0.809765 0.500000 0.000000
O O8 0.808873 0.000000 0.000000
#
# Coordination Sequence:
#
# PCOD9325001 Si02
#       4
#     8   2   4   8
#     4  12  29  50  76 113 151 192 250 310 368 449
#     4  12  30  54  82 108 148 202 244 302 388 444
#     4  12  26  47  77 110 150 200 245 303 380 436
#     4  10  24  45  70 105 150 199 253 307 361 433
#
# _framework density 25.27214
#
# number of rings (size 3 to 8) (size 9 to 14) (size 15 to 20)
#    0.000    0.727    0.000    4.909    0.000   22.545 
#    0.000    0.000    0.000    0.000    0.000    0.000 
#    0.000    0.000    0.000    0.000    0.000    0.000 
#
# Total GULP energy -61405.526650 kJ/mol
# GULP energy per Si atom -5582.320605 kJ/mol
# Density = 2.521462 g / cm^3
# Si number density = 25.272140 Si / 1000 Ang^3
#
#
#
# Elastic Constant Matrix: (Units=GPa)
#
#
# Indices 1 2 3 4 5 6 
#
# 1 182.4022 63.5216 82.1872 0.0000 0.0000 0.0000
# 2 63.5216 225.4565 103.4492 0.0000 0.0000 0.0000
# 3 82.1872 103.4492 130.8282 0.0000 0.0000 0.0000
# 4 0.0000 0.0000 0.0000 36.4613 0.0000 0.0000
# 5 0.0000 0.0000 0.0000 0.0000 2.1623 0.0000
# 6 0.0000 0.0000 0.0000 0.0000 0.0000 5.0429
#
#
#
# Elastic Compliance Matrix: (Units=1/GPa)
#
#
# Indices 1 2 3 4 5 6 
#
# 1 0.007648 0.000078 -0.004866 0.000000 0.000000 0.000000
# 2 0.000078 0.006962 -0.005554 0.000000 0.000000 0.000000
# 3 -0.004866 -0.005554 0.015092 0.000000 0.000000 0.000000
# 4 0.000000 0.000000 0.000000 0.027426 0.000000 0.000000
# 5 0.000000 0.000000 0.000000 0.000000 0.462471 0.000000
# 6 0.000000 0.000000 0.000000 0.000000 0.000000 0.198299
#
#
# Mechanical properties :
#
#
# Convention : Reuss Voigt Hill
#
# Bulk Modulus (GPa) = 110.89166 115.22255 113.05711
# Shear Modulus (GPa) = 6.74229 28.03522 17.38875
#
# Velocity S-wave (km/s) = 1.63513 3.33428 2.62594
# Velocity P-wave (km/s) = 6.89486 7.77913 7.35031
#
# Compressibility (1/GPa) = 0.00901781
#
# Stress axis : x y z
#
# Youngs Moduli (GPa) = 130.75663 143.64006 66.25944
#
# Poissons Ratio (x) = -0.01121 0.32243
# Poissons Ratio (y) = -0.01020 0.36800
# Poissons Ratio (z) = 0.63628 0.79777
#
# Static dielectric constant tensor:
#      x y z
#    x 1.959990 0.000000 0.000000 
#    y 0.000000 1.946340 0.000000 
#    z 0.000000 0.000000 2.178140 
# 
# From -- ./inp_files/7630.got.cif
#   From: 2010.05.17/outbox.cif.g08.bks.cpg/sg21_4_cif.got.tgz:7630.got - 2010.06.03 23:14:55.
