data_PCOD9325760
_publ_section_title
;
Structure prediction by ZEFSAII (Michael W. Deem and Ramdas Pophale) SiO2 
 PCOD9325760
Probable space group: C 2 2 2
;
_chemical_formula_sum "Si O2"
_cell_formula_units_Z 26
_cell_length_a 14.876058
_cell_length_b 14.974973
_cell_length_c 4.736722
_cell_angle_alpha 90.000000
_cell_angle_beta 90.000000
_cell_angle_gamma 90.000000
_cell_volume 1055.192772
_symmetry_space_group_name_H-M "C 2 2 2"
_symmetry_group_IT_number 21
_symmetry_cell_setting 'orthorhombic'
loop_
_space_group_symop_operation_xyz
x,y,z
-x,-y,z
x,-y,-z
-x,y,-z
1/2+x,1/2+y,z
1/2-x,1/2-y,z
1/2+x,1/2-y,-z
1/2-x,1/2+y,-z
loop_
_atom_site_type_symbol
_atom_site_label
_atom_site_fract_x
_atom_site_fract_y
_atom_site_fract_z
Si Si1 0.803713 0.940154 0.231965
Si Si2 0.600142 0.260259 0.620658
Si Si3 0.859380 0.640758 0.865091
Si Si4 0.000000 0.500000 0.000000
O O1 0.859895 0.858431 0.355126
O O2 0.723842 0.901079 0.035036
O O3 0.773334 0.000000 0.500000
O O4 0.856382 0.000000 0.000000
O O5 0.500000 0.261213 0.500000
O O6 0.602489 0.215823 0.926108
O O7 0.657716 0.193118 0.422627
O O8 0.934187 0.564189 0.823989
#
# Coordination Sequence:
#
# PCOD9325760 Si02
#       4
#     8   8   8   2
#     4  12  27  47  76 109 148 198 255 304 365 447
#     4  12  26  49  75 108 148 199 245 309 373 440
#     4  12  26  46  76 109 151 189 245 311 382 438
#     4  12  24  46  80 110 150 180 248 314 380 434
#
# _framework density 24.640049999999999
#
# number of rings (size 3 to 8) (size 9 to 14) (size 15 to 20)
#    0.000    0.000    4.615    4.615    0.000    4.308 
#    0.000    1.538    0.000    0.000    0.000    0.000 
#    0.000    0.000    0.000    0.000    0.000    0.000 
#
# Total GULP energy -72889.870237 kJ/mol
# GULP energy per Si atom -5606.913095 kJ/mol
# Density = 2.458397 g / cm^3
# Si number density = 24.640050 Si / 1000 Ang^3
#
#
#
# Elastic Constant Matrix: (Units=GPa)
#
#
# Indices 1 2 3 4 5 6 
#
# 1 43.9791 29.8477 -0.3543 0.0000 0.0000 0.0000
# 2 29.8477 153.8523 42.2338 0.0000 0.0000 0.0000
# 3 -0.3543 42.2338 144.8991 0.0000 0.0000 0.0000
# 4 0.0000 0.0000 0.0000 46.3671 0.0000 0.0000
# 5 0.0000 0.0000 0.0000 0.0000 15.0216 0.0000
# 6 0.0000 0.0000 0.0000 0.0000 0.0000 44.6455
#
#
#
# Elastic Compliance Matrix: (Units=1/GPa)
#
#
# Indices 1 2 3 4 5 6 
#
# 1 0.026567 -0.005622 0.001704 0.000000 0.000000 0.000000
# 2 -0.005622 0.008255 -0.002420 0.000000 0.000000 0.000000
# 3 0.001704 -0.002420 0.007611 0.000000 0.000000 0.000000
# 4 0.000000 0.000000 0.000000 0.021567 0.000000 0.000000
# 5 0.000000 0.000000 0.000000 0.000000 0.066571 0.000000
# 6 0.000000 0.000000 0.000000 0.000000 0.000000 0.022399
#
#
# Mechanical properties :
#
#
# Convention : Reuss Voigt Hill
#
# Bulk Modulus (GPa) = 33.60584 54.02054 43.81319
# Shear Modulus (GPa) = 28.47966 39.27372 33.87669
#
# Velocity S-wave (km/s) = 3.40344 3.99670 3.71194
# Velocity P-wave (km/s) = 5.39563 6.57796 6.01591
#
# Compressibility (1/GPa) = 0.02975673
#
# Stress axis : x y z
#
# Youngs Moduli (GPa) = 37.64044 121.14453 131.39232
#
# Poissons Ratio (x) = 0.68104 -0.22383
# Poissons Ratio (y) = 0.21160 0.31793
# Poissons Ratio (z) = -0.06412 0.29314
#
# Static dielectric constant tensor:
#      x y z
#    x 1.974630 0.000000 0.000000 
#    y 0.000000 1.969160 0.000000 
#    z 0.000000 0.000000 1.924120 
# 
# From -- ./inp_files/4500.got.cif
#   From: 2010.05.17/outbox.cif.g08.bks.cpg/sg21_3_cif.got.tgz:4500.got - 2010.06.03 23:14:55.
