data_PCOD9325341
_publ_section_title
;
Structure prediction by ZEFSAII (Michael W. Deem and Ramdas Pophale) SiO2 
 PCOD9325341
Probable space group: C 2 2 2
;
_chemical_formula_sum "Si O2"
_cell_formula_units_Z 64
_cell_length_a 8.051662
_cell_length_b 15.657643
_cell_length_c 25.239734
_cell_angle_alpha 90.000000
_cell_angle_beta 90.000000
_cell_angle_gamma 90.000000
_cell_volume 3181.974506
_symmetry_space_group_name_H-M "C 2 2 2"
_symmetry_group_IT_number 21
_symmetry_cell_setting 'orthorhombic'
loop_
_space_group_symop_operation_xyz
x,y,z
-x,-y,z
x,-y,-z
-x,y,-z
1/2+x,1/2+y,z
1/2-x,1/2-y,z
1/2+x,1/2-y,-z
1/2-x,1/2+y,-z
loop_
_atom_site_type_symbol
_atom_site_label
_atom_site_fract_x
_atom_site_fract_y
_atom_site_fract_z
Si Si1 0.199915 0.650523 1.000000
Si Si2 0.796125 0.500000 0.192917
Si Si3 0.697418 0.342822 0.614290
Si Si4 0.297580 0.399880 0.500000
Si Si5 0.802582 0.157178 0.385710
Si Si6 0.299279 0.150803 0.116186
Si Si7 0.700721 0.150803 0.116186
Si Si8 0.197240 0.500000 0.313387
O O1 0.250000 0.750000 1.000000
O O2 0.258610 0.619427 0.057597
O O3 0.258610 0.619427 0.942403
O O4 0.000000 0.641749 0.000000
O O5 0.743049 0.584773 0.161005
O O6 0.743049 0.415227 0.161005
O O7 0.736661 0.500000 0.253410
O O8 0.000000 0.500000 0.193062
O O9 0.750000 0.250000 0.633341
O O10 0.764434 0.358616 0.554566
O O11 0.500000 0.346159 0.610706
O O12 0.751424 0.417314 0.653374
O O13 0.255120 0.500000 0.500000
O O14 0.500000 0.394737 0.500000
O O15 0.235566 0.358616 0.554566
O O16 0.750000 0.250000 0.366659
O O17 0.748576 0.082686 0.346626
O O18 0.250000 0.250000 0.123991
O O19 0.500000 0.149108 0.115650
O O20 0.750000 0.250000 0.123991
O O21 0.000000 0.500000 0.309597
#
# Coordination Sequence:
#
# PCOD9325341 Si02
#       8
#     8   8   8   8   8   8   8   8
#     4   8  14  25  47  75 102 130 166 209 261 319
#     4   9  20  36  54  75 104 139 180 225 266 312
#     4  11  22  39  62  87 115 147 183 226 276 330
#     4   9  17  34  60  87 116 146 176 219 274 329
#     4  11  22  39  62  87 115 147 183 226 276 330
#     4   9  17  32  52  76 104 136 171 215 266 318
#     4   9  17  32  52  76 104 136 171 215 266 318
#     4  11  23  40  57  79 111 149 192 235 276 322
#
# _framework density 20.113299000000001
#
# number of rings (size 3 to 8) (size 9 to 14) (size 15 to 20)
#    0.000    2.375    1.250    1.500    0.000    1.500 
#    0.000   10.625    0.000    0.000    0.000    8.750 
#    0.000    0.000    0.000    0.000    0.000    0.000 
#
# Total GULP energy -178537.257663 kJ/mol
# GULP energy per Si atom -5579.289302 kJ/mol
# Density = 2.006752 g / cm^3
# Si number density = 20.113299 Si / 1000 Ang^3
#
#
#
# Elastic Constant Matrix: (Units=GPa)
#
#
# Indices 1 2 3 4 5 6 
#
# 1 21.7194 10.4265 20.4129 0.0000 0.0000 0.0000
# 2 10.4265 159.0276 106.3374 0.0000 0.0000 0.0000
# 3 20.4129 106.3374 204.1447 0.0000 0.0000 0.0000
# 4 0.0000 0.0000 0.0000 -316.4030 0.0000 0.0000
# 5 0.0000 0.0000 0.0000 0.0000 11.1878 0.0000
# 6 0.0000 0.0000 0.0000 0.0000 0.0000 23.2230
#
#
#
# Elastic Compliance Matrix: (Units=1/GPa)
#
#
# Indices 1 2 3 4 5 6 
#
# 1 0.050819 0.000101 -0.005134 0.000000 0.000000 0.000000
# 2 0.000101 0.009649 -0.005036 0.000000 0.000000 0.000000
# 3 -0.005134 -0.005036 0.008035 0.000000 0.000000 0.000000
# 4 0.000000 0.000000 0.000000 -0.003161 0.000000 0.000000
# 5 0.000000 0.000000 0.000000 0.000000 0.089383 0.000000
# 6 0.000000 0.000000 0.000000 0.000000 0.000000 0.043061
#
#
# Mechanical properties :
#
#
# Convention : Reuss Voigt Hill
#
# Bulk Modulus (GPa) = 20.67635 73.24948 46.96291
# Shear Modulus (GPa) = 21.36326 -39.88413 -9.26043
#
# Velocity S-wave (km/s) = 3.26259 -4.45789 -2.14805
# Velocity P-wave (km/s) = 4.94924 3.16235 4.15304
#
# Compressibility (1/GPa) = 0.04836444
#
# Stress axis : x y z
#
# Youngs Moduli (GPa) = 19.67785 103.63507 124.45154
#
# Poissons Ratio (x) = -0.01049 0.63896
# Poissons Ratio (y) = -0.00199 0.62678
# Poissons Ratio (z) = 0.10103 0.52194
#
# Static dielectric constant tensor:
#      x y z
#    x 1.722350 0.000000 0.000000 
#    y 0.000000 1.671820 0.000000 
#    z 0.000000 0.000000 1.744210 
# 
# From -- ./inp_files/38528.got.cif
#   From: 2010.05.17/outbox.cif.g08.bks.cpg/sg21_20_cif.got.tgz:38528.got - 2010.06.03 23:14:55.
