data_PCOD9325691
_publ_section_title
;
Structure prediction by ZEFSAII (Michael W. Deem and Ramdas Pophale) SiO2 
 PCOD9325691
Probable space group: C 2 2 2
;
_chemical_formula_sum "Si O2"
_cell_formula_units_Z 38
_cell_length_a 27.817125
_cell_length_b 10.313234
_cell_length_c 6.305639
_cell_angle_alpha 90.000000
_cell_angle_beta 90.000000
_cell_angle_gamma 90.000000
_cell_volume 1808.990214
_symmetry_space_group_name_H-M "C 2 2 2"
_symmetry_group_IT_number 21
_symmetry_cell_setting 'orthorhombic'
loop_
_space_group_symop_operation_xyz
x,y,z
-x,-y,z
x,-y,-z
-x,y,-z
1/2+x,1/2+y,z
1/2-x,1/2-y,z
1/2+x,1/2-y,-z
1/2-x,1/2+y,-z
loop_
_atom_site_type_symbol
_atom_site_label
_atom_site_fract_x
_atom_site_fract_y
_atom_site_fract_z
Si Si1 0.549903 0.630466 0.382679
Si Si2 0.620807 0.137924 0.522156
Si Si3 0.805451 0.224535 0.224672
Si Si4 0.708796 0.883405 0.168848
Si Si5 0.216658 0.000000 0.500000
Si Si6 0.500000 0.500000 0.000000
O O1 0.567795 0.500000 0.500000
O O2 0.500000 0.665696 0.500000
O O3 0.586767 0.746200 0.406945
O O4 0.533830 0.587985 0.148281
O O5 0.653291 0.184075 0.321390
O O6 0.660321 0.108961 0.699736
O O7 0.594444 0.000000 0.500000
O O8 0.750000 0.250000 0.294031
O O9 0.813779 0.086081 0.334766
O O10 0.799804 0.253782 0.974612
O O11 0.749971 0.911677 0.344302
O O12 0.714635 0.000000 0.000000
#
# Coordination Sequence:
#
# PCOD9325691 Si02
#       6
#     8   8   8   8   4   2
#     4   9  22  45  74  94 132 171 213 280 350 415
#     4  12  24  43  66  99 137 176 228 284 342 411
#     4  12  25  41  64  92 137 182 234 277 344 393
#     4  12  22  42  64  92 132 188 223 289 337 395
#     4  12  26  44  64  92 134 194 244 286 332 414
#     4   8  18  48  72 104 128 168 218 282 348 418
#
# _framework density 21.006194000000001
#
# number of rings (size 3 to 8) (size 9 to 14) (size 15 to 20)
#    0.000    1.053    7.368    0.000    4.421    3.789 
#    0.000    0.000    0.000    0.000    0.000    0.000 
#    0.000    0.000    0.000    0.000    0.000    0.000 
#
# Total GULP energy -105911.025275 kJ/mol
# GULP energy per Si atom -5574.264488 kJ/mol
# Density = 2.095838 g / cm^3
# Si number density = 21.006194 Si / 1000 Ang^3
#
#
#
# Elastic Constant Matrix: (Units=GPa)
#
#
# Indices 1 2 3 4 5 6 
#
# 1 57.4798 46.6212 18.3673 0.0000 0.0000 0.0000
# 2 46.6212 146.1201 54.0025 0.0000 0.0000 0.0000
# 3 18.3673 54.0025 137.0433 0.0000 0.0000 0.0000
# 4 0.0000 0.0000 0.0000 29.1538 0.0000 0.0000
# 5 0.0000 0.0000 0.0000 0.0000 -0.2152 0.0000
# 6 0.0000 0.0000 0.0000 0.0000 0.0000 41.7621
#
#
#
# Elastic Compliance Matrix: (Units=1/GPa)
#
#
# Indices 1 2 3 4 5 6 
#
# 1 0.023478 -0.007407 -0.000228 0.000000 0.000000 0.000000
# 2 -0.007407 0.010347 -0.003085 0.000000 0.000000 0.000000
# 3 -0.000228 -0.003085 0.008543 0.000000 0.000000 0.000000
# 4 0.000000 0.000000 0.000000 0.034301 0.000000 0.000000
# 5 0.000000 0.000000 0.000000 0.000000 -4.647650 0.000000
# 6 0.000000 0.000000 0.000000 0.000000 0.000000 0.023945
#
#
# Mechanical properties :
#
#
# Convention : Reuss Voigt Hill
#
# Bulk Modulus (GPa) = 47.78005 64.29170 56.03587
# Shear Modulus (GPa) = -1.10653 28.91695 13.90521
#
# Velocity S-wave (km/s) = -0.72657 3.71427 2.57564
# Velocity P-wave (km/s) = 4.70013 7.00478 5.96482
#
# Compressibility (1/GPa) = 0.02092924
#
# Stress axis : x y z
#
# Youngs Moduli (GPa) = 42.59376 96.64838 117.05492
#
# Poissons Ratio (x) = 0.71583 0.02669
# Poissons Ratio (y) = 0.31547 0.36106
# Poissons Ratio (z) = 0.00971 0.29812
#
# Static dielectric constant tensor:
#      x y z
#    x 1.768730 0.000000 0.000000 
#    y 0.000000 1.932150 0.000000 
#    z 0.000000 0.000000 1.777360 
# 
# From -- ./inp_files/2886.got.cif
#   From: 2010.05.17/outbox.cif.g08.bks.cpg/sg21_2_cif.got.tgz:2886.got - 2010.06.03 23:14:55.
