data_PCOD9325099
_publ_section_title
;
Structure prediction by ZEFSAII (Michael W. Deem and Ramdas Pophale) SiO2 
 PCOD9325099
Probable space group: C 2 2 2
;
_chemical_formula_sum "Si O2"
_cell_formula_units_Z 32
_cell_length_a 11.130936
_cell_length_b 10.131858
_cell_length_c 13.937857
_cell_angle_alpha 90.000000
_cell_angle_beta 90.000000
_cell_angle_gamma 90.000000
_cell_volume 1571.870576
_symmetry_space_group_name_H-M "C 2 2 2"
_symmetry_group_IT_number 21
_symmetry_cell_setting 'orthorhombic'
loop_
_space_group_symop_operation_xyz
x,y,z
-x,-y,z
x,-y,-z
-x,y,-z
1/2+x,1/2+y,z
1/2-x,1/2-y,z
1/2+x,1/2-y,-z
1/2-x,1/2+y,-z
loop_
_atom_site_type_symbol
_atom_site_label
_atom_site_fract_x
_atom_site_fract_y
_atom_site_fract_z
Si Si1 0.865523 0.348615 0.037381
Si Si2 0.703861 0.948958 0.392921
Si Si3 0.058882 0.821722 0.605379
Si Si4 0.124761 0.680931 0.264834
O O1 0.750000 0.250000 0.015308
O O2 0.882236 0.347518 0.152325
O O3 0.842837 0.500000 0.000000
O O4 0.000000 0.308480 0.000000
O O5 0.844451 0.932863 0.366810
O O6 0.637685 0.810478 0.400690
O O7 0.702285 0.000000 0.500000
O O8 0.632402 0.044750 0.322938
O O9 0.000000 0.843763 0.500000
O O10 0.969713 0.782403 0.690191
O O11 0.250000 0.750000 0.284819
#
# Coordination Sequence:
#
# PCOD9325099 Si02
#       4
#     8   8   8   8
#     4  10  25  47  72 100 133 171 220 282 343 403
#     4  11  23  38  60  91 129 171 212 255 307 372
#     4  11  23  38  60  91 129 171 212 255 307 372
#     4  11  24  42  62  92 127 164 211 262 318 382
#
# _framework density 20.357911000000001
#
# number of rings (size 3 to 8) (size 9 to 14) (size 15 to 20)
#    0.000    1.250    2.500    2.250    7.000    6.000 
#    0.000    5.000    0.000    0.000    0.000    0.000 
#    0.000    0.000    0.000    0.000    0.000    0.000 
#
# Total GULP energy -89274.385680 kJ/mol
# GULP energy per Si atom -5579.649105 kJ/mol
# Density = 2.031158 g / cm^3
# Si number density = 20.357911 Si / 1000 Ang^3
#
#
#
# Elastic Constant Matrix: (Units=GPa)
#
#
# Indices 1 2 3 4 5 6 
#
# 1 146.5050 45.4790 53.9616 0.0000 0.0000 0.0000
# 2 45.4790 95.0431 42.4336 0.0000 0.0000 0.0000
# 3 53.9616 42.4336 54.7081 0.0000 0.0000 0.0000
# 4 0.0000 0.0000 0.0000 12.4092 0.0000 0.0000
# 5 0.0000 0.0000 0.0000 0.0000 34.6588 0.0000
# 6 0.0000 0.0000 0.0000 0.0000 0.0000 40.0684
#
#
#
# Elastic Compliance Matrix: (Units=1/GPa)
#
#
# Indices 1 2 3 4 5 6 
#
# 1 0.010745 -0.000627 -0.010112 0.000000 0.000000 0.000000
# 2 -0.000627 0.016132 -0.011894 0.000000 0.000000 0.000000
# 3 -0.010112 -0.011894 0.037478 0.000000 0.000000 0.000000
# 4 0.000000 0.000000 0.000000 0.080585 0.000000 0.000000
# 5 0.000000 0.000000 0.000000 0.000000 0.028853 0.000000
# 6 0.000000 0.000000 0.000000 0.000000 0.000000 0.024957
#
#
# Mechanical properties :
#
#
# Convention : Reuss Voigt Hill
#
# Bulk Modulus (GPa) = 52.38606 64.44496 58.41551
# Shear Modulus (GPa) = 19.96969 27.71941 23.84455
#
# Velocity S-wave (km/s) = 3.13538 3.69400 3.42609
# Velocity P-wave (km/s) = 6.23665 7.06533 6.66388
#
# Compressibility (1/GPa) = 0.01908905
#
# Stress axis : x y z
#
# Youngs Moduli (GPa) = 93.06829 61.98924 26.68206
#
# Poissons Ratio (x) = 0.03886 0.26981
# Poissons Ratio (y) = 0.05834 0.31736
# Poissons Ratio (z) = 0.94111 0.73731
#
# Static dielectric constant tensor:
#      x y z
#    x 1.736360 0.000000 0.000000 
#    y 0.000000 1.763630 0.000000 
#    z 0.000000 0.000000 1.718240 
# 
# From -- ./inp_files/29820.got.cif
#   From: 2010.05.17/outbox.cif.g08.bks.cpg/sg21_15_cif.got.tgz:29820.got - 2010.06.03 23:14:55.
