data_PCOD9325845
_publ_section_title
;
Structure prediction by ZEFSAII (Michael W. Deem and Ramdas Pophale) SiO2 
 PCOD9325845
Probable space group: C 2 2 2
;
_chemical_formula_sum "Si O2"
_cell_formula_units_Z 20
_cell_length_a 15.000000
_cell_length_b 15.000000
_cell_length_c 9.000000
_cell_angle_alpha 90.000000
_cell_angle_beta 90.000000
_cell_angle_gamma 90.000000
_cell_volume 2025.000000
_symmetry_space_group_name_H-M "C 2 2 2"
_symmetry_group_IT_number 21
_symmetry_cell_setting 'orthorhombic'
loop_
_space_group_symop_operation_xyz
x,y,z
-x,-y,z
x,-y,-z
-x,y,-z
1/2+x,1/2+y,z
1/2-x,1/2-y,z
1/2+x,1/2-y,-z
1/2-x,1/2+y,-z
loop_
_atom_site_type_symbol
_atom_site_label
_atom_site_fract_x
_atom_site_fract_y
_atom_site_fract_z
Si Si1 0.794571 0.153337 0.658513
Si Si2 0.484977 0.273803 0.323565
Si Si3 0.028576 0.596271 0.174112
Si Si4 0.217830 0.481733 0.826404
Si Si5 0.317417 0.668308 0.304489
O O1 0.750000 0.250000 0.687102
O O2 0.800699 0.143357 0.478806
O O3 0.898218 0.165980 0.708646
O O4 0.738393 0.073333 0.735494
O O5 0.500000 0.266836 0.500000
O O6 0.478095 0.175266 0.256201
O O7 0.581115 0.306523 0.270578
O O8 0.133721 0.584505 0.206191
O O9 0.000000 0.500000 0.229886
O O10 0.000000 0.602399 0.000000
O O11 0.299375 0.418278 0.791621
O O12 0.207418 0.500000 0.000000
O O13 0.250000 0.750000 0.272506
#
# Coordination Sequence:
#
# PCOD9325845 Si02
#       5
#     8   8   8   8   8
#     4  10  23  41  65  94 129 166 214 263 320 379
#     4  10  22  42  66  94 124 166 211 266 320 375
#     4  11  22  39  60  91 128 162 210 262 317 379
#     4  12  24  40  63  93 129 170 210 261 318 379
#     4  10  21  42  66  93 128 166 214 266 318 378
#
# _framework density 9.8765429999999999
#
# number of rings (size 3 to 8) (size 9 to 14) (size 15 to 20)
#    0.000    1.400    4.000    1.800    0.000    3.600 
#    3.600    4.000    0.000    0.000    0.000    0.000 
#    0.000    0.000    0.000    0.000    0.000    0.000 
#
# Total GULP energy -111398.046252 kJ/mol
# GULP energy per Si atom -5569.902313 kJ/mol
# Density = 0.985406 g / cm^3
# Si number density = 9.876543 Si / 1000 Ang^3
#
#
#
# Elastic Constant Matrix: (Units=GPa)
#
#
# Indices 1 2 3 4 5 6 
#
# 1 75.6872 -20.9528 -24.3672 0.0000 0.0000 0.0000
# 2 -20.9528 14.1915 -28.8705 0.0000 0.0000 0.0000
# 3 -24.3672 -28.8705 -31.0133 0.0000 0.0000 0.0000
# 4 0.0000 0.0000 0.0000 11.2459 0.0000 0.0000
# 5 0.0000 0.0000 0.0000 0.0000 19.2686 0.0000
# 6 0.0000 0.0000 0.0000 0.0000 0.0000 35.2939
#
#
#
# Elastic Compliance Matrix: (Units=1/GPa)
#
#
# Indices 1 2 3 4 5 6 
#
# 1 0.010553 -0.000445 -0.007877 0.000000 0.000000 0.000000
# 2 -0.000445 0.024369 -0.022336 0.000000 0.000000 0.000000
# 3 -0.007877 -0.022336 -0.005262 0.000000 0.000000 0.000000
# 4 0.000000 0.000000 0.000000 0.088921 0.000000 0.000000
# 5 0.000000 0.000000 0.000000 0.000000 0.051898 0.000000
# 6 0.000000 0.000000 0.000000 0.000000 0.000000 0.028333
#
#
# Mechanical properties :
#
#
# Convention : Reuss Voigt Hill
#
# Bulk Modulus (GPa) = -31.58915 -9.94619 -20.76767
# Shear Modulus (GPa) = 20.03395 22.03208 21.03301
#
# Velocity S-wave (km/s) = 3.18814 3.34334 3.26666
# Velocity P-wave (km/s) = 1.57304 3.13970 1.92137
#
# Compressibility (1/GPa) = -0.03165644
#
# Stress axis : x y z
#
# Youngs Moduli (GPa) = 94.75958 41.03574 -190.03314
#
# Poissons Ratio (x) = 0.01825 -1.49698
# Poissons Ratio (y) = 0.04215 -4.24455
# Poissons Ratio (z) = 0.74647 0.91657
#
# Static dielectric constant tensor:
#      x y z
#    x 1.943820 0.000000 0.000000 
#    y 0.000000 1.711670 0.000000 
#    z 0.000000 0.000000 1.690350 
# 
# From -- ./inp_files/14488.got.cif
#   From: 2010.05.17/outbox.ucp.g08.bks.cvg/sg21_8_cif.got.tgz:14488.got - 2010.06.11 15:15:05.
