data_PCOD9325868
_publ_section_title
;
Structure prediction by ZEFSAII (Michael W. Deem and Ramdas Pophale) SiO2 
 PCOD9325868
Probable space group: F 2 2 2
;
_chemical_formula_sum "Si O2"
_cell_formula_units_Z 128
_cell_length_a 23.887737
_cell_length_b 14.167370
_cell_length_c 22.412531
_cell_angle_alpha 90.000000
_cell_angle_beta 90.000000
_cell_angle_gamma 90.000000
_cell_volume 7584.992373
_symmetry_space_group_name_H-M "F 2 2 2"
_symmetry_group_IT_number 22
_symmetry_cell_setting 'orthorhombic'
loop_
_space_group_symop_operation_xyz
x,y,z
-x,-y,z
x,-y,-z
-x,y,-z
x,1/2+y,1/2+z
-x,1/2-y,1/2+z
x,1/2-y,1/2-z
-x,1/2+y,1/2-z
1/2+x,y,1/2+z
1/2-x,-y,1/2+z
1/2+x,-y,1/2-z
1/2-x,y,1/2-z
1/2+x,1/2+y,z
1/2-x,1/2-y,z
1/2+x,1/2-y,-z
1/2-x,1/2+y,-z
loop_
_atom_site_type_symbol
_atom_site_label
_atom_site_fract_x
_atom_site_fract_y
_atom_site_fract_z
Si Si1 0.298359 0.503581 0.800104
Si Si2 0.786015 0.476921 0.107984
Si Si3 0.532352 0.096947 0.116683
Si Si4 0.115093 0.001551 0.296203
Si Si5 0.295538 0.679358 0.565540
Si Si6 0.552874 0.701662 0.307687
Si Si7 0.331113 0.784217 0.682839
Si Si8 0.627793 0.106313 0.024818
O O1 0.250000 0.508591 0.750000
O O2 0.268845 0.448932 0.854632
O O3 0.354278 0.471790 0.765058
O O4 0.310720 0.609267 0.822396
O O5 0.835150 0.506972 0.154788
O O6 0.774424 0.571715 0.070340
O O7 0.816984 0.401324 0.066743
O O8 0.488250 0.173355 0.139428
O O9 0.574046 0.129265 0.064623
O O10 0.500000 0.000000 0.098961
O O11 0.569789 0.067594 0.174360
O O12 0.085291 0.103572 0.290749
O O13 0.250000 0.750000 0.538245
O O14 0.306232 0.718141 0.631927
O O15 0.353630 0.672618 0.529276
O O16 0.524726 0.750000 0.250000
O O17 0.602331 0.773161 0.324429
O O18 0.317342 0.750000 0.750000
O O19 0.618455 0.000000 0.000000
#
# Coordination Sequence:
#
# PCOD9325868 Si02
#       8
#    16  16  16  16  16  16  16  16
#     4  10  16  23  43  72 100 120 134 170 232 291
#     4   9  16  27  43  65  95 122 146 176 228 272
#     4   9  19  32  49  64  90 126 159 193 234 263
#     4   9  15  27  42  69  96 119 144 181 226 284
#     4  11  19  28  45  66  94 125 152 178 230 282
#     4  10  17  28  44  66  96 123 146 186 238 282
#     4  11  18  25  41  71 105 118 135 175 237 300
#     4   9  20  34  45  64  91 122 162 196 217 267
#
# _framework density 16.875429
#
# number of rings (size 3 to 8) (size 9 to 14) (size 15 to 20)
#    0.000    2.250    5.000    0.750    1.750    0.250 
#    0.000    0.000    2.750    0.000    0.000    0.000 
#    0.000    0.000    0.000    0.000    0.000    0.000 
#
# Total GULP energy -178150.747902 kJ/mol
# GULP energy per Si atom -5567.210872 kJ/mol
# Density = 1.683702 g / cm^3
# Si number density = 16.875429 Si / 1000 Ang^3
#
#
#
# Elastic Constant Matrix: (Units=GPa)
#
#
# Indices 1 2 3 4 5 6 
#
# 1 73.5834 5.0830 36.1415 0.0000 0.0000 0.0000
# 2 5.0830 10.0493 10.3748 0.0000 0.0000 0.0000
# 3 36.1415 10.3748 74.9222 0.0000 0.0000 0.0000
# 4 0.0000 0.0000 0.0000 12.0013 0.0000 0.0000
# 5 0.0000 0.0000 0.0000 0.0000 37.5274 0.0000
# 6 0.0000 0.0000 0.0000 0.0000 0.0000 14.1955
#
#
#
# Elastic Compliance Matrix: (Units=1/GPa)
#
#
# Indices 1 2 3 4 5 6 
#
# 1 0.017810 -0.000162 -0.008569 0.000000 0.000000 0.000000
# 2 -0.000162 0.116110 -0.016000 0.000000 0.000000 0.000000
# 3 -0.008569 -0.016000 0.019696 0.000000 0.000000 0.000000
# 4 0.000000 0.000000 0.000000 0.083324 0.000000 0.000000
# 5 0.000000 0.000000 0.000000 0.000000 0.026647 0.000000
# 6 0.000000 0.000000 0.000000 0.000000 0.000000 0.070445
#
#
# Mechanical properties :
#
#
# Convention : Reuss Voigt Hill
#
# Bulk Modulus (GPa) = 9.60116 29.08372 19.34244
# Shear Modulus (GPa) = 11.95565 19.87521 15.91543
#
# Velocity S-wave (km/s) = 2.66459 3.43557 3.07435
# Velocity P-wave (km/s) = 3.89467 5.74538 4.90805
#
# Compressibility (1/GPa) = 0.10415410
#
# Stress axis : x y z
#
# Youngs Moduli (GPa) = 56.14851 8.61253 50.77098
#
# Poissons Ratio (x) = 0.00140 0.43505
# Poissons Ratio (y) = 0.00910 0.81234
# Poissons Ratio (z) = 0.48113 0.13780
#
# Static dielectric constant tensor:
#      x y z
#    x 1.617830 0.000000 0.000000 
#    y 0.000000 1.566200 0.000000 
#    z 0.000000 0.000000 1.632530 
# 
# From -- ./inp_files/45466.got.cif
#   From: 2010.05.17/outbox.cif.g08.bks.cpg/sg22_23_cif.got.tgz:45466.got - 2010.06.03 23:40:54.
