data_PCOD9325644
_publ_section_title
;
Structure prediction by ZEFSAII (Michael W. Deem and Ramdas Pophale) SiO2 
 PCOD9325644
Probable space group: C 2 2 2
;
_chemical_formula_sum "Si O2"
_cell_formula_units_Z 22
_cell_length_a 5.077610
_cell_length_b 32.319066
_cell_length_c 5.495123
_cell_angle_alpha 90.000000
_cell_angle_beta 90.000000
_cell_angle_gamma 90.000000
_cell_volume 901.769537
_symmetry_space_group_name_H-M "C 2 2 2"
_symmetry_group_IT_number 21
_symmetry_cell_setting 'orthorhombic'
loop_
_space_group_symop_operation_xyz
x,y,z
-x,-y,z
x,-y,-z
-x,y,-z
1/2+x,1/2+y,z
1/2-x,1/2-y,z
1/2+x,1/2-y,-z
1/2-x,1/2+y,-z
loop_
_atom_site_type_symbol
_atom_site_label
_atom_site_fract_x
_atom_site_fract_y
_atom_site_fract_z
Si Si1 0.500000 0.000000 0.500000
Si Si2 0.239882 0.657965 0.846534
Si Si3 0.500000 0.275597 0.500000
Si Si4 0.665470 0.569409 0.252626
O O1 0.332611 0.029275 0.321667
O O2 0.335051 0.693145 0.667021
O O3 0.164662 0.611822 0.760203
O O4 0.500000 0.649499 0.000000
O O5 0.000000 0.674716 0.000000
O O6 0.750000 0.250000 0.388305
O O7 0.500000 0.576221 0.500000
O O8 0.500000 0.563426 0.000000
#
# Coordination Sequence:
#
# PCOD9325644 Si02
#       4
#     2   8   4   8
#     4  12  30  48  84 112 172 210 286 340 422 462
#     4  11  26  50  79 112 162 215 270 332 415 495
#     4  12  26  47  82 119 158 205 270 341 418 496
#     4  11  28  52  77 117 163 218 277 342 411 492
#
# _framework density 24.396476
#
# number of rings (size 3 to 8) (size 9 to 14) (size 15 to 20)
#    0.000    0.727    1.818    2.727   10.182    8.727 
#    0.000    0.000    0.000    0.000    0.000    0.000 
#    0.000    0.000    0.000    0.000    0.000    0.000 
#
# Total GULP energy -61455.204263 kJ/mol
# GULP energy per Si atom -5586.836751 kJ/mol
# Density = 2.434095 g / cm^3
# Si number density = 24.396476 Si / 1000 Ang^3
#
#
#
# Elastic Constant Matrix: (Units=GPa)
#
#
# Indices 1 2 3 4 5 6 
#
# 1 138.8901 67.7253 75.0937 0.0000 0.0000 0.0000
# 2 67.7253 174.0780 69.8470 0.0000 0.0000 0.0000
# 3 75.0937 69.8470 154.6259 0.0000 0.0000 0.0000
# 4 0.0000 0.0000 0.0000 46.4700 0.0000 0.0000
# 5 0.0000 0.0000 0.0000 0.0000 45.5855 0.0000
# 6 0.0000 0.0000 0.0000 0.0000 0.0000 117.6157
#
#
#
# Elastic Compliance Matrix: (Units=1/GPa)
#
#
# Indices 1 2 3 4 5 6 
#
# 1 0.010593 -0.002512 -0.004010 0.000000 0.000000 0.000000
# 2 -0.002512 0.007612 -0.002218 0.000000 0.000000 0.000000
# 3 -0.004010 -0.002218 0.009417 0.000000 0.000000 0.000000
# 4 0.000000 0.000000 0.000000 0.021519 0.000000 0.000000
# 5 0.000000 0.000000 0.000000 0.000000 0.021937 0.000000
# 6 0.000000 0.000000 0.000000 0.000000 0.000000 0.008502
#
#
# Mechanical properties :
#
#
# Convention : Reuss Voigt Hill
#
# Bulk Modulus (GPa) = 98.61043 99.21401 98.91222
# Shear Modulus (GPa) = 49.78068 58.92946 54.35507
#
# Velocity S-wave (km/s) = 4.52208 4.92010 4.72528
# Velocity P-wave (km/s) = 8.23245 8.54588 8.39063
#
# Compressibility (1/GPa) = 0.01014091
#
# Stress axis : x y z
#
# Youngs Moduli (GPa) = 94.40340 131.36980 106.19653
#
# Poissons Ratio (x) = 0.33005 0.42580
# Poissons Ratio (y) = 0.23718 0.23558
# Poissons Ratio (z) = 0.37851 0.29143
#
# Static dielectric constant tensor:
#      x y z
#    x 1.920680 0.000000 0.000000 
#    y 0.000000 2.099590 0.000000 
#    z 0.000000 0.000000 1.983550 
# 
# From -- ./inp_files/765.got.cif
#   From: 2010.05.17/outbox.cif.g08.bks.cpg/sg21_1_cif.got.tgz:765.got - 2010.06.03 23:14:55.
