data_PCOD9325337
_publ_section_title
;
Structure prediction by ZEFSAII (Michael W. Deem and Ramdas Pophale) SiO2 
 PCOD9325337
Probable space group: C 2 2 2
;
_chemical_formula_sum "Si O2"
_cell_formula_units_Z 48
_cell_length_a 9.288749
_cell_length_b 16.172609
_cell_length_c 15.391937
_cell_angle_alpha 90.000000
_cell_angle_beta 90.000000
_cell_angle_gamma 90.000000
_cell_volume 2312.227657
_symmetry_space_group_name_H-M "C 2 2 2"
_symmetry_group_IT_number 21
_symmetry_cell_setting 'orthorhombic'
loop_
_space_group_symop_operation_xyz
x,y,z
-x,-y,z
x,-y,-z
-x,y,-z
1/2+x,1/2+y,z
1/2-x,1/2-y,z
1/2+x,1/2-y,-z
1/2-x,1/2+y,-z
loop_
_atom_site_type_symbol
_atom_site_label
_atom_site_fract_x
_atom_site_fract_y
_atom_site_fract_z
Si Si1 0.773745 0.500000 0.000000
Si Si2 0.577076 0.237051 0.592404
Si Si3 0.911234 0.270399 0.838802
Si Si4 0.374060 0.318438 0.735602
Si Si5 0.500000 0.857942 0.000000
Si Si6 0.916941 0.414209 0.713941
Si Si7 0.668167 0.494917 0.197898
O O1 0.696542 0.488446 0.905705
O O2 0.874502 0.422109 0.024812
O O3 0.500000 0.243237 0.500000
O O4 0.750000 0.250000 0.588405
O O5 0.488377 0.299605 0.656840
O O6 0.565592 0.143990 0.630769
O O7 0.750000 0.250000 0.809032
O O8 0.966985 0.352592 0.790041
O O9 0.024097 0.199598 0.818205
O O10 0.917733 0.296678 0.936563
O O11 0.250000 0.250000 0.725411
O O12 0.299480 0.405413 0.757843
O O13 0.757314 0.439201 0.745544
O O14 0.000000 0.500000 0.708510
O O15 0.500000 0.500000 0.212011
#
# Coordination Sequence:
#
# PCOD9325337 Si02
#       7
#     4   8   8   8   4   8   8
#     4  11  23  38  60  92 132 180 236 280 336 386
#     4  11  24  45  72 101 137 173 218 273 335 407
#     4  11  23  41  61  90 126 174 230 280 334 390
#     4  11  23  41  66  97 131 173 216 268 342 400
#     4  11  22  38  62  84 125 178 232 278 329 392
#     4  11  22  43  69  93 129 181 219 263 329 417
#     4  12  23  39  64  95 132 175 224 282 335 383
#
# _framework density 20.759201000000001
#
# number of rings (size 3 to 8) (size 9 to 14) (size 15 to 20)
#    0.000    0.833    1.667    8.750    0.000    2.333 
#    0.000    0.000    0.000    3.500    0.000    0.000 
#    0.000    0.000    0.000    0.000    0.000    0.000 
#
# Total GULP energy -133724.728697 kJ/mol
# GULP energy per Si atom -5571.863696 kJ/mol
# Density = 2.071195 g / cm^3
# Si number density = 20.759201 Si / 1000 Ang^3
#
#
#
# Elastic Constant Matrix: (Units=GPa)
#
#
# Indices 1 2 3 4 5 6 
#
# 1 100.4908 6.8647 16.3966 0.0000 0.0000 0.0000
# 2 6.8647 92.2074 20.9098 0.0000 0.0000 0.0000
# 3 16.3966 20.9098 56.8072 0.0000 0.0000 0.0000
# 4 0.0000 0.0000 0.0000 17.0437 0.0000 0.0000
# 5 0.0000 0.0000 0.0000 0.0000 25.9902 0.0000
# 6 0.0000 0.0000 0.0000 0.0000 0.0000 0.2534
#
#
#
# Elastic Compliance Matrix: (Units=1/GPa)
#
#
# Indices 1 2 3 4 5 6 
#
# 1 0.010444 -0.000102 -0.002977 0.000000 0.000000 0.000000
# 2 -0.000102 0.011834 -0.004326 0.000000 0.000000 0.000000
# 3 -0.002977 -0.004326 0.020055 0.000000 0.000000 0.000000
# 4 0.000000 0.000000 0.000000 0.058673 0.000000 0.000000
# 5 0.000000 0.000000 0.000000 0.000000 0.038476 0.000000
# 6 0.000000 0.000000 0.000000 0.000000 0.000000 3.945799
#
#
# Mechanical properties :
#
#
# Convention : Reuss Voigt Hill
#
# Bulk Modulus (GPa) = 36.33495 37.53861 36.93678
# Shear Modulus (GPa) = 1.21676 22.34641 11.78159
#
# Velocity S-wave (km/s) = 0.76642 3.28450 2.38489
# Velocity P-wave (km/s) = 4.28068 5.70141 5.04135
#
# Compressibility (1/GPa) = 0.02752171
#
# Stress axis : x y z
#
# Youngs Moduli (GPa) = 95.74999 84.50362 49.86284
#
# Poissons Ratio (x) = 0.00866 0.14843
# Poissons Ratio (y) = 0.00981 0.21572
# Poissons Ratio (z) = 0.28502 0.36558
#
# Static dielectric constant tensor:
#      x y z
#    x 1.781940 0.000000 0.000000 
#    y 0.000000 1.817240 0.000000 
#    z 0.000000 0.000000 1.828940 
# 
# From -- ./inp_files/30547.got.cif
#   From: 2010.05.17/outbox.cif.g08.bks.cpg/sg21_16_cif.got.tgz:30547.got - 2010.06.03 23:14:55.
