data_PCOD9325801
_publ_section_title
;
Structure prediction by ZEFSAII (Michael W. Deem and Ramdas Pophale) SiO2 
 PCOD9325801
Probable space group: C 2 2 2
;
_chemical_formula_sum "Si O2"
_cell_formula_units_Z 18
_cell_length_a 5.011778
_cell_length_b 8.691483
_cell_length_c 17.063687
_cell_angle_alpha 90.000000
_cell_angle_beta 90.000000
_cell_angle_gamma 90.000000
_cell_volume 743.290508
_symmetry_space_group_name_H-M "C 2 2 2"
_symmetry_group_IT_number 21
_symmetry_cell_setting 'orthorhombic'
loop_
_space_group_symop_operation_xyz
x,y,z
-x,-y,z
x,-y,-z
-x,y,-z
1/2+x,1/2+y,z
1/2-x,1/2-y,z
1/2+x,1/2-y,-z
1/2-x,1/2+y,-z
loop_
_atom_site_type_symbol
_atom_site_label
_atom_site_fract_x
_atom_site_fract_y
_atom_site_fract_z
Si Si1 0.000000 0.500000 0.500000
Si Si2 0.500000 0.000000 0.165968
Si Si3 0.750000 0.250000 0.051550
Si Si4 0.500000 0.500000 0.276331
Si Si5 0.250000 0.250000 0.615609
O O1 0.147255 0.383549 0.558316
O O2 0.609414 0.129199 0.108210
O O3 0.746599 0.962951 0.222417
O O4 0.500000 0.311197 0.000000
O O5 0.443732 0.651738 0.328305
#
# Coordination Sequence:
#
# PCOD9325801 Si02
#       5
#     2   4   4   4   4
#     4  12  26  48  76 112 152 200 254 314 380 454
#     4  12  28  50  78 114 154 202 256 316 382 456
#     4  12  27  50  78 113 154 202 256 316 382 455
#     4  12  28  51  79 114 156 204 258 318 384 456
#     4  12  27  48  78 113 154 202 256 316 382 455
#
# _framework density 24.216643000000001
#
# number of rings (size 3 to 8) (size 9 to 14) (size 15 to 20)
#    0.000    0.000    0.000    8.667    0.000   14.222 
#    0.000    0.000    0.000    0.000    0.000    0.000 
#    0.000    0.000    0.000    0.000    0.000    0.000 
#
# Total GULP energy -50448.376533 kJ/mol
# GULP energy per Si atom -5605.375170 kJ/mol
# Density = 2.416152 g / cm^3
# Si number density = 24.216643 Si / 1000 Ang^3
#
#
#
# Elastic Constant Matrix: (Units=GPa)
#
#
# Indices 1 2 3 4 5 6 
#
# 1 209.2682 100.5146 132.7582 0.0000 0.0000 0.0000
# 2 100.5146 222.3366 118.6837 0.0000 0.0000 0.0000
# 3 132.7582 118.6837 210.1867 0.0000 0.0000 0.0000
# 4 0.0000 0.0000 0.0000 -314.3053 0.0000 0.0000
# 5 0.0000 0.0000 0.0000 0.0000 73.0743 0.0000
# 6 0.0000 0.0000 0.0000 0.0000 0.0000 61.1714
#
#
#
# Elastic Compliance Matrix: (Units=1/GPa)
#
#
# Indices 1 2 3 4 5 6 
#
# 1 0.008250 -0.001357 -0.004445 0.000000 0.000000 0.000000
# 2 -0.001357 0.006662 -0.002904 0.000000 0.000000 0.000000
# 3 -0.004445 -0.002904 0.009205 0.000000 0.000000 0.000000
# 4 0.000000 0.000000 0.000000 -0.003182 0.000000 0.000000
# 5 0.000000 0.000000 0.000000 0.000000 0.013685 0.000000
# 6 0.000000 0.000000 0.000000 0.000000 0.000000 0.016348
#
#
# Mechanical properties :
#
#
# Convention : Reuss Voigt Hill
#
# Bulk Modulus (GPa) = 149.15504 149.52275 149.33890
# Shear Modulus (GPa) = 70.80769 -16.68959 27.05905
#
# Velocity S-wave (km/s) = 5.41320 -2.62807 3.34634
# Velocity P-wave (km/s) = 10.03972 7.25733 8.75970
#
# Compressibility (1/GPa) = 0.00670443
#
# Stress axis : x y z
#
# Youngs Moduli (GPa) = 121.21198 150.11501 108.63841
#
# Poissons Ratio (x) = 0.20374 0.48285
# Poissons Ratio (y) = 0.16451 0.31552
# Poissons Ratio (z) = 0.53873 0.43598
#
# Static dielectric constant tensor:
#      x y z
#    x 1.991730 0.000000 0.000000 
#    y 0.000000 1.881130 0.000000 
#    z 0.000000 0.000000 1.926800 
# 
# From -- ./inp_files/34108.got.cif
#   From: 2010.05.17/outbox.cif.g08.bks.cpg/sg21_18_cif.got.tgz:34108.got - 2010.06.03 23:14:55.
