data_PCOD9325823
_publ_section_title
;
Structure prediction by ZEFSAII (Michael W. Deem and Ramdas Pophale) SiO2 
 PCOD9325823
Probable space group: C 2 2 2
;
_chemical_formula_sum "Si O2"
_cell_formula_units_Z 20
_cell_length_a 4.992085
_cell_length_b 15.622012
_cell_length_c 9.707287
_cell_angle_alpha 90.000000
_cell_angle_beta 90.000000
_cell_angle_gamma 90.000000
_cell_volume 757.036481
_symmetry_space_group_name_H-M "C 2 2 2"
_symmetry_group_IT_number 21
_symmetry_cell_setting 'orthorhombic'
loop_
_space_group_symop_operation_xyz
x,y,z
-x,-y,z
x,-y,-z
-x,y,-z
1/2+x,1/2+y,z
1/2-x,1/2-y,z
1/2+x,1/2-y,-z
1/2-x,1/2+y,-z
loop_
_atom_site_type_symbol
_atom_site_label
_atom_site_fract_x
_atom_site_fract_y
_atom_site_fract_z
Si Si1 0.876167 0.344237 0.854897
Si Si2 0.743468 0.862562 0.597713
Si Si3 0.500000 0.500000 0.747355
O O1 0.750000 0.250000 0.869574
O O2 0.657166 0.419321 0.817712
O O3 0.113226 0.330464 0.742967
O O4 0.000000 0.371500 0.000000
O O5 0.500000 0.849784 0.500000
O O6 0.000000 0.836885 0.500000
O O7 0.790156 0.958254 0.645585
#
# Coordination Sequence:
#
# PCOD9325823 Si02
#       3
#     8   8   4
#     4  12  33  60  91 135 191 249 322 393 469 571
#     4  12  28  55  94 136 181 237 308 380 471 569
#     4  12  29  57  92 132 182 246 300 392 466 574
#
# _framework density 26.418810000000001
#
# number of rings (size 3 to 8) (size 9 to 14) (size 15 to 20)
#    0.000    0.000    4.000    1.800   11.200    4.800 
#    7.200    0.000    0.000    0.000    0.000    0.000 
#    0.000    0.000    0.000    0.000    0.000    0.000 
#
# Total GULP energy -55763.675614 kJ/mol
# GULP energy per Si atom -5576.367561 kJ/mol
# Density = 2.635868 g / cm^3
# Si number density = 26.418810 Si / 1000 Ang^3
#
#
#
# Elastic Constant Matrix: (Units=GPa)
#
#
# Indices 1 2 3 4 5 6 
#
# 1 229.3542 72.0675 97.2653 0.0000 0.0000 0.0000
# 2 72.0675 209.5509 41.6888 0.0000 0.0000 0.0000
# 3 97.2653 41.6888 213.6914 0.0000 0.0000 0.0000
# 4 0.0000 0.0000 0.0000 61.1570 0.0000 0.0000
# 5 0.0000 0.0000 0.0000 0.000014019.7924 0.0000
# 6 0.0000 0.0000 0.0000 0.0000 0.0000 54.5317
#
#
#
# Elastic Compliance Matrix: (Units=1/GPa)
#
#
# Indices 1 2 3 4 5 6 
#
# 1 0.005845 -0.001541 -0.002360 0.000000 0.000000 0.000000
# 2 -0.001541 0.005371 -0.000347 0.000000 0.000000 0.000000
# 3 -0.002360 -0.000347 0.005821 0.000000 0.000000 0.000000
# 4 0.000000 0.000000 0.000000 0.016351 0.000000 0.000000
# 5 0.000000 0.000000 0.000000 0.000000 0.000071 0.000000
# 6 0.000000 0.000000 0.000000 0.000000 0.000000 0.018338
#
#
# Mechanical properties :
#
#
# Convention : Reuss Voigt Hill
#
# Bulk Modulus (GPa) = 117.05366 119.40441 118.22903
# Shear Modulus (GPa) = 79.18938 2856.53453 1467.86195
#
# Velocity S-wave (km/s) = 5.48085 32.91804 23.59700
# Velocity P-wave (km/s) = 9.19000 38.60170 28.05840
#
# Compressibility (1/GPa) = 0.00854309
#
# Stress axis : x y z
#
# Youngs Moduli (GPa) = 171.08759 186.18801 171.78048
#
# Poissons Ratio (x) = 0.28686 0.40538
# Poissons Ratio (y) = 0.26359 0.05953
# Poissons Ratio (z) = 0.40374 0.06452
#
# Static dielectric constant tensor:
#      x y z
#    x 2.125740 0.000000 0.000000 
#    y 0.000000 -63.364360 0.000000 
#    z 0.000000 0.000000 1.953640 
# 
# From -- ./inp_files/8427.got.cif
#   From: 2010.05.17/outbox.cif.g08.bks.cpg/sg21_5_cif.got.tgz:8427.got - 2010.06.03 23:14:55.
