data_PCOD9325536
_publ_section_title
;
Structure prediction by ZEFSAII (Michael W. Deem and Ramdas Pophale) SiO2 
 PCOD9325536
Probable space group: C 2 2 2
;
_chemical_formula_sum "Si O2"
_cell_formula_units_Z 32
_cell_length_a 11.921450
_cell_length_b 7.112654
_cell_length_c 14.027387
_cell_angle_alpha 90.000000
_cell_angle_beta 90.000000
_cell_angle_gamma 90.000000
_cell_volume 1189.426316
_symmetry_space_group_name_H-M "C 2 2 2"
_symmetry_group_IT_number 21
_symmetry_cell_setting 'orthorhombic'
loop_
_space_group_symop_operation_xyz
x,y,z
-x,-y,z
x,-y,-z
-x,y,-z
1/2+x,1/2+y,z
1/2-x,1/2-y,z
1/2+x,1/2-y,-z
1/2-x,1/2+y,-z
loop_
_atom_site_type_symbol
_atom_site_label
_atom_site_fract_x
_atom_site_fract_y
_atom_site_fract_z
Si Si1 0.000000 0.000000 0.500000
Si Si2 0.250000 0.750000 0.224932
Si Si3 0.768059 0.560834 0.389589
Si Si4 0.020565 0.313976 0.365481
Si Si5 0.488081 0.211281 0.857085
Si Si6 0.500000 0.500000 0.000000
O O1 0.043564 0.153673 0.575619
O O2 0.259630 0.569151 0.296318
O O3 0.356738 0.748037 0.155789
O O4 0.748119 0.500000 0.500000
O O5 0.910619 0.480739 0.384111
O O6 0.658436 0.727590 0.385110
O O7 0.023687 0.282597 0.252681
O O8 0.500000 0.000000 0.891089
O O9 0.553229 0.353867 0.925182
#
# Coordination Sequence:
#
# PCOD9325536 Si02
#       6
#     2   4   8   8   8   2
#     4  12  24  32  68 100 140 200 254 292 360 424
#     4  12  26  50  72 104 154 196 242 308 374 440
#     4  12  26  40  65 105 153 201 253 298 354 433
#     4  11  24  44  65  97 147 196 247 302 361 441
#     4  11  26  53  76 107 146 189 249 316 382 460
#     4  12  28  52  84 112 134 180 244 316 400 456
#
# _framework density 26.903728000000001
#
# number of rings (size 3 to 8) (size 9 to 14) (size 15 to 20)
#    0.000    0.500    6.250    3.000    8.750    0.000 
#    4.500    0.000    0.000    0.000    0.000    0.000 
#    0.000    0.000    0.000    0.000    0.000    0.000 
#
# Total GULP energy -89233.091491 kJ/mol
# GULP energy per Si atom -5577.068218 kJ/mol
# Density = 2.684249 g / cm^3
# Si number density = 26.903728 Si / 1000 Ang^3
#
#
#
# Elastic Constant Matrix: (Units=GPa)
#
#
# Indices 1 2 3 4 5 6 
#
# 1 184.3246 23.2157 22.6872 0.0000 0.0000 0.0000
# 2 23.2157 277.8309 99.5013 0.0000 0.0000 0.0000
# 3 22.6872 99.5013 188.6932 0.0000 0.0000 0.0000
# 4 0.0000 0.0000 0.0000 54.8926 0.0000 0.0000
# 5 0.0000 0.0000 0.0000 0.0000 1.3722 0.0000
# 6 0.0000 0.0000 0.0000 0.0000 0.0000 44.6024
#
#
#
# Elastic Compliance Matrix: (Units=1/GPa)
#
#
# Indices 1 2 3 4 5 6 
#
# 1 0.005524 -0.000276 -0.000519 0.000000 0.000000 0.000000
# 2 -0.000276 0.004451 -0.002314 0.000000 0.000000 0.000000
# 3 -0.000519 -0.002314 0.006582 0.000000 0.000000 0.000000
# 4 0.000000 0.000000 0.000000 0.018217 0.000000 0.000000
# 5 0.000000 0.000000 0.000000 0.000000 0.728766 0.000000
# 6 0.000000 0.000000 0.000000 0.000000 0.000000 0.022420
#
#
# Mechanical properties :
#
#
# Convention : Reuss Voigt Hill
#
# Bulk Modulus (GPa) = 96.71107 104.62857 100.66982
# Shear Modulus (GPa) = 6.28437 53.86974 30.07706
#
# Velocity S-wave (km/s) = 1.53001 4.47958 3.34721
# Velocity P-wave (km/s) = 6.25671 8.10740 7.24142
#
# Compressibility (1/GPa) = 0.01034008
#
# Stress axis : x y z
#
# Youngs Moduli (GPa) = 181.03498 224.66485 151.92559
#
# Poissons Ratio (x) = 0.06196 0.07880
# Poissons Ratio (y) = 0.04993 0.35155
# Poissons Ratio (z) = 0.09390 0.51987
#
# Static dielectric constant tensor:
#      x y z
#    x 2.766670 0.000000 0.000000 
#    y 0.000000 2.196050 0.000000 
#    z 0.000000 0.000000 1.918810 
# 
# From -- ./inp_files/24750.got.cif
#   From: 2010.05.17/outbox.cif.g08.bks.cpg/sg21_13_cif.got.tgz:24750.got - 2010.06.03 23:14:55.
