data_PCOD9325053
_publ_section_title
;
Structure prediction by ZEFSAII (Michael W. Deem and Ramdas Pophale) SiO2 
 PCOD9325053
Probable space group: C 2 2 2
;
_chemical_formula_sum "Si O2"
_cell_formula_units_Z 48
_cell_length_a 8.803885
_cell_length_b 29.034077
_cell_length_c 8.065422
_cell_angle_alpha 90.000000
_cell_angle_beta 90.000000
_cell_angle_gamma 90.000000
_cell_volume 2061.624092
_symmetry_space_group_name_H-M "C 2 2 2"
_symmetry_group_IT_number 21
_symmetry_cell_setting 'orthorhombic'
loop_
_space_group_symop_operation_xyz
x,y,z
-x,-y,z
x,-y,-z
-x,y,-z
1/2+x,1/2+y,z
1/2-x,1/2-y,z
1/2+x,1/2-y,-z
1/2-x,1/2+y,-z
loop_
_atom_site_type_symbol
_atom_site_label
_atom_site_fract_x
_atom_site_fract_y
_atom_site_fract_z
Si Si1 0.940787 0.393927 0.320488
Si Si2 0.290707 0.547314 0.190587
Si Si3 0.807372 0.551381 0.188387
Si Si4 0.960527 0.099555 0.691682
Si Si5 0.927738 0.199412 0.690337
Si Si6 0.564120 0.200147 0.810147
O O1 0.768691 0.408160 0.291248
O O2 0.000000 0.406084 0.500000
O O3 0.022622 0.430367 0.198220
O O4 0.979735 0.341383 0.283608
O O5 0.225685 0.499373 0.257872
O O6 0.468242 0.556024 0.213291
O O7 0.248045 0.551035 0.999677
O O8 0.717678 0.590224 0.288063
O O9 0.989407 0.150858 0.759769
O O10 0.000000 0.097056 0.500000
O O11 0.743984 0.197698 0.744102
O O12 0.982061 0.247809 0.764000
O O13 0.000000 0.199842 0.500000
O O14 0.500000 0.193617 0.000000
#
# Coordination Sequence:
#
# PCOD9325053 Si02
#       6
#     8   8   8   8   8   8
#     4  12  25  42  68 100 136 185 237 301 367 437
#     4  11  25  40  67  97 134 187 234 299 364 436
#     4  11  23  44  63  94 140 181 238 294 366 438
#     4  11  23  42  68 100 137 184 235 294 361 434
#     4  10  24  48  76 106 148 194 241 302 371 444
#     4  11  24  48  76 109 145 192 246 303 367 445
#
# _framework density 23.282615
#
# number of rings (size 3 to 8) (size 9 to 14) (size 15 to 20)
#    0.000    1.000    1.667    4.500    2.333    8.000 
#    3.000    0.000    0.000    0.000    0.000    0.000 
#    0.000    0.000    0.000    0.000    0.000    0.000 
#
# Total GULP energy -133705.160615 kJ/mol
# GULP energy per Si atom -5571.048359 kJ/mol
# Density = 2.322962 g / cm^3
# Si number density = 23.282615 Si / 1000 Ang^3
#
#
#
# Elastic Constant Matrix: (Units=GPa)
#
#
# Indices 1 2 3 4 5 6 
#
# 1 47.3095 21.8194 21.1983 0.0000 0.0000 0.0000
# 2 21.8194 163.8117 11.0925 0.0000 0.0000 0.0000
# 3 21.1983 11.0925 88.7786 0.0000 0.0000 0.0000
# 4 0.0000 0.0000 0.0000 30.1620 0.0000 0.0000
# 5 0.0000 0.0000 0.0000 0.0000 47.0995 0.0000
# 6 0.0000 0.0000 0.0000 0.0000 0.0000 5.6799
#
#
#
# Elastic Compliance Matrix: (Units=1/GPa)
#
#
# Indices 1 2 3 4 5 6 
#
# 1 0.025009 -0.002952 -0.005603 0.000000 0.000000 0.000000
# 2 -0.002952 0.006505 -0.000108 0.000000 0.000000 0.000000
# 3 -0.005603 -0.000108 0.012615 0.000000 0.000000 0.000000
# 4 0.000000 0.000000 0.000000 0.033154 0.000000 0.000000
# 5 0.000000 0.000000 0.000000 0.000000 0.021232 0.000000
# 6 0.000000 0.000000 0.000000 0.000000 0.000000 0.176060
#
#
# Mechanical properties :
#
#
# Convention : Reuss Voigt Hill
#
# Bulk Modulus (GPa) = 37.30721 45.34670 41.32696
# Shear Modulus (GPa) = 16.62035 32.97423 24.79729
#
# Velocity S-wave (km/s) = 2.67470 3.76741 3.26706
# Velocity P-wave (km/s) = 5.05936 6.20027 5.65864
#
# Compressibility (1/GPa) = 0.02680447
#
# Stress axis : x y z
#
# Youngs Moduli (GPa) = 39.98511 153.72661 79.26885
#
# Poissons Ratio (x) = 0.45377 0.44413
# Poissons Ratio (y) = 0.11803 0.00856
# Poissons Ratio (z) = 0.22403 0.01660
#
# Static dielectric constant tensor:
#      x y z
#    x 1.875860 0.000000 0.000000 
#    y 0.000000 1.835410 0.000000 
#    z 0.000000 0.000000 1.853310 
# 
# From -- ./inp_files/11569.got.cif
#   From: 2010.05.17/outbox.cif.g08.bks.cpg/sg21_6_cif.got.tgz:11569.got - 2010.06.03 23:14:55.
