data_PCOD9325051
_publ_section_title
;
Structure prediction by ZEFSAII (Michael W. Deem and Ramdas Pophale) SiO2 
 PCOD9325051
Probable space group: C 2 2 2
;
_chemical_formula_sum "Si O2"
_cell_formula_units_Z 60
_cell_length_a 20.567675
_cell_length_b 6.133966
_cell_length_c 22.175754
_cell_angle_alpha 90.000000
_cell_angle_beta 90.000000
_cell_angle_gamma 90.000000
_cell_volume 2797.724595
_symmetry_space_group_name_H-M "C 2 2 2"
_symmetry_group_IT_number 21
_symmetry_cell_setting 'orthorhombic'
loop_
_space_group_symop_operation_xyz
x,y,z
-x,-y,z
x,-y,-z
-x,y,-z
1/2+x,1/2+y,z
1/2-x,1/2-y,z
1/2+x,1/2-y,-z
1/2-x,1/2+y,-z
loop_
_atom_site_type_symbol
_atom_site_label
_atom_site_fract_x
_atom_site_fract_y
_atom_site_fract_z
Si Si1 0.783821 0.500000 0.000000
Si Si2 0.179678 0.305406 0.361907
Si Si3 0.677063 0.168382 0.447318
Si Si4 0.065217 0.078297 0.825697
Si Si5 0.926009 0.020104 0.403925
Si Si6 0.351240 0.806604 0.766041
Si Si7 0.317488 0.883071 0.129970
Si Si8 0.445153 0.837365 0.291934
O O1 0.750000 0.250000 0.997110
O O2 0.821313 0.516263 0.936775
O O3 0.250000 0.250000 0.390699
O O4 0.174496 0.556227 0.381249
O O5 0.183747 0.215342 0.293425
O O6 0.115490 0.194780 0.389306
O O7 0.750000 0.250000 0.455923
O O8 0.620911 0.345173 0.447130
O O9 0.663117 0.000000 0.500000
O O10 0.119417 0.229955 0.857945
O O11 0.035832 0.215964 0.769819
O O12 0.105242 0.876456 0.797591
O O13 0.000000 0.000000 0.860517
O O14 0.931228 0.154454 0.340955
O O15 0.000000 0.000000 0.425120
O O16 0.313822 0.930373 0.819061
O O17 0.390073 0.999684 0.731942
O O18 0.250000 0.750000 0.133901
O O19 0.500000 0.000000 0.316059
#
# Coordination Sequence:
#
# PCOD9325051 Si02
#       8
#     4   8   8   8   8   8   8   8
#     4  10  24  48  76 103 141 200 258 312 380 452
#     4  12  25  43  71 106 140 187 226 292 355 431
#     4  12  28  51  77  96 131 185 241 285 355 443
#     4  11  22  39  65 104 146 192 233 291 367 440
#     4  12  26  44  73 107 143 178 234 297 362 427
#     4  11  23  36  67 102 150 176 236 292 364 422
#     4  10  26  41  67 106 141 189 247 305 362 436
#     4  11  20  38  63 100 142 190 225 271 354 446
#
# _framework density 21.445997999999999
#
# number of rings (size 3 to 8) (size 9 to 14) (size 15 to 20)
#    0.000    0.800    5.333    1.600    5.600    0.533 
#    0.000    2.000    0.000    2.400    0.000    0.000 
#    0.000    0.000    0.000    0.000    0.000    0.000 
#
# Total GULP energy -167281.190105 kJ/mol
# GULP energy per Si atom -5576.039670 kJ/mol
# Density = 2.139719 g / cm^3
# Si number density = 21.445998 Si / 1000 Ang^3
#
#
#
# Elastic Constant Matrix: (Units=GPa)
#
#
# Indices 1 2 3 4 5 6 
#
# 1 149.3157 38.2613 31.0007 0.0000 0.0000 0.0000
# 2 38.2613 68.8937 28.5249 0.0000 0.0000 0.0000
# 3 31.0007 28.5249 114.1277 0.0000 0.0000 0.0000
# 4 0.0000 0.0000 0.0000 6.7861 0.0000 0.0000
# 5 0.0000 0.0000 0.0000 0.0000 23.3415 0.0000
# 6 0.0000 0.0000 0.0000 0.0000 0.0000 40.2673
#
#
#
# Elastic Compliance Matrix: (Units=1/GPa)
#
#
# Indices 1 2 3 4 5 6 
#
# 1 0.007948 -0.003926 -0.001178 0.000000 0.000000 0.000000
# 2 -0.003926 0.018130 -0.003465 0.000000 0.000000 0.000000
# 3 -0.001178 -0.003465 0.009948 0.000000 0.000000 0.000000
# 4 0.000000 0.000000 0.000000 0.147359 0.000000 0.000000
# 5 0.000000 0.000000 0.000000 0.000000 0.042842 0.000000
# 6 0.000000 0.000000 0.000000 0.000000 0.000000 0.024834
#
#
# Mechanical properties :
#
#
# Convention : Reuss Voigt Hill
#
# Bulk Modulus (GPa) = 52.94250 58.65678 55.79964
# Shear Modulus (GPa) = 18.21526 29.71567 23.96546
#
# Velocity S-wave (km/s) = 2.91753 3.72641 3.34650
# Velocity P-wave (km/s) = 6.00744 6.77681 6.40369
#
# Compressibility (1/GPa) = 0.01888842
#
# Stress axis : x y z
#
# Youngs Moduli (GPa) = 125.82072 55.15617 100.52287
#
# Poissons Ratio (x) = 0.21657 0.11837
# Poissons Ratio (y) = 0.49402 0.34830
# Poissons Ratio (z) = 0.14816 0.19111
#
# Static dielectric constant tensor:
#      x y z
#    x 1.854770 0.000000 0.000000 
#    y 0.000000 1.860870 0.000000 
#    z 0.000000 0.000000 1.815080 
# 
# From -- ./inp_files/38884.got.cif
#   From: 2010.05.17/outbox.cif.g08.bks.cpg/sg21_20_cif.got.tgz:38884.got - 2010.06.03 23:14:55.
