data_PCOD9325743
_publ_section_title
;
Structure prediction by ZEFSAII (Michael W. Deem and Ramdas Pophale) SiO2 
 PCOD9325743
Probable space group: C 2 2 2
;
_chemical_formula_sum "Si O2"
_cell_formula_units_Z 40
_cell_length_a 15.897284
_cell_length_b 9.905581
_cell_length_c 11.995745
_cell_angle_alpha 90.000000
_cell_angle_beta 90.000000
_cell_angle_gamma 90.000000
_cell_volume 1888.991969
_symmetry_space_group_name_H-M "C 2 2 2"
_symmetry_group_IT_number 21
_symmetry_cell_setting 'orthorhombic'
loop_
_space_group_symop_operation_xyz
x,y,z
-x,-y,z
x,-y,-z
-x,y,-z
1/2+x,1/2+y,z
1/2-x,1/2-y,z
1/2+x,1/2-y,-z
1/2-x,1/2+y,-z
loop_
_atom_site_type_symbol
_atom_site_label
_atom_site_fract_x
_atom_site_fract_y
_atom_site_fract_z
Si Si1 0.656187 0.243028 0.851202
Si Si2 0.415396 0.309892 0.928921
Si Si3 0.239198 0.409406 0.606342
Si Si4 0.407640 0.514704 0.724234
Si Si5 0.592062 0.960665 0.785559
O O1 0.750000 0.250000 0.806564
O O2 0.601728 0.332588 0.766930
O O3 0.622954 0.091507 0.853579
O O4 0.654446 0.305899 0.974817
O O5 0.405713 0.423783 0.836354
O O6 0.417706 0.167913 0.865199
O O7 0.500000 0.328492 0.000000
O O8 0.217624 0.500000 0.500000
O O9 0.250000 0.250000 0.581853
O O10 0.328088 0.466216 0.653303
O O11 0.164370 0.427453 0.696057
O O12 0.500000 0.500000 0.671160
O O13 0.500000 0.000000 0.738183
#
# Coordination Sequence:
#
# PCOD9325743 Si02
#       5
#     8   8   8   8   8
#     4  12  26  38  68 108 155 193 229 282 362 441
#     4  12  24  42  68 111 154 196 234 285 354 442
#     4  12  30  54  77 101 138 188 253 319 365 414
#     4  12  25  47  72 107 147 189 242 294 360 441
#     4  12  25  47  72 107 147 189 242 294 360 441
#
# _framework density 21.175317
#
# number of rings (size 3 to 8) (size 9 to 14) (size 15 to 20)
#    0.000    0.000    8.000    1.200    5.600    2.400 
#    0.000    2.000    0.000    0.000    0.000    0.000 
#    0.000    0.000    0.000    0.000    0.000    0.000 
#
# Total GULP energy -111918.268321 kJ/mol
# GULP energy per Si atom -5595.913416 kJ/mol
# Density = 2.112712 g / cm^3
# Si number density = 21.175317 Si / 1000 Ang^3
#
#
#
# Elastic Constant Matrix: (Units=GPa)
#
#
# Indices 1 2 3 4 5 6 
#
# 1 106.1458 -8.7765 4.6900 0.0000 0.0000 0.0000
# 2 -8.7765 107.4711 8.4912 0.0000 0.0000 0.0000
# 3 4.6900 8.4912 49.2697 0.0000 0.0000 0.0000
# 4 0.0000 0.0000 0.0000 27.9960 0.0000 0.0000
# 5 0.0000 0.0000 0.0000 0.0000 -14.5669 0.0000
# 6 0.0000 0.0000 0.0000 0.0000 0.0000 27.8588
#
#
#
# Elastic Compliance Matrix: (Units=1/GPa)
#
#
# Indices 1 2 3 4 5 6 
#
# 1 0.009539 0.000862 -0.001057 0.000000 0.000000 0.000000
# 2 0.000862 0.009511 -0.001721 0.000000 0.000000 0.000000
# 3 -0.001057 -0.001721 0.020694 0.000000 0.000000 0.000000
# 4 0.000000 0.000000 0.000000 0.035719 0.000000 0.000000
# 5 0.000000 0.000000 0.000000 0.000000 -0.068649 0.000000
# 6 0.000000 0.000000 0.000000 0.000000 0.000000 0.035895
#
#
# Mechanical properties :
#
#
# Convention : Reuss Voigt Hill
#
# Bulk Modulus (GPa) = 27.84506 30.18843 29.01675
# Shear Modulus (GPa) = 85.45266 25.48971 55.47118
#
# Velocity S-wave (km/s) = 6.35944 3.47327 5.12377
# Velocity P-wave (km/s) = 8.19156 5.51109 6.98118
#
# Compressibility (1/GPa) = 0.03591302
#
# Stress axis : x y z
#
# Youngs Moduli (GPa) = 104.83273 105.13853 48.32395
#
# Poissons Ratio (x) = -0.09068 0.05106
# Poissons Ratio (y) = -0.09042 0.08318
# Poissons Ratio (z) = 0.11077 0.18097
#
# Static dielectric constant tensor:
#      x y z
#    x 1.805840 0.000000 0.000000 
#    y 0.000000 1.751830 0.000000 
#    z 0.000000 0.000000 1.727190 
# 
# From -- ./inp_files/25835.got.cif
#   From: 2010.05.17/outbox.cif.g08.bks.cpg/sg21_13_cif.got.tgz:25835.got - 2010.06.03 23:14:55.
