data_PCOD9325632
_publ_section_title
;
Structure prediction by ZEFSAII (Michael W. Deem and Ramdas Pophale) SiO2 
 PCOD9325632
Probable space group: C 2 2 2
;
_chemical_formula_sum "Si O2"
_cell_formula_units_Z 40
_cell_length_a 13.416612
_cell_length_b 23.780732
_cell_length_c 5.727516
_cell_angle_alpha 90.000000
_cell_angle_beta 90.000000
_cell_angle_gamma 90.000000
_cell_volume 1827.403238
_symmetry_space_group_name_H-M "C 2 2 2"
_symmetry_group_IT_number 21
_symmetry_cell_setting 'orthorhombic'
loop_
_space_group_symop_operation_xyz
x,y,z
-x,-y,z
x,-y,-z
-x,y,-z
1/2+x,1/2+y,z
1/2-x,1/2-y,z
1/2+x,1/2-y,-z
1/2-x,1/2+y,-z
loop_
_atom_site_type_symbol
_atom_site_label
_atom_site_fract_x
_atom_site_fract_y
_atom_site_fract_z
Si Si1 0.042848 0.662675 0.248984
Si Si2 0.593012 0.286417 0.282914
Si Si3 0.000000 0.891550 0.500000
Si Si4 0.750000 0.750000 0.337559
Si Si5 0.388724 0.559517 0.890731
Si Si6 0.744152 0.839266 0.994385
O O1 0.030342 0.730508 0.250391
O O2 0.000000 0.641966 0.500000
O O3 0.162148 0.654338 0.207835
O O4 0.000000 0.640356 0.000000
O O5 0.537818 0.345368 0.313131
O O6 0.663072 0.276723 0.505574
O O7 0.669233 0.295279 0.074113
O O8 0.915385 0.930093 0.383036
O O9 0.701001 0.804919 0.212362
O O10 0.303123 0.604159 0.950748
O O11 0.356948 0.500000 0.000000
O O12 0.500000 0.566773 0.000000
#
# Coordination Sequence:
#
# PCOD9325632 Si02
#       6
#     8   8   4   4   8   8
#     4  12  26  40  65 100 146 183 237 285 352 439
#     4  12  23  34  61  97 138 181 215 281 357 429
#     4  12  24  39  68  94 140 186 225 286 368 418
#     4  12  20  38  60  96 138 186 226 274 358 446
#     4  11  26  45  67  97 134 181 243 293 359 436
#     4  12  24  40  63  97 142 183 233 288 355 429
#
# _framework density 21.888985000000002
#
# number of rings (size 3 to 8) (size 9 to 14) (size 15 to 20)
#    0.000    0.200    9.000    1.200    2.800    1.600 
#    0.000    0.000    0.000    0.600    0.000    4.200 
#    0.000    0.000    0.000    0.000    0.000    0.000 
#
# Total GULP energy -111534.267127 kJ/mol
# GULP energy per Si atom -5576.713356 kJ/mol
# Density = 2.183916 g / cm^3
# Si number density = 21.888985 Si / 1000 Ang^3
#
#
#
# Elastic Constant Matrix: (Units=GPa)
#
#
# Indices 1 2 3 4 5 6 
#
# 1 69.5576 35.1177 32.8366 0.0000 0.0000 0.0000
# 2 35.1177 135.7954 35.5775 0.0000 0.0000 0.0000
# 3 32.8366 35.5775 86.0743 0.0000 0.0000 0.0000
# 4 0.0000 0.0000 0.0000 16.4778 0.0000 0.0000
# 5 0.0000 0.0000 0.0000 0.0000 49.2064 0.0000
# 6 0.0000 0.0000 0.0000 0.0000 0.0000 35.5380
#
#
#
# Elastic Compliance Matrix: (Units=1/GPa)
#
#
# Indices 1 2 3 4 5 6 
#
# 1 0.018798 -0.003345 -0.005789 0.000000 0.000000 0.000000
# 2 -0.003345 0.008853 -0.002383 0.000000 0.000000 0.000000
# 3 -0.005789 -0.002383 0.014811 0.000000 0.000000 0.000000
# 4 0.000000 0.000000 0.000000 0.060688 0.000000 0.000000
# 5 0.000000 0.000000 0.000000 0.000000 0.020323 0.000000
# 6 0.000000 0.000000 0.000000 0.000000 0.000000 0.028139
#
#
# Mechanical properties :
#
#
# Convention : Reuss Voigt Hill
#
# Bulk Modulus (GPa) = 51.46957 55.38786 53.42872
# Shear Modulus (GPa) = 27.60571 32.77083 30.18827
#
# Velocity S-wave (km/s) = 3.55515 3.87348 3.71772
# Velocity P-wave (km/s) = 6.35744 6.73529 6.54909
#
# Compressibility (1/GPa) = 0.01942895
#
# Stress axis : x y z
#
# Youngs Moduli (GPa) = 53.19728 112.95062 67.51550
#
# Poissons Ratio (x) = 0.37778 0.39083
# Poissons Ratio (y) = 0.17793 0.16092
# Poissons Ratio (z) = 0.30795 0.26921
#
# Static dielectric constant tensor:
#      x y z
#    x 1.892800 0.000000 0.000000 
#    y 0.000000 1.760880 0.000000 
#    z 0.000000 0.000000 2.077850 
# 
# From -- ./inp_files/3872.got.cif
#   From: 2010.05.17/outbox.cif.g08.bks.cpg/sg21_2_cif.got.tgz:3872.got - 2010.06.03 23:14:55.
