data_PCOD9325625
_publ_section_title
;
Structure prediction by ZEFSAII (Michael W. Deem and Ramdas Pophale) SiO2 
 PCOD9325625
Probable space group: C 2 2 2
;
_chemical_formula_sum "Si O2"
_cell_formula_units_Z 14
_cell_length_a 7.266982
_cell_length_b 7.327489
_cell_length_c 10.922836
_cell_angle_alpha 90.000000
_cell_angle_beta 90.000000
_cell_angle_gamma 90.000000
_cell_volume 581.627152
_symmetry_space_group_name_H-M "C 2 2 2"
_symmetry_group_IT_number 21
_symmetry_cell_setting 'orthorhombic'
loop_
_space_group_symop_operation_xyz
x,y,z
-x,-y,z
x,-y,-z
-x,y,-z
1/2+x,1/2+y,z
1/2-x,1/2-y,z
1/2+x,1/2-y,-z
1/2-x,1/2+y,-z
loop_
_atom_site_type_symbol
_atom_site_label
_atom_site_fract_x
_atom_site_fract_y
_atom_site_fract_z
Si Si1 0.719586 0.460293 0.360130
Si Si2 0.500000 0.500000 0.000000
Si Si3 0.750000 0.250000 0.827174
O O1 0.500000 0.500000 0.351814
O O2 0.775471 0.500000 0.500000
O O3 0.750000 0.250000 0.330140
O O4 0.820111 0.596441 0.267382
O O5 0.616590 0.364753 0.914397
#
# Coordination Sequence:
#
# PCOD9325625 Si02
#       3
#     8   2   4
#     4  11  25  48  79 116 150 191 248 322 384 439
#     4  12  32  48  82 100 166 206 252 296 372 450
#     4  12  28  56  72 118 148 208 252 310 366 464
#
# _framework density 24.070402999999999
#
# number of rings (size 3 to 8) (size 9 to 14) (size 15 to 20)
#    0.000    0.571    5.714    0.000    4.000    8.000 
#    0.000    0.000    0.000    0.000    0.000    0.000 
#    0.000    0.000    0.000    0.000    0.000    0.000 
#
# Total GULP energy -39222.030898 kJ/mol
# GULP energy per Si atom -5603.147271 kJ/mol
# Density = 2.401562 g / cm^3
# Si number density = 24.070403 Si / 1000 Ang^3
#
#
#
# Elastic Constant Matrix: (Units=GPa)
#
#
# Indices 1 2 3 4 5 6 
#
# 1 114.7441 87.6411 61.6061 0.0000 0.0000 0.0000
# 2 87.6411 306.4912 126.7790 0.0000 0.0000 0.0000
# 3 61.6061 126.7790 234.0349 0.0000 0.0000 0.0000
# 4 0.0000 0.0000 0.0000 47.9076 0.0000 0.0000
# 5 0.0000 0.0000 0.0000 0.0000 -40.6529 0.0000
# 6 0.0000 0.0000 0.0000 0.0000 0.0000 59.6173
#
#
#
# Elastic Compliance Matrix: (Units=1/GPa)
#
#
# Indices 1 2 3 4 5 6 
#
# 1 0.011609 -0.002649 -0.001621 0.000000 0.000000 0.000000
# 2 -0.002649 0.004809 -0.001908 0.000000 0.000000 0.000000
# 3 -0.001621 -0.001908 0.005733 0.000000 0.000000 0.000000
# 4 0.000000 0.000000 0.000000 0.020874 0.000000 0.000000
# 5 0.000000 0.000000 0.000000 0.000000 -0.024599 0.000000
# 6 0.000000 0.000000 0.000000 0.000000 0.000000 0.016774
#
#
# Mechanical properties :
#
#
# Convention : Reuss Voigt Hill
#
# Bulk Modulus (GPa) = 102.08783 134.14696 118.11740
# Shear Modulus (GPa) = 98.38524 38.65733 68.52129
#
# Velocity S-wave (km/s) = 6.40021 4.01185 5.34124
# Velocity P-wave (km/s) = 9.85501 8.79273 9.33898
#
# Compressibility (1/GPa) = 0.00979549
#
# Stress axis : x y z
#
# Youngs Moduli (GPa) = 86.14324 207.92284 174.42564
#
# Poissons Ratio (x) = 0.55080 0.28270
# Poissons Ratio (y) = 0.22820 0.33281
# Poissons Ratio (z) = 0.13962 0.39672
#
# Static dielectric constant tensor:
#      x y z
#    x 2.006310 0.000000 0.000000 
#    y 0.000000 1.872170 0.000000 
#    z 0.000000 0.000000 1.920860 
# 
# From -- ./inp_files/19901.got.cif
#   From: 2010.05.17/outbox.cif.g08.bks.cpg/sg21_10_cif.got.tgz:19901.got - 2010.06.03 23:14:55.
