data_PCOD9325784
_publ_section_title
;
Structure prediction by ZEFSAII (Michael W. Deem and Ramdas Pophale) SiO2 
 PCOD9325784
Probable space group: C 2 2 2
;
_chemical_formula_sum "Si O2"
_cell_formula_units_Z 26
_cell_length_a 7.639179
_cell_length_b 30.224853
_cell_length_c 5.337315
_cell_angle_alpha 90.000000
_cell_angle_beta 90.000000
_cell_angle_gamma 90.000000
_cell_volume 1232.349005
_symmetry_space_group_name_H-M "C 2 2 2"
_symmetry_group_IT_number 21
_symmetry_cell_setting 'orthorhombic'
loop_
_space_group_symop_operation_xyz
x,y,z
-x,-y,z
x,-y,-z
-x,y,-z
1/2+x,1/2+y,z
1/2-x,1/2-y,z
1/2+x,1/2-y,-z
1/2-x,1/2+y,-z
loop_
_atom_site_type_symbol
_atom_site_label
_atom_site_fract_x
_atom_site_fract_y
_atom_site_fract_z
Si Si1 0.893908 0.134283 0.737002
Si Si2 0.884955 0.290304 0.751576
Si Si3 0.500000 0.000000 0.000000
Si Si4 0.193850 0.547488 0.614568
O O1 0.727841 0.165278 0.787797
O O2 0.824023 0.087733 0.626272
O O3 0.000000 0.154578 0.500000
O O4 0.000000 0.129768 0.000000
O O5 0.750000 0.250000 0.723616
O O6 0.000000 0.293804 0.500000
O O7 0.000000 0.282790 0.000000
O O8 0.638689 0.034416 0.890432
O O9 0.252211 0.500000 0.500000
O O10 0.000000 0.557395 0.500000
#
# Coordination Sequence:
#
# PCOD9325784 Si02
#       4
#     8   8   2   8
#     4  12  27  43  65 101 140 177 226 279 338 405
#     4  12  25  46  75 103 139 177 223 276 339 403
#     4   8  18  36  66  82 120 164 236 264 338 384
#     4   9  21  40  64  90 125 176 231 278 335 398
#
# _framework density 21.097920999999999
#
# number of rings (size 3 to 8) (size 9 to 14) (size 15 to 20)
#    0.000    1.538    0.000    5.538   10.769    0.615 
#    0.000    0.000    0.000    0.000    0.000    0.000 
#    0.000    0.000    0.000    0.000    0.000    0.000 
#
# Total GULP energy -72420.291710 kJ/mol
# GULP energy per Si atom -5570.791670 kJ/mol
# Density = 2.104990 g / cm^3
# Si number density = 21.097921 Si / 1000 Ang^3
#
#
#
# Elastic Constant Matrix: (Units=GPa)
#
#
# Indices 1 2 3 4 5 6 
#
# 1 114.5148 64.3396 55.7172 0.0000 0.0000 0.0000
# 2 64.3396 113.1440 24.2524 0.0000 0.0000 0.0000
# 3 55.7172 24.2524 96.2471 0.0000 0.0000 0.0000
# 4 0.0000 0.0000 0.0000 32.9472 0.0000 0.0000
# 5 0.0000 0.0000 0.0000 0.0000 89.9054 0.0000
# 6 0.0000 0.0000 0.0000 0.0000 0.0000 46.2697
#
#
#
# Elastic Compliance Matrix: (Units=1/GPa)
#
#
# Indices 1 2 3 4 5 6 
#
# 1 0.017058 -0.008017 -0.007855 0.000000 0.000000 0.000000
# 2 -0.008017 0.013110 0.001337 0.000000 0.000000 0.000000
# 3 -0.007855 0.001337 0.014600 0.000000 0.000000 0.000000
# 4 0.000000 0.000000 0.000000 0.030352 0.000000 0.000000
# 5 0.000000 0.000000 0.000000 0.000000 0.011123 0.000000
# 6 0.000000 0.000000 0.000000 0.000000 0.000000 0.021612
#
#
# Mechanical properties :
#
#
# Convention : Reuss Voigt Hill
#
# Bulk Modulus (GPa) = 63.69361 68.05826 65.87593
# Shear Modulus (GPa) = 35.17211 45.79758 40.48485
#
# Velocity S-wave (km/s) = 4.08743 4.66415 4.38528
# Velocity P-wave (km/s) = 7.24784 7.83160 7.54537
#
# Compressibility (1/GPa) = 0.01570016
#
# Stress axis : x y z
#
# Youngs Moduli (GPa) = 58.62189 76.27576 68.49206
#
# Poissons Ratio (x) = 0.61147 0.53801
# Poissons Ratio (y) = 0.46995 -0.09159
# Poissons Ratio (z) = 0.46048 -0.10200
#
# Static dielectric constant tensor:
#      x y z
#    x 1.750250 0.000000 0.000000 
#    y 0.000000 1.711390 0.000000 
#    z 0.000000 0.000000 1.810560 
# 
# From -- ./inp_files/1422.got.cif
#   From: 2010.05.17/outbox.cif.g08.bks.cpg/sg21_1_cif.got.tgz:1422.got - 2010.06.03 23:14:55.
