data_PCOD9325898
_publ_section_title
;
Structure prediction by ZEFSAII (Michael W. Deem and Ramdas Pophale) SiO2 
 PCOD9325898
Probable space group: F 2 2 2
;
_chemical_formula_sum "Si O2"
_cell_formula_units_Z 72
_cell_length_a 14.892415
_cell_length_b 10.929990
_cell_length_c 17.805826
_cell_angle_alpha 90.000000
_cell_angle_beta 90.000000
_cell_angle_gamma 90.000000
_cell_volume 2898.324578
_symmetry_space_group_name_H-M "F 2 2 2"
_symmetry_group_IT_number 22
_symmetry_cell_setting 'orthorhombic'
loop_
_space_group_symop_operation_xyz
x,y,z
-x,-y,z
x,-y,-z
-x,y,-z
x,1/2+y,1/2+z
-x,1/2-y,1/2+z
x,1/2-y,1/2-z
-x,1/2+y,1/2-z
1/2+x,y,1/2+z
1/2-x,-y,1/2+z
1/2+x,-y,1/2-z
1/2-x,y,1/2-z
1/2+x,1/2+y,z
1/2-x,1/2-y,z
1/2+x,1/2-y,-z
1/2-x,1/2+y,-z
loop_
_atom_site_type_symbol
_atom_site_label
_atom_site_fract_x
_atom_site_fract_y
_atom_site_fract_z
Si Si1 0.379380 0.864671 0.797024
Si Si2 0.500000 0.000000 0.324776
Si Si3 0.693292 0.144897 0.014887
Si Si4 0.042709 0.238419 0.612297
Si Si5 0.205938 0.597431 0.171807
O O1 0.348094 0.750000 0.750000
O O2 0.448926 0.822717 0.861737
O O3 0.425966 0.947922 0.732712
O O4 0.307305 0.952320 0.833054
O O5 0.467419 0.883014 0.372870
O O6 0.750000 0.250000 0.971028
O O7 0.594676 0.200297 0.035881
O O8 0.751062 0.132479 0.093470
O O9 0.680440 0.000000 0.000000
O O10 0.112459 0.171478 0.669178
O O11 0.250000 0.623275 0.250000
#
# Coordination Sequence:
#
# PCOD9325898 Si02
#       5
#    16   8  16  16  16
#     4  10  19  34  57  95 143 169 217 288 349 406
#     4  10  16  30  58  94 130 164 214 278 344 412
#     4  10  24  45  67  94 134 193 235 292 358 428
#     4   9  21  36  63  91 132 185 223 284 354 408
#     4  10  22  37  64 100 133 177 227 281 357 415
#
# _framework density 24.841936
#
# number of rings (size 3 to 8) (size 9 to 14) (size 15 to 20)
#    1.333    0.889    2.222    0.000    3.111    2.667 
#    4.000    2.222    0.000    0.000    0.000    0.000 
#    0.000    0.000    0.000    0.000    0.000    0.000 
#
# Total GULP energy -100306.139199 kJ/mol
# GULP energy per Si atom -5572.563289 kJ/mol
# Density = 2.478540 g / cm^3
# Si number density = 24.841936 Si / 1000 Ang^3
#
#
#
# Elastic Constant Matrix: (Units=GPa)
#
#
# Indices 1 2 3 4 5 6 
#
# 1 61.0004 33.2405 1.7447 0.0000 0.0000 0.0000
# 2 33.2405 244.4532 21.1107 0.0000 0.0000 0.0000
# 3 1.7447 21.1107 46.2267 0.0000 0.0000 0.0000
# 4 0.0000 0.0000 0.0000 -8.7232 0.0000 0.0000
# 5 0.0000 0.0000 0.0000 0.0000 20.4822 0.0000
# 6 0.0000 0.0000 0.0000 0.0000 0.0000 35.1962
#
#
#
# Elastic Compliance Matrix: (Units=1/GPa)
#
#
# Indices 1 2 3 4 5 6 
#
# 1 0.017714 -0.002448 0.000449 0.000000 0.000000 0.000000
# 2 -0.002448 0.004597 -0.002007 0.000000 0.000000 0.000000
# 3 0.000449 -0.002007 0.022532 0.000000 0.000000 0.000000
# 4 0.000000 0.000000 0.000000 -0.114637 0.000000 0.000000
# 5 0.000000 0.000000 0.000000 0.000000 0.048823 0.000000
# 6 0.000000 0.000000 0.000000 0.000000 0.000000 0.028412
#
#
# Mechanical properties :
#
#
# Convention : Reuss Voigt Hill
#
# Bulk Modulus (GPa) = 27.14987 51.54133 39.34560
# Shear Modulus (GPa) = 180.31343 29.09667 104.70505
#
# Velocity S-wave (km/s) = 8.52888 3.42610 6.49923
# Velocity P-wave (km/s) = 10.38951 6.03685 8.49663
#
# Compressibility (1/GPa) = 0.03683259
#
# Stress axis : x y z
#
# Youngs Moduli (GPa) = 56.45184 217.53827 44.38114
#
# Poissons Ratio (x) = 0.53244 -0.01993
# Poissons Ratio (y) = 0.13817 0.08907
# Poissons Ratio (z) = -0.02536 0.43658
#
# Static dielectric constant tensor:
#      x y z
#    x 2.024680 0.000000 0.000000 
#    y 0.000000 2.000490 0.000000 
#    z 0.000000 0.000000 2.095860 
# 
# From -- ./inp_files/44055.got.cif
#   From: 2010.05.17/outbox.cif.g08.bks.cpg/sg22_23_cif.got.tgz:44055.got - 2010.06.03 23:40:54.
