data_PCOD9325819
_publ_section_title
;
Structure prediction by ZEFSAII (Michael W. Deem and Ramdas Pophale) SiO2 
 PCOD9325819
Probable space group: C 2 2 2
;
_chemical_formula_sum "Si O2"
_cell_formula_units_Z 32
_cell_length_a 9.108816
_cell_length_b 27.592670
_cell_length_c 5.224734
_cell_angle_alpha 90.000000
_cell_angle_beta 90.000000
_cell_angle_gamma 90.000000
_cell_volume 1313.166639
_symmetry_space_group_name_H-M "C 2 2 2"
_symmetry_group_IT_number 21
_symmetry_cell_setting 'orthorhombic'
loop_
_space_group_symop_operation_xyz
x,y,z
-x,-y,z
x,-y,-z
-x,y,-z
1/2+x,1/2+y,z
1/2-x,1/2-y,z
1/2+x,1/2-y,-z
1/2-x,1/2+y,-z
loop_
_atom_site_type_symbol
_atom_site_label
_atom_site_fract_x
_atom_site_fract_y
_atom_site_fract_z
Si Si1 0.758089 0.435371 0.212787
Si Si2 0.500000 0.500000 0.000000
Si Si3 0.000000 0.500000 0.500000
Si Si4 0.908645 0.158410 0.247280
Si Si5 0.750000 0.750000 0.667676
Si Si6 0.500000 0.816377 0.500000
Si Si7 0.000000 0.382706 0.000000
O O1 0.696978 0.385669 0.331082
O O2 0.885243 0.465482 0.351829
O O3 0.614763 0.467497 0.160066
O O4 0.852954 0.415256 0.972931
O O5 0.829790 0.208356 0.169722
O O6 0.000000 0.170077 0.500000
O O7 0.000000 0.141524 0.000000
O O8 0.639037 0.781038 0.497861
O O9 0.506800 0.849258 0.751363
#
# Coordination Sequence:
#
# PCOD9325819 Si02
#       7
#     8   2   2   8   4   4   4
#     4  12  28  50  83 115 166 206 276 333 413 480
#     4  12  28  48  78 120 154 220 266 348 406 500
#     4  12  30  52  84 126 156 224 272 352 404 502
#     4  12  30  49  79 117 161 206 265 331 404 479
#     4  12  28  50  80 118 158 212 264 332 392 492
#     4  12  29  46  80 115 162 209 268 319 404 472
#     4  12  28  51  79 118 160 215 262 335 400 482
#
# _framework density 24.368573000000001
#
# number of rings (size 3 to 8) (size 9 to 14) (size 15 to 20)
#    0.000    0.000    5.000    2.250    8.750    2.000 
#    0.000    0.000    0.000    0.000    0.000    0.000 
#    0.000    0.000    0.000    0.000    0.000    0.000 
#
# Total GULP energy -89508.920359 kJ/mol
# GULP energy per Si atom -5594.307522 kJ/mol
# Density = 2.431311 g / cm^3
# Si number density = 24.368573 Si / 1000 Ang^3
#
#
#
# Elastic Constant Matrix: (Units=GPa)
#
#
# Indices 1 2 3 4 5 6 
#
# 1 185.8116 90.9088 50.2166 0.0000 0.0000 0.0000
# 2 90.9088 188.9842 51.1953 0.0000 0.0000 0.0000
# 3 50.2166 51.1953 105.4540 0.0000 0.0000 0.0000
# 4 0.0000 0.0000 0.0000 28.0731 0.0000 0.0000
# 5 0.0000 0.0000 0.0000 0.0000 25.7333 0.0000
# 6 0.0000 0.0000 0.0000 0.0000 0.0000 47.0088
#
#
#
# Elastic Compliance Matrix: (Units=1/GPa)
#
#
# Indices 1 2 3 4 5 6 
#
# 1 0.007411 -0.003004 -0.002071 0.000000 0.000000 0.000000
# 2 -0.003004 0.007310 -0.002118 0.000000 0.000000 0.000000
# 3 -0.002071 -0.002118 0.011497 0.000000 0.000000 0.000000
# 4 0.000000 0.000000 0.000000 0.035621 0.000000 0.000000
# 5 0.000000 0.000000 0.000000 0.000000 0.038860 0.000000
# 6 0.000000 0.000000 0.000000 0.000000 0.000000 0.021273
#
#
# Mechanical properties :
#
#
# Convention : Reuss Voigt Hill
#
# Bulk Modulus (GPa) = 84.51451 96.09901 90.30676
# Shear Modulus (GPa) = 35.63693 39.35830 37.49762
#
# Velocity S-wave (km/s) = 3.82830 4.02322 3.92697
# Velocity P-wave (km/s) = 7.36873 7.81684 7.59609
#
# Compressibility (1/GPa) = 0.01183229
#
# Stress axis : x y z
#
# Youngs Moduli (GPa) = 134.93093 136.79072 86.97642
#
# Poissons Ratio (x) = 0.41094 0.18011
# Poissons Ratio (y) = 0.40535 0.18426
# Poissons Ratio (z) = 0.27941 0.28979
#
# Static dielectric constant tensor:
#      x y z
#    x 2.021480 0.000000 0.000000 
#    y 0.000000 1.949070 0.000000 
#    z 0.000000 0.000000 1.921660 
# 
# From -- ./inp_files/1676.got.cif
#   From: 2010.05.17/outbox.cif.g08.bks.cpg/sg21_1_cif.got.tgz:1676.got - 2010.06.03 23:14:55.
