data_PCOD9325647
_publ_section_title
;
Structure prediction by ZEFSAII (Michael W. Deem and Ramdas Pophale) SiO2 
 PCOD9325647
Probable space group: C 2 2 2
;
_chemical_formula_sum "Si O2"
_cell_formula_units_Z 48
_cell_length_a 15.002109
_cell_length_b 17.416041
_cell_length_c 8.715118
_cell_angle_alpha 90.000000
_cell_angle_beta 90.000000
_cell_angle_gamma 90.000000
_cell_volume 2277.062896
_symmetry_space_group_name_H-M "C 2 2 2"
_symmetry_group_IT_number 21
_symmetry_cell_setting 'orthorhombic'
loop_
_space_group_symop_operation_xyz
x,y,z
-x,-y,z
x,-y,-z
-x,y,-z
1/2+x,1/2+y,z
1/2-x,1/2-y,z
1/2+x,1/2-y,-z
1/2-x,1/2+y,-z
loop_
_atom_site_type_symbol
_atom_site_label
_atom_site_fract_x
_atom_site_fract_y
_atom_site_fract_z
Si Si1 0.000000 0.161164 0.500000
Si Si2 0.590998 0.859078 0.911712
Si Si3 0.500000 0.000000 0.232761
Si Si4 0.850823 0.276168 0.389831
Si Si5 0.254884 0.419784 0.091684
Si Si6 0.650154 0.074534 0.597222
Si Si7 0.462311 0.588102 0.838794
O O1 0.912457 0.212701 0.469425
O O2 0.985210 0.118725 0.666088
O O3 0.604713 0.804490 0.767464
O O4 0.568765 0.947174 0.859843
O O5 0.500000 0.836718 0.000000
O O6 0.684617 0.864217 0.003094
O O7 0.551945 0.939513 0.336023
O O8 0.750000 0.250000 0.360556
O O9 0.845558 0.349689 0.499278
O O10 0.213088 0.425349 0.258380
O O11 0.357502 0.401847 0.126500
O O12 0.255488 0.500000 0.000000
O O13 0.672838 0.000000 0.500000
O O14 0.500000 0.500000 0.836616
O O15 0.500000 0.623041 0.000000
#
# Coordination Sequence:
#
# PCOD9325647 Si02
#       7
#     4   8   4   8   8   8   8
#     4  12  29  52  75 108 160 202 254 320 391 452
#     4  12  24  43  72 110 151 192 243 317 391 461
#     4  12  20  36  70 112 140 182 236 316 390 438
#     4  12  29  50  69 109 154 206 254 305 388 473
#     4  12  22  42  73 113 146 186 250 321 383 446
#     4  12  24  40  74 107 148 191 250 314 379 453
#     4  11  26  50  82 109 146 201 270 318 372 450
#
# _framework density 21.079787
#
# number of rings (size 3 to 8) (size 9 to 14) (size 15 to 20)
#    0.000    0.167    6.667    2.750    2.333    3.333 
#    0.000    0.833    0.000    0.000    0.000    0.000 
#    0.000    0.000    0.000    0.000    0.000    0.000 
#
# Total GULP energy -134005.168466 kJ/mol
# GULP energy per Si atom -5583.548686 kJ/mol
# Density = 2.103181 g / cm^3
# Si number density = 21.079787 Si / 1000 Ang^3
#
#
#
# Elastic Constant Matrix: (Units=GPa)
#
#
# Indices 1 2 3 4 5 6 
#
# 1 156.6327 44.8193 79.5022 0.0000 0.0000 0.0000
# 2 44.8193 77.5104 66.3025 0.0000 0.0000 0.0000
# 3 79.5022 66.3025 194.0540 0.0000 0.0000 0.0000
# 4 0.0000 0.0000 0.0000 11.2005 0.0000 0.0000
# 5 0.0000 0.0000 0.0000 0.0000 15.2330 0.0000
# 6 0.0000 0.0000 0.0000 0.0000 0.0000 0.0937
#
#
#
# Elastic Compliance Matrix: (Units=1/GPa)
#
#
# Indices 1 2 3 4 5 6 
#
# 1 0.008447 -0.002719 -0.002532 0.000000 0.000000 0.000000
# 2 -0.002719 0.019104 -0.005414 0.000000 0.000000 0.000000
# 3 -0.002532 -0.005414 0.008040 0.000000 0.000000 0.000000
# 4 0.000000 0.000000 0.000000 0.089282 0.000000 0.000000
# 5 0.000000 0.000000 0.000000 0.000000 0.065647 0.000000
# 6 0.000000 0.000000 0.000000 0.000000 0.000000 10.673976
#
#
# Mechanical properties :
#
#
# Convention : Reuss Voigt Hill
#
# Bulk Modulus (GPa) = 70.10921 89.93834 80.02377
# Shear Modulus (GPa) = 0.45911 21.14365 10.80138
#
# Velocity S-wave (km/s) = 0.46719 3.17050 2.26609
# Velocity P-wave (km/s) = 5.79847 7.49407 6.70012
#
# Compressibility (1/GPa) = 0.01426346
#
# Stress axis : x y z
#
# Youngs Moduli (GPa) = 118.37878 52.34410 124.37590
#
# Poissons Ratio (x) = 0.14231 0.31491
# Poissons Ratio (y) = 0.32185 0.67331
# Poissons Ratio (z) = 0.29972 0.28337
#
# Static dielectric constant tensor:
#      x y z
#    x 1.822580 0.000000 0.000000 
#    y 0.000000 1.616220 0.000000 
#    z 0.000000 0.000000 1.757090 
# 
# From -- ./inp_files/15021.got.cif
#   From: 2010.05.17/outbox.cif.g08.bks.cpg/sg21_8_cif.got.tgz:15021.got - 2010.06.03 23:14:55.
