data_PCOD9325021
_publ_section_title
;
Structure prediction by ZEFSAII (Michael W. Deem and Ramdas Pophale) SiO2 
 PCOD9325021
Probable space group: C 2 2 2
;
_chemical_formula_sum "Si O2"
_cell_formula_units_Z 30
_cell_length_a 6.329924
_cell_length_b 13.991360
_cell_length_c 15.285707
_cell_angle_alpha 90.000000
_cell_angle_beta 90.000000
_cell_angle_gamma 90.000000
_cell_volume 1353.767107
_symmetry_space_group_name_H-M "C 2 2 2"
_symmetry_group_IT_number 21
_symmetry_cell_setting 'orthorhombic'
loop_
_space_group_symop_operation_xyz
x,y,z
-x,-y,z
x,-y,-z
-x,y,-z
1/2+x,1/2+y,z
1/2-x,1/2-y,z
1/2+x,1/2-y,-z
1/2-x,1/2+y,-z
loop_
_atom_site_type_symbol
_atom_site_label
_atom_site_fract_x
_atom_site_fract_y
_atom_site_fract_z
Si Si1 0.380636 0.599938 0.259598
Si Si2 0.000000 0.500000 0.351747
Si Si3 0.000000 0.500000 0.000000
Si Si4 0.321708 0.353753 0.932749
Si Si5 0.656374 0.645750 0.422599
O O1 0.500000 0.500000 0.244059
O O2 0.387334 0.653886 0.167960
O O3 0.512105 0.651691 0.335580
O O4 0.148737 0.570371 0.294264
O O5 0.839694 0.567752 0.405712
O O6 0.138282 0.431228 0.939742
O O7 0.250000 0.250000 0.964240
O O8 0.500000 0.386278 0.000000
O O9 0.500000 0.615690 0.500000
O O10 0.750000 0.750000 0.442649
#
# Coordination Sequence:
#
# PCOD9325021 Si02
#       5
#     8   4   2   8   8
#     4  10  24  46  72 103 139 188 235 298 359 418
#     4  10  25  49  73 103 138 190 235 299 355 427
#     4  12  24  48  70 100 152 194 232 308 346 424
#     4  12  26  45  73 109 145 191 243 293 358 426
#     4  11  28  47  72 107 142 186 237 291 360 425
#
# _framework density 22.160385999999999
#
# number of rings (size 3 to 8) (size 9 to 14) (size 15 to 20)
#    0.000    1.067    1.333    2.800    7.467    9.067 
#    0.000    0.000    0.000    0.000    0.000    0.000 
#    0.000    0.000    0.000    0.000    0.000    0.000 
#
# Total GULP energy -83982.019198 kJ/mol
# GULP energy per Si atom -5598.801280 kJ/mol
# Density = 2.210995 g / cm^3
# Si number density = 22.160386 Si / 1000 Ang^3
#
#
#
# Elastic Constant Matrix: (Units=GPa)
#
#
# Indices 1 2 3 4 5 6 
#
# 1 141.3592 41.5188 67.5638 0.0000 0.0000 0.0000
# 2 41.5188 91.8578 20.4075 0.0000 0.0000 0.0000
# 3 67.5638 20.4075 133.7331 0.0000 0.0000 0.0000
# 4 0.0000 0.0000 0.0000 226.3845 0.0000 0.0000
# 5 0.0000 0.0000 0.0000 0.0000 20.0962 0.0000
# 6 0.0000 0.0000 0.0000 0.0000 0.0000 33.8825
#
#
#
# Elastic Compliance Matrix: (Units=1/GPa)
#
#
# Indices 1 2 3 4 5 6 
#
# 1 0.010390 -0.003654 -0.004691 0.000000 0.000000 0.000000
# 2 -0.003654 0.012553 -0.000070 0.000000 0.000000 0.000000
# 3 -0.004691 -0.000070 0.009858 0.000000 0.000000 0.000000
# 4 0.000000 0.000000 0.000000 0.004417 0.000000 0.000000
# 5 0.000000 0.000000 0.000000 0.000000 0.049761 0.000000
# 6 0.000000 0.000000 0.000000 0.000000 0.000000 0.029514
#
#
# Mechanical properties :
#
#
# Convention : Reuss Voigt Hill
#
# Bulk Modulus (GPa) = 62.61110 69.54781 66.07946
# Shear Modulus (GPa) = 36.06294 71.90332 53.98313
#
# Velocity S-wave (km/s) = 4.03843 5.70239 4.94096
# Velocity P-wave (km/s) = 7.07532 8.64918 7.90153
#
# Compressibility (1/GPa) = 0.01597161
#
# Stress axis : x y z
#
# Youngs Moduli (GPa) = 96.24981 79.66013 101.43638
#
# Poissons Ratio (x) = 0.29106 0.47588
# Poissons Ratio (y) = 0.35167 0.00707
# Poissons Ratio (z) = 0.45155 0.00555
#
# Static dielectric constant tensor:
#      x y z
#    x 1.804360 0.000000 0.000000 
#    y 0.000000 1.785270 0.000000 
#    z 0.000000 0.000000 1.829610 
# 
# From -- ./inp_files/34366.got.cif
#   From: 2010.05.17/outbox.cif.g08.bks.cpg/sg21_18_cif.got.tgz:34366.got - 2010.06.03 23:14:55.
