data_PCOD9325085
_publ_section_title
;
Structure prediction by ZEFSAII (Michael W. Deem and Ramdas Pophale) SiO2 
 PCOD9325085
Probable space group: C 2 2 2
;
_chemical_formula_sum "Si O2"
_cell_formula_units_Z 34
_cell_length_a 12.033791
_cell_length_b 16.761836
_cell_length_c 7.067701
_cell_angle_alpha 90.000000
_cell_angle_beta 90.000000
_cell_angle_gamma 90.000000
_cell_volume 1425.614881
_symmetry_space_group_name_H-M "C 2 2 2"
_symmetry_group_IT_number 21
_symmetry_cell_setting 'orthorhombic'
loop_
_space_group_symop_operation_xyz
x,y,z
-x,-y,z
x,-y,-z
-x,y,-z
1/2+x,1/2+y,z
1/2-x,1/2-y,z
1/2+x,1/2-y,-z
1/2-x,1/2+y,-z
loop_
_atom_site_type_symbol
_atom_site_label
_atom_site_fract_x
_atom_site_fract_y
_atom_site_fract_z
Si Si1 0.913179 0.891306 0.830217
Si Si2 0.000000 0.000000 0.500000
Si Si3 0.632065 0.091272 0.546513
Si Si4 0.169603 0.410565 0.019573
Si Si5 0.636080 0.218564 0.240440
O O1 0.932248 0.799846 0.756437
O O2 0.929661 0.946055 0.645921
O O3 0.792731 0.908019 0.924421
O O4 0.000000 0.906206 0.000000
O O5 0.500000 0.090639 0.500000
O O6 0.666244 0.108534 0.760397
O O7 0.669978 0.168446 0.425831
O O8 0.670314 0.000000 0.500000
O O9 0.127861 0.500000 0.000000
O O10 0.096662 0.350750 0.895955
O O11 0.750000 0.250000 0.149445
#
# Coordination Sequence:
#
# PCOD9325085 Si02
#       5
#     8   2   8   8   8
#     4  11  27  47  73 113 151 199 251 316 386 451
#     4  12  26  48  76 110 150 198 262 308 388 462
#     4  11  25  45  73 108 140 195 254 305 375 450
#     4  11  23  45  73 102 148 194 246 309 379 447
#     4  10  25  44  68 107 143 191 246 309 377 444
#
# _framework density 23.849359
#
# number of rings (size 3 to 8) (size 9 to 14) (size 15 to 20)
#    0.000    1.176    2.353    1.765    4.941   10.353 
#    2.118    0.000    0.000    0.000    0.000    0.000 
#    0.000    0.000    0.000    0.000    0.000    0.000 
#
# Total GULP energy -94915.572352 kJ/mol
# GULP energy per Si atom -5583.268962 kJ/mol
# Density = 2.379508 g / cm^3
# Si number density = 23.849359 Si / 1000 Ang^3
#
#
#
# Elastic Constant Matrix: (Units=GPa)
#
#
# Indices 1 2 3 4 5 6 
#
# 1 83.6713 16.6320 32.1112 0.0000 0.0000 0.0000
# 2 16.6320 214.2655 89.0442 0.0000 0.0000 0.0000
# 3 32.1112 89.0442 232.5388 0.0000 0.0000 0.0000
# 4 0.0000 0.0000 0.0000 52.6420 0.0000 0.0000
# 5 0.0000 0.0000 0.0000 0.0000 31.4292 0.0000
# 6 0.0000 0.0000 0.0000 0.0000 0.0000 -3.1825
#
#
#
# Elastic Compliance Matrix: (Units=1/GPa)
#
#
# Indices 1 2 3 4 5 6 
#
# 1 0.012637 -0.000304 -0.001629 0.000000 0.000000 0.000000
# 2 -0.000304 0.005558 -0.002086 0.000000 0.000000 0.000000
# 3 -0.001629 -0.002086 0.005324 0.000000 0.000000 0.000000
# 4 0.000000 0.000000 0.000000 0.018996 0.000000 0.000000
# 5 0.000000 0.000000 0.000000 0.000000 0.031818 0.000000
# 6 0.000000 0.000000 0.000000 0.000000 0.000000 -0.314216
#
#
# Mechanical properties :
#
#
# Convention : Reuss Voigt Hill
#
# Bulk Modulus (GPa) = 64.59518 89.56115 77.07816
# Shear Modulus (GPa) = -22.05697 42.35697 10.15000
#
# Velocity S-wave (km/s) = -3.04443 4.21886 2.06522
# Velocity P-wave (km/s) = 3.84518 7.83365 6.17055
#
# Compressibility (1/GPa) = 0.01548103
#
# Stress axis : x y z
#
# Youngs Moduli (GPa) = 79.13272 179.93125 187.82568
#
# Poissons Ratio (x) = 0.05472 0.30589
# Poissons Ratio (y) = 0.02407 0.39183
# Poissons Ratio (z) = 0.12887 0.37537
#
# Static dielectric constant tensor:
#      x y z
#    x 1.979420 0.000000 0.000000 
#    y 0.000000 2.030440 0.000000 
#    z 0.000000 0.000000 1.935170 
# 
# From -- ./inp_files/3533.got.cif
#   From: 2010.05.17/outbox.cif.g08.bks.cpg/sg21_2_cif.got.tgz:3533.got - 2010.06.03 23:14:55.
