data_PCOD9325667
_publ_section_title
;
Structure prediction by ZEFSAII (Michael W. Deem and Ramdas Pophale) SiO2 
 PCOD9325667
Probable space group: C 2 2 2
;
_chemical_formula_sum "Si O2"
_cell_formula_units_Z 30
_cell_length_a 10.773583
_cell_length_b 19.017916
_cell_length_c 6.809957
_cell_angle_alpha 90.000000
_cell_angle_beta 90.000000
_cell_angle_gamma 90.000000
_cell_volume 1395.299557
_symmetry_space_group_name_H-M "C 2 2 2"
_symmetry_group_IT_number 21
_symmetry_cell_setting 'orthorhombic'
loop_
_space_group_symop_operation_xyz
x,y,z
-x,-y,z
x,-y,-z
-x,y,-z
1/2+x,1/2+y,z
1/2-x,1/2-y,z
1/2+x,1/2-y,-z
1/2-x,1/2+y,-z
loop_
_atom_site_type_symbol
_atom_site_label
_atom_site_fract_x
_atom_site_fract_y
_atom_site_fract_z
Si Si1 0.000000 0.500000 0.000000
Si Si2 0.602211 0.906230 0.660613
Si Si3 0.857855 0.852035 0.531188
Si Si4 0.750000 0.750000 0.207111
Si Si5 0.601440 0.761649 0.860893
O O1 0.083805 0.546833 0.146304
O O2 0.500000 0.925980 0.500000
O O3 0.741499 0.903926 0.569620
O O4 0.567700 0.826115 0.722724
O O5 0.825895 0.801428 0.347142
O O6 0.852537 0.799601 0.718706
O O7 0.000000 0.877961 0.500000
O O8 0.679312 0.795817 0.042043
O O9 0.500000 0.726302 0.000000
#
# Coordination Sequence:
#
# PCOD9325667 Si02
#       5
#     2   8   8   4   8
#     4  12  30  48  76  92 124 200 258 296 336 398
#     4  12  25  46  69  99 135 182 244 290 339 412
#     4  12  24  38  66 108 146 180 213 282 367 429
#     4  12  20  34  60 104 150 178 208 258 358 432
#     4  12  21  36  64 105 146 179 214 272 355 432
#
# _framework density 21.50076
#
# number of rings (size 3 to 8) (size 9 to 14) (size 15 to 20)
#    0.000    0.000    9.333    2.800    0.000    0.000 
#    0.000    0.000    0.000    4.800    0.000    0.000 
#    0.000    0.000    0.000    0.000    0.000    0.000 
#
# Total GULP energy -83521.867706 kJ/mol
# GULP energy per Si atom -5568.124514 kJ/mol
# Density = 2.145182 g / cm^3
# Si number density = 21.500760 Si / 1000 Ang^3
#
#
#
# Elastic Constant Matrix: (Units=GPa)
#
#
# Indices 1 2 3 4 5 6 
#
# 1 162.8508 39.7490 76.6066 0.0000 0.0000 0.0000
# 2 39.7490 57.3892 29.7886 0.0000 0.0000 0.0000
# 3 76.6066 29.7886 171.9862 0.0000 0.0000 0.0000
# 4 0.0000 0.0000 0.0000 39.4109 0.0000 0.0000
# 5 0.0000 0.0000 0.0000 0.0000 51.2819 0.0000
# 6 0.0000 0.0000 0.0000 0.0000 0.0000 -6.8886
#
#
#
# Elastic Compliance Matrix: (Units=1/GPa)
#
#
# Indices 1 2 3 4 5 6 
#
# 1 0.008673 -0.004397 -0.003101 0.000000 0.000000 0.000000
# 2 -0.004397 0.021376 -0.001744 0.000000 0.000000 0.000000
# 3 -0.003101 -0.001744 0.007498 0.000000 0.000000 0.000000
# 4 0.000000 0.000000 0.000000 0.025374 0.000000 0.000000
# 5 0.000000 0.000000 0.000000 0.000000 0.019500 0.000000
# 6 0.000000 0.000000 0.000000 0.000000 0.000000 -0.145168
#
#
# Mechanical properties :
#
#
# Convention : Reuss Voigt Hill
#
# Bulk Modulus (GPa) = 52.46149 76.05717 64.25933
# Shear Modulus (GPa) = -131.89277 33.16631 -49.36323
#
# Velocity S-wave (km/s) = -7.84069 3.93181 -4.79674
# Velocity P-wave (km/s) = 7.58392 7.48753 0.85226
#
# Compressibility (1/GPa) = 0.01906160
#
# Stress axis : x y z
#
# Youngs Moduli (GPa) = 115.30280 46.78244 133.37055
#
# Poissons Ratio (x) = 0.20571 0.41365
# Poissons Ratio (y) = 0.50700 0.23256
# Poissons Ratio (z) = 0.35761 0.08158
#
# Static dielectric constant tensor:
#      x y z
#    x 2.376360 0.000000 0.000000 
#    y 0.000000 1.736750 0.000000 
#    z 0.000000 0.000000 1.737030 
# 
# From -- ./inp_files/2420.got.cif
#   From: 2010.05.17/outbox.cif.g08.bks.cpg/sg21_2_cif.got.tgz:2420.got - 2010.06.03 23:14:55.
