data_PCOD9325212
_publ_section_title
;
Structure prediction by ZEFSAII (Michael W. Deem and Ramdas Pophale) SiO2 
 PCOD9325212
Probable space group: C 2 2 2
;
_chemical_formula_sum "Si O2"
_cell_formula_units_Z 64
_cell_length_a 18.623470
_cell_length_b 12.523955
_cell_length_c 14.974163
_cell_angle_alpha 90.000000
_cell_angle_beta 90.000000
_cell_angle_gamma 90.000000
_cell_volume 3492.566294
_symmetry_space_group_name_H-M "C 2 2 2"
_symmetry_group_IT_number 21
_symmetry_cell_setting 'orthorhombic'
loop_
_space_group_symop_operation_xyz
x,y,z
-x,-y,z
x,-y,-z
-x,y,-z
1/2+x,1/2+y,z
1/2-x,1/2-y,z
1/2+x,1/2-y,-z
1/2-x,1/2+y,-z
loop_
_atom_site_type_symbol
_atom_site_label
_atom_site_fract_x
_atom_site_fract_y
_atom_site_fract_z
Si Si1 0.826657 0.388752 0.743416
Si Si2 0.914784 0.518980 0.599829
Si Si3 0.429610 0.308482 0.257379
Si Si4 0.808880 0.845188 0.554790
Si Si5 0.685495 0.567462 0.353842
Si Si6 0.957036 0.744708 0.592102
Si Si7 0.887505 0.506817 0.896654
Si Si8 0.497292 0.187166 0.895596
O O1 0.876188 0.444473 0.668790
O O2 0.865114 0.276003 0.757550
O O3 0.748135 0.383491 0.705201
O O4 0.828077 0.467262 0.828297
O O5 0.886463 0.500000 0.500000
O O6 0.911759 0.642138 0.623246
O O7 0.000000 0.500000 0.600605
O O8 0.388272 0.412835 0.297482
O O9 0.483570 0.275303 0.336438
O O10 0.478329 0.284134 0.168710
O O11 0.750000 0.750000 0.567144
O O12 0.812495 0.872646 0.449319
O O13 0.893122 0.826002 0.575643
O O14 0.792478 0.947064 0.617537
O O15 0.000000 0.720981 0.500000
O O16 0.947243 0.412625 0.885218
O O17 0.922631 0.622961 0.877192
O O18 0.865968 0.500000 0.000000
O O19 0.500000 0.218150 0.000000
#
# Coordination Sequence:
#
# PCOD9325212 Si02
#       8
#     8   8   8   8   8   8   8   8
#     4  11  20  32  54  80 117 148 187 233 288 336
#     4  11  20  29  48  82 113 142 180 226 285 330
#     4  11  20  34  55  82 114 147 193 237 276 333
#     4  11  25  42  55  73 112 153 195 234 280 332
#     4  11  25  38  53  79 108 154 195 233 281 340
#     4  12  21  35  54  78 109 148 188 230 273 328
#     4   8  15  28  49  82 116 147 180 227 294 351
#     4   8  15  28  51  83 117 144 178 234 292 338
#
# _framework density 18.324634
#
# number of rings (size 3 to 8) (size 9 to 14) (size 15 to 20)
#    0.000    1.625    3.750    3.375    5.250    0.500 
#    0.000    0.000    0.000    1.500    0.000    6.125 
#    0.000    0.000    0.000    0.000    0.000    0.000 
#
# Total GULP energy -178144.884010 kJ/mol
# GULP energy per Si atom -5567.027625 kJ/mol
# Density = 1.828293 g / cm^3
# Si number density = 18.324634 Si / 1000 Ang^3
#
#
#
# Elastic Constant Matrix: (Units=GPa)
#
#
# Indices 1 2 3 4 5 6 
#
# 1 57.2246 20.2788 24.9432 0.0000 0.0000 0.0000
# 2 20.2788 50.6024 26.8986 0.0000 0.0000 0.0000
# 3 24.9432 26.8986 84.7953 0.0000 0.0000 0.0000
# 4 0.0000 0.0000 0.0000 14.4423 0.0000 0.0000
# 5 0.0000 0.0000 0.0000 0.0000 -180.2789 0.0000
# 6 0.0000 0.0000 0.0000 0.0000 0.0000 76.8086
#
#
#
# Elastic Compliance Matrix: (Units=1/GPa)
#
#
# Indices 1 2 3 4 5 6 
#
# 1 0.021621 -0.006355 -0.004344 0.000000 0.000000 0.000000
# 2 -0.006355 0.025638 -0.006263 0.000000 0.000000 0.000000
# 3 -0.004344 -0.006263 0.015058 0.000000 0.000000 0.000000
# 4 0.000000 0.000000 0.000000 0.069241 0.000000 0.000000
# 5 0.000000 0.000000 0.000000 0.000000 -0.005547 0.000000
# 6 0.000000 0.000000 0.000000 0.000000 0.000000 0.013019
#
#
# Mechanical properties :
#
#
# Convention : Reuss Voigt Hill
#
# Bulk Modulus (GPa) = 35.22203 37.42928 36.32565
# Shear Modulus (GPa) = 27.40940 -9.77215 8.81862
#
# Velocity S-wave (km/s) = 3.87171 -2.31179 2.19611
# Velocity P-wave (km/s) = 6.26496 3.65297 5.12806
#
# Compressibility (1/GPa) = 0.02839133
#
# Stress axis : x y z
#
# Youngs Moduli (GPa) = 46.25227 39.00426 66.41102
#
# Poissons Ratio (x) = 0.24789 0.28848
# Poissons Ratio (y) = 0.29395 0.41596
# Poissons Ratio (z) = 0.20091 0.24430
#
# Static dielectric constant tensor:
#      x y z
#    x 1.703960 0.000000 0.000000 
#    y 0.000000 4.700350 0.000000 
#    z 0.000000 0.000000 1.641040 
# 
# From -- ./inp_files/32984.got.cif
#   From: 2010.05.17/outbox.cif.g08.bks.cpg/sg21_17_cif.got.tgz:32984.got - 2010.06.03 23:14:55.
