data_PCOD9325744
_publ_section_title
;
Structure prediction by ZEFSAII (Michael W. Deem and Ramdas Pophale) SiO2 
 PCOD9325744
Probable space group: C 2 2 2
;
_chemical_formula_sum "Si O2"
_cell_formula_units_Z 38
_cell_length_a 6.290705
_cell_length_b 20.329199
_cell_length_c 15.375548
_cell_angle_alpha 90.000000
_cell_angle_beta 90.000000
_cell_angle_gamma 90.000000
_cell_volume 1966.301861
_symmetry_space_group_name_H-M "C 2 2 2"
_symmetry_group_IT_number 21
_symmetry_cell_setting 'orthorhombic'
loop_
_space_group_symop_operation_xyz
x,y,z
-x,-y,z
x,-y,-z
-x,y,-z
1/2+x,1/2+y,z
1/2-x,1/2-y,z
1/2+x,1/2-y,-z
1/2-x,1/2+y,-z
loop_
_atom_site_type_symbol
_atom_site_label
_atom_site_fract_x
_atom_site_fract_y
_atom_site_fract_z
Si Si1 0.250000 0.250000 0.650144
Si Si2 0.500000 0.000000 0.000000
Si Si3 0.000000 0.299361 0.500000
Si Si4 0.116754 0.930585 0.085149
Si Si5 0.500000 0.000000 0.342178
Si Si6 0.176122 0.888733 0.274307
Si Si7 0.332806 0.405133 0.426795
O O1 0.443849 0.245333 0.582323
O O2 0.264052 0.183335 0.703637
O O3 0.351795 0.047093 0.942529
O O4 0.806211 0.345938 0.530974
O O5 0.109842 0.891431 0.173955
O O6 0.000000 0.000000 0.102238
O O7 0.000000 0.901214 0.000000
O O8 0.351623 0.946508 0.291093
O O9 0.661161 0.959069 0.400783
O O10 0.975661 0.895527 0.339787
O O11 0.500000 0.424742 0.500000
#
# Coordination Sequence:
#
# PCOD9325744 Si02
#       7
#     4   2   4   8   4   8   8
#     4  12  24  46  64  86 130 180 222 268 318 394
#     4   8  16  36  70  90 128 158 192 264 332 390
#     4  12  24  47  64  90 127 184 234 260 318 396
#     4   9  19  38  64  98 124 159 206 264 331 395
#     4  12  25  41  63 101 128 170 221 281 331 389
#     4  12  25  41  67  94 133 169 221 274 332 390
#     4  12  24  43  64  91 132 172 218 277 324 383
#
# _framework density 19.325619
#
# number of rings (size 3 to 8) (size 9 to 14) (size 15 to 20)
#    0.000    1.053    4.211    3.789    0.000    8.000 
#    0.000    0.000    2.316    0.000    0.000    0.000 
#    0.000    0.000    0.000    0.000    0.000    0.000 
#
# Total GULP energy -106090.828612 kJ/mol
# GULP energy per Si atom -5583.727822 kJ/mol
# Density = 1.928163 g / cm^3
# Si number density = 19.325619 Si / 1000 Ang^3
#
#
#
# Elastic Constant Matrix: (Units=GPa)
#
#
# Indices 1 2 3 4 5 6 
#
# 1 107.3656 31.4645 49.2182 0.0000 0.0000 0.0000
# 2 31.4645 95.1270 47.7057 0.0000 0.0000 0.0000
# 3 49.2182 47.7057 177.2176 0.0000 0.0000 0.0000
# 4 0.0000 0.0000 0.0000 -0.8797 0.0000 0.0000
# 5 0.0000 0.0000 0.0000 0.0000 -3.3633 0.0000
# 6 0.0000 0.0000 0.0000 0.0000 0.0000 31.2706
#
#
#
# Elastic Compliance Matrix: (Units=1/GPa)
#
#
# Indices 1 2 3 4 5 6 
#
# 1 0.011153 -0.002469 -0.002433 0.000000 0.000000 0.000000
# 2 -0.002469 0.012699 -0.002733 0.000000 0.000000 0.000000
# 3 -0.002433 -0.002733 0.007054 0.000000 0.000000 0.000000
# 4 0.000000 0.000000 0.000000 -1.136740 0.000000 0.000000
# 5 0.000000 0.000000 0.000000 0.000000 -0.297329 0.000000
# 6 0.000000 0.000000 0.000000 0.000000 0.000000 0.031979
#
#
# Mechanical properties :
#
#
# Convention : Reuss Voigt Hill
#
# Bulk Modulus (GPa) = 63.95061 70.72077 67.33569
# Shear Modulus (GPa) = -3.70178 22.16031 9.22927
#
# Velocity S-wave (km/s) = -1.38551 3.38994 2.18770
# Velocity P-wave (km/s) = 5.53204 7.21083 6.42649
#
# Compressibility (1/GPa) = 0.01563707
#
# Stress axis : x y z
#
# Youngs Moduli (GPa) = 89.66401 78.74372 141.76104
#
# Poissons Ratio (x) = 0.19441 0.34488
# Poissons Ratio (y) = 0.22137 0.38742
# Poissons Ratio (z) = 0.21814 0.21520
#
# Static dielectric constant tensor:
#      x y z
#    x 3.859940 0.000000 0.000000 
#    y 0.000000 1.710490 0.000000 
#    z 0.000000 0.000000 1.672860 
# 
# From -- ./inp_files/29187.got.cif
#   From: 2010.05.17/outbox.cif.g08.bks.cpg/sg21_15_cif.got.tgz:29187.got - 2010.06.03 23:14:55.
