data_PCOD9325659
_publ_section_title
;
Structure prediction by ZEFSAII (Michael W. Deem and Ramdas Pophale) SiO2 
 PCOD9325659
Probable space group: C 2 2 2
;
_chemical_formula_sum "Si O2"
_cell_formula_units_Z 38
_cell_length_a 7.436280
_cell_length_b 8.815483
_cell_length_c 23.111409
_cell_angle_alpha 90.000000
_cell_angle_beta 90.000000
_cell_angle_gamma 90.000000
_cell_volume 1515.054548
_symmetry_space_group_name_H-M "C 2 2 2"
_symmetry_group_IT_number 21
_symmetry_cell_setting 'orthorhombic'
loop_
_space_group_symop_operation_xyz
x,y,z
-x,-y,z
x,-y,-z
-x,y,-z
1/2+x,1/2+y,z
1/2-x,1/2-y,z
1/2+x,1/2-y,-z
1/2-x,1/2+y,-z
loop_
_atom_site_type_symbol
_atom_site_label
_atom_site_fract_x
_atom_site_fract_y
_atom_site_fract_z
Si Si1 0.708166 0.410861 0.172241
Si Si2 0.500000 0.000000 0.269031
Si Si3 0.500000 0.000000 0.500000
Si Si4 0.000000 0.000000 0.263642
Si Si5 0.250000 0.750000 0.435341
Si Si6 0.566548 0.281034 0.645731
Si Si7 0.205938 0.428085 0.059671
O O1 0.750000 0.250000 0.144697
O O2 0.544046 0.373798 0.215482
O O3 0.699894 0.522740 0.119026
O O4 0.839257 0.475416 0.222242
O O5 0.502105 0.857262 0.313249
O O6 0.363880 0.883304 0.466927
O O7 0.878538 0.912148 0.309373
O O8 0.402769 0.675895 0.394884
O O9 0.750000 0.250000 0.611404
O O10 0.250000 0.250000 0.054420
O O11 0.000000 0.500000 0.065436
O O12 0.274484 0.500000 0.000000
#
# Coordination Sequence:
#
# PCOD9325659 Si02
#       7
#     8   4   2   4   4   8   8
#     4  12  25  42  70 108 159 214 275 352 427 520
#     4  12  23  46  67 113 164 209 274 330 430 516
#     4  12  34  64  96 128 186 224 308 354 434 494
#     4  12  26  40  73 117 162 212 278 338 434 518
#     4  12  32  60  88 134 170 236 286 370 418 516
#     4  12  27  48  80 119 169 222 275 350 430 522
#     4  11  27  51  78 109 152 214 288 363 436 516
#
# _framework density 25.081606000000001
#
# number of rings (size 3 to 8) (size 9 to 14) (size 15 to 20)
#    0.000    0.211    5.263    2.526   10.316    0.421 
#    0.000    0.000    0.000    0.000    0.000    0.000 
#    0.000    0.000    0.000    0.000    0.000    0.000 
#
# Total GULP energy -105840.612407 kJ/mol
# GULP energy per Si atom -5570.558548 kJ/mol
# Density = 2.502452 g / cm^3
# Si number density = 25.081606 Si / 1000 Ang^3
#
#
#
# Elastic Constant Matrix: (Units=GPa)
#
#
# Indices 1 2 3 4 5 6 
#
# 1 134.1199 28.6578 83.9301 0.0000 0.0000 0.0000
# 2 28.6578 170.8158 80.9387 0.0000 0.0000 0.0000
# 3 83.9301 80.9387 158.4406 0.0000 0.0000 0.0000
# 4 0.0000 0.0000 0.0000 28.7605 0.0000 0.0000
# 5 0.0000 0.0000 0.0000 0.0000 17.6470 0.0000
# 6 0.0000 0.0000 0.0000 0.0000 0.0000 24.0320
#
#
#
# Elastic Compliance Matrix: (Units=1/GPa)
#
#
# Indices 1 2 3 4 5 6 
#
# 1 0.011351 0.001247 -0.006650 0.000000 0.000000 0.000000
# 2 0.001247 0.007861 -0.004676 0.000000 0.000000 0.000000
# 3 -0.006650 -0.004676 0.012223 0.000000 0.000000 0.000000
# 4 0.000000 0.000000 0.000000 0.034770 0.000000 0.000000
# 5 0.000000 0.000000 0.000000 0.000000 0.056667 0.000000
# 6 0.000000 0.000000 0.000000 0.000000 0.000000 0.041611
#
#
# Mechanical properties :
#
#
# Convention : Reuss Voigt Hill
#
# Bulk Modulus (GPa) = 88.68239 94.49217 91.58728
# Shear Modulus (GPa) = 26.53940 32.07788 29.30864
#
# Velocity S-wave (km/s) = 3.25641 3.58011 3.42209
# Velocity P-wave (km/s) = 7.04083 7.40576 7.22560
#
# Compressibility (1/GPa) = 0.01127620
#
# Stress axis : x y z
#
# Youngs Moduli (GPa) = 88.09859 127.21405 81.81503
#
# Poissons Ratio (x) = -0.15857 0.54404
# Poissons Ratio (y) = -0.10982 0.38256
# Poissons Ratio (z) = 0.58582 0.59485
#
# Static dielectric constant tensor:
#      x y z
#    x 3.727650 0.000000 0.000000 
#    y 0.000000 6.666350 0.000000 
#    z 0.000000 0.000000 1.858200 
# 
# From -- ./inp_files/38455.got.cif
#   From: 2010.05.17/outbox.cif.g08.bks.cpg/sg21_20_cif.got.tgz:38455.got - 2010.06.03 23:14:55.
