data_PCOD9325950
_publ_section_title
;
Structure prediction by ZEFSAII (Michael W. Deem and Ramdas Pophale) SiO2 
 PCOD9325950
Probable space group: F 2 2 2
;
_chemical_formula_sum "Si O2"
_cell_formula_units_Z 96
_cell_length_a 11.151563
_cell_length_b 25.229663
_cell_length_c 17.331021
_cell_angle_alpha 90.000000
_cell_angle_beta 90.000000
_cell_angle_gamma 90.000000
_cell_volume 4876.085816
_symmetry_space_group_name_H-M "F 2 2 2"
_symmetry_group_IT_number 22
_symmetry_cell_setting 'orthorhombic'
loop_
_space_group_symop_operation_xyz
x,y,z
-x,-y,z
x,-y,-z
-x,y,-z
x,1/2+y,1/2+z
-x,1/2-y,1/2+z
x,1/2-y,1/2-z
-x,1/2+y,1/2-z
1/2+x,y,1/2+z
1/2-x,-y,1/2+z
1/2+x,-y,1/2-z
1/2-x,y,1/2-z
1/2+x,1/2+y,z
1/2-x,1/2-y,z
1/2+x,1/2-y,-z
1/2-x,1/2+y,-z
loop_
_atom_site_type_symbol
_atom_site_label
_atom_site_fract_x
_atom_site_fract_y
_atom_site_fract_z
Si Si1 0.115202 0.733429 0.098553
Si Si2 0.819344 0.965335 0.573769
Si Si3 0.633586 0.727078 0.069681
Si Si4 0.501961 0.377322 0.406682
Si Si5 0.865498 0.893281 0.023416
Si Si6 0.733385 0.429641 0.660275
O O1 0.250000 0.750000 0.126510
O O2 0.068498 0.675462 0.122724
O O3 0.996195 0.770408 0.111672
O O4 0.125624 0.734662 0.005135
O O5 0.918932 0.928529 0.610196
O O6 0.720864 0.925597 0.535091
O O7 0.861325 0.000000 0.500000
O O8 0.785277 0.009293 0.636225
O O9 0.750000 0.750000 0.113968
O O10 0.654589 0.669656 0.031557
O O11 0.500000 0.374387 0.500000
O O12 0.372025 0.391273 0.372681
O O13 0.847051 0.913819 0.109679
O O14 0.000000 0.902833 0.000000
O O15 0.750000 0.422535 0.750000
#
# Coordination Sequence:
#
# PCOD9325950 Si02
#       6
#    16  16  16  16  16  16
#     4  10  19  29  55  97 130 156 208 275 323 365
#     4  10  21  36  62  89 120 163 226 269 309 378
#     4  10  17  29  53  96 131 159 203 271 323 371
#     4  12  19  36  67  95 123 169 224 270 313 389
#     4  11  21  37  62  93 129 167 213 272 322 384
#     4  11  26  43  61  92 133 170 214 269 342 395
#
# _framework density 19.687923000000001
#
# number of rings (size 3 to 8) (size 9 to 14) (size 15 to 20)
#    0.000    1.333    6.667    3.500    0.000    3.000 
#    6.000    0.000    0.000    4.500    0.000    2.333 
#    0.000    0.000    0.000    0.000    0.000    0.000 
#
# Total GULP energy -133670.170070 kJ/mol
# GULP energy per Si atom -5569.590420 kJ/mol
# Density = 1.964311 g / cm^3
# Si number density = 19.687923 Si / 1000 Ang^3
#
#
#
# Elastic Constant Matrix: (Units=GPa)
#
#
# Indices 1 2 3 4 5 6 
#
# 1 154.6321 58.6954 40.6408 0.0000 0.0000 0.0000
# 2 58.6954 124.6127 20.2238 0.0000 0.0000 0.0000
# 3 40.6408 20.2238 82.2301 0.0000 0.0000 0.0000
# 4 0.0000 0.0000 0.0000 1.2596 0.0000 0.0000
# 5 0.0000 0.0000 0.0000 0.0000 9.0035 0.0000
# 6 0.0000 0.0000 0.0000 0.0000 0.0000 14.1876
#
#
#
# Elastic Compliance Matrix: (Units=1/GPa)
#
#
# Indices 1 2 3 4 5 6 
#
# 1 0.008717 -0.003548 -0.003435 0.000000 0.000000 0.000000
# 2 -0.003548 0.009803 -0.000657 0.000000 0.000000 0.000000
# 3 -0.003435 -0.000657 0.014021 0.000000 0.000000 0.000000
# 4 0.000000 0.000000 0.000000 0.793916 0.000000 0.000000
# 5 0.000000 0.000000 0.000000 0.000000 0.111068 0.000000
# 6 0.000000 0.000000 0.000000 0.000000 0.000000 0.070484
#
#
# Mechanical properties :
#
#
# Convention : Reuss Voigt Hill
#
# Bulk Modulus (GPa) = 57.94335 66.73276 62.33805
# Shear Modulus (GPa) = 4.85888 21.01779 12.93834
#
# Velocity S-wave (km/s) = 1.57268 3.27088 2.56632
# Velocity P-wave (km/s) = 5.72648 6.94505 6.36499
#
# Compressibility (1/GPa) = 0.01725824
#
# Stress axis : x y z
#
# Youngs Moduli (GPa) = 114.72218 102.01136 71.32393
#
# Poissons Ratio (x) = 0.36196 0.24503
# Poissons Ratio (y) = 0.40706 0.04688
# Poissons Ratio (z) = 0.39412 0.06705
#
# Static dielectric constant tensor:
#      x y z
#    x 1.874550 0.000000 0.000000 
#    y 0.000000 1.758500 0.000000 
#    z 0.000000 0.000000 1.676490 
# 
# From -- ./inp_files/36245.got.cif
#   From: 2010.05.17/outbox.cif.g08.bks.cpg/sg22_19_cif.got.tgz:36245.got - 2010.06.03 23:40:54.
