data_PCOD9325126
_publ_section_title
;
Structure prediction by ZEFSAII (Michael W. Deem and Ramdas Pophale) SiO2 
 PCOD9325126
Probable space group: C 2 2 2
;
_chemical_formula_sum "Si O2"
_cell_formula_units_Z 38
_cell_length_a 12.953329
_cell_length_b 27.999343
_cell_length_c 5.304517
_cell_angle_alpha 90.000000
_cell_angle_beta 90.000000
_cell_angle_gamma 90.000000
_cell_volume 1923.867166
_symmetry_space_group_name_H-M "C 2 2 2"
_symmetry_group_IT_number 21
_symmetry_cell_setting 'orthorhombic'
loop_
_space_group_symop_operation_xyz
x,y,z
-x,-y,z
x,-y,-z
-x,y,-z
1/2+x,1/2+y,z
1/2-x,1/2-y,z
1/2+x,1/2-y,-z
1/2-x,1/2+y,-z
loop_
_atom_site_type_symbol
_atom_site_label
_atom_site_fract_x
_atom_site_fract_y
_atom_site_fract_z
Si Si1 0.598531 0.418298 0.816237
Si Si2 0.500000 0.347097 0.500000
Si Si3 0.758816 0.345508 0.963111
Si Si4 0.000000 0.000000 0.500000
Si Si5 0.906716 0.770818 0.850106
Si Si6 0.379602 0.820554 0.452693
O O1 0.590695 0.381293 0.584503
O O2 0.697738 0.396199 0.953177
O O3 0.574770 0.468724 0.681921
O O4 0.500000 0.411786 0.000000
O O5 0.467455 0.313942 0.723493
O O6 0.818438 0.334570 0.704229
O O7 0.682808 0.299159 0.002932
O O8 0.832810 0.346027 0.206025
O O9 0.869775 0.735227 0.631387
O O10 0.000000 0.744469 0.000000
O O11 0.500000 0.830164 0.500000
#
# Coordination Sequence:
#
# PCOD9325126 Si02
#       6
#     8   4   8   2   8   8
#     4  11  22  41  65 102 132 166 198 262 344 428
#     4  11  18  35  62  86 138 172 212 259 326 385
#     4  12  25  42  65  91 128 181 228 270 334 385
#     4  10  26  40  72  98 154 144 194 256 366 426
#     4  12  23  37  62  90 132 180 230 280 322 377
#     4  12  28  42  57  87 135 183 246 283 300 345
#
# _framework density 19.751885999999999
#
# number of rings (size 3 to 8) (size 9 to 14) (size 15 to 20)
#    0.000    0.421    5.263    4.105    2.947    5.053 
#    0.000    0.000    0.000    0.000    0.000    0.737 
#    0.000    0.000    0.000    0.000    0.000    0.000 
#
# Total GULP energy -105994.711792 kJ/mol
# GULP energy per Si atom -5578.669042 kJ/mol
# Density = 1.970693 g / cm^3
# Si number density = 19.751886 Si / 1000 Ang^3
#
#
#
# Elastic Constant Matrix: (Units=GPa)
#
#
# Indices 1 2 3 4 5 6 
#
# 1 141.4079 49.5476 81.4582 0.0000 0.0000 0.0000
# 2 49.5476 99.6314 43.2058 0.0000 0.0000 0.0000
# 3 81.4582 43.2058 148.1902 0.0000 0.0000 0.0000
# 4 0.0000 0.0000 0.0000 -21.8826 0.0000 0.0000
# 5 0.0000 0.0000 0.0000 0.0000 46.7683 0.0000
# 6 0.0000 0.0000 0.0000 0.0000 0.0000 -3.7741
#
#
#
# Elastic Compliance Matrix: (Units=1/GPa)
#
#
# Indices 1 2 3 4 5 6 
#
# 1 0.011238 -0.003331 -0.005206 0.000000 0.000000 0.000000
# 2 -0.003331 0.012477 -0.001807 0.000000 0.000000 0.000000
# 3 -0.005206 -0.001807 0.010137 0.000000 0.000000 0.000000
# 4 0.000000 0.000000 0.000000 -0.045698 0.000000 0.000000
# 5 0.000000 0.000000 0.000000 0.000000 0.021382 0.000000
# 6 0.000000 0.000000 0.000000 0.000000 0.000000 -0.264967
#
#
# Mechanical properties :
#
#
# Convention : Reuss Voigt Hill
#
# Bulk Modulus (GPa) = 75.96636 81.96141 78.96389
# Shear Modulus (GPa) = -21.70550 18.55685 -1.57432
#
# Velocity S-wave (km/s) = -3.31857 3.06845 -0.89375
# Velocity P-wave (km/s) = 4.88466 7.35795 6.24497
#
# Compressibility (1/GPa) = 0.01316372
#
# Stress axis : x y z
#
# Youngs Moduli (GPa) = 88.98463 80.14714 98.65243
#
# Poissons Ratio (x) = 0.26697 0.51360
# Poissons Ratio (y) = 0.29641 0.17824
# Poissons Ratio (z) = 0.46327 0.14481
#
# Static dielectric constant tensor:
#      x y z
#    x 1.845370 0.000000 0.000000 
#    y 0.000000 1.710260 0.000000 
#    z 0.000000 0.000000 1.799910 
# 
# From -- ./inp_files/2865.got.cif
#   From: 2010.05.17/outbox.cif.g08.bks.cpg/sg21_2_cif.got.tgz:2865.got - 2010.06.03 23:14:55.
