data_PCOD9325470
_publ_section_title
;
Structure prediction by ZEFSAII (Michael W. Deem and Ramdas Pophale) SiO2 
 PCOD9325470
Probable space group: C 2 2 2
;
_chemical_formula_sum "Si O2"
_cell_formula_units_Z 34
_cell_length_a 13.143558
_cell_length_b 12.082523
_cell_length_c 9.667196
_cell_angle_alpha 90.000000
_cell_angle_beta 90.000000
_cell_angle_gamma 90.000000
_cell_volume 1535.221700
_symmetry_space_group_name_H-M "C 2 2 2"
_symmetry_group_IT_number 21
_symmetry_cell_setting 'orthorhombic'
loop_
_space_group_symop_operation_xyz
x,y,z
-x,-y,z
x,-y,-z
-x,y,-z
1/2+x,1/2+y,z
1/2-x,1/2-y,z
1/2+x,1/2-y,-z
1/2-x,1/2+y,-z
loop_
_atom_site_type_symbol
_atom_site_label
_atom_site_fract_x
_atom_site_fract_y
_atom_site_fract_z
Si Si1 0.329296 0.838970 0.108450
Si Si2 0.500000 0.000000 0.500000
Si Si3 0.416931 0.424535 0.358877
Si Si4 0.003323 0.684382 0.690733
Si Si5 0.293706 0.088330 0.200072
O O1 0.250000 0.750000 0.165825
O O2 0.440684 0.809714 0.166368
O O3 0.303162 0.960215 0.162399
O O4 0.313058 0.847370 0.944046
O O5 0.444849 0.092893 0.596380
O O6 0.500000 0.500000 0.279658
O O7 0.396968 0.500000 0.500000
O O8 0.473371 0.305838 0.366433
O O9 0.313411 0.399596 0.277357
O O10 0.112745 0.627917 0.707998
#
# Coordination Sequence:
#
# PCOD9325470 Si02
#       5
#     8   2   8   8   8
#     4  11  23  43  71 103 143 192 248 311 377 447
#     4  12  24  40  64 104 126 188 230 302 372 432
#     4  11  25  46  68 103 147 200 246 304 377 463
#     4  12  24  44  69 100 148 185 253 305 374 452
#     4  11  24  44  70 106 142 194 251 308 379 443
#
# _framework density 22.146637999999999
#
# number of rings (size 3 to 8) (size 9 to 14) (size 15 to 20)
#    0.000    0.706    2.353    5.647    1.647    1.882 
#    0.000    7.059    0.000    0.000    0.000    0.000 
#    0.000    0.000    0.000    0.000    0.000    0.000 
#
# Total GULP energy -94715.640901 kJ/mol
# GULP energy per Si atom -5571.508288 kJ/mol
# Density = 2.209623 g / cm^3
# Si number density = 22.146638 Si / 1000 Ang^3
#
#
#
# Elastic Constant Matrix: (Units=GPa)
#
#
# Indices 1 2 3 4 5 6 
#
# 1 153.0222 49.1536 61.3140 0.0000 0.0000 0.0000
# 2 49.1536 195.7886 58.4498 0.0000 0.0000 0.0000
# 3 61.3140 58.4498 119.2345 0.0000 0.0000 0.0000
# 4 0.0000 0.0000 0.0000 4.6108 0.0000 0.0000
# 5 0.0000 0.0000 0.0000 0.0000 24.6640 0.0000
# 6 0.0000 0.0000 0.0000 0.0000 0.0000 13.9357
#
#
#
# Elastic Compliance Matrix: (Units=1/GPa)
#
#
# Indices 1 2 3 4 5 6 
#
# 1 0.008381 -0.000958 -0.003841 0.000000 0.000000 0.000000
# 2 -0.000958 0.006093 -0.002494 0.000000 0.000000 0.000000
# 3 -0.003841 -0.002494 0.011584 0.000000 0.000000 0.000000
# 4 0.000000 0.000000 0.000000 0.216881 0.000000 0.000000
# 5 0.000000 0.000000 0.000000 0.000000 0.040545 0.000000
# 6 0.000000 0.000000 0.000000 0.000000 0.000000 0.071758
#
#
# Mechanical properties :
#
#
# Convention : Reuss Voigt Hill
#
# Bulk Modulus (GPa) = 87.15589 89.54225 88.34907
# Shear Modulus (GPa) = 13.38146 28.58397 20.98271
#
# Velocity S-wave (km/s) = 2.46076 3.59648 3.08140
# Velocity P-wave (km/s) = 6.89298 7.60037 7.25530
#
# Compressibility (1/GPa) = 0.01147369
#
# Stress axis : x y z
#
# Youngs Moduli (GPa) = 119.31061 164.13427 86.32277
#
# Poissons Ratio (x) = 0.15719 0.33153
# Poissons Ratio (y) = 0.11426 0.21530
# Poissons Ratio (z) = 0.45822 0.40938
#
# Static dielectric constant tensor:
#      x y z
#    x 1.833680 0.000000 0.000000 
#    y 0.000000 1.830160 0.000000 
#    z 0.000000 0.000000 1.965810 
# 
# From -- ./inp_files/23550.got.cif
#   From: 2010.05.17/outbox.cif.g08.bks.cpg/sg21_12_cif.got.tgz:23550.got - 2010.06.03 23:14:55.
