data_PCOD9325204
_publ_section_title
;
Structure prediction by ZEFSAII (Michael W. Deem and Ramdas Pophale) SiO2 
 PCOD9325204
Probable space group: C 2 2 2
;
_chemical_formula_sum "Si O2"
_cell_formula_units_Z 58
_cell_length_a 21.091768
_cell_length_b 9.535966
_cell_length_c 15.591909
_cell_angle_alpha 90.000000
_cell_angle_beta 90.000000
_cell_angle_gamma 90.000000
_cell_volume 3136.006622
_symmetry_space_group_name_H-M "C 2 2 2"
_symmetry_group_IT_number 21
_symmetry_cell_setting 'orthorhombic'
loop_
_space_group_symop_operation_xyz
x,y,z
-x,-y,z
x,-y,-z
-x,y,-z
1/2+x,1/2+y,z
1/2-x,1/2-y,z
1/2+x,1/2-y,-z
1/2-x,1/2+y,-z
loop_
_atom_site_type_symbol
_atom_site_label
_atom_site_fract_x
_atom_site_fract_y
_atom_site_fract_z
Si Si1 0.948515 0.186634 0.730521
Si Si2 0.999348 0.735742 0.097104
Si Si3 0.108493 0.975209 0.403017
Si Si4 0.106141 0.486779 0.903915
Si Si5 0.748935 0.086723 0.581158
Si Si6 0.568175 0.826353 0.640165
Si Si7 0.000000 0.500000 0.500000
Si Si8 0.149654 0.436784 0.268359
O O1 0.974758 0.164059 0.827017
O O2 0.930952 0.056325 0.670139
O O3 0.887346 0.288753 0.730743
O O4 0.004966 0.274335 0.687308
O O5 0.948207 0.607787 0.099749
O O6 0.067397 0.658614 0.110982
O O7 0.000000 0.793079 0.000000
O O8 0.179689 0.034165 0.403780
O O9 0.082772 0.000000 0.500000
O O10 0.108235 0.811048 0.381895
O O11 0.157089 0.519488 0.830696
O O12 0.132023 0.500000 0.000000
O O13 0.750000 0.250000 0.557858
O O14 0.708589 0.069418 0.667732
O O15 0.722135 0.000000 0.500000
O O16 0.544825 0.901770 0.555199
O O17 0.603866 0.942499 0.694962
#
# Coordination Sequence:
#
# PCOD9325204 Si02
#       8
#     8   8   8   8   8   8   2   8
#     4  11  19  38  58  88 122 152 189 240 298 363
#     4   8  14  26  52  89 122 149 184 232 293 364
#     4  11  26  42  55  80 120 162 201 241 296 350
#     4   8  14  28  52  91 122 141 184 248 299 346
#     4  11  26  43  61  82 113 161 210 250 291 347
#     4  12  24  35  58  86 115 152 191 243 299 348
#     4  12  24  36  58  88 122 160 202 248 302 368
#     4  11  21  35  62  90 113 149 204 245 288 350
#
# _framework density 18.494859000000002
#
# number of rings (size 3 to 8) (size 9 to 14) (size 15 to 20)
#    0.000    1.655    4.138    2.069    4.828    0.552 
#    0.000    0.000    0.000    1.655    7.172    0.000 
#    0.000    0.000    0.000    0.000    0.000    0.000 
#
# Total GULP energy -161826.890972 kJ/mol
# GULP energy per Si atom -5580.237620 kJ/mol
# Density = 1.845276 g / cm^3
# Si number density = 18.494859 Si / 1000 Ang^3
#
#
#
# Elastic Constant Matrix: (Units=GPa)
#
#
# Indices 1 2 3 4 5 6 
#
# 1 54.4817 21.5428 41.0022 0.0000 0.0000 0.0000
# 2 21.5428 91.1600 47.1302 0.0000 0.0000 0.0000
# 3 41.0022 47.1302 170.6462 0.0000 0.0000 0.0000
# 4 0.0000 0.0000 0.0000 33.2085 0.0000 0.0000
# 5 0.0000 0.0000 0.0000 0.0000 17.8846 0.0000
# 6 0.0000 0.0000 0.0000 0.0000 0.0000 21.2572
#
#
#
# Elastic Compliance Matrix: (Units=1/GPa)
#
#
# Indices 1 2 3 4 5 6 
#
# 1 0.023098 -0.003020 -0.004716 0.000000 0.000000 0.000000
# 2 -0.003020 0.013192 -0.002918 0.000000 0.000000 0.000000
# 3 -0.004716 -0.002918 0.007799 0.000000 0.000000 0.000000
# 4 0.000000 0.000000 0.000000 0.030113 0.000000 0.000000
# 5 0.000000 0.000000 0.000000 0.000000 0.055914 0.000000
# 6 0.000000 0.000000 0.000000 0.000000 0.000000 0.047043
#
#
# Mechanical properties :
#
#
# Convention : Reuss Voigt Hill
#
# Bulk Modulus (GPa) = 43.89560 59.51534 51.70547
# Shear Modulus (GPa) = 24.26473 28.24424 26.25449
#
# Velocity S-wave (km/s) = 3.62604 3.91210 3.77179
# Velocity P-wave (km/s) = 6.42778 7.25640 6.85462
#
# Compressibility (1/GPa) = 0.02278133
#
# Stress axis : x y z
#
# Youngs Moduli (GPa) = 43.29358 75.80366 128.22193
#
# Poissons Ratio (x) = 0.22896 0.60466
# Poissons Ratio (y) = 0.13077 0.37411
# Poissons Ratio (z) = 0.20416 0.22117
#
# Static dielectric constant tensor:
#      x y z
#    x 1.617270 0.000000 0.000000 
#    y 0.000000 1.645160 0.000000 
#    z 0.000000 0.000000 1.694790 
# 
# From -- ./inp_files/33572.got.cif
#   From: 2010.05.17/outbox.cif.g08.bks.cpg/sg21_17_cif.got.tgz:33572.got - 2010.06.03 23:14:55.
