data_PCOD9325006
_publ_section_title
;
Structure prediction by ZEFSAII (Michael W. Deem and Ramdas Pophale) SiO2 
 PCOD9325006
Probable space group: C 2 2 2
;
_chemical_formula_sum "Si O2"
_cell_formula_units_Z 28
_cell_length_a 7.842454
_cell_length_b 5.431046
_cell_length_c 26.389903
_cell_angle_alpha 90.000000
_cell_angle_beta 90.000000
_cell_angle_gamma 90.000000
_cell_volume 1124.017972
_symmetry_space_group_name_H-M "C 2 2 2"
_symmetry_group_IT_number 21
_symmetry_cell_setting 'orthorhombic'
loop_
_space_group_symop_operation_xyz
x,y,z
-x,-y,z
x,-y,-z
-x,y,-z
1/2+x,1/2+y,z
1/2-x,1/2-y,z
1/2+x,1/2-y,-z
1/2-x,1/2+y,-z
loop_
_atom_site_type_symbol
_atom_site_label
_atom_site_fract_x
_atom_site_fract_y
_atom_site_fract_z
Si Si1 0.750000 0.750000 0.279911
Si Si2 0.750000 0.750000 0.577554
Si Si3 0.000000 0.000000 0.500000
Si Si4 0.000000 0.500000 0.000000
Si Si5 0.500000 0.000000 0.211241
Si Si6 0.500000 0.000000 0.348232
Si Si7 0.500000 0.500000 0.146501
Si Si8 0.250000 0.250000 0.923365
O O1 0.678804 0.968879 0.243344
O O2 0.919914 0.729006 0.315679
O O3 0.611346 0.653253 0.538749
O O4 0.655773 0.931758 0.615722
O O5 0.107195 0.660462 0.038604
O O6 0.501327 0.749404 0.179264
O O7 0.333251 0.538799 0.111525
#
# Coordination Sequence:
#
# PCOD9325006 Si02
#       8
#     4   4   2   2   4   4   4   4
#     4  10  24  45  71 104 144 192 245 303 370 438
#     4  12  24  43  67 100 138 184 239 299 370 438
#     4  12  24  40  66  96 136 180 234 300 368 444
#     4  12  26  48  74 110 148 196 246 306 370 448
#     4  11  25  46  74 110 148 196 250 310 373 445
#     4  11  24  43  69  99 140 187 241 301 368 445
#     4  12  26  47  77 110 150 196 249 309 374 444
#     4  12  26  46  76 108 150 194 248 306 374 446
#
# _framework density 24.910630999999999
#
# number of rings (size 3 to 8) (size 9 to 14) (size 15 to 20)
#    0.000    0.571    0.000    7.714    0.000    6.857 
#    0.000    0.000    0.000    0.000    0.000    0.000 
#    0.000    0.000    0.000    0.000    0.000    0.000 
#
# Total GULP energy -78139.511662 kJ/mol
# GULP energy per Si atom -5581.393690 kJ/mol
# Density = 2.485393 g / cm^3
# Si number density = 24.910631 Si / 1000 Ang^3
#
#
#
# Elastic Constant Matrix: (Units=GPa)
#
#
# Indices 1 2 3 4 5 6 
#
# 1 136.3202 75.0676 71.3929 0.0000 0.0000 0.0000
# 2 75.0676 152.4727 94.0732 0.0000 0.0000 0.0000
# 3 71.3929 94.0732 154.8186 0.0000 0.0000 0.0000
# 4 0.0000 0.0000 0.0000 -5.3942 0.0000 0.0000
# 5 0.0000 0.0000 0.0000 0.0000 -0.5829 0.0000
# 6 0.0000 0.0000 0.0000 0.0000 0.0000 60.6738
#
#
#
# Elastic Compliance Matrix: (Units=1/GPa)
#
#
# Indices 1 2 3 4 5 6 
#
# 1 0.010768 -0.003580 -0.002790 0.000000 0.000000 0.000000
# 2 -0.003580 0.011682 -0.005448 0.000000 0.000000 0.000000
# 3 -0.002790 -0.005448 0.011056 0.000000 0.000000 0.000000
# 4 0.000000 0.000000 0.000000 -0.185385 0.000000 0.000000
# 5 0.000000 0.000000 0.000000 0.000000 -1.715701 0.000000
# 6 0.000000 0.000000 0.000000 0.000000 0.000000 0.016482
#
#
# Mechanical properties :
#
#
# Convention : Reuss Voigt Hill
#
# Bulk Modulus (GPa) = 101.31054 102.74212 102.02633
# Shear Modulus (GPa) = -2.74097 24.47787 10.86845
#
# Velocity S-wave (km/s) = -1.05010 3.13809 2.09104
# Velocity P-wave (km/s) = 6.26798 7.37997 6.84659
#
# Compressibility (1/GPa) = 0.00987064
#
# Stress axis : x y z
#
# Youngs Moduli (GPa) = 92.86363 85.59999 90.44782
#
# Poissons Ratio (x) = 0.30645 0.25238
# Poissons Ratio (y) = 0.33246 0.49273
# Poissons Ratio (z) = 0.25913 0.46632
#
# Static dielectric constant tensor:
#      x y z
#    x 1.952020 0.000000 0.000000 
#    y 0.000000 1.950450 0.000000 
#    z 0.000000 0.000000 2.056130 
# 
# From -- ./inp_files/39185.got.cif
#   From: 2010.05.17/outbox.cif.g08.bks.cpg/sg21_20_cif.got.tgz:39185.got - 2010.06.03 23:14:55.
