data_PCOD9325688
_publ_section_title
;
Structure prediction by ZEFSAII (Michael W. Deem and Ramdas Pophale) SiO2 
 PCOD9325688
Probable space group: C 2 2 2
;
_chemical_formula_sum "Si O2"
_cell_formula_units_Z 32
_cell_length_a 7.701988
_cell_length_b 19.747392
_cell_length_c 8.338612
_cell_angle_alpha 90.000000
_cell_angle_beta 90.000000
_cell_angle_gamma 90.000000
_cell_volume 1268.254323
_symmetry_space_group_name_H-M "C 2 2 2"
_symmetry_group_IT_number 21
_symmetry_cell_setting 'orthorhombic'
loop_
_space_group_symop_operation_xyz
x,y,z
-x,-y,z
x,-y,-z
-x,y,-z
1/2+x,1/2+y,z
1/2-x,1/2-y,z
1/2+x,1/2-y,-z
1/2-x,1/2+y,-z
loop_
_atom_site_type_symbol
_atom_site_label
_atom_site_fract_x
_atom_site_fract_y
_atom_site_fract_z
Si Si1 0.301143 0.426549 0.194690
Si Si2 0.917455 0.705262 0.830461
Si Si3 0.220644 0.075956 0.812949
Si Si4 0.356399 0.693805 0.613983
O O1 0.511670 0.419217 0.207438
O O2 0.238281 0.500452 0.248341
O O3 0.242750 0.363238 0.300238
O O4 0.258602 0.422394 0.006701
O O5 0.750000 0.750000 0.871083
O O6 0.837754 0.637204 0.749152
O O7 0.046022 0.757406 0.740655
O O8 0.000000 0.685998 0.000000
O O9 0.500000 0.661864 0.500000
O O10 0.250000 0.750000 0.514753
#
# Coordination Sequence:
#
# PCOD9325688 Si02
#       4
#     8   8   8   8
#     4   9  18  38  63  94 128 164 213 263 329 394
#     4  12  22  37  66 102 136 173 221 276 336 393
#     4   9  18  35  66  97 124 162 214 271 319 392
#     4  12  26  43  64  92 135 180 225 276 332 398
#
# _framework density 25.231534
#
# number of rings (size 3 to 8) (size 9 to 14) (size 15 to 20)
#    0.000    1.500    2.500    6.000    0.000    0.000 
#    0.000   11.250    0.000    1.500    0.000    0.000 
#    0.000    0.000    0.000    0.000    0.000    0.000 
#
# Total GULP energy -89453.543107 kJ/mol
# GULP energy per Si atom -5590.846444 kJ/mol
# Density = 2.517411 g / cm^3
# Si number density = 25.231534 Si / 1000 Ang^3
#
#
#
# Elastic Constant Matrix: (Units=GPa)
#
#
# Indices 1 2 3 4 5 6 
#
# 1 69.2665 47.1486 -1.6729 0.0000 0.0000 0.0000
# 2 47.1486 231.6473 40.7738 0.0000 0.0000 0.0000
# 3 -1.6729 40.7738 52.9096 0.0000 0.0000 0.0000
# 4 0.0000 0.0000 0.0000 31.0883 0.0000 0.0000
# 5 0.0000 0.0000 0.0000 0.0000 21.2609 0.0000
# 6 0.0000 0.0000 0.0000 0.0000 0.0000 42.4747
#
#
#
# Elastic Compliance Matrix: (Units=1/GPa)
#
#
# Indices 1 2 3 4 5 6 
#
# 1 0.017393 -0.004208 0.003792 0.000000 0.000000 0.000000
# 2 -0.004208 0.006012 -0.004766 0.000000 0.000000 0.000000
# 3 0.003792 -0.004766 0.022693 0.000000 0.000000 0.000000
# 4 0.000000 0.000000 0.000000 0.032166 0.000000 0.000000
# 5 0.000000 0.000000 0.000000 0.000000 0.047035 0.000000
# 6 0.000000 0.000000 0.000000 0.000000 0.000000 0.023543
#
#
# Mechanical properties :
#
#
# Convention : Reuss Voigt Hill
#
# Bulk Modulus (GPa) = 27.98367 58.48027 43.23197
# Shear Modulus (GPa) = 29.21979 36.80305 33.01142
#
# Velocity S-wave (km/s) = 3.40673 3.82332 3.62102
# Velocity P-wave (km/s) = 5.15648 6.53591 5.88674
#
# Compressibility (1/GPa) = 0.03573512
#
# Stress axis : x y z
#
# Youngs Moduli (GPa) = 57.49569 166.32741 44.06626
#
# Poissons Ratio (x) = 0.69983 -0.16712
# Poissons Ratio (y) = 0.24192 0.21003
# Poissons Ratio (z) = -0.21805 0.79276
#
# Static dielectric constant tensor:
#      x y z
#    x 2.104080 0.000000 0.000000 
#    y 0.000000 2.035670 0.000000 
#    z 0.000000 0.000000 1.954240 
# 
# From -- ./inp_files/10449.got.cif
#   From: 2010.05.17/outbox.cif.g08.bks.cpg/sg21_6_cif.got.tgz:10449.got - 2010.06.03 23:14:55.
