data_PCOD9325881
_publ_section_title
;
Structure prediction by ZEFSAII (Michael W. Deem and Ramdas Pophale) SiO2 
 PCOD9325881
Probable space group: F 2 2 2
;
_chemical_formula_sum "Si O2"
_cell_formula_units_Z 112
_cell_length_a 28.736948
_cell_length_b 11.955680
_cell_length_c 14.382802
_cell_angle_alpha 90.000000
_cell_angle_beta 90.000000
_cell_angle_gamma 90.000000
_cell_volume 4941.495752
_symmetry_space_group_name_H-M "F 2 2 2"
_symmetry_group_IT_number 22
_symmetry_cell_setting 'orthorhombic'
loop_
_space_group_symop_operation_xyz
x,y,z
-x,-y,z
x,-y,-z
-x,y,-z
x,1/2+y,1/2+z
-x,1/2-y,1/2+z
x,1/2-y,1/2-z
-x,1/2+y,1/2-z
1/2+x,y,1/2+z
1/2-x,-y,1/2+z
1/2+x,-y,1/2-z
1/2-x,y,1/2-z
1/2+x,1/2+y,z
1/2-x,1/2-y,z
1/2+x,1/2-y,-z
1/2-x,1/2+y,-z
loop_
_atom_site_type_symbol
_atom_site_label
_atom_site_fract_x
_atom_site_fract_y
_atom_site_fract_z
Si Si1 0.450198 0.043272 0.635677
Si Si2 0.300999 0.537288 0.720814
Si Si3 0.122409 0.800415 0.649430
Si Si4 0.053567 0.499908 0.858976
Si Si5 0.645950 0.938634 0.410916
Si Si6 0.401461 0.266795 0.637392
Si Si7 0.702131 0.206517 0.143704
O O1 0.447813 0.019499 0.746892
O O2 0.438015 0.171088 0.610006
O O3 0.500000 0.000000 0.604738
O O4 0.407265 0.975934 0.596314
O O5 0.250000 0.576549 0.750000
O O6 0.332075 0.625860 0.667680
O O7 0.328415 0.517914 0.817804
O O8 0.297190 0.426703 0.658339
O O9 0.107199 0.750000 0.750000
O O10 0.140365 0.694761 0.591462
O O11 0.081776 0.886277 0.619308
O O12 0.080868 0.389135 0.890996
O O13 0.000000 0.500000 0.890298
O O14 0.667220 0.000000 0.500000
O O15 0.399677 0.250000 0.750000
O O16 0.347907 0.255244 0.605824
O O17 0.703068 0.250000 0.250000
O O18 0.750000 0.250000 0.098235
#
# Coordination Sequence:
#
# PCOD9325881 Si02
#       7
#    16  16  16  16  16  16  16
#     4  10  20  33  55  87 125 170 220 270 329 400
#     4  11  20  37  65  94 121 164 227 282 342 402
#     4  10  20  36  58  89 125 165 216 273 340 410
#     4  10  18  29  55  92 127 156 202 283 342 377
#     4  11  24  41  61  86 129 177 222 278 342 414
#     4   9  17  29  47  83 125 153 203 272 333 386
#     4  10  16  26  53  90 122 152 196 273 337 389
#
# _framework density 22.665203000000002
#
# number of rings (size 3 to 8) (size 9 to 14) (size 15 to 20)
#    0.000    1.857    5.714    1.714    2.000    3.429 
#    0.000    0.000    3.143    0.857    0.000    1.000 
#    0.000    1.143    0.000    0.000    0.000    0.000 
#
# Total GULP energy -156403.316014 kJ/mol
# GULP energy per Si atom -5585.832715 kJ/mol
# Density = 2.261362 g / cm^3
# Si number density = 22.665203 Si / 1000 Ang^3
#
#
#
# Elastic Constant Matrix: (Units=GPa)
#
#
# Indices 1 2 3 4 5 6 
#
# 1 182.2094 55.0209 16.0262 0.0000 0.0000 0.0000
# 2 55.0209 163.5917 28.9115 0.0000 0.0000 0.0000
# 3 16.0262 28.9115 72.0320 0.0000 0.0000 0.0000
# 4 0.0000 0.0000 0.0000 12.9782 0.0000 0.0000
# 5 0.0000 0.0000 0.0000 0.0000 -10.8396 0.0000
# 6 0.0000 0.0000 0.0000 0.0000 0.0000 27.2090
#
#
#
# Elastic Compliance Matrix: (Units=1/GPa)
#
#
# Indices 1 2 3 4 5 6 
#
# 1 0.006131 -0.001960 -0.000577 0.000000 0.000000 0.000000
# 2 -0.001960 0.007206 -0.002456 0.000000 0.000000 0.000000
# 3 -0.000577 -0.002456 0.014997 0.000000 0.000000 0.000000
# 4 0.000000 0.000000 0.000000 0.077052 0.000000 0.000000
# 5 0.000000 0.000000 0.000000 0.000000 -0.092255 0.000000
# 6 0.000000 0.000000 0.000000 0.000000 0.000000 0.036753
#
#
# Mechanical properties :
#
#
# Convention : Reuss Voigt Hill
#
# Bulk Modulus (GPa) = 54.50533 68.63890 61.57212
# Shear Modulus (GPa) = 75.77244 27.06115 51.41680
#
# Velocity S-wave (km/s) = 5.78824 3.45911 4.76808
# Velocity P-wave (km/s) = 8.29288 6.80467 7.58536
#
# Compressibility (1/GPa) = 0.01834683
#
# Stress axis : x y z
#
# Youngs Moduli (GPa) = 163.11068 138.77215 66.67981
#
# Poissons Ratio (x) = 0.27199 0.03850
# Poissons Ratio (y) = 0.31969 0.16378
# Poissons Ratio (z) = 0.09417 0.34086
#
# Static dielectric constant tensor:
#      x y z
#    x 1.801910 0.000000 0.000000 
#    y 0.000000 1.821440 0.000000 
#    z 0.000000 0.000000 1.970390 
# 
# From -- ./inp_files/33510.got.cif
#   From: 2010.05.17/outbox.cif.g08.bks.cpg/sg22_17_cif.got.tgz:33510.got - 2010.06.03 23:40:54.
