data_PCOD9325275
_publ_section_title
;
Structure prediction by ZEFSAII (Michael W. Deem and Ramdas Pophale) SiO2 
 PCOD9325275
Probable space group: C 2 2 2
;
_chemical_formula_sum "Si O2"
_cell_formula_units_Z 34
_cell_length_a 18.844843
_cell_length_b 6.414222
_cell_length_c 14.929548
_cell_angle_alpha 90.000000
_cell_angle_beta 90.000000
_cell_angle_gamma 90.000000
_cell_volume 1804.609212
_symmetry_space_group_name_H-M "C 2 2 2"
_symmetry_group_IT_number 21
_symmetry_cell_setting 'orthorhombic'
loop_
_space_group_symop_operation_xyz
x,y,z
-x,-y,z
x,-y,-z
-x,y,-z
1/2+x,1/2+y,z
1/2-x,1/2-y,z
1/2+x,1/2-y,-z
1/2-x,1/2+y,-z
loop_
_atom_site_type_symbol
_atom_site_label
_atom_site_fract_x
_atom_site_fract_y
_atom_site_fract_z
Si Si1 0.822631 0.854352 0.738440
Si Si2 0.918673 0.530078 0.321114
Si Si3 0.000000 0.000000 0.000000
Si Si4 0.676487 0.655926 0.427243
Si Si5 0.567645 0.372323 0.828144
O O1 0.750000 0.750000 0.769226
O O2 0.875686 0.680367 0.698574
O O3 0.804863 0.017996 0.659819
O O4 0.864468 0.982272 0.813605
O O5 0.876105 0.665736 0.393714
O O6 0.921870 0.663877 0.228457
O O7 0.000000 0.500000 0.348928
O O8 0.953566 0.859975 0.067821
O O9 0.644394 0.500000 0.500000
O O10 0.750000 0.750000 0.464009
O O11 0.500000 0.500000 0.787575
#
# Coordination Sequence:
#
# PCOD9325275 Si02
#       5
#     8   8   2   8   8
#     4  11  21  38  61  90 119 160 201 247 302 359
#     4  11  21  39  63  89 118 159 200 250 302 358
#     4   8  16  40  62  88 122 158 194 248 294 364
#     4  11  24  39  63  86 117 164 208 250 298 366
#     4   9  19  35  64  88 118 155 200 243 293 368
#
# _framework density 18.840644000000001
#
# number of rings (size 3 to 8) (size 9 to 14) (size 15 to 20)
#    0.706    0.941    4.706    0.706    0.000    0.000 
#    0.000    8.824    5.176    0.000    0.000    0.000 
#    0.000    0.000    0.000    0.000    0.000    0.000 
#
# Total GULP energy -94830.169343 kJ/mol
# GULP energy per Si atom -5578.245255 kJ/mol
# Density = 1.879776 g / cm^3
# Si number density = 18.840644 Si / 1000 Ang^3
#
#
#
# Elastic Constant Matrix: (Units=GPa)
#
#
# Indices 1 2 3 4 5 6 
#
# 1 110.8512 21.9352 5.9597 0.0000 0.0000 0.0000
# 2 21.9352 61.2534 1.5313 0.0000 0.0000 0.0000
# 3 5.9597 1.5313 60.6659 0.0000 0.0000 0.0000
# 4 0.0000 0.0000 0.0000 12.3371 0.0000 0.0000
# 5 0.0000 0.0000 0.0000 0.0000 26.2869 0.0000
# 6 0.0000 0.0000 0.0000 0.0000 0.0000 34.3510
#
#
#
# Elastic Compliance Matrix: (Units=1/GPa)
#
#
# Indices 1 2 3 4 5 6 
#
# 1 0.009755 -0.003471 -0.000871 0.000000 0.000000 0.000000
# 2 -0.003471 0.017571 -0.000102 0.000000 0.000000 0.000000
# 3 -0.000871 -0.000102 0.016572 0.000000 0.000000 0.000000
# 4 0.000000 0.000000 0.000000 0.081056 0.000000 0.000000
# 5 0.000000 0.000000 0.000000 0.000000 0.038042 0.000000
# 6 0.000000 0.000000 0.000000 0.000000 0.000000 0.029111
#
#
# Mechanical properties :
#
#
# Convention : Reuss Voigt Hill
#
# Bulk Modulus (GPa) = 28.56433 32.40256 30.48345
# Shear Modulus (GPa) = 23.51102 28.15129 25.83115
#
# Velocity S-wave (km/s) = 3.53638 3.86965 3.70676
# Velocity P-wave (km/s) = 5.64522 6.09928 5.87664
#
# Compressibility (1/GPa) = 0.03500869
#
# Stress axis : x y z
#
# Youngs Moduli (GPa) = 102.51311 56.91087 60.34332
#
# Poissons Ratio (x) = 0.19757 0.05254
# Poissons Ratio (y) = 0.35587 0.00618
# Poissons Ratio (z) = 0.08926 0.00583
#
# Static dielectric constant tensor:
#      x y z
#    x 1.658060 0.000000 0.000000 
#    y 0.000000 1.653350 0.000000 
#    z 0.000000 0.000000 1.637690 
# 
# From -- ./inp_files/33091.got.cif
#   From: 2010.05.17/outbox.cif.g08.bks.cpg/sg21_17_cif.got.tgz:33091.got - 2010.06.03 23:14:55.
