data_PCOD9325592
_publ_section_title
;
Structure prediction by ZEFSAII (Michael W. Deem and Ramdas Pophale) SiO2 
 PCOD9325592
Probable space group: C 2 2 2
;
_chemical_formula_sum "Si O2"
_cell_formula_units_Z 32
_cell_length_a 13.726326
_cell_length_b 12.579467
_cell_length_c 7.724496
_cell_angle_alpha 90.000000
_cell_angle_beta 90.000000
_cell_angle_gamma 90.000000
_cell_volume 1333.787681
_symmetry_space_group_name_H-M "C 2 2 2"
_symmetry_group_IT_number 21
_symmetry_cell_setting 'orthorhombic'
loop_
_space_group_symop_operation_xyz
x,y,z
-x,-y,z
x,-y,-z
-x,y,-z
1/2+x,1/2+y,z
1/2-x,1/2-y,z
1/2+x,1/2-y,-z
1/2-x,1/2+y,-z
loop_
_atom_site_type_symbol
_atom_site_label
_atom_site_fract_x
_atom_site_fract_y
_atom_site_fract_z
Si Si1 0.149343 0.263097 0.807025
Si Si2 0.116575 0.500011 0.293661
Si Si3 0.524358 0.615220 0.300300
Si Si4 0.286459 0.392747 0.111439
O O1 0.250000 0.250000 0.695633
O O2 0.141108 0.389482 0.803404
O O3 0.046707 0.210002 0.758430
O O4 0.175859 0.197521 0.979585
O O5 0.141276 0.500000 0.500000
O O6 0.179675 0.409209 0.197323
O O7 0.000000 0.500000 0.282702
O O8 0.500000 0.500000 0.218147
O O9 0.500000 0.608230 0.500000
O O10 0.638483 0.624380 0.268129
O O11 0.302903 0.500000 0.000000
#
# Coordination Sequence:
#
# PCOD9325592 Si02
#       4
#     8   8   8   8
#     4  12  26  49  75 118 159 217 275 332 431 482
#     4  11  29  56  80 116 169 221 277 348 422 513
#     4  11  25  43  74 116 158 208 273 349 409 480
#     4  12  25  48  77 117 161 207 275 351 398 498
#
# _framework density 23.991826
#
# number of rings (size 3 to 8) (size 9 to 14) (size 15 to 20)
#    0.000    0.500    5.000    0.750   10.500    4.500 
#    0.000    0.000    0.000    0.000    0.000    0.000 
#    0.000    0.000    0.000    0.000    0.000    0.000 
#
# Total GULP energy -89136.001860 kJ/mol
# GULP energy per Si atom -5571.000116 kJ/mol
# Density = 2.393722 g / cm^3
# Si number density = 23.991826 Si / 1000 Ang^3
#
#
#
# Elastic Constant Matrix: (Units=GPa)
#
#
# Indices 1 2 3 4 5 6 
#
# 1 160.5733 32.4265 54.2260 0.0000 0.0000 0.0000
# 2 32.4265 119.4332 42.6346 0.0000 0.0000 0.0000
# 3 54.2260 42.6346 131.4698 0.0000 0.0000 0.0000
# 4 0.0000 0.0000 0.0000 7.9285 0.0000 0.0000
# 5 0.0000 0.0000 0.0000 0.0000 30.1823 0.0000
# 6 0.0000 0.0000 0.0000 0.0000 0.0000 47.4240
#
#
#
# Elastic Compliance Matrix: (Units=1/GPa)
#
#
# Indices 1 2 3 4 5 6 
#
# 1 0.007346 -0.001032 -0.002695 0.000000 0.000000 0.000000
# 2 -0.001032 0.009614 -0.002692 0.000000 0.000000 0.000000
# 3 -0.002695 -0.002692 0.009591 0.000000 0.000000 0.000000
# 4 0.000000 0.000000 0.000000 0.126127 0.000000 0.000000
# 5 0.000000 0.000000 0.000000 0.000000 0.033132 0.000000
# 6 0.000000 0.000000 0.000000 0.000000 0.000000 0.021086
#
#
# Mechanical properties :
#
#
# Convention : Reuss Voigt Hill
#
# Bulk Modulus (GPa) = 72.92780 74.45006 73.68893
# Shear Modulus (GPa) = 22.29089 35.91957 29.10523
#
# Velocity S-wave (km/s) = 3.05143 3.87351 3.48678
# Velocity P-wave (km/s) = 6.54812 7.14872 6.85500
#
# Compressibility (1/GPa) = 0.01371219
#
# Stress axis : x y z
#
# Youngs Moduli (GPa) = 136.12151 104.01336 104.26453
#
# Poissons Ratio (x) = 0.10739 0.28102
# Poissons Ratio (y) = 0.14053 0.28068
# Poissons Ratio (z) = 0.36689 0.28000
#
# Static dielectric constant tensor:
#      x y z
#    x 2.087080 0.000000 0.000000 
#    y 0.000000 2.068860 0.000000 
#    z 0.000000 0.000000 2.000590 
# 
# From -- ./inp_files/12182.got.cif
#   From: 2010.05.17/outbox.cif.g08.bks.cpg/sg21_7_cif.got.tgz:12182.got - 2010.06.03 23:14:55.
