data_PCOD9325049
_publ_section_title
;
Structure prediction by ZEFSAII (Michael W. Deem and Ramdas Pophale) SiO2 
 PCOD9325049
Probable space group: C 2 2 2
;
_chemical_formula_sum "Si O2"
_cell_formula_units_Z 20
_cell_length_a 5.204847
_cell_length_b 8.011641
_cell_length_c 19.370082
_cell_angle_alpha 90.000000
_cell_angle_beta 90.000000
_cell_angle_gamma 90.000000
_cell_volume 807.720131
_symmetry_space_group_name_H-M "C 2 2 2"
_symmetry_group_IT_number 21
_symmetry_cell_setting 'orthorhombic'
loop_
_space_group_symop_operation_xyz
x,y,z
-x,-y,z
x,-y,-z
-x,y,-z
1/2+x,1/2+y,z
1/2-x,1/2-y,z
1/2+x,1/2-y,-z
1/2-x,1/2+y,-z
loop_
_atom_site_type_symbol
_atom_site_label
_atom_site_fract_x
_atom_site_fract_y
_atom_site_fract_z
Si Si1 0.000000 0.000000 0.296167
Si Si2 0.000000 0.000000 0.500000
Si Si3 0.500000 0.500000 0.000000
Si Si4 0.000000 0.500000 0.797921
Si Si5 0.250000 0.250000 0.104867
Si Si6 0.250000 0.750000 0.604292
O O1 0.043772 0.169754 0.341398
O O2 0.749344 0.016772 0.249533
O O3 0.197159 0.103425 0.451822
O O4 0.340641 0.609849 0.947351
O O5 0.956844 0.338049 0.845762
#
# Coordination Sequence:
#
# PCOD9325049 Si02
#       6
#     4   2   2   4   4   4
#     4  11  27  49  80 115 155 201 254 316 382 453
#     4  10  24  48  74 112 152 202 256 316 380 450
#     4  12  26  48  74 110 150 200 252 312 376 448
#     4  12  28  51  80 115 154 202 254 316 382 454
#     4  12  27  48  78 112 153 200 254 314 378 452
#     4  10  25  48  78 112 155 200 256 314 380 452
#
# _framework density 24.761050999999998
#
# number of rings (size 3 to 8) (size 9 to 14) (size 15 to 20)
#    0.000    0.800    0.000    4.800    0.000   20.000 
#    0.000    0.000    0.000    0.000    0.000    0.000 
#    0.000    0.000    0.000    0.000    0.000    0.000 
#
# Total GULP energy -55755.449371 kJ/mol
# GULP energy per Si atom -5575.544937 kJ/mol
# Density = 2.470469 g / cm^3
# Si number density = 24.761051 Si / 1000 Ang^3
#
#
#
# Elastic Constant Matrix: (Units=GPa)
#
#
# Indices 1 2 3 4 5 6 
#
# 1 166.8343 81.3461 113.0346 0.0000 0.0000 0.0000
# 2 81.3461 140.8818 88.8762 0.0000 0.0000 0.0000
# 3 113.0346 88.8762 212.5868 0.0000 0.0000 0.0000
# 4 0.0000 0.0000 0.0000 90.7048 0.0000 0.0000
# 5 0.0000 0.0000 0.0000 0.0000 133.5340 0.0000
# 6 0.0000 0.0000 0.0000 0.0000 0.0000 54.0228
#
#
#
# Elastic Compliance Matrix: (Units=1/GPa)
#
#
# Indices 1 2 3 4 5 6 
#
# 1 0.010468 -0.003440 -0.004128 0.000000 0.000000 0.000000
# 2 -0.003440 0.010772 -0.002674 0.000000 0.000000 0.000000
# 3 -0.004128 -0.002674 0.008017 0.000000 0.000000 0.000000
# 4 0.000000 0.000000 0.000000 0.011025 0.000000 0.000000
# 5 0.000000 0.000000 0.000000 0.000000 0.007489 0.000000
# 6 0.000000 0.000000 0.000000 0.000000 0.000000 0.018511
#
#
# Mechanical properties :
#
#
# Convention : Reuss Voigt Hill
#
# Bulk Modulus (GPa) = 113.99684 120.75741 117.37712
# Shear Modulus (GPa) = 55.74855 71.45536 63.60195
#
# Velocity S-wave (km/s) = 4.75010 5.37779 5.07366
# Velocity P-wave (km/s) = 8.73060 9.35071 9.04597
#
# Compressibility (1/GPa) = 0.00877217
#
# Stress axis : x y z
#
# Youngs Moduli (GPa) = 95.52886 92.83733 124.74128
#
# Poissons Ratio (x) = 0.31939 0.51489
# Poissons Ratio (y) = 0.32865 0.33356
# Poissons Ratio (z) = 0.39431 0.24825
#
# Static dielectric constant tensor:
#      x y z
#    x 1.936650 0.000000 0.000000 
#    y 0.000000 1.957220 0.000000 
#    z 0.000000 0.000000 1.946820 
# 
# From -- ./inp_files/34122.got.cif
#   From: 2010.05.17/outbox.cif.g08.bks.cpg/sg21_18_cif.got.tgz:34122.got - 2010.06.03 23:14:55.
