data_PCOD9325283
_publ_section_title
;
Structure prediction by ZEFSAII (Michael W. Deem and Ramdas Pophale) SiO2 
 PCOD9325283
Probable space group: C 2 2 2
;
_chemical_formula_sum "Si O2"
_cell_formula_units_Z 56
_cell_length_a 19.305951
_cell_length_b 18.883010
_cell_length_c 8.585747
_cell_angle_alpha 90.000000
_cell_angle_beta 90.000000
_cell_angle_gamma 90.000000
_cell_volume 3129.972411
_symmetry_space_group_name_H-M "C 2 2 2"
_symmetry_group_IT_number 21
_symmetry_cell_setting 'orthorhombic'
loop_
_space_group_symop_operation_xyz
x,y,z
-x,-y,z
x,-y,-z
-x,y,-z
1/2+x,1/2+y,z
1/2-x,1/2-y,z
1/2+x,1/2-y,-z
1/2-x,1/2+y,-z
loop_
_atom_site_type_symbol
_atom_site_label
_atom_site_fract_x
_atom_site_fract_y
_atom_site_fract_z
Si Si1 0.689220 0.491110 0.823132
Si Si2 0.730119 0.357332 0.305288
Si Si3 0.856274 0.266720 0.810937
Si Si4 0.967269 0.930818 0.174151
Si Si5 0.262715 0.645142 0.672999
Si Si6 0.854209 0.724117 0.819746
Si Si7 0.999525 0.223246 0.313913
O O1 0.697376 0.567869 0.744971
O O2 0.613181 0.453986 0.833576
O O3 0.732907 0.435349 0.725113
O O4 0.713802 0.500000 0.000000
O O5 0.723359 0.347581 0.490317
O O6 0.809631 0.340479 0.254306
O O7 0.687097 0.295703 0.222096
O O8 0.811106 0.322877 0.716794
O O9 0.818164 0.192281 0.769827
O O10 0.933977 0.263453 0.752351
O O11 0.854327 0.281875 0.994031
O O12 0.988286 0.858061 0.257139
O O13 0.000000 0.000000 0.254026
O O14 0.000000 0.925175 0.000000
O O15 0.930386 0.740006 0.752525
O O16 0.000000 0.224076 0.500000
#
# Coordination Sequence:
#
# PCOD9325283 Si02
#       7
#     8   8   8   8   8   8   8
#     4  12  22  38  60  84 121 163 202 243 297 361
#     4  11  23  39  58  87 117 157 206 252 304 350
#     4  11  21  39  60  86 116 155 206 248 305 361
#     4  11  22  38  53  82 120 163 199 237 292 362
#     4  11  22  38  59  85 121 155 200 259 301 356
#     4  11  22  39  62  84 115 158 205 253 295 365
#     4  12  24  38  59  88 121 158 199 250 308 359
#
# _framework density 17.891532000000002
#
# number of rings (size 3 to 8) (size 9 to 14) (size 15 to 20)
#    0.000    0.714    2.857    9.429    0.000    0.286 
#    2.571    0.000    0.000    0.857    0.000    6.000 
#    0.000    0.000    0.000    0.000    0.000    0.000 
#
# Total GULP energy -156342.571181 kJ/mol
# GULP energy per Si atom -5583.663256 kJ/mol
# Density = 1.785081 g / cm^3
# Si number density = 17.891532 Si / 1000 Ang^3
#
#
#
# Elastic Constant Matrix: (Units=GPa)
#
#
# Indices 1 2 3 4 5 6 
#
# 1 102.9891 18.5099 -1.5625 0.0000 0.0000 0.0000
# 2 18.5099 59.2338 -1.3398 0.0000 0.0000 0.0000
# 3 -1.5625 -1.3398 74.2307 0.0000 0.0000 0.0000
# 4 0.0000 0.0000 0.0000 27.9843 0.0000 0.0000
# 5 0.0000 0.0000 0.0000 0.0000 26.5278 0.0000
# 6 0.0000 0.0000 0.0000 0.0000 0.0000 23.5957
#
#
#
# Elastic Compliance Matrix: (Units=1/GPa)
#
#
# Indices 1 2 3 4 5 6 
#
# 1 0.010289 -0.003212 0.000159 0.000000 0.000000 0.000000
# 2 -0.003212 0.017892 0.000255 0.000000 0.000000 0.000000
# 3 0.000159 0.000255 0.013479 0.000000 0.000000 0.000000
# 4 0.000000 0.000000 0.000000 0.035734 0.000000 0.000000
# 5 0.000000 0.000000 0.000000 0.000000 0.037696 0.000000
# 6 0.000000 0.000000 0.000000 0.000000 0.000000 0.042381
#
#
# Mechanical properties :
#
#
# Convention : Reuss Voigt Hill
#
# Bulk Modulus (GPa) = 27.72778 29.74099 28.73438
# Shear Modulus (GPa) = 28.55690 30.34462 29.45076
#
# Velocity S-wave (km/s) = 3.99947 4.12276 4.06158
# Velocity P-wave (km/s) = 6.07117 6.27072 6.17175
#
# Compressibility (1/GPa) = 0.03606491
#
# Stress axis : x y z
#
# Youngs Moduli (GPa) = 97.18725 55.89198 74.18693
#
# Poissons Ratio (x) = 0.17951 -0.01177
# Poissons Ratio (y) = 0.31214 -0.01894
# Poissons Ratio (z) = -0.01542 -0.01427
#
# Static dielectric constant tensor:
#      x y z
#    x 1.647350 0.000000 0.000000 
#    y 0.000000 1.613040 0.000000 
#    z 0.000000 0.000000 1.598220 
# 
# From -- ./inp_files/16771.got.cif
#   From: 2010.05.17/outbox.cif.g08.bks.cpg/sg21_9_cif.got.tgz:16771.got - 2010.06.03 23:14:55.
