data_PCOD9325918
_publ_section_title
;
Structure prediction by ZEFSAII (Michael W. Deem and Ramdas Pophale) SiO2 
 PCOD9325918
Probable space group: F 2 2 2
;
_chemical_formula_sum "Si O2"
_cell_formula_units_Z 88
_cell_length_a 11.600678
_cell_length_b 18.454034
_cell_length_c 20.401160
_cell_angle_alpha 90.000000
_cell_angle_beta 90.000000
_cell_angle_gamma 90.000000
_cell_volume 4367.466179
_symmetry_space_group_name_H-M "F 2 2 2"
_symmetry_group_IT_number 22
_symmetry_cell_setting 'orthorhombic'
loop_
_space_group_symop_operation_xyz
x,y,z
-x,-y,z
x,-y,-z
-x,y,-z
x,1/2+y,1/2+z
-x,1/2-y,1/2+z
x,1/2-y,1/2-z
-x,1/2+y,1/2-z
1/2+x,y,1/2+z
1/2-x,-y,1/2+z
1/2+x,-y,1/2-z
1/2-x,y,1/2-z
1/2+x,1/2+y,z
1/2-x,1/2-y,z
1/2+x,1/2-y,-z
1/2-x,1/2+y,-z
loop_
_atom_site_type_symbol
_atom_site_label
_atom_site_fract_x
_atom_site_fract_y
_atom_site_fract_z
Si Si1 0.403205 0.102598 0.691017
Si Si2 0.103397 0.151101 0.954854
Si Si3 0.053297 0.261425 0.111113
Si Si4 0.247645 0.357760 0.422683
Si Si5 0.667319 0.941399 0.305484
Si Si6 0.936708 0.750000 0.750000
O O1 0.380392 0.112832 0.613946
O O2 0.541002 0.093375 0.698431
O O3 0.372018 0.176122 0.729079
O O4 0.349505 0.026163 0.709380
O O5 0.052656 0.230233 0.932787
O O6 0.213868 0.144373 0.000977
O O7 0.000000 0.119351 0.000000
O O8 0.153321 0.200147 0.105520
O O9 0.121966 0.331757 0.087591
O O10 0.010502 0.268180 0.185173
O O11 0.219755 0.426984 0.377690
O O12 0.750000 0.908727 0.250000
#
# Coordination Sequence:
#
# PCOD9325918 Si02
#       6
#    16  16  16  16  16   8
#     4  10  21  35  58  82 114 155 190 245 294 353
#     4   9  16  34  52  84 115 147 191 232 294 344
#     4   9  18  28  54  87 116 144 190 239 293 342
#     4  10  18  30  54  87 115 149 185 250 291 341
#     4  11  21  35  54  85 115 146 198 247 289 350
#     4  10  16  35  55  82 116 154 192 235 303 346
#
# _framework density 20.148982
#
# number of rings (size 3 to 8) (size 9 to 14) (size 15 to 20)
#    0.000    2.182    5.455    1.091    0.000    1.455 
#    0.000    0.455   36.000    0.000    0.000    0.000 
#    0.000    0.000    0.000    0.000    0.000    0.000 
#
# Total GULP energy -122529.996074 kJ/mol
# GULP energy per Si atom -5569.545276 kJ/mol
# Density = 2.010312 g / cm^3
# Si number density = 20.148982 Si / 1000 Ang^3
#
#
#
# Elastic Constant Matrix: (Units=GPa)
#
#
# Indices 1 2 3 4 5 6 
#
# 1 80.4192 22.0992 50.8788 0.0000 0.0000 0.0000
# 2 22.0992 73.4311 9.9835 0.0000 0.0000 0.0000
# 3 50.8788 9.9835 135.4558 0.0000 0.0000 0.0000
# 4 0.0000 0.0000 0.0000 15.5862 0.0000 0.0000
# 5 0.0000 0.0000 0.0000 0.0000 10.4273 0.0000
# 6 0.0000 0.0000 0.0000 0.0000 0.0000 17.7198
#
#
#
# Elastic Compliance Matrix: (Units=1/GPa)
#
#
# Indices 1 2 3 4 5 6 
#
# 1 0.017644 -0.004454 -0.006299 0.000000 0.000000 0.000000
# 2 -0.004454 0.014880 0.000576 0.000000 0.000000 0.000000
# 3 -0.006299 0.000576 0.009706 0.000000 0.000000 0.000000
# 4 0.000000 0.000000 0.000000 0.064159 0.000000 0.000000
# 5 0.000000 0.000000 0.000000 0.000000 0.095902 0.000000
# 6 0.000000 0.000000 0.000000 0.000000 0.000000 0.056434
#
#
# Mechanical properties :
#
#
# Convention : Reuss Voigt Hill
#
# Bulk Modulus (GPa) = 45.70984 50.58101 48.14543
# Shear Modulus (GPa) = 17.45991 22.50299 19.98145
#
# Velocity S-wave (km/s) = 2.94690 3.34553 3.15252
# Velocity P-wave (km/s) = 5.85783 6.33099 6.09900
#
# Compressibility (1/GPa) = 0.02187713
#
# Stress axis : x y z
#
# Youngs Moduli (GPa) = 56.67693 67.20349 103.02902
#
# Poissons Ratio (x) = 0.29929 0.64898
# Poissons Ratio (y) = 0.25241 -0.05935
# Poissons Ratio (z) = 0.35701 -0.03872
#
# Static dielectric constant tensor:
#      x y z
#    x 1.735080 0.000000 0.000000 
#    y 0.000000 1.764240 0.000000 
#    z 0.000000 0.000000 1.730990 
# 
# From -- ./inp_files/36073.got.cif
#   From: 2010.05.17/outbox.cif.g08.bks.cpg/sg22_19_cif.got.tgz:36073.got - 2010.06.03 23:40:54.
