data_PCOD9325157
_publ_section_title
;
Structure prediction by ZEFSAII (Michael W. Deem and Ramdas Pophale) SiO2 
 PCOD9325157
Probable space group: C 2 2 2
;
_chemical_formula_sum "Si O2"
_cell_formula_units_Z 22
_cell_length_a 5.244862
_cell_length_b 32.211226
_cell_length_c 5.186045
_cell_angle_alpha 90.000000
_cell_angle_beta 90.000000
_cell_angle_gamma 90.000000
_cell_volume 876.148258
_symmetry_space_group_name_H-M "C 2 2 2"
_symmetry_group_IT_number 21
_symmetry_cell_setting 'orthorhombic'
loop_
_space_group_symop_operation_xyz
x,y,z
-x,-y,z
x,-y,-z
-x,y,-z
1/2+x,1/2+y,z
1/2-x,1/2-y,z
1/2+x,1/2-y,-z
1/2-x,1/2+y,-z
loop_
_atom_site_type_symbol
_atom_site_label
_atom_site_fract_x
_atom_site_fract_y
_atom_site_fract_z
Si Si1 0.500000 0.862061 0.000000
Si Si2 0.172633 0.070998 0.745212
Si Si3 0.252015 0.703617 0.676588
Si Si4 0.000000 0.500000 0.500000
O O1 0.627045 0.892448 0.794104
O O2 0.285247 0.832218 0.883369
O O3 0.000000 0.080970 0.500000
O O4 0.324787 0.029293 0.675888
O O5 0.000000 0.066426 0.000000
O O6 0.500000 0.698800 0.500000
O O7 0.250000 0.750000 0.794642
O O8 0.000000 0.701485 0.500000
#
# Coordination Sequence:
#
# PCOD9325157 Si02
#       4
#     4   8   8   2
#     4  12  30  47  82 120 170 220 288 351 430 500
#     4  12  31  53  84 124 168 220 283 351 430 517
#     4  10  26  50  79 117 166 227 290 354 423 502
#     4  12  30  58  84 124 164 226 274 358 426 526
#
# _framework density 25.109905000000001
#
# number of rings (size 3 to 8) (size 9 to 14) (size 15 to 20)
#    0.000    0.727    0.000    2.727   12.727   15.273 
#    0.000    0.000    0.000    0.000    0.000    0.000 
#    0.000    0.000    0.000    0.000    0.000    0.000 
#
# Total GULP energy -61846.267053 kJ/mol
# GULP energy per Si atom -5622.387914 kJ/mol
# Density = 2.505275 g / cm^3
# Si number density = 25.109905 Si / 1000 Ang^3
#
#
#
# Elastic Constant Matrix: (Units=GPa)
#
#
# Indices 1 2 3 4 5 6 
#
# 1 178.3987 80.8827 80.6588 0.0000 0.0000 0.0000
# 2 80.8827 219.0200 85.5520 0.0000 0.0000 0.0000
# 3 80.6588 85.5520 155.3349 0.0000 0.0000 0.0000
# 4 0.0000 0.0000 0.0000 168.2378 0.0000 0.0000
# 5 0.0000 0.0000 0.0000 0.0000 47.3588 0.0000
# 6 0.0000 0.0000 0.0000 0.0000 0.0000 28.5151
#
#
#
# Elastic Compliance Matrix: (Units=1/GPa)
#
#
# Indices 1 2 3 4 5 6 
#
# 1 0.007765 -0.001647 -0.003125 0.000000 0.000000 0.000000
# 2 -0.001647 0.006167 -0.002541 0.000000 0.000000 0.000000
# 3 -0.003125 -0.002541 0.009460 0.000000 0.000000 0.000000
# 4 0.000000 0.000000 0.000000 0.005944 0.000000 0.000000
# 5 0.000000 0.000000 0.000000 0.000000 0.021115 0.000000
# 6 0.000000 0.000000 0.000000 0.000000 0.000000 0.035069
#
#
# Mechanical properties :
#
#
# Convention : Reuss Voigt Hill
#
# Bulk Modulus (GPa) = 114.08412 116.32672 115.20542
# Shear Modulus (GPa) = 48.51172 69.19967 58.85569
#
# Velocity S-wave (km/s) = 4.40019 5.25533 4.84666
# Velocity P-wave (km/s) = 8.44678 9.12427 8.79205
#
# Compressibility (1/GPa) = 0.00876546
#
# Stress axis : x y z
#
# Youngs Moduli (GPa) = 128.78324 162.16439 105.70912
#
# Poissons Ratio (x) = 0.26707 0.33034
# Poissons Ratio (y) = 0.21209 0.26862
# Poissons Ratio (z) = 0.40245 0.41208
#
# Static dielectric constant tensor:
#      x y z
#    x 1.992370 0.000000 0.000000 
#    y 0.000000 1.943380 0.000000 
#    z 0.000000 0.000000 1.870090 
# 
# From -- ./inp_files/747.got.cif
#   From: 2010.05.17/outbox.cif.g08.bks.cpg/sg21_1_cif.got.tgz:747.got - 2010.06.03 23:14:55.
