data_PCOD9325660
_publ_section_title
;
Structure prediction by ZEFSAII (Michael W. Deem and Ramdas Pophale) SiO2 
 PCOD9325660
Probable space group: C 2 2 2
;
_chemical_formula_sum "Si O2"
_cell_formula_units_Z 16
_cell_length_a 7.497156
_cell_length_b 16.482628
_cell_length_c 5.068590
_cell_angle_alpha 90.000000
_cell_angle_beta 90.000000
_cell_angle_gamma 90.000000
_cell_volume 626.340028
_symmetry_space_group_name_H-M "C 2 2 2"
_symmetry_group_IT_number 21
_symmetry_cell_setting 'orthorhombic'
loop_
_space_group_symop_operation_xyz
x,y,z
-x,-y,z
x,-y,-z
-x,y,-z
1/2+x,1/2+y,z
1/2-x,1/2-y,z
1/2+x,1/2-y,-z
1/2-x,1/2+y,-z
loop_
_atom_site_type_symbol
_atom_site_label
_atom_site_fract_x
_atom_site_fract_y
_atom_site_fract_z
Si Si1 0.797328 0.584726 0.111056
Si Si2 0.000000 0.333414 0.500000
Si Si3 0.500000 0.715242 0.000000
O O1 0.837000 0.606224 0.419547
O O2 0.723885 0.500000 0.000000
O O3 0.669699 0.656600 0.020429
O O4 0.000000 0.585699 0.000000
O O5 0.015458 0.271274 0.742576
#
# Coordination Sequence:
#
# PCOD9325660 Si02
#       3
#     8   4   4
#     4  11  28  52  80 115 162 209 265 325 402 473
#     4  12  28  51  81 122 154 208 270 332 389 474
#     4  12  29  52  83 116 162 212 270 326 401 480
#
# _framework density 25.545228999999999
#
# number of rings (size 3 to 8) (size 9 to 14) (size 15 to 20)
#    0.000    0.500    2.500    2.250   14.000    4.000 
#    0.000    2.500    0.000    0.000    0.000    0.000 
#    0.000    0.000    0.000    0.000    0.000    0.000 
#
# Total GULP energy -44707.207657 kJ/mol
# GULP energy per Si atom -5588.400957 kJ/mol
# Density = 2.548709 g / cm^3
# Si number density = 25.545229 Si / 1000 Ang^3
#
#
#
# Elastic Constant Matrix: (Units=GPa)
#
#
# Indices 1 2 3 4 5 6 
#
# 1 110.5805 49.8555 40.9127 0.0000 0.0000 0.0000
# 2 49.8555 260.6876 114.0318 0.0000 0.0000 0.0000
# 3 40.9127 114.0318 193.9513 0.0000 0.0000 0.0000
# 4 0.0000 0.0000 0.0000 36.7615 0.0000 0.0000
# 5 0.0000 0.0000 0.0000 0.0000 19.0392 0.0000
# 6 0.0000 0.0000 0.0000 0.0000 0.0000 34.0449
#
#
#
# Elastic Compliance Matrix: (Units=1/GPa)
#
#
# Indices 1 2 3 4 5 6 
#
# 1 0.010151 -0.001353 -0.001346 0.000000 0.000000 0.000000
# 2 -0.001353 0.005344 -0.002857 0.000000 0.000000 0.000000
# 3 -0.001346 -0.002857 0.007120 0.000000 0.000000 0.000000
# 4 0.000000 0.000000 0.000000 0.027202 0.000000 0.000000
# 5 0.000000 0.000000 0.000000 0.000000 0.052523 0.000000
# 6 0.000000 0.000000 0.000000 0.000000 0.000000 0.029373
#
#
# Mechanical properties :
#
#
# Convention : Reuss Voigt Hill
#
# Bulk Modulus (GPa) = 86.92651 108.31326 97.61989
# Shear Modulus (GPa) = 34.09266 41.99706 38.04486
#
# Velocity S-wave (km/s) = 3.65718 4.05906 3.86335
# Velocity P-wave (km/s) = 7.20664 8.02874 7.62877
#
# Compressibility (1/GPa) = 0.01150397
#
# Stress axis : x y z
#
# Youngs Moduli (GPa) = 98.51242 187.11394 140.45863
#
# Poissons Ratio (x) = 0.25308 0.18907
# Poissons Ratio (y) = 0.13324 0.40127
# Poissons Ratio (z) = 0.13261 0.53456
#
# Static dielectric constant tensor:
#      x y z
#    x 2.078960 0.000000 0.000000 
#    y 0.000000 2.060860 0.000000 
#    z 0.000000 0.000000 2.223070 
# 
# From -- ./inp_files/900.got.cif
#   From: 2010.05.17/outbox.cif.g08.bks.cpg/sg21_1_cif.got.tgz:900.got - 2010.06.03 23:14:55.
