data_PCOD9325070
_publ_section_title
;
Structure prediction by ZEFSAII (Michael W. Deem and Ramdas Pophale) SiO2 
 PCOD9325070
Probable space group: C 2 2 2
;
_chemical_formula_sum "Si O2"
_cell_formula_units_Z 32
_cell_length_a 23.443883
_cell_length_b 5.188986
_cell_length_c 13.510167
_cell_angle_alpha 90.000000
_cell_angle_beta 90.000000
_cell_angle_gamma 90.000000
_cell_volume 1643.511554
_symmetry_space_group_name_H-M "C 2 2 2"
_symmetry_group_IT_number 21
_symmetry_cell_setting 'orthorhombic'
loop_
_space_group_symop_operation_xyz
x,y,z
-x,-y,z
x,-y,-z
-x,y,-z
1/2+x,1/2+y,z
1/2-x,1/2-y,z
1/2+x,1/2-y,-z
1/2-x,1/2+y,-z
loop_
_atom_site_type_symbol
_atom_site_label
_atom_site_fract_x
_atom_site_fract_y
_atom_site_fract_z
Si Si1 0.687810 0.270832 0.374842
Si Si2 0.463228 0.739047 0.693741
Si Si3 0.250000 0.750000 0.931727
Si Si4 0.592484 0.500000 0.500000
Si Si5 0.836802 0.726479 0.244500
O O1 0.750000 0.250000 0.423718
O O2 0.635268 0.295597 0.449415
O O3 0.683475 0.527093 0.308009
O O4 0.680565 0.028022 0.304055
O O5 0.500000 0.500000 0.733769
O O6 0.443058 0.644352 0.584475
O O7 0.405408 0.772003 0.756194
O O8 0.500000 0.000000 0.688590
O O9 0.195283 0.732925 0.859491
O O10 0.253466 0.500000 0.000000
#
# Coordination Sequence:
#
# PCOD9325070 Si02
#       5
#     8   8   4   4   8
#     4  11  21  38  58  85 134 172 204 257 306 370
#     4  11  24  41  60  84 126 174 216 257 287 348
#     4  12  24  42  74 100 122 146 194 270 332 402
#     4  10  25  34  58  92 122 176 231 256 286 334
#     4  11  23  42  63  93 124 162 204 252 328 380
#
# _framework density 19.470504999999999
#
# number of rings (size 3 to 8) (size 9 to 14) (size 15 to 20)
#    0.000    1.000    2.500    4.875    0.000   16.000 
#    0.000    0.000    0.000    4.500    0.000    0.000 
#    0.000    0.000    0.000    0.000    0.000    0.000 
#
# Total GULP energy -89534.068878 kJ/mol
# GULP energy per Si atom -5595.879305 kJ/mol
# Density = 1.942619 g / cm^3
# Si number density = 19.470505 Si / 1000 Ang^3
#
#
#
# Elastic Constant Matrix: (Units=GPa)
#
#
# Indices 1 2 3 4 5 6 
#
# 1 185.8169 62.4458 53.0542 0.0000 0.0000 0.0000
# 2 62.4458 170.5212 43.9814 0.0000 0.0000 0.0000
# 3 53.0542 43.9814 93.6129 0.0000 0.0000 0.0000
# 4 0.0000 0.0000 0.0000 37.6958 0.0000 0.0000
# 5 0.0000 0.0000 0.0000 0.0000 -926.6089 0.0000
# 6 0.0000 0.0000 0.0000 0.0000 0.0000 53.0031
#
#
#
# Elastic Compliance Matrix: (Units=1/GPa)
#
#
# Indices 1 2 3 4 5 6 
#
# 1 0.006833 -0.001711 -0.003069 0.000000 0.000000 0.000000
# 2 -0.001711 0.007101 -0.002367 0.000000 0.000000 0.000000
# 3 -0.003069 -0.002367 0.013533 0.000000 0.000000 0.000000
# 4 0.000000 0.000000 0.000000 0.026528 0.000000 0.000000
# 5 0.000000 0.000000 0.000000 0.000000 -0.001079 0.000000
# 6 0.000000 0.000000 0.000000 0.000000 0.000000 0.018867
#
#
# Mechanical properties :
#
#
# Convention : Reuss Voigt Hill
#
# Bulk Modulus (GPa) = 75.90093 85.43486 80.66790
# Shear Modulus (GPa) = 55.26866 -147.81735 -46.27435
#
# Velocity S-wave (km/s) = 5.33362 -8.72258 -4.88037
# Velocity P-wave (km/s) = 8.77480 7.58091 3.12465
#
# Compressibility (1/GPa) = 0.01317507
#
# Stress axis : x y z
#
# Youngs Moduli (GPa) = 146.35511 140.81928 73.89123
#
# Poissons Ratio (x) = 0.24090 0.22675
# Poissons Ratio (y) = 0.25037 0.17489
# Poissons Ratio (z) = 0.44911 0.33329
#
# Static dielectric constant tensor:
#      x y z
#    x 1.730230 0.000000 0.000000 
#    y 0.000000 1.675800 0.000000 
#    z 0.000000 0.000000 1.646030 
# 
# From -- ./inp_files/26487.got.cif
#   From: 2010.05.17/outbox.cif.g08.bks.cpg/sg21_14_cif.got.tgz:26487.got - 2010.06.03 23:14:55.
