data_PCOD9325623
_publ_section_title
;
Structure prediction by ZEFSAII (Michael W. Deem and Ramdas Pophale) SiO2 
 PCOD9325623
Probable space group: C 2 2 2
;
_chemical_formula_sum "Si O2"
_cell_formula_units_Z 46
_cell_length_a 12.239574
_cell_length_b 16.177493
_cell_length_c 10.250752
_cell_angle_alpha 90.000000
_cell_angle_beta 90.000000
_cell_angle_gamma 90.000000
_cell_volume 2029.706533
_symmetry_space_group_name_H-M "C 2 2 2"
_symmetry_group_IT_number 21
_symmetry_cell_setting 'orthorhombic'
loop_
_space_group_symop_operation_xyz
x,y,z
-x,-y,z
x,-y,-z
-x,y,-z
1/2+x,1/2+y,z
1/2-x,1/2-y,z
1/2+x,1/2-y,-z
1/2-x,1/2+y,-z
loop_
_atom_site_type_symbol
_atom_site_label
_atom_site_fract_x
_atom_site_fract_y
_atom_site_fract_z
Si Si1 0.500000 0.500000 0.753850
Si Si2 0.250000 0.250000 0.751359
Si Si3 0.199246 0.413832 0.362008
Si Si4 0.500000 0.000000 0.500000
Si Si5 0.285664 0.479632 0.865183
Si Si6 0.610479 0.632982 0.562354
Si Si7 0.875864 0.807976 0.965872
Si Si8 0.250000 0.750000 0.787633
O O1 0.400990 0.527812 0.845956
O O2 0.555262 0.566167 0.658467
O O3 0.311785 0.309550 0.648966
O O4 0.153425 0.264918 0.861078
O O5 0.085740 0.439230 0.427638
O O6 0.219750 0.487867 0.258019
O O7 0.306270 0.406909 0.456447
O O8 0.196286 0.322957 0.296615
O O9 0.323593 0.386168 0.891154
O O10 0.226829 0.500000 0.000000
O O11 0.500000 0.673047 0.500000
O O12 0.827152 0.794031 0.108262
O O13 0.000000 0.817628 0.000000
#
# Coordination Sequence:
#
# PCOD9325623 Si02
#       8
#     4   4   8   2   8   8   8   4
#     4  12  22  40  74 112 151 191 252 334 392 461
#     4  11  27  46  72 118 165 207 266 332 428 487
#     4  12  28  54  78 114 164 215 278 336 417 497
#     4  12  32  56  80 116 168 234 272 336 420 536
#     4  12  23  42  78 115 146 195 268 334 393 475
#     4  12  26  46  77 115 155 210 268 339 401 480
#     4  11  25  48  76 116 160 207 262 335 411 492
#     4  11  27  52  72 116 159 203 270 334 394 501
#
# _framework density 22.663374999999998
#
# number of rings (size 3 to 8) (size 9 to 14) (size 15 to 20)
#    0.000    0.348    5.217    3.130    2.435    1.391 
#    6.261    0.435    0.000    0.000    0.000    0.000 
#    0.000    0.000    0.000    0.000    0.000    0.000 
#
# Total GULP energy -128184.345429 kJ/mol
# GULP energy per Si atom -5573.232410 kJ/mol
# Density = 2.261179 g / cm^3
# Si number density = 22.663375 Si / 1000 Ang^3
#
#
#
# Elastic Constant Matrix: (Units=GPa)
#
#
# Indices 1 2 3 4 5 6 
#
# 1 150.7368 92.1970 72.6434 0.0000 0.0000 0.0000
# 2 92.1970 130.1869 79.0147 0.0000 0.0000 0.0000
# 3 72.6434 79.0147 151.4772 0.0000 0.0000 0.0000
# 4 0.0000 0.0000 0.0000 31.6355 0.0000 0.0000
# 5 0.0000 0.0000 0.0000 0.0000 35.8981 0.0000
# 6 0.0000 0.0000 0.0000 0.0000 0.0000 19.1484
#
#
#
# Elastic Compliance Matrix: (Units=1/GPa)
#
#
# Indices 1 2 3 4 5 6 
#
# 1 0.012084 -0.007376 -0.001948 0.000000 0.000000 0.000000
# 2 -0.007376 0.015741 -0.004674 0.000000 0.000000 0.000000
# 3 -0.001948 -0.004674 0.009974 0.000000 0.000000 0.000000
# 4 0.000000 0.000000 0.000000 0.031610 0.000000 0.000000
# 5 0.000000 0.000000 0.000000 0.000000 0.027857 0.000000
# 6 0.000000 0.000000 0.000000 0.000000 0.000000 0.052224
#
#
# Mechanical properties :
#
#
# Convention : Reuss Voigt Hill
#
# Bulk Modulus (GPa) = 101.99488 102.23457 102.11472
# Shear Modulus (GPa) = 27.66210 29.90611 28.78410
#
# Velocity S-wave (km/s) = 3.49745 3.63654 3.56767
# Velocity P-wave (km/s) = 7.83655 7.92720 7.88201
#
# Compressibility (1/GPa) = 0.00980441
#
# Stress axis : x y z
#
# Youngs Moduli (GPa) = 82.75422 63.52665 100.26202
#
# Poissons Ratio (x) = 0.46855 0.19529
# Poissons Ratio (y) = 0.61036 0.46863
# Poissons Ratio (z) = 0.16119 0.29693
#
# Static dielectric constant tensor:
#      x y z
#    x 1.947790 0.000000 0.000000 
#    y 0.000000 2.056560 0.000000 
#    z 0.000000 0.000000 1.920370 
# 
# From -- ./inp_files/24132.got.cif
#   From: 2010.05.17/outbox.cif.g08.bks.cpg/sg21_13_cif.got.tgz:24132.got - 2010.06.03 23:14:55.
