data_PCOD9325352
_publ_section_title
;
Structure prediction by ZEFSAII (Michael W. Deem and Ramdas Pophale) SiO2 
 PCOD9325352
Probable space group: C 2 2 2
;
_chemical_formula_sum "Si O2"
_cell_formula_units_Z 58
_cell_length_a 6.368190
_cell_length_b 27.620440
_cell_length_c 16.088257
_cell_angle_alpha 90.000000
_cell_angle_beta 90.000000
_cell_angle_gamma 90.000000
_cell_volume 2829.799076
_symmetry_space_group_name_H-M "C 2 2 2"
_symmetry_group_IT_number 21
_symmetry_cell_setting 'orthorhombic'
loop_
_space_group_symop_operation_xyz
x,y,z
-x,-y,z
x,-y,-z
-x,y,-z
1/2+x,1/2+y,z
1/2-x,1/2-y,z
1/2+x,1/2-y,-z
1/2-x,1/2+y,-z
loop_
_atom_site_type_symbol
_atom_site_label
_atom_site_fract_x
_atom_site_fract_y
_atom_site_fract_z
Si Si1 0.630709 0.955080 0.208022
Si Si2 0.607328 0.203977 0.725663
Si Si3 0.169959 0.961317 0.619131
Si Si4 0.314376 0.124748 0.793479
Si Si5 0.165074 0.298375 0.562705
Si Si6 0.995754 0.058992 0.098750
Si Si7 0.500000 0.000000 0.500000
Si Si8 0.985804 0.856559 0.349964
O O1 0.762706 0.973233 0.286251
O O2 0.467574 0.916152 0.242907
O O3 0.784304 0.928284 0.143653
O O4 0.500000 0.000000 0.170604
O O5 0.750000 0.250000 0.755013
O O6 0.467432 0.172956 0.793038
O O7 0.448621 0.216709 0.649662
O O8 0.777188 0.170032 0.680218
O O9 0.364874 0.966472 0.559518
O O10 0.074018 0.908751 0.617748
O O11 0.000000 0.000000 0.593254
O O12 0.129554 0.137874 0.731484
O O13 0.191812 0.093626 0.866082
O O14 0.250000 0.250000 0.519392
O O15 0.365341 0.329822 0.585335
O O16 0.000000 0.322201 0.500000
O O17 0.000000 0.000000 0.115587
O O18 0.000000 0.064512 0.000000
#
# Coordination Sequence:
#
# PCOD9325352 Si02
#       8
#     8   8   8   8   8   8   2   8
#     4  12  21  39  70  91 132 187 224 265 338 413
#     4  11  22  42  66  95 131 166 229 290 338 412
#     4  12  25  47  63  85 128 177 233 281 332 389
#     4  11  22  39  66  99 132 180 223 272 340 413
#     4  11  24  41  63  92 129 170 215 287 365 415
#     4  11  23  39  62 103 150 182 221 273 335 415
#     4  12  30  44  60  90 124 182 246 296 320 382
#     4  11  24  43  66  92 126 169 224 278 340 411
#
# _framework density 20.496155000000002
#
# number of rings (size 3 to 8) (size 9 to 14) (size 15 to 20)
#    0.000    0.690    6.207    1.862    0.000    0.552 
#    7.448    0.000    0.000    0.000    0.000    0.000 
#   57.931    0.000    0.000    0.000    0.000    0.000 
#
# Total GULP energy -161818.420486 kJ/mol
# GULP energy per Si atom -5579.945534 kJ/mol
# Density = 2.044950 g / cm^3
# Si number density = 20.496155 Si / 1000 Ang^3
#
#
#
# Elastic Constant Matrix: (Units=GPa)
#
#
# Indices 1 2 3 4 5 6 
#
# 1 130.2574 59.5239 45.0850 0.0000 0.0000 0.0000
# 2 59.5239 123.5851 24.0898 0.0000 0.0000 0.0000
# 3 45.0850 24.0898 96.6656 0.0000 0.0000 0.0000
# 4 0.0000 0.0000 0.0000 56.2672 0.0000 0.0000
# 5 0.0000 0.0000 0.0000 0.0000 -2.2335 0.0000
# 6 0.0000 0.0000 0.0000 0.0000 0.0000 50.3944
#
#
#
# Elastic Compliance Matrix: (Units=1/GPa)
#
#
# Indices 1 2 3 4 5 6 
#
# 1 0.011186 -0.004594 -0.004072 0.000000 0.000000 0.000000
# 2 -0.004594 0.010391 -0.000447 0.000000 0.000000 0.000000
# 3 -0.004072 -0.000447 0.012356 0.000000 0.000000 0.000000
# 4 0.000000 0.000000 0.000000 0.017772 0.000000 0.000000
# 5 0.000000 0.000000 0.000000 0.000000 -0.447725 0.000000
# 6 0.000000 0.000000 0.000000 0.000000 0.000000 0.019843
#
#
# Mechanical properties :
#
#
# Convention : Reuss Voigt Hill
#
# Bulk Modulus (GPa) = 63.66761 67.54506 65.60634
# Shear Modulus (GPa) = -14.17575 35.67291 10.74858
#
# Velocity S-wave (km/s) = -2.63274 4.17642 2.29251
# Velocity P-wave (km/s) = 4.67856 7.50221 6.25188
#
# Compressibility (1/GPa) = 0.01570657
#
# Stress axis : x y z
#
# Youngs Moduli (GPa) = 89.39864 96.23436 80.93450
#
# Poissons Ratio (x) = 0.44208 0.32959
# Poissons Ratio (y) = 0.41068 0.03618
# Poissons Ratio (z) = 0.36406 0.04302
#
# Static dielectric constant tensor:
#      x y z
#    x 1.779410 0.000000 0.000000 
#    y 0.000000 1.771050 0.000000 
#    z 0.000000 0.000000 1.707960 
# 
# From -- ./inp_files/35252.got.cif
#   From: 2010.05.17/outbox.cif.g08.bks.cpg/sg21_18_cif.got.tgz:35252.got - 2010.06.03 23:14:55.
