data_PCOD9325552
_publ_section_title
;
Structure prediction by ZEFSAII (Michael W. Deem and Ramdas Pophale) SiO2 
 PCOD9325552
Probable space group: C 2 2 2
;
_chemical_formula_sum "Si O2"
_cell_formula_units_Z 54
_cell_length_a 13.665145
_cell_length_b 16.890716
_cell_length_c 11.005587
_cell_angle_alpha 90.000000
_cell_angle_beta 90.000000
_cell_angle_gamma 90.000000
_cell_volume 2540.244475
_symmetry_space_group_name_H-M "C 2 2 2"
_symmetry_group_IT_number 21
_symmetry_cell_setting 'orthorhombic'
loop_
_space_group_symop_operation_xyz
x,y,z
-x,-y,z
x,-y,-z
-x,y,-z
1/2+x,1/2+y,z
1/2-x,1/2-y,z
1/2+x,1/2-y,-z
1/2-x,1/2+y,-z
loop_
_atom_site_type_symbol
_atom_site_label
_atom_site_fract_x
_atom_site_fract_y
_atom_site_fract_z
Si Si1 0.399756 0.749107 0.187793
Si Si2 0.000000 0.500000 0.500000
Si Si3 0.249900 0.632433 0.237323
Si Si4 0.671104 0.024435 0.875343
Si Si5 0.345049 0.586628 0.481979
Si Si6 0.058279 0.233505 0.385725
Si Si7 0.157975 0.606640 0.636562
Si Si8 0.500000 0.870090 0.000000
O O1 0.324913 0.679360 0.146491
O O2 0.330632 0.802596 0.275342
O O3 0.489982 0.720565 0.269009
O O4 0.438578 0.809761 0.085467
O O5 0.935506 0.445063 0.591830
O O6 0.182521 0.560302 0.191891
O O7 0.324133 0.606397 0.342302
O O8 0.701972 0.080999 0.766438
O O9 0.573573 0.071443 0.924977
O O10 0.725267 0.000000 0.000000
O O11 0.388088 0.500000 0.500000
O O12 0.400579 0.653071 0.558120
O O13 0.237080 0.587496 0.536628
O O14 0.135418 0.300940 0.354755
O O15 0.000000 0.269605 0.500000
#
# Coordination Sequence:
#
# PCOD9325552 Si02
#       8
#     8   2   8   8   8   8   8   4
#     4  11  25  45  68 101 143 188 235 295 364 433
#     4  12  24  36  70  96 136 176 216 294 388 420
#     4  11  24  45  71 101 145 185 228 301 375 432
#     4  12  25  42  71 102 141 184 238 303 362 428
#     4  12  25  45  68 103 144 184 238 294 361 439
#     4  12  24  42  69 102 142 185 232 294 365 440
#     4  12  25  41  66 106 140 176 233 301 369 425
#     4  12  25  44  72 106 139 184 254 303 358 432
#
# _framework density 21.257797
#
# number of rings (size 3 to 8) (size 9 to 14) (size 15 to 20)
#    0.000    0.296    7.407    1.556    6.222    0.296 
#    2.667    0.000    0.000    0.000    0.000    0.000 
#    0.000    0.000    0.000    0.000    0.000    0.000 
#
# Total GULP energy -150347.605507 kJ/mol
# GULP energy per Si atom -5568.429834 kJ/mol
# Density = 2.120941 g / cm^3
# Si number density = 21.257797 Si / 1000 Ang^3
#
#
#
# Elastic Constant Matrix: (Units=GPa)
#
#
# Indices 1 2 3 4 5 6 
#
# 1 76.1066 52.9007 11.4343 0.0000 0.0000 0.0000
# 2 52.9007 147.9162 41.6023 0.0000 0.0000 0.0000
# 3 11.4343 41.6023 53.0441 0.0000 0.0000 0.0000
# 4 0.0000 0.0000 0.0000 -15.0575 0.0000 0.0000
# 5 0.0000 0.0000 0.0000 0.0000 17.0020 0.0000
# 6 0.0000 0.0000 0.0000 0.0000 0.0000 29.1768
#
#
#
# Elastic Compliance Matrix: (Units=1/GPa)
#
#
# Indices 1 2 3 4 5 6 
#
# 1 0.017575 -0.006697 0.001464 0.000000 0.000000 0.000000
# 2 -0.006697 0.011226 -0.007361 0.000000 0.000000 0.000000
# 3 0.001464 -0.007361 0.024310 0.000000 0.000000 0.000000
# 4 0.000000 0.000000 0.000000 -0.066412 0.000000 0.000000
# 5 0.000000 0.000000 0.000000 0.000000 0.058816 0.000000
# 6 0.000000 0.000000 0.000000 0.000000 0.000000 0.034274
#
#
# Mechanical properties :
#
#
# Convention : Reuss Voigt Hill
#
# Bulk Modulus (GPa) = 35.81329 54.32683 45.07006
# Shear Modulus (GPa) = 43.75064 17.63290 30.69177
#
# Velocity S-wave (km/s) = 4.54155 2.88319 3.80384
# Velocity P-wave (km/s) = 6.66218 6.05767 6.36710
#
# Compressibility (1/GPa) = 0.02792259
#
# Stress axis : x y z
#
# Youngs Moduli (GPa) = 56.90026 89.07834 41.13571
#
# Poissons Ratio (x) = 0.59657 -0.06023
# Poissons Ratio (y) = 0.38107 0.30280
# Poissons Ratio (z) = -0.08331 0.65570
#
# Static dielectric constant tensor:
#      x y z
#    x 1.890950 0.000000 0.000000 
#    y 0.000000 1.827730 0.000000 
#    z 0.000000 0.000000 1.775420 
# 
# From -- ./inp_files/25324.got.cif
#   From: 2010.05.17/outbox.cif.g08.bks.cpg/sg21_13_cif.got.tgz:25324.got - 2010.06.03 23:14:55.
