data_PCOD9325012
_publ_section_title
;
Structure prediction by ZEFSAII (Michael W. Deem and Ramdas Pophale) SiO2 
 PCOD9325012
Probable space group: C 2 2 2
;
_chemical_formula_sum "Si O2"
_cell_formula_units_Z 18
_cell_length_a 5.078421
_cell_length_b 25.725163
_cell_length_c 5.907074
_cell_angle_alpha 90.000000
_cell_angle_beta 90.000000
_cell_angle_gamma 90.000000
_cell_volume 771.719097
_symmetry_space_group_name_H-M "C 2 2 2"
_symmetry_group_IT_number 21
_symmetry_cell_setting 'orthorhombic'
loop_
_space_group_symop_operation_xyz
x,y,z
-x,-y,z
x,-y,-z
-x,y,-z
1/2+x,1/2+y,z
1/2-x,1/2-y,z
1/2+x,1/2-y,-z
1/2-x,1/2+y,-z
loop_
_atom_site_type_symbol
_atom_site_label
_atom_site_fract_x
_atom_site_fract_y
_atom_site_fract_z
Si Si1 0.000000 0.167882 0.000000
Si Si2 0.742836 0.399732 0.352280
Si Si3 0.500000 0.500000 0.500000
Si Si4 0.250000 0.250000 0.343266
O O1 0.212752 0.130350 0.880343
O O2 0.854545 0.204844 0.821176
O O3 0.500000 0.378421 0.500000
O O4 0.675446 0.461344 0.347251
O O5 0.000000 0.392480 0.500000
O O6 0.500000 0.234763 0.500000
#
# Coordination Sequence:
#
# PCOD9325012 Si02
#       4
#     4   8   2   4
#     4  12  28  49  82 112 152 215 254 302 400 448
#     4  10  24  45  77 113 154 197 250 316 370 459
#     4   8  22  50  74 112 164 188 242 334 374 438
#     4  12  30  52  74 110 160 200 260 324 366 450
#
# _framework density 23.324548
#
# number of rings (size 3 to 8) (size 9 to 14) (size 15 to 20)
#    1.333    0.000    0.000    3.333    0.000   20.444 
#    0.000    0.000    9.778    0.000    0.000    0.000 
#    0.000    0.000    0.000    0.000    0.000    0.000 
#
# Total GULP energy -50310.847976 kJ/mol
# GULP energy per Si atom -5590.094220 kJ/mol
# Density = 2.327146 g / cm^3
# Si number density = 23.324548 Si / 1000 Ang^3
#
#
#
# Elastic Constant Matrix: (Units=GPa)
#
#
# Indices 1 2 3 4 5 6 
#
# 1 206.4719 67.5993 87.0474 0.0000 0.0000 0.0000
# 2 67.5993 197.7401 103.7503 0.0000 0.0000 0.0000
# 3 87.0474 103.7503 133.3114 0.0000 0.0000 0.0000
# 4 0.0000 0.0000 0.0000 -59.6365 0.0000 0.0000
# 5 0.0000 0.0000 0.0000 0.0000 45.1389 0.0000
# 6 0.0000 0.0000 0.0000 0.0000 0.0000 5.3973
#
#
#
# Elastic Compliance Matrix: (Units=1/GPa)
#
#
# Indices 1 2 3 4 5 6 
#
# 1 0.006683 0.000008 -0.004370 0.000000 0.000000 0.000000
# 2 0.000008 0.008547 -0.006657 0.000000 0.000000 0.000000
# 3 -0.004370 -0.006657 0.015536 0.000000 0.000000 0.000000
# 4 0.000000 0.000000 0.000000 -0.016768 0.000000 0.000000
# 5 0.000000 0.000000 0.000000 0.000000 0.022154 0.000000
# 6 0.000000 0.000000 0.000000 0.000000 0.000000 0.185277
#
#
# Mechanical properties :
#
#
# Convention : Reuss Voigt Hill
#
# Bulk Modulus (GPa) = 114.57823 117.14637 115.86230
# Shear Modulus (GPa) = 20.29415 16.78838 18.54127
#
# Velocity S-wave (km/s) = 2.95291 2.68577 2.82250
# Velocity P-wave (km/s) = 7.80104 7.74283 7.77199
#
# Compressibility (1/GPa) = 0.00872766
#
# Stress axis : x y z
#
# Youngs Moduli (GPa) = 149.63289 116.99576 64.36647
#
# Poissons Ratio (x) = -0.00097 0.28130
# Poissons Ratio (y) = -0.00125 0.42852
# Poissons Ratio (z) = 0.65393 0.77889
#
# Static dielectric constant tensor:
#      x y z
#    x 1.897560 0.000000 0.000000 
#    y 0.000000 1.914790 0.000000 
#    z 0.000000 0.000000 1.841390 
# 
# From -- ./inp_files/566.got.cif
#   From: 2010.05.17/outbox.cif.g08.bks.cpg/sg21_1_cif.got.tgz:566.got - 2010.06.03 23:14:55.
