data_PCOD9325676
_publ_section_title
;
Structure prediction by ZEFSAII (Michael W. Deem and Ramdas Pophale) SiO2 
 PCOD9325676
Probable space group: C 2 2 2
;
_chemical_formula_sum "Si O2"
_cell_formula_units_Z 38
_cell_length_a 5.011920
_cell_length_b 34.554548
_cell_length_c 10.252380
_cell_angle_alpha 90.000000
_cell_angle_beta 90.000000
_cell_angle_gamma 90.000000
_cell_volume 1775.554639
_symmetry_space_group_name_H-M "C 2 2 2"
_symmetry_group_IT_number 21
_symmetry_cell_setting 'orthorhombic'
loop_
_space_group_symop_operation_xyz
x,y,z
-x,-y,z
x,-y,-z
-x,y,-z
1/2+x,1/2+y,z
1/2-x,1/2-y,z
1/2+x,1/2-y,-z
1/2-x,1/2+y,-z
loop_
_atom_site_type_symbol
_atom_site_label
_atom_site_fract_x
_atom_site_fract_y
_atom_site_fract_z
Si Si1 0.500000 0.905732 0.000000
Si Si2 0.116457 0.539822 0.791845
Si Si3 0.500000 0.500000 0.000000
Si Si4 0.000000 0.149107 0.000000
Si Si5 0.500000 0.274798 0.500000
Si Si6 0.357290 0.664156 0.283179
Si Si7 0.861610 0.614745 0.359763
O O1 0.421086 0.933729 0.119861
O O2 0.751518 0.879079 0.032224
O O3 0.195946 0.570901 0.685244
O O4 0.000000 0.500000 0.737797
O O5 0.327250 0.525794 0.900274
O O6 0.068087 0.172088 0.867766
O O7 0.250000 0.250000 0.447990
O O8 0.629009 0.300000 0.382533
O O9 0.582849 0.636279 0.343915
O O10 0.078198 0.641021 0.281875
O O11 0.000000 0.613874 0.500000
#
# Coordination Sequence:
#
# PCOD9325676 Si02
#       7
#     4   8   2   4   4   8   8
#     4  12  21  38  62  93 134 176 232 284 340 407
#     4  12  25  37  63  94 136 185 239 300 345 406
#     4  12  24  40  60  96 136 184 244 294 380 398
#     4  12  23  40  71 109 130 177 228 289 348 383
#     4  12  26  48  78 108 137 184 221 260 344 434
#     4  12  24  45  74 106 140 174 226 282 336 420
#     4  12  25  44  68  96 136 186 238 285 340 403
#
# _framework density 21.401762000000002
#
# number of rings (size 3 to 8) (size 9 to 14) (size 15 to 20)
#    0.000    0.000    8.421    1.895    2.947    0.421 
#    0.000    1.053    0.000    0.000    0.000    0.000 
#    0.000    0.000    0.000    0.000    0.000    0.000 
#
# Total GULP energy -106089.032246 kJ/mol
# GULP energy per Si atom -5583.633276 kJ/mol
# Density = 2.135305 g / cm^3
# Si number density = 21.401762 Si / 1000 Ang^3
#
#
#
# Elastic Constant Matrix: (Units=GPa)
#
#
# Indices 1 2 3 4 5 6 
#
# 1 105.8013 28.7232 -11.8570 0.0000 0.0000 0.0000
# 2 28.7232 86.0507 23.0950 0.0000 0.0000 0.0000
# 3 -11.8570 23.0950 98.7166 0.0000 0.0000 0.0000
# 4 0.0000 0.0000 0.0000 15.8338 0.0000 0.0000
# 5 0.0000 0.0000 0.0000 0.0000 23.6245 0.0000
# 6 0.0000 0.0000 0.0000 0.0000 0.0000 26.5522
#
#
#
# Elastic Compliance Matrix: (Units=1/GPa)
#
#
# Indices 1 2 3 4 5 6 
#
# 1 0.010861 -0.004242 0.002297 0.000000 0.000000 0.000000
# 2 -0.004242 0.014056 -0.003798 0.000000 0.000000 0.000000
# 3 0.002297 -0.003798 0.011294 0.000000 0.000000 0.000000
# 4 0.000000 0.000000 0.000000 0.063156 0.000000 0.000000
# 5 0.000000 0.000000 0.000000 0.000000 0.042329 0.000000
# 6 0.000000 0.000000 0.000000 0.000000 0.000000 0.037662
#
#
# Mechanical properties :
#
#
# Convention : Reuss Voigt Hill
#
# Bulk Modulus (GPa) = 40.44372 41.16564 40.80468
# Shear Modulus (GPa) = 25.11484 29.90926 27.51205
#
# Velocity S-wave (km/s) = 3.42935 3.74239 3.58928
# Velocity P-wave (km/s) = 5.88379 6.16039 6.02368
#
# Compressibility (1/GPa) = 0.02472572
#
# Stress axis : x y z
#
# Youngs Moduli (GPa) = 92.07583 71.14286 88.53927
#
# Poissons Ratio (x) = 0.30176 -0.20336
# Poissons Ratio (y) = 0.39055 0.33627
# Poissons Ratio (z) = -0.21148 0.27020
#
# Static dielectric constant tensor:
#      x y z
#    x 1.805750 0.000000 0.000000 
#    y 0.000000 1.797320 0.000000 
#    z 0.000000 0.000000 1.843430 
# 
# From -- ./inp_files/21449.got.cif
#   From: 2010.05.17/outbox.cif.g08.bks.cpg/sg21_11_cif.got.tgz:21449.got - 2010.06.03 23:14:55.
