data_PCOD9325511
_publ_section_title
;
Structure prediction by ZEFSAII (Michael W. Deem and Ramdas Pophale) SiO2 
 PCOD9325511
Probable space group: C 2 2 2
;
_chemical_formula_sum "Si O2"
_cell_formula_units_Z 32
_cell_length_a 34.163907
_cell_length_b 4.901667
_cell_length_c 8.569902
_cell_angle_alpha 90.000000
_cell_angle_beta 90.000000
_cell_angle_gamma 90.000000
_cell_volume 1435.116608
_symmetry_space_group_name_H-M "C 2 2 2"
_symmetry_group_IT_number 21
_symmetry_cell_setting 'orthorhombic'
loop_
_space_group_symop_operation_xyz
x,y,z
-x,-y,z
x,-y,-z
-x,y,-z
1/2+x,1/2+y,z
1/2-x,1/2-y,z
1/2+x,1/2-y,-z
1/2-x,1/2+y,-z
loop_
_atom_site_type_symbol
_atom_site_label
_atom_site_fract_x
_atom_site_fract_y
_atom_site_fract_z
Si Si1 0.578470 0.447910 0.172846
Si Si2 0.208631 0.385012 0.675347
Si Si3 0.168910 0.092490 0.174526
Si Si4 0.955604 0.560203 0.318384
O O1 0.621954 0.577125 0.173810
O O2 0.573908 0.134034 0.221242
O O3 0.553379 0.625397 0.290898
O O4 0.562723 0.500000 0.000000
O O5 0.212477 0.500000 0.500000
O O6 0.250000 0.250000 0.723996
O O7 0.190554 0.627354 0.780238
O O8 0.180191 0.129998 0.695655
O O9 0.181451 0.000000 0.000000
O O10 0.951090 0.500000 0.500000
O O11 0.000000 0.500000 0.269259
#
# Coordination Sequence:
#
# PCOD9325511 Si02
#       4
#     8   8   8   8
#     4  11  24  42  65  95 129 167 214 265 316 377
#     4  12  25  44  67  95 129 166 210 262 319 382
#     4  11  25  44  67  96 129 166 213 264 317 381
#     4  11  24  41  63  94 131 170 215 264 315 376
#
# _framework density 22.297840999999998
#
# number of rings (size 3 to 8) (size 9 to 14) (size 15 to 20)
#    0.000    0.750    0.000    7.500    0.000   17.000 
#    0.000    1.250    0.000    0.000    0.000    0.000 
#    0.000    0.000    0.000    0.000    0.000    0.000 
#
# Total GULP energy -89457.935968 kJ/mol
# GULP energy per Si atom -5591.120998 kJ/mol
# Density = 2.224709 g / cm^3
# Si number density = 22.297841 Si / 1000 Ang^3
#
#
#
# Elastic Constant Matrix: (Units=GPa)
#
#
# Indices 1 2 3 4 5 6 
#
# 1 57.8853 14.6786 33.0889 0.0000 0.0000 0.0000
# 2 14.6786 108.2308 13.1331 0.0000 0.0000 0.0000
# 3 33.0889 13.1331 54.0557 0.0000 0.0000 0.0000
# 4 0.0000 0.0000 0.0000 31.7550 0.0000 0.0000
# 5 0.0000 0.0000 0.0000 0.0000 0.0621 0.0000
# 6 0.0000 0.0000 0.0000 0.0000 0.0000 38.6881
#
#
#
# Elastic Compliance Matrix: (Units=1/GPa)
#
#
# Indices 1 2 3 4 5 6 
#
# 1 0.026874 -0.001699 -0.016037 0.000000 0.000000 0.000000
# 2 -0.001699 0.009628 -0.001299 0.000000 0.000000 0.000000
# 3 -0.016037 -0.001299 0.028632 0.000000 0.000000 0.000000
# 4 0.000000 0.000000 0.000000 0.031491 0.000000 0.000000
# 5 0.000000 0.000000 0.000000 0.000000 16.103724 0.000000
# 6 0.000000 0.000000 0.000000 0.000000 0.000000 0.025848
#
#
# Mechanical properties :
#
#
# Convention : Reuss Voigt Hill
#
# Bulk Modulus (GPa) = 36.95134 37.99700 37.47417
# Shear Modulus (GPa) = 0.30725 24.71911 12.51318
#
# Velocity S-wave (km/s) = 0.37161 3.33316 2.37150
# Velocity P-wave (km/s) = 4.09778 5.64720 4.93370
#
# Compressibility (1/GPa) = 0.02706262
#
# Stress axis : x y z
#
# Youngs Moduli (GPa) = 37.21104 103.86857 34.92589
#
# Poissons Ratio (x) = 0.17644 0.56012
# Poissons Ratio (y) = 0.06321 0.04538
# Poissons Ratio (z) = 0.59677 0.13495
#
# Static dielectric constant tensor:
#      x y z
#    x 1.897070 0.000000 0.000000 
#    y 0.000000 1.836090 0.000000 
#    z 0.000000 0.000000 1.802540 
# 
# From -- ./inp_files/19321.got.cif
#   From: 2010.05.17/outbox.cif.g08.bks.cpg/sg21_10_cif.got.tgz:19321.got - 2010.06.03 23:14:55.
