data_PCOD9325410
_publ_section_title
;
Structure prediction by ZEFSAII (Michael W. Deem and Ramdas Pophale) SiO2 
 PCOD9325410
Probable space group: C 2 2 2
;
_chemical_formula_sum "Si O2"
_cell_formula_units_Z 26
_cell_length_a 4.958606
_cell_length_b 17.210143
_cell_length_c 13.888372
_cell_angle_alpha 90.000000
_cell_angle_beta 90.000000
_cell_angle_gamma 90.000000
_cell_volume 1185.210311
_symmetry_space_group_name_H-M "C 2 2 2"
_symmetry_group_IT_number 21
_symmetry_cell_setting 'orthorhombic'
loop_
_space_group_symop_operation_xyz
x,y,z
-x,-y,z
x,-y,-z
-x,y,-z
1/2+x,1/2+y,z
1/2-x,1/2-y,z
1/2+x,1/2-y,-z
1/2-x,1/2+y,-z
loop_
_atom_site_type_symbol
_atom_site_label
_atom_site_fract_x
_atom_site_fract_y
_atom_site_fract_z
Si Si1 0.378284 0.626585 0.597103
Si Si2 0.000000 0.500000 0.500000
Si Si3 0.359300 0.161836 0.716519
Si Si4 0.255556 0.155310 0.936827
O O1 0.500000 0.668639 0.500000
O O2 0.203496 0.555171 0.558370
O O3 0.651627 0.610626 0.654649
O O4 0.159061 0.662961 0.671271
O O5 0.250000 0.250000 0.709418
O O6 0.317057 0.134964 0.826298
O O7 0.250000 0.250000 0.935975
O O8 0.500000 0.127196 0.000000
O O9 0.000000 0.130391 0.000000
#
# Coordination Sequence:
#
# PCOD9325410 Si02
#       4
#     8   2   8   8
#     4  12  24  42  62  85 121 162 209 259 295 352
#     4  12  26  48  62  80 116 156 238 250 290 348
#     4  11  23  38  60  96 131 159 197 240 316 375
#     4   9  17  32  55  84 124 164 192 230 284 367
#
# _framework density 21.937034000000001
#
# number of rings (size 3 to 8) (size 9 to 14) (size 15 to 20)
#    0.000    1.231    3.077    3.231    0.000    7.385 
#    2.769    0.000    0.000    0.000    0.000   16.154 
#    0.000    0.000    0.000    0.000    0.000    0.000 
#
# Total GULP energy -72445.401723 kJ/mol
# GULP energy per Si atom -5572.723209 kJ/mol
# Density = 2.188710 g / cm^3
# Si number density = 21.937034 Si / 1000 Ang^3
#
#
#
# Elastic Constant Matrix: (Units=GPa)
#
#
# Indices 1 2 3 4 5 6 
#
# 1 205.2538 5.1341 93.8200 0.0000 0.0000 0.0000
# 2 5.1341 28.4596 6.6965 0.0000 0.0000 0.0000
# 3 93.8200 6.6965 218.8306 0.0000 0.0000 0.0000
# 4 0.0000 0.0000 0.0000 48.6720 0.0000 0.0000
# 5 0.0000 0.0000 0.0000 0.0000 42.5901 0.0000
# 6 0.0000 0.0000 0.0000 0.0000 0.0000 37.6990
#
#
#
# Elastic Compliance Matrix: (Units=1/GPa)
#
#
# Indices 1 2 3 4 5 6 
#
# 1 0.006066 -0.000486 -0.002586 0.000000 0.000000 0.000000
# 2 -0.000486 0.035431 -0.000876 0.000000 0.000000 0.000000
# 3 -0.002586 -0.000876 0.005705 0.000000 0.000000 0.000000
# 4 0.000000 0.000000 0.000000 0.020546 0.000000 0.000000
# 5 0.000000 0.000000 0.000000 0.000000 0.023480 0.000000
# 6 0.000000 0.000000 0.000000 0.000000 0.000000 0.026526
#
#
# Mechanical properties :
#
#
# Convention : Reuss Voigt Hill
#
# Bulk Modulus (GPa) = 25.44059 73.76060 49.60059
# Shear Modulus (GPa) = 36.03557 48.91844 42.47700
#
# Velocity S-wave (km/s) = 4.05740 4.72736 4.40513
# Velocity P-wave (km/s) = 5.79416 7.96831 6.96657
#
# Compressibility (1/GPa) = 0.03930727
#
# Stress axis : x y z
#
# Youngs Moduli (GPa) = 164.84876 28.22361 175.27839
#
# Poissons Ratio (x) = 0.01371 0.45325
# Poissons Ratio (y) = 0.08010 0.15353
# Poissons Ratio (z) = 0.42628 0.02472
#
# Static dielectric constant tensor:
#      x y z
#    x 1.760460 0.000000 0.000000 
#    y 0.000000 1.861890 0.000000 
#    z 0.000000 0.000000 1.729040 
# 
# From -- ./inp_files/20327.got.cif
#   From: 2010.05.17/outbox.cif.g08.bks.cpg/sg21_11_cif.got.tgz:20327.got - 2010.06.03 23:14:55.
