data_PCOD9325108
_publ_section_title
;
Structure prediction by ZEFSAII (Michael W. Deem and Ramdas Pophale) SiO2 
 PCOD9325108
Probable space group: C 2 2 2
;
_chemical_formula_sum "Si O2"
_cell_formula_units_Z 20
_cell_length_a 25.938953
_cell_length_b 5.309621
_cell_length_c 5.685301
_cell_angle_alpha 90.000000
_cell_angle_beta 90.000000
_cell_angle_gamma 90.000000
_cell_volume 783.013820
_symmetry_space_group_name_H-M "C 2 2 2"
_symmetry_group_IT_number 21
_symmetry_cell_setting 'orthorhombic'
loop_
_space_group_symop_operation_xyz
x,y,z
-x,-y,z
x,-y,-z
-x,y,-z
1/2+x,1/2+y,z
1/2-x,1/2-y,z
1/2+x,1/2-y,-z
1/2-x,1/2+y,-z
loop_
_atom_site_type_symbol
_atom_site_label
_atom_site_fract_x
_atom_site_fract_y
_atom_site_fract_z
Si Si1 0.442026 0.750706 0.394859
Si Si2 0.692793 0.752460 0.335880
Si Si3 0.389683 0.000000 0.000000
O O1 0.419274 0.500000 0.500000
O O2 0.500000 0.751259 0.500000
O O3 0.417282 0.000000 0.500000
O O4 0.429653 0.804257 0.126307
O O5 0.687914 0.500000 0.500000
O O6 0.750000 0.750000 0.222558
O O7 0.649032 0.815534 0.143233
O O8 0.693256 0.000000 0.500000
#
# Coordination Sequence:
#
# PCOD9325108 Si02
#       3
#     8   8   4
#     4  10  25  49  73 108 151 193 252 316 371 445
#     4  10  25  48  72 108 154 196 252 315 369 447
#     4  12  26  47  82 110 150 210 250 301 392 450
#
# _framework density 25.542335000000001
#
# number of rings (size 3 to 8) (size 9 to 14) (size 15 to 20)
#    0.000    1.600    0.000    1.200    0.000   20.800 
#    0.000   20.000    0.000    0.000    0.000    0.000 
#    0.000    0.000    0.000    0.000    0.000    0.000 
#
# Total GULP energy -55740.782744 kJ/mol
# GULP energy per Si atom -5574.078274 kJ/mol
# Density = 2.548420 g / cm^3
# Si number density = 25.542335 Si / 1000 Ang^3
#
#
#
# Elastic Constant Matrix: (Units=GPa)
#
#
# Indices 1 2 3 4 5 6 
#
# 1 240.1598 24.9823 80.5372 0.0000 0.0000 0.0000
# 2 24.9823 259.9594 60.7489 0.0000 0.0000 0.0000
# 3 80.5372 60.7489 92.7177 0.0000 0.0000 0.0000
# 4 0.0000 0.0000 0.0000 43.8467 0.0000 0.0000
# 5 0.0000 0.0000 0.0000 0.0000 -44.5573 0.0000
# 6 0.0000 0.0000 0.0000 0.0000 0.0000 -5.9110
#
#
#
# Elastic Compliance Matrix: (Units=1/GPa)
#
#
# Indices 1 2 3 4 5 6 
#
# 1 0.005999 0.000757 -0.005707 0.000000 0.000000 0.000000
# 2 0.000757 0.004638 -0.003696 0.000000 0.000000 0.000000
# 3 -0.005707 -0.003696 0.018164 0.000000 0.000000 0.000000
# 4 0.000000 0.000000 0.000000 0.022807 0.000000 0.000000
# 5 0.000000 0.000000 0.000000 0.000000 -0.022443 0.000000
# 6 0.000000 0.000000 0.000000 0.000000 0.000000 -0.169177
#
#
# Mechanical properties :
#
#
# Convention : Reuss Voigt Hill
#
# Bulk Modulus (GPa) = 86.88916 102.81931 94.85423
# Shear Modulus (GPa) = -42.05809 27.11359 -7.47225
#
# Velocity S-wave (km/s) = -4.06224 3.26163 -1.71225
# Velocity P-wave (km/s) = 3.47695 7.38418 5.77128
#
# Compressibility (1/GPa) = 0.01150892
#
# Stress axis : x y z
#
# Youngs Moduli (GPa) = 166.69597 215.62041 55.05244
#
# Poissons Ratio (x) = -0.16325 0.31418
# Poissons Ratio (y) = -0.12621 0.20349
# Poissons Ratio (z) = 0.95132 0.79701
#
# Static dielectric constant tensor:
#      x y z
#    x 3.046110 0.000000 0.000000 
#    y 0.000000 2.286670 0.000000 
#    z 0.000000 0.000000 3.064230 
# 
# From -- ./inp_files/606.got.cif
#   From: 2010.05.17/outbox.cif.g08.bks.cpg/sg21_1_cif.got.tgz:606.got - 2010.06.03 23:14:55.
