data_PCOD9325320
_publ_section_title
;
Structure prediction by ZEFSAII (Michael W. Deem and Ramdas Pophale) SiO2 
 PCOD9325320
Probable space group: C 2 2 2
;
_chemical_formula_sum "Si O2"
_cell_formula_units_Z 48
_cell_length_a 17.829042
_cell_length_b 14.040272
_cell_length_c 9.417470
_cell_angle_alpha 90.000000
_cell_angle_beta 90.000000
_cell_angle_gamma 90.000000
_cell_volume 2357.424403
_symmetry_space_group_name_H-M "C 2 2 2"
_symmetry_group_IT_number 21
_symmetry_cell_setting 'orthorhombic'
loop_
_space_group_symop_operation_xyz
x,y,z
-x,-y,z
x,-y,-z
-x,y,-z
1/2+x,1/2+y,z
1/2-x,1/2-y,z
1/2+x,1/2-y,-z
1/2-x,1/2+y,-z
loop_
_atom_site_type_symbol
_atom_site_label
_atom_site_fract_x
_atom_site_fract_y
_atom_site_fract_z
Si Si1 0.155898 0.500000 0.500000
Si Si2 0.160043 0.500000 0.000000
Si Si3 0.733004 0.498656 0.745426
Si Si4 0.171537 0.194593 0.729541
Si Si5 0.944803 0.333889 0.123028
Si Si6 0.673285 0.690775 0.390555
Si Si7 0.052242 0.335975 0.370831
O O1 0.210042 0.462182 0.623760
O O2 0.105444 0.418009 0.433213
O O3 0.214355 0.465308 0.126267
O O4 0.108083 0.583865 0.060131
O O5 0.682290 0.587906 0.787585
O O6 0.687552 0.412258 0.676143
O O7 0.250000 0.250000 0.751508
O O8 0.106617 0.253269 0.806424
O O9 0.158175 0.187452 0.559833
O O10 0.998992 0.373069 0.246786
O O11 0.000000 0.298238 0.000000
O O12 0.750000 0.750000 0.371539
O O13 0.605515 0.750105 0.322212
O O14 0.000000 0.303297 0.500000
#
# Coordination Sequence:
#
# PCOD9325320 Si02
#       7
#     4   4   8   8   8   8   8
#     4  12  21  40  70 104 137 184 240 308 357 420
#     4  12  27  46  66 110 149 188 236 298 375 440
#     4  12  23  43  77 107 139 188 247 301 355 419
#     4  11  21  46  74 103 141 188 241 306 350 425
#     4  12  27  46  67 103 155 191 230 294 371 438
#     4  11  22  43  73 108 141 179 253 300 348 425
#     4  12  24  42  68 102 144 188 234 296 364 424
#
# _framework density 20.361204000000001
#
# number of rings (size 3 to 8) (size 9 to 14) (size 15 to 20)
#    0.000    0.333    6.667    3.500    0.000    2.667 
#    0.000    0.833    0.000    1.000    0.000    0.000 
#    0.000    0.000    0.000    0.000    0.000    0.000 
#
# Total GULP energy -134355.568419 kJ/mol
# GULP energy per Si atom -5598.148684 kJ/mol
# Density = 2.031486 g / cm^3
# Si number density = 20.361204 Si / 1000 Ang^3
#
#
#
# Elastic Constant Matrix: (Units=GPa)
#
#
# Indices 1 2 3 4 5 6 
#
# 1 92.8806 66.3931 46.6510 0.0000 0.0000 0.0000
# 2 66.3931 156.5612 40.4649 0.0000 0.0000 0.0000
# 3 46.6510 40.4649 102.9056 0.0000 0.0000 0.0000
# 4 0.0000 0.0000 0.0000 25.1467 0.0000 0.0000
# 5 0.0000 0.0000 0.0000 0.0000 42.1859 0.0000
# 6 0.0000 0.0000 0.0000 0.0000 0.0000 14.1081
#
#
#
# Elastic Compliance Matrix: (Units=1/GPa)
#
#
# Indices 1 2 3 4 5 6 
#
# 1 0.018077 -0.006176 -0.005767 0.000000 0.000000 0.000000
# 2 -0.006176 0.009220 -0.000826 0.000000 0.000000 0.000000
# 3 -0.005767 -0.000826 0.012657 0.000000 0.000000 0.000000
# 4 0.000000 0.000000 0.000000 0.039767 0.000000 0.000000
# 5 0.000000 0.000000 0.000000 0.000000 0.023705 0.000000
# 6 0.000000 0.000000 0.000000 0.000000 0.000000 0.070881
#
#
# Mechanical properties :
#
#
# Convention : Reuss Voigt Hill
#
# Bulk Modulus (GPa) = 69.36057 73.26283 71.31170
# Shear Modulus (GPa) = 24.43214 29.54403 26.98809
#
# Velocity S-wave (km/s) = 3.46777 3.81333 3.64464
# Velocity P-wave (km/s) = 7.08328 7.44636 7.26709
#
# Compressibility (1/GPa) = 0.01441741
#
# Stress axis : x y z
#
# Youngs Moduli (GPa) = 55.31744 108.46440 79.00989
#
# Poissons Ratio (x) = 0.66984 0.45563
# Poissons Ratio (y) = 0.34162 0.06524
# Poissons Ratio (z) = 0.31900 0.08956
#
# Static dielectric constant tensor:
#      x y z
#    x 1.728850 0.000000 0.000000 
#    y 0.000000 1.730950 0.000000 
#    z 0.000000 0.000000 1.758060 
# 
# From -- ./inp_files/16460.got.cif
#   From: 2010.05.17/outbox.cif.g08.bks.cpg/sg21_9_cif.got.tgz:16460.got - 2010.06.03 23:14:55.
