data_PCOD9325216
_publ_section_title
;
Structure prediction by ZEFSAII (Michael W. Deem and Ramdas Pophale) SiO2 
 PCOD9325216
Probable space group: C 2 2 2
;
_chemical_formula_sum "Si O2"
_cell_formula_units_Z 40
_cell_length_a 18.002410
_cell_length_b 15.788216
_cell_length_c 6.783058
_cell_angle_alpha 90.000000
_cell_angle_beta 90.000000
_cell_angle_gamma 90.000000
_cell_volume 1927.921020
_symmetry_space_group_name_H-M "C 2 2 2"
_symmetry_group_IT_number 21
_symmetry_cell_setting 'orthorhombic'
loop_
_space_group_symop_operation_xyz
x,y,z
-x,-y,z
x,-y,-z
-x,y,-z
1/2+x,1/2+y,z
1/2-x,1/2-y,z
1/2+x,1/2-y,-z
1/2-x,1/2+y,-z
loop_
_atom_site_type_symbol
_atom_site_label
_atom_site_fract_x
_atom_site_fract_y
_atom_site_fract_z
Si Si1 0.690837 0.678065 0.589193
Si Si2 0.600032 0.748199 0.239005
Si Si3 0.865776 0.905520 0.977332
Si Si4 0.280689 0.891833 0.767750
Si Si5 0.000000 0.640543 0.000000
Si Si6 0.117532 0.500000 0.000000
O O1 0.750000 0.750000 0.661058
O O2 0.624995 0.718993 0.455835
O O3 0.651184 0.624764 0.757509
O O4 0.741344 0.621095 0.442128
O O5 0.671506 0.807315 0.184969
O O6 0.529148 0.804817 0.184613
O O7 0.592202 0.666603 0.099834
O O8 0.785373 0.904542 0.080406
O O9 0.897047 0.000000 0.000000
O O10 0.334903 0.969625 0.812596
O O11 0.933377 0.578739 0.939541
#
# Coordination Sequence:
#
# PCOD9325216 Si02
#       6
#     8   8   8   8   4   4
#     4   9  18  33  55  81 115 154 187 235 292 353
#     4   9  19  34  53  78 110 156 196 233 283 344
#     4  11  20  32  53  82 113 148 188 245 296 337
#     4   9  17  32  52  82 116 144 189 232 300 354
#     4   9  18  34  59  78 118 164 199 236 272 337
#     4   9  16  32  56  90 116 155 192 236 292 335
#
# _framework density 20.747738999999999
#
# number of rings (size 3 to 8) (size 9 to 14) (size 15 to 20)
#    0.000    2.600    1.000    3.000    0.000    3.200 
#    0.000    1.500    0.000    4.800    0.000   19.600 
#    0.000    0.000    0.000    0.000    0.000    0.000 
#
# Total GULP energy -111480.205384 kJ/mol
# GULP energy per Si atom -5574.010269 kJ/mol
# Density = 2.070052 g / cm^3
# Si number density = 20.747739 Si / 1000 Ang^3
#
#
#
# Elastic Constant Matrix: (Units=GPa)
#
#
# Indices 1 2 3 4 5 6 
#
# 1 38.7262 18.3258 11.4957 0.0000 0.0000 0.0000
# 2 18.3258 119.2195 47.9379 0.0000 0.0000 0.0000
# 3 11.4957 47.9379 59.9457 0.0000 0.0000 0.0000
# 4 0.0000 0.0000 0.0000 10.7615 0.0000 0.0000
# 5 0.0000 0.0000 0.0000 0.0000 -4.9257 0.0000
# 6 0.0000 0.0000 0.0000 0.0000 0.0000 4.6424
#
#
#
# Elastic Compliance Matrix: (Units=1/GPa)
#
#
# Indices 1 2 3 4 5 6 
#
# 1 0.028177 -0.003182 -0.002859 0.000000 0.000000 0.000000
# 2 -0.003182 0.012723 -0.009564 0.000000 0.000000 0.000000
# 3 -0.002859 -0.009564 0.024878 0.000000 0.000000 0.000000
# 4 0.000000 0.000000 0.000000 0.092924 0.000000 0.000000
# 5 0.000000 0.000000 0.000000 0.000000 -0.203015 0.000000
# 6 0.000000 0.000000 0.000000 0.000000 0.000000 0.215406
#
#
# Mechanical properties :
#
#
# Convention : Reuss Voigt Hill
#
# Bulk Modulus (GPa) = 28.92837 41.49002 35.20919
# Shear Modulus (GPa) = 23.38360 11.43776 17.41068
#
# Velocity S-wave (km/s) = 3.36079 2.35048 2.89997
# Velocity P-wave (km/s) = 5.38823 5.23518 5.31226
#
# Compressibility (1/GPa) = 0.03456814
#
# Stress axis : x y z
#
# Youngs Moduli (GPa) = 35.49046 78.60033 40.19572
#
# Poissons Ratio (x) = 0.25007 0.11493
# Poissons Ratio (y) = 0.11291 0.38443
# Poissons Ratio (z) = 0.10147 0.75173
#
# Static dielectric constant tensor:
#      x y z
#    x 1.761510 0.000000 0.000000 
#    y 0.000000 1.818650 0.000000 
#    z 0.000000 0.000000 1.728540 
# 
# From -- ./inp_files/5831.got.cif
#   From: 2010.05.17/outbox.cif.g08.bks.cpg/sg21_3_cif.got.tgz:5831.got - 2010.06.03 23:14:55.
