data_PCOD9325487
_publ_section_title
;
Structure prediction by ZEFSAII (Michael W. Deem and Ramdas Pophale) SiO2 
 PCOD9325487
Probable space group: C 2 2 2
;
_chemical_formula_sum "Si O2"
_cell_formula_units_Z 34
_cell_length_a 5.224221
_cell_length_b 19.889787
_cell_length_c 14.001698
_cell_angle_alpha 90.000000
_cell_angle_beta 90.000000
_cell_angle_gamma 90.000000
_cell_volume 1454.897438
_symmetry_space_group_name_H-M "C 2 2 2"
_symmetry_group_IT_number 21
_symmetry_cell_setting 'orthorhombic'
loop_
_space_group_symop_operation_xyz
x,y,z
-x,-y,z
x,-y,-z
-x,y,-z
1/2+x,1/2+y,z
1/2-x,1/2-y,z
1/2+x,1/2-y,-z
1/2-x,1/2+y,-z
loop_
_atom_site_type_symbol
_atom_site_label
_atom_site_fract_x
_atom_site_fract_y
_atom_site_fract_z
Si Si1 0.734123 0.410025 0.159194
Si Si2 0.750458 0.460053 0.367195
Si Si3 0.000000 0.000000 0.000000
Si Si4 0.224009 0.327040 0.204712
Si Si5 0.415339 0.812834 0.393272
O O1 0.760074 0.457001 0.251938
O O2 0.673594 0.453523 0.067106
O O3 0.487637 0.364272 0.183361
O O4 0.989017 0.365303 0.154260
O O5 0.500000 0.500000 0.395560
O O6 0.760486 0.382626 0.399181
O O7 0.000000 0.500000 0.398785
O O8 0.250000 0.250000 0.174596
O O9 0.142352 0.326692 0.317347
O O10 0.500000 0.795473 0.500000
O O11 0.250000 0.750000 0.355248
#
# Coordination Sequence:
#
# PCOD9325487 Si02
#       5
#     8   8   2   8   8
#     4  11  25  43  73 105 137 182 234 290 361 430
#     4  11  23  45  70 101 143 187 232 289 360 423
#     4  12  28  46  76 110 134 186 240 308 344 450
#     4  11  23  46  72 101 142 189 229 286 361 425
#     4  11  25  43  71 107 145 193 249 296 342 424
#
# _framework density 23.369346
#
# number of rings (size 3 to 8) (size 9 to 14) (size 15 to 20)
#    0.000    0.941    1.176    7.059    0.000    4.235 
#    0.000    5.882    0.000    1.412    0.000    0.000 
#    0.000    0.000    0.000    0.000    0.000    0.000 
#
# Total GULP energy -95338.472505 kJ/mol
# GULP energy per Si atom -5608.145441 kJ/mol
# Density = 2.331616 g / cm^3
# Si number density = 23.369346 Si / 1000 Ang^3
#
#
#
# Elastic Constant Matrix: (Units=GPa)
#
#
# Indices 1 2 3 4 5 6 
#
# 1 168.5720 85.4363 7.8168 0.0000 0.0000 0.0000
# 2 85.4363 157.0265 29.0429 0.0000 0.0000 0.0000
# 3 7.8168 29.0429 108.8506 0.0000 0.0000 0.0000
# 4 0.0000 0.0000 0.0000 21.2551 0.0000 0.0000
# 5 0.0000 0.0000 0.0000 0.0000 28.9693 0.0000
# 6 0.0000 0.0000 0.0000 0.0000 0.0000 49.0882
#
#
#
# Elastic Compliance Matrix: (Units=1/GPa)
#
#
# Indices 1 2 3 4 5 6 
#
# 1 0.008232 -0.004597 0.000635 0.000000 0.000000 0.000000
# 2 -0.004597 0.009266 -0.002142 0.000000 0.000000 0.000000
# 3 0.000635 -0.002142 0.009713 0.000000 0.000000 0.000000
# 4 0.000000 0.000000 0.000000 0.047047 0.000000 0.000000
# 5 0.000000 0.000000 0.000000 0.000000 0.034519 0.000000
# 6 0.000000 0.000000 0.000000 0.000000 0.000000 0.020371
#
#
# Mechanical properties :
#
#
# Convention : Reuss Voigt Hill
#
# Bulk Modulus (GPa) = 66.64970 75.44905 71.04938
# Shear Modulus (GPa) = 34.16296 40.67272 37.41784
#
# Velocity S-wave (km/s) = 3.82759 4.17637 4.00578
# Velocity P-wave (km/s) = 6.93657 7.45732 7.20165
#
# Compressibility (1/GPa) = 0.01500382
#
# Stress axis : x y z
#
# Youngs Moduli (GPa) = 121.47092 107.92687 102.95670
#
# Poissons Ratio (x) = 0.49610 -0.06540
# Poissons Ratio (y) = 0.55836 0.22054
# Poissons Ratio (z) = -0.07717 0.23119
#
# Static dielectric constant tensor:
#      x y z
#    x 1.859200 0.000000 0.000000 
#    y 0.000000 1.856560 0.000000 
#    z 0.000000 0.000000 1.869980 
# 
# From -- ./inp_files/28732.got.cif
#   From: 2010.05.17/outbox.cif.g08.bks.cpg/sg21_15_cif.got.tgz:28732.got - 2010.06.03 23:14:55.
