data_PCOD9325158
_publ_section_title
;
Structure prediction by ZEFSAII (Michael W. Deem and Ramdas Pophale) SiO2 
 PCOD9325158
Probable space group: C 2 2 2
;
_chemical_formula_sum "Si O2"
_cell_formula_units_Z 18
_cell_length_a 26.287040
_cell_length_b 5.017051
_cell_length_c 5.579750
_cell_angle_alpha 90.000000
_cell_angle_beta 90.000000
_cell_angle_gamma 90.000000
_cell_volume 735.876515
_symmetry_space_group_name_H-M "C 2 2 2"
_symmetry_group_IT_number 21
_symmetry_cell_setting 'orthorhombic'
loop_
_space_group_symop_operation_xyz
x,y,z
-x,-y,z
x,-y,-z
-x,y,-z
1/2+x,1/2+y,z
1/2-x,1/2-y,z
1/2+x,1/2-y,-z
1/2-x,1/2+y,-z
loop_
_atom_site_type_symbol
_atom_site_label
_atom_site_fract_x
_atom_site_fract_y
_atom_site_fract_z
Si Si1 0.000000 0.500000 0.500000
Si Si2 0.250000 0.750000 0.159647
Si Si3 0.584829 0.751900 0.175832
Si Si4 0.166472 0.500000 0.500000
O O1 0.034743 0.311427 0.333376
O O2 0.203186 0.348142 0.682018
O O3 0.266199 0.500000 0.000000
O O4 0.631218 0.787655 0.361089
O O5 0.583162 0.500000 0.000000
O O6 0.590399 0.000000 0.000000
#
# Coordination Sequence:
#
# PCOD9325158 Si02
#       4
#     2   4   8   4
#     4  10  26  50  80 112 152 198 250 308 380 454
#     4  12  28  48  76 110 150 202 256 310 372 444
#     4  11  27  49  77 112 152 197 249 311 377 449
#     4  11  28  49  76 112 154 201 254 311 374 446
#
# _framework density 24.460623999999999
#
# number of rings (size 3 to 8) (size 9 to 14) (size 15 to 20)
#    0.000    0.889    0.000    3.333    0.000   30.222 
#    0.000    6.667    0.000    0.000    0.000    0.000 
#    0.000    0.000    0.000    0.000    0.000    0.000 
#
# Total GULP energy -50539.732200 kJ/mol
# GULP energy per Si atom -5615.525800 kJ/mol
# Density = 2.440495 g / cm^3
# Si number density = 24.460624 Si / 1000 Ang^3
#
#
#
# Elastic Constant Matrix: (Units=GPa)
#
#
# Indices 1 2 3 4 5 6 
#
# 1 196.3096 83.1562 113.9630 0.0000 0.0000 0.0000
# 2 83.1562 227.9004 118.6473 0.0000 0.0000 0.0000
# 3 113.9630 118.6473 189.7545 0.0000 0.0000 0.0000
# 4 0.0000 0.0000 0.0000 69.8566 0.0000 0.0000
# 5 0.0000 0.0000 0.0000 0.0000 -71.0721 0.0000
# 6 0.0000 0.0000 0.0000 0.0000 0.0000 11.0927
#
#
#
# Elastic Compliance Matrix: (Units=1/GPa)
#
#
# Indices 1 2 3 4 5 6 
#
# 1 0.007877 -0.000610 -0.004350 0.000000 0.000000 0.000000
# 2 -0.000610 0.006553 -0.003731 0.000000 0.000000 0.000000
# 3 -0.004350 -0.003731 0.010215 0.000000 0.000000 0.000000
# 4 0.000000 0.000000 0.000000 0.014315 0.000000 0.000000
# 5 0.000000 0.000000 0.000000 0.000000 -0.014070 0.000000
# 6 0.000000 0.000000 0.000000 0.000000 0.000000 0.090149
#
#
# Mechanical properties :
#
#
# Convention : Reuss Voigt Hill
#
# Bulk Modulus (GPa) = 137.65889 138.38860 138.02375
# Shear Modulus (GPa) = 37.08044 21.85532 29.46788
#
# Velocity S-wave (km/s) = 3.89771 2.99237 3.47465
# Velocity P-wave (km/s) = 8.75535 8.28480 8.52332
#
# Compressibility (1/GPa) = 0.00726433
#
# Stress axis : x y z
#
# Youngs Moduli (GPa) = 126.94453 152.60689 97.89293
#
# Poissons Ratio (x) = 0.09306 0.42581
# Poissons Ratio (y) = 0.07741 0.36524
# Poissons Ratio (z) = 0.55218 0.56938
#
# Static dielectric constant tensor:
#      x y z
#    x 1.953750 0.000000 0.000000 
#    y 0.000000 1.906540 0.000000 
#    z 0.000000 0.000000 1.832820 
# 
# From -- ./inp_files/6997.got.cif
#   From: 2010.05.17/outbox.cif.g08.bks.cpg/sg21_4_cif.got.tgz:6997.got - 2010.06.03 23:14:55.
