data_PCOD9325249
_publ_section_title
;
Structure prediction by ZEFSAII (Michael W. Deem and Ramdas Pophale) SiO2 
 PCOD9325249
Probable space group: C 2 2 2
;
_chemical_formula_sum "Si O2"
_cell_formula_units_Z 38
_cell_length_a 9.384552
_cell_length_b 11.673581
_cell_length_c 16.793322
_cell_angle_alpha 90.000000
_cell_angle_beta 90.000000
_cell_angle_gamma 90.000000
_cell_volume 1839.730725
_symmetry_space_group_name_H-M "C 2 2 2"
_symmetry_group_IT_number 21
_symmetry_cell_setting 'orthorhombic'
loop_
_space_group_symop_operation_xyz
x,y,z
-x,-y,z
x,-y,-z
-x,y,-z
1/2+x,1/2+y,z
1/2-x,1/2-y,z
1/2+x,1/2-y,-z
1/2-x,1/2+y,-z
loop_
_atom_site_type_symbol
_atom_site_label
_atom_site_fract_x
_atom_site_fract_y
_atom_site_fract_z
Si Si1 0.148922 0.860522 0.795210
Si Si2 0.500000 0.500000 0.500000
Si Si3 0.670319 0.023173 0.091728
Si Si4 0.000000 0.500000 0.327721
Si Si5 0.387540 0.204569 0.785611
Si Si6 0.780497 0.113852 0.618638
O O1 0.250000 0.750000 0.796500
O O2 0.156598 0.909972 0.706663
O O3 0.993610 0.807295 0.807632
O O4 0.221823 0.945949 0.856915
O O5 0.395136 0.575348 0.554416
O O6 0.672125 0.145473 0.134441
O O7 0.500000 0.000000 0.098231
O O8 0.706735 0.000000 0.000000
O O9 0.038136 0.607119 0.269123
O O10 0.133228 0.457790 0.380185
O O11 0.250000 0.250000 0.739255
O O12 0.750000 0.250000 0.612212
#
# Coordination Sequence:
#
# PCOD9325249 Si02
#       6
#     8   2   8   4   8   8
#     4  11  20  43  73  96 135 186 232 282 337 414
#     4  12  32  46  72 114 138 170 224 284 352 412
#     4  11  22  41  65 101 146 181 231 296 346 398
#     4  12  22  45  73  98 134 180 228 280 339 413
#     4  12  24  41  68 105 129 185 242 280 342 407
#     4  11  25  47  73 102 140 180 224 280 343 414
#
# _framework density 20.655197000000001
#
# number of rings (size 3 to 8) (size 9 to 14) (size 15 to 20)
#    0.000    0.632    9.474    0.000    2.947    3.789 
#    0.000    1.053    0.000    0.000    0.000    0.000 
#    0.000    0.000    0.000    0.000    0.000    0.000 
#
# Total GULP energy -106060.275916 kJ/mol
# GULP energy per Si atom -5582.119785 kJ/mol
# Density = 2.060819 g / cm^3
# Si number density = 20.655197 Si / 1000 Ang^3
#
#
#
# Elastic Constant Matrix: (Units=GPa)
#
#
# Indices 1 2 3 4 5 6 
#
# 1 164.3378 82.3368 80.3784 0.0000 0.0000 0.0000
# 2 82.3368 91.6127 60.1779 0.0000 0.0000 0.0000
# 3 80.3784 60.1779 140.6042 0.0000 0.0000 0.0000
# 4 0.0000 0.0000 0.0000 15.1160 0.0000 0.0000
# 5 0.0000 0.0000 0.0000 0.0000 10.8106 0.0000
# 6 0.0000 0.0000 0.0000 0.0000 0.0000 52.5070
#
#
#
# Elastic Compliance Matrix: (Units=1/GPa)
#
#
# Indices 1 2 3 4 5 6 
#
# 1 0.011976 -0.008717 -0.003116 0.000000 0.000000 0.000000
# 2 -0.008717 0.021529 -0.004231 0.000000 0.000000 0.000000
# 3 -0.003116 -0.004231 0.010704 0.000000 0.000000 0.000000
# 4 0.000000 0.000000 0.000000 0.066155 0.000000 0.000000
# 5 0.000000 0.000000 0.000000 0.000000 0.092502 0.000000
# 6 0.000000 0.000000 0.000000 0.000000 0.000000 0.019045
#
#
# Mechanical properties :
#
#
# Convention : Reuss Voigt Hill
#
# Bulk Modulus (GPa) = 82.76723 93.59344 88.18033
# Shear Modulus (GPa) = 19.37478 27.26415 23.31946
#
# Velocity S-wave (km/s) = 3.06602 3.63707 3.36369
# Velocity P-wave (km/s) = 7.25891 7.94030 7.60724
#
# Compressibility (1/GPa) = 0.01208208
#
# Stress axis : x y z
#
# Youngs Moduli (GPa) = 83.49770 46.44796 93.42190
#
# Poissons Ratio (x) = 0.40490 0.29106
# Poissons Ratio (y) = 0.72787 0.39528
# Poissons Ratio (z) = 0.26014 0.19653
#
# Static dielectric constant tensor:
#      x y z
#    x 1.687680 0.000000 0.000000 
#    y 0.000000 1.855110 0.000000 
#    z 0.000000 0.000000 1.728320 
# 
# From -- ./inp_files/35492.got.cif
#   From: 2010.05.17/outbox.cif.g08.bks.cpg/sg21_18_cif.got.tgz:35492.got - 2010.06.03 23:14:55.
