data_PCOD9325664
_publ_section_title
;
Structure prediction by ZEFSAII (Michael W. Deem and Ramdas Pophale) SiO2 
 PCOD9325664
Probable space group: C 2 2 2
;
_chemical_formula_sum "Si O2"
_cell_formula_units_Z 40
_cell_length_a 6.824016
_cell_length_b 29.999445
_cell_length_c 8.327517
_cell_angle_alpha 90.000000
_cell_angle_beta 90.000000
_cell_angle_gamma 90.000000
_cell_volume 1704.781738
_symmetry_space_group_name_H-M "C 2 2 2"
_symmetry_group_IT_number 21
_symmetry_cell_setting 'orthorhombic'
loop_
_space_group_symop_operation_xyz
x,y,z
-x,-y,z
x,-y,-z
-x,y,-z
1/2+x,1/2+y,z
1/2-x,1/2-y,z
1/2+x,1/2-y,-z
1/2-x,1/2+y,-z
loop_
_atom_site_type_symbol
_atom_site_label
_atom_site_fract_x
_atom_site_fract_y
_atom_site_fract_z
Si Si1 0.500000 0.206315 0.000000
Si Si2 0.624819 0.086000 0.351094
Si Si3 0.267817 0.865818 0.833623
Si Si4 0.239008 0.671254 0.503101
Si Si5 0.750000 0.250000 0.270691
Si Si6 0.766381 0.549484 0.964339
O O1 0.676532 0.172389 0.959659
O O2 0.425909 0.234352 0.847632
O O3 0.500000 0.065627 0.500000
O O4 0.465669 0.113626 0.246396
O O5 0.765624 0.123248 0.422107
O O6 0.742337 0.056499 0.226736
O O7 0.185352 0.837768 0.682996
O O8 0.186555 0.909402 0.926581
O O9 0.188035 0.789463 0.390676
O O10 0.000000 0.678687 0.500000
O O11 0.697286 0.500000 0.000000
O O12 0.000000 0.549269 0.000000
#
# Coordination Sequence:
#
# PCOD9325664 Si02
#       6
#     4   8   8   8   4   8
#     4  12  20  34  53  76 102 140 187 236 278 320
#     4   8  13  25  42  57  91 129 165 201 262 319
#     4   9  15  30  45  64 100 137 171 205 286 323
#     4   9  17  32  48  65  96 140 178 225 266 324
#     4  12  22  34  54  78 100 136 206 236 272 336
#     4   9  14  22  39  64  93 133 178 205 242 333
#
# _framework density 23.463415000000001
#
# number of rings (size 3 to 8) (size 9 to 14) (size 15 to 20)
#    0.000    3.000    7.000    0.000    0.000    0.800 
#    0.000   18.000    0.000    0.000    0.000    0.000 
#    0.000    0.000    0.000   22.500   40.000    1.200 
#
# Total GULP energy -111401.599599 kJ/mol
# GULP energy per Si atom -5570.079980 kJ/mol
# Density = 2.341001 g / cm^3
# Si number density = 23.463415 Si / 1000 Ang^3
#
#
#
# Elastic Constant Matrix: (Units=GPa)
#
#
# Indices 1 2 3 4 5 6 
#
# 1 72.5919 22.0438 15.9098 0.0000 0.0000 0.0000
# 2 22.0438 167.2847 121.8445 0.0000 0.0000 0.0000
# 3 15.9098 121.8445 194.3490 0.0000 0.0000 0.0000
# 4 0.0000 0.0000 0.0000 36.4328 0.0000 0.0000
# 5 0.0000 0.0000 0.0000 0.0000 3.6242 0.0000
# 6 0.0000 0.0000 0.0000 0.0000 0.0000 -21.0373
#
#
#
# Elastic Compliance Matrix: (Units=1/GPa)
#
#
# Indices 1 2 3 4 5 6 
#
# 1 0.014350 -0.001905 0.000020 0.000000 0.000000 0.000000
# 2 -0.001905 0.011255 -0.006900 0.000000 0.000000 0.000000
# 3 0.000020 -0.006900 0.009470 0.000000 0.000000 0.000000
# 4 0.000000 0.000000 0.000000 0.027448 0.000000 0.000000
# 5 0.000000 0.000000 0.000000 0.000000 0.275920 0.000000
# 6 0.000000 0.000000 0.000000 0.000000 0.000000 -0.047535
#
#
# Mechanical properties :
#
#
# Convention : Reuss Voigt Hill
#
# Bulk Modulus (GPa) = 57.13276 83.75798 70.44537
# Shear Modulus (GPa) = 15.90773 22.09911 19.00342
#
# Velocity S-wave (km/s) = 2.60663 3.07229 2.84899
# Velocity P-wave (km/s) = 5.78463 6.95414 6.39617
#
# Compressibility (1/GPa) = 0.01750309
#
# Stress axis : x y z
#
# Youngs Moduli (GPa) = 69.68692 88.85253 105.60125
#
# Poissons Ratio (x) = 0.16930 -0.00210
# Poissons Ratio (y) = 0.13278 0.72864
# Poissons Ratio (z) = -0.00138 0.61308
#
# Static dielectric constant tensor:
#      x y z
#    x 2.013900 0.000000 0.000000 
#    y 0.000000 1.893070 0.000000 
#    z 0.000000 0.000000 1.977630 
# 
# From -- ./inp_files/13402.got.cif
#   From: 2010.05.17/outbox.cif.g08.bks.cpg/sg21_7_cif.got.tgz:13402.got - 2010.06.03 23:14:55.
