data_PCOD9325253
_publ_section_title
;
Structure prediction by ZEFSAII (Michael W. Deem and Ramdas Pophale) SiO2 
 PCOD9325253
Probable space group: C 2 2 2
;
_chemical_formula_sum "Si O2"
_cell_formula_units_Z 36
_cell_length_a 11.980100
_cell_length_b 15.215111
_cell_length_c 9.253467
_cell_angle_alpha 90.000000
_cell_angle_beta 90.000000
_cell_angle_gamma 90.000000
_cell_volume 1686.708559
_symmetry_space_group_name_H-M "C 2 2 2"
_symmetry_group_IT_number 21
_symmetry_cell_setting 'orthorhombic'
loop_
_space_group_symop_operation_xyz
x,y,z
-x,-y,z
x,-y,-z
-x,y,-z
1/2+x,1/2+y,z
1/2-x,1/2-y,z
1/2+x,1/2-y,-z
1/2-x,1/2+y,-z
loop_
_atom_site_type_symbol
_atom_site_label
_atom_site_fract_x
_atom_site_fract_y
_atom_site_fract_z
Si Si1 0.850314 0.190320 0.023395
Si Si2 0.125925 0.710585 0.744696
Si Si3 0.000000 0.186922 0.500000
Si Si4 0.791898 0.543500 0.144492
Si Si5 0.898819 0.069661 0.277182
O O1 0.750000 0.250000 0.089351
O O2 0.914723 0.139507 0.147672
O O3 0.903177 0.254784 0.905198
O O4 0.796306 0.112047 0.927398
O O5 0.250000 0.750000 0.715752
O O6 0.130756 0.605501 0.758463
O O7 0.048801 0.752062 0.624465
O O8 0.091351 0.122583 0.573362
O O9 0.718269 0.477020 0.240075
O O10 0.843950 0.500000 0.000000
O O11 0.000000 0.000000 0.273758
#
# Coordination Sequence:
#
# PCOD9325253 Si02
#       5
#     8   8   4   8   8
#     4   8  17  34  55  80 109 148 193 240 290 335
#     4   9  19  37  55  83 122 154 188 239 293 344
#     4  12  25  34  52  92 127 158 188 224 291 364
#     4   8  16  33  59  83 107 148 197 245 287 326
#     4  11  21  33  54  89 119 145 191 244 290 338
#
# _framework density 21.343343999999998
#
# number of rings (size 3 to 8) (size 9 to 14) (size 15 to 20)
#    0.000    3.111    0.000    3.000    0.000   11.111 
#    0.000    0.000    0.000    0.000    0.000   90.222 
#    0.000    0.000    0.000    0.000    0.000    0.000 
#
# Total GULP energy -100366.621261 kJ/mol
# GULP energy per Si atom -5575.923403 kJ/mol
# Density = 2.129477 g / cm^3
# Si number density = 21.343344 Si / 1000 Ang^3
#
#
#
# Elastic Constant Matrix: (Units=GPa)
#
#
# Indices 1 2 3 4 5 6 
#
# 1 30.0371 37.6008 24.1221 0.0000 0.0000 0.0000
# 2 37.6008 121.2071 58.8479 0.0000 0.0000 0.0000
# 3 24.1221 58.8479 104.4896 0.0000 0.0000 0.0000
# 4 0.0000 0.0000 0.0000 30.8403 0.0000 0.0000
# 5 0.0000 0.0000 0.0000 0.0000 22.3373 0.0000
# 6 0.0000 0.0000 0.0000 0.0000 0.0000 38.1767
#
#
#
# Elastic Compliance Matrix: (Units=1/GPa)
#
#
# Indices 1 2 3 4 5 6 
#
# 1 0.055806 -0.015218 -0.004312 0.000000 0.000000 0.000000
# 2 -0.015218 0.015505 -0.005219 0.000000 0.000000 0.000000
# 3 -0.004312 -0.005219 0.013505 0.000000 0.000000 0.000000
# 4 0.000000 0.000000 0.000000 0.032425 0.000000 0.000000
# 5 0.000000 0.000000 0.000000 0.000000 0.044768 0.000000
# 6 0.000000 0.000000 0.000000 0.000000 0.000000 0.026194
#
#
# Mechanical properties :
#
#
# Convention : Reuss Voigt Hill
#
# Bulk Modulus (GPa) = 28.31524 55.20840 41.76182
# Shear Modulus (GPa) = 20.04202 27.28172 23.66187
#
# Velocity S-wave (km/s) = 3.06768 3.57911 3.33322
# Velocity P-wave (km/s) = 5.08359 6.55767 5.86711
#
# Compressibility (1/GPa) = 0.03531667
#
# Stress axis : x y z
#
# Youngs Moduli (GPa) = 17.91931 64.49348 74.04499
#
# Poissons Ratio (x) = 0.98149 0.31930
# Poissons Ratio (y) = 0.27270 0.38646
# Poissons Ratio (z) = 0.07727 0.33661
#
# Static dielectric constant tensor:
#      x y z
#    x 1.900320 0.000000 0.000000 
#    y 0.000000 1.811850 0.000000 
#    z 0.000000 0.000000 1.768760 
# 
# From -- ./inp_files/14375.got.cif
#   From: 2010.05.17/outbox.cif.g08.bks.cpg/sg21_8_cif.got.tgz:14375.got - 2010.06.03 23:14:55.
