data_PCOD9325371
_publ_section_title
;
Structure prediction by ZEFSAII (Michael W. Deem and Ramdas Pophale) SiO2 
 PCOD9325371
Probable space group: C 2 2 2
;
_chemical_formula_sum "Si O2"
_cell_formula_units_Z 38
_cell_length_a 16.841682
_cell_length_b 8.412879
_cell_length_c 13.046950
_cell_angle_alpha 90.000000
_cell_angle_beta 90.000000
_cell_angle_gamma 90.000000
_cell_volume 1848.583633
_symmetry_space_group_name_H-M "C 2 2 2"
_symmetry_group_IT_number 21
_symmetry_cell_setting 'orthorhombic'
loop_
_space_group_symop_operation_xyz
x,y,z
-x,-y,z
x,-y,-z
-x,y,-z
1/2+x,1/2+y,z
1/2-x,1/2-y,z
1/2+x,1/2-y,-z
1/2-x,1/2+y,-z
loop_
_atom_site_type_symbol
_atom_site_label
_atom_site_fract_x
_atom_site_fract_y
_atom_site_fract_z
Si Si1 0.610486 0.706681 0.148772
Si Si2 0.884306 0.324169 0.451356
Si Si3 0.275954 0.972323 0.878307
Si Si4 0.250000 0.250000 0.713519
Si Si5 0.500000 0.500000 0.000000
Si Si6 0.962207 0.174179 0.629244
O O1 0.638537 0.886763 0.130383
O O2 0.696290 0.623826 0.149317
O O3 0.555789 0.615658 0.067239
O O4 0.568359 0.691286 0.256958
O O5 0.869521 0.500000 0.500000
O O6 0.823015 0.259912 0.366898
O O7 0.891822 0.206979 0.548975
O O8 0.970153 0.304008 0.396977
O O9 0.269887 0.111136 0.794891
O O10 0.266800 0.000000 0.000000
O O11 0.000000 0.000000 0.616146
#
# Coordination Sequence:
#
# PCOD9325371 Si02
#       6
#     8   8   8   4   2   8
#     4  11  24  43  72 103 140 191 249 304 378 447
#     4  11  25  42  65  99 143 186 239 303 370 439
#     4  11  25  45  69 103 145 189 242 315 381 439
#     4  12  26  44  72  98 144 196 246 308 370 470
#     4  12  24  44  78 106 144 198 266 316 366 478
#     4  11  22  41  67  99 137 184 237 302 363 439
#
# _framework density 20.556277999999999
#
# number of rings (size 3 to 8) (size 9 to 14) (size 15 to 20)
#    0.000    0.842    2.105    6.316    0.000    5.053 
#    0.000    2.632    0.000    0.000    0.000    0.000 
#    0.000    0.000    0.000    0.000    0.000    0.000 
#
# Total GULP energy -105898.562725 kJ/mol
# GULP energy per Si atom -5573.608564 kJ/mol
# Density = 2.050949 g / cm^3
# Si number density = 20.556278 Si / 1000 Ang^3
#
#
#
# Elastic Constant Matrix: (Units=GPa)
#
#
# Indices 1 2 3 4 5 6 
#
# 1 103.3687 50.6070 79.7245 0.0000 0.0000 0.0000
# 2 50.6070 96.5991 58.3456 0.0000 0.0000 0.0000
# 3 79.7245 58.3456 199.1317 0.0000 0.0000 0.0000
# 4 0.0000 0.0000 0.0000 39.1252 0.0000 0.0000
# 5 0.0000 0.0000 0.0000 0.0000 48.4801 0.0000
# 6 0.0000 0.0000 0.0000 0.0000 0.0000 23.3982
#
#
#
# Elastic Compliance Matrix: (Units=1/GPa)
#
#
# Indices 1 2 3 4 5 6 
#
# 1 0.016100 -0.005518 -0.004829 0.000000 0.000000 0.000000
# 2 -0.005518 0.014469 -0.002030 0.000000 0.000000 0.000000
# 3 -0.004829 -0.002030 0.007550 0.000000 0.000000 0.000000
# 4 0.000000 0.000000 0.000000 0.025559 0.000000 0.000000
# 5 0.000000 0.000000 0.000000 0.000000 0.020627 0.000000
# 6 0.000000 0.000000 0.000000 0.000000 0.000000 0.042738
#
#
# Mechanical properties :
#
#
# Convention : Reuss Voigt Hill
#
# Bulk Modulus (GPa) = 74.82406 86.27264 80.54835
# Shear Modulus (GPa) = 31.99943 36.22887 34.11415
#
# Velocity S-wave (km/s) = 3.94975 4.20268 4.07818
# Velocity P-wave (km/s) = 7.56831 8.10001 7.83867
#
# Compressibility (1/GPa) = 0.01336468
#
# Stress axis : x y z
#
# Youngs Moduli (GPa) = 62.11181 69.11284 132.44921
#
# Poissons Ratio (x) = 0.38135 0.63961
# Poissons Ratio (y) = 0.34272 0.26892
# Poissons Ratio (z) = 0.29994 0.14032
#
# Static dielectric constant tensor:
#      x y z
#    x 1.723830 0.000000 0.000000 
#    y 0.000000 1.842250 0.000000 
#    z 0.000000 0.000000 1.798530 
# 
# From -- ./inp_files/25844.got.cif
#   From: 2010.05.17/outbox.cif.g08.bks.cpg/sg21_13_cif.got.tgz:25844.got - 2010.06.03 23:14:55.
