data_PCOD9325340
_publ_section_title
;
Structure prediction by ZEFSAII (Michael W. Deem and Ramdas Pophale) SiO2 
 PCOD9325340
Probable space group: C 2 2 2
;
_chemical_formula_sum "Si O2"
_cell_formula_units_Z 34
_cell_length_a 13.725619
_cell_length_b 6.188898
_cell_length_c 18.823517
_cell_angle_alpha 90.000000
_cell_angle_beta 90.000000
_cell_angle_gamma 90.000000
_cell_volume 1598.991058
_symmetry_space_group_name_H-M "C 2 2 2"
_symmetry_group_IT_number 21
_symmetry_cell_setting 'orthorhombic'
loop_
_space_group_symop_operation_xyz
x,y,z
-x,-y,z
x,-y,-z
-x,y,-z
1/2+x,1/2+y,z
1/2-x,1/2-y,z
1/2+x,1/2-y,-z
1/2-x,1/2+y,-z
loop_
_atom_site_type_symbol
_atom_site_label
_atom_site_fract_x
_atom_site_fract_y
_atom_site_fract_z
Si Si1 0.393418 0.906450 0.857628
Si Si2 0.250000 0.750000 0.193534
Si Si3 0.611652 0.583003 0.272301
Si Si4 0.000000 0.500000 0.500000
Si Si5 0.250000 0.750000 0.966604
Si Si6 0.604738 0.619040 0.432115
O O1 0.388043 0.786647 0.781048
O O2 0.347080 0.752222 0.916951
O O3 0.500000 0.000000 0.871679
O O4 0.321165 0.107436 0.853155
O O5 0.317696 0.595808 0.240087
O O6 0.500000 0.500000 0.272630
O O7 0.646141 0.619401 0.353285
O O8 0.072187 0.356933 0.453379
O O9 0.249204 0.500000 0.000000
O O10 0.500000 0.500000 0.426131
O O11 0.655023 0.500000 0.500000
#
# Coordination Sequence:
#
# PCOD9325340 Si02
#       6
#     8   4   8   2   4   8
#     4  12  26  46  75 111 142 190 239 300 364 433
#     4  12  23  44  68 105 150 180 234 312 355 430
#     4  11  22  38  71 104 141 188 246 303 369 428
#     4   8  14  28  52  82 148 172 240 302 356 438
#     4  12  29  54  82 111 158 198 240 302 375 462
#     4   8  17  31  53  95 132 184 240 291 365 437
#
# _framework density 21.263406
#
# number of rings (size 3 to 8) (size 9 to 14) (size 15 to 20)
#    0.000    1.647    4.706    0.706    1.647    2.353 
#    0.000    3.529    5.176    0.000    0.000    0.000 
#    0.000    0.000    0.000    0.000    0.000    0.000 
#
# Total GULP energy -94770.152784 kJ/mol
# GULP energy per Si atom -5574.714870 kJ/mol
# Density = 2.121501 g / cm^3
# Si number density = 21.263406 Si / 1000 Ang^3
#
#
#
# Elastic Constant Matrix: (Units=GPa)
#
#
# Indices 1 2 3 4 5 6 
#
# 1 122.7896 43.5344 42.1956 0.0000 0.0000 0.0000
# 2 43.5344 112.5186 55.2805 0.0000 0.0000 0.0000
# 3 42.1956 55.2805 136.6341 0.0000 0.0000 0.0000
# 4 0.0000 0.0000 0.0000 137.7958 0.0000 0.0000
# 5 0.0000 0.0000 0.0000 0.0000 -19.3607 0.0000
# 6 0.0000 0.0000 0.0000 0.0000 0.0000 40.3060
#
#
#
# Elastic Compliance Matrix: (Units=1/GPa)
#
#
# Indices 1 2 3 4 5 6 
#
# 1 0.009805 -0.002878 -0.001864 0.000000 0.000000 0.000000
# 2 -0.002878 0.011937 -0.003941 0.000000 0.000000 0.000000
# 3 -0.001864 -0.003941 0.009489 0.000000 0.000000 0.000000
# 4 0.000000 0.000000 0.000000 0.007257 0.000000 0.000000
# 5 0.000000 0.000000 0.000000 0.000000 -0.051651 0.000000
# 6 0.000000 0.000000 0.000000 0.000000 0.000000 0.024810
#
#
# Mechanical properties :
#
#
# Convention : Reuss Voigt Hill
#
# Bulk Modulus (GPa) = 72.11937 72.66259 72.39098
# Shear Modulus (GPa) = 148.66112 47.14367 97.90239
#
# Velocity S-wave (km/s) = 8.37053 4.71375 6.79284
# Velocity P-wave (km/s) = 11.28769 7.99204 9.77969
#
# Compressibility (1/GPa) = 0.01386590
#
# Stress axis : x y z
#
# Youngs Moduli (GPa) = 101.99109 83.77271 105.38832
#
# Poissons Ratio (x) = 0.24110 0.19639
# Poissons Ratio (y) = 0.29353 0.41531
# Poissons Ratio (z) = 0.19006 0.33013
#
# Static dielectric constant tensor:
#      x y z
#    x 1.743190 0.000000 0.000000 
#    y 0.000000 1.622710 0.000000 
#    z 0.000000 0.000000 1.860800 
# 
# From -- ./inp_files/36506.got.cif
#   From: 2010.05.17/outbox.cif.g08.bks.cpg/sg21_19_cif.got.tgz:36506.got - 2010.06.03 23:14:55.
