data_PCOD9325612
_publ_section_title
;
Structure prediction by ZEFSAII (Michael W. Deem and Ramdas Pophale) SiO2 
 PCOD9325612
Probable space group: C 2 2 2
;
_chemical_formula_sum "Si O2"
_cell_formula_units_Z 32
_cell_length_a 8.373896
_cell_length_b 13.725386
_cell_length_c 12.227248
_cell_angle_alpha 90.000000
_cell_angle_beta 90.000000
_cell_angle_gamma 90.000000
_cell_volume 1405.338198
_symmetry_space_group_name_H-M "C 2 2 2"
_symmetry_group_IT_number 21
_symmetry_cell_setting 'orthorhombic'
loop_
_space_group_symop_operation_xyz
x,y,z
-x,-y,z
x,-y,-z
-x,y,-z
1/2+x,1/2+y,z
1/2-x,1/2-y,z
1/2+x,1/2-y,-z
1/2-x,1/2+y,-z
loop_
_atom_site_type_symbol
_atom_site_label
_atom_site_fract_x
_atom_site_fract_y
_atom_site_fract_z
Si Si1 0.758844 0.093806 0.156209
Si Si2 0.472728 0.790884 0.775361
Si Si3 0.500000 0.287732 0.000000
Si Si4 0.000000 0.000000 0.500000
Si Si5 0.330713 0.593065 0.699408
Si Si6 0.500000 0.000000 0.000000
O O1 0.650436 0.165609 0.230995
O O2 0.620384 0.052785 0.080179
O O3 0.877743 0.147291 0.071060
O O4 0.829409 0.003006 0.223735
O O5 0.450628 0.680733 0.732238
O O6 0.344205 0.859128 0.715438
O O7 0.426001 0.778663 0.904094
O O8 0.885104 0.938847 0.420266
#
# Coordination Sequence:
#
# PCOD9325612 Si02
#       6
#     8   8   4   2   8   2
#     4  12  25  47  73 113 166 209 252 319 383 487
#     4  11  25  46  73 115 160 195 260 312 386 498
#     4  12  27  41  72 118 164 214 241 299 398 482
#     4  12  28  56  78 102 146 200 270 348 412 416
#     4  11  26  50  75 109 149 204 267 337 385 463
#     4  12  22  38  78 114 160 220 244 286 412 486
#
# _framework density 22.770318
#
# number of rings (size 3 to 8) (size 9 to 14) (size 15 to 20)
#    0.000    0.500    2.500    4.500   10.500    3.500 
#    9.000    1.250    0.000    0.000    0.000    0.000 
#    0.000    0.000    0.000    0.000    0.000    0.000 
#
# Total GULP energy -89432.349485 kJ/mol
# GULP energy per Si atom -5589.521843 kJ/mol
# Density = 2.271849 g / cm^3
# Si number density = 22.770318 Si / 1000 Ang^3
#
#
#
# Elastic Constant Matrix: (Units=GPa)
#
#
# Indices 1 2 3 4 5 6 
#
# 1 164.3757 93.3077 61.3413 0.0000 0.0000 0.0000
# 2 93.3077 169.3571 76.5582 0.0000 0.0000 0.0000
# 3 61.3413 76.5582 156.3497 0.0000 0.0000 0.0000
# 4 0.0000 0.0000 0.0000 28.9066 0.0000 0.0000
# 5 0.0000 0.0000 0.0000 0.0000 43.4489 0.0000
# 6 0.0000 0.0000 0.0000 0.0000 0.0000 59.6913
#
#
#
# Elastic Compliance Matrix: (Units=1/GPa)
#
#
# Indices 1 2 3 4 5 6 
#
# 1 0.009095 -0.004364 -0.001431 0.000000 0.000000 0.000000
# 2 -0.004364 0.009677 -0.003026 0.000000 0.000000 0.000000
# 3 -0.001431 -0.003026 0.008439 0.000000 0.000000 0.000000
# 4 0.000000 0.000000 0.000000 0.034594 0.000000 0.000000
# 5 0.000000 0.000000 0.000000 0.000000 0.023016 0.000000
# 6 0.000000 0.000000 0.000000 0.000000 0.000000 0.016753
#
#
# Mechanical properties :
#
#
# Convention : Reuss Voigt Hill
#
# Bulk Modulus (GPa) = 104.51415 105.83299 105.17357
# Shear Modulus (GPa) = 40.84749 43.66771 42.25760
#
# Velocity S-wave (km/s) = 4.24003 4.38396 4.31260
# Velocity P-wave (km/s) = 8.36477 8.49734 8.43132
#
# Compressibility (1/GPa) = 0.00956808
#
# Stress axis : x y z
#
# Youngs Moduli (GPa) = 109.95167 103.33796 118.49131
#
# Poissons Ratio (x) = 0.45094 0.16962
# Poissons Ratio (y) = 0.47980 0.35860
# Poissons Ratio (z) = 0.15739 0.31274
#
# Static dielectric constant tensor:
#      x y z
#    x 1.984730 0.000000 0.000000 
#    y 0.000000 2.000160 0.000000 
#    z 0.000000 0.000000 1.822000 
# 
# From -- ./inp_files/22061.got.cif
#   From: 2010.05.17/outbox.cif.g08.bks.cpg/sg21_12_cif.got.tgz:22061.got - 2010.06.03 23:14:55.
