data_PCOD9325173
_publ_section_title
;
Structure prediction by ZEFSAII (Michael W. Deem and Ramdas Pophale) SiO2 
 PCOD9325173
Probable space group: C 2 2 2
;
_chemical_formula_sum "Si O2"
_cell_formula_units_Z 24
_cell_length_a 12.384959
_cell_length_b 15.903464
_cell_length_c 5.242999
_cell_angle_alpha 90.000000
_cell_angle_beta 90.000000
_cell_angle_gamma 90.000000
_cell_volume 1032.680742
_symmetry_space_group_name_H-M "C 2 2 2"
_symmetry_group_IT_number 21
_symmetry_cell_setting 'orthorhombic'
loop_
_space_group_symop_operation_xyz
x,y,z
-x,-y,z
x,-y,-z
-x,y,-z
1/2+x,1/2+y,z
1/2-x,1/2-y,z
1/2+x,1/2-y,-z
1/2-x,1/2+y,-z
loop_
_atom_site_type_symbol
_atom_site_label
_atom_site_fract_x
_atom_site_fract_y
_atom_site_fract_z
Si Si1 0.750000 0.750000 0.588243
Si Si2 0.615329 0.375238 0.114504
Si Si3 0.500000 0.500000 0.500000
Si Si4 0.500000 0.000000 0.500000
Si Si5 0.294370 0.077214 0.308924
O O1 0.659523 0.709259 0.763189
O O2 0.711536 0.830226 0.429926
O O3 0.573533 0.441863 0.322505
O O4 0.500000 0.353084 0.000000
O O5 0.710398 0.412154 0.929042
O O6 0.422098 0.053814 0.309654
O O7 0.262813 0.000000 0.500000
#
# Coordination Sequence:
#
# PCOD9325173 Si02
#       5
#     4   8   2   2   8
#     4  12  28  46  78 126 166 222 288 342 436 514
#     4  12  29  49  86 123 171 223 290 365 426 516
#     4  12  30  48  86 126 162 232 292 352 444 498
#     4   8  24  52  90 116 162 234 282 332 438 532
#     4  10  26  54  82 121 171 224 284 348 434 514
#
# _framework density 23.240483999999999
#
# number of rings (size 3 to 8) (size 9 to 14) (size 15 to 20)
#    1.000    0.000    0.000    3.500   14.000    6.667 
#    0.000    1.667    0.000    5.000    0.000    0.000 
#    0.000    0.000    0.000    0.000    0.000    0.000 
#
# Total GULP energy -66824.071304 kJ/mol
# GULP energy per Si atom -5568.672609 kJ/mol
# Density = 2.318759 g / cm^3
# Si number density = 23.240484 Si / 1000 Ang^3
#
#
#
# Elastic Constant Matrix: (Units=GPa)
#
#
# Indices 1 2 3 4 5 6 
#
# 1 222.5917 95.3714 97.2760 0.0000 0.0000 0.0000
# 2 95.3714 225.3409 94.9930 0.0000 0.0000 0.0000
# 3 97.2760 94.9930 138.0771 0.0000 0.0000 0.0000
# 4 0.0000 0.0000 0.0000 45.9819 0.0000 0.0000
# 5 0.0000 0.0000 0.0000 0.0000 30.1034 0.0000
# 6 0.0000 0.0000 0.0000 0.0000 0.0000 64.9795
#
#
#
# Elastic Compliance Matrix: (Units=1/GPa)
#
#
# Indices 1 2 3 4 5 6 
#
# 1 0.006711 -0.001193 -0.003907 0.000000 0.000000 0.000000
# 2 -0.001193 0.006463 -0.003605 0.000000 0.000000 0.000000
# 3 -0.003907 -0.003605 0.012475 0.000000 0.000000 0.000000
# 4 0.000000 0.000000 0.000000 0.021748 0.000000 0.000000
# 5 0.000000 0.000000 0.000000 0.000000 0.033219 0.000000
# 6 0.000000 0.000000 0.000000 0.000000 0.000000 0.015389
#
#
# Mechanical properties :
#
#
# Convention : Reuss Voigt Hill
#
# Bulk Modulus (GPa) = 121.39609 129.03229 125.21419
# Shear Modulus (GPa) = 43.04298 48.10425 45.57361
#
# Velocity S-wave (km/s) = 4.30824 4.55449 4.43307
# Velocity P-wave (km/s) = 8.78043 9.12682 8.95530
#
# Compressibility (1/GPa) = 0.00823750
#
# Stress axis : x y z
#
# Youngs Moduli (GPa) = 149.00177 154.73521 80.15817
#
# Poissons Ratio (x) = 0.18466 0.31319
# Poissons Ratio (y) = 0.17782 0.28900
# Poissons Ratio (z) = 0.58217 0.55788
#
# Static dielectric constant tensor:
#      x y z
#    x 1.937610 0.000000 0.000000 
#    y 0.000000 1.840770 0.000000 
#    z 0.000000 0.000000 1.979900 
# 
# From -- ./inp_files/2151.got.cif
#   From: 2010.05.17/outbox.cif.g08.bks.cpg/sg21_2_cif.got.tgz:2151.got - 2010.06.03 23:14:55.
