data_PCOD9325816
_publ_section_title
;
Structure prediction by ZEFSAII (Michael W. Deem and Ramdas Pophale) SiO2 
 PCOD9325816
Probable space group: C 2 2 2
;
_chemical_formula_sum "Si O2"
_cell_formula_units_Z 14
_cell_length_a 4.913736
_cell_length_b 20.809230
_cell_length_c 5.816740
_cell_angle_alpha 90.000000
_cell_angle_beta 90.000000
_cell_angle_gamma 90.000000
_cell_volume 594.767846
_symmetry_space_group_name_H-M "C 2 2 2"
_symmetry_group_IT_number 21
_symmetry_cell_setting 'orthorhombic'
loop_
_space_group_symop_operation_xyz
x,y,z
-x,-y,z
x,-y,-z
-x,y,-z
1/2+x,1/2+y,z
1/2-x,1/2-y,z
1/2+x,1/2-y,-z
1/2-x,1/2+y,-z
loop_
_atom_site_type_symbol
_atom_site_label
_atom_site_fract_x
_atom_site_fract_y
_atom_site_fract_z
Si Si1 0.257666 0.898259 0.338858
Si Si2 0.000000 0.000000 0.000000
Si Si3 0.500000 0.206988 0.000000
O O1 0.500000 0.921128 0.500000
O O2 0.369304 0.837824 0.195702
O O3 0.000000 0.882529 0.500000
O O4 0.173408 0.953239 0.161131
O O5 0.250000 0.250000 0.090091
#
# Coordination Sequence:
#
# PCOD9325816 Si02
#       3
#     8   2   4
#     4  12  28  49  77 111 148 196 244 301 372 435
#     4  12  28  50  76 112 154 186 246 308 364 444
#     4  12  27  51  76 107 151 194 248 306 358 434
#
# _framework density 23.538595999999998
#
# number of rings (size 3 to 8) (size 9 to 14) (size 15 to 20)
#    0.000    0.000    0.000    9.429    0.000   21.714 
#    0.000    5.714    0.000    0.000    0.000    0.000 
#    0.000    0.000    0.000    0.000    0.000    0.000 
#
# Total GULP energy -39317.877393 kJ/mol
# GULP energy per Si atom -5616.839628 kJ/mol
# Density = 2.348502 g / cm^3
# Si number density = 23.538596 Si / 1000 Ang^3
#
#
#
# Elastic Constant Matrix: (Units=GPa)
#
#
# Indices 1 2 3 4 5 6 
#
# 1 234.3385 112.7768 123.6359 0.0000 0.0000 0.0000
# 2 112.7768 182.2315 105.6162 0.0000 0.0000 0.0000
# 3 123.6359 105.6162 182.7841 0.0000 0.0000 0.0000
# 4 0.0000 0.0000 0.0000 5.0665 0.0000 0.0000
# 5 0.0000 0.0000 0.0000 0.0000 64.2639 0.0000
# 6 0.0000 0.0000 0.0000 0.0000 0.0000 18.2143
#
#
#
# Elastic Compliance Matrix: (Units=1/GPa)
#
#
# Indices 1 2 3 4 5 6 
#
# 1 0.007320 -0.002497 -0.003509 0.000000 0.000000 0.000000
# 2 -0.002497 0.009102 -0.003571 0.000000 0.000000 0.000000
# 3 -0.003509 -0.003571 0.009907 0.000000 0.000000 0.000000
# 4 0.000000 0.000000 0.000000 0.197375 0.000000 0.000000
# 5 0.000000 0.000000 0.000000 0.000000 0.015561 0.000000
# 6 0.000000 0.000000 0.000000 0.000000 0.000000 0.054902
#
#
# Mechanical properties :
#
#
# Convention : Reuss Voigt Hill
#
# Bulk Modulus (GPa) = 139.32199 142.60130 140.96164
# Shear Modulus (GPa) = 15.83724 34.66396 25.25060
#
# Velocity S-wave (km/s) = 2.59669 3.84167 3.27881
# Velocity P-wave (km/s) = 8.26484 8.96612 8.62261
#
# Compressibility (1/GPa) = 0.00717762
#
# Stress axis : x y z
#
# Youngs Moduli (GPa) = 136.61223 109.86619 100.93430
#
# Poissons Ratio (x) = 0.27428 0.35415
# Poissons Ratio (y) = 0.34106 0.36040
# Poissons Ratio (z) = 0.47934 0.39229
#
# Static dielectric constant tensor:
#      x y z
#    x 1.858300 0.000000 0.000000 
#    y 0.000000 1.874010 0.000000 
#    z 0.000000 0.000000 1.865350 
# 
# From -- ./inp_files/309.got.cif
#   From: 2010.05.17/outbox.cif.g08.bks.cpg/sg21_1_cif.got.tgz:309.got - 2010.06.03 23:14:55.
