data_PCOD9325274
_publ_section_title
;
Structure prediction by ZEFSAII (Michael W. Deem and Ramdas Pophale) SiO2 
 PCOD9325274
Probable space group: C 2 2 2
;
_chemical_formula_sum "Si O2"
_cell_formula_units_Z 48
_cell_length_a 10.596114
_cell_length_b 14.435247
_cell_length_c 15.766135
_cell_angle_alpha 90.000000
_cell_angle_beta 90.000000
_cell_angle_gamma 90.000000
_cell_volume 2411.548954
_symmetry_space_group_name_H-M "C 2 2 2"
_symmetry_group_IT_number 21
_symmetry_cell_setting 'orthorhombic'
loop_
_space_group_symop_operation_xyz
x,y,z
-x,-y,z
x,-y,-z
-x,y,-z
1/2+x,1/2+y,z
1/2-x,1/2-y,z
1/2+x,1/2-y,-z
1/2-x,1/2+y,-z
loop_
_atom_site_type_symbol
_atom_site_label
_atom_site_fract_x
_atom_site_fract_y
_atom_site_fract_z
Si Si1 0.273788 0.968550 0.810417
Si Si2 0.451363 0.630087 0.907348
Si Si3 0.851893 0.997406 0.365284
Si Si4 0.770691 0.855919 0.893608
Si Si5 0.384001 0.844263 0.940293
Si Si6 0.350380 0.664124 0.493799
O O1 0.146710 0.932363 0.858042
O O2 0.240649 0.977059 0.712700
O O3 0.371590 0.897529 0.852305
O O4 0.309539 0.069003 0.845074
O O5 0.586721 0.629537 0.862655
O O6 0.404236 0.736401 0.917344
O O7 0.500000 0.599612 0.000000
O O8 0.835759 0.911155 0.430148
O O9 0.830084 0.096546 0.411924
O O10 0.000000 0.000000 0.339275
O O11 0.750000 0.750000 0.874447
O O12 0.732293 0.864415 0.993806
O O13 0.500000 0.871359 0.000000
O O14 0.500000 0.693766 0.500000
O O15 0.250000 0.750000 0.496608
#
# Coordination Sequence:
#
# PCOD9325274 Si02
#       6
#     8   8   8   8   8   8
#     4  12  24  36  63  87 116 163 214 261 309 369
#     4  11  21  38  56  79 106 149 215 270 297 357
#     4   9  20  41  61  99 131 158 211 265 314 396
#     4  12  22  38  53  77 109 154 208 259 308 359
#     4  11  23  39  56  77 117 160 213 261 320 367
#     4   9  19  40  76  99 130 171 203 254 333 401
#
# _framework density 19.904219000000001
#
# number of rings (size 3 to 8) (size 9 to 14) (size 15 to 20)
#    0.000    1.333    5.000    3.500    0.000    4.000 
#    0.000    1.667    7.333    0.000    0.000    0.000 
#    0.000    0.000    0.000    0.000    0.000    0.000 
#
# Total GULP energy -133671.657782 kJ/mol
# GULP energy per Si atom -5569.652408 kJ/mol
# Density = 1.985892 g / cm^3
# Si number density = 19.904219 Si / 1000 Ang^3
#
#
#
# Elastic Constant Matrix: (Units=GPa)
#
#
# Indices 1 2 3 4 5 6 
#
# 1 83.7427 35.0387 34.4850 0.0000 0.0000 0.0000
# 2 35.0387 116.1634 61.7241 0.0000 0.0000 0.0000
# 3 34.4850 61.7241 103.6134 0.0000 0.0000 0.0000
# 4 0.0000 0.0000 0.0000 21.5998 0.0000 0.0000
# 5 0.0000 0.0000 0.0000 0.0000 26.6085 0.0000
# 6 0.0000 0.0000 0.0000 0.0000 0.0000 26.6629
#
#
#
# Elastic Compliance Matrix: (Units=1/GPa)
#
#
# Indices 1 2 3 4 5 6 
#
# 1 0.014364 -0.002623 -0.003218 0.000000 0.000000 0.000000
# 2 -0.002623 0.013074 -0.006916 0.000000 0.000000 0.000000
# 3 -0.003218 -0.006916 0.014842 0.000000 0.000000 0.000000
# 4 0.000000 0.000000 0.000000 0.046297 0.000000 0.000000
# 5 0.000000 0.000000 0.000000 0.000000 0.037582 0.000000
# 6 0.000000 0.000000 0.000000 0.000000 0.000000 0.037505
#
#
# Mechanical properties :
#
#
# Convention : Reuss Voigt Hill
#
# Bulk Modulus (GPa) = 59.64025 62.89057 61.26541
# Shear Modulus (GPa) = 25.67172 26.45903 26.06537
#
# Velocity S-wave (km/s) = 3.59522 3.64994 3.62268
# Velocity P-wave (km/s) = 6.87480 7.03050 6.95308
#
# Compressibility (1/GPa) = 0.01676720
#
# Stress axis : x y z
#
# Youngs Moduli (GPa) = 69.61875 76.48578 67.37532
#
# Poissons Ratio (x) = 0.20059 0.21684
# Poissons Ratio (y) = 0.18258 0.46595
# Poissons Ratio (z) = 0.22406 0.52896
#
# Static dielectric constant tensor:
#      x y z
#    x 1.871840 0.000000 0.000000 
#    y 0.000000 1.742170 0.000000 
#    z 0.000000 0.000000 1.716320 
# 
# From -- ./inp_files/31502.got.cif
#   From: 2010.05.17/outbox.cif.g08.bks.cpg/sg21_16_cif.got.tgz:31502.got - 2010.06.03 23:14:55.
