data_PCOD9325123
_publ_section_title
;
Structure prediction by ZEFSAII (Michael W. Deem and Ramdas Pophale) SiO2 
 PCOD9325123
Probable space group: C 2 2 2
;
_chemical_formula_sum "Si O2"
_cell_formula_units_Z 48
_cell_length_a 22.468780
_cell_length_b 5.554252
_cell_length_c 18.258690
_cell_angle_alpha 90.000000
_cell_angle_beta 90.000000
_cell_angle_gamma 90.000000
_cell_volume 2278.634597
_symmetry_space_group_name_H-M "C 2 2 2"
_symmetry_group_IT_number 21
_symmetry_cell_setting 'orthorhombic'
loop_
_space_group_symop_operation_xyz
x,y,z
-x,-y,z
x,-y,-z
-x,y,-z
1/2+x,1/2+y,z
1/2-x,1/2-y,z
1/2+x,1/2-y,-z
1/2-x,1/2+y,-z
loop_
_atom_site_type_symbol
_atom_site_label
_atom_site_fract_x
_atom_site_fract_y
_atom_site_fract_z
Si Si1 0.250000 0.250000 0.812979
Si Si2 0.357245 0.977668 0.813866
Si Si3 0.941313 0.243853 0.364999
Si Si4 0.000000 0.500000 0.000000
Si Si5 0.075001 0.250485 0.309850
Si Si6 0.943664 0.151469 0.118115
Si Si7 0.000000 0.000000 0.500000
Si Si8 0.673630 0.590334 0.079712
O O1 0.200044 0.410127 0.773630
O O2 0.289853 0.429795 0.862569
O O3 0.392579 0.780635 0.767507
O O4 0.329503 0.863852 0.889136
O O5 0.407174 0.180471 0.826616
O O6 0.911340 0.502403 0.354176
O O7 0.963053 0.175119 0.446447
O O8 0.002689 0.248178 0.316289
O O9 0.905726 0.007343 0.340708
O O10 0.036279 0.670711 0.053870
O O11 0.895537 0.974927 0.084087
O O12 0.000000 0.000000 0.145714
O O13 0.695006 0.500000 0.000000
#
# Coordination Sequence:
#
# PCOD9325123 Si02
#       8
#     4   8   8   2   8   8   2   8
#     4  10  26  40  62  84 102 154 198 280 324 394
#     4  11  24  42  59  82 117 155 207 264 323 387
#     4   9  19  34  58  93 130 180 205 242 291 369
#     4  12  22  40  48  78 108 136 186 226 318 386
#     4   9  20  35  55  86 124 166 211 240 301 370
#     4  11  23  37  57  81 107 147 185 244 310 392
#     4   8  16  34  56  90 144 178 210 242 292 354
#     4  11  24  41  62  84 107 147 202 271 342 395
#
# _framework density 21.065246999999999
#
# number of rings (size 3 to 8) (size 9 to 14) (size 15 to 20)
#    0.000    2.000    0.000    3.750    7.000   10.667 
#    4.500    0.000    0.000    0.000    0.000    0.000 
#    0.000    5.333    0.000    0.000    0.000    0.000 
#
# Total GULP energy -133822.198278 kJ/mol
# GULP energy per Si atom -5575.924928 kJ/mol
# Density = 2.101730 g / cm^3
# Si number density = 21.065247 Si / 1000 Ang^3
#
#
#
# Elastic Constant Matrix: (Units=GPa)
#
#
# Indices 1 2 3 4 5 6 
#
# 1 92.2446 26.3892 17.1105 0.0000 0.0000 0.0000
# 2 26.3892 141.5615 26.1904 0.0000 0.0000 0.0000
# 3 17.1105 26.1904 78.9461 0.0000 0.0000 0.0000
# 4 0.0000 0.0000 0.0000 23.8744 0.0000 0.0000
# 5 0.0000 0.0000 0.0000 0.0000 9.6318 0.0000
# 6 0.0000 0.0000 0.0000 0.0000 0.0000 36.8333
#
#
#
# Elastic Compliance Matrix: (Units=1/GPa)
#
#
# Indices 1 2 3 4 5 6 
#
# 1 0.011722 -0.001827 -0.001934 0.000000 0.000000 0.000000
# 2 -0.001827 0.007811 -0.002195 0.000000 0.000000 0.000000
# 3 -0.001934 -0.002195 0.013814 0.000000 0.000000 0.000000
# 4 0.000000 0.000000 0.000000 0.041886 0.000000 0.000000
# 5 0.000000 0.000000 0.000000 0.000000 0.103823 0.000000
# 6 0.000000 0.000000 0.000000 0.000000 0.000000 0.027149
#
#
# Mechanical properties :
#
#
# Convention : Reuss Voigt Hill
#
# Bulk Modulus (GPa) = 46.65566 50.23693 48.44630
# Shear Modulus (GPa) = 22.19614 30.27203 26.23408
#
# Velocity S-wave (km/s) = 3.24957 3.79497 3.53281
# Velocity P-wave (km/s) = 6.02295 6.56524 6.29993
#
# Compressibility (1/GPa) = 0.02143362
#
# Stress axis : x y z
#
# Youngs Moduli (GPa) = 85.30733 128.02716 72.38830
#
# Poissons Ratio (x) = 0.23395 0.14003
# Poissons Ratio (y) = 0.15588 0.15891
# Poissons Ratio (z) = 0.16502 0.28105
#
# Static dielectric constant tensor:
#      x y z
#    x 1.751740 0.000000 0.000000 
#    y 0.000000 1.930720 0.000000 
#    z 0.000000 0.000000 1.802640 
# 
# From -- ./inp_files/37896.got.cif
#   From: 2010.05.17/outbox.cif.g08.bks.cpg/sg21_19_cif.got.tgz:37896.got - 2010.06.03 23:14:55.
