data_PCOD9325416
_publ_section_title
;
Structure prediction by ZEFSAII (Michael W. Deem and Ramdas Pophale) SiO2 
 PCOD9325416
Probable space group: C 2 2 2
;
_chemical_formula_sum "Si O2"
_cell_formula_units_Z 34
_cell_length_a 13.220712
_cell_length_b 22.832116
_cell_length_c 5.074066
_cell_angle_alpha 90.000000
_cell_angle_beta 90.000000
_cell_angle_gamma 90.000000
_cell_volume 1531.641478
_symmetry_space_group_name_H-M "C 2 2 2"
_symmetry_group_IT_number 21
_symmetry_cell_setting 'orthorhombic'
loop_
_space_group_symop_operation_xyz
x,y,z
-x,-y,z
x,-y,-z
-x,y,-z
1/2+x,1/2+y,z
1/2-x,1/2-y,z
1/2+x,1/2-y,-z
1/2-x,1/2+y,-z
loop_
_atom_site_type_symbol
_atom_site_label
_atom_site_fract_x
_atom_site_fract_y
_atom_site_fract_z
Si Si1 0.886829 0.162695 0.377951
Si Si2 0.000000 0.500000 0.500000
Si Si3 0.877498 0.703624 0.491792
Si Si4 0.768329 0.865250 0.146092
Si Si5 0.103554 0.595114 0.145913
O O1 0.854426 0.230415 0.423332
O O2 0.852774 0.149140 0.077855
O O3 0.000000 0.159697 0.500000
O O4 0.825726 0.122993 0.583452
O O5 0.930432 0.458169 0.324876
O O6 0.855410 0.650481 0.690489
O O7 0.000000 0.701729 0.500000
O O8 0.814648 0.685776 0.229186
O O9 0.694246 0.916815 0.053741
O O10 0.000000 0.612671 0.000000
#
# Coordination Sequence:
#
# PCOD9325416 Si02
#       5
#     8   2   8   8   8
#     4  11  27  41  62  96 144 191 248 286 341 414
#     4  12  26  48  64 110 146 190 232 314 364 444
#     4  11  23  39  61  98 139 186 229 290 348 436
#     4  12  24  41  65  95 136 193 236 288 352 428
#     4  12  24  42  68  99 145 180 233 294 364 436
#
# _framework density 22.198404
#
# number of rings (size 3 to 8) (size 9 to 14) (size 15 to 20)
#    0.000    0.471    5.882    1.765    6.588    0.000 
#    0.000    0.000    0.000    0.000    0.000    0.824 
#    7.059    0.000    0.000    0.000    0.000    0.000 
#
# Total GULP energy -94786.326881 kJ/mol
# GULP energy per Si atom -5575.666287 kJ/mol
# Density = 2.214788 g / cm^3
# Si number density = 22.198404 Si / 1000 Ang^3
#
#
#
# Elastic Constant Matrix: (Units=GPa)
#
#
# Indices 1 2 3 4 5 6 
#
# 1 117.5506 -3.8703 37.8505 0.0000 0.0000 0.0000
# 2 -3.8703 50.8160 31.3932 0.0000 0.0000 0.0000
# 3 37.8505 31.3932 139.7672 0.0000 0.0000 0.0000
# 4 0.0000 0.0000 0.0000 21.1978 0.0000 0.0000
# 5 0.0000 0.0000 0.0000 0.0000 53.3150 0.0000
# 6 0.0000 0.0000 0.0000 0.0000 0.0000 8.6389
#
#
#
# Elastic Compliance Matrix: (Units=1/GPa)
#
#
# Indices 1 2 3 4 5 6 
#
# 1 0.009634 0.002723 -0.003221 0.000000 0.000000 0.000000
# 2 0.002723 0.023619 -0.006043 0.000000 0.000000 0.000000
# 3 -0.003221 -0.006043 0.009384 0.000000 0.000000 0.000000
# 4 0.000000 0.000000 0.000000 0.047175 0.000000 0.000000
# 5 0.000000 0.000000 0.000000 0.000000 0.018756 0.000000
# 6 0.000000 0.000000 0.000000 0.000000 0.000000 0.115755
#
#
# Mechanical properties :
#
#
# Convention : Reuss Voigt Hill
#
# Bulk Modulus (GPa) = 33.83254 48.76449 41.29852
# Shear Modulus (GPa) = 20.22197 32.81437 26.51817
#
# Velocity S-wave (km/s) = 3.02149 3.84895 3.46005
# Velocity P-wave (km/s) = 5.23895 6.46280 5.88279
#
# Compressibility (1/GPa) = 0.02955734
#
# Stress axis : x y z
#
# Youngs Moduli (GPa) = 103.80283 42.33822 106.56236
#
# Poissons Ratio (x) = -0.11530 0.34319
# Poissons Ratio (y) = -0.28269 0.64392
# Poissons Ratio (z) = 0.33431 0.25584
#
# Static dielectric constant tensor:
#      x y z
#    x 2.002460 0.000000 0.000000 
#    y 0.000000 1.796490 0.000000 
#    z 0.000000 0.000000 1.959580 
# 
# From -- ./inp_files/3819.got.cif
#   From: 2010.05.17/outbox.cif.g08.bks.cpg/sg21_2_cif.got.tgz:3819.got - 2010.06.03 23:14:55.
