data_PCOD9325704
_publ_section_title
;
Structure prediction by ZEFSAII (Michael W. Deem and Ramdas Pophale) SiO2 
 PCOD9325704
Probable space group: C 2 2 2
;
_chemical_formula_sum "Si O2"
_cell_formula_units_Z 38
_cell_length_a 8.555625
_cell_length_b 10.453133
_cell_length_c 19.366618
_cell_angle_alpha 90.000000
_cell_angle_beta 90.000000
_cell_angle_gamma 90.000000
_cell_volume 1732.016414
_symmetry_space_group_name_H-M "C 2 2 2"
_symmetry_group_IT_number 21
_symmetry_cell_setting 'orthorhombic'
loop_
_space_group_symop_operation_xyz
x,y,z
-x,-y,z
x,-y,-z
-x,y,-z
1/2+x,1/2+y,z
1/2-x,1/2-y,z
1/2+x,1/2-y,-z
1/2-x,1/2+y,-z
loop_
_atom_site_type_symbol
_atom_site_label
_atom_site_fract_x
_atom_site_fract_y
_atom_site_fract_z
Si Si1 0.410834 0.824125 0.880619
Si Si2 0.285600 0.010995 0.240332
Si Si3 0.750000 0.250000 0.156969
Si Si4 0.500000 0.000000 0.000000
Si Si5 0.000000 0.000000 0.317941
Si Si6 0.560404 0.273502 0.575135
Si Si7 0.500000 0.000000 0.369321
O O1 0.250000 0.750000 0.883650
O O2 0.581828 0.756940 0.882382
O O3 0.390162 0.900776 0.808501
O O4 0.403069 0.915627 0.946866
O O5 0.254998 0.876974 0.203064
O O6 0.357125 0.995501 0.315982
O O7 0.118430 0.063614 0.261683
O O8 0.007476 0.878003 0.370499
O O9 0.500000 0.314609 0.500000
O O10 0.750000 0.250000 0.578883
O O11 0.496495 0.130852 0.589127
#
# Coordination Sequence:
#
# PCOD9325704 Si02
#       7
#     8   8   4   2   4   8   4
#     4  12  28  47  77 109 155 192 251 308 366 453
#     4  12  24  45  72 112 145 185 249 310 371 437
#     4  12  22  48  74 110 150 194 238 320 374 436
#     4  12  26  56  70 116 156 206 242 304 368 454
#     4  12  27  44  80 107 146 200 258 312 388 455
#     4  12  29  48  69 105 148 195 255 309 379 468
#     4  12  24  46  72 100 148 192 230 318 376 432
#
# _framework density 21.939746
#
# number of rings (size 3 to 8) (size 9 to 14) (size 15 to 20)
#    0.000    0.000    6.316    3.158    7.368    1.684 
#    0.000    1.053    0.000    0.000    0.000    0.000 
#    0.000    0.000    0.000    0.000    0.000    0.000 
#
# Total GULP energy -105864.674052 kJ/mol
# GULP energy per Si atom -5571.824950 kJ/mol
# Density = 2.188981 g / cm^3
# Si number density = 21.939746 Si / 1000 Ang^3
#
#
#
# Elastic Constant Matrix: (Units=GPa)
#
#
# Indices 1 2 3 4 5 6 
#
# 1 121.0446 26.2494 35.4341 0.0000 0.0000 0.0000
# 2 26.2494 104.5956 22.7276 0.0000 0.0000 0.0000
# 3 35.4341 22.7276 85.9034 0.0000 0.0000 0.0000
# 4 0.0000 0.0000 0.0000 9.4677 0.0000 0.0000
# 5 0.0000 0.0000 0.0000 0.0000 -29.6805 0.0000
# 6 0.0000 0.0000 0.0000 0.0000 0.0000 22.8342
#
#
#
# Elastic Compliance Matrix: (Units=1/GPa)
#
#
# Indices 1 2 3 4 5 6 
#
# 1 0.009658 -0.001653 -0.003546 0.000000 0.000000 0.000000
# 2 -0.001653 0.010427 -0.002077 0.000000 0.000000 0.000000
# 3 -0.003546 -0.002077 0.013653 0.000000 0.000000 0.000000
# 4 0.000000 0.000000 0.000000 0.105622 0.000000 0.000000
# 5 0.000000 0.000000 0.000000 0.000000 -0.033692 0.000000
# 6 0.000000 0.000000 0.000000 0.000000 0.000000 0.043794
#
#
# Mechanical properties :
#
#
# Convention : Reuss Voigt Hill
#
# Bulk Modulus (GPa) = 52.12287 53.37399 52.74843
# Shear Modulus (GPa) = 29.34104 15.66645 22.50375
#
# Velocity S-wave (km/s) = 3.66094 2.67510 3.20614
# Velocity P-wave (km/s) = 6.45592 5.82425 6.14820
#
# Compressibility (1/GPa) = 0.01918544
#
# Stress axis : x y z
#
# Youngs Moduli (GPa) = 103.54002 95.90704 73.24244
#
# Poissons Ratio (x) = 0.15855 0.25975
# Poissons Ratio (y) = 0.17117 0.15210
# Poissons Ratio (z) = 0.36720 0.19917
#
# Static dielectric constant tensor:
#      x y z
#    x 4.402700 0.000000 0.000000 
#    y 0.000000 1.769570 0.000000 
#    z 0.000000 0.000000 1.757260 
# 
# From -- ./inp_files/35527.got.cif
#   From: 2010.05.17/outbox.cif.g08.bks.cpg/sg21_18_cif.got.tgz:35527.got - 2010.06.03 23:14:55.
