data_PCOD9325136
_publ_section_title
;
Structure prediction by ZEFSAII (Michael W. Deem and Ramdas Pophale) SiO2 
 PCOD9325136
Probable space group: C 2 2 2
;
_chemical_formula_sum "Si O2"
_cell_formula_units_Z 44
_cell_length_a 25.740699
_cell_length_b 13.627065
_cell_length_c 5.650843
_cell_angle_alpha 90.000000
_cell_angle_beta 90.000000
_cell_angle_gamma 90.000000
_cell_volume 1982.147207
_symmetry_space_group_name_H-M "C 2 2 2"
_symmetry_group_IT_number 21
_symmetry_cell_setting 'orthorhombic'
loop_
_space_group_symop_operation_xyz
x,y,z
-x,-y,z
x,-y,-z
-x,y,-z
1/2+x,1/2+y,z
1/2-x,1/2-y,z
1/2+x,1/2-y,-z
1/2-x,1/2+y,-z
loop_
_atom_site_type_symbol
_atom_site_label
_atom_site_fract_x
_atom_site_fract_y
_atom_site_fract_z
Si Si1 0.000000 0.311147 0.000000
Si Si2 0.421854 0.905535 0.336878
Si Si3 0.173903 0.372531 0.992182
Si Si4 0.821016 0.898873 0.356700
Si Si5 0.750000 0.250000 0.347978
Si Si6 0.257979 0.500000 0.000000
Si Si7 0.903251 0.759693 0.281999
O O1 0.954469 0.247855 0.878617
O O2 0.027029 0.381739 0.810666
O O3 0.373205 0.916505 0.161307
O O4 0.412552 0.808981 0.493353
O O5 0.426127 0.000000 0.500000
O O6 0.215640 0.323338 0.813795
O O7 0.210138 0.445251 0.148800
O O8 0.144714 0.291285 0.144458
O O9 0.787678 0.816688 0.493239
O O10 0.880591 0.864570 0.351195
O O11 0.813132 0.000000 0.500000
O O12 0.800300 0.920421 0.092577
#
# Coordination Sequence:
#
# PCOD9325136 Si02
#       7
#     4   8   8   8   4   4   8
#     4  10  26  45  72  97 136 182 236 295 354 401
#     4  11  24  43  70 103 139 179 228 287 347 419
#     4  11  23  38  65 101 145 182 224 271 341 415
#     4  12  26  42  69  99 140 182 233 282 344 411
#     4  12  22  44  64 102 144 186 224 284 338 422
#     4  12  24  40  64 102 140 190 224 272 336 420
#     4  11  24  45  67 100 136 182 230 291 345 415
#
# _framework density 22.198148
#
# number of rings (size 3 to 8) (size 9 to 14) (size 15 to 20)
#    0.000    0.727    3.636    3.818    2.545    4.364 
#    0.000    0.000    0.000    8.182    0.000    0.000 
#    0.000    0.000    0.000    0.000    0.000    0.000 
#
# Total GULP energy -122641.895170 kJ/mol
# GULP energy per Si atom -5574.631599 kJ/mol
# Density = 2.214762 g / cm^3
# Si number density = 22.198148 Si / 1000 Ang^3
#
#
#
# Elastic Constant Matrix: (Units=GPa)
#
#
# Indices 1 2 3 4 5 6 
#
# 1 127.5547 50.3349 35.6766 0.0000 0.0000 0.0000
# 2 50.3349 85.6292 29.3265 0.0000 0.0000 0.0000
# 3 35.6766 29.3265 70.8891 0.0000 0.0000 0.0000
# 4 0.0000 0.0000 0.0000 26.9944 0.0000 0.0000
# 5 0.0000 0.0000 0.0000 0.0000 58.6882 0.0000
# 6 0.0000 0.0000 0.0000 0.0000 0.0000 32.3366
#
#
#
# Elastic Compliance Matrix: (Units=1/GPa)
#
#
# Indices 1 2 3 4 5 6 
#
# 1 0.010825 -0.005240 -0.003280 0.000000 0.000000 0.000000
# 2 -0.005240 0.016142 -0.004041 0.000000 0.000000 0.000000
# 3 -0.003280 -0.004041 0.017429 0.000000 0.000000 0.000000
# 4 0.000000 0.000000 0.000000 0.037045 0.000000 0.000000
# 5 0.000000 0.000000 0.000000 0.000000 0.017039 0.000000
# 6 0.000000 0.000000 0.000000 0.000000 0.000000 0.030925
#
#
# Mechanical properties :
#
#
# Convention : Reuss Voigt Hill
#
# Bulk Modulus (GPa) = 51.88216 57.19433 54.53825
# Shear Modulus (GPa) = 31.06524 34.85284 32.95904
#
# Velocity S-wave (km/s) = 3.74498 3.96672 3.85745
# Velocity P-wave (km/s) = 6.49022 6.84113 6.66798
#
# Compressibility (1/GPa) = 0.01927445
#
# Stress axis : x y z
#
# Youngs Moduli (GPa) = 92.37948 61.94918 57.37519
#
# Poissons Ratio (x) = 0.32460 0.18820
# Poissons Ratio (y) = 0.48404 0.23185
# Poissons Ratio (z) = 0.30303 0.25033
#
# Static dielectric constant tensor:
#      x y z
#    x 1.795720 0.000000 0.000000 
#    y 0.000000 1.977780 0.000000 
#    z 0.000000 0.000000 1.924150 
# 
# From -- ./inp_files/7293.got.cif
#   From: 2010.05.17/outbox.cif.g08.bks.cpg/sg21_4_cif.got.tgz:7293.got - 2010.06.03 23:14:55.
