data_PCOD9325425
_publ_section_title
;
Structure prediction by ZEFSAII (Michael W. Deem and Ramdas Pophale) SiO2 
 PCOD9325425
Probable space group: C 2 2 2
;
_chemical_formula_sum "Si O2"
_cell_formula_units_Z 32
_cell_length_a 13.619163
_cell_length_b 6.563489
_cell_length_c 17.614731
_cell_angle_alpha 90.000000
_cell_angle_beta 90.000000
_cell_angle_gamma 90.000000
_cell_volume 1574.567180
_symmetry_space_group_name_H-M "C 2 2 2"
_symmetry_group_IT_number 21
_symmetry_cell_setting 'orthorhombic'
loop_
_space_group_symop_operation_xyz
x,y,z
-x,-y,z
x,-y,-z
-x,y,-z
1/2+x,1/2+y,z
1/2-x,1/2-y,z
1/2+x,1/2-y,-z
1/2-x,1/2+y,-z
loop_
_atom_site_type_symbol
_atom_site_label
_atom_site_fract_x
_atom_site_fract_y
_atom_site_fract_z
Si Si1 0.250000 0.750000 0.316277
Si Si2 0.000000 0.500000 0.500000
Si Si3 0.349296 0.616500 0.764448
Si Si4 0.853839 0.638665 0.378463
Si Si5 0.638172 0.331622 0.934176
Si Si6 0.000000 0.500000 0.000000
O O1 0.318652 0.602996 0.266591
O O2 0.180213 0.593120 0.361202
O O3 0.930365 0.634198 0.446141
O O4 0.250000 0.750000 0.773655
O O5 0.398707 0.745760 0.695959
O O6 0.387858 0.594363 0.849389
O O7 0.750000 0.750000 0.396126
O O8 0.750000 0.250000 0.938010
O O9 0.568457 0.142842 0.950356
O O10 0.625373 0.500000 0.000000
#
# Coordination Sequence:
#
# PCOD9325425 Si02
#       6
#     4   2   8   8   8   2
#     4   8  16  38  66  84 128 164 202 272 322 384
#     4  12  24  38  70  94 124 168 220 268 322 392
#     4   8  18  37  63  92 126 170 212 260 334 389
#     4   9  21  41  60  94 127 164 211 264 325 386
#     4  11  23  40  66  97 132 176 222 276 334 387
#     4  12  26  42  56  96 136 166 226 272 316 398
#
# _framework density 20.323043999999999
#
# number of rings (size 3 to 8) (size 9 to 14) (size 15 to 20)
#    0.000    3.000    1.250    0.375    3.500    3.000 
#    0.000   12.500    0.000    0.000    0.000    0.000 
#    0.000    0.000    0.000    0.000    0.000    0.000 
#
# Total GULP energy -89191.032775 kJ/mol
# GULP energy per Si atom -5574.439548 kJ/mol
# Density = 2.027679 g / cm^3
# Si number density = 20.323044 Si / 1000 Ang^3
#
#
#
# Elastic Constant Matrix: (Units=GPa)
#
#
# Indices 1 2 3 4 5 6 
#
# 1 89.6927 43.0775 58.5588 0.0000 0.0000 0.0000
# 2 43.0775 142.0724 67.5807 0.0000 0.0000 0.0000
# 3 58.5588 67.5807 189.8622 0.0000 0.0000 0.0000
# 4 0.0000 0.0000 0.0000 9.8727 0.0000 0.0000
# 5 0.0000 0.0000 0.0000 0.0000 -74.3977 0.0000
# 6 0.0000 0.0000 0.0000 0.0000 0.0000 22.2749
#
#
#
# Elastic Compliance Matrix: (Units=1/GPa)
#
#
# Indices 1 2 3 4 5 6 
#
# 1 0.014827 -0.002793 -0.003579 0.000000 0.000000 0.000000
# 2 -0.002793 0.009000 -0.002342 0.000000 0.000000 0.000000
# 3 -0.003579 -0.002342 0.007204 0.000000 0.000000 0.000000
# 4 0.000000 0.000000 0.000000 0.101290 0.000000 0.000000
# 5 0.000000 0.000000 0.000000 0.000000 -0.013441 0.000000
# 6 0.000000 0.000000 0.000000 0.000000 0.000000 0.044894
#
#
# Mechanical properties :
#
#
# Convention : Reuss Voigt Hill
#
# Bulk Modulus (GPa) = 73.51227 84.45124 78.98176
# Shear Modulus (GPa) = 26.91993 8.37733 17.64863
#
# Velocity S-wave (km/s) = 3.64346 2.03249 2.95007
# Velocity P-wave (km/s) = 7.34507 6.86678 7.10995
#
# Compressibility (1/GPa) = 0.01360317
#
# Stress axis : x y z
#
# Youngs Moduli (GPa) = 67.44288 111.11618 138.80480
#
# Poissons Ratio (x) = 0.31039 0.49677
# Poissons Ratio (y) = 0.18839 0.32505
# Poissons Ratio (z) = 0.24137 0.26021
#
# Static dielectric constant tensor:
#      x y z
#    x 1.729400 0.000000 0.000000 
#    y 0.000000 1.690990 0.000000 
#    z 0.000000 0.000000 1.782000 
# 
# From -- ./inp_files/36517.got.cif
#   From: 2010.05.17/outbox.cif.g08.bks.cpg/sg21_19_cif.got.tgz:36517.got - 2010.06.03 23:14:55.
