data_PCOD9325548
_publ_section_title
;
Structure prediction by ZEFSAII (Michael W. Deem and Ramdas Pophale) SiO2 
 PCOD9325548
Probable space group: C 2 2 2
;
_chemical_formula_sum "Si O2"
_cell_formula_units_Z 34
_cell_length_a 12.987009
_cell_length_b 18.298382
_cell_length_c 6.538158
_cell_angle_alpha 90.000000
_cell_angle_beta 90.000000
_cell_angle_gamma 90.000000
_cell_volume 1553.736051
_symmetry_space_group_name_H-M "C 2 2 2"
_symmetry_group_IT_number 21
_symmetry_cell_setting 'orthorhombic'
loop_
_space_group_symop_operation_xyz
x,y,z
-x,-y,z
x,-y,-z
-x,y,-z
1/2+x,1/2+y,z
1/2-x,1/2-y,z
1/2+x,1/2-y,-z
1/2-x,1/2+y,-z
loop_
_atom_site_type_symbol
_atom_site_label
_atom_site_fract_x
_atom_site_fract_y
_atom_site_fract_z
Si Si1 0.857800 0.434750 0.666312
Si Si2 0.500000 0.000000 0.000000
Si Si3 0.500000 0.624595 0.000000
Si Si4 0.358513 0.705891 0.281320
Si Si5 0.127357 0.924135 0.621801
Si Si6 0.500000 0.187739 0.500000
O O1 0.867579 0.500000 0.500000
O O2 0.739552 0.428373 0.724401
O O3 0.927613 0.452433 0.858108
O O4 0.905975 0.362641 0.569702
O O5 0.397916 0.667935 0.074442
O O6 0.541045 0.584735 0.204423
O O7 0.250000 0.750000 0.273267
O O8 0.362609 0.644367 0.462700
O O9 0.451264 0.761581 0.328303
O O10 0.114969 0.000000 0.500000
#
# Coordination Sequence:
#
# PCOD9325548 Si02
#       6
#     8   2   4   8   8   4
#     4  11  24  44  72 108 145 188 237 296 371 435
#     4  12  22  42  72 118 136 184 244 304 356 438
#     4  12  28  50  74 113 139 194 258 296 361 441
#     4  12  27  47  75 108 149 194 239 306 370 434
#     4  11  27  50  76 103 151 199 244 305 360 434
#     4  12  21  46  75 100 146 188 230 298 369 426
#
# _framework density 21.882738
#
# number of rings (size 3 to 8) (size 9 to 14) (size 15 to 20)
#    0.000    0.471    7.059    0.000    0.000   13.176 
#    0.000    0.000    0.000    0.000    0.000    0.000 
#    0.000    0.000    0.000    0.000    0.000    0.000 
#
# Total GULP energy -95018.062927 kJ/mol
# GULP energy per Si atom -5589.297819 kJ/mol
# Density = 2.183293 g / cm^3
# Si number density = 21.882738 Si / 1000 Ang^3
#
#
#
# Elastic Constant Matrix: (Units=GPa)
#
#
# Indices 1 2 3 4 5 6 
#
# 1 162.3369 41.3030 45.1145 0.0000 0.0000 0.0000
# 2 41.3030 114.4391 43.6513 0.0000 0.0000 0.0000
# 3 45.1145 43.6513 93.4360 0.0000 0.0000 0.0000
# 4 0.0000 0.0000 0.0000 30.4528 0.0000 0.0000
# 5 0.0000 0.0000 0.0000 0.0000 72.0287 0.0000
# 6 0.0000 0.0000 0.0000 0.0000 0.0000 203.4687
#
#
#
# Elastic Compliance Matrix: (Units=1/GPa)
#
#
# Indices 1 2 3 4 5 6 
#
# 1 0.007342 -0.001579 -0.002807 0.000000 0.000000 0.000000
# 2 -0.001579 0.010973 -0.004364 0.000000 0.000000 0.000000
# 3 -0.002807 -0.004364 0.014097 0.000000 0.000000 0.000000
# 4 0.000000 0.000000 0.000000 0.032838 0.000000 0.000000
# 5 0.000000 0.000000 0.000000 0.000000 0.013883 0.000000
# 6 0.000000 0.000000 0.000000 0.000000 0.000000 0.004915
#
#
# Mechanical properties :
#
#
# Convention : Reuss Voigt Hill
#
# Bulk Modulus (GPa) = 67.06428 70.03886 68.55157
# Shear Modulus (GPa) = 46.94060 77.19958 62.07009
#
# Velocity S-wave (km/s) = 4.63654 5.94604 5.33165
# Velocity P-wave (km/s) = 7.70565 8.90036 8.32446
#
# Compressibility (1/GPa) = 0.01491107
#
# Stress axis : x y z
#
# Youngs Moduli (GPa) = 136.20375 91.13546 70.93890
#
# Poissons Ratio (x) = 0.14391 0.19915
# Poissons Ratio (y) = 0.21507 0.30956
# Poissons Ratio (z) = 0.38236 0.39769
#
# Static dielectric constant tensor:
#      x y z
#    x 1.790930 0.000000 0.000000 
#    y 0.000000 1.627380 0.000000 
#    z 0.000000 0.000000 1.658310 
# 
# From -- ./inp_files/3574.got.cif
#   From: 2010.05.17/outbox.cif.g08.bks.cpg/sg21_2_cif.got.tgz:3574.got - 2010.06.03 23:14:55.
