data_PCOD9325568
_publ_section_title
;
Structure prediction by ZEFSAII (Michael W. Deem and Ramdas Pophale) SiO2 
 PCOD9325568
Probable space group: C 2 2 2
;
_chemical_formula_sum "Si O2"
_cell_formula_units_Z 24
_cell_length_a 10.653744
_cell_length_b 18.126861
_cell_length_c 5.137522
_cell_angle_alpha 90.000000
_cell_angle_beta 90.000000
_cell_angle_gamma 90.000000
_cell_volume 992.152785
_symmetry_space_group_name_H-M "C 2 2 2"
_symmetry_group_IT_number 21
_symmetry_cell_setting 'orthorhombic'
loop_
_space_group_symop_operation_xyz
x,y,z
-x,-y,z
x,-y,-z
-x,y,-z
1/2+x,1/2+y,z
1/2-x,1/2-y,z
1/2+x,1/2-y,-z
1/2-x,1/2+y,-z
loop_
_atom_site_type_symbol
_atom_site_label
_atom_site_fract_x
_atom_site_fract_y
_atom_site_fract_z
Si Si1 0.118688 0.751581 0.674633
Si Si2 0.912384 0.589711 0.239865
Si Si3 0.801600 0.000000 0.000000
Si Si4 0.000000 0.118313 0.000000
O O1 0.250000 0.750000 0.522361
O O2 0.129116 0.674277 0.824737
O O3 0.081908 0.825545 0.825569
O O4 0.000000 0.740038 0.500000
O O5 0.000000 0.583926 0.500000
O O6 0.789376 0.538463 0.212621
O O7 0.000000 0.571771 0.000000
O O8 0.894777 0.937155 0.883026
#
# Coordination Sequence:
#
# PCOD9325568 Si02
#       4
#     8   8   4   4
#     4  11  24  46  76 110 148 208 268 326 391 474
#     4  11  25  47  78 111 152 206 257 317 388 475
#     4  11  25  46  72 114 157 197 262 324 410 469
#     4  11  24  48  74 107 154 204 258 335 400 468
#
# _framework density 24.189820000000001
#
# number of rings (size 3 to 8) (size 9 to 14) (size 15 to 20)
#    0.000    1.000    5.000    0.500    0.000    9.333 
#    6.000    1.667    0.000    0.000    0.000    0.000 
#    0.000    0.000    0.000    0.000    0.000    0.000 
#
# Total GULP energy -66850.444140 kJ/mol
# GULP energy per Si atom -5570.870345 kJ/mol
# Density = 2.413476 g / cm^3
# Si number density = 24.189820 Si / 1000 Ang^3
#
#
#
# Elastic Constant Matrix: (Units=GPa)
#
#
# Indices 1 2 3 4 5 6 
#
# 1 225.1562 69.3769 43.7386 0.0000 0.0000 0.0000
# 2 69.3769 193.0794 21.8955 0.0000 0.0000 0.0000
# 3 43.7386 21.8955 73.0704 0.0000 0.0000 0.0000
# 4 0.0000 0.0000 0.0000 25.7613 0.0000 0.0000
# 5 0.0000 0.0000 0.0000 0.0000 27.3320 0.0000
# 6 0.0000 0.0000 0.0000 0.0000 0.0000 7.0795
#
#
#
# Elastic Compliance Matrix: (Units=1/GPa)
#
#
# Indices 1 2 3 4 5 6 
#
# 1 0.005495 -0.001658 -0.002792 0.000000 0.000000 0.000000
# 2 -0.001658 0.005861 -0.000764 0.000000 0.000000 0.000000
# 3 -0.002792 -0.000764 0.015586 0.000000 0.000000 0.000000
# 4 0.000000 0.000000 0.000000 0.038818 0.000000 0.000000
# 5 0.000000 0.000000 0.000000 0.000000 0.036587 0.000000
# 6 0.000000 0.000000 0.000000 0.000000 0.000000 0.141253
#
#
# Mechanical properties :
#
#
# Convention : Reuss Voigt Hill
#
# Bulk Modulus (GPa) = 60.55549 84.59198 72.57373
# Shear Modulus (GPa) = 19.26542 35.78757 27.52649
#
# Velocity S-wave (km/s) = 2.82516 3.85053 3.37699
# Velocity P-wave (km/s) = 5.97745 7.40370 6.72847
#
# Compressibility (1/GPa) = 0.01651378
#
# Stress axis : x y z
#
# Youngs Moduli (GPa) = 181.99891 170.60493 64.16104
#
# Poissons Ratio (x) = 0.28280 0.17915
# Poissons Ratio (y) = 0.30169 0.04903
# Poissons Ratio (z) = 0.50818 0.13037
#
# Static dielectric constant tensor:
#      x y z
#    x 1.916070 0.000000 0.000000 
#    y 0.000000 2.158290 0.000000 
#    z 0.000000 0.000000 1.923780 
# 
# From -- ./inp_files/2077.got.cif
#   From: 2010.05.17/outbox.cif.g08.bks.cpg/sg21_2_cif.got.tgz:2077.got - 2010.06.03 23:14:55.
