data_PCOD9325759
_publ_section_title
;
Structure prediction by ZEFSAII (Michael W. Deem and Ramdas Pophale) SiO2 
 PCOD9325759
Probable space group: C 2 2 2
;
_chemical_formula_sum "Si O2"
_cell_formula_units_Z 18
_cell_length_a 8.126311
_cell_length_b 19.943203
_cell_length_c 4.703553
_cell_angle_alpha 90.000000
_cell_angle_beta 90.000000
_cell_angle_gamma 90.000000
_cell_volume 762.279764
_symmetry_space_group_name_H-M "C 2 2 2"
_symmetry_group_IT_number 21
_symmetry_cell_setting 'orthorhombic'
loop_
_space_group_symop_operation_xyz
x,y,z
-x,-y,z
x,-y,-z
-x,y,-z
1/2+x,1/2+y,z
1/2-x,1/2-y,z
1/2+x,1/2-y,-z
1/2-x,1/2+y,-z
loop_
_atom_site_type_symbol
_atom_site_label
_atom_site_fract_x
_atom_site_fract_y
_atom_site_fract_z
Si Si1 0.500000 0.000000 0.500000
Si Si2 0.665933 0.115306 0.151693
Si Si3 0.326683 0.681940 0.667231
O O1 0.617161 0.044517 0.296613
O O2 0.705922 0.161574 0.415130
O O3 0.500000 0.137698 0.000000
O O4 0.807529 0.125490 0.913775
O O5 0.500000 0.687593 0.500000
O O6 0.250000 0.750000 0.794142
#
# Coordination Sequence:
#
# PCOD9325759 Si02
#       3
#     2   8   8
#     4  12  26  48  84 108 150 212 268 294 378 456
#     4  12  24  46  78 106 148 203 254 308 368 457
#     4  12  26  46  75 117 156 195 246 317 391 453
#
# _framework density 23.613377
#
# number of rings (size 3 to 8) (size 9 to 14) (size 15 to 20)
#    0.000    0.000    4.444    6.000    0.000    0.000 
#    0.000    1.111    9.778    0.000    0.000    0.000 
#    0.000    0.000    0.000    0.000    0.000    0.000 
#
# Total GULP energy -50264.441543 kJ/mol
# GULP energy per Si atom -5584.937949 kJ/mol
# Density = 2.355963 g / cm^3
# Si number density = 23.613377 Si / 1000 Ang^3
#
#
#
# Elastic Constant Matrix: (Units=GPa)
#
#
# Indices 1 2 3 4 5 6 
#
# 1 124.7767 63.1526 47.3020 0.0000 0.0000 0.0000
# 2 63.1526 109.1112 57.1764 0.0000 0.0000 0.0000
# 3 47.3020 57.1764 163.1633 0.0000 0.0000 0.0000
# 4 0.0000 0.0000 0.0000 56.9938 0.0000 0.0000
# 5 0.0000 0.0000 0.0000 0.0000 49.6374 0.0000
# 6 0.0000 0.0000 0.0000 0.0000 0.0000 27.1548
#
#
#
# Elastic Compliance Matrix: (Units=1/GPa)
#
#
# Indices 1 2 3 4 5 6 
#
# 1 0.011533 -0.006030 -0.001230 0.000000 0.000000 0.000000
# 2 -0.006030 0.014380 -0.003291 0.000000 0.000000 0.000000
# 3 -0.001230 -0.003291 0.007639 0.000000 0.000000 0.000000
# 4 0.000000 0.000000 0.000000 0.017546 0.000000 0.000000
# 5 0.000000 0.000000 0.000000 0.000000 0.020146 0.000000
# 6 0.000000 0.000000 0.000000 0.000000 0.000000 0.036826
#
#
# Mechanical properties :
#
#
# Convention : Reuss Voigt Hill
#
# Bulk Modulus (GPa) = 80.33171 81.36813 80.84992
# Shear Modulus (GPa) = 37.50336 42.05188 39.77762
#
# Velocity S-wave (km/s) = 3.98958 4.22459 4.10876
# Velocity P-wave (km/s) = 7.43745 7.63738 7.53808
#
# Compressibility (1/GPa) = 0.01244838
#
# Stress axis : x y z
#
# Youngs Moduli (GPa) = 86.70880 69.54216 130.91332
#
# Poissons Ratio (x) = 0.41937 0.16105
# Poissons Ratio (y) = 0.52289 0.43080
# Poissons Ratio (z) = 0.10667 0.22885
#
# Static dielectric constant tensor:
#      x y z
#    x 1.939130 0.000000 0.000000 
#    y 0.000000 1.927530 0.000000 
#    z 0.000000 0.000000 1.894250 
# 
# From -- ./inp_files/889.got.cif
#   From: 2010.05.17/outbox.cif.g08.bks.cpg/sg21_1_cif.got.tgz:889.got - 2010.06.03 23:14:55.
