data_PCOD9325231
_publ_section_title
;
Structure prediction by ZEFSAII (Michael W. Deem and Ramdas Pophale) SiO2 
 PCOD9325231
Probable space group: C 2 2 2
;
_chemical_formula_sum "Si O2"
_cell_formula_units_Z 40
_cell_length_a 9.773093
_cell_length_b 21.351458
_cell_length_c 9.367347
_cell_angle_alpha 90.000000
_cell_angle_beta 90.000000
_cell_angle_gamma 90.000000
_cell_volume 1954.682282
_symmetry_space_group_name_H-M "C 2 2 2"
_symmetry_group_IT_number 21
_symmetry_cell_setting 'orthorhombic'
loop_
_space_group_symop_operation_xyz
x,y,z
-x,-y,z
x,-y,-z
-x,y,-z
1/2+x,1/2+y,z
1/2-x,1/2-y,z
1/2+x,1/2-y,-z
1/2-x,1/2+y,-z
loop_
_atom_site_type_symbol
_atom_site_label
_atom_site_fract_x
_atom_site_fract_y
_atom_site_fract_z
Si Si1 0.597771 0.314760 0.736058
Si Si2 0.737009 0.500000 0.500000
Si Si3 0.886131 0.455118 0.778441
Si Si4 0.500000 0.399245 0.500000
Si Si5 0.916147 0.676577 0.348063
Si Si6 0.324242 0.500000 0.000000
Si Si7 0.000000 0.109790 0.000000
O O1 0.500657 0.355421 0.636817
O O2 0.748061 0.321651 0.660596
O O3 0.551884 0.242563 0.728209
O O4 0.583020 0.345609 0.892003
O O5 0.832339 0.487069 0.634037
O O6 0.634303 0.441712 0.492722
O O7 0.943831 0.386818 0.740021
O O8 0.000000 0.500000 0.840079
O O9 0.761184 0.460130 0.886965
O O10 0.000000 0.674407 0.500000
O O11 0.407276 0.556307 0.078922
#
# Coordination Sequence:
#
# PCOD9325231 Si02
#       7
#     8   4   8   4   8   4   4
#     4  11  23  42  71  98 134 180 233 291 346 412
#     4  11  21  36  64  96 127 169 228 286 334 395
#     4  12  24  41  64  95 136 178 217 274 345 420
#     4  11  20  38  64 100 125 164 240 290 337 390
#     4  11  23  44  68  97 139 184 230 284 347 420
#     4  11  23  44  68  96 135 177 224 286 344 407
#     4  11  22  46  72  98 133 176 236 294 345 410
#
# _framework density 20.463684000000001
#
# number of rings (size 3 to 8) (size 9 to 14) (size 15 to 20)
#    0.000    0.800    5.000    3.000    0.000    3.200 
#    3.600    0.000    0.000    0.000    0.000    0.000 
#    0.000    0.000    0.000    0.000    0.000    0.000 
#
# Total GULP energy -111406.657277 kJ/mol
# GULP energy per Si atom -5570.332864 kJ/mol
# Density = 2.041711 g / cm^3
# Si number density = 20.463684 Si / 1000 Ang^3
#
#
#
# Elastic Constant Matrix: (Units=GPa)
#
#
# Indices 1 2 3 4 5 6 
#
# 1 57.0707 31.1277 25.9633 0.0000 0.0000 0.0000
# 2 31.1277 193.1644 50.0850 0.0000 0.0000 0.0000
# 3 25.9633 50.0850 83.3583 0.0000 0.0000 0.0000
# 4 0.0000 0.0000 0.0000 50.9863 0.0000 0.0000
# 5 0.0000 0.0000 0.0000 0.0000 30.4339 0.0000
# 6 0.0000 0.0000 0.0000 0.0000 0.0000 33.4547
#
#
#
# Elastic Compliance Matrix: (Units=1/GPa)
#
#
# Indices 1 2 3 4 5 6 
#
# 1 0.021050 -0.002004 -0.005352 0.000000 0.000000 0.000000
# 2 -0.002004 0.006323 -0.003175 0.000000 0.000000 0.000000
# 3 -0.005352 -0.003175 0.015571 0.000000 0.000000 0.000000
# 4 0.000000 0.000000 0.000000 0.019613 0.000000 0.000000
# 5 0.000000 0.000000 0.000000 0.000000 0.032858 0.000000
# 6 0.000000 0.000000 0.000000 0.000000 0.000000 0.029891
#
#
# Mechanical properties :
#
#
# Convention : Reuss Voigt Hill
#
# Bulk Modulus (GPa) = 45.70058 60.88282 53.29170
# Shear Modulus (GPa) = 32.53865 38.06947 35.30406
#
# Velocity S-wave (km/s) = 3.99189 4.31785 4.15807
# Velocity P-wave (km/s) = 6.60515 7.39423 7.01080
#
# Compressibility (1/GPa) = 0.02188156
#
# Stress axis : x y z
#
# Youngs Moduli (GPa) = 47.50543 158.14900 64.22200
#
# Poissons Ratio (x) = 0.31700 0.34372
# Poissons Ratio (y) = 0.09522 0.20390
# Poissons Ratio (z) = 0.25425 0.50210
#
# Static dielectric constant tensor:
#      x y z
#    x 1.794750 0.000000 0.000000 
#    y 0.000000 1.724440 0.000000 
#    z 0.000000 0.000000 1.647190 
# 
# From -- ./inp_files/13126.got.cif
#   From: 2010.05.17/outbox.cif.g08.bks.cpg/sg21_7_cif.got.tgz:13126.got - 2010.06.03 23:14:55.
