data_PCOD9325508
_publ_section_title
;
Structure prediction by ZEFSAII (Michael W. Deem and Ramdas Pophale) SiO2 
 PCOD9325508
Probable space group: C 2 2 2
;
_chemical_formula_sum "Si O2"
_cell_formula_units_Z 32
_cell_length_a 6.205199
_cell_length_b 30.327190
_cell_length_c 7.053827
_cell_angle_alpha 90.000000
_cell_angle_beta 90.000000
_cell_angle_gamma 90.000000
_cell_volume 1327.433245
_symmetry_space_group_name_H-M "C 2 2 2"
_symmetry_group_IT_number 21
_symmetry_cell_setting 'orthorhombic'
loop_
_space_group_symop_operation_xyz
x,y,z
-x,-y,z
x,-y,-z
-x,y,-z
1/2+x,1/2+y,z
1/2-x,1/2-y,z
1/2+x,1/2-y,-z
1/2-x,1/2+y,-z
loop_
_atom_site_type_symbol
_atom_site_label
_atom_site_fract_x
_atom_site_fract_y
_atom_site_fract_z
Si Si1 0.392421 0.638440 0.802536
Si Si2 0.001826 0.235033 0.773179
Si Si3 0.500000 0.119260 0.000000
Si Si4 0.608531 0.044801 0.296651
Si Si5 0.000000 0.932656 0.500000
O O1 0.505421 0.682452 0.734532
O O2 0.382863 0.600824 0.645759
O O3 0.500000 0.622548 0.000000
O O4 0.155104 0.649436 0.877104
O O5 0.250000 0.250000 0.712527
O O6 0.750000 0.250000 0.712725
O O7 0.000000 0.241598 0.000000
O O8 0.596802 0.085174 0.153397
O O9 0.500000 0.054549 0.500000
O O10 0.851980 0.039300 0.361889
O O11 0.500000 0.000000 0.224082
#
# Coordination Sequence:
#
# PCOD9325508 Si02
#       5
#     8   8   4   8   4
#     4  11  24  40  72  99 139 180 229 291 344 415
#     4   9  20  37  62  99 139 185 231 282 354 424
#     4  12  23  44  70 104 134 182 238 284 352 424
#     4  11  25  44  69  97 137 179 226 292 350 418
#     4  12  24  47  68 106 132 180 236 288 354 418
#
# _framework density 24.106674999999999
#
# number of rings (size 3 to 8) (size 9 to 14) (size 15 to 20)
#    0.000    1.250    5.000    0.375    8.750    2.000 
#    0.000    1.250    0.000    0.000    0.000    0.000 
#    0.000    0.000    0.000    0.000    0.000    0.000 
#
# Total GULP energy -89095.711089 kJ/mol
# GULP energy per Si atom -5568.481943 kJ/mol
# Density = 2.405181 g / cm^3
# Si number density = 24.106675 Si / 1000 Ang^3
#
#
#
# Elastic Constant Matrix: (Units=GPa)
#
#
# Indices 1 2 3 4 5 6 
#
# 1 145.2361 55.0625 14.8789 0.0000 0.0000 0.0000
# 2 55.0625 95.7170 11.2472 0.0000 0.0000 0.0000
# 3 14.8789 11.2472 92.9558 0.0000 0.0000 0.0000
# 4 0.0000 0.0000 0.0000 21.7739 0.0000 0.0000
# 5 0.0000 0.0000 0.0000 0.0000 18.2435 0.0000
# 6 0.0000 0.0000 0.0000 0.0000 0.0000 37.8783
#
#
#
# Elastic Compliance Matrix: (Units=1/GPa)
#
#
# Indices 1 2 3 4 5 6 
#
# 1 0.008866 -0.005005 -0.000814 0.000000 0.000000 0.000000
# 2 -0.005005 0.013423 -0.000823 0.000000 0.000000 0.000000
# 3 -0.000814 -0.000823 0.010988 0.000000 0.000000 0.000000
# 4 0.000000 0.000000 0.000000 0.045926 0.000000 0.000000
# 5 0.000000 0.000000 0.000000 0.000000 0.054814 0.000000
# 6 0.000000 0.000000 0.000000 0.000000 0.000000 0.026400
#
#
# Mechanical properties :
#
#
# Convention : Reuss Voigt Hill
#
# Bulk Modulus (GPa) = 50.01468 55.14291 52.57880
# Shear Modulus (GPa) = 27.72152 32.42718 30.07435
#
# Velocity S-wave (km/s) = 3.39477 3.67161 3.53590
# Velocity P-wave (km/s) = 6.01317 6.39519 6.20712
#
# Compressibility (1/GPa) = 0.01999413
#
# Stress axis : x y z
#
# Youngs Moduli (GPa) = 112.78901 74.49774 91.01158
#
# Poissons Ratio (x) = 0.37284 0.07405
# Poissons Ratio (y) = 0.56448 0.07491
# Poissons Ratio (z) = 0.09176 0.06132
#
# Static dielectric constant tensor:
#      x y z
#    x 2.211950 0.000000 0.000000 
#    y 0.000000 1.886510 0.000000 
#    z 0.000000 0.000000 1.867140 
# 
# From -- ./inp_files/9210.got.cif
#   From: 2010.05.17/outbox.cif.g08.bks.cpg/sg21_5_cif.got.tgz:9210.got - 2010.06.03 23:14:55.
