data_PCOD9325200
_publ_section_title
;
Structure prediction by ZEFSAII (Michael W. Deem and Ramdas Pophale) SiO2 
 PCOD9325200
Probable space group: C 2 2 2
;
_chemical_formula_sum "Si O2"
_cell_formula_units_Z 40
_cell_length_a 6.694330
_cell_length_b 17.443749
_cell_length_c 17.053447
_cell_angle_alpha 90.000000
_cell_angle_beta 90.000000
_cell_angle_gamma 90.000000
_cell_volume 1991.402839
_symmetry_space_group_name_H-M "C 2 2 2"
_symmetry_group_IT_number 21
_symmetry_cell_setting 'orthorhombic'
loop_
_space_group_symop_operation_xyz
x,y,z
-x,-y,z
x,-y,-z
-x,y,-z
1/2+x,1/2+y,z
1/2-x,1/2-y,z
1/2+x,1/2-y,-z
1/2-x,1/2+y,-z
loop_
_atom_site_type_symbol
_atom_site_label
_atom_site_fract_x
_atom_site_fract_y
_atom_site_fract_z
Si Si1 0.833894 0.327917 0.944656
Si Si2 0.848396 0.940820 0.440319
Si Si3 0.718605 0.841944 0.299631
Si Si4 0.628419 0.176614 0.194878
Si Si5 0.516815 0.590682 0.158366
O O1 0.750000 0.250000 0.983287
O O2 0.655672 0.380353 0.913291
O O3 0.959984 0.300651 0.868458
O O4 0.000000 0.365512 0.000000
O O5 0.742051 0.885344 0.381570
O O6 0.000000 0.897446 0.500000
O O7 0.737439 0.000000 0.500000
O O8 0.000000 0.000000 0.395742
O O9 0.750000 0.750000 0.305259
O O10 0.499246 0.858721 0.264766
O O11 0.876890 0.875911 0.236780
O O12 0.750000 0.250000 0.222858
O O13 0.793012 0.123179 0.155453
O O14 0.500000 0.500000 0.160608
#
# Coordination Sequence:
#
# PCOD9325200 Si02
#       5
#     8   8   8   8   8
#     4  11  23  39  68  92 125 179 225 269 331 399
#     4   6  16  35  62  87 132 172 207 263 334 392
#     4  11  19  34  70  99 125 174 224 273 326 396
#     4  11  20  40  61  99 127 162 231 269 324 393
#     4  11  24  41  64  96 135 171 217 283 332 388
#
# _framework density 20.086341999999998
#
# number of rings (size 3 to 8) (size 9 to 14) (size 15 to 20)
#    1.200    0.800    4.000    2.400    0.000    3.200 
#    0.000    3.000    4.400    1.200    0.000    0.000 
#    0.000    0.000    0.000    0.000    0.000    0.000 
#
# Total GULP energy -111407.639526 kJ/mol
# GULP energy per Si atom -5570.381976 kJ/mol
# Density = 2.004063 g / cm^3
# Si number density = 20.086342 Si / 1000 Ang^3
#
#
#
# Elastic Constant Matrix: (Units=GPa)
#
#
# Indices 1 2 3 4 5 6 
#
# 1 124.2994 45.3698 37.8768 0.0000 0.0000 0.0000
# 2 45.3698 119.2236 31.7969 0.0000 0.0000 0.0000
# 3 37.8768 31.7969 88.0079 0.0000 0.0000 0.0000
# 4 0.0000 0.0000 0.0000 14.9805 0.0000 0.0000
# 5 0.0000 0.0000 0.0000 0.0000 13.4457 0.0000
# 6 0.0000 0.0000 0.0000 0.0000 0.0000 18.2377
#
#
#
# Elastic Compliance Matrix: (Units=1/GPa)
#
#
# Indices 1 2 3 4 5 6 
#
# 1 0.010134 -0.002980 -0.003285 0.000000 0.000000 0.000000
# 2 -0.002980 0.010159 -0.002388 0.000000 0.000000 0.000000
# 3 -0.003285 -0.002388 0.013639 0.000000 0.000000 0.000000
# 4 0.000000 0.000000 0.000000 0.066753 0.000000 0.000000
# 5 0.000000 0.000000 0.000000 0.000000 0.074373 0.000000
# 6 0.000000 0.000000 0.000000 0.000000 0.000000 0.054831
#
#
# Mechanical properties :
#
#
# Convention : Reuss Voigt Hill
#
# Bulk Modulus (GPa) = 60.14609 62.40199 61.27404
# Shear Modulus (GPa) = 19.78349 23.76529 21.77439
#
# Velocity S-wave (km/s) = 3.14175 3.44344 3.29605
# Velocity P-wave (km/s) = 6.57036 6.85157 6.71244
#
# Compressibility (1/GPa) = 0.01662618
#
# Stress axis : x y z
#
# Youngs Moduli (GPa) = 98.67939 98.43956 73.31998
#
# Poissons Ratio (x) = 0.29339 0.24083
# Poissons Ratio (y) = 0.29410 0.17505
# Poissons Ratio (z) = 0.32412 0.23503
#
# Static dielectric constant tensor:
#      x y z
#    x 1.770670 0.000000 0.000000 
#    y 0.000000 1.719810 0.000000 
#    z 0.000000 0.000000 1.748130 
# 
# From -- ./inp_files/34677.got.cif
#   From: 2010.05.17/outbox.cif.g08.bks.cpg/sg21_18_cif.got.tgz:34677.got - 2010.06.03 23:14:55.
