data_PCOD9325662
_publ_section_title
;
Structure prediction by ZEFSAII (Michael W. Deem and Ramdas Pophale) SiO2 
 PCOD9325662
Probable space group: C 2 2 2
;
_chemical_formula_sum "Si O2"
_cell_formula_units_Z 18
_cell_length_a 8.262164
_cell_length_b 18.724443
_cell_length_c 4.818806
_cell_angle_alpha 90.000000
_cell_angle_beta 90.000000
_cell_angle_gamma 90.000000
_cell_volume 745.490582
_symmetry_space_group_name_H-M "C 2 2 2"
_symmetry_group_IT_number 21
_symmetry_cell_setting 'orthorhombic'
loop_
_space_group_symop_operation_xyz
x,y,z
-x,-y,z
x,-y,-z
-x,y,-z
1/2+x,1/2+y,z
1/2-x,1/2-y,z
1/2+x,1/2-y,-z
1/2-x,1/2+y,-z
loop_
_atom_site_type_symbol
_atom_site_label
_atom_site_fract_x
_atom_site_fract_y
_atom_site_fract_z
Si Si1 0.243921 0.574890 0.896078
Si Si2 0.807313 0.170311 0.431969
Si Si3 0.500000 0.500000 0.500000
O O1 0.192229 0.635977 0.675332
O O2 0.388661 0.543997 0.707844
O O3 0.165001 0.500000 0.000000
O O4 0.287768 0.618774 0.168290
O O5 0.750000 0.250000 0.370192
O O6 0.000000 0.175409 0.500000
#
# Coordination Sequence:
#
# PCOD9325662 Si02
#       3
#     8   8   2
#     4  12  21  36  63  93 118 153 208 260 293 342
#     4  12  24  39  60  91 129 158 195 247 306 361
#     4  12  18  32  66  88 124 140 212 268 300 320
#
# _framework density 24.145177
#
# number of rings (size 3 to 8) (size 9 to 14) (size 15 to 20)
#    0.000    0.000    6.667    6.000    0.000    0.000 
#    0.000    0.000    0.000    8.000    0.000    0.000 
#    0.000    0.000    0.000    0.000    0.000    0.000 
#
# Total GULP energy -50163.337850 kJ/mol
# GULP energy per Si atom -5573.704206 kJ/mol
# Density = 2.409022 g / cm^3
# Si number density = 24.145177 Si / 1000 Ang^3
#
#
#
# Elastic Constant Matrix: (Units=GPa)
#
#
# Indices 1 2 3 4 5 6 
#
# 1 75.1549 55.3640 41.3000 0.0000 0.0000 0.0000
# 2 55.3640 247.1473 80.7893 0.0000 0.0000 0.0000
# 3 41.3000 80.7893 214.6928 0.0000 0.0000 0.0000
# 4 0.0000 0.0000 0.0000 53.9009 0.0000 0.0000
# 5 0.0000 0.0000 0.0000 0.0000 -4.8959 0.0000
# 6 0.0000 0.0000 0.0000 0.0000 0.0000 6.3275
#
#
#
# Elastic Compliance Matrix: (Units=1/GPa)
#
#
# Indices 1 2 3 4 5 6 
#
# 1 0.016696 -0.003068 -0.002057 0.000000 0.000000 0.000000
# 2 -0.003068 0.005177 -0.001358 0.000000 0.000000 0.000000
# 3 -0.002057 -0.001358 0.005565 0.000000 0.000000 0.000000
# 4 0.000000 0.000000 0.000000 0.018553 0.000000 0.000000
# 5 0.000000 0.000000 0.000000 0.000000 -0.204252 0.000000
# 6 0.000000 0.000000 0.000000 0.000000 0.000000 0.158040
#
#
# Mechanical properties :
#
#
# Convention : Reuss Voigt Hill
#
# Bulk Modulus (GPa) = 69.09967 99.10018 84.09993
# Shear Modulus (GPa) = 284.59058 35.03594 159.81326
#
# Velocity S-wave (km/s) = 10.86841 3.81340 8.14446
# Velocity P-wave (km/s) = 13.64467 7.77959 11.10628
#
# Compressibility (1/GPa) = 0.01447185
#
# Stress axis : x y z
#
# Youngs Moduli (GPa) = 59.89351 193.15075 179.70500
#
# Poissons Ratio (x) = 0.59251 0.36974
# Poissons Ratio (y) = 0.18373 0.24406
# Poissons Ratio (z) = 0.12323 0.26232
#
# Static dielectric constant tensor:
#      x y z
#    x 1.991300 0.000000 0.000000 
#    y 0.000000 2.089710 0.000000 
#    z 0.000000 0.000000 1.938360 
# 
# From -- ./inp_files/2006.got.cif
#   From: 2010.05.17/outbox.cif.g08.bks.cpg/sg21_2_cif.got.tgz:2006.got - 2010.06.03 23:14:55.
