data_PCOD9325326
_publ_section_title
;
Structure prediction by ZEFSAII (Michael W. Deem and Ramdas Pophale) SiO2 
 PCOD9325326
Probable space group: C 2 2 2
;
_chemical_formula_sum "Si O2"
_cell_formula_units_Z 40
_cell_length_a 8.354177
_cell_length_b 21.787476
_cell_length_c 10.171429
_cell_angle_alpha 90.000000
_cell_angle_beta 90.000000
_cell_angle_gamma 90.000000
_cell_volume 1851.367204
_symmetry_space_group_name_H-M "C 2 2 2"
_symmetry_group_IT_number 21
_symmetry_cell_setting 'orthorhombic'
loop_
_space_group_symop_operation_xyz
x,y,z
-x,-y,z
x,-y,-z
-x,y,-z
1/2+x,1/2+y,z
1/2-x,1/2-y,z
1/2+x,1/2-y,-z
1/2-x,1/2+y,-z
loop_
_atom_site_type_symbol
_atom_site_label
_atom_site_fract_x
_atom_site_fract_y
_atom_site_fract_z
Si Si1 0.631667 0.869146 0.305899
Si Si2 0.165146 0.867949 0.943491
Si Si3 0.253037 0.500000 0.000000
Si Si4 0.000000 0.500000 0.778917
Si Si5 0.186614 0.681532 0.190843
Si Si6 0.682207 0.680210 0.547822
O O1 0.773836 0.854577 0.201963
O O2 0.565304 0.939173 0.293912
O O3 0.486689 0.825744 0.257204
O O4 0.701590 0.855662 0.448598
O O5 0.154236 0.941310 0.949769
O O6 0.299682 0.849002 0.049076
O O7 0.000000 0.840794 0.000000
O O8 0.141167 0.480155 0.878046
O O9 0.250000 0.750000 0.171007
O O10 0.302514 0.654200 0.304206
O O11 0.500000 0.679439 0.500000
O O12 0.750000 0.750000 0.549747
#
# Coordination Sequence:
#
# PCOD9325326 Si02
#       6
#     8   8   4   4   8   8
#     4  11  22  41  68  94 128 171 218 266 321 391
#     4  11  22  36  61  95 127 164 208 266 316 375
#     4   9  17  36  60  88 126 162 206 250 320 378
#     4   9  18  36  67  92 120 167 213 260 312 383
#     4  11  23  40  61  92 127 166 210 262 318 383
#     4  11  23  42  65  93 130 173 215 264 331 392
#
# _framework density 21.605654000000001
#
# number of rings (size 3 to 8) (size 9 to 14) (size 15 to 20)
#    0.000    1.400    2.000    5.100    0.000    2.400 
#    0.000    2.000    0.000    1.200    0.000    0.000 
#    0.000    0.000    0.000    0.000    0.000    0.000 
#
# Total GULP energy -111645.348104 kJ/mol
# GULP energy per Si atom -5582.267405 kJ/mol
# Density = 2.155648 g / cm^3
# Si number density = 21.605654 Si / 1000 Ang^3
#
#
#
# Elastic Constant Matrix: (Units=GPa)
#
#
# Indices 1 2 3 4 5 6 
#
# 1 76.9344 1.4131 -19.4013 0.0000 0.0000 0.0000
# 2 1.4131 73.8156 11.1652 0.0000 0.0000 0.0000
# 3 -19.4013 11.1652 82.4574 0.0000 0.0000 0.0000
# 4 0.0000 0.0000 0.0000 -0.0397 0.0000 0.0000
# 5 0.0000 0.0000 0.0000 0.0000 31.2533 0.0000
# 6 0.0000 0.0000 0.0000 0.0000 0.0000 23.5429
#
#
#
# Elastic Compliance Matrix: (Units=1/GPa)
#
#
# Indices 1 2 3 4 5 6 
#
# 1 0.013861 -0.000775 0.003366 0.000000 0.000000 0.000000
# 2 -0.000775 0.013874 -0.002061 0.000000 0.000000 0.000000
# 3 0.003366 -0.002061 0.013199 0.000000 0.000000 0.000000
# 4 0.000000 0.000000 0.000000-25.208192 0.000000 0.000000
# 5 0.000000 0.000000 0.000000 0.000000 0.031997 0.000000
# 6 0.000000 0.000000 0.000000 0.000000 0.000000 0.042476
#
#
# Mechanical properties :
#
#
# Convention : Reuss Voigt Hill
#
# Bulk Modulus (GPa) = 23.81212 24.39570 24.10391
# Shear Modulus (GPa) = -0.19936 26.95332 13.37698
#
# Velocity S-wave (km/s) = -0.30410 3.53585 2.49096
# Velocity P-wave (km/s) = 3.30483 5.29013 4.41063
#
# Compressibility (1/GPa) = 0.04199543
#
# Stress axis : x y z
#
# Youngs Moduli (GPa) = 72.14374 72.07817 75.76579
#
# Poissons Ratio (x) = 0.05583 -0.25505
# Poissons Ratio (y) = 0.05588 0.15614
# Poissons Ratio (z) = -0.24286 0.14854
#
# Static dielectric constant tensor:
#      x y z
#    x 1.846410 0.000000 0.000000 
#    y 0.000000 1.845730 0.000000 
#    z 0.000000 0.000000 1.787030 
# 
# From -- ./inp_files/11239.got.cif
#   From: 2010.05.17/outbox.cif.g08.bks.cpg/sg21_6_cif.got.tgz:11239.got - 2010.06.03 23:14:55.
