data_PCOD9325282
_publ_section_title
;
Structure prediction by ZEFSAII (Michael W. Deem and Ramdas Pophale) SiO2 
 PCOD9325282
Probable space group: C 2 2 2
;
_chemical_formula_sum "Si O2"
_cell_formula_units_Z 58
_cell_length_a 30.765789
_cell_length_b 9.408115
_cell_length_c 9.515947
_cell_angle_alpha 90.000000
_cell_angle_beta 90.000000
_cell_angle_gamma 90.000000
_cell_volume 2754.372598
_symmetry_space_group_name_H-M "C 2 2 2"
_symmetry_group_IT_number 21
_symmetry_cell_setting 'orthorhombic'
loop_
_space_group_symop_operation_xyz
x,y,z
-x,-y,z
x,-y,-z
-x,y,-z
1/2+x,1/2+y,z
1/2-x,1/2-y,z
1/2+x,1/2-y,-z
1/2-x,1/2+y,-z
loop_
_atom_site_type_symbol
_atom_site_label
_atom_site_fract_x
_atom_site_fract_y
_atom_site_fract_z
Si Si1 0.302986 0.263941 0.585641
Si Si2 0.886523 0.228959 0.800388
Si Si3 0.648416 0.994767 0.725712
Si Si4 0.733581 0.095868 0.872222
Si Si5 0.921824 0.314758 0.107880
Si Si6 0.811753 0.057167 0.698475
Si Si7 0.950131 0.986827 0.828768
Si Si8 0.000000 0.500000 0.000000
O O1 0.250000 0.250000 0.594110
O O2 0.326365 0.113840 0.620589
O O3 0.320177 0.389095 0.688966
O O4 0.314809 0.342513 0.439021
O O5 0.878166 0.359621 0.693105
O O6 0.842651 0.134538 0.809795
O O7 0.922414 0.112092 0.759229
O O8 0.902685 0.286495 0.951220
O O9 0.613900 0.901903 0.809161
O O10 0.684721 0.059602 0.831129
O O11 0.750000 0.250000 0.913124
O O12 0.761272 0.063842 0.734804
O O13 0.747237 0.000000 0.000000
O O14 0.931182 0.169536 0.190558
O O15 0.967150 0.399676 0.087499
O O16 0.000000 0.000000 0.786642
O O17 0.948546 0.000000 0.000000
#
# Coordination Sequence:
#
# PCOD9325282 Si02
#       8
#     8   8   8   8   8   8   8   2
#     4  11  25  44  66  89 124 178 237 293 337 392
#     4  11  21  39  59  92 132 167 219 277 334 413
#     4  12  24  41  60  93 132 174 222 280 333 394
#     4  12  26  41  60  91 133 178 226 278 349 409
#     4  11  22  38  62  97 138 172 214 272 347 422
#     4  11  25  43  64  91 126 177 235 278 342 411
#     4   9  19  35  59  89 127 172 211 254 331 415
#     4  12  20  36  66 100 142 176 214 280 348 442
#
# _framework density 21.057428000000002
#
# number of rings (size 3 to 8) (size 9 to 14) (size 15 to 20)
#    0.000    0.966    4.138    3.724    1.931    2.207 
#    0.000    0.000    0.000    0.000    0.000   15.448 
#    0.000    0.000    0.000    0.000    0.000    0.000 
#
# Total GULP energy -161691.323526 kJ/mol
# GULP energy per Si atom -5575.562880 kJ/mol
# Density = 2.100950 g / cm^3
# Si number density = 21.057428 Si / 1000 Ang^3
#
#
#
# Elastic Constant Matrix: (Units=GPa)
#
#
# Indices 1 2 3 4 5 6 
#
# 1 143.3217 79.0552 15.9838 0.0000 0.0000 0.0000
# 2 79.0552 195.7553 37.0108 0.0000 0.0000 0.0000
# 3 15.9838 37.0108 20.1356 0.0000 0.0000 0.0000
# 4 0.0000 0.0000 0.0000 24.5260 0.0000 0.0000
# 5 0.0000 0.0000 0.0000 0.0000 20.3283 0.0000
# 6 0.0000 0.0000 0.0000 0.0000 0.0000 42.9151
#
#
#
# Elastic Compliance Matrix: (Units=1/GPa)
#
#
# Indices 1 2 3 4 5 6 
#
# 1 0.008984 -0.003494 -0.000709 0.000000 0.000000 0.000000
# 2 -0.003494 0.009188 -0.014115 0.000000 0.000000 0.000000
# 3 -0.000709 -0.014115 0.076170 0.000000 0.000000 0.000000
# 4 0.000000 0.000000 0.000000 0.040773 0.000000 0.000000
# 5 0.000000 0.000000 0.000000 0.000000 0.049193 0.000000
# 6 0.000000 0.000000 0.000000 0.000000 0.000000 0.023302
#
#
# Mechanical properties :
#
#
# Convention : Reuss Voigt Hill
#
# Bulk Modulus (GPa) = 17.32919 69.25693 43.29306
# Shear Modulus (GPa) = 18.97672 32.69807 25.83739
#
# Velocity S-wave (km/s) = 3.00524 3.94484 3.50665
# Velocity P-wave (km/s) = 4.50436 7.32871 6.08273
#
# Compressibility (1/GPa) = 0.05770611
#
# Stress axis : x y z
#
# Youngs Moduli (GPa) = 111.31361 108.83659 13.12847
#
# Poissons Ratio (x) = 0.38027 0.00931
# Poissons Ratio (y) = 0.38892 0.18531
# Poissons Ratio (z) = 0.07894 1.53621
#
# Static dielectric constant tensor:
#      x y z
#    x 1.785270 0.000000 0.000000 
#    y 0.000000 1.857340 0.000000 
#    z 0.000000 0.000000 1.803350 
# 
# From -- ./inp_files/27796.got.cif
#   From: 2010.05.17/outbox.cif.g08.bks.cpg/sg21_14_cif.got.tgz:27796.got - 2010.06.03 23:14:55.
