data_PCOD9325251
_publ_section_title
;
Structure prediction by ZEFSAII (Michael W. Deem and Ramdas Pophale) SiO2 
 PCOD9325251
Probable space group: C 2 2 2
;
_chemical_formula_sum "Si O2"
_cell_formula_units_Z 56
_cell_length_a 8.743022
_cell_length_b 24.096664
_cell_length_c 15.852436
_cell_angle_alpha 90.000000
_cell_angle_beta 90.000000
_cell_angle_gamma 90.000000
_cell_volume 3339.754177
_symmetry_space_group_name_H-M "C 2 2 2"
_symmetry_group_IT_number 21
_symmetry_cell_setting 'orthorhombic'
loop_
_space_group_symop_operation_xyz
x,y,z
-x,-y,z
x,-y,-z
-x,y,-z
1/2+x,1/2+y,z
1/2-x,1/2-y,z
1/2+x,1/2-y,-z
1/2-x,1/2+y,-z
loop_
_atom_site_type_symbol
_atom_site_label
_atom_site_fract_x
_atom_site_fract_y
_atom_site_fract_z
Si Si1 0.674490 0.067189 0.000036
Si Si2 0.817272 0.311632 0.499955
Si Si3 0.684237 0.564860 0.821156
Si Si4 0.317846 0.614755 0.349855
Si Si5 0.826997 0.499861 0.599294
Si Si6 0.817683 0.884876 0.349680
Si Si7 0.184006 0.935025 0.821274
O O1 0.756749 0.082337 0.087109
O O2 0.500000 0.086708 0.000000
O O3 0.757036 0.082382 0.913056
O O4 0.673825 0.000000 0.000000
O O5 0.750000 0.250000 0.499440
O O6 0.760684 0.343463 0.415427
O O7 0.760464 0.342845 0.584976
O O8 0.000000 0.311017 0.500000
O O9 0.730321 0.608744 0.748560
O O10 0.734890 0.499924 0.804757
O O11 0.500109 0.563078 0.821213
O O12 0.270686 0.553612 0.379607
O O13 0.500013 0.623400 0.354138
O O14 0.847223 0.500000 0.500000
O O15 0.730428 0.445835 0.620200
O O16 0.000000 0.500000 0.637126
O O17 0.769991 0.891058 0.251220
#
# Coordination Sequence:
#
# PCOD9325251 Si02
#       7
#     8   8   8   8   8   8   8
#     4   9  17  27  41  67 102 141 176 211 253 298
#     4  12  26  43  58  77 102 136 176 220 268 314
#     4   9  17  30  47  71 103 141 177 209 252 307
#     4  11  21  35  55  78 104 139 178 218 262 312
#     4  11  21  31  47  76 108 139 172 212 261 313
#     4  11  21  35  55  78 104 139 178 218 262 312
#     4   9  17  30  47  71 103 141 177 209 252 307
#
# _framework density 16.767700999999999
#
# number of rings (size 3 to 8) (size 9 to 14) (size 15 to 20)
#    0.000    1.714    2.857    3.000    0.000    4.571 
#    0.000    0.000    0.000    0.000    0.000    1.000 
#    0.000    0.000    0.000    0.000    0.000    0.000 
#
# Total GULP energy -155971.868756 kJ/mol
# GULP energy per Si atom -5570.423884 kJ/mol
# Density = 1.672954 g / cm^3
# Si number density = 16.767701 Si / 1000 Ang^3
#
#
#
# Elastic Constant Matrix: (Units=GPa)
#
#
# Indices 1 2 3 4 5 6 
#
# 1 60.9726 24.7594 50.4802 0.0000 0.0000 0.0000
# 2 24.7594 80.6498 51.7979 0.0000 0.0000 0.0000
# 3 50.4802 51.7979 164.2438 0.0000 0.0000 0.0000
# 4 0.0000 0.0000 0.0000 0.5227 0.0000 0.0000
# 5 0.0000 0.0000 0.0000 0.0000 11.9288 0.0000
# 6 0.0000 0.0000 0.0000 0.0000 0.0000 25.6778
#
#
#
# Elastic Compliance Matrix: (Units=1/GPa)
#
#
# Indices 1 2 3 4 5 6 
#
# 1 0.022603 -0.003106 -0.005967 0.000000 0.000000 0.000000
# 2 -0.003106 0.015976 -0.004083 0.000000 0.000000 0.000000
# 3 -0.005967 -0.004083 0.009210 0.000000 0.000000 0.000000
# 4 0.000000 0.000000 0.000000 1.913106 0.000000 0.000000
# 5 0.000000 0.000000 0.000000 0.000000 0.083831 0.000000
# 6 0.000000 0.000000 0.000000 0.000000 0.000000 0.038944
#
#
# Mechanical properties :
#
#
# Convention : Reuss Voigt Hill
#
# Bulk Modulus (GPa) = 46.56746 62.21568 54.39157
# Shear Modulus (GPa) = 2.36167 19.54777 10.95472
#
# Velocity S-wave (km/s) = 1.18808 3.41808 2.55879
# Velocity P-wave (km/s) = 5.45110 7.26380 6.42173
#
# Compressibility (1/GPa) = 0.02147422
#
# Stress axis : x y z
#
# Youngs Moduli (GPa) = 44.24268 62.59533 108.57359
#
# Poissons Ratio (x) = 0.19445 0.64788
# Poissons Ratio (y) = 0.13744 0.44336
# Poissons Ratio (z) = 0.26400 0.25561
#
# Static dielectric constant tensor:
#      x y z
#    x 1.584160 0.000000 0.000000 
#    y 0.000000 1.536950 0.000000 
#    z 0.000000 0.000000 1.625560 
# 
# From -- ./inp_files/30755.got.cif
#   From: 2010.05.17/outbox.cif.g08.bks.cpg/sg21_16_cif.got.tgz:30755.got - 2010.06.03 23:14:55.
