data_PCOD9325822
_publ_section_title
;
Structure prediction by ZEFSAII (Michael W. Deem and Ramdas Pophale) SiO2 
 PCOD9325822
Probable space group: C 2 2 2
;
_chemical_formula_sum "Si O2"
_cell_formula_units_Z 18
_cell_length_a 28.890044
_cell_length_b 5.171475
_cell_length_c 5.074860
_cell_angle_alpha 90.000000
_cell_angle_beta 90.000000
_cell_angle_gamma 90.000000
_cell_volume 758.205095
_symmetry_space_group_name_H-M "C 2 2 2"
_symmetry_group_IT_number 21
_symmetry_cell_setting 'orthorhombic'
loop_
_space_group_symop_operation_xyz
x,y,z
-x,-y,z
x,-y,-z
-x,y,-z
1/2+x,1/2+y,z
1/2-x,1/2-y,z
1/2+x,1/2-y,-z
1/2-x,1/2+y,-z
loop_
_atom_site_type_symbol
_atom_site_label
_atom_site_fract_x
_atom_site_fract_y
_atom_site_fract_z
Si Si1 0.080990 0.256257 0.678882
Si Si2 0.843511 0.000000 0.000000
Si Si3 0.000000 0.500000 0.000000
Si Si4 0.219390 0.000000 0.500000
O O1 0.092601 0.500000 0.500000
O O2 0.121284 0.213846 0.890494
O O3 0.033154 0.322649 0.823158
O O4 0.077547 0.000000 0.500000
O O5 0.811961 0.072422 0.751532
O O6 0.250000 0.250000 0.568994
#
# Coordination Sequence:
#
# PCOD9325822 Si02
#       4
#     8   4   2   4
#     4  12  29  51  79 119 168 218 274 332 396 484
#     4  12  28  55  83 120 164 212 269 329 420 472
#     4  12  30  46  82 120 168 216 282 320 404 456
#     4  12  30  52  86 119 160 205 270 340 410 494
#
# _framework density 23.740281
#
# number of rings (size 3 to 8) (size 9 to 14) (size 15 to 20)
#    0.000    0.000    2.222    4.667    3.111   16.889 
#    0.000    0.000    0.000    0.000    0.000    0.000 
#    0.000    0.000    0.000    0.000    0.000    0.000 
#
# Total GULP energy -50524.365849 kJ/mol
# GULP energy per Si atom -5613.818428 kJ/mol
# Density = 2.368625 g / cm^3
# Si number density = 23.740281 Si / 1000 Ang^3
#
#
#
# Elastic Constant Matrix: (Units=GPa)
#
#
# Indices 1 2 3 4 5 6 
#
# 1 164.3171 71.6881 93.6444 0.0000 0.0000 0.0000
# 2 71.6881 195.4602 84.7425 0.0000 0.0000 0.0000
# 3 93.6444 84.7425 191.6910 0.0000 0.0000 0.0000
# 4 0.0000 0.0000 0.0000 23.5481 0.0000 0.0000
# 5 0.0000 0.0000 0.0000 0.0000 45.2946 0.0000
# 6 0.0000 0.0000 0.0000 0.0000 0.0000 45.8956
#
#
#
# Elastic Compliance Matrix: (Units=1/GPa)
#
#
# Indices 1 2 3 4 5 6 
#
# 1 0.008868 -0.001700 -0.003581 0.000000 0.000000 0.000000
# 2 -0.001700 0.006655 -0.002112 0.000000 0.000000 0.000000
# 3 -0.003581 -0.002112 0.007899 0.000000 0.000000 0.000000
# 4 0.000000 0.000000 0.000000 0.042466 0.000000 0.000000
# 5 0.000000 0.000000 0.000000 0.000000 0.022078 0.000000
# 6 0.000000 0.000000 0.000000 0.000000 0.000000 0.021789
#
#
# Mechanical properties :
#
#
# Convention : Reuss Voigt Hill
#
# Bulk Modulus (GPa) = 115.76710 116.84649 116.30679
# Shear Modulus (GPa) = 39.24050 43.04052 41.14051
#
# Velocity S-wave (km/s) = 4.07001 4.26252 4.16738
# Velocity P-wave (km/s) = 8.42357 8.57619 8.50022
#
# Compressibility (1/GPa) = 0.00863803
#
# Stress axis : x y z
#
# Youngs Moduli (GPa) = 112.76320 150.25945 126.59164
#
# Poissons Ratio (x) = 0.25546 0.45328
# Poissons Ratio (y) = 0.19171 0.26731
# Poissons Ratio (z) = 0.40377 0.31728
#
# Static dielectric constant tensor:
#      x y z
#    x 1.879950 0.000000 0.000000 
#    y 0.000000 1.863080 0.000000 
#    z 0.000000 0.000000 1.894690 
# 
# From -- ./inp_files/492.got.cif
#   From: 2010.05.17/outbox.cif.g08.bks.cpg/sg21_1_cif.got.tgz:492.got - 2010.06.03 23:14:55.
