data_PCOD9325523
_publ_section_title
;
Structure prediction by ZEFSAII (Michael W. Deem and Ramdas Pophale) SiO2 
 PCOD9325523
Probable space group: C 2 2 2
;
_chemical_formula_sum "Si O2"
_cell_formula_units_Z 32
_cell_length_a 29.957312
_cell_length_b 8.744181
_cell_length_c 4.652683
_cell_angle_alpha 90.000000
_cell_angle_beta 90.000000
_cell_angle_gamma 90.000000
_cell_volume 1218.780354
_symmetry_space_group_name_H-M "C 2 2 2"
_symmetry_group_IT_number 21
_symmetry_cell_setting 'orthorhombic'
loop_
_space_group_symop_operation_xyz
x,y,z
-x,-y,z
x,-y,-z
-x,y,-z
1/2+x,1/2+y,z
1/2-x,1/2-y,z
1/2+x,1/2-y,-z
1/2-x,1/2+y,-z
loop_
_atom_site_type_symbol
_atom_site_label
_atom_site_fract_x
_atom_site_fract_y
_atom_site_fract_z
Si Si1 0.877662 0.254501 0.182546
Si Si2 0.818866 0.500000 0.500000
Si Si3 0.750000 0.250000 0.693704
Si Si4 0.000000 0.500000 0.000000
Si Si5 0.177375 0.000000 0.500000
Si Si6 0.000000 0.000000 0.500000
Si Si7 0.560633 0.240949 0.681038
O O1 0.847900 0.396047 0.286647
O O2 0.924309 0.272556 0.352414
O O3 0.852790 0.101974 0.287978
O O4 0.892917 0.251013 0.854931
O O5 0.787370 0.386723 0.681654
O O6 0.709858 0.380340 0.661305
O O7 0.031236 0.395152 0.198640
O O8 0.031613 0.106502 0.308254
#
# Coordination Sequence:
#
# PCOD9325523 Si02
#       7
#     8   4   4   2   4   2   8
#     4  11  24  42  69 101 139 186 241 299 363 432
#     4   9  18  38  69 103 144 190 242 301 363 438
#     4   8  16  36  68 102 142 188 238 294 362 434
#     4  12  28  48  72 102 144 192 244 306 376 444
#     4   9  19  36  68  99 140 186 238 297 360 432
#     4  12  30  52  78 110 152 200 252 314 382 452
#     4  12  28  48  72 104 142 190 244 306 372 443
#
# _framework density 26.255754
#
# number of rings (size 3 to 8) (size 9 to 14) (size 15 to 20)
#    0.000    1.500    0.000    3.750    0.000   13.000 
#    0.000    0.000    0.000  105.000    0.000    0.000 
#    0.000    0.000    0.000    0.000    0.000    0.000 
#
# Total GULP energy -89338.197720 kJ/mol
# GULP energy per Si atom -5583.637357 kJ/mol
# Density = 2.619599 g / cm^3
# Si number density = 26.255754 Si / 1000 Ang^3
#
#
#
# Elastic Constant Matrix: (Units=GPa)
#
#
# Indices 1 2 3 4 5 6 
#
# 1 149.9312 76.7942 21.6162 0.0000 0.0000 0.0000
# 2 76.7942 225.7613 31.6567 0.0000 0.0000 0.0000
# 3 21.6162 31.6567 73.0700 0.0000 0.0000 0.0000
# 4 0.0000 0.0000 0.0000 26.4227 0.0000 0.0000
# 5 0.0000 0.0000 0.0000 0.0000 -93.2404 0.0000
# 6 0.0000 0.0000 0.0000 0.0000 0.0000 460.9734
#
#
#
# Elastic Compliance Matrix: (Units=1/GPa)
#
#
# Indices 1 2 3 4 5 6 
#
# 1 0.008190 -0.002604 -0.001295 0.000000 0.000000 0.000000
# 2 -0.002604 0.005544 -0.001631 0.000000 0.000000 0.000000
# 3 -0.001295 -0.001631 0.014775 0.000000 0.000000 0.000000
# 4 0.000000 0.000000 0.000000 0.037846 0.000000 0.000000
# 5 0.000000 0.000000 0.000000 0.000000 -0.010725 0.000000
# 6 0.000000 0.000000 0.000000 0.000000 0.000000 0.002169
#
#
# Mechanical properties :
#
#
# Convention : Reuss Voigt Hill
#
# Bulk Modulus (GPa) = 57.31060 78.76628 68.03844
# Shear Modulus (GPa) = 66.95438 100.07751 83.51594
#
# Velocity S-wave (km/s) = 5.05531 6.18055 5.64603
# Velocity P-wave (km/s) = 7.47998 8.99983 8.27487
#
# Compressibility (1/GPa) = 0.01744878
#
# Stress axis : x y z
#
# Youngs Moduli (GPa) = 122.09447 180.37016 67.68056
#
# Poissons Ratio (x) = 0.46977 0.08762
# Poissons Ratio (y) = 0.31799 0.11042
# Poissons Ratio (z) = 0.15806 0.29427
#
# Static dielectric constant tensor:
#      x y z
#    x 1.998400 0.000000 0.000000 
#    y 0.000000 1.994490 0.000000 
#    z 0.000000 0.000000 2.038800 
# 
# From -- ./inp_files/1674.got.cif
#   From: 2010.05.17/outbox.cif.g08.bks.cpg/sg21_1_cif.got.tgz:1674.got - 2010.06.03 23:14:55.
