data_PCOD9325946
_publ_section_title
;
Structure prediction by ZEFSAII (Michael W. Deem and Ramdas Pophale) SiO2 
 PCOD9325946
Probable space group: F 2 2 2
;
_chemical_formula_sum "Si O2"
_cell_formula_units_Z 112
_cell_length_a 22.688789
_cell_length_b 16.665368
_cell_length_c 19.535468
_cell_angle_alpha 90.000000
_cell_angle_beta 90.000000
_cell_angle_gamma 90.000000
_cell_volume 7386.692909
_symmetry_space_group_name_H-M "F 2 2 2"
_symmetry_group_IT_number 22
_symmetry_cell_setting 'orthorhombic'
loop_
_space_group_symop_operation_xyz
x,y,z
-x,-y,z
x,-y,-z
-x,y,-z
x,1/2+y,1/2+z
-x,1/2-y,1/2+z
x,1/2-y,1/2-z
-x,1/2+y,1/2-z
1/2+x,y,1/2+z
1/2-x,-y,1/2+z
1/2+x,-y,1/2-z
1/2-x,y,1/2-z
1/2+x,1/2+y,z
1/2-x,1/2-y,z
1/2+x,1/2-y,-z
1/2-x,1/2+y,-z
loop_
_atom_site_type_symbol
_atom_site_label
_atom_site_fract_x
_atom_site_fract_y
_atom_site_fract_z
Si Si1 0.149869 0.232800 0.484244
Si Si2 0.034178 0.661782 0.926953
Si Si3 0.154301 0.250000 0.750000
Si Si4 0.234657 0.982778 0.391457
Si Si5 0.415159 0.318274 0.622506
Si Si6 0.764290 0.624161 0.475885
Si Si7 0.098023 0.998981 0.582843
Si Si8 0.250000 0.112490 0.750000
O O1 0.092660 0.214263 0.438609
O O2 0.125746 0.209866 0.559359
O O3 0.178432 0.320391 0.482418
O O4 0.205036 0.176312 0.464998
O O5 0.057407 0.576617 0.898228
O O6 0.983515 0.705180 0.884129
O O7 0.000000 0.647663 0.000000
O O8 0.114428 0.280775 0.811702
O O9 0.196131 0.173529 0.765103
O O10 0.250967 0.920515 0.452165
O O11 0.241833 0.941940 0.317673
O O12 0.270846 0.061492 0.413770
O O13 0.166761 0.009577 0.399883
O O14 0.417684 0.415326 0.615708
O O15 0.093918 0.000000 0.500000
#
# Coordination Sequence:
#
# PCOD9325946 Si02
#       8
#    16  16   8  16  16  16  16   8
#     4  10  17  29  48  78  98 129 158 211 260 303
#     4  10  19  28  50  78 105 129 165 215 264 305
#     4  11  22  36  48  76 104 139 166 204 258 321
#     4  11  18  32  49  76  99 135 161 211 251 312
#     4  11  20  30  50  74 108 136 164 208 263 312
#     4  10  18  29  51  73 105 124 165 206 259 304
#     4  12  16  30  49  83 106 126 169 216 264 306
#     4  11  22  34  54  71 106 134 172 205 260 320
#
# _framework density 15.1624
#
# number of rings (size 3 to 8) (size 9 to 14) (size 15 to 20)
#    0.000    1.286    8.571    1.286    0.000    2.286 
#    0.000    0.000    3.143    1.714    0.000   30.000 
#    0.000    0.000    0.000    0.000    0.000    0.000 
#
# Total GULP energy -155902.365485 kJ/mol
# GULP energy per Si atom -5567.941624 kJ/mol
# Density = 1.512789 g / cm^3
# Si number density = 15.162400 Si / 1000 Ang^3
#
#
#
# Elastic Constant Matrix: (Units=GPa)
#
#
# Indices 1 2 3 4 5 6 
#
# 1 119.1525 54.7514 31.2939 0.0000 0.0000 0.0000
# 2 54.7514 81.9758 33.2001 0.0000 0.0000 0.0000
# 3 31.2939 33.2001 63.1550 0.0000 0.0000 0.0000
# 4 0.0000 0.0000 0.0000 15.7584 0.0000 0.0000
# 5 0.0000 0.0000 0.0000 0.0000 16.2390 0.0000
# 6 0.0000 0.0000 0.0000 0.0000 0.0000 29.6863
#
#
#
# Elastic Compliance Matrix: (Units=1/GPa)
#
#
# Indices 1 2 3 4 5 6 
#
# 1 0.012359 -0.007336 -0.002267 0.000000 0.000000 0.000000
# 2 -0.007336 0.019853 -0.006801 0.000000 0.000000 0.000000
# 3 -0.002267 -0.006801 0.020533 0.000000 0.000000 0.000000
# 4 0.000000 0.000000 0.000000 0.063458 0.000000 0.000000
# 5 0.000000 0.000000 0.000000 0.000000 0.061580 0.000000
# 6 0.000000 0.000000 0.000000 0.000000 0.000000 0.033686
#
#
# Mechanical properties :
#
#
# Convention : Reuss Voigt Hill
#
# Bulk Modulus (GPa) = 50.16305 55.86380 53.01343
# Shear Modulus (GPa) = 19.92627 22.00593 20.96610
#
# Velocity S-wave (km/s) = 3.62911 3.81379 3.72259
# Velocity P-wave (km/s) = 7.12153 7.50446 7.31550
#
# Compressibility (1/GPa) = 0.01993499
#
# Stress axis : x y z
#
# Youngs Moduli (GPa) = 80.91117 50.36962 48.70194
#
# Poissons Ratio (x) = 0.36953 0.11043
# Poissons Ratio (y) = 0.59359 0.33124
# Poissons Ratio (z) = 0.18346 0.34259
#
# Static dielectric constant tensor:
#      x y z
#    x 1.525110 0.000000 0.000000 
#    y 0.000000 1.535460 0.000000 
#    z 0.000000 0.000000 1.500450 
# 
# From -- ./inp_files/44949.got.cif
#   From: 2010.05.17/outbox.cif.g08.bks.cpg/sg22_23_cif.got.tgz:44949.got - 2010.06.03 23:40:54.
