data_PCOD9325988
_publ_section_title
;
Structure prediction by ZEFSAII (Michael W. Deem and Ramdas Pophale) SiO2 
 PCOD9325988
Probable space group: F 2 2 2
;
_chemical_formula_sum "Si O2"
_cell_formula_units_Z 104
_cell_length_a 21.881445
_cell_length_b 9.650197
_cell_length_c 21.829806
_cell_angle_alpha 90.000000
_cell_angle_beta 90.000000
_cell_angle_gamma 90.000000
_cell_volume 4609.587399
_symmetry_space_group_name_H-M "F 2 2 2"
_symmetry_group_IT_number 22
_symmetry_cell_setting 'orthorhombic'
loop_
_space_group_symop_operation_xyz
x,y,z
-x,-y,z
x,-y,-z
-x,y,-z
x,1/2+y,1/2+z
-x,1/2-y,1/2+z
x,1/2-y,1/2-z
-x,1/2+y,1/2-z
1/2+x,y,1/2+z
1/2-x,-y,1/2+z
1/2+x,-y,1/2-z
1/2-x,y,1/2-z
1/2+x,1/2+y,z
1/2-x,1/2-y,z
1/2+x,1/2-y,-z
1/2-x,1/2+y,-z
loop_
_atom_site_type_symbol
_atom_site_label
_atom_site_fract_x
_atom_site_fract_y
_atom_site_fract_z
Si Si1 0.982928 0.650348 0.571034
Si Si2 0.286151 0.116696 0.421236
Si Si3 0.639535 0.250000 0.750000
Si Si4 0.341707 0.839620 0.399950
Si Si5 0.096675 0.297205 0.118089
Si Si6 0.327206 0.459743 0.629005
Si Si7 0.318022 0.451641 0.764548
O O1 0.911660 0.673699 0.579822
O O2 0.000000 0.500000 0.598576
O O3 0.000000 0.645840 0.500000
O O4 0.029092 0.760944 0.598685
O O5 0.250000 0.250000 0.450686
O O6 0.351715 0.186208 0.404135
O O7 0.308315 0.960026 0.438762
O O8 0.232239 0.062276 0.373284
O O9 0.600575 0.291093 0.691394
O O10 0.678568 0.382492 0.769183
O O11 0.314230 0.685796 0.402560
O O12 0.340073 0.889046 0.328454
O O13 0.120688 0.447716 0.097984
O O14 0.348561 0.423729 0.698363
O O15 0.250000 0.403565 0.750000
#
# Coordination Sequence:
#
# PCOD9325988 Si02
#       7
#    16  16   8  16  16  16  16
#     4  11  24  45  71  90 116 171 235 286 320 381
#     4  10  19  35  60  93 132 167 208 257 321 405
#     4  10  17  32  58  90 128 168 211 256 314 400
#     4  12  22  37  60  93 130 170 221 264 320 397
#     4  10  20  40  61  93 122 172 217 270 322 392
#     4  10  22  34  58  95 138 165 202 257 338 402
#     4  11  19  30  55  93 134 174 203 246 324 404
#
# _framework density 22.561672000000002
#
# number of rings (size 3 to 8) (size 9 to 14) (size 15 to 20)
#    0.000    1.385    4.615    1.154    0.000    1.231 
#    2.769    1.538    0.000    9.231    0.000    0.000 
#    0.000    0.000    0.000    0.000    0.000    0.000 
#
# Total GULP energy -144842.902643 kJ/mol
# GULP energy per Si atom -5570.880871 kJ/mol
# Density = 2.251032 g / cm^3
# Si number density = 22.561672 Si / 1000 Ang^3
#
#
#
# Elastic Constant Matrix: (Units=GPa)
#
#
# Indices 1 2 3 4 5 6 
#
# 1 116.7159 39.9354 36.2517 0.0000 0.0000 0.0000
# 2 39.9354 191.4777 29.5803 0.0000 0.0000 0.0000
# 3 36.2517 29.5803 50.5377 0.0000 0.0000 0.0000
# 4 0.0000 0.0000 0.0000 3.8211 0.0000 0.0000
# 5 0.0000 0.0000 0.0000 0.0000 146.2256 0.0000
# 6 0.0000 0.0000 0.0000 0.0000 0.0000 27.8305
#
#
#
# Elastic Compliance Matrix: (Units=1/GPa)
#
#
# Indices 1 2 3 4 5 6 
#
# 1 0.011274 -0.001212 -0.007378 0.000000 0.000000 0.000000
# 2 -0.001212 0.005872 -0.002568 0.000000 0.000000 0.000000
# 3 -0.007378 -0.002568 0.026582 0.000000 0.000000 0.000000
# 4 0.000000 0.000000 0.000000 0.261708 0.000000 0.000000
# 5 0.000000 0.000000 0.000000 0.000000 0.006839 0.000000
# 6 0.000000 0.000000 0.000000 0.000000 0.000000 0.035932
#
#
# Mechanical properties :
#
#
# Convention : Reuss Voigt Hill
#
# Bulk Modulus (GPa) = 46.69881 63.36289 55.03085
# Shear Modulus (GPa) = 13.23944 52.43970 32.83957
#
# Velocity S-wave (km/s) = 2.42505 4.82631 3.81930
# Velocity P-wave (km/s) = 5.34643 7.69435 6.62523
#
# Compressibility (1/GPa) = 0.02141382
#
# Stress axis : x y z
#
# Youngs Moduli (GPa) = 88.70035 170.30212 37.61875
#
# Poissons Ratio (x) = 0.20633 0.27755
# Poissons Ratio (y) = 0.10747 0.09660
# Poissons Ratio (z) = 0.65442 0.43730
#
# Static dielectric constant tensor:
#      x y z
#    x 1.809020 0.000000 0.000000 
#    y 0.000000 1.888630 0.000000 
#    z 0.000000 0.000000 1.930180 
# 
# From -- ./inp_files/53929.got.cif
#   From: 2010.05.17/outbox.cif.g08.bks.cpg/sg22_27_cif.got.tgz:53929.got - 2010.06.03 23:40:54.
