data_PCOD9325162
_publ_section_title
;
Structure prediction by ZEFSAII (Michael W. Deem and Ramdas Pophale) SiO2 
 PCOD9325162
Probable space group: C 2 2 2
;
_chemical_formula_sum "Si O2"
_cell_formula_units_Z 24
_cell_length_a 4.966888
_cell_length_b 8.581942
_cell_length_c 22.854571
_cell_angle_alpha 90.000000
_cell_angle_beta 90.000000
_cell_angle_gamma 90.000000
_cell_volume 974.188539
_symmetry_space_group_name_H-M "C 2 2 2"
_symmetry_group_IT_number 21
_symmetry_cell_setting 'orthorhombic'
loop_
_space_group_symop_operation_xyz
x,y,z
-x,-y,z
x,-y,-z
-x,y,-z
1/2+x,1/2+y,z
1/2-x,1/2-y,z
1/2+x,1/2-y,-z
1/2-x,1/2+y,-z
loop_
_atom_site_type_symbol
_atom_site_label
_atom_site_fract_x
_atom_site_fract_y
_atom_site_fract_z
Si Si1 0.500000 0.000000 0.000000
Si Si2 0.500000 0.500000 0.416952
Si Si3 0.500000 0.000000 0.500000
Si Si4 0.500000 0.500000 0.164278
Si Si5 0.000000 0.500000 0.250565
Si Si6 0.250000 0.750000 0.332125
Si Si7 0.250000 0.750000 0.913589
O O1 0.346723 0.886058 0.956220
O O2 0.764321 0.556387 0.454216
O O3 0.408693 0.637017 0.375011
O O4 0.249148 0.493395 0.207174
O O5 0.468514 0.342382 0.125820
O O6 0.052868 0.648189 0.291714
#
# Coordination Sequence:
#
# PCOD9325162 Si02
#       7
#     2   4   2   4   4   4   4
#     4  12  26  48  76 112 152 200 254 314 380 454
#     4  11  27  50  79 114 155 204 257 317 384 458
#     4  10  26  50  80 114 156 202 258 316 384 456
#     4  12  27  49  77 112 153 201 255 316 382 456
#     4  12  28  50  78 114 154 202 256 316 382 456
#     4  12  28  52  79 114 155 204 256 318 384 458
#     4  12  26  48  77 112 153 202 254 316 382 456
#
# _framework density 24.635887
#
# number of rings (size 3 to 8) (size 9 to 14) (size 15 to 20)
#    0.000    0.333    0.000    7.000    0.000   16.000 
#    0.000    0.000    0.000    0.000    0.000    0.000 
#    0.000    0.000    0.000    0.000    0.000    0.000 
#
# Total GULP energy -67130.551204 kJ/mol
# GULP energy per Si atom -5594.212600 kJ/mol
# Density = 2.457981 g / cm^3
# Si number density = 24.635887 Si / 1000 Ang^3
#
#
#
# Elastic Constant Matrix: (Units=GPa)
#
#
# Indices 1 2 3 4 5 6 
#
# 1 212.3255 88.1011 111.3676 0.0000 0.0000 0.0000
# 2 88.1011 207.5036 113.6930 0.0000 0.0000 0.0000
# 3 111.3676 113.6930 196.0312 0.0000 0.0000 0.0000
# 4 0.0000 0.0000 0.0000 136.0228 0.0000 0.0000
# 5 0.0000 0.0000 0.0000 0.0000 20.6721 0.0000
# 6 0.0000 0.0000 0.0000 0.0000 0.0000 53.8761
#
#
#
# Elastic Compliance Matrix: (Units=1/GPa)
#
#
# Indices 1 2 3 4 5 6 
#
# 1 0.006889 -0.001144 -0.003250 0.000000 0.000000 0.000000
# 2 -0.001144 0.007254 -0.003557 0.000000 0.000000 0.000000
# 3 -0.003250 -0.003557 0.009011 0.000000 0.000000 0.000000
# 4 0.000000 0.000000 0.000000 0.007352 0.000000 0.000000
# 5 0.000000 0.000000 0.000000 0.000000 0.048374 0.000000
# 6 0.000000 0.000000 0.000000 0.000000 0.000000 0.018561
#
#
# Mechanical properties :
#
#
# Convention : Reuss Voigt Hill
#
# Bulk Modulus (GPa) = 137.91354 138.02041 137.96697
# Shear Modulus (GPa) = 43.19231 62.29412 52.74321
#
# Velocity S-wave (km/s) = 4.19170 5.03397 4.63202
# Velocity P-wave (km/s) = 8.91793 9.48333 9.20497
#
# Compressibility (1/GPa) = 0.00725092
#
# Stress axis : x y z
#
# Youngs Moduli (GPa) = 145.15165 137.85625 110.97809
#
# Poissons Ratio (x) = 0.15773 0.36072
# Poissons Ratio (y) = 0.16608 0.39476
# Poissons Ratio (z) = 0.47179 0.49037
#
# Static dielectric constant tensor:
#      x y z
#    x 1.933240 0.000000 0.000000 
#    y 0.000000 1.895060 0.000000 
#    z 0.000000 0.000000 1.948530 
# 
# From -- ./inp_files/38024.got.cif
#   From: 2010.05.17/outbox.cif.g08.bks.cpg/sg21_20_cif.got.tgz:38024.got - 2010.06.03 23:14:55.
