data_PCOD9325061
_publ_section_title
;
Structure prediction by ZEFSAII (Michael W. Deem and Ramdas Pophale) SiO2 
 PCOD9325061
Probable space group: C 2 2 2
;
_chemical_formula_sum "Si O2"
_cell_formula_units_Z 56
_cell_length_a 19.634476
_cell_length_b 14.848994
_cell_length_c 9.081895
_cell_angle_alpha 90.000000
_cell_angle_beta 90.000000
_cell_angle_gamma 90.000000
_cell_volume 2647.846616
_symmetry_space_group_name_H-M "C 2 2 2"
_symmetry_group_IT_number 21
_symmetry_cell_setting 'orthorhombic'
loop_
_space_group_symop_operation_xyz
x,y,z
-x,-y,z
x,-y,-z
-x,y,-z
1/2+x,1/2+y,z
1/2-x,1/2-y,z
1/2+x,1/2-y,-z
1/2-x,1/2+y,-z
loop_
_atom_site_type_symbol
_atom_site_label
_atom_site_fract_x
_atom_site_fract_y
_atom_site_fract_z
Si Si1 0.020761 0.219410 0.332423
Si Si2 0.669947 0.834477 0.784264
Si Si3 0.750000 0.750000 0.015824
Si Si4 0.522508 0.097742 0.170320
Si Si5 0.831876 0.849921 0.236983
Si Si6 0.849374 0.000000 0.000000
Si Si7 0.887117 0.867054 0.758393
Si Si8 0.232841 0.100550 0.535074
O O1 0.093152 0.173560 0.297964
O O2 0.000000 0.240678 0.500000
O O3 0.010227 0.314034 0.246757
O O4 0.964085 0.146538 0.288664
O O5 0.604438 0.895125 0.813069
O O6 0.641700 0.733067 0.785567
O O7 0.709504 0.852661 0.633409
O O8 0.726726 0.832876 0.912518
O O9 0.811582 0.772538 0.123008
O O10 0.500000 0.000000 0.229967
O O11 0.500000 0.101438 0.000000
O O12 0.784383 0.853532 0.380451
O O13 0.819818 0.940293 0.137520
O O14 0.887288 0.924062 0.906637
O O15 0.836713 0.904533 0.632237
O O16 0.255804 0.000000 0.500000
#
# Coordination Sequence:
#
# PCOD9325061 Si02
#       8
#     8   8   4   8   8   4   8   8
#     4  11  25  45  72 101 143 194 241 300 379 452
#     4  11  23  47  73  99 146 196 232 309 380 437
#     4  12  24  42  70 104 142 190 240 296 380 442
#     4  10  24  49  73 104 142 188 255 309 366 441
#     4  12  27  43  69 108 141 190 245 301 365 459
#     4  12  24  47  68 106 142 176 249 302 360 446
#     4  11  23  45  72  98 144 189 235 305 372 438
#     4  12  24  45  67 103 146 188 243 295 369 443
#
# _framework density 21.149260999999999
#
# number of rings (size 3 to 8) (size 9 to 14) (size 15 to 20)
#    0.000    0.714    5.714    0.857    4.000    1.429 
#   12.857    1.429    0.000    0.000    0.000    0.000 
#    0.000    0.000    0.000    0.000    0.000    0.000 
#
# Total GULP energy -156262.160935 kJ/mol
# GULP energy per Si atom -5580.791462 kJ/mol
# Density = 2.110112 g / cm^3
# Si number density = 21.149261 Si / 1000 Ang^3
#
#
#
# Elastic Constant Matrix: (Units=GPa)
#
#
# Indices 1 2 3 4 5 6 
#
# 1 121.1074 30.4831 50.5226 0.0000 0.0000 0.0000
# 2 30.4831 79.5583 46.5469 0.0000 0.0000 0.0000
# 3 50.5226 46.5469 155.5237 0.0000 0.0000 0.0000
# 4 0.0000 0.0000 0.0000 28.6041 0.0000 0.0000
# 5 0.0000 0.0000 0.0000 0.0000 25.6879 0.0000
# 6 0.0000 0.0000 0.0000 0.0000 0.0000 13.3585
#
#
#
# Elastic Compliance Matrix: (Units=1/GPa)
#
#
# Indices 1 2 3 4 5 6 
#
# 1 0.009891 -0.002315 -0.002520 0.000000 0.000000 0.000000
# 2 -0.002315 0.015780 -0.003971 0.000000 0.000000 0.000000
# 3 -0.002520 -0.003971 0.008437 0.000000 0.000000 0.000000
# 4 0.000000 0.000000 0.000000 0.034960 0.000000 0.000000
# 5 0.000000 0.000000 0.000000 0.000000 0.038929 0.000000
# 6 0.000000 0.000000 0.000000 0.000000 0.000000 0.074859
#
#
# Mechanical properties :
#
#
# Convention : Reuss Voigt Hill
#
# Bulk Modulus (GPa) = 60.62262 67.92162 64.27212
# Shear Modulus (GPa) = 24.27579 28.77254 26.52417
#
# Velocity S-wave (km/s) = 3.39164 3.69243 3.54523
# Velocity P-wave (km/s) = 6.63808 7.09675 6.87124
#
# Compressibility (1/GPa) = 0.01649549
#
# Stress axis : x y z
#
# Youngs Moduli (GPa) = 101.09890 63.37306 118.52616
#
# Poissons Ratio (x) = 0.14673 0.29872
# Poissons Ratio (y) = 0.23408 0.47061
# Poissons Ratio (z) = 0.25480 0.25162
#
# Static dielectric constant tensor:
#      x y z
#    x 1.815890 0.000000 0.000000 
#    y 0.000000 1.793770 0.000000 
#    z 0.000000 0.000000 1.853520 
# 
# From -- ./inp_files/17734.got.cif
#   From: 2010.05.17/outbox.cif.g08.bks.cpg/sg21_9_cif.got.tgz:17734.got - 2010.06.03 23:14:55.
