data_PCOD9325793
_publ_section_title
;
Structure prediction by ZEFSAII (Michael W. Deem and Ramdas Pophale) SiO2 
 PCOD9325793
Probable space group: C 2 2 2
;
_chemical_formula_sum "Si O2"
_cell_formula_units_Z 32
_cell_length_a 8.853992
_cell_length_b 13.651850
_cell_length_c 10.810843
_cell_angle_alpha 90.000000
_cell_angle_beta 90.000000
_cell_angle_gamma 90.000000
_cell_volume 1306.743033
_symmetry_space_group_name_H-M "C 2 2 2"
_symmetry_group_IT_number 21
_symmetry_cell_setting 'orthorhombic'
loop_
_space_group_symop_operation_xyz
x,y,z
-x,-y,z
x,-y,-z
-x,y,-z
1/2+x,1/2+y,z
1/2-x,1/2-y,z
1/2+x,1/2-y,-z
1/2-x,1/2+y,-z
loop_
_atom_site_type_symbol
_atom_site_label
_atom_site_fract_x
_atom_site_fract_y
_atom_site_fract_z
Si Si1 0.128522 0.580596 0.222333
Si Si2 0.929218 0.235108 0.876192
Si Si3 0.356654 0.556561 0.711829
Si Si4 0.679098 0.146104 0.490331
O O1 0.268037 0.508306 0.183271
O O2 0.202240 0.623994 0.346326
O O3 0.000000 0.500000 0.245481
O O4 0.036316 0.669423 0.154680
O O5 0.750000 0.250000 0.899959
O O6 0.921697 0.157712 0.765905
O O7 0.000000 0.191604 0.000000
O O8 0.500000 0.500000 0.662948
O O9 0.246176 0.578536 0.597663
O O10 0.500000 0.146452 0.500000
O O11 0.750000 0.250000 0.518056
#
# Coordination Sequence:
#
# PCOD9325793 Si02
#       4
#     8   8   8   8
#     4  12  26  51  80 115 163 214 267 336 413 488
#     4  12  29  56  83 118 164 219 283 345 406 488
#     4  12  29  51  79 123 166 212 280 334 413 504
#     4  12  26  46  78 114 165 213 258 335 414 493
#
# _framework density 24.488363
#
# number of rings (size 3 to 8) (size 9 to 14) (size 15 to 20)
#    0.000    0.000    5.000    3.000   10.500    2.000 
#    0.000    0.000    0.000    0.000    0.000    0.000 
#    0.000    0.000    0.000    0.000    0.000    0.000 
#
# Total GULP energy -89337.076585 kJ/mol
# GULP energy per Si atom -5583.567287 kJ/mol
# Density = 2.443263 g / cm^3
# Si number density = 24.488363 Si / 1000 Ang^3
#
#
#
# Elastic Constant Matrix: (Units=GPa)
#
#
# Indices 1 2 3 4 5 6 
#
# 1 170.8578 56.0821 31.1822 0.0000 0.0000 0.0000
# 2 56.0821 93.2296 20.5268 0.0000 0.0000 0.0000
# 3 31.1822 20.5268 75.4968 0.0000 0.0000 0.0000
# 4 0.0000 0.0000 0.0000 -0.7803 0.0000 0.0000
# 5 0.0000 0.0000 0.0000 0.0000 49.1865 0.0000
# 6 0.0000 0.0000 0.0000 0.0000 0.0000 49.8811
#
#
#
# Elastic Compliance Matrix: (Units=1/GPa)
#
#
# Indices 1 2 3 4 5 6 
#
# 1 0.007569 -0.004111 -0.002008 0.000000 0.000000 0.000000
# 2 -0.004111 0.013642 -0.002011 0.000000 0.000000 0.000000
# 3 -0.002008 -0.002011 0.014622 0.000000 0.000000 0.000000
# 4 0.000000 0.000000 0.000000 -1.281553 0.000000 0.000000
# 5 0.000000 0.000000 0.000000 0.000000 0.020331 0.000000
# 6 0.000000 0.000000 0.000000 0.000000 0.000000 0.020048
#
#
# Mechanical properties :
#
#
# Convention : Reuss Voigt Hill
#
# Bulk Modulus (GPa) = 51.09408 61.68515 56.38961
# Shear Modulus (GPa) = -4.22812 35.11034 15.44111
#
# Velocity S-wave (km/s) = -1.31542 3.79061 2.51380
# Velocity P-wave (km/s) = 4.31310 6.66352 5.61272
#
# Compressibility (1/GPa) = 0.01957174
#
# Stress axis : x y z
#
# Youngs Moduli (GPa) = 132.12384 73.30404 68.39035
#
# Poissons Ratio (x) = 0.30133 0.13736
# Poissons Ratio (y) = 0.54312 0.13755
# Poissons Ratio (z) = 0.26536 0.14743
#
# Static dielectric constant tensor:
#      x y z
#    x 1.983470 0.000000 0.000000 
#    y 0.000000 2.051550 0.000000 
#    z 0.000000 0.000000 1.908020 
# 
# From -- ./inp_files/21852.got.cif
#   From: 2010.05.17/outbox.cif.g08.bks.cpg/sg21_11_cif.got.tgz:21852.got - 2010.06.03 23:14:55.
