data_PCOD9325429
_publ_section_title
;
Structure prediction by ZEFSAII (Michael W. Deem and Ramdas Pophale) SiO2 
 PCOD9325429
Probable space group: C 2 2 2
;
_chemical_formula_sum "Si O2"
_cell_formula_units_Z 50
_cell_length_a 14.674515
_cell_length_b 31.700811
_cell_length_c 5.377819
_cell_angle_alpha 90.000000
_cell_angle_beta 90.000000
_cell_angle_gamma 90.000000
_cell_volume 2501.729275
_symmetry_space_group_name_H-M "C 2 2 2"
_symmetry_group_IT_number 21
_symmetry_cell_setting 'orthorhombic'
loop_
_space_group_symop_operation_xyz
x,y,z
-x,-y,z
x,-y,-z
-x,y,-z
1/2+x,1/2+y,z
1/2-x,1/2-y,z
1/2+x,1/2-y,-z
1/2-x,1/2+y,-z
loop_
_atom_site_type_symbol
_atom_site_label
_atom_site_fract_x
_atom_site_fract_y
_atom_site_fract_z
Si Si1 0.422814 0.773172 0.209705
Si Si2 0.054892 0.630413 0.262211
Si Si3 0.833576 0.166145 0.759650
Si Si4 0.901026 0.046159 0.383902
Si Si5 0.500000 0.500000 0.000000
Si Si6 0.750000 0.250000 0.935992
Si Si7 0.000000 0.196563 0.500000
Si Si8 0.266327 0.621202 0.271798
O O1 0.434497 0.819488 0.320816
O O2 0.434115 0.730166 0.363241
O O3 0.500000 0.769665 0.000000
O O4 0.323325 0.774157 0.097429
O O5 0.158372 0.613792 0.234794
O O6 0.000000 0.612228 0.500000
O O7 0.000000 0.626317 0.000000
O O8 0.804291 0.214527 0.792342
O O9 0.780869 0.150405 0.514590
O O10 0.940557 0.168195 0.686642
O O11 0.808509 0.140978 0.014634
O O12 0.822916 0.080198 0.362381
O O13 0.000000 0.059372 0.500000
O O14 0.878064 0.000000 0.500000
O O15 0.929621 0.033004 0.112046
#
# Coordination Sequence:
#
# PCOD9325429 Si02
#       8
#     8   8   8   8   2   4   4   8
#     4  11  23  41  61  82 122 175 236 292 332 394
#     4  11  24  44  65  93 126 174 235 286 334 382
#     4  12  29  41  64  95 137 182 229 289 340 397
#     4   9  22  44  72 109 137 177 212 261 338 433
#     4   8  18  40  76 102 138 180 206 256 326 440
#     4  12  24  46  60  88 130 180 244 278 338 398
#     4  12  26  40  60  88 133 184 231 286 360 396
#     4  12  27  45  69 103 136 176 225 288 343 400
#
# _framework density 19.986173999999998
#
# number of rings (size 3 to 8) (size 9 to 14) (size 15 to 20)
#    0.000    1.120    4.000    1.920   10.080    0.640 
#    0.000    0.000    0.000    0.480    0.000    0.000 
#    0.000    0.000    0.000    0.000    0.000    0.000 
#
# Total GULP energy -139296.933117 kJ/mol
# GULP energy per Si atom -5571.877325 kJ/mol
# Density = 1.994068 g / cm^3
# Si number density = 19.986174 Si / 1000 Ang^3
#
#
#
# Elastic Constant Matrix: (Units=GPa)
#
#
# Indices 1 2 3 4 5 6 
#
# 1 148.7803 46.2016 55.5615 0.0000 0.0000 0.0000
# 2 46.2016 65.9635 27.9658 0.0000 0.0000 0.0000
# 3 55.5615 27.9658 83.3514 0.0000 0.0000 0.0000
# 4 0.0000 0.0000 0.0000 11.4035 0.0000 0.0000
# 5 0.0000 0.0000 0.0000 0.0000 22.4755 0.0000
# 6 0.0000 0.0000 0.0000 0.0000 0.0000 53.2169
#
#
#
# Elastic Compliance Matrix: (Units=1/GPa)
#
#
# Indices 1 2 3 4 5 6 
#
# 1 0.010171 -0.004954 -0.005118 0.000000 0.000000 0.000000
# 2 -0.004954 0.020087 -0.003437 0.000000 0.000000 0.000000
# 3 -0.005118 -0.003437 0.016562 0.000000 0.000000 0.000000
# 4 0.000000 0.000000 0.000000 0.087693 0.000000 0.000000
# 5 0.000000 0.000000 0.000000 0.000000 0.044493 0.000000
# 6 0.000000 0.000000 0.000000 0.000000 0.000000 0.018791
#
#
# Mechanical properties :
#
#
# Convention : Reuss Voigt Hill
#
# Bulk Modulus (GPa) = 50.49974 61.95033 56.22503
# Shear Modulus (GPa) = 21.60620 28.64359 25.12490
#
# Velocity S-wave (km/s) = 3.29151 3.78983 3.54943
# Velocity P-wave (km/s) = 6.30615 7.08621 6.70753
#
# Compressibility (1/GPa) = 0.01980208
#
# Stress axis : x y z
#
# Youngs Moduli (GPa) = 98.31926 49.78332 60.37907
#
# Poissons Ratio (x) = 0.24663 0.30900
# Poissons Ratio (y) = 0.48709 0.20753
# Poissons Ratio (z) = 0.50317 0.17111
#
# Static dielectric constant tensor:
#      x y z
#    x 1.721750 0.000000 0.000000 
#    y 0.000000 1.664540 0.000000 
#    z 0.000000 0.000000 1.818210 
# 
# From -- ./inp_files/4288.got.cif
#   From: 2010.05.17/outbox.cif.g08.bks.cpg/sg21_3_cif.got.tgz:4288.got - 2010.06.03 23:14:55.
