data_PCOD9325300
_publ_section_title
;
Structure prediction by ZEFSAII (Michael W. Deem and Ramdas Pophale) SiO2 
 PCOD9325300
Probable space group: C 2 2 2
;
_chemical_formula_sum "Si O2"
_cell_formula_units_Z 58
_cell_length_a 27.735759
_cell_length_b 10.642023
_cell_length_c 9.272354
_cell_angle_alpha 90.000000
_cell_angle_beta 90.000000
_cell_angle_gamma 90.000000
_cell_volume 2736.870522
_symmetry_space_group_name_H-M "C 2 2 2"
_symmetry_group_IT_number 21
_symmetry_cell_setting 'orthorhombic'
loop_
_space_group_symop_operation_xyz
x,y,z
-x,-y,z
x,-y,-z
-x,y,-z
1/2+x,1/2+y,z
1/2-x,1/2-y,z
1/2+x,1/2-y,-z
1/2-x,1/2+y,-z
loop_
_atom_site_type_symbol
_atom_site_label
_atom_site_fract_x
_atom_site_fract_y
_atom_site_fract_z
Si Si1 0.511417 0.855360 0.329167
Si Si2 0.361295 0.315785 0.928204
Si Si3 0.379197 0.792442 0.756963
Si Si4 0.564976 0.667416 0.708700
Si Si5 0.000000 0.000000 0.500000
Si Si6 0.226291 0.122584 0.763296
Si Si7 0.675575 0.040073 0.162572
Si Si8 0.347690 0.352075 0.514801
O O1 0.500000 0.836475 0.500000
O O2 0.564788 0.807230 0.289732
O O3 0.471538 0.775362 0.246620
O O4 0.500000 0.000000 0.298350
O O5 0.407410 0.377342 0.850700
O O6 0.316431 0.402023 0.876770
O O7 0.349242 0.177420 0.855388
O O8 0.371243 0.282245 0.093322
O O9 0.348785 0.717806 0.636443
O O10 0.359546 0.934275 0.774990
O O11 0.534069 0.575377 0.609325
O O12 0.608800 0.709074 0.605101
O O13 0.250000 0.250000 0.821120
O O14 0.273410 0.037002 0.753073
O O15 0.200455 0.149649 0.611077
O O16 0.688095 0.000000 0.000000
O O17 0.359093 0.500000 0.500000
#
# Coordination Sequence:
#
# PCOD9325300 Si02
#       8
#     8   8   8   8   2   8   8   8
#     4  11  22  38  64  98 131 173 220 273 340 399
#     4   9  21  40  66  94 134 167 213 274 330 400
#     4  11  22  41  65 100 129 172 228 276 334 411
#     4  11  21  41  62  90 127 175 213 268 328 392
#     4  12  20  36  70  82 120 180 218 254 324 392
#     4   9  20  40  60  90 126 168 205 264 340 390
#     4   9  19  39  68  96 128 171 213 270 345 402
#     4  11  23  39  61  85 127 168 218 273 326 388
#
# _framework density 21.192087999999998
#
# number of rings (size 3 to 8) (size 9 to 14) (size 15 to 20)
#    0.000    1.793    2.759    0.828    0.000    2.759 
#    0.000    6.207    3.034    0.000    0.000    0.000 
#    0.000    0.000    0.000    0.000    0.000    0.000 
#
# Total GULP energy -161694.288095 kJ/mol
# GULP energy per Si atom -5575.665107 kJ/mol
# Density = 2.114385 g / cm^3
# Si number density = 21.192088 Si / 1000 Ang^3
#
#
#
# Elastic Constant Matrix: (Units=GPa)
#
#
# Indices 1 2 3 4 5 6 
#
# 1 143.3784 16.2258 55.9266 0.0000 0.0000 0.0000
# 2 16.2258 41.6632 23.0727 0.0000 0.0000 0.0000
# 3 55.9266 23.0727 126.3863 0.0000 0.0000 0.0000
# 4 0.0000 0.0000 0.0000 19.0875 0.0000 0.0000
# 5 0.0000 0.0000 0.0000 0.0000 13.2264 0.0000
# 6 0.0000 0.0000 0.0000 0.0000 0.0000 8.8096
#
#
#
# Elastic Compliance Matrix: (Units=1/GPa)
#
#
# Indices 1 2 3 4 5 6 
#
# 1 0.008499 -0.001365 -0.003512 0.000000 0.000000 0.000000
# 2 -0.001365 0.026921 -0.004310 0.000000 0.000000 0.000000
# 3 -0.003512 -0.004310 0.010253 0.000000 0.000000 0.000000
# 4 0.000000 0.000000 0.000000 0.052390 0.000000 0.000000
# 5 0.000000 0.000000 0.000000 0.000000 0.075606 0.000000
# 6 0.000000 0.000000 0.000000 0.000000 0.000000 0.113513
#
#
# Mechanical properties :
#
#
# Convention : Reuss Voigt Hill
#
# Bulk Modulus (GPa) = 36.63250 55.76425 46.19837
# Shear Modulus (GPa) = 15.89038 22.63822 19.26430
#
# Velocity S-wave (km/s) = 2.74127 3.27194 3.01829
# Velocity P-wave (km/s) = 5.22904 6.37534 5.83043
#
# Compressibility (1/GPa) = 0.02729817
#
# Stress axis : x y z
#
# Youngs Moduli (GPa) = 117.66423 37.14601 97.53224
#
# Poissons Ratio (x) = 0.05071 0.34249
# Poissons Ratio (y) = 0.16064 0.42041
# Poissons Ratio (z) = 0.41318 0.16012
#
# Static dielectric constant tensor:
#      x y z
#    x 1.797850 0.000000 0.000000 
#    y 0.000000 2.046490 0.000000 
#    z 0.000000 0.000000 1.786830 
# 
# From -- ./inp_files/19172.got.cif
#   From: 2010.05.17/outbox.cif.g08.bks.cpg/sg21_10_cif.got.tgz:19172.got - 2010.06.03 23:14:55.
