data_PCOD9325837
_publ_section_title
;
Structure prediction by ZEFSAII (Michael W. Deem and Ramdas Pophale) SiO2 
 PCOD9325837
Probable space group: C 2 2 2
;
_chemical_formula_sum "Si O2"
_cell_formula_units_Z 20
_cell_length_a 9.000000
_cell_length_b 24.000000
_cell_length_c 9.000000
_cell_angle_alpha 90.000000
_cell_angle_beta 90.000000
_cell_angle_gamma 90.000000
_cell_volume 1944.000000
_symmetry_space_group_name_H-M "C 2 2 2"
_symmetry_group_IT_number 21
_symmetry_cell_setting 'orthorhombic'
loop_
_space_group_symop_operation_xyz
x,y,z
-x,-y,z
x,-y,-z
-x,y,-z
1/2+x,1/2+y,z
1/2-x,1/2-y,z
1/2+x,1/2-y,-z
1/2-x,1/2+y,-z
loop_
_atom_site_type_symbol
_atom_site_label
_atom_site_fract_x
_atom_site_fract_y
_atom_site_fract_z
Si Si1 0.392457 0.220517 0.126241
Si Si2 0.819167 0.503783 0.170305
Si Si3 0.707115 0.893140 0.658186
Si Si4 0.645220 0.882064 0.310682
Si Si5 0.897748 0.212276 0.351689
O O1 0.250000 0.250000 0.052997
O O2 0.316370 0.175805 0.235194
O O3 0.499055 0.259292 0.226679
O O4 0.500000 0.195419 0.000000
O O5 0.759617 0.453780 0.273170
O O6 0.786504 0.565188 0.228334
O O7 0.000000 0.500000 0.175998
O O8 0.772143 0.500000 0.000000
O O9 0.693895 0.889197 0.480061
O O10 0.535381 0.881641 0.703809
O O11 0.827427 0.846564 0.700216
O O12 0.750000 0.250000 0.382582
O O13 0.000000 0.207338 0.500000
#
# Coordination Sequence:
#
# PCOD9325837 Si02
#       5
#     8   8   8   8   8
#     4  12  27  42  63  94 132 177 221 275 338 406
#     4   9  19  32  58  93 128 160 208 270 326 381
#     4  10  20  36  61  92 126 165 213 271 324 384
#     4  10  20  37  60  90 129 166 213 268 320 388
#     4  12  23  40  65  94 133 176 225 275 336 401
#
# _framework density 10.288066000000001
#
# number of rings (size 3 to 8) (size 9 to 14) (size 15 to 20)
#    0.000    1.400    2.000    4.200    5.600    2.400 
#    0.000    0.000    0.000    8.400    0.000    7.000 
#    0.000    0.000    0.000    0.000    0.000    0.000 
#
# Total GULP energy -111671.379846 kJ/mol
# GULP energy per Si atom -5583.568992 kJ/mol
# Density = 1.026465 g / cm^3
# Si number density = 10.288066 Si / 1000 Ang^3
#
#
#
# Elastic Constant Matrix: (Units=GPa)
#
#
# Indices 1 2 3 4 5 6 
#
# 1 49.3497 42.2993 15.1992 0.0000 0.0000 0.0000
# 2 42.2993 134.9995 54.1480 0.0000 0.0000 0.0000
# 3 15.1992 54.1480 96.6105 0.0000 0.0000 0.0000
# 4 0.0000 0.0000 0.0000 17.3784 0.0000 0.0000
# 5 0.0000 0.0000 0.0000 0.0000 21.5326 0.0000
# 6 0.0000 0.0000 0.0000 0.0000 0.0000 11.8595
#
#
#
# Elastic Compliance Matrix: (Units=1/GPa)
#
#
# Indices 1 2 3 4 5 6 
#
# 1 0.027736 -0.008953 0.000654 0.000000 0.000000 0.000000
# 2 -0.008953 0.012446 -0.005567 0.000000 0.000000 0.000000
# 3 0.000654 -0.005567 0.013368 0.000000 0.000000 0.000000
# 4 0.000000 0.000000 0.000000 0.057543 0.000000 0.000000
# 5 0.000000 0.000000 0.000000 0.000000 0.046441 0.000000
# 6 0.000000 0.000000 0.000000 0.000000 0.000000 0.084320
#
#
# Mechanical properties :
#
#
# Convention : Reuss Voigt Hill
#
# Bulk Modulus (GPa) = 38.73192 56.02806 47.37999
# Shear Modulus (GPa) = 17.97327 21.44166 19.70747
#
# Velocity S-wave (km/s) = 2.95871 3.23160 3.09816
# Velocity P-wave (km/s) = 5.52599 6.41974 5.98956
#
# Compressibility (1/GPa) = 0.02581850
#
# Stress axis : x y z
#
# Youngs Moduli (GPa) = 36.05438 80.35014 74.80541
#
# Poissons Ratio (x) = 0.71937 -0.04895
# Poissons Ratio (y) = 0.32279 0.41644
# Poissons Ratio (z) = -0.02359 0.44730
#
# Static dielectric constant tensor:
#      x y z
#    x 1.692580 0.000000 0.000000 
#    y 0.000000 1.770280 0.000000 
#    z 0.000000 0.000000 1.737540 
# 
# From -- ./inp_files/10899.got.cif
#   From: 2010.05.17/outbox.ucp.g08.bks.cvg/sg21_6_cif.got.tgz:10899.got - 2010.06.11 15:15:05.
