data_PCOD9325856
_publ_section_title
;
Structure prediction by ZEFSAII (Michael W. Deem and Ramdas Pophale) SiO2 
 PCOD9325856
Probable space group: C 2 2 2
;
_chemical_formula_sum "Si O2"
_cell_formula_units_Z 28
_cell_length_a 21.000000
_cell_length_b 9.000000
_cell_length_c 15.000000
_cell_angle_alpha 90.000000
_cell_angle_beta 90.000000
_cell_angle_gamma 90.000000
_cell_volume 2835.000000
_symmetry_space_group_name_H-M "C 2 2 2"
_symmetry_group_IT_number 21
_symmetry_cell_setting 'orthorhombic'
loop_
_space_group_symop_operation_xyz
x,y,z
-x,-y,z
x,-y,-z
-x,y,-z
1/2+x,1/2+y,z
1/2-x,1/2-y,z
1/2+x,1/2-y,-z
1/2-x,1/2+y,-z
loop_
_atom_site_type_symbol
_atom_site_label
_atom_site_fract_x
_atom_site_fract_y
_atom_site_fract_z
Si Si1 0.495549 0.174971 0.597181
Si Si2 0.927210 0.025390 0.148023
Si Si3 0.786100 0.090211 0.087917
Si Si4 0.880566 0.770165 0.705606
Si Si5 0.613601 0.731067 0.281043
Si Si6 0.200514 0.017426 0.393720
Si Si7 0.798929 0.500086 0.248306
O O1 0.500000 0.248530 0.500000
O O2 0.425699 0.197834 0.634295
O O3 0.550587 0.227657 0.663769
O O4 0.500000 0.000000 0.588957
O O5 0.905439 0.878007 0.200666
O O6 0.864128 0.081611 0.093191
O O7 0.927704 0.146965 0.226662
O O8 0.000000 0.000000 0.112270
O O9 0.750000 0.250000 0.084209
O O10 0.757490 0.008120 0.175799
O O11 0.767446 0.000000 0.000000
O O12 0.836940 0.653456 0.756411
O O13 0.835088 0.879948 0.652426
O O14 0.660810 0.655164 0.353500
O O15 0.651115 0.868159 0.237938
O O16 0.201931 0.000000 0.500000
O O17 0.269074 0.018015 0.346709
#
# Coordination Sequence:
#
# PCOD9325856 Si02
#       7
#     8   8   8   8   8   8   8
#     4  11  22  36  56  90 131 180 231 276 329 392
#     4  11  23  43  71  98 129 171 219 269 334 400
#     4  12  27  47  75 105 135 174 219 280 350 417
#     4  11  21  40  62  87 129 173 220 271 328 391
#     4  11  23  37  62  94 125 172 225 273 322 390
#     4  11  24  37  57  89 126 169 218 274 333 390
#     4  12  23  42  65  92 132 170 221 275 334 401
#
# _framework density 9.8765429999999999
#
# number of rings (size 3 to 8) (size 9 to 14) (size 15 to 20)
#    0.000    0.714    7.143    1.714    2.000    3.714 
#    0.000    2.143    0.000    0.000    0.000    0.000 
#    0.000    0.000    0.000    0.000    0.000    0.000 
#
# Total GULP energy -156141.961407 kJ/mol
# GULP energy per Si atom -5576.498622 kJ/mol
# Density = 0.985406 g / cm^3
# Si number density = 9.876543 Si / 1000 Ang^3
#
#
#
# Elastic Constant Matrix: (Units=GPa)
#
#
# Indices 1 2 3 4 5 6 
#
# 1 122.8715 41.8168 22.8847 0.0000 0.0000 0.0000
# 2 41.8168 86.0867 31.4623 0.0000 0.0000 0.0000
# 3 22.8847 31.4623 83.1081 0.0000 0.0000 0.0000
# 4 0.0000 0.0000 0.0000 31.6059 0.0000 0.0000
# 5 0.0000 0.0000 0.0000 0.0000 33.3421 0.0000
# 6 0.0000 0.0000 0.0000 0.0000 0.0000 19.9046
#
#
#
# Elastic Compliance Matrix: (Units=1/GPa)
#
#
# Indices 1 2 3 4 5 6 
#
# 1 0.009828 -0.004393 -0.001043 0.000000 0.000000 0.000000
# 2 -0.004393 0.015445 -0.004637 0.000000 0.000000 0.000000
# 3 -0.001043 -0.004637 0.014075 0.000000 0.000000 0.000000
# 4 0.000000 0.000000 0.000000 0.031640 0.000000 0.000000
# 5 0.000000 0.000000 0.000000 0.000000 0.029992 0.000000
# 6 0.000000 0.000000 0.000000 0.000000 0.000000 0.050240
#
#
# Mechanical properties :
#
#
# Convention : Reuss Voigt Hill
#
# Bulk Modulus (GPa) = 52.07948 53.82155 52.95052
# Shear Modulus (GPa) = 28.12682 30.03069 29.07876
#
# Velocity S-wave (km/s) = 3.77758 3.90334 3.84097
# Velocity P-wave (km/s) = 6.74161 6.90080 6.82167
#
# Compressibility (1/GPa) = 0.01920142
#
# Stress axis : x y z
#
# Youngs Moduli (GPa) = 101.75192 64.74696 71.04600
#
# Poissons Ratio (x) = 0.28441 0.07412
# Poissons Ratio (y) = 0.44695 0.32947
# Poissons Ratio (z) = 0.10616 0.30026
#
# Static dielectric constant tensor:
#      x y z
#    x 1.689090 0.000000 0.000000 
#    y 0.000000 1.696910 0.000000 
#    z 0.000000 0.000000 1.708700 
# 
# From -- ./inp_files/33281.got.cif
#   From: 2010.05.17/outbox.ucp.g08.bks.cvg/sg21_17_cif.got.tgz:33281.got - 2010.06.11 15:15:05.
