data_PCOD9325656
_publ_section_title
;
Structure prediction by ZEFSAII (Michael W. Deem and Ramdas Pophale) SiO2 
 PCOD9325656
Probable space group: C 2 2 2
;
_chemical_formula_sum "Si O2"
_cell_formula_units_Z 22
_cell_length_a 5.167788
_cell_length_b 31.843257
_cell_length_c 5.465930
_cell_angle_alpha 90.000000
_cell_angle_beta 90.000000
_cell_angle_gamma 90.000000
_cell_volume 899.469076
_symmetry_space_group_name_H-M "C 2 2 2"
_symmetry_group_IT_number 21
_symmetry_cell_setting 'orthorhombic'
loop_
_space_group_symop_operation_xyz
x,y,z
-x,-y,z
x,-y,-z
-x,y,-z
1/2+x,1/2+y,z
1/2-x,1/2-y,z
1/2+x,1/2-y,-z
1/2-x,1/2+y,-z
loop_
_atom_site_type_symbol
_atom_site_label
_atom_site_fract_x
_atom_site_fract_y
_atom_site_fract_z
Si Si1 0.500000 0.000000 0.000000
Si Si2 0.148572 0.061907 0.241378
Si Si3 0.747131 0.845221 0.341806
Si Si4 0.500000 0.224513 0.000000
O O1 0.601526 0.965963 0.202885
O O2 0.191604 0.111646 0.204295
O O3 0.000000 0.056655 0.500000
O O4 0.000000 0.046578 0.000000
O O5 0.500000 0.857536 0.500000
O O6 0.647990 0.805883 0.188108
O O7 0.000000 0.834243 0.500000
O O8 0.250000 0.250000 0.894194
#
# Coordination Sequence:
#
# PCOD9325656 Si02
#       4
#     2   8   8   4
#     4  12  28  50  80 116 172 202 278 342 424 450
#     4  11  29  50  78 114 156 215 271 332 403 488
#     4  11  27  50  80 110 156 212 266 325 403 489
#     4  12  27  46  82 119 160 201 264 338 415 476
#
# _framework density 24.458874000000002
#
# number of rings (size 3 to 8) (size 9 to 14) (size 15 to 20)
#    0.000    0.727    0.000    3.818   22.909    7.273 
#    0.000    0.000    0.000    0.000    0.000    0.000 
#    0.000    0.000    0.000    0.000    0.000    0.000 
#
# Total GULP energy -61384.986180 kJ/mol
# GULP energy per Si atom -5580.453289 kJ/mol
# Density = 2.440320 g / cm^3
# Si number density = 24.458874 Si / 1000 Ang^3
#
#
#
# Elastic Constant Matrix: (Units=GPa)
#
#
# Indices 1 2 3 4 5 6 
#
# 1 137.0436 65.9379 54.7156 0.0000 0.0000 0.0000
# 2 65.9379 172.7342 60.5279 0.0000 0.0000 0.0000
# 3 54.7156 60.5279 105.0794 0.0000 0.0000 0.0000
# 4 0.0000 0.0000 0.0000 252.1217 0.0000 0.0000
# 5 0.0000 0.0000 0.0000 0.0000 18.8090 0.0000
# 6 0.0000 0.0000 0.0000 0.0000 0.0000 86.1468
#
#
#
# Elastic Compliance Matrix: (Units=1/GPa)
#
#
# Indices 1 2 3 4 5 6 
#
# 1 0.010004 -0.002498 -0.003771 0.000000 0.000000 0.000000
# 2 -0.002498 0.007877 -0.003237 0.000000 0.000000 0.000000
# 3 -0.003771 -0.003237 0.013344 0.000000 0.000000 0.000000
# 4 0.000000 0.000000 0.000000 0.003966 0.000000 0.000000
# 5 0.000000 0.000000 0.000000 0.000000 0.053166 0.000000
# 6 0.000000 0.000000 0.000000 0.000000 0.000000 0.011608
#
#
# Mechanical properties :
#
#
# Convention : Reuss Voigt Hill
#
# Bulk Modulus (GPa) = 81.86253 86.35778 84.11015
# Shear Modulus (GPa) = 40.63477 86.99389 63.81433
#
# Velocity S-wave (km/s) = 4.08039 5.97031 5.11342
# Velocity P-wave (km/s) = 7.46603 9.10550 8.32621
#
# Compressibility (1/GPa) = 0.01221560
#
# Stress axis : x y z
#
# Youngs Moduli (GPa) = 99.95927 126.95456 74.93816
#
# Poissons Ratio (x) = 0.31709 0.28255
# Poissons Ratio (y) = 0.24966 0.24255
# Poissons Ratio (z) = 0.37690 0.41091
#
# Static dielectric constant tensor:
#      x y z
#    x -0.379470 0.000000 0.000000 
#    y 0.000000 1.952260 0.000000 
#    z 0.000000 0.000000 2.061070 
# 
# From -- ./inp_files/745.got.cif
#   From: 2010.05.17/outbox.cif.g08.bks.cpg/sg21_1_cif.got.tgz:745.got - 2010.06.03 23:14:55.
