data_PCOD9325055
_publ_section_title
;
Structure prediction by ZEFSAII (Michael W. Deem and Ramdas Pophale) SiO2 
 PCOD9325055
Probable space group: C 2 2 2
;
_chemical_formula_sum "Si O2"
_cell_formula_units_Z 22
_cell_length_a 5.256214
_cell_length_b 15.685586
_cell_length_c 12.118849
_cell_angle_alpha 90.000000
_cell_angle_beta 90.000000
_cell_angle_gamma 90.000000
_cell_volume 999.160280
_symmetry_space_group_name_H-M "C 2 2 2"
_symmetry_group_IT_number 21
_symmetry_cell_setting 'orthorhombic'
loop_
_space_group_symop_operation_xyz
x,y,z
-x,-y,z
x,-y,-z
-x,y,-z
1/2+x,1/2+y,z
1/2-x,1/2-y,z
1/2+x,1/2-y,-z
1/2-x,1/2+y,-z
loop_
_atom_site_type_symbol
_atom_site_label
_atom_site_fract_x
_atom_site_fract_y
_atom_site_fract_z
Si Si1 0.000000 0.500000 0.000000
Si Si2 0.822214 0.082807 0.190288
Si Si3 0.750000 0.250000 0.071650
Si Si4 0.746794 0.147310 0.429233
O O1 0.843661 0.444165 0.085390
O O2 0.886097 0.178233 0.148927
O O3 0.723440 0.099181 0.313158
O O4 0.000000 0.000000 0.200077
O O5 0.500000 0.222544 0.000000
O O6 0.500000 0.127038 0.500000
O O7 0.750000 0.250000 0.410152
O O8 0.000000 0.126194 0.500000
#
# Coordination Sequence:
#
# PCOD9325055 Si02
#       4
#     2   8   4   8
#     4  12  26  48  70 114 154 184 270 314 382 480
#     4  12  27  48  75 112 156 204 257 326 387 469
#     4  12  26  48  76 108 154 210 258 314 402 462
#     4  10  24  48  77 109 148 200 260 315 382 465
#
# _framework density 22.01849
#
# number of rings (size 3 to 8) (size 9 to 14) (size 15 to 20)
#    0.000    0.727    3.636    2.727    5.091    0.727 
#    0.000    0.000    0.000    0.000    0.000    0.000 
#    0.000    0.000    0.000    0.000    0.000    0.000 
#
# Total GULP energy -61234.070509 kJ/mol
# GULP energy per Si atom -5566.733683 kJ/mol
# Density = 2.196837 g / cm^3
# Si number density = 22.018490 Si / 1000 Ang^3
#
#
#
# Elastic Constant Matrix: (Units=GPa)
#
#
# Indices 1 2 3 4 5 6 
#
# 1 126.7537 41.5325 95.0723 0.0000 0.0000 0.0000
# 2 41.5325 120.7569 82.3733 0.0000 0.0000 0.0000
# 3 95.0723 82.3733 249.6716 0.0000 0.0000 0.0000
# 4 0.0000 0.0000 0.0000 72.5465 0.0000 0.0000
# 5 0.0000 0.0000 0.0000 0.0000 40.0223 0.0000
# 6 0.0000 0.0000 0.0000 0.0000 0.0000 13.6845
#
#
#
# Elastic Compliance Matrix: (Units=1/GPa)
#
#
# Indices 1 2 3 4 5 6 
#
# 1 0.011180 -0.001214 -0.003856 0.000000 0.000000 0.000000
# 2 -0.001214 0.010818 -0.003107 0.000000 0.000000 0.000000
# 3 -0.003856 -0.003107 0.006499 0.000000 0.000000 0.000000
# 4 0.000000 0.000000 0.000000 0.013784 0.000000 0.000000
# 5 0.000000 0.000000 0.000000 0.000000 0.024986 0.000000
# 6 0.000000 0.000000 0.000000 0.000000 0.000000 0.073075
#
#
# Mechanical properties :
#
#
# Convention : Reuss Voigt Hill
#
# Bulk Modulus (GPa) = 82.36349 103.90427 93.13388
# Shear Modulus (GPa) = 31.10528 43.79762 37.45145
#
# Velocity S-wave (km/s) = 3.76265 4.46480 4.12868
# Velocity P-wave (km/s) = 7.50763 8.59484 8.06956
#
# Compressibility (1/GPa) = 0.01214130
#
# Stress axis : x y z
#
# Youngs Moduli (GPa) = 89.44692 92.43857 153.87594
#
# Poissons Ratio (x) = 0.11226 0.59342
# Poissons Ratio (y) = 0.10863 0.47804
# Poissons Ratio (z) = 0.34495 0.28718
#
# Static dielectric constant tensor:
#      x y z
#    x 1.861950 0.000000 0.000000 
#    y 0.000000 2.009680 0.000000 
#    z 0.000000 0.000000 1.666390 
# 
# From -- ./inp_files/20131.got.cif
#   From: 2010.05.17/outbox.cif.g08.bks.cpg/sg21_11_cif.got.tgz:20131.got - 2010.06.03 23:14:55.
