data_PCOD9325175
_publ_section_title
;
Structure prediction by ZEFSAII (Michael W. Deem and Ramdas Pophale) SiO2 
 PCOD9325175
Probable space group: C 2 2 2
;
_chemical_formula_sum "Si O2"
_cell_formula_units_Z 24
_cell_length_a 4.915098
_cell_length_b 14.914019
_cell_length_c 12.943734
_cell_angle_alpha 90.000000
_cell_angle_beta 90.000000
_cell_angle_gamma 90.000000
_cell_volume 948.825729
_symmetry_space_group_name_H-M "C 2 2 2"
_symmetry_group_IT_number 21
_symmetry_cell_setting 'orthorhombic'
loop_
_space_group_symop_operation_xyz
x,y,z
-x,-y,z
x,-y,-z
-x,y,-z
1/2+x,1/2+y,z
1/2-x,1/2-y,z
1/2+x,1/2-y,-z
1/2-x,1/2+y,-z
loop_
_atom_site_type_symbol
_atom_site_label
_atom_site_fract_x
_atom_site_fract_y
_atom_site_fract_z
Si Si1 0.500000 0.000000 0.500000
Si Si2 0.750000 0.250000 0.674122
Si Si3 0.000000 0.307952 0.000000
Si Si4 0.394248 0.909658 0.827246
Si Si5 0.500000 0.361766 0.500000
Si Si6 0.000000 0.000000 0.000000
O O1 0.737015 0.923944 0.524102
O O2 0.676540 0.165547 0.746083
O O3 0.538603 0.296610 0.597370
O O4 0.750000 0.250000 0.960017
O O5 0.887455 0.363062 0.097380
O O6 0.500000 0.000000 0.774164
O O7 0.184815 0.943496 0.917179
#
# Coordination Sequence:
#
# PCOD9325175 Si02
#       6
#     2   4   4   8   4   2
#     4  10  26  58  98 106 170 228 298 374 466 494
#     4  12  30  54  86 124 178 236 306 364 454 528
#     4  12  24  48  76 116 166 212 273 355 419 523
#     4  12  27  48  82 123 172 229 284 360 444 538
#     4  11  27  60  84 132 170 240 296 390 429 541
#     4  12  24  52  78 132 178 226 286 362 436 554
#
# _framework density 25.294422999999998
#
# number of rings (size 3 to 8) (size 9 to 14) (size 15 to 20)
#    0.000    0.333    5.000    2.000    2.333    2.667 
#   21.000    0.000    3.667    0.000    0.000    0.000 
#    0.000    0.000    0.000    0.000    0.000    0.000 
#
# Total GULP energy -66833.432955 kJ/mol
# GULP energy per Si atom -5569.452746 kJ/mol
# Density = 2.523685 g / cm^3
# Si number density = 25.294423 Si / 1000 Ang^3
#
#
#
# Elastic Constant Matrix: (Units=GPa)
#
#
# Indices 1 2 3 4 5 6 
#
# 1 114.2885 73.9985 47.8828 0.0000 0.0000 0.0000
# 2 73.9985 272.2591 123.3825 0.0000 0.0000 0.0000
# 3 47.8828 123.3825 175.4664 0.0000 0.0000 0.0000
# 4 0.0000 0.0000 0.0000 9.7404 0.0000 0.0000
# 5 0.0000 0.0000 0.0000 0.0000 26.8359 0.0000
# 6 0.0000 0.0000 0.0000 0.0000 0.0000 49.3477
#
#
#
# Elastic Compliance Matrix: (Units=1/GPa)
#
#
# Indices 1 2 3 4 5 6 
#
# 1 0.010816 -0.002351 -0.001298 0.000000 0.000000 0.000000
# 2 -0.002351 0.005902 -0.003508 0.000000 0.000000 0.000000
# 3 -0.001298 -0.003508 0.008520 0.000000 0.000000 0.000000
# 4 0.000000 0.000000 0.000000 0.102665 0.000000 0.000000
# 5 0.000000 0.000000 0.000000 0.000000 0.037264 0.000000
# 6 0.000000 0.000000 0.000000 0.000000 0.000000 0.020264
#
#
# Mechanical properties :
#
#
# Convention : Reuss Voigt Hill
#
# Bulk Modulus (GPa) = 91.55424 116.94908 104.25166
# Shear Modulus (GPa) = 24.58352 38.30147 31.44249
#
# Velocity S-wave (km/s) = 3.12091 3.89553 3.52953
# Velocity P-wave (km/s) = 7.01860 8.15898 7.61018
#
# Compressibility (1/GPa) = 0.01092249
#
# Stress axis : x y z
#
# Youngs Moduli (GPa) = 92.45410 169.43251 117.36582
#
# Poissons Ratio (x) = 0.39842 0.15235
# Poissons Ratio (y) = 0.21741 0.41177
# Poissons Ratio (z) = 0.12002 0.59444
#
# Static dielectric constant tensor:
#      x y z
#    x 2.140960 0.000000 0.000000 
#    y 0.000000 2.232700 0.000000 
#    z 0.000000 0.000000 2.063660 
# 
# From -- ./inp_files/28432.got.cif
#   From: 2010.05.17/outbox.cif.g08.bks.cpg/sg21_15_cif.got.tgz:28432.got - 2010.06.03 23:14:55.
