data_PCOD9325237
_publ_section_title
;
Structure prediction by ZEFSAII (Michael W. Deem and Ramdas Pophale) SiO2 
 PCOD9325237
Probable space group: C 2 2 2
;
_chemical_formula_sum "Si O2"
_cell_formula_units_Z 42
_cell_length_a 26.727805
_cell_length_b 8.685581
_cell_length_c 8.769292
_cell_angle_alpha 90.000000
_cell_angle_beta 90.000000
_cell_angle_gamma 90.000000
_cell_volume 2035.760579
_symmetry_space_group_name_H-M "C 2 2 2"
_symmetry_group_IT_number 21
_symmetry_cell_setting 'orthorhombic'
loop_
_space_group_symop_operation_xyz
x,y,z
-x,-y,z
x,-y,-z
-x,y,-z
1/2+x,1/2+y,z
1/2-x,1/2-y,z
1/2+x,1/2-y,-z
1/2-x,1/2+y,-z
loop_
_atom_site_type_symbol
_atom_site_label
_atom_site_fract_x
_atom_site_fract_y
_atom_site_fract_z
Si Si1 0.087017 0.162196 0.678534
Si Si2 0.830824 0.678230 0.517994
Si Si3 0.000000 0.000000 0.500000
Si Si4 0.142031 0.149396 0.227728
Si Si5 0.750000 0.250000 0.231773
Si Si6 0.717590 0.500000 0.000000
Si Si7 0.442393 0.311696 0.006059
O O1 0.112856 0.283311 0.568605
O O2 0.081810 0.233503 0.845793
O O3 0.120967 0.008205 0.696874
O O4 0.035102 0.102611 0.608576
O O5 0.819741 0.500000 0.500000
O O6 0.827563 0.759182 0.354884
O O7 0.796694 0.745251 0.653001
O O8 0.180140 0.110229 0.092931
O O9 0.093049 0.227615 0.149203
O O10 0.747800 0.398434 0.121729
O O11 0.442755 0.500000 0.000000
O O12 0.500000 0.260749 0.000000
#
# Coordination Sequence:
#
# PCOD9325237 Si02
#       7
#     8   8   2   8   4   4   8
#     4  11  20  39  65 102 135 177 240 288 344 416
#     4  12  28  44  66 100 145 184 226 297 365 427
#     4  12  20  32  76 104 140 192 248 296 340 416
#     4  11  20  43  70  97 136 178 228 301 345 412
#     4  12  30  48  70 102 132 186 242 302 360 436
#     4  12  26  46  71 100 130 176 241 296 356 424
#     4   9  17  32  62  99 127 165 223 286 336 394
#
# _framework density 20.631112000000002
#
# number of rings (size 3 to 8) (size 9 to 14) (size 15 to 20)
#    0.000    0.952    6.667    2.286    5.333    0.000 
#    0.000    0.476    0.000    1.143    0.000    0.000 
#    0.000    0.000    0.000    0.000    0.000    0.000 
#
# Total GULP energy -117289.984646 kJ/mol
# GULP energy per Si atom -5585.237364 kJ/mol
# Density = 2.058415 g / cm^3
# Si number density = 20.631112 Si / 1000 Ang^3
#
#
#
# Elastic Constant Matrix: (Units=GPa)
#
#
# Indices 1 2 3 4 5 6 
#
# 1 75.1224 17.0204 37.4239 0.0000 0.0000 0.0000
# 2 17.0204 34.3768 38.2658 0.0000 0.0000 0.0000
# 3 37.4239 38.2658 142.8005 0.0000 0.0000 0.0000
# 4 0.0000 0.0000 0.0000 21.9458 0.0000 0.0000
# 5 0.0000 0.0000 0.0000 0.0000 47.4636 0.0000
# 6 0.0000 0.0000 0.0000 0.0000 0.0000 13.2161
#
#
#
# Elastic Compliance Matrix: (Units=1/GPa)
#
#
# Indices 1 2 3 4 5 6 
#
# 1 0.015801 -0.004580 -0.002914 0.000000 0.000000 0.000000
# 2 -0.004580 0.042782 -0.010264 0.000000 0.000000 0.000000
# 3 -0.002914 -0.010264 0.010517 0.000000 0.000000 0.000000
# 4 0.000000 0.000000 0.000000 0.045567 0.000000 0.000000
# 5 0.000000 0.000000 0.000000 0.000000 0.021069 0.000000
# 6 0.000000 0.000000 0.000000 0.000000 0.000000 0.075665
#
#
# Mechanical properties :
#
#
# Convention : Reuss Voigt Hill
#
# Bulk Modulus (GPa) = 29.77553 48.63554 39.20554
# Shear Modulus (GPa) = 19.37156 27.16440 23.26798
#
# Velocity S-wave (km/s) = 3.06755 3.63253 3.36193
# Velocity P-wave (km/s) = 5.19713 6.42019 5.84076
#
# Compressibility (1/GPa) = 0.03358462
#
# Stress axis : x y z
#
# Youngs Moduli (GPa) = 63.28798 23.37431 95.08648
#
# Poissons Ratio (x) = 0.10705 0.27705
# Poissons Ratio (y) = 0.28985 0.97596
# Poissons Ratio (z) = 0.18440 0.23991
#
# Static dielectric constant tensor:
#      x y z
#    x 1.793090 0.000000 0.000000 
#    y 0.000000 1.744420 0.000000 
#    z 0.000000 0.000000 1.770410 
# 
# From -- ./inp_files/19011.got.cif
#   From: 2010.05.17/outbox.cif.g08.bks.cpg/sg21_10_cif.got.tgz:19011.got - 2010.06.03 23:14:55.
