data_PCOD9325495
_publ_section_title
;
Structure prediction by ZEFSAII (Michael W. Deem and Ramdas Pophale) SiO2 
 PCOD9325495
Probable space group: C 2 2 2
;
_chemical_formula_sum "Si O2"
_cell_formula_units_Z 32
_cell_length_a 5.238261
_cell_length_b 31.037992
_cell_length_c 8.666362
_cell_angle_alpha 90.000000
_cell_angle_beta 90.000000
_cell_angle_gamma 90.000000
_cell_volume 1409.021359
_symmetry_space_group_name_H-M "C 2 2 2"
_symmetry_group_IT_number 21
_symmetry_cell_setting 'orthorhombic'
loop_
_space_group_symop_operation_xyz
x,y,z
-x,-y,z
x,-y,-z
-x,y,-z
1/2+x,1/2+y,z
1/2-x,1/2-y,z
1/2+x,1/2-y,-z
1/2-x,1/2+y,-z
loop_
_atom_site_type_symbol
_atom_site_label
_atom_site_fract_x
_atom_site_fract_y
_atom_site_fract_z
Si Si1 0.500000 0.214672 0.000000
Si Si2 0.992761 0.100174 0.281336
Si Si3 0.000000 0.823556 0.500000
Si Si4 0.250000 0.750000 0.708135
Si Si5 0.509362 0.948442 0.186915
Si Si6 0.000000 0.159227 0.000000
O O1 0.535605 0.238291 0.834867
O O2 0.751582 0.187250 0.024845
O O3 0.753211 0.069999 0.253543
O O4 0.069249 0.128369 0.136767
O O5 0.884406 0.139698 0.388250
O O6 0.251022 0.070709 0.287304
O O7 0.825572 0.790723 0.399202
O O8 0.500000 0.000000 0.196736
O O9 0.500000 0.937838 0.000000
#
# Coordination Sequence:
#
# PCOD9325495 Si02
#       6
#     4   8   4   4   8   4
#     4  12  27  50  76 104 142 202 272 312 368 440
#     4  12  25  47  70 111 152 195 243 303 385 455
#     4  12  32  46  73 112 162 200 249 316 394 452
#     4  12  30  50  76 114 152 210 262 328 378 450
#     4  11  23  45  79 112 142 187 254 315 366 444
#     4  12  23  46  75 110 143 200 257 306 373 458
#
# _framework density 22.710798
#
# number of rings (size 3 to 8) (size 9 to 14) (size 15 to 20)
#    0.000    0.250    5.000    3.000    3.500    3.000 
#    0.000    3.750    0.000    0.000    0.000    0.000 
#    0.000    0.000    0.000    0.000    0.000    0.000 
#
# Total GULP energy -89071.063996 kJ/mol
# GULP energy per Si atom -5566.941500 kJ/mol
# Density = 2.265911 g / cm^3
# Si number density = 22.710798 Si / 1000 Ang^3
#
#
#
# Elastic Constant Matrix: (Units=GPa)
#
#
# Indices 1 2 3 4 5 6 
#
# 1 184.4788 86.5367 14.5449 0.0000 0.0000 0.0000
# 2 86.5367 167.0224 61.1827 0.0000 0.0000 0.0000
# 3 14.5449 61.1827 79.4850 0.0000 0.0000 0.0000
# 4 0.0000 0.0000 0.0000 39.9634 0.0000 0.0000
# 5 0.0000 0.0000 0.0000 0.0000 1.6160 0.0000
# 6 0.0000 0.0000 0.0000 0.0000 0.000046017.0404
#
#
#
# Elastic Compliance Matrix: (Units=1/GPa)
#
#
# Indices 1 2 3 4 5 6 
#
# 1 0.007436 -0.004671 0.002235 0.000000 0.000000 0.000000
# 2 -0.004671 0.011273 -0.007822 0.000000 0.000000 0.000000
# 3 0.002235 -0.007822 0.018193 0.000000 0.000000 0.000000
# 4 0.000000 0.000000 0.000000 0.025023 0.000000 0.000000
# 5 0.000000 0.000000 0.000000 0.000000 0.618813 0.000000
# 6 0.000000 0.000000 0.000000 0.000000 0.000000 0.000022
#
#
# Mechanical properties :
#
#
# Convention : Reuss Voigt Hill
#
# Bulk Modulus (GPa) = 61.03337 83.94610 72.48973
# Shear Modulus (GPa) = 7.07475 9229.63875 4618.35675
#
# Velocity S-wave (km/s) = 1.76689 63.81857 45.14383
# Velocity P-wave (km/s) = 5.57629 73.94225 52.43353
#
# Compressibility (1/GPa) = 0.01638448
#
# Stress axis : x y z
#
# Youngs Moduli (GPa) = 134.48660 88.70809 54.96549
#
# Poissons Ratio (x) = 0.41438 -0.12285
# Poissons Ratio (y) = 0.62822 0.42996
# Poissons Ratio (z) = -0.30058 0.69391
#
# Static dielectric constant tensor:
#      x y z
#    x 2.045690 0.000000 0.000000 
#    y 0.000000 1.854650 0.000000 
#    z 0.000000 0.000000 -14.853710 
# 
# From -- ./inp_files/9220.got.cif
#   From: 2010.05.17/outbox.cif.g08.bks.cpg/sg21_5_cif.got.tgz:9220.got - 2010.06.03 23:14:55.
