data_PCOD9325264
_publ_section_title
;
Structure prediction by ZEFSAII (Michael W. Deem and Ramdas Pophale) SiO2 
 PCOD9325264
Probable space group: C 2 2 2
;
_chemical_formula_sum "Si O2"
_cell_formula_units_Z 58
_cell_length_a 8.613046
_cell_length_b 16.658610
_cell_length_c 21.060799
_cell_angle_alpha 90.000000
_cell_angle_beta 90.000000
_cell_angle_gamma 90.000000
_cell_volume 3021.832383
_symmetry_space_group_name_H-M "C 2 2 2"
_symmetry_group_IT_number 21
_symmetry_cell_setting 'orthorhombic'
loop_
_space_group_symop_operation_xyz
x,y,z
-x,-y,z
x,-y,-z
-x,y,-z
1/2+x,1/2+y,z
1/2-x,1/2-y,z
1/2+x,1/2-y,-z
1/2-x,1/2+y,-z
loop_
_atom_site_type_symbol
_atom_site_label
_atom_site_fract_x
_atom_site_fract_y
_atom_site_fract_z
Si Si1 0.500000 0.000000 0.500000
Si Si2 0.687481 0.663456 0.926669
Si Si3 0.316203 0.483834 0.708142
Si Si4 0.181993 0.837857 0.505869
Si Si5 0.695396 0.841542 0.628068
Si Si6 0.812961 0.836459 0.075702
Si Si7 0.687907 0.500888 0.856962
Si Si8 0.145385 0.600835 0.612852
O O1 0.597999 0.052630 0.548951
O O2 0.750000 0.750000 0.903768
O O3 0.500374 0.666030 0.921264
O O4 0.742963 0.582913 0.890944
O O5 0.729459 0.655891 0.001210
O O6 0.500000 0.500000 0.698426
O O7 0.272786 0.396482 0.681597
O O8 0.279983 0.494069 0.782266
O O9 0.209439 0.544341 0.667469
O O10 0.250000 0.750000 0.496396
O O11 0.252403 0.877408 0.441127
O O12 0.215992 0.851789 0.580313
O O13 0.000000 0.844172 0.500000
O O14 0.750000 0.750000 0.634659
O O15 0.508713 0.850753 0.631252
O O16 0.750000 0.750000 0.098729
O O17 0.757954 0.916427 0.112586
O O18 0.500000 0.500000 0.864489
#
# Coordination Sequence:
#
# PCOD9325264 Si02
#       8
#     2   8   8   8   8   8   8   8
#     4  12  20  36  62  80 104 140 186 240 292 340
#     4   9  17  32  58  87 115 149 193 239 286 334
#     4  11  23  39  57  81 113 152 197 238 284 353
#     4  11  21  35  58  89 114 138 177 231 292 348
#     4  11  22  39  58  82 111 145 184 234 290 348
#     4   9  17  33  57  86 116 150 191 239 287 336
#     4   9  19  36  56  80 114 156 196 235 282 345
#     4  12  21  39  61  82 111 149 187 235 293 350
#
# _framework density 19.193650999999999
#
# number of rings (size 3 to 8) (size 9 to 14) (size 15 to 20)
#    0.000    1.655    2.759    2.897    0.000    2.207 
#    0.000    9.655    0.000    3.310    0.000    0.000 
#    0.000    0.000    0.000    0.000    0.000    0.000 
#
# Total GULP energy -161561.999464 kJ/mol
# GULP energy per Si atom -5571.103430 kJ/mol
# Density = 1.914997 g / cm^3
# Si number density = 19.193651 Si / 1000 Ang^3
#
#
#
# Elastic Constant Matrix: (Units=GPa)
#
#
# Indices 1 2 3 4 5 6 
#
# 1 71.5753 39.8003 36.3549 0.0000 0.0000 0.0000
# 2 39.8003 159.4370 88.9259 0.0000 0.0000 0.0000
# 3 36.3549 88.9259 109.5468 0.0000 0.0000 0.0000
# 4 0.0000 0.0000 0.0000 27.3968 0.0000 0.0000
# 5 0.0000 0.0000 0.0000 0.0000 24.9123 0.0000
# 6 0.0000 0.0000 0.0000 0.0000 0.0000 30.2284
#
#
#
# Elastic Compliance Matrix: (Units=1/GPa)
#
#
# Indices 1 2 3 4 5 6 
#
# 1 0.017154 -0.002023 -0.004051 0.000000 0.000000 0.000000
# 2 -0.002023 0.011700 -0.008826 0.000000 0.000000 0.000000
# 3 -0.004051 -0.008826 0.017638 0.000000 0.000000 0.000000
# 4 0.000000 0.000000 0.000000 0.036501 0.000000 0.000000
# 5 0.000000 0.000000 0.000000 0.000000 0.040141 0.000000
# 6 0.000000 0.000000 0.000000 0.000000 0.000000 0.033081
#
#
# Mechanical properties :
#
#
# Convention : Reuss Voigt Hill
#
# Bulk Modulus (GPa) = 59.91018 74.52461 67.21739
# Shear Modulus (GPa) = 26.09918 28.20603 27.15260
#
# Velocity S-wave (km/s) = 3.69152 3.83763 3.76528
# Velocity P-wave (km/s) = 7.03215 7.65170 7.34846
#
# Compressibility (1/GPa) = 0.01669166
#
# Stress axis : x y z
#
# Youngs Moduli (GPa) = 58.29702 85.47155 56.69727
#
# Poissons Ratio (x) = 0.17289 0.22966
# Poissons Ratio (y) = 0.11792 0.50042
# Poissons Ratio (z) = 0.23614 0.75439
#
# Static dielectric constant tensor:
#      x y z
#    x 1.579080 0.000000 0.000000 
#    y 0.000000 1.560090 0.000000 
#    z 0.000000 0.000000 1.675310 
# 
# From -- ./inp_files/35834.got.cif
#   From: 2010.05.17/outbox.cif.g08.bks.cpg/sg21_18_cif.got.tgz:35834.got - 2010.06.03 23:14:55.
