data_PCOD9325852
_publ_section_title
;
Structure prediction by ZEFSAII (Michael W. Deem and Ramdas Pophale) SiO2 
 PCOD9325852
Probable space group: C 2 2 2
;
_chemical_formula_sum "Si O2"
_cell_formula_units_Z 29
_cell_length_a 9.000000
_cell_length_b 27.000000
_cell_length_c 12.000000
_cell_angle_alpha 90.000000
_cell_angle_beta 90.000000
_cell_angle_gamma 90.000000
_cell_volume 2916.000000
_symmetry_space_group_name_H-M "C 2 2 2"
_symmetry_group_IT_number 21
_symmetry_cell_setting 'orthorhombic'
loop_
_space_group_symop_operation_xyz
x,y,z
-x,-y,z
x,-y,-z
-x,y,-z
1/2+x,1/2+y,z
1/2-x,1/2-y,z
1/2+x,1/2-y,-z
1/2-x,1/2+y,-z
loop_
_atom_site_type_symbol
_atom_site_label
_atom_site_fract_x
_atom_site_fract_y
_atom_site_fract_z
Si Si1 0.986598 0.327901 0.873058
Si Si2 0.992396 0.441697 0.624198
Si Si3 0.095556 0.769392 0.769011
Si Si4 0.500000 0.000000 0.000000
Si Si5 0.264105 0.872988 0.269883
Si Si6 0.184517 0.427173 0.169356
Si Si7 0.472639 0.623936 0.869975
Si Si8 0.132326 0.790554 0.416512
O O1 0.138274 0.336499 0.806953
O O2 0.929075 0.272516 0.860999
O O3 0.879255 0.371430 0.834742
O O4 0.000000 0.339442 0.000000
O O5 0.128636 0.417493 0.692791
O O6 0.000000 0.500000 0.612475
O O7 0.000000 0.419198 0.500000
O O8 0.846647 0.437680 0.701077
O O9 0.250000 0.750000 0.715790
O O10 0.089745 0.824936 0.815685
O O11 0.956392 0.766321 0.686544
O O12 0.402383 0.964302 0.916320
O O13 0.210852 0.840339 0.374282
O O14 0.122896 0.888448 0.196802
O O15 0.355805 0.420635 0.140262
O O16 0.500000 0.633474 0.000000
O O17 0.250000 0.750000 0.457246
O O18 0.000000 0.802936 0.500000
#
# Coordination Sequence:
#
# PCOD9325852 Si02
#       8
#     8   8   8   2   8   8   8   8
#     4  11  20  38  65  88 126 174 213 262 316 387
#     4  10  23  45  72  95 119 163 227 279 329 393
#     4  11  22  38  58  95 128 173 224 261 311 387
#     4  12  24  44  72  96 132 172 234 274 324 406
#     4  10  24  41  63  95 133 165 221 270 326 388
#     4  11  23  41  67  97 127 173 220 270 329 391
#     4  11  24  39  61  98 142 173 209 270 331 393
#     4  11  23  41  60  89 131 178 218 262 315 379
#
# _framework density 9.9451300000000007
#
# number of rings (size 3 to 8) (size 9 to 14) (size 15 to 20)
#    0.000    1.241    4.138    1.655    1.931    2.759 
#    0.000    2.414    0.000    1.655    0.000    0.000 
#    0.000    0.000    0.000    0.000    0.000    0.000 
#
# Total GULP energy -161545.566719 kJ/mol
# GULP energy per Si atom -5570.536783 kJ/mol
# Density = 0.992249 g / cm^3
# Si number density = 9.945130 Si / 1000 Ang^3
#
#
#
# Elastic Constant Matrix: (Units=GPa)
#
#
# Indices 1 2 3 4 5 6 
#
# 1 111.3587 46.8909 31.1986 0.0000 0.0000 0.0000
# 2 46.8909 56.5806 24.5507 0.0000 0.0000 0.0000
# 3 31.1986 24.5507 94.9719 0.0000 0.0000 0.0000
# 4 0.0000 0.0000 0.0000 25.3104 0.0000 0.0000
# 5 0.0000 0.0000 0.0000 0.0000 -46.9429 0.0000
# 6 0.0000 0.0000 0.0000 0.0000 0.0000 39.8295
#
#
#
# Elastic Compliance Matrix: (Units=1/GPa)
#
#
# Indices 1 2 3 4 5 6 
#
# 1 0.014064 -0.010870 -0.001810 0.000000 0.000000 0.000000
# 2 -0.010870 0.028308 -0.003747 0.000000 0.000000 0.000000
# 3 -0.001810 -0.003747 0.012093 0.000000 0.000000 0.000000
# 4 0.000000 0.000000 0.000000 0.039509 0.000000 0.000000
# 5 0.000000 0.000000 0.000000 0.000000 -0.021302 0.000000
# 6 0.000000 0.000000 0.000000 0.000000 0.000000 0.025107
#
#
# Mechanical properties :
#
#
# Convention : Reuss Voigt Hill
#
# Bulk Modulus (GPa) = 46.27351 52.02131 49.14741
# Shear Modulus (GPa) = 36.27445 14.32413 25.29929
#
# Velocity S-wave (km/s) = 4.27515 2.68649 3.57030
# Velocity P-wave (km/s) = 6.90537 5.98614 6.46212
#
# Compressibility (1/GPa) = 0.02161063
#
# Stress axis : x y z
#
# Youngs Moduli (GPa) = 71.10141 35.32513 82.69470
#
# Poissons Ratio (x) = 0.38400 0.14969
# Poissons Ratio (y) = 0.77290 0.30985
# Poissons Ratio (z) = 0.12871 0.13236
#
# Static dielectric constant tensor:
#      x y z
#    x 1.790430 0.000000 0.000000 
#    y 0.000000 1.942140 0.000000 
#    z 0.000000 0.000000 1.847310 
# 
# From -- ./inp_files/23012.got.cif
#   From: 2010.05.17/outbox.ucp.g08.bks.cvg/sg21_12_cif.got.tgz:23012.got - 2010.06.11 15:15:05.
