data_PCOD9325366
_publ_section_title
;
Structure prediction by ZEFSAII (Michael W. Deem and Ramdas Pophale) SiO2 
 PCOD9325366
Probable space group: C 2 2 2
;
_chemical_formula_sum "Si O2"
_cell_formula_units_Z 56
_cell_length_a 15.758647
_cell_length_b 8.797984
_cell_length_c 18.862366
_cell_angle_alpha 90.000000
_cell_angle_beta 90.000000
_cell_angle_gamma 90.000000
_cell_volume 2615.159986
_symmetry_space_group_name_H-M "C 2 2 2"
_symmetry_group_IT_number 21
_symmetry_cell_setting 'orthorhombic'
loop_
_space_group_symop_operation_xyz
x,y,z
-x,-y,z
x,-y,-z
-x,y,-z
1/2+x,1/2+y,z
1/2-x,1/2-y,z
1/2+x,1/2-y,-z
1/2-x,1/2+y,-z
loop_
_atom_site_type_symbol
_atom_site_label
_atom_site_fract_x
_atom_site_fract_y
_atom_site_fract_z
Si Si1 0.016482 0.181515 0.417947
Si Si2 0.682210 0.136573 0.553006
Si Si3 0.995737 0.820103 0.849600
Si Si4 0.258915 0.996654 0.302798
Si Si5 0.109261 0.778055 0.292937
Si Si6 0.412800 0.926497 0.077276
Si Si7 0.676219 0.152365 0.835685
O O1 0.108049 0.261058 0.411812
O O2 0.000000 0.216445 0.500000
O O3 0.950830 0.245441 0.360867
O O4 0.000000 0.000000 0.410423
O O5 0.750000 0.250000 0.515577
O O6 0.654878 0.000000 0.500000
O O7 0.730616 0.061196 0.618815
O O8 0.090188 0.749938 0.842530
O O9 0.947139 0.776672 0.777300
O O10 0.938032 0.748052 0.912993
O O11 0.000000 0.000000 0.856367
O O12 0.163149 0.935092 0.293419
O O13 0.322325 0.854874 0.294680
O O14 0.292156 0.111395 0.242905
O O15 0.500000 0.000000 0.106642
O O16 0.338713 0.991576 0.125462
O O17 0.402251 0.000000 0.000000
O O18 0.750000 0.250000 0.871364
#
# Coordination Sequence:
#
# PCOD9325366 Si02
#       7
#     8   8   8   8   8   8   8
#     4  11  25  43  66  93 135 180 231 288 360 425
#     4  12  28  44  70  96 134 182 232 295 360 430
#     4  11  22  40  69 102 137 182 232 293 346 421
#     4  11  24  41  67  98 135 180 230 291 352 421
#     4  11  23  41  67 100 137 178 234 297 350 423
#     4   9  20  42  68  97 137 187 227 280 350 419
#     4  11  22  41  65  97 136 178 228 278 342 413
#
# _framework density 21.413602999999998
#
# number of rings (size 3 to 8) (size 9 to 14) (size 15 to 20)
#    0.000    1.143    1.429    4.286    6.000    3.143 
#    0.000    8.571    0.000    0.000    0.000    0.000 
#    0.000    0.000    0.000    0.000    0.000    0.000 
#
# Total GULP energy -156248.680803 kJ/mol
# GULP energy per Si atom -5580.310029 kJ/mol
# Density = 2.136486 g / cm^3
# Si number density = 21.413603 Si / 1000 Ang^3
#
#
#
# Elastic Constant Matrix: (Units=GPa)
#
#
# Indices 1 2 3 4 5 6 
#
# 1 125.9252 48.5791 39.5365 0.0000 0.0000 0.0000
# 2 48.5791 108.3509 32.2943 0.0000 0.0000 0.0000
# 3 39.5365 32.2943 85.3968 0.0000 0.0000 0.0000
# 4 0.0000 0.0000 0.0000 36.0387 0.0000 0.0000
# 5 0.0000 0.0000 0.0000 0.0000 -13.2863 0.0000
# 6 0.0000 0.0000 0.0000 0.0000 0.0000 -16.4967
#
#
#
# Elastic Compliance Matrix: (Units=1/GPa)
#
#
# Indices 1 2 3 4 5 6 
#
# 1 0.010432 -0.003649 -0.003450 0.000000 0.000000 0.000000
# 2 -0.003649 0.011678 -0.002727 0.000000 0.000000 0.000000
# 3 -0.003450 -0.002727 0.014338 0.000000 0.000000 0.000000
# 4 0.000000 0.000000 0.000000 0.027748 0.000000 0.000000
# 5 0.000000 0.000000 0.000000 0.000000 -0.075266 0.000000
# 6 0.000000 0.000000 0.000000 0.000000 0.000000 -0.060618
#
#
# Mechanical properties :
#
#
# Convention : Reuss Voigt Hill
#
# Bulk Modulus (GPa) = 59.53392 62.27698 60.90545
# Shear Modulus (GPa) = -107.67282 14.53535 -46.56874
#
# Velocity S-wave (km/s) = -7.09870 2.60819 -4.66846
# Velocity P-wave (km/s) = 6.27109 6.18193 0.74508
#
# Compressibility (1/GPa) = 0.01679715
#
# Stress axis : x y z
#
# Youngs Moduli (GPa) = 95.85838 85.63075 69.74255
#
# Poissons Ratio (x) = 0.31246 0.24060
# Poissons Ratio (y) = 0.34979 0.19018
# Poissons Ratio (z) = 0.33070 0.23351
#
# Static dielectric constant tensor:
#      x y z
#    x 1.693800 0.000000 0.000000 
#    y 0.000000 1.905020 0.000000 
#    z 0.000000 0.000000 1.902950 
# 
# From -- ./inp_files/37586.got.cif
#   From: 2010.05.17/outbox.cif.g08.bks.cpg/sg21_19_cif.got.tgz:37586.got - 2010.06.03 23:14:55.
