data_PCOD9325779
_publ_section_title
;
Structure prediction by ZEFSAII (Michael W. Deem and Ramdas Pophale) SiO2 
 PCOD9325779
Probable space group: C 2 2 2
;
_chemical_formula_sum "Si O2"
_cell_formula_units_Z 26
_cell_length_a 16.287325
_cell_length_b 11.606475
_cell_length_c 5.442943
_cell_angle_alpha 90.000000
_cell_angle_beta 90.000000
_cell_angle_gamma 90.000000
_cell_volume 1028.925402
_symmetry_space_group_name_H-M "C 2 2 2"
_symmetry_group_IT_number 21
_symmetry_cell_setting 'orthorhombic'
loop_
_space_group_symop_operation_xyz
x,y,z
-x,-y,z
x,-y,-z
-x,y,-z
1/2+x,1/2+y,z
1/2-x,1/2-y,z
1/2+x,1/2-y,-z
1/2-x,1/2+y,-z
loop_
_atom_site_type_symbol
_atom_site_label
_atom_site_fract_x
_atom_site_fract_y
_atom_site_fract_z
Si Si1 0.000000 0.717218 0.500000
Si Si2 0.365236 0.666157 0.802534
Si Si3 0.246642 0.500000 0.500000
Si Si4 0.500000 0.500000 0.000000
Si Si5 0.876300 0.381284 0.143277
O O1 0.922297 0.792915 0.423174
O O2 0.963150 0.646330 0.726231
O O3 0.299489 0.577514 0.690020
O O4 0.429217 0.596716 0.964804
O O5 0.345384 0.779376 0.963166
O O6 0.190295 0.590488 0.353566
O O7 0.883350 0.500000 0.000000
#
# Coordination Sequence:
#
# PCOD9325779 Si02
#       5
#     4   8   4   2   8
#     4  12  26  54  84 116 160 221 283 328 412 492
#     4  12  28  54  85 119 162 219 284 346 409 499
#     4  12  32  52  84 126 172 222 272 346 440 486
#     4  12  24  58  82 112 154 210 280 348 396 484
#     4  12  30  54  82 124 174 220 275 350 412 510
#
# _framework density 25.269085
#
# number of rings (size 3 to 8) (size 9 to 14) (size 15 to 20)
#    0.000    0.000    3.077    3.692    2.154   16.615 
#    0.000    0.000    0.000    0.000    0.000    0.000 
#    0.000    0.000    0.000    0.000    0.000    0.000 
#
# Total GULP energy -72658.108774 kJ/mol
# GULP energy per Si atom -5589.085290 kJ/mol
# Density = 2.521157 g / cm^3
# Si number density = 25.269085 Si / 1000 Ang^3
#
#
#
# Elastic Constant Matrix: (Units=GPa)
#
#
# Indices 1 2 3 4 5 6 
#
# 1 104.6183 44.8673 24.5141 0.0000 0.0000 0.0000
# 2 44.8673 169.7471 43.7031 0.0000 0.0000 0.0000
# 3 24.5141 43.7031 100.3880 0.0000 0.0000 0.0000
# 4 0.0000 0.0000 0.0000 93.8463 0.0000 0.0000
# 5 0.0000 0.0000 0.0000 0.0000 18.4222 0.0000
# 6 0.0000 0.0000 0.0000 0.0000 0.0000 65.4586
#
#
#
# Elastic Compliance Matrix: (Units=1/GPa)
#
#
# Indices 1 2 3 4 5 6 
#
# 1 0.011004 -0.002497 -0.001600 0.000000 0.000000 0.000000
# 2 -0.002497 0.007201 -0.002525 0.000000 0.000000 0.000000
# 3 -0.001600 -0.002525 0.011451 0.000000 0.000000 0.000000
# 4 0.000000 0.000000 0.000000 0.010656 0.000000 0.000000
# 5 0.000000 0.000000 0.000000 0.000000 0.054282 0.000000
# 6 0.000000 0.000000 0.000000 0.000000 0.000000 0.015277
#
#
# Mechanical properties :
#
#
# Convention : Reuss Voigt Hill
#
# Bulk Modulus (GPa) = 60.92915 66.76913 63.84914
# Shear Modulus (GPa) = 38.88414 52.99001 45.93708
#
# Velocity S-wave (km/s) = 3.92701 4.58430 4.26833
# Velocity P-wave (km/s) = 6.68778 7.38253 7.04372
#
# Compressibility (1/GPa) = 0.01641250
#
# Stress axis : x y z
#
# Youngs Moduli (GPa) = 90.87400 138.86598 87.32481
#
# Poissons Ratio (x) = 0.34670 0.13974
# Poissons Ratio (y) = 0.22688 0.22052
# Poissons Ratio (z) = 0.14542 0.35068
#
# Static dielectric constant tensor:
#      x y z
#    x 1.950760 0.000000 0.000000 
#    y 0.000000 1.951150 0.000000 
#    z 0.000000 0.000000 1.702560 
# 
# From -- ./inp_files/4506.got.cif
#   From: 2010.05.17/outbox.cif.g08.bks.cpg/sg21_3_cif.got.tgz:4506.got - 2010.06.03 23:14:55.
