data_PCOD9325896
_publ_section_title
;
Structure prediction by ZEFSAII (Michael W. Deem and Ramdas Pophale) SiO2 
 PCOD9325896
Probable space group: F 2 2 2
;
_chemical_formula_sum "Si O2"
_cell_formula_units_Z 60
_cell_length_a 19.929797
_cell_length_b 8.547456
_cell_length_c 16.164705
_cell_angle_alpha 90.000000
_cell_angle_beta 90.000000
_cell_angle_gamma 90.000000
_cell_volume 2753.642350
_symmetry_space_group_name_H-M "F 2 2 2"
_symmetry_group_IT_number 22
_symmetry_cell_setting 'orthorhombic'
loop_
_space_group_symop_operation_xyz
x,y,z
-x,-y,z
x,-y,-z
-x,y,-z
x,1/2+y,1/2+z
-x,1/2-y,1/2+z
x,1/2-y,1/2-z
-x,1/2+y,1/2-z
1/2+x,y,1/2+z
1/2-x,-y,1/2+z
1/2+x,-y,1/2-z
1/2-x,y,1/2-z
1/2+x,1/2+y,z
1/2-x,1/2-y,z
1/2+x,1/2-y,-z
1/2-x,1/2+y,-z
loop_
_atom_site_type_symbol
_atom_site_label
_atom_site_fract_x
_atom_site_fract_y
_atom_site_fract_z
Si Si1 0.033419 0.828665 0.078189
Si Si2 0.530006 0.250000 0.750000
Si Si3 0.250000 0.250000 0.250000
Si Si4 0.352418 0.006786 0.226315
Si Si5 0.325185 0.787685 0.381801
O O1 0.112905 0.838612 0.061755
O O2 0.014370 0.757810 0.167367
O O3 0.000000 0.000000 0.082238
O O4 0.000000 0.743814 0.000000
O O5 0.578656 0.097687 0.755300
O O6 0.299851 0.139868 0.199780
O O7 0.325048 0.918287 0.308674
O O8 0.351607 0.873470 0.158412
O O9 0.250000 0.750000 0.412004
#
# Coordination Sequence:
#
# PCOD9325896 Si02
#       5
#    16   8   4  16  16
#     4  11  25  44  70 100 139 182 233 287 342 416
#     4  11  22  39  67  98 129 188 226 282 333 416
#     4  10  16  30  52 100 146 166 214 290 334 410
#     4  10  19  32  62 100 135 171 232 275 343 406
#     4  11  20  38  64  96 133 180 222 293 340 410
#
# _framework density 21.789321000000001
#
# number of rings (size 3 to 8) (size 9 to 14) (size 15 to 20)
#    0.000    1.333    5.333    2.400    0.000    0.000 
#    0.000    2.667   23.467    0.000    0.000    0.000 
#    0.000    0.000    0.000    0.000    0.000    0.000 
#
# Total GULP energy -83677.861426 kJ/mol
# GULP energy per Si atom -5578.524095 kJ/mol
# Density = 2.173973 g / cm^3
# Si number density = 21.789321 Si / 1000 Ang^3
#
#
#
# Elastic Constant Matrix: (Units=GPa)
#
#
# Indices 1 2 3 4 5 6 
#
# 1 209.7174 41.9960 36.2055 0.0000 0.0000 0.0000
# 2 41.9960 93.9925 5.8579 0.0000 0.0000 0.0000
# 3 36.2055 5.8579 84.5289 0.0000 0.0000 0.0000
# 4 0.0000 0.0000 0.0000 10.9957 0.0000 0.0000
# 5 0.0000 0.0000 0.0000 0.0000 0.2026 0.0000
# 6 0.0000 0.0000 0.0000 0.0000 0.0000 37.2654
#
#
#
# Elastic Compliance Matrix: (Units=1/GPa)
#
#
# Indices 1 2 3 4 5 6 
#
# 1 0.005632 -0.002376 -0.002248 0.000000 0.000000 0.000000
# 2 -0.002376 0.011688 0.000208 0.000000 0.000000 0.000000
# 3 -0.002248 0.000208 0.012779 0.000000 0.000000 0.000000
# 4 0.000000 0.000000 0.000000 0.090944 0.000000 0.000000
# 5 0.000000 0.000000 0.000000 0.000000 4.935145 0.000000
# 6 0.000000 0.000000 0.000000 0.000000 0.000000 0.026835
#
#
# Mechanical properties :
#
#
# Convention : Reuss Voigt Hill
#
# Bulk Modulus (GPa) = 47.02270 61.81752 54.42011
# Shear Modulus (GPa) = 0.98060 29.97138 15.47599
#
# Velocity S-wave (km/s) = 0.67157 3.71281 2.66795
# Velocity P-wave (km/s) = 4.71474 6.84193 5.87541
#
# Compressibility (1/GPa) = 0.02126633
#
# Stress axis : x y z
#
# Youngs Moduli (GPa) = 177.54917 85.55804 78.25578
#
# Poissons Ratio (x) = 0.20332 0.17590
# Poissons Ratio (y) = 0.42193 -0.01627
# Poissons Ratio (z) = 0.39908 -0.01779
#
# Static dielectric constant tensor:
#      x y z
#    x 1.871250 0.000000 0.000000 
#    y 0.000000 1.824740 0.000000 
#    z 0.000000 0.000000 1.813510 
# 
# From -- ./inp_files/32086.got.cif
#   From: 2010.05.17/outbox.cif.g08.bks.cpg/sg22_17_cif.got.tgz:32086.got - 2010.06.03 23:40:54.
