data_PCOD9325039
_publ_section_title
;
Structure prediction by ZEFSAII (Michael W. Deem and Ramdas Pophale) SiO2 
 PCOD9325039
Probable space group: C 2 2 2
;
_chemical_formula_sum "Si O2"
_cell_formula_units_Z 40
_cell_length_a 15.763947
_cell_length_b 8.692839
_cell_length_c 13.602195
_cell_angle_alpha 90.000000
_cell_angle_beta 90.000000
_cell_angle_gamma 90.000000
_cell_volume 1863.955753
_symmetry_space_group_name_H-M "C 2 2 2"
_symmetry_group_IT_number 21
_symmetry_cell_setting 'orthorhombic'
loop_
_space_group_symop_operation_xyz
x,y,z
-x,-y,z
x,-y,-z
-x,y,-z
1/2+x,1/2+y,z
1/2-x,1/2-y,z
1/2+x,1/2-y,-z
1/2-x,1/2+y,-z
loop_
_atom_site_type_symbol
_atom_site_label
_atom_site_fract_x
_atom_site_fract_y
_atom_site_fract_z
Si Si1 0.145172 0.846385 0.281345
Si Si2 0.247809 0.062316 0.894175
Si Si3 0.598119 0.996466 0.230727
Si Si4 0.917206 0.302701 0.566326
Si Si5 0.250000 0.250000 0.549412
Si Si6 0.000000 0.000000 0.378631
O O1 0.179236 0.949096 0.192944
O O2 0.134726 0.664461 0.261676
O O3 0.205758 0.867880 0.374928
O O4 0.052467 0.889138 0.310981
O O5 0.250000 0.250000 0.902782
O O6 0.332572 0.971111 0.856245
O O7 0.223176 0.000000 0.000000
O O8 0.500000 0.000000 0.195081
O O9 0.592278 0.887787 0.328244
O O10 0.827763 0.319330 0.511359
O O11 0.000000 0.349097 0.500000
O O12 0.934565 0.118943 0.572558
#
# Coordination Sequence:
#
# PCOD9325039 Si02
#       6
#     8   8   8   8   4   4
#     4  11  24  45  69  96 139 179 229 291 342 409
#     4  10  24  47  75 100 134 174 230 296 356 416
#     4  11  22  45  67 101 133 184 231 279 335 417
#     4  12  27  40  67 102 145 191 237 279 337 412
#     4  12  24  42  68  98 142 192 232 270 348 408
#     4  12  25  46  61 102 146 182 233 294 343 398
#
# _framework density 21.459737000000001
#
# number of rings (size 3 to 8) (size 9 to 14) (size 15 to 20)
#    0.000    0.800    7.000    0.300    2.800    6.400 
#    0.000    0.500    0.000    0.000    0.000    0.000 
#    0.000    0.000    0.000    0.000    0.000    0.000 
#
# Total GULP energy -111383.651006 kJ/mol
# GULP energy per Si atom -5569.182550 kJ/mol
# Density = 2.141089 g / cm^3
# Si number density = 21.459737 Si / 1000 Ang^3
#
#
#
# Elastic Constant Matrix: (Units=GPa)
#
#
# Indices 1 2 3 4 5 6 
#
# 1 127.5870 10.2702 47.6378 0.0000 0.0000 0.0000
# 2 10.2702 70.9756 30.9189 0.0000 0.0000 0.0000
# 3 47.6378 30.9189 115.2619 0.0000 0.0000 0.0000
# 4 0.0000 0.0000 0.0000 37.1549 0.0000 0.0000
# 5 0.0000 0.0000 0.0000 0.0000 32.5701 0.0000
# 6 0.0000 0.0000 0.0000 0.0000 0.0000 30.7296
#
#
#
# Elastic Compliance Matrix: (Units=1/GPa)
#
#
# Indices 1 2 3 4 5 6 
#
# 1 0.009277 0.000371 -0.003934 0.000000 0.000000 0.000000
# 2 0.000371 0.015968 -0.004437 0.000000 0.000000 0.000000
# 3 -0.003934 -0.004437 0.011492 0.000000 0.000000 0.000000
# 4 0.000000 0.000000 0.000000 0.026914 0.000000 0.000000
# 5 0.000000 0.000000 0.000000 0.000000 0.030703 0.000000
# 6 0.000000 0.000000 0.000000 0.000000 0.000000 0.032542
#
#
# Mechanical properties :
#
#
# Convention : Reuss Voigt Hill
#
# Bulk Modulus (GPa) = 48.21993 54.60871 51.41432
# Shear Modulus (GPa) = 33.37613 35.09077 34.23345
#
# Velocity S-wave (km/s) = 3.94800 4.04814 3.99838
# Velocity P-wave (km/s) = 6.58035 6.88129 6.73250
#
# Compressibility (1/GPa) = 0.02073831
#
# Stress axis : x y z
#
# Youngs Moduli (GPa) = 107.79787 62.62333 87.01801
#
# Poissons Ratio (x) = -0.02325 0.34230
# Poissons Ratio (y) = -0.04002 0.38610
# Poissons Ratio (z) = 0.42404 0.27786
#
# Static dielectric constant tensor:
#      x y z
#    x 1.812840 0.000000 0.000000 
#    y 0.000000 1.767530 0.000000 
#    z 0.000000 0.000000 1.875590 
# 
# From -- ./inp_files/32694.got.cif
#   From: 2010.05.17/outbox.cif.g08.bks.cpg/sg21_17_cif.got.tgz:32694.got - 2010.06.03 23:14:55.
