data_PCOD9325670
_publ_section_title
;
Structure prediction by ZEFSAII (Michael W. Deem and Ramdas Pophale) SiO2 
 PCOD9325670
Probable space group: C 2 2 2
;
_chemical_formula_sum "Si O2"
_cell_formula_units_Z 32
_cell_length_a 9.779645
_cell_length_b 12.241464
_cell_length_c 12.455513
_cell_angle_alpha 90.000000
_cell_angle_beta 90.000000
_cell_angle_gamma 90.000000
_cell_volume 1491.138795
_symmetry_space_group_name_H-M "C 2 2 2"
_symmetry_group_IT_number 21
_symmetry_cell_setting 'orthorhombic'
loop_
_space_group_symop_operation_xyz
x,y,z
-x,-y,z
x,-y,-z
-x,y,-z
1/2+x,1/2+y,z
1/2-x,1/2-y,z
1/2+x,1/2-y,-z
1/2-x,1/2+y,-z
loop_
_atom_site_type_symbol
_atom_site_label
_atom_site_fract_x
_atom_site_fract_y
_atom_site_fract_z
Si Si1 0.415087 0.222423 0.109908
Si Si2 0.702111 0.065260 0.603244
Si Si3 0.522092 0.371744 0.696137
Si Si4 0.000000 0.500000 0.770926
Si Si5 0.500000 0.239534 0.500000
O O1 0.250000 0.250000 0.100111
O O2 0.484197 0.304613 0.195249
O O3 0.448826 0.101830 0.158080
O O4 0.500000 0.232600 0.000000
O O5 0.821078 0.129630 0.660070
O O6 0.626284 0.985161 0.687438
O O7 0.599820 0.156261 0.559545
O O8 0.752531 0.000000 0.500000
O O9 0.500000 0.500000 0.710414
O O10 0.443345 0.316446 0.595928
#
# Coordination Sequence:
#
# PCOD9325670 Si02
#       5
#     8   8   8   4   4
#     4  12  27  52  79 106 145 200 260 322 379 448
#     4  12  21  40  73 108 147 192 241 295 383 466
#     4  12  26  44  67 108 154 188 242 310 377 461
#     4  12  22  48  76 108 144 187 253 306 382 452
#     4  12  20  40  66 104 142 193 231 290 376 454
#
# _framework density 21.460107000000001
#
# number of rings (size 3 to 8) (size 9 to 14) (size 15 to 20)
#    0.000    0.000    7.500    3.000    0.000    2.500 
#    4.500    2.500    0.000    0.000    0.000    0.000 
#    0.000    0.000    0.000    0.000    0.000    0.000 
#
# Total GULP energy -89350.464971 kJ/mol
# GULP energy per Si atom -5584.404061 kJ/mol
# Density = 2.141126 g / cm^3
# Si number density = 21.460107 Si / 1000 Ang^3
#
#
#
# Elastic Constant Matrix: (Units=GPa)
#
#
# Indices 1 2 3 4 5 6 
#
# 1 72.0881 41.7741 37.1381 0.0000 0.0000 0.0000
# 2 41.7741 130.7128 63.6202 0.0000 0.0000 0.0000
# 3 37.1381 63.6202 184.7513 0.0000 0.0000 0.0000
# 4 0.0000 0.0000 0.0000 50.2941 0.0000 0.0000
# 5 0.0000 0.0000 0.0000 0.0000 29.5381 0.0000
# 6 0.0000 0.0000 0.0000 0.0000 0.0000 38.3760
#
#
#
# Elastic Compliance Matrix: (Units=1/GPa)
#
#
# Indices 1 2 3 4 5 6 
#
# 1 0.017574 -0.004682 -0.001921 0.000000 0.000000 0.000000
# 2 -0.004682 0.010438 -0.002653 0.000000 0.000000 0.000000
# 3 -0.001921 -0.002653 0.006712 0.000000 0.000000 0.000000
# 4 0.000000 0.000000 0.000000 0.019883 0.000000 0.000000
# 5 0.000000 0.000000 0.000000 0.000000 0.033855 0.000000
# 6 0.000000 0.000000 0.000000 0.000000 0.000000 0.026058
#
#
# Mechanical properties :
#
#
# Convention : Reuss Voigt Hill
#
# Bulk Modulus (GPa) = 61.67666 74.73522 68.20594
# Shear Modulus (GPa) = 36.11777 39.97630 38.04704
#
# Velocity S-wave (km/s) = 4.10691 4.32072 4.21517
# Velocity P-wave (km/s) = 7.16181 7.73255 7.45264
#
# Compressibility (1/GPa) = 0.01621359
#
# Stress axis : x y z
#
# Youngs Moduli (GPa) = 56.90112 95.80396 148.97772
#
# Poissons Ratio (x) = 0.44853 0.28612
# Poissons Ratio (y) = 0.26640 0.39528
# Poissons Ratio (z) = 0.10928 0.25419
#
# Static dielectric constant tensor:
#      x y z
#    x 1.548730 0.000000 0.000000 
#    y 0.000000 1.881510 0.000000 
#    z 0.000000 0.000000 1.796040 
# 
# From -- ./inp_files/23453.got.cif
#   From: 2010.05.17/outbox.cif.g08.bks.cpg/sg21_12_cif.got.tgz:23453.got - 2010.06.03 23:14:55.
