data_PCOD9325395
_publ_section_title
;
Structure prediction by ZEFSAII (Michael W. Deem and Ramdas Pophale) SiO2 
 PCOD9325395
Probable space group: C 2 2 2
;
_chemical_formula_sum "Si O2"
_cell_formula_units_Z 32
_cell_length_a 15.236475
_cell_length_b 10.752581
_cell_length_c 8.480184
_cell_angle_alpha 90.000000
_cell_angle_beta 90.000000
_cell_angle_gamma 90.000000
_cell_volume 1389.320685
_symmetry_space_group_name_H-M "C 2 2 2"
_symmetry_group_IT_number 21
_symmetry_cell_setting 'orthorhombic'
loop_
_space_group_symop_operation_xyz
x,y,z
-x,-y,z
x,-y,-z
-x,y,-z
1/2+x,1/2+y,z
1/2-x,1/2-y,z
1/2+x,1/2-y,-z
1/2-x,1/2+y,-z
loop_
_atom_site_type_symbol
_atom_site_label
_atom_site_fract_x
_atom_site_fract_y
_atom_site_fract_z
Si Si1 0.848953 0.269280 0.688782
Si Si2 0.632042 0.955699 0.680187
Si Si3 0.669018 0.384748 0.382215
Si Si4 0.474294 0.273451 0.818588
O O1 0.750000 0.250000 0.746861
O O2 0.869417 0.406943 0.753380
O O3 0.842323 0.233531 0.501984
O O4 0.933750 0.193121 0.737444
O O5 0.733065 0.907623 0.684858
O O6 0.565635 0.858570 0.756978
O O7 0.611334 0.000000 0.500000
O O8 0.654164 0.500000 0.500000
O O9 0.600377 0.367861 0.241966
O O10 0.500000 0.270508 0.000000
#
# Coordination Sequence:
#
# PCOD9325395 Si02
#       4
#     8   8   8   8
#     4  12  23  43  70 108 140 193 253 306 366 435
#     4  11  22  44  77 107 141 186 257 316 362 430
#     4  11  23  45  77 107 141 191 255 313 364 438
#     4  12  28  45  70 110 153 191 239 308 386 453
#
# _framework density 23.03284
#
# number of rings (size 3 to 8) (size 9 to 14) (size 15 to 20)
#    0.000    0.500    7.500    2.250    0.000    7.000 
#    0.000    2.500    0.000    0.000    0.000    0.000 
#    0.000    0.000    0.000    0.000    0.000    0.000 
#
# Total GULP energy -89199.055694 kJ/mol
# GULP energy per Si atom -5574.940981 kJ/mol
# Density = 2.298042 g / cm^3
# Si number density = 23.032840 Si / 1000 Ang^3
#
#
#
# Elastic Constant Matrix: (Units=GPa)
#
#
# Indices 1 2 3 4 5 6 
#
# 1 219.7493 48.6873 94.6238 0.0000 0.0000 0.0000
# 2 48.6873 78.6871 10.8736 0.0000 0.0000 0.0000
# 3 94.6238 10.8736 92.8316 0.0000 0.0000 0.0000
# 4 0.0000 0.0000 0.0000 19.9821 0.0000 0.0000
# 5 0.0000 0.0000 0.0000 0.0000 -149.9410 0.0000
# 6 0.0000 0.0000 0.0000 0.0000 0.0000 30.9124
#
#
#
# Elastic Compliance Matrix: (Units=1/GPa)
#
#
# Indices 1 2 3 4 5 6 
#
# 1 0.009521 -0.004625 -0.009163 0.000000 0.000000 0.000000
# 2 -0.004625 0.015164 0.002938 0.000000 0.000000 0.000000
# 3 -0.009163 0.002938 0.019768 0.000000 0.000000 0.000000
# 4 0.000000 0.000000 0.000000 0.050045 0.000000 0.000000
# 5 0.000000 0.000000 0.000000 0.000000 -0.006669 0.000000
# 6 0.000000 0.000000 0.000000 0.000000 0.000000 0.032349
#
#
# Mechanical properties :
#
#
# Convention : Reuss Voigt Hill
#
# Bulk Modulus (GPa) = 43.94989 77.73748 60.84368
# Shear Modulus (GPa) = 33.45331 -4.00374 14.72478
#
# Velocity S-wave (km/s) = 3.81519 -1.31987 2.53117
# Velocity P-wave (km/s) = 6.20729 5.61260 5.91742
#
# Compressibility (1/GPa) = 0.02275319
#
# Stress axis : x y z
#
# Youngs Moduli (GPa) = 105.03255 65.94495 50.58701
#
# Poissons Ratio (x) = 0.30498 0.46353
# Poissons Ratio (y) = 0.48575 -0.14862
# Poissons Ratio (z) = 0.96241 -0.19374
#
# Static dielectric constant tensor:
#      x y z
#    x 1.865470 0.000000 0.000000 
#    y 0.000000 2.113980 0.000000 
#    z 0.000000 0.000000 1.901740 
# 
# From -- ./inp_files/12158.got.cif
#   From: 2010.05.17/outbox.cif.g08.bks.cpg/sg21_7_cif.got.tgz:12158.got - 2010.06.03 23:14:55.
