data_PCOD9325046
_publ_section_title
;
Structure prediction by ZEFSAII (Michael W. Deem and Ramdas Pophale) SiO2 
 PCOD9325046
Probable space group: C 2 2 2
;
_chemical_formula_sum "Si O2"
_cell_formula_units_Z 26
_cell_length_a 17.236574
_cell_length_b 9.871422
_cell_length_c 5.927507
_cell_angle_alpha 90.000000
_cell_angle_beta 90.000000
_cell_angle_gamma 90.000000
_cell_volume 1008.562327
_symmetry_space_group_name_H-M "C 2 2 2"
_symmetry_group_IT_number 21
_symmetry_cell_setting 'orthorhombic'
loop_
_space_group_symop_operation_xyz
x,y,z
-x,-y,z
x,-y,-z
-x,y,-z
1/2+x,1/2+y,z
1/2-x,1/2-y,z
1/2+x,1/2-y,-z
1/2-x,1/2+y,-z
loop_
_atom_site_type_symbol
_atom_site_label
_atom_site_fract_x
_atom_site_fract_y
_atom_site_fract_z
Si Si1 0.244969 0.000000 0.500000
Si Si2 0.473414 0.654023 0.256276
Si Si3 0.250000 0.250000 0.223168
Si Si4 0.500000 0.000000 0.000000
Si Si5 0.857253 0.662728 0.830201
O O1 0.210074 0.877384 0.649104
O O2 0.300222 0.911184 0.337050
O O3 0.500000 0.500000 0.267568
O O4 0.500000 0.714464 0.500000
O O5 0.382238 0.686996 0.246107
O O6 0.500000 0.693873 0.000000
O O7 0.184671 0.319721 0.068290
O O8 0.561733 0.918616 0.846101
#
# Coordination Sequence:
#
# PCOD9325046 Si02
#       5
#     4   8   4   2   8
#     4  12  28  53  84 120 167 236 290 368 442 541
#     4  10  24  48  73 118 160 211 275 354 438 514
#     4  12  28  58  76 128 168 234 294 366 448 538
#     4  12  24  50  82 116 166 206 286 358 430 516
#     4  12  27  51  81 120 168 221 289 364 442 528
#
# _framework density 25.779268999999999
#
# number of rings (size 3 to 8) (size 9 to 14) (size 15 to 20)
#    0.000    0.615    4.615    0.923    8.615    0.000 
#   22.154    0.000    0.000    0.000    0.000    0.000 
#    0.000    0.000    0.000    0.000    0.000    0.000 
#
# Total GULP energy -72508.103917 kJ/mol
# GULP energy per Si atom -5577.546455 kJ/mol
# Density = 2.572059 g / cm^3
# Si number density = 25.779269 Si / 1000 Ang^3
#
#
#
# Elastic Constant Matrix: (Units=GPa)
#
#
# Indices 1 2 3 4 5 6 
#
# 1 77.5137 5.4549 34.4718 0.0000 0.0000 0.0000
# 2 5.4549 89.5630 33.5796 0.0000 0.0000 0.0000
# 3 34.4718 33.5796 183.5985 0.0000 0.0000 0.0000
# 4 0.0000 0.0000 0.0000 24.3955 0.0000 0.0000
# 5 0.0000 0.0000 0.0000 0.0000 35.2496 0.0000
# 6 0.0000 0.0000 0.0000 0.0000 0.0000 27.4883
#
#
#
# Elastic Compliance Matrix: (Units=1/GPa)
#
#
# Indices 1 2 3 4 5 6 
#
# 1 0.014078 0.000143 -0.002669 0.000000 0.000000 0.000000
# 2 0.000143 0.011989 -0.002220 0.000000 0.000000 0.000000
# 3 -0.002669 -0.002220 0.006354 0.000000 0.000000 0.000000
# 4 0.000000 0.000000 0.000000 0.040991 0.000000 0.000000
# 5 0.000000 0.000000 0.000000 0.000000 0.028369 0.000000
# 6 0.000000 0.000000 0.000000 0.000000 0.000000 0.036379
#
#
# Mechanical properties :
#
#
# Convention : Reuss Voigt Hill
#
# Bulk Modulus (GPa) = 43.61238 55.29865 49.45551
# Shear Modulus (GPa) = 32.19688 35.90460 34.05074
#
# Velocity S-wave (km/s) = 3.53787 3.73603 3.63830
# Velocity P-wave (km/s) = 5.80027 6.33309 6.07252
#
# Compressibility (1/GPa) = 0.02292927
#
# Stress axis : x y z
#
# Youngs Moduli (GPa) = 71.03278 83.41122 157.38505
#
# Poissons Ratio (x) = -0.01196 0.42013
# Poissons Ratio (y) = -0.01019 0.34934
# Poissons Ratio (z) = 0.18962 0.18514
#
# Static dielectric constant tensor:
#      x y z
#    x 2.037650 0.000000 0.000000 
#    y 0.000000 2.549070 0.000000 
#    z 0.000000 0.000000 2.057880 
# 
# From -- ./inp_files/4519.got.cif
#   From: 2010.05.17/outbox.cif.g08.bks.cpg/sg21_3_cif.got.tgz:4519.got - 2010.06.03 23:14:55.
