data_PCOD9325651
_publ_section_title
;
Structure prediction by ZEFSAII (Michael W. Deem and Ramdas Pophale) SiO2 
 PCOD9325651
Probable space group: C 2 2 2
;
_chemical_formula_sum "Si O2"
_cell_formula_units_Z 32
_cell_length_a 21.855026
_cell_length_b 8.594968
_cell_length_c 7.163413
_cell_angle_alpha 90.000000
_cell_angle_beta 90.000000
_cell_angle_gamma 90.000000
_cell_volume 1345.598773
_symmetry_space_group_name_H-M "C 2 2 2"
_symmetry_group_IT_number 21
_symmetry_cell_setting 'orthorhombic'
loop_
_space_group_symop_operation_xyz
x,y,z
-x,-y,z
x,-y,-z
-x,y,-z
1/2+x,1/2+y,z
1/2-x,1/2-y,z
1/2+x,1/2-y,-z
1/2-x,1/2+y,-z
loop_
_atom_site_type_symbol
_atom_site_label
_atom_site_fract_x
_atom_site_fract_y
_atom_site_fract_z
Si Si1 0.427341 0.810788 0.504742
Si Si2 0.750882 0.435703 0.704320
Si Si3 0.128915 0.894101 0.161027
Si Si4 0.871458 0.627302 0.114309
O O1 0.500000 0.791107 0.500000
O O2 0.400804 0.693019 0.344564
O O3 0.401796 0.781613 0.712602
O O4 0.415447 0.000000 0.500000
O O5 0.759048 0.500000 0.500000
O O6 0.750000 0.250000 0.698543
O O7 0.688783 0.510712 0.778585
O O8 0.686443 0.032616 0.810458
O O9 0.149657 0.752249 0.033633
O O10 0.094022 0.000000 0.000000
O O11 0.911895 0.500000 0.000000
#
# Coordination Sequence:
#
# PCOD9325651 Si02
#       4
#     8   8   8   8
#     4  11  26  54  85 120 168 224 283 346 411 494
#     4  12  27  46  76 110 166 216 256 335 421 499
#     4  12  27  51  80 122 167 214 280 339 419 502
#     4  12  26  47  78 120 163 215 276 335 414 500
#
# _framework density 23.781233
#
# number of rings (size 3 to 8) (size 9 to 14) (size 15 to 20)
#    0.000    0.250    5.000    3.000    3.500    1.000 
#    0.000    3.750    0.000    0.000    0.000    0.000 
#    0.000    0.000    0.000    0.000    0.000    0.000 
#
# Total GULP energy -89244.491977 kJ/mol
# GULP energy per Si atom -5577.780749 kJ/mol
# Density = 2.372711 g / cm^3
# Si number density = 23.781233 Si / 1000 Ang^3
#
#
#
# Elastic Constant Matrix: (Units=GPa)
#
#
# Indices 1 2 3 4 5 6 
#
# 1 124.8523 59.9483 78.1308 0.0000 0.0000 0.0000
# 2 59.9483 160.8907 93.1568 0.0000 0.0000 0.0000
# 3 78.1308 93.1568 220.7635 0.0000 0.0000 0.0000
# 4 0.0000 0.0000 0.0000 71.5820 0.0000 0.0000
# 5 0.0000 0.0000 0.0000 0.0000 -30.5977 0.0000
# 6 0.0000 0.0000 0.0000 0.0000 0.0000 37.9731
#
#
#
# Elastic Compliance Matrix: (Units=1/GPa)
#
#
# Indices 1 2 3 4 5 6 
#
# 1 0.010963 -0.002433 -0.002853 0.000000 0.000000 0.000000
# 2 -0.002433 0.008765 -0.002838 0.000000 0.000000 0.000000
# 3 -0.002853 -0.002838 0.006737 0.000000 0.000000 0.000000
# 4 0.000000 0.000000 0.000000 0.013970 0.000000 0.000000
# 5 0.000000 0.000000 0.000000 0.000000 -0.032682 0.000000
# 6 0.000000 0.000000 0.000000 0.000000 0.000000 0.026334
#
#
# Mechanical properties :
#
#
# Convention : Reuss Voigt Hill
#
# Bulk Modulus (GPa) = 97.87144 107.66427 102.76785
# Shear Modulus (GPa) = 93.03963 34.14286 63.59124
#
# Velocity S-wave (km/s) = 6.26163 3.79318 5.17669
# Velocity P-wave (km/s) = 9.67066 8.03464 8.89036
#
# Compressibility (1/GPa) = 0.01021749
#
# Stress axis : x y z
#
# Youngs Moduli (GPa) = 91.21419 114.09251 148.43444
#
# Poissons Ratio (x) = 0.27756 0.42355
# Poissons Ratio (y) = 0.22190 0.42119
# Poissons Ratio (z) = 0.26027 0.32374
#
# Static dielectric constant tensor:
#      x y z
#    x 1.888570 0.000000 0.000000 
#    y 0.000000 2.090030 0.000000 
#    z 0.000000 0.000000 2.032660 
# 
# From -- ./inp_files/7778.got.cif
#   From: 2010.05.17/outbox.cif.g08.bks.cpg/sg21_4_cif.got.tgz:7778.got - 2010.06.03 23:14:55.
