data_PCOD9325802
_publ_section_title
;
Structure prediction by ZEFSAII (Michael W. Deem and Ramdas Pophale) SiO2 
 PCOD9325802
Probable space group: C 2 2 2
;
_chemical_formula_sum "Si O2"
_cell_formula_units_Z 24
_cell_length_a 8.708811
_cell_length_b 5.025511
_cell_length_c 22.748650
_cell_angle_alpha 90.000000
_cell_angle_beta 90.000000
_cell_angle_gamma 90.000000
_cell_volume 995.622545
_symmetry_space_group_name_H-M "C 2 2 2"
_symmetry_group_IT_number 21
_symmetry_cell_setting 'orthorhombic'
loop_
_space_group_symop_operation_xyz
x,y,z
-x,-y,z
x,-y,-z
-x,y,-z
1/2+x,1/2+y,z
1/2-x,1/2-y,z
1/2+x,1/2-y,-z
1/2-x,1/2+y,-z
loop_
_atom_site_type_symbol
_atom_site_label
_atom_site_fract_x
_atom_site_fract_y
_atom_site_fract_z
Si Si1 0.750000 0.250000 0.583256
Si Si2 0.500000 0.500000 0.832387
Si Si3 0.000000 0.500000 0.500000
Si Si4 0.500000 0.000000 0.750147
Si Si5 0.500000 0.000000 0.000000
Si Si6 0.250000 0.750000 0.086580
Si Si7 0.750000 0.750000 0.663968
O O1 0.890854 0.330132 0.542030
O O2 0.703038 0.503588 0.622664
O O3 0.460854 0.754050 0.792399
O O4 0.348687 0.442062 0.871304
O O5 0.626410 0.880178 0.706934
O O6 0.616640 0.853317 0.956328
#
# Coordination Sequence:
#
# PCOD9325802 Si02
#       7
#     4   4   2   4   2   4   4
#     4  12  29  52  80 116 156 204 257 318 384 458
#     4  12  28  51  80 114 156 203 256 318 384 458
#     4  12  30  52  80 116 156 204 258 318 384 458
#     4  12  28  50  78 114 154 202 256 316 382 456
#     4  12  26  48  76 112 152 200 254 314 380 454
#     4  12  27  48  78 114 154 202 255 316 382 456
#     4  12  28  50  78 112 154 202 256 316 382 456
#
# _framework density 24.105519000000001
#
# number of rings (size 3 to 8) (size 9 to 14) (size 15 to 20)
#    0.000    0.000    0.000    8.000    0.000   20.667 
#    0.000    0.000    0.000    0.000    0.000    0.000 
#    0.000    0.000    0.000    0.000    0.000    0.000 
#
# Total GULP energy -67313.710811 kJ/mol
# GULP energy per Si atom -5609.475901 kJ/mol
# Density = 2.405065 g / cm^3
# Si number density = 24.105519 Si / 1000 Ang^3
#
#
#
# Elastic Constant Matrix: (Units=GPa)
#
#
# Indices 1 2 3 4 5 6 
#
# 1 230.3358 110.0858 133.8640 0.0000 0.0000 0.0000
# 2 110.0858 216.4605 145.2457 0.0000 0.0000 0.0000
# 3 133.8640 145.2457 230.9247 0.0000 0.0000 0.0000
# 4 0.0000 0.0000 0.0000 122.6951 0.0000 0.0000
# 5 0.0000 0.0000 0.0000 0.0000 -56.6110 0.0000
# 6 0.0000 0.0000 0.0000 0.0000 0.0000 61.5035
#
#
#
# Elastic Compliance Matrix: (Units=1/GPa)
#
#
# Indices 1 2 3 4 5 6 
#
# 1 0.006785 -0.001404 -0.003050 0.000000 0.000000 0.000000
# 2 -0.001404 0.008284 -0.004396 0.000000 0.000000 0.000000
# 3 -0.003050 -0.004396 0.008864 0.000000 0.000000 0.000000
# 4 0.000000 0.000000 0.000000 0.008150 0.000000 0.000000
# 5 0.000000 0.000000 0.000000 0.000000 -0.017664 0.000000
# 6 0.000000 0.000000 0.000000 0.000000 0.000000 0.016259
#
#
# Mechanical properties :
#
#
# Convention : Reuss Voigt Hill
#
# Bulk Modulus (GPa) = 160.47406 161.79024 161.13215
# Shear Modulus (GPa) = 99.09531 44.75255 71.92393
#
# Velocity S-wave (km/s) = 6.41858 4.31342 5.46826
# Velocity P-wave (km/s) = 11.02937 9.59535 10.33725
#
# Compressibility (1/GPa) = 0.00623154
#
# Stress axis : x y z
#
# Youngs Moduli (GPa) = 147.37927 120.71647 112.81879
#
# Poissons Ratio (x) = 0.16950 0.34411
# Poissons Ratio (y) = 0.20694 0.49600
# Poissons Ratio (z) = 0.44953 0.53072
#
# Static dielectric constant tensor:
#      x y z
#    x 1.863510 0.000000 0.000000 
#    y 0.000000 1.923270 0.000000 
#    z 0.000000 0.000000 1.909290 
# 
# From -- ./inp_files/38050.got.cif
#   From: 2010.05.17/outbox.cif.g08.bks.cpg/sg21_20_cif.got.tgz:38050.got - 2010.06.03 23:14:55.
