data_PCOD9325131
_publ_section_title
;
Structure prediction by ZEFSAII (Michael W. Deem and Ramdas Pophale) SiO2 
 PCOD9325131
Probable space group: C 2 2 2
;
_chemical_formula_sum "Si O2"
_cell_formula_units_Z 36
_cell_length_a 4.877673
_cell_length_b 19.652562
_cell_length_c 15.984447
_cell_angle_alpha 90.000000
_cell_angle_beta 90.000000
_cell_angle_gamma 90.000000
_cell_volume 1532.249445
_symmetry_space_group_name_H-M "C 2 2 2"
_symmetry_group_IT_number 21
_symmetry_cell_setting 'orthorhombic'
loop_
_space_group_symop_operation_xyz
x,y,z
-x,-y,z
x,-y,-z
-x,y,-z
1/2+x,1/2+y,z
1/2-x,1/2-y,z
1/2+x,1/2-y,-z
1/2-x,1/2+y,-z
loop_
_atom_site_type_symbol
_atom_site_label
_atom_site_fract_x
_atom_site_fract_y
_atom_site_fract_z
Si Si1 0.558397 0.080181 0.095596
Si Si2 0.750000 0.750000 0.727161
Si Si3 0.061731 0.337772 0.409266
Si Si4 0.446536 0.625725 0.808306
Si Si5 0.933640 0.924855 0.627563
O O1 0.870266 0.095924 0.117466
O O2 0.364928 0.120672 0.161009
O O3 0.500000 0.000000 0.106269
O O4 0.500000 0.099054 0.000000
O O5 0.959009 0.709989 0.665558
O O6 0.568127 0.698728 0.782182
O O7 0.872895 0.404491 0.395899
O O8 0.000000 0.307563 0.500000
O O9 0.369859 0.364893 0.406193
O O10 0.506243 0.580109 0.726624
O O11 0.000000 0.000000 0.597778
#
# Coordination Sequence:
#
# PCOD9325131 Si02
#       5
#     8   4   8   8   8
#     4  11  23  41  68 100 130 162 205 261 324 382
#     4  10  26  44  66  92 128 176 224 260 308 376
#     4  11  25  42  64  92 126 170 216 268 320 376
#     4  11  23  41  65  93 129 171 213 260 309 377
#     4  11  23  40  65  96 127 165 212 266 330 383
#
# _framework density 23.494869000000001
#
# number of rings (size 3 to 8) (size 9 to 14) (size 15 to 20)
#    0.000    1.111    0.000    6.667    0.000   16.000 
#    0.000    2.222    0.000    0.000    0.000    0.000 
#    0.000    0.000    0.000    0.000    0.000    0.000 
#
# Total GULP energy -100861.318062 kJ/mol
# GULP energy per Si atom -5603.406559 kJ/mol
# Density = 2.344139 g / cm^3
# Si number density = 23.494869 Si / 1000 Ang^3
#
#
#
# Elastic Constant Matrix: (Units=GPa)
#
#
# Indices 1 2 3 4 5 6 
#
# 1 63.4859 -4.4771 0.5777 0.0000 0.0000 0.0000
# 2 -4.4771 107.3631 7.0436 0.0000 0.0000 0.0000
# 3 0.5777 7.0436 112.3300 0.0000 0.0000 0.0000
# 4 0.0000 0.0000 0.0000 52.4454 0.0000 0.0000
# 5 0.0000 0.0000 0.0000 0.0000 42.2854 0.0000
# 6 0.0000 0.0000 0.0000 0.0000 0.0000 28.0395
#
#
#
# Elastic Compliance Matrix: (Units=1/GPa)
#
#
# Indices 1 2 3 4 5 6 
#
# 1 0.015800 0.000667 -0.000123 0.000000 0.000000 0.000000
# 2 0.000667 0.009381 -0.000592 0.000000 0.000000 0.000000
# 3 -0.000123 -0.000592 0.008940 0.000000 0.000000 0.000000
# 4 0.000000 0.000000 0.000000 0.019067 0.000000 0.000000
# 5 0.000000 0.000000 0.000000 0.000000 0.023649 0.000000
# 6 0.000000 0.000000 0.000000 0.000000 0.000000 0.035664
#
#
# Mechanical properties :
#
#
# Convention : Reuss Voigt Hill
#
# Bulk Modulus (GPa) = 29.39015 32.16303 30.77659
# Shear Modulus (GPa) = 40.34272 43.22305 41.78288
#
# Velocity S-wave (km/s) = 4.14827 4.29380 4.22166
# Velocity P-wave (km/s) = 5.95655 6.18881 6.07379
#
# Compressibility (1/GPa) = 0.03402500
#
# Stress axis : x y z
#
# Youngs Moduli (GPa) = 63.29240 106.60057 111.85593
#
# Poissons Ratio (x) = -0.07110 0.01377
# Poissons Ratio (y) = -0.04221 0.06618
# Poissons Ratio (z) = 0.00779 0.06307
#
# Static dielectric constant tensor:
#      x y z
#    x 1.828760 0.000000 0.000000 
#    y 0.000000 1.880400 0.000000 
#    z 0.000000 0.000000 1.896900 
# 
# From -- ./inp_files/28921.got.cif
#   From: 2010.05.17/outbox.cif.g08.bks.cpg/sg21_15_cif.got.tgz:28921.got - 2010.06.03 23:14:55.
