data_PCOD9325633
_publ_section_title
;
Structure prediction by ZEFSAII (Michael W. Deem and Ramdas Pophale) SiO2 
 PCOD9325633
Probable space group: C 2 2 2
;
_chemical_formula_sum "Si O2"
_cell_formula_units_Z 32
_cell_length_a 21.937475
_cell_length_b 13.234358
_cell_length_c 4.841996
_cell_angle_alpha 90.000000
_cell_angle_beta 90.000000
_cell_angle_gamma 90.000000
_cell_volume 1405.768941
_symmetry_space_group_name_H-M "C 2 2 2"
_symmetry_group_IT_number 21
_symmetry_cell_setting 'orthorhombic'
loop_
_space_group_symop_operation_xyz
x,y,z
-x,-y,z
x,-y,-z
-x,y,-z
1/2+x,1/2+y,z
1/2-x,1/2-y,z
1/2+x,1/2-y,-z
1/2-x,1/2+y,-z
loop_
_atom_site_type_symbol
_atom_site_label
_atom_site_fract_x
_atom_site_fract_y
_atom_site_fract_z
Si Si1 0.288328 0.882843 0.086452
Si Si2 0.959204 0.768115 0.741126
Si Si3 0.144515 0.706613 0.586240
Si Si4 0.150198 0.880556 0.951944
O O1 0.307054 0.848699 0.391332
O O2 0.339620 0.835799 0.886107
O O3 0.218344 0.850057 0.046290
O O4 0.288918 0.000000 0.000000
O O5 0.920321 0.688342 0.558994
O O6 0.000000 0.819424 0.500000
O O7 0.907773 0.836228 0.886433
O O8 0.000000 0.732233 0.000000
O O9 0.147651 0.827837 0.648053
O O10 0.147163 0.000000 0.000000
#
# Coordination Sequence:
#
# PCOD9325633 Si02
#       4
#     8   8   8   8
#     4  11  26  45  74 112 144 178 238 304 369 435
#     4  12  25  47  67 102 142 195 241 284 343 433
#     4  12  24  46  74 102 146 190 232 296 368 418
#     4  11  27  45  71 112 149 185 235 294 363 442
#
# _framework density 22.763342000000002
#
# number of rings (size 3 to 8) (size 9 to 14) (size 15 to 20)
#    0.000    0.500    5.000    1.500    7.000    1.500 
#    4.500    0.000    0.000   11.250    0.000    0.000 
#    0.000    0.000    0.000    0.000    0.000    0.000 
#
# Total GULP energy -89191.086652 kJ/mol
# GULP energy per Si atom -5574.442916 kJ/mol
# Density = 2.271153 g / cm^3
# Si number density = 22.763342 Si / 1000 Ang^3
#
#
#
# Elastic Constant Matrix: (Units=GPa)
#
#
# Indices 1 2 3 4 5 6 
#
# 1 143.9043 30.6748 37.0734 0.0000 0.0000 0.0000
# 2 30.6748 67.0051 18.4298 0.0000 0.0000 0.0000
# 3 37.0734 18.4298 124.3901 0.0000 0.0000 0.0000
# 4 0.0000 0.0000 0.0000 28.1770 0.0000 0.0000
# 5 0.0000 0.0000 0.0000 0.0000 50.5437 0.0000
# 6 0.0000 0.0000 0.0000 0.0000 0.0000 13.1774
#
#
#
# Elastic Compliance Matrix: (Units=1/GPa)
#
#
# Indices 1 2 3 4 5 6 
#
# 1 0.008131 -0.003186 -0.001951 0.000000 0.000000 0.000000
# 2 -0.003186 0.016806 -0.001541 0.000000 0.000000 0.000000
# 3 -0.001951 -0.001541 0.008849 0.000000 0.000000 0.000000
# 4 0.000000 0.000000 0.000000 0.035490 0.000000 0.000000
# 5 0.000000 0.000000 0.000000 0.000000 0.019785 0.000000
# 6 0.000000 0.000000 0.000000 0.000000 0.000000 0.075887
#
#
# Mechanical properties :
#
#
# Convention : Reuss Voigt Hill
#
# Bulk Modulus (GPa) = 48.94481 56.40616 52.67548
# Shear Modulus (GPa) = 27.01042 34.98773 30.99907
#
# Velocity S-wave (km/s) = 3.44841 3.92474 3.69426
# Velocity P-wave (km/s) = 6.11585 6.73582 6.43331
#
# Compressibility (1/GPa) = 0.02043118
#
# Stress axis : x y z
#
# Youngs Moduli (GPa) = 122.98887 59.50141 113.00626
#
# Poissons Ratio (x) = 0.18955 0.22051
# Poissons Ratio (y) = 0.39179 0.17410
# Poissons Ratio (z) = 0.23999 0.09167
#
# Static dielectric constant tensor:
#      x y z
#    x 1.888400 0.000000 0.000000 
#    y 0.000000 1.934210 0.000000 
#    z 0.000000 0.000000 1.871150 
# 
# From -- ./inp_files/5667.got.cif
#   From: 2010.05.17/outbox.cif.g08.bks.cpg/sg21_3_cif.got.tgz:5667.got - 2010.06.03 23:14:55.
