data_PCOD9325567
_publ_section_title
;
Structure prediction by ZEFSAII (Michael W. Deem and Ramdas Pophale) SiO2 
 PCOD9325567
Probable space group: C 2 2 2
;
_chemical_formula_sum "Si O2"
_cell_formula_units_Z 38
_cell_length_a 16.553384
_cell_length_b 8.473862
_cell_length_c 11.079369
_cell_angle_alpha 90.000000
_cell_angle_beta 90.000000
_cell_angle_gamma 90.000000
_cell_volume 1554.115184
_symmetry_space_group_name_H-M "C 2 2 2"
_symmetry_group_IT_number 21
_symmetry_cell_setting 'orthorhombic'
loop_
_space_group_symop_operation_xyz
x,y,z
-x,-y,z
x,-y,-z
-x,y,-z
1/2+x,1/2+y,z
1/2-x,1/2-y,z
1/2+x,1/2-y,-z
1/2-x,1/2+y,-z
loop_
_atom_site_type_symbol
_atom_site_label
_atom_site_fract_x
_atom_site_fract_y
_atom_site_fract_z
Si Si1 0.383345 0.037431 0.332613
Si Si2 0.699531 0.528639 0.721207
Si Si3 0.250000 0.750000 0.064910
Si Si4 0.083619 0.768923 0.449894
Si Si5 0.500000 0.500000 0.000000
Si Si6 0.380296 0.740103 0.868603
O O1 0.382227 0.170897 0.436384
O O2 0.409496 0.111046 0.206272
O O3 0.290332 0.979696 0.326740
O O4 0.433434 0.879920 0.362237
O O5 0.707896 0.627628 0.844976
O O6 0.640665 0.610266 0.622747
O O7 0.669104 0.361311 0.769030
O O8 0.321265 0.799166 0.974373
O O9 0.000000 0.835954 0.500000
O O10 0.445440 0.617524 0.920025
#
# Coordination Sequence:
#
# PCOD9325567 Si02
#       6
#     8   8   4   8   2   8
#     4  11  24  46  74 110 151 199 260 309 380 453
#     4  12  24  47  81 108 149 203 258 315 383 452
#     4  12  22  48  76 112 146 198 264 320 364 462
#     4  11  27  49  74 110 155 195 249 315 392 462
#     4  12  28  48  68 116 164 198 256 318 406 460
#     4  12  27  45  78 110 153 200 261 320 385 460
#
# _framework density 24.451212000000002
#
# number of rings (size 3 to 8) (size 9 to 14) (size 15 to 20)
#    0.000    0.421    6.316    1.263    2.947    7.579 
#    3.789    2.105    0.000    1.263    0.000    0.000 
#    0.000    0.000    0.000    0.000    0.000    0.000 
#
# Total GULP energy -106357.510079 kJ/mol
# GULP energy per Si atom -5597.763688 kJ/mol
# Density = 2.439556 g / cm^3
# Si number density = 24.451212 Si / 1000 Ang^3
#
#
#
# Elastic Constant Matrix: (Units=GPa)
#
#
# Indices 1 2 3 4 5 6 
#
# 1 122.6312 48.4424 69.1883 0.0000 0.0000 0.0000
# 2 48.4424 103.5667 65.6146 0.0000 0.0000 0.0000
# 3 69.1883 65.6146 146.2004 0.0000 0.0000 0.0000
# 4 0.0000 0.0000 0.0000 -6.5926 0.0000 0.0000
# 5 0.0000 0.0000 0.0000 0.0000 29.2120 0.0000
# 6 0.0000 0.0000 0.0000 0.0000 0.0000 -27.4179
#
#
#
# Elastic Compliance Matrix: (Units=1/GPa)
#
#
# Indices 1 2 3 4 5 6 
#
# 1 0.011654 -0.002734 -0.004288 0.000000 0.000000 0.000000
# 2 -0.002734 0.014133 -0.005049 0.000000 0.000000 0.000000
# 3 -0.004288 -0.005049 0.011135 0.000000 0.000000 0.000000
# 4 0.000000 0.000000 0.000000 -0.151684 0.000000 0.000000
# 5 0.000000 0.000000 0.000000 0.000000 0.034233 0.000000
# 6 0.000000 0.000000 0.000000 0.000000 0.000000 -0.036473
#
#
# Mechanical properties :
#
#
# Convention : Reuss Voigt Hill
#
# Bulk Modulus (GPa) = 78.24869 82.09878 80.17373
# Shear Modulus (GPa) = -56.43398 11.65049 -22.39175
#
# Velocity S-wave (km/s) = -4.80940 2.18521 -3.02946
# Velocity P-wave (km/s) = 1.10950 6.32584 4.54133
#
# Compressibility (1/GPa) = 0.01277977
#
# Stress axis : x y z
#
# Youngs Moduli (GPa) = 85.80788 70.75439 89.80558
#
# Poissons Ratio (x) = 0.19347 0.38508
# Poissons Ratio (y) = 0.23463 0.45343
# Poissons Ratio (z) = 0.36794 0.35724
#
# Static dielectric constant tensor:
#      x y z
#    x 1.996400 0.000000 0.000000 
#    y 0.000000 2.006540 0.000000 
#    z 0.000000 0.000000 2.028780 
# 
# From -- ./inp_files/25857.got.cif
#   From: 2010.05.17/outbox.cif.g08.bks.cpg/sg21_13_cif.got.tgz:25857.got - 2010.06.03 23:14:55.
