data_PCOD9325033
_publ_section_title
;
Structure prediction by ZEFSAII (Michael W. Deem and Ramdas Pophale) SiO2 
 PCOD9325033
Probable space group: C 2 2 2
;
_chemical_formula_sum "Si O2"
_cell_formula_units_Z 32
_cell_length_a 12.430371
_cell_length_b 9.511443
_cell_length_c 10.960681
_cell_angle_alpha 90.000000
_cell_angle_beta 90.000000
_cell_angle_gamma 90.000000
_cell_volume 1295.889702
_symmetry_space_group_name_H-M "C 2 2 2"
_symmetry_group_IT_number 21
_symmetry_cell_setting 'orthorhombic'
loop_
_space_group_symop_operation_xyz
x,y,z
-x,-y,z
x,-y,-z
-x,y,-z
1/2+x,1/2+y,z
1/2-x,1/2-y,z
1/2+x,1/2-y,-z
1/2-x,1/2+y,-z
loop_
_atom_site_type_symbol
_atom_site_label
_atom_site_fract_x
_atom_site_fract_y
_atom_site_fract_z
Si Si1 0.750000 0.750000 0.952586
Si Si2 0.844752 0.575446 0.731809
Si Si3 0.250000 0.750000 0.460977
Si Si4 0.573771 0.785624 0.331982
Si Si5 0.000000 0.000000 0.782154
Si Si6 0.860084 0.000000 0.000000
O O1 0.817875 0.649159 0.860456
O O2 0.803419 0.861005 0.042473
O O3 0.752963 0.618378 0.633461
O O4 0.861337 0.408687 0.739393
O O5 0.953818 0.645007 0.675698
O O6 0.354534 0.766297 0.546336
O O7 0.553357 0.627472 0.287687
O O8 0.918314 0.936914 0.881909
#
# Coordination Sequence:
#
# PCOD9325033 Si02
#       6
#     4   8   4   8   4   4
#     4  11  24  45  76 104 148 189 264 301 382 440
#     4  10  24  47  67 106 148 197 243 308 370 460
#     4  11  24  39  76 106 140 199 248 297 374 454
#     4  11  24  44  72 102 151 189 246 308 373 448
#     4  11  26  46  67 106 148 187 244 317 380 438
#     4  11  26  46  70 105 140 194 251 316 374 447
#
# _framework density 24.693460999999999
#
# number of rings (size 3 to 8) (size 9 to 14) (size 15 to 20)
#    0.000    1.250    2.500    1.500    7.000    4.000 
#    0.000    1.250    0.000    0.000    0.000    0.000 
#    0.000    0.000    0.000    0.000    0.000    0.000 
#
# Total GULP energy -89178.078189 kJ/mol
# GULP energy per Si atom -5573.629887 kJ/mol
# Density = 2.463726 g / cm^3
# Si number density = 24.693461 Si / 1000 Ang^3
#
#
#
# Elastic Constant Matrix: (Units=GPa)
#
#
# Indices 1 2 3 4 5 6 
#
# 1 47.2292 8.0094 19.0796 0.0000 0.0000 0.0000
# 2 8.0094 167.7159 19.4466 0.0000 0.0000 0.0000
# 3 19.0796 19.4466 75.1263 0.0000 0.0000 0.0000
# 4 0.0000 0.0000 0.0000 8.0293 0.0000 0.0000
# 5 0.0000 0.0000 0.0000 0.0000 21.7945 0.0000
# 6 0.0000 0.0000 0.0000 0.0000 0.0000 47.8284
#
#
#
# Elastic Compliance Matrix: (Units=1/GPa)
#
#
# Indices 1 2 3 4 5 6 
#
# 1 0.023626 -0.000446 -0.005885 0.000000 0.000000 0.000000
# 2 -0.000446 0.006155 -0.001480 0.000000 0.000000 0.000000
# 3 -0.005885 -0.001480 0.015189 0.000000 0.000000 0.000000
# 4 0.000000 0.000000 0.000000 0.124544 0.000000 0.000000
# 5 0.000000 0.000000 0.000000 0.000000 0.045883 0.000000
# 6 0.000000 0.000000 0.000000 0.000000 0.000000 0.020908
#
#
# Mechanical properties :
#
#
# Convention : Reuss Voigt Hill
#
# Bulk Modulus (GPa) = 34.07326 42.57140 38.32233
# Shear Modulus (GPa) = 19.10512 31.76618 25.43565
#
# Velocity S-wave (km/s) = 2.78455 3.59056 3.21293
# Velocity P-wave (km/s) = 4.91597 5.87085 5.41450
#
# Compressibility (1/GPa) = 0.02934852
#
# Stress axis : x y z
#
# Youngs Moduli (GPa) = 42.32571 162.45969 65.83888
#
# Poissons Ratio (x) = 0.07245 0.38745
# Poissons Ratio (y) = 0.01887 0.09745
# Poissons Ratio (z) = 0.24908 0.24045
#
# Static dielectric constant tensor:
#      x y z
#    x 2.442870 0.000000 0.000000 
#    y 0.000000 2.425240 0.000000 
#    z 0.000000 0.000000 1.901960 
# 
# From -- ./inp_files/21930.got.cif
#   From: 2010.05.17/outbox.cif.g08.bks.cpg/sg21_11_cif.got.tgz:21930.got - 2010.06.03 23:14:55.
