data_PCOD9325905
_publ_section_title
;
Structure prediction by ZEFSAII (Michael W. Deem and Ramdas Pophale) SiO2 
 PCOD9325905
Probable space group: F 2 2 2
;
_chemical_formula_sum "Si O2"
_cell_formula_units_Z 68
_cell_length_a 19.491133
_cell_length_b 8.909367
_cell_length_c 20.235125
_cell_angle_alpha 90.000000
_cell_angle_beta 90.000000
_cell_angle_gamma 90.000000
_cell_volume 3513.903459
_symmetry_space_group_name_H-M "F 2 2 2"
_symmetry_group_IT_number 22
_symmetry_cell_setting 'orthorhombic'
loop_
_space_group_symop_operation_xyz
x,y,z
-x,-y,z
x,-y,-z
-x,y,-z
x,1/2+y,1/2+z
-x,1/2-y,1/2+z
x,1/2-y,1/2-z
-x,1/2+y,1/2-z
1/2+x,y,1/2+z
1/2-x,-y,1/2+z
1/2+x,-y,1/2-z
1/2-x,y,1/2-z
1/2+x,1/2+y,z
1/2-x,1/2-y,z
1/2+x,1/2-y,-z
1/2-x,1/2+y,-z
loop_
_atom_site_type_symbol
_atom_site_label
_atom_site_fract_x
_atom_site_fract_y
_atom_site_fract_z
Si Si1 0.324589 0.326162 0.981526
Si Si2 0.326358 0.680141 0.614871
Si Si3 0.500000 0.500000 0.716717
Si Si4 0.903398 0.750000 0.250000
Si Si5 0.000000 0.500000 0.000000
Si Si6 0.599700 0.628839 0.607758
O O1 0.250000 0.250000 0.974343
O O2 0.365378 0.284227 0.914613
O O3 0.318259 0.500000 0.000000
O O4 0.356889 0.248232 0.047119
O O5 0.250000 0.750000 0.616829
O O6 0.361100 0.728252 0.683175
O O7 0.341150 0.501121 0.610175
O O8 0.451585 0.606510 0.758011
O O9 0.550931 0.602249 0.671151
O O10 0.951628 0.593119 0.951897
#
# Coordination Sequence:
#
# PCOD9325905 Si02
#       6
#    16  16   8   8   4  16
#     4  11  21  34  56  88 117 142 181 237 294 344
#     4  10  19  35  58  82 110 144 189 232 280 337
#     4   9  22  37  62  76 115 154 193 232 278 339
#     4  10  21  38  54  80 107 156 192 232 276 332
#     4  10  16  32  58  68 112 148 176 214 278 346
#     4  10  19  36  57  82 108 153 185 227 289 337
#
# _framework density 19.351699
#
# number of rings (size 3 to 8) (size 9 to 14) (size 15 to 20)
#    0.000    1.882    2.353    3.176    0.000    1.882 
#    0.000    0.588    0.000    0.000    0.000    8.235 
#    0.000    0.000    0.000    0.000    0.000    0.000 
#
# Total GULP energy -94672.927271 kJ/mol
# GULP energy per Si atom -5568.995722 kJ/mol
# Density = 1.930765 g / cm^3
# Si number density = 19.351699 Si / 1000 Ang^3
#
#
#
# Elastic Constant Matrix: (Units=GPa)
#
#
# Indices 1 2 3 4 5 6 
#
# 1 80.4738 38.7739 18.7419 0.0000 0.0000 0.0000
# 2 38.7739 97.0016 19.5569 0.0000 0.0000 0.0000
# 3 18.7419 19.5569 55.2795 0.0000 0.0000 0.0000
# 4 0.0000 0.0000 0.0000 17.8993 0.0000 0.0000
# 5 0.0000 0.0000 0.0000 0.0000 3.8928 0.0000
# 6 0.0000 0.0000 0.0000 0.0000 0.0000 22.2926
#
#
#
# Elastic Compliance Matrix: (Units=1/GPa)
#
#
# Indices 1 2 3 4 5 6 
#
# 1 0.015962 -0.005695 -0.003397 0.000000 0.000000 0.000000
# 2 -0.005695 0.013133 -0.002715 0.000000 0.000000 0.000000
# 3 -0.003397 -0.002715 0.020202 0.000000 0.000000 0.000000
# 4 0.000000 0.000000 0.000000 0.055868 0.000000 0.000000
# 5 0.000000 0.000000 0.000000 0.000000 0.256885 0.000000
# 6 0.000000 0.000000 0.000000 0.000000 0.000000 0.044858
#
#
# Mechanical properties :
#
#
# Convention : Reuss Voigt Hill
#
# Bulk Modulus (GPa) = 38.93764 42.98893 40.96328
# Shear Modulus (GPa) = 11.38736 19.19575 15.29156
#
# Velocity S-wave (km/s) = 2.42842 3.15293 2.81408
# Velocity P-wave (km/s) = 5.29412 5.95965 5.63671
#
# Compressibility (1/GPa) = 0.02568209
#
# Stress axis : x y z
#
# Youngs Moduli (GPa) = 62.65014 76.14307 49.49975
#
# Poissons Ratio (x) = 0.43367 0.16813
# Poissons Ratio (y) = 0.35682 0.13441
# Poissons Ratio (z) = 0.21280 0.20675
#
# Static dielectric constant tensor:
#      x y z
#    x 1.727320 0.000000 0.000000 
#    y 0.000000 1.757530 0.000000 
#    z 0.000000 0.000000 1.674220 
# 
# From -- ./inp_files/11289.got.cif
#   From: 2010.05.17/outbox.cif.g08.bks.cpg/sg22_6_cif.got.tgz:11289.got - 2010.06.03 23:40:54.
