data_PCOD9325953
_publ_section_title
;
Structure prediction by ZEFSAII (Michael W. Deem and Ramdas Pophale) SiO2 
 PCOD9325953
Probable space group: F 2 2 2
;
_chemical_formula_sum "Si O2"
_cell_formula_units_Z 116
_cell_length_a 17.113175
_cell_length_b 14.917726
_cell_length_c 22.757908
_cell_angle_alpha 90.000000
_cell_angle_beta 90.000000
_cell_angle_gamma 90.000000
_cell_volume 5809.858496
_symmetry_space_group_name_H-M "F 2 2 2"
_symmetry_group_IT_number 22
_symmetry_cell_setting 'orthorhombic'
loop_
_space_group_symop_operation_xyz
x,y,z
-x,-y,z
x,-y,-z
-x,y,-z
x,1/2+y,1/2+z
-x,1/2-y,1/2+z
x,1/2-y,1/2-z
-x,1/2+y,1/2-z
1/2+x,y,1/2+z
1/2-x,-y,1/2+z
1/2+x,-y,1/2-z
1/2-x,y,1/2-z
1/2+x,1/2+y,z
1/2-x,1/2-y,z
1/2+x,1/2-y,-z
1/2-x,1/2+y,-z
loop_
_atom_site_type_symbol
_atom_site_label
_atom_site_fract_x
_atom_site_fract_y
_atom_site_fract_z
Si Si1 0.409676 0.342785 0.217473
Si Si2 0.597757 0.886898 0.908415
Si Si3 0.733616 0.068462 0.447524
Si Si4 0.325813 0.305469 0.033353
Si Si5 0.776594 0.577051 0.356356
Si Si6 0.000000 0.000000 0.500000
Si Si7 0.534298 0.765321 0.106736
Si Si8 0.904322 0.059049 0.669821
O O1 0.387576 0.250000 0.250000
O O2 0.335727 0.395346 0.193357
O O3 0.456502 0.306075 0.160284
O O4 0.441145 0.409200 0.268197
O O5 0.688752 0.882117 0.924456
O O6 0.555876 0.791067 0.902754
O O7 0.584749 0.957811 0.854190
O O8 0.554824 0.937470 0.961286
O O9 0.667157 0.124338 0.480442
O O10 0.760492 0.000000 0.500000
O O11 0.704306 0.013764 0.391315
O O12 0.250000 0.250000 0.013394
O O13 0.289990 0.349931 0.092542
O O14 0.408100 0.264158 0.053863
O O15 0.689362 0.572460 0.331944
O O16 0.567014 0.863707 0.125211
#
# Coordination Sequence:
#
# PCOD9325953 Si02
#       8
#    16  16  16  16  16   4  16  16
#     4   9  19  29  50  78 113 143 184 241 291 325
#     4  11  21  31  50  78 115 146 184 224 286 344
#     4   9  19  32  48  76 113 154 180 224 285 341
#     4  10  18  29  47  73 112 145 181 226 280 323
#     4   9  17  29  46  74 112 142 182 224 281 340
#     4  12  20  28  48  72 112 140 170 222 270 332
#     4  10  19  31  46  79 112 148 182 231 283 338
#     4  10  17  30  46  79 110 141 181 227 284 336
#
# _framework density 19.966063999999999
#
# number of rings (size 3 to 8) (size 9 to 14) (size 15 to 20)
#    0.000    2.207    3.448    0.414    1.931    1.655 
#    0.000    0.000    0.000    0.000   21.517    0.000 
#    0.000    9.517    0.000    0.000    0.000    2.069 
#
# Total GULP energy -161470.503844 kJ/mol
# GULP energy per Si atom -5567.948408 kJ/mol
# Density = 1.992062 g / cm^3
# Si number density = 19.966064 Si / 1000 Ang^3
#
#
#
# Elastic Constant Matrix: (Units=GPa)
#
#
# Indices 1 2 3 4 5 6 
#
# 1 55.4077 44.3623 23.0954 0.0000 0.0000 0.0000
# 2 44.3623 61.9824 39.4062 0.0000 0.0000 0.0000
# 3 23.0954 39.4062 77.2634 0.0000 0.0000 0.0000
# 4 0.0000 0.0000 0.0000 29.2189 0.0000 0.0000
# 5 0.0000 0.0000 0.0000 0.0000 14.2794 0.0000
# 6 0.0000 0.0000 0.0000 0.0000 0.0000 36.2632
#
#
#
# Elastic Compliance Matrix: (Units=1/GPa)
#
#
# Indices 1 2 3 4 5 6 
#
# 1 0.043184 -0.033594 0.004225 0.000000 0.000000 0.000000
# 2 -0.033594 0.050009 -0.015464 0.000000 0.000000 0.000000
# 3 0.004225 -0.015464 0.019567 0.000000 0.000000 0.000000
# 4 0.000000 0.000000 0.000000 0.034224 0.000000 0.000000
# 5 0.000000 0.000000 0.000000 0.000000 0.070031 0.000000
# 6 0.000000 0.000000 0.000000 0.000000 0.000000 0.027576
#
#
# Mechanical properties :
#
#
# Convention : Reuss Voigt Hill
#
# Bulk Modulus (GPa) = 43.30065 45.37570 44.33818
# Shear Modulus (GPa) = 14.62177 21.80495 18.21336
#
# Velocity S-wave (km/s) = 2.70910 3.30828 3.02357
# Velocity P-wave (km/s) = 5.61425 6.11299 5.86892
#
# Compressibility (1/GPa) = 0.02309434
#
# Stress axis : x y z
#
# Youngs Moduli (GPa) = 23.15662 19.99622 51.10711
#
# Poissons Ratio (x) = 0.67176 -0.21595
# Poissons Ratio (y) = 0.77793 0.79033
# Poissons Ratio (z) = -0.09785 0.30922
#
# Static dielectric constant tensor:
#      x y z
#    x 1.734310 0.000000 0.000000 
#    y 0.000000 1.811320 0.000000 
#    z 0.000000 0.000000 1.758090 
# 
# From -- ./inp_files/49495.got.cif
#   From: 2010.05.17/outbox.cif.g08.bks.cpg/sg22_25_cif.got.tgz:49495.got - 2010.06.03 23:40:54.
