data_PCOD9325843
_publ_section_title
;
Structure prediction by ZEFSAII (Michael W. Deem and Ramdas Pophale) SiO2 
 PCOD9325843
Probable space group: C 2 2 2
;
_chemical_formula_sum "Si O2"
_cell_formula_units_Z 24
_cell_length_a 15.000000
_cell_length_b 18.000000
_cell_length_c 9.000000
_cell_angle_alpha 90.000000
_cell_angle_beta 90.000000
_cell_angle_gamma 90.000000
_cell_volume 2430.000000
_symmetry_space_group_name_H-M "C 2 2 2"
_symmetry_group_IT_number 21
_symmetry_cell_setting 'orthorhombic'
loop_
_space_group_symop_operation_xyz
x,y,z
-x,-y,z
x,-y,-z
-x,y,-z
1/2+x,1/2+y,z
1/2-x,1/2-y,z
1/2+x,1/2-y,-z
1/2-x,1/2+y,-z
loop_
_atom_site_type_symbol
_atom_site_label
_atom_site_fract_x
_atom_site_fract_y
_atom_site_fract_z
Si Si1 0.763321 0.470922 0.343723
Si Si2 0.348387 0.577710 0.064163
Si Si3 0.044574 0.774999 0.144754
Si Si4 0.164935 0.305057 0.631450
Si Si5 0.874946 0.762259 0.317997
Si Si6 0.726853 0.872796 0.208673
O O1 0.725620 0.500000 0.500000
O O2 0.692737 0.445354 0.221556
O O3 0.817280 0.393785 0.372281
O O4 0.805064 0.548152 0.276964
O O5 0.409699 0.648792 0.091412
O O6 0.386991 0.500000 0.000000
O O7 0.272403 0.605934 0.948041
O O8 0.108627 0.717354 0.225260
O O9 0.967839 0.793383 0.262724
O O10 0.000000 0.740902 0.000000
O O11 0.250000 0.250000 0.641916
O O12 0.120953 0.276166 0.478490
O O13 0.803611 0.829814 0.306471
O O14 0.844541 0.694058 0.209453
#
# Coordination Sequence:
#
# PCOD9325843 Si02
#       6
#     8   8   8   8   8   8
#     4  11  21  41  70 100 127 172 234 282 330 403
#     4  10  23  41  65 101 137 172 223 271 346 405
#     4  12  26  41  65 100 136 176 218 276 338 405
#     4  12  23  42  70  98 130 177 231 277 337 410
#     4  11  22  42  67  96 138 172 227 281 340 400
#     4  10  21  40  68  95 130 179 217 281 337 400
#
# _framework density 9.8765429999999999
#
# number of rings (size 3 to 8) (size 9 to 14) (size 15 to 20)
#    0.000    1.000    6.667    0.500    2.333    0.333 
#    0.000    0.833    0.000    2.000    0.000    0.000 
#    0.000    0.000    0.000    0.000    0.000    0.000 
#
# Total GULP energy -133766.669656 kJ/mol
# GULP energy per Si atom -5573.611236 kJ/mol
# Density = 0.985406 g / cm^3
# Si number density = 9.876543 Si / 1000 Ang^3
#
#
#
# Elastic Constant Matrix: (Units=GPa)
#
#
# Indices 1 2 3 4 5 6 
#
# 1 32.3509 21.3239 48.3551 0.0000 0.0000 0.0000
# 2 21.3239 141.3717 56.4778 0.0000 0.0000 0.0000
# 3 48.3551 56.4778 144.7761 0.0000 0.0000 0.0000
# 4 0.0000 0.0000 0.0000 41.8487 0.0000 0.0000
# 5 0.0000 0.0000 0.0000 0.0000 33.2146 0.0000
# 6 0.0000 0.0000 0.0000 0.0000 0.0000 19.6535
#
#
#
# Elastic Compliance Matrix: (Units=1/GPa)
#
#
# Indices 1 2 3 4 5 6 
#
# 1 0.061921 -0.001277 -0.020184 0.000000 0.000000 0.000000
# 2 -0.001277 0.008406 -0.002853 0.000000 0.000000 0.000000
# 3 -0.020184 -0.002853 0.014761 0.000000 0.000000 0.000000
# 4 0.000000 0.000000 0.000000 0.023896 0.000000 0.000000
# 5 0.000000 0.000000 0.000000 0.000000 0.030107 0.000000
# 6 0.000000 0.000000 0.000000 0.000000 0.000000 0.050882
#
#
# Mechanical properties :
#
#
# Convention : Reuss Voigt Hill
#
# Bulk Modulus (GPa) = 27.42552 63.42358 45.42455
# Shear Modulus (GPa) = 19.93996 31.76614 25.85305
#
# Velocity S-wave (km/s) = 3.18065 4.01454 3.62167
# Velocity P-wave (km/s) = 5.23479 7.32575 6.36669
#
# Compressibility (1/GPa) = 0.03646239
#
# Stress axis : x y z
#
# Youngs Moduli (GPa) = 16.14958 118.96587 67.74431
#
# Poissons Ratio (x) = 0.15187 1.36732
# Poissons Ratio (y) = 0.02062 0.19326
# Poissons Ratio (z) = 0.32596 0.33938
#
# Static dielectric constant tensor:
#      x y z
#    x 1.764530 0.000000 0.000000 
#    y 0.000000 1.662450 0.000000 
#    z 0.000000 0.000000 1.743460 
# 
# From -- ./inp_files/14984.got.cif
#   From: 2010.05.17/outbox.ucp.g08.bks.cvg/sg21_8_cif.got.tgz:14984.got - 2010.06.11 15:15:05.
