data_PCOD9325418
_publ_section_title
;
Structure prediction by ZEFSAII (Michael W. Deem and Ramdas Pophale) SiO2 
 PCOD9325418
Probable space group: C 2 2 2
;
_chemical_formula_sum "Si O2"
_cell_formula_units_Z 40
_cell_length_a 14.354920
_cell_length_b 12.988603
_cell_length_c 9.410347
_cell_angle_alpha 90.000000
_cell_angle_beta 90.000000
_cell_angle_gamma 90.000000
_cell_volume 1754.562557
_symmetry_space_group_name_H-M "C 2 2 2"
_symmetry_group_IT_number 21
_symmetry_cell_setting 'orthorhombic'
loop_
_space_group_symop_operation_xyz
x,y,z
-x,-y,z
x,-y,-z
-x,y,-z
1/2+x,1/2+y,z
1/2-x,1/2-y,z
1/2+x,1/2-y,-z
1/2-x,1/2+y,-z
loop_
_atom_site_type_symbol
_atom_site_label
_atom_site_fract_x
_atom_site_fract_y
_atom_site_fract_z
Si Si1 0.852653 0.743526 0.195924
Si Si2 0.890823 0.017572 0.829320
Si Si3 0.402121 0.118599 0.454645
Si Si4 0.606744 0.107020 0.050325
Si Si5 0.270692 0.133747 0.700423
O O1 0.750000 0.750000 0.252149
O O2 0.884421 0.860649 0.201502
O O3 0.897296 0.653604 0.291384
O O4 0.852752 0.702842 0.035258
O O5 0.813328 0.945551 0.745430
O O6 0.000000 0.000000 0.794724
O O7 0.877775 0.000000 0.000000
O O8 0.500000 0.170504 0.500000
O O9 0.306235 0.142778 0.538529
O O10 0.409903 0.000000 0.500000
O O11 0.634017 0.108341 0.213763
O O12 0.500000 0.107004 0.000000
O O13 0.650671 0.000000 0.000000
O O14 0.250000 0.250000 0.745827
#
# Coordination Sequence:
#
# PCOD9325418 Si02
#       5
#     8   8   8   8   8
#     4  12  24  43  71 100 145 191 246 312 380 452
#     4  11  26  45  74 114 157 202 257 324 397 470
#     4  11  25  45  71 100 141 191 250 314 381 459
#     4  11  23  39  68 104 138 183 250 314 381 460
#     4  12  25  43  71 102 145 197 249 317 389 460
#
# _framework density 22.797705000000001
#
# number of rings (size 3 to 8) (size 9 to 14) (size 15 to 20)
#    0.000    0.600    0.000    9.000    8.400    3.200 
#    0.000    0.000    0.000    0.000    0.000    0.000 
#    0.000    0.000    0.000    0.000    0.000    0.000 
#
# Total GULP energy -111365.374021 kJ/mol
# GULP energy per Si atom -5568.268701 kJ/mol
# Density = 2.274582 g / cm^3
# Si number density = 22.797705 Si / 1000 Ang^3
#
#
#
# Elastic Constant Matrix: (Units=GPa)
#
#
# Indices 1 2 3 4 5 6 
#
# 1 126.9542 44.1995 32.0252 0.0000 0.0000 0.0000
# 2 44.1995 163.7643 27.6924 0.0000 0.0000 0.0000
# 3 32.0252 27.6924 87.9036 0.0000 0.0000 0.0000
# 4 0.0000 0.0000 0.0000 31.2088 0.0000 0.0000
# 5 0.0000 0.0000 0.0000 0.0000 -137.8315 0.0000
# 6 0.0000 0.0000 0.0000 0.0000 0.0000 2543.7665
#
#
#
# Elastic Compliance Matrix: (Units=1/GPa)
#
#
# Indices 1 2 3 4 5 6 
#
# 1 0.009278 -0.002041 -0.002737 0.000000 0.000000 0.000000
# 2 -0.002041 0.006899 -0.001430 0.000000 0.000000 0.000000
# 3 -0.002737 -0.001430 0.012824 0.000000 0.000000 0.000000
# 4 0.000000 0.000000 0.000000 0.032042 0.000000 0.000000
# 5 0.000000 0.000000 0.000000 0.000000 -0.007255 0.000000
# 6 0.000000 0.000000 0.000000 0.000000 0.000000 0.000393
#
#
# Mechanical properties :
#
#
# Convention : Reuss Voigt Hill
#
# Bulk Modulus (GPa) = 60.29723 65.16180 62.72952
# Shear Modulus (GPa) = 69.32383 505.74241 287.53312
#
# Velocity S-wave (km/s) = 5.52035 14.91042 11.24267
# Velocity P-wave (km/s) = 8.19381 18.02976 14.00377
#
# Compressibility (1/GPa) = 0.01658451
#
# Stress axis : x y z
#
# Youngs Moduli (GPa) = 107.78203 144.94781 77.98056
#
# Poissons Ratio (x) = 0.29588 0.21344
# Poissons Ratio (y) = 0.22001 0.11149
# Poissons Ratio (z) = 0.29501 0.20724
#
# Static dielectric constant tensor:
#      x y z
#    x 1.968320 0.000000 0.000000 
#    y 0.000000 3.480710 0.000000 
#    z 0.000000 0.000000 1.683520 
# 
# From -- ./inp_files/14522.got.cif
#   From: 2010.05.17/outbox.cif.g08.bks.cpg/sg21_8_cif.got.tgz:14522.got - 2010.06.03 23:14:55.
