data_PCOD9325649
_publ_section_title
;
Structure prediction by ZEFSAII (Michael W. Deem and Ramdas Pophale) SiO2 
 PCOD9325649
Probable space group: C 2 2 2
;
_chemical_formula_sum "Si O2"
_cell_formula_units_Z 32
_cell_length_a 29.333862
_cell_length_b 5.768040
_cell_length_c 8.064659
_cell_angle_alpha 90.000000
_cell_angle_beta 90.000000
_cell_angle_gamma 90.000000
_cell_volume 1364.531346
_symmetry_space_group_name_H-M "C 2 2 2"
_symmetry_group_IT_number 21
_symmetry_cell_setting 'orthorhombic'
loop_
_space_group_symop_operation_xyz
x,y,z
-x,-y,z
x,-y,-z
-x,y,-z
1/2+x,1/2+y,z
1/2-x,1/2-y,z
1/2+x,1/2-y,-z
1/2-x,1/2+y,-z
loop_
_atom_site_type_symbol
_atom_site_label
_atom_site_fract_x
_atom_site_fract_y
_atom_site_fract_z
Si Si1 0.275863 0.500000 0.000000
Si Si2 0.950185 0.392063 0.676538
Si Si3 0.250000 0.750000 0.423076
Si Si4 0.910345 0.000000 0.500000
Si Si5 0.663444 0.686795 0.756178
Si Si6 0.608899 0.000000 0.000000
O O1 0.250000 0.750000 0.011473
O O2 0.307728 0.478846 0.162454
O O3 0.932619 0.500000 0.500000
O O4 0.944314 0.126796 0.626984
O O5 0.921964 0.423992 0.844147
O O6 0.000000 0.500000 0.698976
O O7 0.264849 0.500000 0.500000
O O8 0.295976 0.830922 0.327833
O O9 0.875011 0.128390 0.376633
O O10 0.640412 0.810052 0.912794
#
# Coordination Sequence:
#
# PCOD9325649 Si02
#       6
#     4   8   4   4   8   4
#     4  12  27  46  70 111 159 220 276 336 400 481
#     4  11  26  51  83 115 157 202 263 338 422 500
#     4  12  30  46  76 120 170 234 280 346 408 494
#     4  12  26  51  82 118 154 214 270 344 411 502
#     4  12  27  46  80 113 168 211 283 333 412 487
#     4  12  26  52  82 119 160 210 271 344 413 503
#
# _framework density 23.451274999999999
#
# number of rings (size 3 to 8) (size 9 to 14) (size 15 to 20)
#    0.000    0.250    5.000    2.625    5.250    2.000 
#    0.000    0.000   11.000    0.000    0.000    0.000 
#    0.000    0.000    0.000    0.000    0.000    0.000 
#
# Total GULP energy -89117.911972 kJ/mol
# GULP energy per Si atom -5569.869498 kJ/mol
# Density = 2.339790 g / cm^3
# Si number density = 23.451275 Si / 1000 Ang^3
#
#
#
# Elastic Constant Matrix: (Units=GPa)
#
#
# Indices 1 2 3 4 5 6 
#
# 1 164.8648 72.9789 74.8372 0.0000 0.0000 0.0000
# 2 72.9789 82.5855 54.7226 0.0000 0.0000 0.0000
# 3 74.8372 54.7226 172.4143 0.0000 0.0000 0.0000
# 4 0.0000 0.0000 0.0000 -87.9069 0.0000 0.0000
# 5 0.0000 0.0000 0.0000 0.0000 63.4451 0.0000
# 6 0.0000 0.0000 0.0000 0.0000 0.0000 -18.8560
#
#
#
# Elastic Compliance Matrix: (Units=1/GPa)
#
#
# Indices 1 2 3 4 5 6 
#
# 1 0.010501 -0.007927 -0.002042 0.000000 0.000000 0.000000
# 2 -0.007927 0.021316 -0.003325 0.000000 0.000000 0.000000
# 3 -0.002042 -0.003325 0.007742 0.000000 0.000000 0.000000
# 4 0.000000 0.000000 0.000000 -0.011376 0.000000 0.000000
# 5 0.000000 0.000000 0.000000 0.000000 0.015762 0.000000
# 6 0.000000 0.000000 0.000000 0.000000 0.000000 -0.053034
#
#
# Mechanical properties :
#
#
# Convention : Reuss Voigt Hill
#
# Bulk Modulus (GPa) = 77.09104 91.66024 84.37564
# Shear Modulus (GPa) = 229.10560 5.82483 117.46521
#
# Velocity S-wave (km/s) = 9.89477 1.57772 7.08504
# Velocity P-wave (km/s) = 12.78617 6.51837 10.14828
#
# Compressibility (1/GPa) = 0.01297168
#
# Stress axis : x y z
#
# Youngs Moduli (GPa) = 95.22513 46.91222 129.16831
#
# Poissons Ratio (x) = 0.37185 0.26381
# Poissons Ratio (y) = 0.75481 0.42949
# Poissons Ratio (z) = 0.19449 0.15599
#
# Static dielectric constant tensor:
#      x y z
#    x 1.987080 0.000000 0.000000 
#    y 0.000000 2.109600 0.000000 
#    z 0.000000 0.000000 2.136020 
# 
# From -- ./inp_files/19440.got.cif
#   From: 2010.05.17/outbox.cif.g08.bks.cpg/sg21_10_cif.got.tgz:19440.got - 2010.06.03 23:14:55.
