data_PCOD9325104
_publ_section_title
;
Structure prediction by ZEFSAII (Michael W. Deem and Ramdas Pophale) SiO2 
 PCOD9325104
Probable space group: C 2 2 2
;
_chemical_formula_sum "Si O2"
_cell_formula_units_Z 22
_cell_length_a 5.227402
_cell_length_b 32.305811
_cell_length_c 5.113403
_cell_angle_alpha 90.000000
_cell_angle_beta 90.000000
_cell_angle_gamma 90.000000
_cell_volume 863.528289
_symmetry_space_group_name_H-M "C 2 2 2"
_symmetry_group_IT_number 21
_symmetry_cell_setting 'orthorhombic'
loop_
_space_group_symop_operation_xyz
x,y,z
-x,-y,z
x,-y,-z
-x,y,-z
1/2+x,1/2+y,z
1/2-x,1/2-y,z
1/2+x,1/2-y,-z
1/2-x,1/2+y,-z
loop_
_atom_site_type_symbol
_atom_site_label
_atom_site_fract_x
_atom_site_fract_y
_atom_site_fract_z
Si Si1 0.000000 0.000000 0.500000
Si Si2 0.247866 0.296210 0.819919
Si Si3 0.819948 0.428579 0.748671
Si Si4 0.000000 0.137696 0.500000
O O1 0.171172 0.028978 0.313889
O O2 0.250000 0.250000 0.700172
O O3 0.283323 0.332068 0.610764
O O4 0.500000 0.298157 0.000000
O O5 0.000000 0.301287 0.000000
O O6 0.613434 0.391961 0.724085
O O7 0.000000 0.422000 0.500000
O O8 0.000000 0.429317 0.000000
#
# Coordination Sequence:
#
# PCOD9325104 Si02
#       4
#     2   8   8   4
#     4  10  26  54  84 116 160 214 270 338 406 504
#     4  10  25  47  75 112 159 219 286 348 409 485
#     4  11  28  50  81 120 162 213 269 338 415 499
#     4  11  28  45  78 112 168 212 280 337 424 481
#
# _framework density 25.476873000000001
#
# number of rings (size 3 to 8) (size 9 to 14) (size 15 to 20)
#    0.000    1.455    0.000    0.545   10.182   13.091 
#    0.000    5.455    0.000    0.000    0.000    0.000 
#    0.000    0.000    0.000    0.000    0.000    0.000 
#
# Total GULP energy -61773.265471 kJ/mol
# GULP energy per Si atom -5615.751406 kJ/mol
# Density = 2.541889 g / cm^3
# Si number density = 25.476873 Si / 1000 Ang^3
#
#
#
# Elastic Constant Matrix: (Units=GPa)
#
#
# Indices 1 2 3 4 5 6 
#
# 1 181.0494 85.7262 85.0174 0.0000 0.0000 0.0000
# 2 85.7262 234.3778 89.5674 0.0000 0.0000 0.0000
# 3 85.0174 89.5674 175.4473 0.0000 0.0000 0.0000
# 4 0.0000 0.0000 0.0000 -7.5067 0.0000 0.0000
# 5 0.0000 0.0000 0.0000 0.0000 67.6863 0.0000
# 6 0.0000 0.0000 0.0000 0.0000 0.0000 47.2097
#
#
#
# Elastic Compliance Matrix: (Units=1/GPa)
#
#
# Indices 1 2 3 4 5 6 
#
# 1 0.007671 -0.001721 -0.002839 0.000000 0.000000 0.000000
# 2 -0.001721 0.005687 -0.002069 0.000000 0.000000 0.000000
# 3 -0.002839 -0.002069 0.008132 0.000000 0.000000 0.000000
# 4 0.000000 0.000000 0.000000 -0.133213 0.000000 0.000000
# 5 0.000000 0.000000 0.000000 0.000000 0.014774 0.000000
# 6 0.000000 0.000000 0.000000 0.000000 0.000000 0.021182
#
#
# Mechanical properties :
#
#
# Convention : Reuss Voigt Hill
#
# Bulk Modulus (GPa) = 121.47951 123.49964 122.48957
# Shear Modulus (GPa) = -83.65993 43.51543 -20.07225
#
# Velocity S-wave (km/s) = -5.73663 4.13732 -2.80993
# Velocity P-wave (km/s) = 1.97668 8.45007 6.13641
#
# Compressibility (1/GPa) = 0.00823184
#
# Stress axis : x y z
#
# Youngs Moduli (GPa) = 130.35671 175.84413 122.97649
#
# Poissons Ratio (x) = 0.30263 0.34909
# Poissons Ratio (y) = 0.22435 0.25447
# Poissons Ratio (z) = 0.37004 0.36386
#
# Static dielectric constant tensor:
#      x y z
#    x 7.595080 0.000000 0.000000 
#    y 0.000000 2.006630 0.000000 
#    z 0.000000 0.000000 1.929050 
# 
# From -- ./inp_files/742.got.cif
#   From: 2010.05.17/outbox.cif.g08.bks.cpg/sg21_1_cif.got.tgz:742.got - 2010.06.03 23:14:55.
