data_PCOD9325279
_publ_section_title
;
Structure prediction by ZEFSAII (Michael W. Deem and Ramdas Pophale) SiO2 
 PCOD9325279
Probable space group: C 2 2 2
;
_chemical_formula_sum "Si O2"
_cell_formula_units_Z 48
_cell_length_a 14.926611
_cell_length_b 17.751026
_cell_length_c 9.390718
_cell_angle_alpha 90.000000
_cell_angle_beta 90.000000
_cell_angle_gamma 90.000000
_cell_volume 2488.189620
_symmetry_space_group_name_H-M "C 2 2 2"
_symmetry_group_IT_number 21
_symmetry_cell_setting 'orthorhombic'
loop_
_space_group_symop_operation_xyz
x,y,z
-x,-y,z
x,-y,-z
-x,y,-z
1/2+x,1/2+y,z
1/2-x,1/2-y,z
1/2+x,1/2-y,-z
1/2-x,1/2+y,-z
loop_
_atom_site_type_symbol
_atom_site_label
_atom_site_fract_x
_atom_site_fract_y
_atom_site_fract_z
Si Si1 0.177184 0.183249 0.736900
Si Si2 0.815305 0.320910 0.767312
Si Si3 0.009551 0.273998 0.833352
Si Si4 0.579414 0.938321 0.758812
Si Si5 0.778101 0.585455 0.516138
Si Si6 0.260226 0.076231 0.965637
O O1 0.250000 0.250000 0.740434
O O2 0.079603 0.219608 0.754066
O O3 0.204239 0.134654 0.599277
O O4 0.200123 0.130890 0.870724
O O5 0.750000 0.250000 0.768386
O O6 0.801246 0.374121 0.631120
O O7 0.912148 0.282167 0.766804
O O8 0.798602 0.373272 0.905863
O O9 0.045227 0.359217 0.819424
O O10 0.000000 0.253516 0.000000
O O11 0.630859 0.922237 0.610673
O O12 0.659141 0.957254 0.868041
O O13 0.500000 0.000000 0.750581
O O14 0.745566 0.500000 0.500000
O O15 0.207114 0.000000 0.000000
#
# Coordination Sequence:
#
# PCOD9325279 Si02
#       6
#     8   8   8   8   8   8
#     4  11  21  43  65  91 133 181 220 263 338 403
#     4  12  25  40  64  98 130 170 230 275 329 397
#     4  12  22  39  67  96 130 172 220 277 328 401
#     4  11  23  37  63  97 137 168 207 261 354 419
#     4  11  24  44  62  94 139 178 217 276 335 403
#     4  11  21  38  64  96 136 171 213 280 338 397
#
# _framework density 19.291135000000001
#
# number of rings (size 3 to 8) (size 9 to 14) (size 15 to 20)
#    0.000    0.667    5.000    6.000    0.000    2.333 
#    0.000    0.833    0.000   10.500    0.000    0.000 
#    0.000    0.000    0.000    0.000    0.000    0.000 
#
# Total GULP energy -134069.972509 kJ/mol
# GULP energy per Si atom -5586.248855 kJ/mol
# Density = 1.924723 g / cm^3
# Si number density = 19.291135 Si / 1000 Ang^3
#
#
#
# Elastic Constant Matrix: (Units=GPa)
#
#
# Indices 1 2 3 4 5 6 
#
# 1 79.0391 48.2425 22.5602 0.0000 0.0000 0.0000
# 2 48.2425 119.1582 18.4270 0.0000 0.0000 0.0000
# 3 22.5602 18.4270 58.6233 0.0000 0.0000 0.0000
# 4 0.0000 0.0000 0.0000 38.8560 0.0000 0.0000
# 5 0.0000 0.0000 0.0000 0.0000 15.7757 0.0000
# 6 0.0000 0.0000 0.0000 0.0000 0.0000 43.5720
#
#
#
# Elastic Compliance Matrix: (Units=1/GPa)
#
#
# Indices 1 2 3 4 5 6 
#
# 1 0.018044 -0.006550 -0.004885 0.000000 0.000000 0.000000
# 2 -0.006550 0.011199 -0.000999 0.000000 0.000000 0.000000
# 3 -0.004885 -0.000999 0.019252 0.000000 0.000000 0.000000
# 4 0.000000 0.000000 0.000000 0.025736 0.000000 0.000000
# 5 0.000000 0.000000 0.000000 0.000000 0.063388 0.000000
# 6 0.000000 0.000000 0.000000 0.000000 0.000000 0.022951
#
#
# Mechanical properties :
#
#
# Convention : Reuss Voigt Hill
#
# Bulk Modulus (GPa) = 42.32639 48.36445 45.34542
# Shear Modulus (GPa) = 25.86463 30.81348 28.33905
#
# Velocity S-wave (km/s) = 3.66560 4.00094 3.83694
# Velocity P-wave (km/s) = 6.31696 6.81679 6.57163
#
# Compressibility (1/GPa) = 0.02362592
#
# Stress axis : x y z
#
# Youngs Moduli (GPa) = 55.41957 89.29720 51.94217
#
# Poissons Ratio (x) = 0.58489 0.25375
# Poissons Ratio (y) = 0.36299 0.05191
# Poissons Ratio (z) = 0.27073 0.08924
#
# Static dielectric constant tensor:
#      x y z
#    x 1.685630 0.000000 0.000000 
#    y 0.000000 1.589290 0.000000 
#    z 0.000000 0.000000 1.746610 
# 
# From -- ./inp_files/14959.got.cif
#   From: 2010.05.17/outbox.cif.g08.bks.cpg/sg21_8_cif.got.tgz:14959.got - 2010.06.03 23:14:55.
