data_PCOD9325088
_publ_section_title
;
Structure prediction by ZEFSAII (Michael W. Deem and Ramdas Pophale) SiO2 
 PCOD9325088
Probable space group: C 2 2 2
;
_chemical_formula_sum "Si O2"
_cell_formula_units_Z 48
_cell_length_a 28.494737
_cell_length_b 10.214353
_cell_length_c 8.554855
_cell_angle_alpha 90.000000
_cell_angle_beta 90.000000
_cell_angle_gamma 90.000000
_cell_volume 2489.935909
_symmetry_space_group_name_H-M "C 2 2 2"
_symmetry_group_IT_number 21
_symmetry_cell_setting 'orthorhombic'
loop_
_space_group_symop_operation_xyz
x,y,z
-x,-y,z
x,-y,-z
-x,y,-z
1/2+x,1/2+y,z
1/2-x,1/2-y,z
1/2+x,1/2-y,-z
1/2-x,1/2+y,-z
loop_
_atom_site_type_symbol
_atom_site_label
_atom_site_fract_x
_atom_site_fract_y
_atom_site_fract_z
Si Si1 0.349742 0.992649 0.312501
Si Si2 0.912409 0.748394 0.681642
Si Si3 0.107573 0.768822 0.687692
Si Si4 0.744950 0.902607 0.853393
Si Si5 0.153376 0.974999 0.186758
Si Si6 0.006807 0.846545 0.814253
O O1 0.365564 0.137203 0.259980
O O2 0.345163 0.000000 0.500000
O O3 0.390833 0.890780 0.271132
O O4 0.301517 0.935366 0.244175
O O5 0.903647 0.761776 0.496530
O O6 0.883109 0.862025 0.767991
O O7 0.966403 0.766649 0.725910
O O8 0.058124 0.794640 0.772034
O O9 0.139355 0.893189 0.725899
O O10 0.750000 0.750000 0.899489
O O11 0.793978 0.934114 0.768306
O O12 0.742817 0.000000 0.000000
O O13 0.151287 0.000000 0.000000
O O14 0.000000 0.000000 0.770094
O O15 0.000000 0.837535 0.000000
#
# Coordination Sequence:
#
# PCOD9325088 Si02
#       6
#     8   8   8   8   8   8
#     4  10  25  45  64  93 131 167 210 264 317 376
#     4  11  22  42  65  91 128 164 211 261 314 379
#     4  11  24  40  65  95 123 169 209 259 320 371
#     4  11  25  43  66  95 129 169 213 263 317 377
#     4  11  23  39  62  93 126 163 212 259 314 372
#     4  11  23  39  63  95 129 163 210 262 313 379
#
# _framework density 19.277605999999999
#
# number of rings (size 3 to 8) (size 9 to 14) (size 15 to 20)
#    0.000    1.167    3.333    2.000    4.667    4.000 
#    0.000    3.333    0.000    0.000    0.000    0.000 
#    0.000    0.000    0.000    0.000    0.000    0.000 
#
# Total GULP energy -134130.551495 kJ/mol
# GULP energy per Si atom -5588.772979 kJ/mol
# Density = 1.923373 g / cm^3
# Si number density = 19.277606 Si / 1000 Ang^3
#
#
#
# Elastic Constant Matrix: (Units=GPa)
#
#
# Indices 1 2 3 4 5 6 
#
# 1 115.0183 52.2859 11.9090 0.0000 0.0000 0.0000
# 2 52.2859 149.9635 20.7431 0.0000 0.0000 0.0000
# 3 11.9090 20.7431 31.5776 0.0000 0.0000 0.0000
# 4 0.0000 0.0000 0.0000 20.4180 0.0000 0.0000
# 5 0.0000 0.0000 0.0000 0.0000 26.7718 0.0000
# 6 0.0000 0.0000 0.0000 0.0000 0.0000 -4.4313
#
#
#
# Elastic Compliance Matrix: (Units=1/GPa)
#
#
# Indices 1 2 3 4 5 6 
#
# 1 0.010414 -0.003396 -0.001696 0.000000 0.000000 0.000000
# 2 -0.003396 0.008442 -0.004265 0.000000 0.000000 0.000000
# 3 -0.001696 -0.004265 0.035109 0.000000 0.000000 0.000000
# 4 0.000000 0.000000 0.000000 0.048976 0.000000 0.000000
# 5 0.000000 0.000000 0.000000 0.000000 0.037353 0.000000
# 6 0.000000 0.000000 0.000000 0.000000 0.000000 -0.225666
#
#
# Mechanical properties :
#
#
# Convention : Reuss Voigt Hill
#
# Bulk Modulus (GPa) = 28.36842 51.82616 40.09729
# Shear Modulus (GPa) = -91.06408 22.65978 -34.20215
#
# Velocity S-wave (km/s) = -6.88047 3.43220 -4.21668
# Velocity P-wave (km/s) = 6.95510 6.53063 1.69179
#
# Compressibility (1/GPa) = 0.03525046
#
# Stress axis : x y z
#
# Youngs Moduli (GPa) = 96.02662 118.45088 28.48237
#
# Poissons Ratio (x) = 0.40228 0.04832
# Poissons Ratio (y) = 0.32612 0.12147
# Poissons Ratio (z) = 0.16290 0.50518
#
# Static dielectric constant tensor:
#      x y z
#    x 1.661070 0.000000 0.000000 
#    y 0.000000 1.664660 0.000000 
#    z 0.000000 0.000000 1.667480 
# 
# From -- ./inp_files/11549.got.cif
#   From: 2010.05.17/outbox.cif.g08.bks.cpg/sg21_6_cif.got.tgz:11549.got - 2010.06.03 23:14:55.
