data_PCOD9325957
_publ_section_title
;
Structure prediction by ZEFSAII (Michael W. Deem and Ramdas Pophale) SiO2 
 PCOD9325957
Probable space group: F 2 2 2
;
_chemical_formula_sum "Si O2"
_cell_formula_units_Z 108
_cell_length_a 17.744360
_cell_length_b 11.811303
_cell_length_c 20.682643
_cell_angle_alpha 90.000000
_cell_angle_beta 90.000000
_cell_angle_gamma 90.000000
_cell_volume 4334.751309
_symmetry_space_group_name_H-M "F 2 2 2"
_symmetry_group_IT_number 22
_symmetry_cell_setting 'orthorhombic'
loop_
_space_group_symop_operation_xyz
x,y,z
-x,-y,z
x,-y,-z
-x,y,-z
x,1/2+y,1/2+z
-x,1/2-y,1/2+z
x,1/2-y,1/2-z
-x,1/2+y,1/2-z
1/2+x,y,1/2+z
1/2-x,-y,1/2+z
1/2+x,-y,1/2-z
1/2-x,y,1/2-z
1/2+x,1/2+y,z
1/2-x,1/2-y,z
1/2+x,1/2-y,-z
1/2-x,1/2+y,-z
loop_
_atom_site_type_symbol
_atom_site_label
_atom_site_fract_x
_atom_site_fract_y
_atom_site_fract_z
Si Si1 0.073589 0.313075 0.915287
Si Si2 0.500000 0.000000 0.236326
Si Si3 0.250000 0.250000 0.250000
Si Si4 0.096534 0.264963 0.059369
Si Si5 0.111942 0.636606 0.313071
Si Si6 0.590101 0.480845 0.927028
Si Si7 0.334378 0.475493 0.294290
Si Si8 0.315459 0.015291 0.069115
O O1 0.104291 0.260553 0.847182
O O2 0.111903 0.431813 0.933257
O O3 0.983566 0.312649 0.916550
O O4 0.091249 0.243340 0.981596
O O5 0.530567 0.101268 0.282450
O O6 0.425589 0.032519 0.196815
O O7 0.306460 0.348163 0.278386
O O8 0.109544 0.146066 0.092774
O O9 0.160677 0.354818 0.071146
O O10 0.125200 0.564432 0.376752
O O11 0.166351 0.577311 0.259527
O O12 0.500000 0.500000 0.924401
O O13 0.612598 0.500000 0.000000
O O14 0.289419 0.510751 0.358633
O O15 0.275526 0.000000 0.000000
#
# Coordination Sequence:
#
# PCOD9325957 Si02
#       8
#    16   8   4  16  16  16  16  16
#     4  10  17  30  49  85 129 185 227 286 365 441
#     4   8  20  38  58 102 140 170 242 316 368 420
#     4  12  28  52  80  98 156 202 252 294 382 484
#     4  10  18  27  47  84 135 185 230 284 366 443
#     4  10  18  33  56  92 137 172 234 302 368 422
#     4  11  15  25  46  78 127 185 228 289 371 439
#     4  10  25  45  65 105 134 195 243 305 372 439
#     4  10  23  38  59  89 139 188 248 300 372 446
#
# _framework density 24.914923999999999
#
# number of rings (size 3 to 8) (size 9 to 14) (size 15 to 20)
#    0.889    1.037    3.704    1.333    4.148    2.370 
#    0.000    0.000    0.000    6.222    0.000    0.000 
#    0.000    0.000    0.000    0.000    0.000    0.000 
#
# Total GULP energy -150322.288500 kJ/mol
# GULP energy per Si atom -5567.492167 kJ/mol
# Density = 2.485822 g / cm^3
# Si number density = 24.914924 Si / 1000 Ang^3
#
#
#
# Elastic Constant Matrix: (Units=GPa)
#
#
# Indices 1 2 3 4 5 6 
#
# 1 98.2387 23.4263 38.7284 0.0000 0.0000 0.0000
# 2 23.4263 102.3238 30.4587 0.0000 0.0000 0.0000
# 3 38.7284 30.4587 185.6815 0.0000 0.0000 0.0000
# 4 0.0000 0.0000 0.0000 40.8716 0.0000 0.0000
# 5 0.0000 0.0000 0.0000 0.0000 -19.3559 0.0000
# 6 0.0000 0.0000 0.0000 0.0000 0.0000 -2.6799
#
#
#
# Elastic Compliance Matrix: (Units=1/GPa)
#
#
# Indices 1 2 3 4 5 6 
#
# 1 0.011472 -0.002013 -0.002063 0.000000 0.000000 0.000000
# 2 -0.002013 0.010628 -0.001324 0.000000 0.000000 0.000000
# 3 -0.002063 -0.001324 0.006033 0.000000 0.000000 0.000000
# 4 0.000000 0.000000 0.000000 0.024467 0.000000 0.000000
# 5 0.000000 0.000000 0.000000 0.000000 -0.051664 0.000000
# 6 0.000000 0.000000 0.000000 0.000000 0.000000 -0.373145
#
#
# Mechanical properties :
#
#
# Convention : Reuss Voigt Hill
#
# Bulk Modulus (GPa) = 57.68568 63.49677 60.59122
# Shear Modulus (GPa) = -14.05942 23.34254 4.64156
#
# Velocity S-wave (km/s) = -2.37807 3.06419 1.36638
# Velocity P-wave (km/s) = 3.95765 6.16926 5.18280
#
# Compressibility (1/GPa) = 0.01733532
#
# Stress axis : x y z
#
# Youngs Moduli (GPa) = 87.16585 94.09429 165.75746
#
# Poissons Ratio (x) = 0.18937 0.34191
# Poissons Ratio (y) = 0.17542 0.21939
# Poissons Ratio (z) = 0.17980 0.12454
#
# Static dielectric constant tensor:
#      x y z
#    x 1.890690 0.000000 0.000000 
#    y 0.000000 1.993330 0.000000 
#    z 0.000000 0.000000 2.072280 
# 
# From -- ./inp_files/49987.got.cif
#   From: 2010.05.17/outbox.cif.g08.bks.cpg/sg22_25_cif.got.tgz:49987.got - 2010.06.03 23:40:54.
