data_PCOD9325736
_publ_section_title
;
Structure prediction by ZEFSAII (Michael W. Deem and Ramdas Pophale) SiO2 
 PCOD9325736
Probable space group: C 2 2 2
;
_chemical_formula_sum "Si O2"
_cell_formula_units_Z 22
_cell_length_a 14.166196
_cell_length_b 5.483406
_cell_length_c 13.557859
_cell_angle_alpha 90.000000
_cell_angle_beta 90.000000
_cell_angle_gamma 90.000000
_cell_volume 1053.160985
_symmetry_space_group_name_H-M "C 2 2 2"
_symmetry_group_IT_number 21
_symmetry_cell_setting 'orthorhombic'
loop_
_space_group_symop_operation_xyz
x,y,z
-x,-y,z
x,-y,-z
-x,y,-z
1/2+x,1/2+y,z
1/2-x,1/2-y,z
1/2+x,1/2-y,-z
1/2-x,1/2+y,-z
loop_
_atom_site_type_symbol
_atom_site_label
_atom_site_fract_x
_atom_site_fract_y
_atom_site_fract_z
Si Si1 0.750000 0.750000 0.561086
Si Si2 0.000000 0.500000 0.000000
Si Si3 0.614793 0.736679 0.739571
Si Si4 0.905001 0.736696 0.181993
O O1 0.762877 0.500000 0.500000
O O2 0.659636 0.709640 0.632428
O O3 0.939051 0.670511 0.072232
O O4 0.501180 0.750179 0.751620
O O5 0.640223 0.499894 0.804584
O O6 0.648742 0.998345 0.779958
#
# Coordination Sequence:
#
# PCOD9325736 Si02
#       4
#     4   2   8   8
#     4  12  24  38  56  76 104 146 190 222 270 332
#     4   8  16  30  60  90 102 142 184 208 252 330
#     4   9  19  35  52  78 106 140 171 224 275 299
#     4   9  18  34  57  79 110 137 174 215 261 318
#
# _framework density 20.889495
#
# number of rings (size 3 to 8) (size 9 to 14) (size 15 to 20)
#    0.000    2.909    0.000    2.182    0.000   11.636 
#    0.000   21.818    0.000   34.909    0.000    0.000 
#    0.000    0.000    0.000    0.000    0.000    0.000 
#
# Total GULP energy -61236.079283 kJ/mol
# GULP energy per Si atom -5566.916298 kJ/mol
# Density = 2.084195 g / cm^3
# Si number density = 20.889495 Si / 1000 Ang^3
#
#
#
# Elastic Constant Matrix: (Units=GPa)
#
#
# Indices 1 2 3 4 5 6 
#
# 1 94.5634 10.1184 30.4674 0.0000 0.0000 0.0000
# 2 10.1184 245.8719 67.9367 0.0000 0.0000 0.0000
# 3 30.4674 67.9367 140.0597 0.0000 0.0000 0.0000
# 4 0.0000 0.0000 0.0000 26.7280 0.0000 0.0000
# 5 0.0000 0.0000 0.0000 0.0000 21.4789 0.0000
# 6 0.0000 0.0000 0.0000 0.0000 0.0000 -5.8745
#
#
#
# Elastic Compliance Matrix: (Units=1/GPa)
#
#
# Indices 1 2 3 4 5 6 
#
# 1 0.011385 0.000249 -0.002597 0.000000 0.000000 0.000000
# 2 0.000249 0.004702 -0.002335 0.000000 0.000000 0.000000
# 3 -0.002597 -0.002335 0.008837 0.000000 0.000000 0.000000
# 4 0.000000 0.000000 0.000000 0.037414 0.000000 0.000000
# 5 0.000000 0.000000 0.000000 0.000000 0.046557 0.000000
# 6 0.000000 0.000000 0.000000 0.000000 0.000000 -0.170227
#
#
# Mechanical properties :
#
#
# Convention : Reuss Voigt Hill
#
# Bulk Modulus (GPa) = 64.27527 77.50444 70.88985
# Shear Modulus (GPa) = -106.88732 33.26464 -36.81134
#
# Velocity S-wave (km/s) = -7.16094 3.99483 -4.20240
# Velocity P-wave (km/s) = 6.12667 7.64597 3.23456
#
# Compressibility (1/GPa) = 0.01555808
#
# Stress axis : x y z
#
# Youngs Moduli (GPa) = 87.83382 212.67183 113.15493
#
# Poissons Ratio (x) = -0.05299 0.29392
# Poissons Ratio (y) = -0.02189 0.26421
# Poissons Ratio (z) = 0.22815 0.49658
#
# Static dielectric constant tensor:
#      x y z
#    x 1.855270 0.000000 0.000000 
#    y 0.000000 1.833870 0.000000 
#    z 0.000000 0.000000 1.713920 
# 
# From -- ./inp_files/24569.got.cif
#   From: 2010.05.17/outbox.cif.g08.bks.cpg/sg21_13_cif.got.tgz:24569.got - 2010.06.03 23:14:55.
