data_PCOD9325480
_publ_section_title
;
Structure prediction by ZEFSAII (Michael W. Deem and Ramdas Pophale) SiO2 
 PCOD9325480
Probable space group: C 2 2 2
;
_chemical_formula_sum "Si O2"
_cell_formula_units_Z 48
_cell_length_a 16.655452
_cell_length_b 12.833282
_cell_length_c 11.957527
_cell_angle_alpha 90.000000
_cell_angle_beta 90.000000
_cell_angle_gamma 90.000000
_cell_volume 2555.850995
_symmetry_space_group_name_H-M "C 2 2 2"
_symmetry_group_IT_number 21
_symmetry_cell_setting 'orthorhombic'
loop_
_space_group_symop_operation_xyz
x,y,z
-x,-y,z
x,-y,-z
-x,y,-z
1/2+x,1/2+y,z
1/2-x,1/2-y,z
1/2+x,1/2-y,-z
1/2-x,1/2+y,-z
loop_
_atom_site_type_symbol
_atom_site_label
_atom_site_fract_x
_atom_site_fract_y
_atom_site_fract_z
Si Si1 0.339244 0.297611 0.764263
Si Si2 0.404350 0.624986 1.000000
Si Si3 0.095414 0.615295 0.375707
Si Si4 0.160756 0.797611 0.764263
Si Si5 0.402983 0.500000 0.634749
Si Si6 0.404586 0.115296 0.375707
O O1 0.250000 0.250000 0.760011
O O2 0.364750 0.328116 0.889049
O O3 0.389193 0.202362 0.714323
O O4 0.360280 0.398411 0.687985
O O5 0.393297 0.500000 0.000000
O O6 0.500000 0.645090 0.000000
O O7 0.364750 0.671884 0.889049
O O8 0.127717 0.500000 0.347422
O O9 0.126734 0.644322 0.500000
O O10 1.000000 0.606687 0.385124
O O11 0.250000 0.750000 0.760011
O O12 0.139720 0.898411 0.687985
O O13 0.110807 0.702362 0.714323
O O14 0.500000 0.500000 0.662152
O O15 0.396487 0.500000 0.500000
#
# Coordination Sequence:
#
# PCOD9325480 Si02
#       6
#     8   8   8   8   8   8
#     4  12  25  40  63  98 131 168 211 277 334 379
#     4  11  23  44  71  91 120 171 227 274 326 394
#     4   9  19  37  61  88 124 170 212 252 311 390
#     4  12  25  40  63  98 131 168 211 277 334 379
#     4  11  24  43  69  99 133 177 228 270 314 392
#     4   9  19  37  61  88 124 170 212 252 311 390
#
# _framework density 18.780438
#
# number of rings (size 3 to 8) (size 9 to 14) (size 15 to 20)
#    0.000    1.333    1.667    5.500    2.333    5.333 
#    0.000    0.833    0.000    3.000    0.000    0.000 
#    0.000    0.000    0.000    0.000    0.000    0.000 
#
# Total GULP energy -133916.063994 kJ/mol
# GULP energy per Si atom -5579.836000 kJ/mol
# Density = 1.873769 g / cm^3
# Si number density = 18.780438 Si / 1000 Ang^3
#
#
#
# Elastic Constant Matrix: (Units=GPa)
#
#
# Indices 1 2 3 4 5 6 
#
# 1 105.9638 62.2111 52.9874 0.0000 0.0000 0.0000
# 2 62.2111 141.2382 93.6802 0.0000 0.0000 0.0000
# 3 52.9874 93.6802 147.8426 0.0000 0.0000 0.0000
# 4 0.0000 0.0000 0.0000 64.7895 0.0000 0.0000
# 5 0.0000 0.0000 0.0000 0.0000 30.2584 0.0000
# 6 0.0000 0.0000 0.0000 0.0000 0.0000 1.5615
#
#
#
# Elastic Compliance Matrix: (Units=1/GPa)
#
#
# Indices 1 2 3 4 5 6 
#
# 1 0.012994 -0.004545 -0.001778 0.000000 0.000000 0.000000
# 2 -0.004545 0.013803 -0.007117 0.000000 0.000000 0.000000
# 3 -0.001778 -0.007117 0.011911 0.000000 0.000000 0.000000
# 4 0.000000 0.000000 0.000000 0.015435 0.000000 0.000000
# 5 0.000000 0.000000 0.000000 0.000000 0.033049 0.000000
# 6 0.000000 0.000000 0.000000 0.000000 0.000000 0.640425
#
#
# Mechanical properties :
#
#
# Convention : Reuss Voigt Hill
#
# Bulk Modulus (GPa) = 84.53768 90.31134 87.42451
# Shear Modulus (GPa) = 6.59250 31.73295 19.16272
#
# Velocity S-wave (km/s) = 1.87561 4.11503 3.19777
# Velocity P-wave (km/s) = 7.05705 8.41251 7.76442
#
# Compressibility (1/GPa) = 0.01182904
#
# Stress axis : x y z
#
# Youngs Moduli (GPa) = 76.95798 72.44966 83.95694
#
# Poissons Ratio (x) = 0.32925 0.14924
# Poissons Ratio (y) = 0.34974 0.59754
# Poissons Ratio (z) = 0.13679 0.51564
#
# Static dielectric constant tensor:
#      x y z
#    x 1.527210 0.000000 0.000000 
#    y 0.000000 1.648340 0.000000 
#    z 0.000000 0.000000 1.620880 
# 
# From -- ./inp_files/26049.got.cif
#   From: 2010.05.17/outbox.cif.g08.bks.cpg/sg21_14_cif.got.tgz:26049.got - 2010.06.03 23:14:55.
