data_PCOD9325751
_publ_section_title
;
Structure prediction by ZEFSAII (Michael W. Deem and Ramdas Pophale) SiO2 
 PCOD9325751
Probable space group: C 2 2 2
;
_chemical_formula_sum "Si O2"
_cell_formula_units_Z 34
_cell_length_a 5.225265
_cell_length_b 31.465598
_cell_length_c 10.283302
_cell_angle_alpha 90.000000
_cell_angle_beta 90.000000
_cell_angle_gamma 90.000000
_cell_volume 1690.740286
_symmetry_space_group_name_H-M "C 2 2 2"
_symmetry_group_IT_number 21
_symmetry_cell_setting 'orthorhombic'
loop_
_space_group_symop_operation_xyz
x,y,z
-x,-y,z
x,-y,-z
-x,y,-z
1/2+x,1/2+y,z
1/2-x,1/2-y,z
1/2+x,1/2-y,-z
1/2-x,1/2+y,-z
loop_
_atom_site_type_symbol
_atom_site_label
_atom_site_fract_x
_atom_site_fract_y
_atom_site_fract_z
Si Si1 0.388588 0.047543 0.139574
Si Si2 0.000000 0.000000 0.000000
Si Si3 0.022355 0.171879 0.729811
Si Si4 0.520056 0.119923 0.654376
Si Si5 0.250000 0.750000 0.429166
Si Si6 0.000000 0.219572 0.000000
O O1 0.425473 0.078403 0.258626
O O2 0.500000 0.000000 0.158549
O O3 0.103491 0.034784 0.103178
O O4 0.500000 0.063672 0.000000
O O5 0.254705 0.139298 0.707830
O O6 0.111154 0.213202 0.650503
O O7 0.757632 0.151845 0.680017
O O8 0.990779 0.189078 0.875301
O O9 0.500000 0.111849 0.500000
O O10 0.500000 0.769810 0.500000
O O11 0.750000 0.250000 0.004391
#
# Coordination Sequence:
#
# PCOD9325751 Si02
#       6
#     8   2   8   8   4   4
#     4   9  22  42  72  99 136 175 228 275 340 408
#     4   8  18  42  72 108 124 180 230 266 338 410
#     4  12  27  45  68 100 139 175 231 284 337 401
#     4  12  27  45  68 105 140 179 227 280 336 407
#     4  12  24  44  72  90 132 190 226 270 340 404
#     4  12  26  47  70 100 129 178 237 288 338 403
#
# _framework density 20.109537
#
# number of rings (size 3 to 8) (size 9 to 14) (size 15 to 20)
#    0.000    1.176    1.176    5.647   11.529    0.471 
#    0.000    0.000    0.000    0.000    0.000    0.000 
#    0.000    0.000    0.000    0.000    0.000    0.000 
#
# Total GULP energy -94775.280507 kJ/mol
# GULP energy per Si atom -5575.016500 kJ/mol
# Density = 2.006377 g / cm^3
# Si number density = 20.109537 Si / 1000 Ang^3
#
#
#
# Elastic Constant Matrix: (Units=GPa)
#
#
# Indices 1 2 3 4 5 6 
#
# 1 92.9158 19.9656 60.6417 0.0000 0.0000 0.0000
# 2 19.9656 89.0561 90.8358 0.0000 0.0000 0.0000
# 3 60.6417 90.8358 204.7718 0.0000 0.0000 0.0000
# 4 0.0000 0.0000 0.0000 53.8991 0.0000 0.0000
# 5 0.0000 0.0000 0.0000 0.0000 36.4703 0.0000
# 6 0.0000 0.0000 0.0000 0.0000 0.0000 14.8303
#
#
#
# Elastic Compliance Matrix: (Units=1/GPa)
#
#
# Indices 1 2 3 4 5 6 
#
# 1 0.013519 0.001923 -0.004856 0.000000 0.000000 0.000000
# 2 0.001923 0.020781 -0.009788 0.000000 0.000000 0.000000
# 3 -0.004856 -0.009788 0.010664 0.000000 0.000000 0.000000
# 4 0.000000 0.000000 0.000000 0.018553 0.000000 0.000000
# 5 0.000000 0.000000 0.000000 0.000000 0.027420 0.000000
# 6 0.000000 0.000000 0.000000 0.000000 0.000000 0.067430
#
#
# Mechanical properties :
#
#
# Convention : Reuss Voigt Hill
#
# Bulk Modulus (GPa) = 51.22839 81.06996 66.14918
# Shear Modulus (GPa) = 26.27211 35.39333 30.83272
#
# Velocity S-wave (km/s) = 3.61841 4.19982 3.91991
# Velocity P-wave (km/s) = 6.55646 7.99498 7.31118
#
# Compressibility (1/GPa) = 0.01952043
#
# Stress axis : x y z
#
# Youngs Moduli (GPa) = 73.97092 48.12021 93.77776
#
# Poissons Ratio (x) = -0.09252 0.45542
# Poissons Ratio (y) = -0.14222 0.91788
# Poissons Ratio (z) = 0.35923 0.47099
#
# Static dielectric constant tensor:
#      x y z
#    x 2.082610 0.000000 0.000000 
#    y 0.000000 1.690300 0.000000 
#    z 0.000000 0.000000 2.562410 
# 
# From -- ./inp_files/9238.got.cif
#   From: 2010.05.17/outbox.cif.g08.bks.cpg/sg21_5_cif.got.tgz:9238.got - 2010.06.03 23:14:55.
