data_PCOD9325450
_publ_section_title
;
Structure prediction by ZEFSAII (Michael W. Deem and Ramdas Pophale) SiO2 
 PCOD9325450
Probable space group: C 2 2 2
;
_chemical_formula_sum "Si O2"
_cell_formula_units_Z 64
_cell_length_a 22.164596
_cell_length_b 16.174299
_cell_length_c 8.821597
_cell_angle_alpha 90.000000
_cell_angle_beta 90.000000
_cell_angle_gamma 90.000000
_cell_volume 3162.514321
_symmetry_space_group_name_H-M "C 2 2 2"
_symmetry_group_IT_number 21
_symmetry_cell_setting 'orthorhombic'
loop_
_space_group_symop_operation_xyz
x,y,z
-x,-y,z
x,-y,-z
-x,y,-z
1/2+x,1/2+y,z
1/2-x,1/2-y,z
1/2+x,1/2-y,-z
1/2-x,1/2+y,-z
loop_
_atom_site_type_symbol
_atom_site_label
_atom_site_fract_x
_atom_site_fract_y
_atom_site_fract_z
Si Si1 0.158284 0.658514 0.603146
Si Si2 0.721268 0.442955 0.638393
Si Si3 0.929818 0.487440 0.681827
Si Si4 0.375577 0.321643 0.875449
Si Si5 0.505042 0.405064 0.184965
Si Si6 0.357344 0.856507 0.238590
Si Si7 0.743489 0.570770 0.873465
Si Si8 0.381417 0.671826 0.761332
O O1 0.227427 0.627592 0.623999
O O2 0.110487 0.596499 0.688035
O O3 0.153012 0.654757 0.419888
O O4 0.142128 0.748613 0.669170
O O5 0.699800 0.500000 0.500000
O O6 0.756063 0.513634 0.730109
O O7 0.663679 0.402971 0.719029
O O8 0.928985 0.500000 0.500000
O O9 0.896515 0.560928 0.769305
O O10 0.000000 0.500000 0.726039
O O11 0.428001 0.372604 0.793044
O O12 0.383651 0.229836 0.814266
O O13 0.313667 0.370881 0.847244
O O14 0.378397 0.316346 0.057710
O O15 0.500000 0.500000 0.230254
O O16 0.451381 0.353269 0.262169
O O17 0.500000 0.401206 0.000000
O O18 0.301011 0.870407 0.124778
O O19 0.734123 0.500000 0.000000
#
# Coordination Sequence:
#
# PCOD9325450 Si02
#       8
#     8   8   8   8   8   8   8   8
#     4  11  23  42  64  95 132 173 216 271 336 398
#     4  12  23  42  68  95 130 173 221 269 336 401
#     4   9  19  39  65  88 122 172 215 261 324 397
#     4  11  25  40  66  97 131 171 222 274 332 396
#     4   9  20  43  68  90 127 176 223 271 332 394
#     4  11  24  41  64  98 133 167 217 276 334 394
#     4  12  24  41  68  95 128 171 222 271 332 400
#     4  11  25  41  66  97 131 173 220 273 330 403
#
# _framework density 20.237062000000002
#
# number of rings (size 3 to 8) (size 9 to 14) (size 15 to 20)
#    0.000    1.250    3.750    1.875    7.000    2.000 
#    0.000    0.000    0.000    0.750    0.000    0.000 
#    0.000    0.000    0.000    0.000    0.000    0.000 
#
# Total GULP energy -178218.164035 kJ/mol
# GULP energy per Si atom -5569.317626 kJ/mol
# Density = 2.019100 g / cm^3
# Si number density = 20.237062 Si / 1000 Ang^3
#
#
#
# Elastic Constant Matrix: (Units=GPa)
#
#
# Indices 1 2 3 4 5 6 
#
# 1 124.2626 33.6637 6.9223 0.0000 0.0000 0.0000
# 2 33.6637 101.9928 12.0587 0.0000 0.0000 0.0000
# 3 6.9223 12.0587 24.2962 0.0000 0.0000 0.0000
# 4 0.0000 0.0000 0.0000 42.2971 0.0000 0.0000
# 5 0.0000 0.0000 0.0000 0.0000 18.6014 0.0000
# 6 0.0000 0.0000 0.0000 0.0000 0.0000 -32.6389
#
#
#
# Elastic Compliance Matrix: (Units=1/GPa)
#
#
# Indices 1 2 3 4 5 6 
#
# 1 0.008867 -0.002792 -0.001141 0.000000 0.000000 0.000000
# 2 -0.002792 0.011295 -0.004810 0.000000 0.000000 0.000000
# 3 -0.001141 -0.004810 0.043871 0.000000 0.000000 0.000000
# 4 0.000000 0.000000 0.000000 0.023642 0.000000 0.000000
# 5 0.000000 0.000000 0.000000 0.000000 0.053759 0.000000
# 6 0.000000 0.000000 0.000000 0.000000 0.000000 -0.030638
#
#
# Mechanical properties :
#
#
# Convention : Reuss Voigt Hill
#
# Bulk Modulus (GPa) = 21.48351 39.53789 30.51070
# Shear Modulus (GPa) = 34.77081 18.84573 26.80827
#
# Velocity S-wave (km/s) = 4.14958 3.05495 3.64361
# Velocity P-wave (km/s) = 5.79635 5.65892 5.72805
#
# Compressibility (1/GPa) = 0.04654733
#
# Stress axis : x y z
#
# Youngs Moduli (GPa) = 112.77313 88.53599 22.79397
#
# Poissons Ratio (x) = 0.24718 0.02600
# Poissons Ratio (y) = 0.31485 0.10965
# Poissons Ratio (z) = 0.12865 0.42590
#
# Static dielectric constant tensor:
#      x y z
#    x 1.678350 0.000000 0.000000 
#    y 0.000000 1.678070 0.000000 
#    z 0.000000 0.000000 6.920520 
# 
# From -- ./inp_files/18649.got.cif
#   From: 2010.05.17/outbox.cif.g08.bks.cpg/sg21_10_cif.got.tgz:18649.got - 2010.06.03 23:14:55.
