data_PCOD9325761
_publ_section_title
;
Structure prediction by ZEFSAII (Michael W. Deem and Ramdas Pophale) SiO2 
 PCOD9325761
Probable space group: C 2 2 2
;
_chemical_formula_sum "Si O2"
_cell_formula_units_Z 26
_cell_length_a 7.305205
_cell_length_b 30.999273
_cell_length_c 5.054182
_cell_angle_alpha 90.000000
_cell_angle_beta 90.000000
_cell_angle_gamma 90.000000
_cell_volume 1144.550062
_symmetry_space_group_name_H-M "C 2 2 2"
_symmetry_group_IT_number 21
_symmetry_cell_setting 'orthorhombic'
loop_
_space_group_symop_operation_xyz
x,y,z
-x,-y,z
x,-y,-z
-x,y,-z
1/2+x,1/2+y,z
1/2-x,1/2-y,z
1/2+x,1/2-y,-z
1/2-x,1/2+y,-z
loop_
_atom_site_type_symbol
_atom_site_label
_atom_site_fract_x
_atom_site_fract_y
_atom_site_fract_z
Si Si1 0.619378 0.711063 0.753205
Si Si2 0.709739 0.120686 0.085702
Si Si3 0.199145 0.065512 0.401930
Si Si4 0.500000 0.000000 0.500000
O O1 0.500000 0.698530 0.500000
O O2 0.750000 0.750000 0.669852
O O3 0.720328 0.668546 0.856932
O O4 0.500000 0.727366 0.000000
O O5 0.816977 0.096880 0.848771
O O6 0.644993 0.029797 0.658619
O O7 0.500000 0.122555 0.000000
O O8 0.727197 0.092915 0.350911
O O9 0.000000 0.049345 0.500000
#
# Coordination Sequence:
#
# PCOD9325761 Si02
#       4
#     8   8   8   2
#     4  12  26  45  71 106 145 192 246 302 368 438
#     4  12  24  47  72 105 145 191 243 303 368 435
#     4  12  26  46  74 105 145 195 243 306 367 435
#     4  12  26  50  72 112 148 190 262 298 380 428
#
# _framework density 22.716349000000001
#
# number of rings (size 3 to 8) (size 9 to 14) (size 15 to 20)
#    0.000    0.000    3.077    7.846    0.000    4.923 
#    0.000    3.077    0.000    0.000    0.000    0.000 
#    0.000    0.000    0.000    0.000    0.000    0.000 
#
# Total GULP energy -72834.591159 kJ/mol
# GULP energy per Si atom -5602.660858 kJ/mol
# Density = 2.266465 g / cm^3
# Si number density = 22.716349 Si / 1000 Ang^3
#
#
#
# Elastic Constant Matrix: (Units=GPa)
#
#
# Indices 1 2 3 4 5 6 
#
# 1 151.7340 63.6534 35.7278 0.0000 0.0000 0.0000
# 2 63.6534 140.8686 39.9379 0.0000 0.0000 0.0000
# 3 35.7278 39.9379 142.7065 0.0000 0.0000 0.0000
# 4 0.0000 0.0000 0.0000 47.7515 0.0000 0.0000
# 5 0.0000 0.0000 0.0000 0.0000 38.2917 0.0000
# 6 0.0000 0.0000 0.0000 0.0000 0.0000 1.7864
#
#
#
# Elastic Compliance Matrix: (Units=1/GPa)
#
#
# Indices 1 2 3 4 5 6 
#
# 1 0.008292 -0.003431 -0.001116 0.000000 0.000000 0.000000
# 2 -0.003431 0.009130 -0.001696 0.000000 0.000000 0.000000
# 3 -0.001116 -0.001696 0.007761 0.000000 0.000000 0.000000
# 4 0.000000 0.000000 0.000000 0.020942 0.000000 0.000000
# 5 0.000000 0.000000 0.000000 0.000000 0.026115 0.000000
# 6 0.000000 0.000000 0.000000 0.000000 0.000000 0.559799
#
#
# Mechanical properties :
#
#
# Convention : Reuss Voigt Hill
#
# Bulk Modulus (GPa) = 78.75167 79.32747 79.03957
# Shear Modulus (GPa) = 7.70703 37.29858 22.50281
#
# Velocity S-wave (km/s) = 1.84393 4.05647 3.15079
# Velocity P-wave (km/s) = 6.26707 7.54563 6.93587
#
# Compressibility (1/GPa) = 0.01269814
#
# Stress axis : x y z
#
# Youngs Moduli (GPa) = 120.59182 109.53030 128.84140
#
# Poissons Ratio (x) = 0.37576 0.14378
# Poissons Ratio (y) = 0.41371 0.21854
# Poissons Ratio (z) = 0.13458 0.18579
#
# Static dielectric constant tensor:
#      x y z
#    x 1.831230 0.000000 0.000000 
#    y 0.000000 1.823180 0.000000 
#    z 0.000000 0.000000 1.915070 
# 
# From -- ./inp_files/1311.got.cif
#   From: 2010.05.17/outbox.cif.g08.bks.cpg/sg21_1_cif.got.tgz:1311.got - 2010.06.03 23:14:55.
