data_PCOD9325113
_publ_section_title
;
Structure prediction by ZEFSAII (Michael W. Deem and Ramdas Pophale) SiO2 
 PCOD9325113
Probable space group: C 2 2 2
;
_chemical_formula_sum "Si O2"
_cell_formula_units_Z 16
_cell_length_a 20.220670
_cell_length_b 5.352849
_cell_length_c 5.661630
_cell_angle_alpha 90.000000
_cell_angle_beta 90.000000
_cell_angle_gamma 90.000000
_cell_volume 612.804602
_symmetry_space_group_name_H-M "C 2 2 2"
_symmetry_group_IT_number 21
_symmetry_cell_setting 'orthorhombic'
loop_
_space_group_symop_operation_xyz
x,y,z
-x,-y,z
x,-y,-z
-x,y,-z
1/2+x,1/2+y,z
1/2-x,1/2-y,z
1/2+x,1/2-y,-z
1/2-x,1/2+y,-z
loop_
_atom_site_type_symbol
_atom_site_label
_atom_site_fract_x
_atom_site_fract_y
_atom_site_fract_z
Si Si1 0.574529 0.749559 0.395483
Si Si2 0.750000 0.750000 0.664252
Si Si3 0.641172 0.500000 0.000000
O O1 0.605412 0.500000 0.500000
O O2 0.500000 0.748768 0.500000
O O3 0.590914 0.698862 0.124621
O O4 0.603117 0.000000 0.500000
O O5 0.759420 0.500000 0.500000
O O6 0.690660 0.667003 0.840863
#
# Coordination Sequence:
#
# PCOD9325113 Si02
#       3
#     8   4   4
#     4  10  25  49  77 116 159 203 265 327 392 481
#     4  12  30  52  76 118 162 210 274 326 388 484
#     4  12  28  51  84 116 162 217 258 332 412 462
#
# _framework density 26.109466999999999
#
# number of rings (size 3 to 8) (size 9 to 14) (size 15 to 20)
#    0.000    1.000    0.000    3.000    0.000   26.000 
#    0.000   20.000    0.000    0.000    0.000    0.000 
#    0.000    0.000    0.000    0.000    0.000    0.000 
#
# Total GULP energy -44596.067728 kJ/mol
# GULP energy per Si atom -5574.508466 kJ/mol
# Density = 2.605004 g / cm^3
# Si number density = 26.109467 Si / 1000 Ang^3
#
#
#
# Elastic Constant Matrix: (Units=GPa)
#
#
# Indices 1 2 3 4 5 6 
#
# 1 211.1944 41.1512 104.3590 0.0000 0.0000 0.0000
# 2 41.1512 283.2496 91.6851 0.0000 0.0000 0.0000
# 3 104.3590 91.6851 142.4880 0.0000 0.0000 0.0000
# 4 0.0000 0.0000 0.0000 24.1646 0.0000 0.0000
# 5 0.0000 0.0000 0.0000 0.0000 36.8683 0.0000
# 6 0.0000 0.0000 0.0000 0.0000 0.0000 17.2253
#
#
#
# Elastic Compliance Matrix: (Units=1/GPa)
#
#
# Indices 1 2 3 4 5 6 
#
# 1 0.007590 0.000880 -0.006125 0.000000 0.000000 0.000000
# 2 0.000880 0.004561 -0.003579 0.000000 0.000000 0.000000
# 3 -0.006125 -0.003579 0.013808 0.000000 0.000000 0.000000
# 4 0.000000 0.000000 0.000000 0.041383 0.000000 0.000000
# 5 0.000000 0.000000 0.000000 0.000000 0.027124 0.000000
# 6 0.000000 0.000000 0.000000 0.000000 0.000000 0.058054
#
#
# Mechanical properties :
#
#
# Convention : Reuss Voigt Hill
#
# Bulk Modulus (GPa) = 120.34551 123.48027 121.91289
# Shear Modulus (GPa) = 28.91183 42.30075 35.60629
#
# Velocity S-wave (km/s) = 3.33127 4.02945 3.69688
# Velocity P-wave (km/s) = 7.80956 8.30931 8.06331
#
# Compressibility (1/GPa) = 0.00830941
#
# Stress axis : x y z
#
# Youngs Moduli (GPa) = 131.74698 219.23806 72.42346
#
# Poissons Ratio (x) = -0.19293 0.44362
# Poissons Ratio (y) = -0.11594 0.25924
# Poissons Ratio (z) = 0.80701 0.78476
#
# Static dielectric constant tensor:
#      x y z
#    x 3.860090 0.000000 0.000000 
#    y 0.000000 2.127960 0.000000 
#    z 0.000000 0.000000 2.984880 
# 
# From -- ./inp_files/366.got.cif
#   From: 2010.05.17/outbox.cif.g08.bks.cpg/sg21_1_cif.got.tgz:366.got - 2010.06.03 23:14:55.
