data_PCOD9325101
_publ_section_title
;
Structure prediction by ZEFSAII (Michael W. Deem and Ramdas Pophale) SiO2 
 PCOD9325101
Probable space group: C 2 2 2
;
_chemical_formula_sum "Si O2"
_cell_formula_units_Z 28
_cell_length_a 7.848468
_cell_length_b 5.462611
_cell_length_c 26.446540
_cell_angle_alpha 90.000000
_cell_angle_beta 90.000000
_cell_angle_gamma 90.000000
_cell_volume 1133.845885
_symmetry_space_group_name_H-M "C 2 2 2"
_symmetry_group_IT_number 21
_symmetry_cell_setting 'orthorhombic'
loop_
_space_group_symop_operation_xyz
x,y,z
-x,-y,z
x,-y,-z
-x,y,-z
1/2+x,1/2+y,z
1/2-x,1/2-y,z
1/2+x,1/2-y,-z
1/2-x,1/2+y,-z
loop_
_atom_site_type_symbol
_atom_site_label
_atom_site_fract_x
_atom_site_fract_y
_atom_site_fract_z
Si Si1 0.000000 0.500000 0.848760
Si Si2 0.250000 0.750000 0.077248
Si Si3 0.500000 0.000000 0.500000
Si Si4 0.250000 0.750000 0.576451
Si Si5 0.000000 0.500000 0.289542
Si Si6 0.000000 0.000000 0.000000
Si Si7 0.750000 0.750000 0.219720
Si Si8 0.500000 0.500000 0.352964
O O1 0.155346 0.430348 0.884693
O O2 0.080870 0.727276 0.816310
O O3 0.388316 0.652273 0.038599
O O4 0.608049 0.158631 0.538458
O O5 0.334786 0.545485 0.612027
O O6 0.177038 0.460970 0.257315
O O7 0.985235 0.249365 0.320845
#
# Coordination Sequence:
#
# PCOD9325101 Si02
#       8
#     4   4   2   4   4   2   4   4
#     4  11  24  45  69 101 140 189 241 303 368 445
#     4  12  24  43  68 100 140 184 240 299 370 438
#     4  12  26  48  74 110 148 196 246 306 370 448
#     4  12  27  48  78 112 152 198 250 308 375 446
#     4  11  27  48  78 112 152 198 254 312 377 447
#     4  12  24  40  66 100 136 184 234 300 368 444
#     4  10  25  47  74 106 146 194 248 307 373 442
#     4  12  28  51  79 114 152 200 251 313 376 448
#
# _framework density 24.694716
#
# number of rings (size 3 to 8) (size 9 to 14) (size 15 to 20)
#    0.000    0.571    0.000    6.857    0.000   13.714 
#    0.000    0.000    0.000    0.000    0.000    0.000 
#    0.000    0.000    0.000    0.000    0.000    0.000 
#
# Total GULP energy -78159.819208 kJ/mol
# GULP energy per Si atom -5582.844229 kJ/mol
# Density = 2.463851 g / cm^3
# Si number density = 24.694716 Si / 1000 Ang^3
#
#
#
# Elastic Constant Matrix: (Units=GPa)
#
#
# Indices 1 2 3 4 5 6 
#
# 1 131.6496 69.8043 67.7483 0.0000 0.0000 0.0000
# 2 69.8043 141.7580 90.4199 0.0000 0.0000 0.0000
# 3 67.7483 90.4199 158.7424 0.0000 0.0000 0.0000
# 4 0.0000 0.0000 0.0000 -16.4069 0.0000 0.0000
# 5 0.0000 0.0000 0.0000 0.0000 -82.6829 0.0000
# 6 0.0000 0.0000 0.0000 0.0000 0.0000 61.3368
#
#
#
# Elastic Compliance Matrix: (Units=1/GPa)
#
#
# Indices 1 2 3 4 5 6 
#
# 1 0.010877 -0.003762 -0.002499 0.000000 0.000000 0.000000
# 2 -0.003762 0.012381 -0.005447 0.000000 0.000000 0.000000
# 3 -0.002499 -0.005447 0.010469 0.000000 0.000000 0.000000
# 4 0.000000 0.000000 0.000000 -0.060950 0.000000 0.000000
# 5 0.000000 0.000000 0.000000 0.000000 -0.012094 0.000000
# 6 0.000000 0.000000 0.000000 0.000000 0.000000 0.016303
#
#
# Mechanical properties :
#
#
# Convention : Reuss Voigt Hill
#
# Bulk Modulus (GPa) = 96.98682 98.67723 97.83202
# Shear Modulus (GPa) = 1302.97129 6.06122 654.51626
#
# Velocity S-wave (km/s) = 22.99515 1.56837 16.29780
# Velocity P-wave (km/s) = 27.28362 6.58220 19.84592
#
# Compressibility (1/GPa) = 0.01031068
#
# Stress axis : x y z
#
# Youngs Moduli (GPa) = 91.94015 80.77061 95.52389
#
# Poissons Ratio (x) = 0.30384 0.23874
# Poissons Ratio (y) = 0.34585 0.52029
# Poissons Ratio (z) = 0.22978 0.43993
#
# Static dielectric constant tensor:
#      x y z
#    x 1.927360 0.000000 0.000000 
#    y 0.000000 1.932030 0.000000 
#    z 0.000000 0.000000 2.023820 
# 
# From -- ./inp_files/38948.got.cif
#   From: 2010.05.17/outbox.cif.g08.bks.cpg/sg21_20_cif.got.tgz:38948.got - 2010.06.03 23:14:55.
