data_PCOD9325891
_publ_section_title
;
Structure prediction by ZEFSAII (Michael W. Deem and Ramdas Pophale) SiO2 
 PCOD9325891
Probable space group: F 2 2 2
;
_chemical_formula_sum "Si O2"
_cell_formula_units_Z 92
_cell_length_a 13.210114
_cell_length_b 20.913716
_cell_length_c 13.921406
_cell_angle_alpha 90.000000
_cell_angle_beta 90.000000
_cell_angle_gamma 90.000000
_cell_volume 3846.102649
_symmetry_space_group_name_H-M "F 2 2 2"
_symmetry_group_IT_number 22
_symmetry_cell_setting 'orthorhombic'
loop_
_space_group_symop_operation_xyz
x,y,z
-x,-y,z
x,-y,-z
-x,y,-z
x,1/2+y,1/2+z
-x,1/2-y,1/2+z
x,1/2-y,1/2-z
-x,1/2+y,1/2-z
1/2+x,y,1/2+z
1/2-x,-y,1/2+z
1/2+x,-y,1/2-z
1/2-x,y,1/2-z
1/2+x,1/2+y,z
1/2-x,1/2-y,z
1/2+x,1/2-y,-z
1/2-x,1/2+y,-z
loop_
_atom_site_type_symbol
_atom_site_label
_atom_site_fract_x
_atom_site_fract_y
_atom_site_fract_z
Si Si1 0.926121 0.416682 0.657868
Si Si2 0.641946 0.216301 0.607077
Si Si3 0.353980 0.398164 0.620583
Si Si4 0.418335 0.253491 0.608593
Si Si5 0.500000 0.500000 0.000000
Si Si6 0.646483 0.128919 0.342005
Si Si7 0.500000 0.500000 0.334734
O O1 0.853873 0.355705 0.648828
O O2 0.919918 0.468694 0.575225
O O3 0.034489 0.386821 0.625137
O O4 0.938956 0.451843 0.760989
O O5 0.750000 0.250000 0.624636
O O6 0.535737 0.248147 0.642019
O O7 0.615041 0.221518 0.493620
O O8 0.396095 0.328106 0.596938
O O9 0.349812 0.400921 0.736595
O O10 0.236613 0.396657 0.592640
O O11 0.426273 0.456964 0.600338
O O12 0.352708 0.205193 0.673199
#
# Coordination Sequence:
#
# PCOD9325891 Si02
#       7
#    16  16  16  16   4  16   8
#     4   9  18  33  52  78 107 138 181 221 265 320
#     4  10  20  35  54  77 106 139 175 225 280 320
#     4  10  18  31  51  77 107 140 177 218 272 321
#     4  10  19  31  53  80 106 133 176 233 272 314
#     4  10  16  28  52  76 104 140 172 220 260 298
#     4   9  17  30  52  77 101 135 181 230 270 304
#     4   9  20  35  52  75 114 151 176 214 260 327
#
# _framework density 23.920318999999999
#
# number of rings (size 3 to 8) (size 9 to 14) (size 15 to 20)
#    0.000    2.435    0.000    4.174    0.000    1.391 
#    0.000    8.696    0.000   19.826    0.000    0.000 
#    0.000    0.000    0.000    0.000    0.000    0.000 
#
# Total GULP energy -128057.309114 kJ/mol
# GULP energy per Si atom -5567.709092 kJ/mol
# Density = 2.386587 g / cm^3
# Si number density = 23.920319 Si / 1000 Ang^3
#
#
#
# Elastic Constant Matrix: (Units=GPa)
#
#
# Indices 1 2 3 4 5 6 
#
# 1 123.3189 61.9538 2.7575 0.0000 0.0000 0.0000
# 2 61.9538 141.3042 2.5124 0.0000 0.0000 0.0000
# 3 2.7575 2.5124 25.5497 0.0000 0.0000 0.0000
# 4 0.0000 0.0000 0.0000 24.7505 0.0000 0.0000
# 5 0.0000 0.0000 0.0000 0.0000 12.0356 0.0000
# 6 0.0000 0.0000 0.0000 0.0000 0.0000 38.8815
#
#
#
# Elastic Compliance Matrix: (Units=1/GPa)
#
#
# Indices 1 2 3 4 5 6 
#
# 1 0.010411 -0.004553 -0.000676 0.000000 0.000000 0.000000
# 2 -0.004553 0.009080 -0.000402 0.000000 0.000000 0.000000
# 3 -0.000676 -0.000402 0.039252 0.000000 0.000000 0.000000
# 4 0.000000 0.000000 0.000000 0.040403 0.000000 0.000000
# 5 0.000000 0.000000 0.000000 0.000000 0.083087 0.000000
# 6 0.000000 0.000000 0.000000 0.000000 0.000000 0.025719
#
#
# Mechanical properties :
#
#
# Convention : Reuss Voigt Hill
#
# Bulk Modulus (GPa) = 21.06024 47.18003 34.12014
# Shear Modulus (GPa) = 21.27289 29.99679 25.63484
#
# Velocity S-wave (km/s) = 2.98539 3.54507 3.27720
# Velocity P-wave (km/s) = 4.55048 6.04345 5.34931
#
# Compressibility (1/GPa) = 0.04748284
#
# Stress axis : x y z
#
# Youngs Moduli (GPa) = 96.04818 110.12958 25.47653
#
# Poissons Ratio (x) = 0.50140 0.01722
# Poissons Ratio (y) = 0.43729 0.01023
# Poissons Ratio (z) = 0.06493 0.04422
#
# Static dielectric constant tensor:
#      x y z
#    x 1.345220 0.000000 0.000000 
#    y 0.000000 2.144550 0.000000 
#    z 0.000000 0.000000 2.102050 
# 
# From -- ./inp_files/29433.got.cif
#   From: 2010.05.17/outbox.cif.g08.bks.cpg/sg22_15_cif.got.tgz:29433.got - 2010.06.03 23:40:54.
