data_PCOD9325401
_publ_section_title
;
Structure prediction by ZEFSAII (Michael W. Deem and Ramdas Pophale) SiO2 
 PCOD9325401
Probable space group: C 2 2 2
;
_chemical_formula_sum "Si O2"
_cell_formula_units_Z 28
_cell_length_a 11.050469
_cell_length_b 14.075539
_cell_length_c 7.696894
_cell_angle_alpha 90.000000
_cell_angle_beta 90.000000
_cell_angle_gamma 90.000000
_cell_volume 1197.184956
_symmetry_space_group_name_H-M "C 2 2 2"
_symmetry_group_IT_number 21
_symmetry_cell_setting 'orthorhombic'
loop_
_space_group_symop_operation_xyz
x,y,z
-x,-y,z
x,-y,-z
-x,y,-z
1/2+x,1/2+y,z
1/2-x,1/2-y,z
1/2+x,1/2-y,-z
1/2-x,1/2+y,-z
loop_
_atom_site_type_symbol
_atom_site_label
_atom_site_fract_x
_atom_site_fract_y
_atom_site_fract_z
Si Si1 0.558403 0.601361 0.814039
Si Si2 0.546810 0.895464 0.267861
Si Si3 0.807520 0.645974 0.940740
Si Si4 0.000000 0.241942 0.500000
O O1 0.500000 0.500000 0.773558
O O2 0.700393 0.590335 0.847709
O O3 0.538209 0.673262 0.656092
O O4 0.500000 0.633427 0.000000
O O5 0.427064 0.850672 0.177300
O O6 0.589658 0.821010 0.414247
O O7 0.500000 0.000000 0.317263
O O8 0.648060 0.899559 0.120045
O O9 0.750000 0.750000 0.970736
#
# Coordination Sequence:
#
# PCOD9325401 Si02
#       4
#     8   8   8   4
#     4  11  26  47  79 112 152 194 255 321 385 452
#     4  11  26  46  76 110 155 201 257 310 380 459
#     4  11  22  48  74 111 150 198 252 312 380 456
#     4  12  24  52  72 114 156 198 262 308 384 462
#
# _framework density 23.388200000000001
#
# number of rings (size 3 to 8) (size 9 to 14) (size 15 to 20)
#    0.000    0.857    2.857    4.286    8.000    0.000 
#   15.429    2.857    0.000    0.000    0.000    0.000 
#    0.000    0.000    0.000    0.000    0.000    0.000 
#
# Total GULP energy -78237.898171 kJ/mol
# GULP energy per Si atom -5588.421298 kJ/mol
# Density = 2.333497 g / cm^3
# Si number density = 23.388200 Si / 1000 Ang^3
#
#
#
# Elastic Constant Matrix: (Units=GPa)
#
#
# Indices 1 2 3 4 5 6 
#
# 1 91.7758 65.9137 25.4244 0.0000 0.0000 0.0000
# 2 65.9137 206.2366 102.8987 0.0000 0.0000 0.0000
# 3 25.4244 102.8987 169.0325 0.0000 0.0000 0.0000
# 4 0.0000 0.0000 0.0000 36.1236 0.0000 0.0000
# 5 0.0000 0.0000 0.0000 0.0000 4.7795 0.0000
# 6 0.0000 0.0000 0.0000 0.0000 0.0000 37.1880
#
#
#
# Elastic Compliance Matrix: (Units=1/GPa)
#
#
# Indices 1 2 3 4 5 6 
#
# 1 0.014238 -0.005001 0.000903 0.000000 0.000000 0.000000
# 2 -0.005001 0.008720 -0.004556 0.000000 0.000000 0.000000
# 3 0.000903 -0.004556 0.008554 0.000000 0.000000 0.000000
# 4 0.000000 0.000000 0.000000 0.027683 0.000000 0.000000
# 5 0.000000 0.000000 0.000000 0.000000 0.209226 0.000000
# 6 0.000000 0.000000 0.000000 0.000000 0.000000 0.026890
#
#
# Mechanical properties :
#
#
# Convention : Reuss Voigt Hill
#
# Bulk Modulus (GPa) = 70.40713 95.05762 82.73238
# Shear Modulus (GPa) = 15.75526 33.80543 24.78034
#
# Velocity S-wave (km/s) = 2.59828 3.80597 3.25856
# Velocity P-wave (km/s) = 6.25863 7.74891 7.04329
#
# Compressibility (1/GPa) = 0.01420311
#
# Stress axis : x y z
#
# Youngs Moduli (GPa) = 70.23644 114.67363 116.90515
#
# Poissons Ratio (x) = 0.57346 -0.10553
# Poissons Ratio (y) = 0.35124 0.53266
# Poissons Ratio (z) = -0.06340 0.52250
#
# Static dielectric constant tensor:
#      x y z
#    x 1.851150 0.000000 0.000000 
#    y 0.000000 1.942840 0.000000 
#    z 0.000000 0.000000 1.970890 
# 
# From -- ./inp_files/12015.got.cif
#   From: 2010.05.17/outbox.cif.g08.bks.cpg/sg21_7_cif.got.tgz:12015.got - 2010.06.03 23:14:55.
