data_PCOD9325861
_publ_section_title
;
Structure prediction by ZEFSAII (Michael W. Deem and Ramdas Pophale) SiO2 
 PCOD9325861
Probable space group: F 2 2 2
;
_chemical_formula_sum "Si O2"
_cell_formula_units_Z 72
_cell_length_a 13.742277
_cell_length_b 12.578998
_cell_length_c 17.890254
_cell_angle_alpha 90.000000
_cell_angle_beta 90.000000
_cell_angle_gamma 90.000000
_cell_volume 3092.582207
_symmetry_space_group_name_H-M "F 2 2 2"
_symmetry_group_IT_number 22
_symmetry_cell_setting 'orthorhombic'
loop_
_space_group_symop_operation_xyz
x,y,z
-x,-y,z
x,-y,-z
-x,y,-z
x,1/2+y,1/2+z
-x,1/2-y,1/2+z
x,1/2-y,1/2-z
-x,1/2+y,1/2-z
1/2+x,y,1/2+z
1/2-x,-y,1/2+z
1/2+x,-y,1/2-z
1/2-x,y,1/2-z
1/2+x,1/2+y,z
1/2-x,1/2-y,z
1/2+x,1/2-y,-z
1/2-x,1/2+y,-z
loop_
_atom_site_type_symbol
_atom_site_label
_atom_site_fract_x
_atom_site_fract_y
_atom_site_fract_z
Si Si1 0.250000 0.750000 0.517493
Si Si2 0.627727 0.643028 0.614946
Si Si3 0.250000 0.750000 0.750000
Si Si4 0.457324 0.706843 0.918307
Si Si5 0.840510 0.953697 0.295888
Si Si6 0.750000 0.250000 0.250000
Si Si7 0.000000 0.000000 0.175073
O O1 0.308851 0.673813 0.458478
O O2 0.339924 0.795205 0.567797
O O3 0.517444 0.688874 0.610320
O O4 0.635453 0.517079 0.629776
O O5 0.677420 0.693409 0.689527
O O6 0.183912 0.829039 0.701326
O O7 0.499933 0.606321 0.873593
O O8 0.500000 0.692956 0.000000
O O9 0.750000 0.000519 0.250000
O O10 0.917769 0.973812 0.233323
#
# Coordination Sequence:
#
# PCOD9325861 Si02
#       7
#     8  16   4  16  16   4   8
#     4   9  22  42  72 109 154 200 248 306 356 435
#     4  10  19  37  73 103 144 185 249 306 367 443
#     4   8  22  42  66 100 146 174 242 294 392 452
#     4  10  23  41  67 111 146 200 255 302 364 441
#     4  10  23  43  68 107 143 186 240 308 389 438
#     4  10  14  28  62 102 132 182 222 300 360 414
#     4  12  25  42  68 104 153 192 242 312 370 452
#
# _framework density 23.281517000000001
#
# number of rings (size 3 to 8) (size 9 to 14) (size 15 to 20)
#    0.667    1.333    1.111    1.667    6.222    2.667 
#    4.000    0.000    0.000    0.000    0.000   15.556 
#    0.000    0.000    0.000    0.000    0.000    0.000 
#
# Total GULP energy -100236.562322 kJ/mol
# GULP energy per Si atom -5568.697907 kJ/mol
# Density = 2.322853 g / cm^3
# Si number density = 23.281517 Si / 1000 Ang^3
#
#
#
# Elastic Constant Matrix: (Units=GPa)
#
#
# Indices 1 2 3 4 5 6 
#
# 1 101.4058 70.8578 27.5928 0.0000 0.0000 0.0000
# 2 70.8578 157.1193 55.7802 0.0000 0.0000 0.0000
# 3 27.5928 55.7802 91.2832 0.0000 0.0000 0.0000
# 4 0.0000 0.0000 0.0000 26.7530 0.0000 0.0000
# 5 0.0000 0.0000 0.0000 0.0000 3.6137 0.0000
# 6 0.0000 0.0000 0.0000 0.0000 0.0000 40.0258
#
#
#
# Elastic Compliance Matrix: (Units=1/GPa)
#
#
# Indices 1 2 3 4 5 6 
#
# 1 0.014416 -0.006327 -0.000491 0.000000 0.000000 0.000000
# 2 -0.006327 0.010905 -0.004751 0.000000 0.000000 0.000000
# 3 -0.000491 -0.004751 0.014007 0.000000 0.000000 0.000000
# 4 0.000000 0.000000 0.000000 0.037379 0.000000 0.000000
# 5 0.000000 0.000000 0.000000 0.000000 0.276725 0.000000
# 6 0.000000 0.000000 0.000000 0.000000 0.000000 0.024984
#
#
# Mechanical properties :
#
#
# Convention : Reuss Voigt Hill
#
# Bulk Modulus (GPa) = 61.77182 73.14111 67.45647
# Shear Modulus (GPa) = 12.28652 27.11700 19.70176
#
# Velocity S-wave (km/s) = 2.29975 3.41654 2.91218
# Velocity P-wave (km/s) = 5.80017 6.85914 6.35176
#
# Compressibility (1/GPa) = 0.01618861
#
# Stress axis : x y z
#
# Youngs Moduli (GPa) = 69.36716 91.70459 71.39470
#
# Poissons Ratio (x) = 0.58020 0.03509
# Poissons Ratio (y) = 0.43888 0.33919
# Poissons Ratio (z) = 0.03409 0.43569
#
# Static dielectric constant tensor:
#      x y z
#    x 1.846580 0.000000 0.000000 
#    y 0.000000 1.796550 0.000000 
#    z 0.000000 0.000000 1.789490 
# 
# From -- ./inp_files/37005.got.cif
#   From: 2010.05.17/outbox.cif.g08.bks.cpg/sg22_19_cif.got.tgz:37005.got - 2010.06.03 23:40:54.
