data_PCOD9325205
_publ_section_title
;
Structure prediction by ZEFSAII (Michael W. Deem and Ramdas Pophale) SiO2 
 PCOD9325205
Probable space group: C 2 2 2
;
_chemical_formula_sum "Si O2"
_cell_formula_units_Z 64
_cell_length_a 15.277206
_cell_length_b 9.035915
_cell_length_c 23.940787
_cell_angle_alpha 90.000000
_cell_angle_beta 90.000000
_cell_angle_gamma 90.000000
_cell_volume 3304.870865
_symmetry_space_group_name_H-M "C 2 2 2"
_symmetry_group_IT_number 21
_symmetry_cell_setting 'orthorhombic'
loop_
_space_group_symop_operation_xyz
x,y,z
-x,-y,z
x,-y,-z
-x,y,-z
1/2+x,1/2+y,z
1/2-x,1/2-y,z
1/2+x,1/2-y,-z
1/2-x,1/2+y,-z
loop_
_atom_site_type_symbol
_atom_site_label
_atom_site_fract_x
_atom_site_fract_y
_atom_site_fract_z
Si Si1 0.277905 0.908451 0.350301
Si Si2 0.652529 0.178594 0.005028
Si Si3 0.668340 0.358194 0.705479
Si Si4 0.472192 0.331823 0.390216
Si Si5 0.944883 0.347632 0.301678
Si Si6 0.532491 0.334322 0.796568
Si Si7 0.098372 0.436600 0.440488
Si Si8 0.004435 0.677996 0.913874
O O1 0.250000 0.750000 0.374312
O O2 0.344320 0.889852 0.298779
O O3 0.196456 0.986700 0.321003
O O4 0.330048 0.011167 0.394975
O O5 0.750000 0.250000 0.005024
O O6 0.586361 0.219279 0.954080
O O7 0.589940 0.218424 0.058267
O O8 0.662919 0.000000 0.000000
O O9 0.750000 0.250000 0.701577
O O10 0.593544 0.313970 0.661951
O O11 0.627129 0.348886 0.766761
O O12 0.500000 0.500000 0.402177
O O13 0.550640 0.240798 0.361041
O O14 0.422833 0.239296 0.438202
O O15 0.000000 0.500000 0.303587
O O16 0.974534 0.249642 0.249954
O O17 0.500000 0.500000 0.804491
O O18 0.523666 0.247644 0.854031
O O19 0.126575 0.500000 0.500000
O O20 0.000000 0.500000 0.430660
O O21 0.000000 0.500000 0.910254
#
# Coordination Sequence:
#
# PCOD9325205 Si02
#       8
#     8   8   8   8   8   8   8   8
#     4  12  21  38  62  87 116 156 201 247 306 377
#     4   9  19  38  65  90 120 169 226 265 328 393
#     4  11  22  37  60  90 121 156 199 249 317 382
#     4  11  20  39  65  85 115 155 201 247 305 382
#     4  11  19  38  63  82 114 164 204 240 301 383
#     4  11  23  38  56  90 126 161 209 260 308 371
#     4  11  23  43  65  86 118 157 207 252 304 383
#     4   9  20  40  61  87 125 172 217 269 321 393
#
# _framework density 19.365356999999999
#
# number of rings (size 3 to 8) (size 9 to 14) (size 15 to 20)
#    0.000    1.375    3.750    4.875    0.000    1.500 
#    2.250    6.875    0.000    0.000    0.000    0.000 
#    0.000    0.000    0.000    0.000    0.000    0.000 
#
# Total GULP energy -178234.404334 kJ/mol
# GULP energy per Si atom -5569.825135 kJ/mol
# Density = 1.932128 g / cm^3
# Si number density = 19.365357 Si / 1000 Ang^3
#
#
#
# Elastic Constant Matrix: (Units=GPa)
#
#
# Indices 1 2 3 4 5 6 
#
# 1 101.2865 20.5115 36.4197 0.0000 0.0000 0.0000
# 2 20.5115 91.2519 43.3675 0.0000 0.0000 0.0000
# 3 36.4197 43.3675 120.0669 0.0000 0.0000 0.0000
# 4 0.0000 0.0000 0.0000 38.2619 0.0000 0.0000
# 5 0.0000 0.0000 0.0000 0.0000 17.2105 0.0000
# 6 0.0000 0.0000 0.0000 0.0000 0.0000 31.3552
#
#
#
# Elastic Compliance Matrix: (Units=1/GPa)
#
#
# Indices 1 2 3 4 5 6 
#
# 1 0.011170 -0.001087 -0.002996 0.000000 0.000000 0.000000
# 2 -0.001087 0.013335 -0.004487 0.000000 0.000000 0.000000
# 3 -0.002996 -0.004487 0.010858 0.000000 0.000000 0.000000
# 4 0.000000 0.000000 0.000000 0.026136 0.000000 0.000000
# 5 0.000000 0.000000 0.000000 0.000000 0.058104 0.000000
# 6 0.000000 0.000000 0.000000 0.000000 0.000000 0.031893
#
#
# Mechanical properties :
#
#
# Convention : Reuss Voigt Hill
#
# Bulk Modulus (GPa) = 54.87166 57.02254 55.94710
# Shear Modulus (GPa) = 28.61880 31.51928 30.06904
#
# Velocity S-wave (km/s) = 3.84843 4.03874 3.94474
# Velocity P-wave (km/s) = 6.93857 7.15948 7.04989
#
# Compressibility (1/GPa) = 0.01822434
#
# Stress axis : x y z
#
# Youngs Moduli (GPa) = 89.52328 74.98805 92.09817
#
# Poissons Ratio (x) = 0.08153 0.27589
# Poissons Ratio (y) = 0.09733 0.41324
# Poissons Ratio (z) = 0.26817 0.33646
#
# Static dielectric constant tensor:
#      x y z
#    x 1.744720 0.000000 0.000000 
#    y 0.000000 1.741590 0.000000 
#    z 0.000000 0.000000 1.668470 
# 
# From -- ./inp_files/38751.got.cif
#   From: 2010.05.17/outbox.cif.g08.bks.cpg/sg21_20_cif.got.tgz:38751.got - 2010.06.03 23:14:55.
