data_PCOD9325459
_publ_section_title
;
Structure prediction by ZEFSAII (Michael W. Deem and Ramdas Pophale) SiO2 
 PCOD9325459
Probable space group: C 2 2 2
;
_chemical_formula_sum "Si O2"
_cell_formula_units_Z 28
_cell_length_a 7.060826
_cell_length_b 17.541470
_cell_length_c 10.594737
_cell_angle_alpha 90.000000
_cell_angle_beta 90.000000
_cell_angle_gamma 90.000000
_cell_volume 1312.235174
_symmetry_space_group_name_H-M "C 2 2 2"
_symmetry_group_IT_number 21
_symmetry_cell_setting 'orthorhombic'
loop_
_space_group_symop_operation_xyz
x,y,z
-x,-y,z
x,-y,-z
-x,y,-z
1/2+x,1/2+y,z
1/2-x,1/2-y,z
1/2+x,1/2-y,-z
1/2-x,1/2+y,-z
loop_
_atom_site_type_symbol
_atom_site_label
_atom_site_fract_x
_atom_site_fract_y
_atom_site_fract_z
Si Si1 0.500000 0.863107 0.000000
Si Si2 0.583723 0.310686 0.642841
Si Si3 0.216265 0.021442 0.361771
Si Si4 0.500000 0.000000 0.831352
Si Si5 0.750000 0.250000 0.171739
O O1 0.416589 0.927595 0.905445
O O2 0.643321 0.810512 0.920568
O O3 0.500000 0.312412 0.500000
O O4 0.750000 0.250000 0.654756
O O5 0.699696 0.389040 0.661935
O O6 0.411578 0.290057 0.739504
O O7 0.333591 0.974229 0.260564
O O8 0.288229 0.000000 0.500000
O O9 0.000000 0.000000 0.356590
#
# Coordination Sequence:
#
# PCOD9325459 Si02
#       5
#     4   8   8   4   4
#     4  11  28  48  72  99 144 202 240 299 350 448
#     4  12  25  44  75 113 149 191 241 314 384 437
#     4  11  23  42  71 105 139 186 239 306 367 426
#     4  11  25  48  68 102 141 193 248 292 364 429
#     4  12  28  50  70 110 150 194 258 298 374 446
#
# _framework density 21.337638999999999
#
# number of rings (size 3 to 8) (size 9 to 14) (size 15 to 20)
#    0.000    0.571    4.286    3.857    6.000    2.286 
#    0.000    1.429    0.000    0.000    0.000    0.000 
#    0.000    0.000    0.000    0.000    0.000    0.000 
#
# Total GULP energy -78046.309215 kJ/mol
# GULP energy per Si atom -5574.736373 kJ/mol
# Density = 2.128907 g / cm^3
# Si number density = 21.337639 Si / 1000 Ang^3
#
#
#
# Elastic Constant Matrix: (Units=GPa)
#
#
# Indices 1 2 3 4 5 6 
#
# 1 69.2685 -2.2979 43.9340 0.0000 0.0000 0.0000
# 2 -2.2979 118.0641 33.0083 0.0000 0.0000 0.0000
# 3 43.9340 33.0083 141.0895 0.0000 0.0000 0.0000
# 4 0.0000 0.0000 0.0000 29.7070 0.0000 0.0000
# 5 0.0000 0.0000 0.0000 0.0000 40.0770 0.0000
# 6 0.0000 0.0000 0.0000 0.0000 0.0000 32.3245
#
#
#
# Elastic Compliance Matrix: (Units=1/GPa)
#
#
# Indices 1 2 3 4 5 6 
#
# 1 0.018466 0.002105 -0.006242 0.000000 0.000000 0.000000
# 2 0.002105 0.009303 -0.002832 0.000000 0.000000 0.000000
# 3 -0.006242 -0.002832 0.009694 0.000000 0.000000 0.000000
# 4 0.000000 0.000000 0.000000 0.033662 0.000000 0.000000
# 5 0.000000 0.000000 0.000000 0.000000 0.024952 0.000000
# 6 0.000000 0.000000 0.000000 0.000000 0.000000 0.030936
#
#
# Mechanical properties :
#
#
# Convention : Reuss Voigt Hill
#
# Bulk Modulus (GPa) = 42.51105 53.07901 47.79503
# Shear Modulus (GPa) = 33.60374 37.34020 35.47197
#
# Velocity S-wave (km/s) = 3.97275 4.18780 4.08169
# Velocity P-wave (km/s) = 6.40390 6.95078 6.68294
#
# Compressibility (1/GPa) = 0.02352329
#
# Stress axis : x y z
#
# Youngs Moduli (GPa) = 54.15444 107.49645 103.15619
#
# Poissons Ratio (x) = -0.22624 0.64395
# Poissons Ratio (y) = -0.11398 0.29211
# Poissons Ratio (z) = 0.33806 0.30440
#
# Static dielectric constant tensor:
#      x y z
#    x 1.730880 0.000000 0.000000 
#    y 0.000000 1.709580 0.000000 
#    z 0.000000 0.000000 1.872020 
# 
# From -- ./inp_files/10185.got.cif
#   From: 2010.05.17/outbox.cif.g08.bks.cpg/sg21_6_cif.got.tgz:10185.got - 2010.06.03 23:14:55.
