data_PCOD9325835
_publ_section_title
;
Structure prediction by ZEFSAII (Michael W. Deem and Ramdas Pophale) SiO2 
 PCOD9325835
Probable space group: C 2 2 2
;
_chemical_formula_sum "Si O2"
_cell_formula_units_Z 19
_cell_length_a 12.000000
_cell_length_b 9.000000
_cell_length_c 18.000000
_cell_angle_alpha 90.000000
_cell_angle_beta 90.000000
_cell_angle_gamma 90.000000
_cell_volume 1944.000000
_symmetry_space_group_name_H-M "C 2 2 2"
_symmetry_group_IT_number 21
_symmetry_cell_setting 'orthorhombic'
loop_
_space_group_symop_operation_xyz
x,y,z
-x,-y,z
x,-y,-z
-x,y,-z
1/2+x,1/2+y,z
1/2-x,1/2-y,z
1/2+x,1/2-y,-z
1/2-x,1/2+y,-z
loop_
_atom_site_type_symbol
_atom_site_label
_atom_site_fract_x
_atom_site_fract_y
_atom_site_fract_z
Si Si1 0.330397 0.107207 0.375868
Si Si2 0.480952 0.822886 0.084985
Si Si3 0.750000 0.250000 0.152069
Si Si4 0.500000 0.000000 0.500000
Si Si5 0.043345 0.764999 0.750536
Si Si6 0.823596 0.934393 0.719050
O O1 0.250000 0.250000 0.389435
O O2 0.415464 0.085054 0.443822
O O3 0.401565 0.140387 0.301039
O O4 0.251882 0.966741 0.353132
O O5 0.356433 0.771971 0.102270
O O6 0.541711 0.766710 0.161106
O O7 0.500000 0.000000 0.084643
O O8 0.500000 0.770094 0.000000
O O9 0.755247 0.110887 0.208115
O O10 0.920807 0.809314 0.718656
O O11 0.116180 0.911288 0.736319
#
# Coordination Sequence:
#
# PCOD9325835 Si02
#       6
#     8   8   4   2   8   8
#     4  10  23  42  59  90 121 151 197 241 297 363
#     4  10  21  38  55  87 125 156 202 254 294 346
#     4  10  20  36  60  90 112 160 210 236 306 350
#     4  12  28  36  64  96 114 156 192 240 314 358
#     4   9  19  38  62  84 118 160 198 241 298 348
#     4   9  19  36  62  88 111 156 202 240 289 360
#
# _framework density 9.7736630000000009
#
# number of rings (size 3 to 8) (size 9 to 14) (size 15 to 20)
#    0.000    2.316    0.000    1.263    7.368    1.684 
#   13.263    7.368    0.000    0.000    0.000    0.000 
#    0.000    0.000    0.000    0.000    0.000    0.000 
#
# Total GULP energy -105811.921273 kJ/mol
# GULP energy per Si atom -5569.048488 kJ/mol
# Density = 0.975142 g / cm^3
# Si number density = 9.773663 Si / 1000 Ang^3
#
#
#
# Elastic Constant Matrix: (Units=GPa)
#
#
# Indices 1 2 3 4 5 6 
#
# 1 94.0102 33.8589 77.1087 0.0000 0.0000 0.0000
# 2 33.8589 41.9331 22.7021 0.0000 0.0000 0.0000
# 3 77.1087 22.7021 135.2197 0.0000 0.0000 0.0000
# 4 0.0000 0.0000 0.0000 24.4674 0.0000 0.0000
# 5 0.0000 0.0000 0.0000 0.0000 51.8126 0.0000
# 6 0.0000 0.0000 0.0000 0.0000 0.0000 18.9070
#
#
#
# Elastic Compliance Matrix: (Units=1/GPa)
#
#
# Indices 1 2 3 4 5 6 
#
# 1 0.025929 -0.014225 -0.012398 0.000000 0.000000 0.000000
# 2 -0.014225 0.034035 0.002397 0.000000 0.000000 0.000000
# 3 -0.012398 0.002397 0.014063 0.000000 0.000000 0.000000
# 4 0.000000 0.000000 0.000000 0.040871 0.000000 0.000000
# 5 0.000000 0.000000 0.000000 0.000000 0.019300 0.000000
# 6 0.000000 0.000000 0.000000 0.000000 0.000000 0.052890
#
#
# Mechanical properties :
#
#
# Convention : Reuss Voigt Hill
#
# Bulk Modulus (GPa) = 39.09763 59.83361 49.46562
# Shear Modulus (GPa) = 20.48635 28.20361 24.34498
#
# Velocity S-wave (km/s) = 3.24085 3.80259 3.53290
# Velocity P-wave (km/s) = 5.83516 7.06793 6.48093
#
# Compressibility (1/GPa) = 0.02557700
#
# Stress axis : x y z
#
# Youngs Moduli (GPa) = 38.56638 29.38127 71.10959
#
# Poissons Ratio (x) = 0.41794 0.88161
# Poissons Ratio (y) = 0.54859 -0.17047
# Poissons Ratio (z) = 0.47814 -0.07044
#
# Static dielectric constant tensor:
#      x y z
#    x 1.762680 0.000000 0.000000 
#    y 0.000000 1.664840 0.000000 
#    z 0.000000 0.000000 1.657680 
# 
# From -- ./inp_files/31399.got.cif
#   From: 2010.05.17/outbox.ucp.g08.bks.cvg/sg21_16_cif.got.tgz:31399.got - 2010.06.11 15:15:05.
