data_PCOD9325403
_publ_section_title
;
Structure prediction by ZEFSAII (Michael W. Deem and Ramdas Pophale) SiO2 
 PCOD9325403
Probable space group: C 2 2 2
;
_chemical_formula_sum "Si O2"
_cell_formula_units_Z 48
_cell_length_a 9.510326
_cell_length_b 31.245282
_cell_length_c 9.810581
_cell_angle_alpha 90.000000
_cell_angle_beta 90.000000
_cell_angle_gamma 90.000000
_cell_volume 2915.241788
_symmetry_space_group_name_H-M "C 2 2 2"
_symmetry_group_IT_number 21
_symmetry_cell_setting 'orthorhombic'
loop_
_space_group_symop_operation_xyz
x,y,z
-x,-y,z
x,-y,-z
-x,y,-z
1/2+x,1/2+y,z
1/2-x,1/2-y,z
1/2+x,1/2-y,-z
1/2-x,1/2+y,-z
loop_
_atom_site_type_symbol
_atom_site_label
_atom_site_fract_x
_atom_site_fract_y
_atom_site_fract_z
Si Si1 0.504918 0.048561 0.165206
Si Si2 0.083725 0.760702 0.637908
Si Si3 0.733737 0.118120 0.166192
Si Si4 0.009569 0.860588 0.661327
Si Si5 0.492227 0.188416 0.156517
Si Si6 0.764263 0.385054 0.841895
O O1 0.643309 0.075767 0.203656
O O2 0.367877 0.076379 0.199133
O O3 0.500000 0.000000 0.215907
O O4 0.500000 0.047473 0.000000
O O5 0.250000 0.750000 0.624720
O O6 0.000000 0.750981 0.500000
O O7 0.050617 0.810204 0.670945
O O8 0.020608 0.729438 0.750767
O O9 0.865491 0.127862 0.261419
O O10 0.625625 0.157764 0.180889
O O11 0.770432 0.113481 0.004391
O O12 0.000000 0.870597 0.500000
O O13 0.131451 0.884474 0.744306
O O14 0.356406 0.158061 0.176047
O O15 0.500000 0.201853 0.000000
#
# Coordination Sequence:
#
# PCOD9325403 Si02
#       6
#     8   8   8   8   8   8
#     4   8  15  32  60  87 106 129 169 217 264 319
#     4  11  24  38  52  73 105 141 186 226 261 305
#     4   9  19  33  56  81 105 135 172 214 267 314
#     4  11  23  35  50  75 106 144 181 216 261 307
#     4   9  19  35  54  75 101 136 175 218 266 313
#     4   9  17  35  55  79 107 134 170 219 264 315
#
# _framework density 16.465187
#
# number of rings (size 3 to 8) (size 9 to 14) (size 15 to 20)
#    0.000    2.500    1.667    2.500    4.667    1.333 
#    0.000    3.333    0.000    7.000    0.000    0.000 
#    0.000    0.000    0.000    0.000    0.000    0.000 
#
# Total GULP energy -133732.499610 kJ/mol
# GULP energy per Si atom -5572.187484 kJ/mol
# Density = 1.642771 g / cm^3
# Si number density = 16.465187 Si / 1000 Ang^3
#
#
#
# Elastic Constant Matrix: (Units=GPa)
#
#
# Indices 1 2 3 4 5 6 
#
# 1 138.5446 63.5305 84.1575 0.0000 0.0000 0.0000
# 2 63.5305 88.8803 58.1024 0.0000 0.0000 0.0000
# 3 84.1575 58.1024 84.7547 0.0000 0.0000 0.0000
# 4 0.0000 0.0000 0.0000 109.4919 0.0000 0.0000
# 5 0.0000 0.0000 0.0000 0.0000 26.1035 0.0000
# 6 0.0000 0.0000 0.0000 0.0000 0.0000 9.7404
#
#
#
# Elastic Compliance Matrix: (Units=1/GPa)
#
#
# Indices 1 2 3 4 5 6 
#
# 1 0.018421 -0.002192 -0.016788 0.000000 0.000000 0.000000
# 2 -0.002192 0.020649 -0.011978 0.000000 0.000000 0.000000
# 3 -0.016788 -0.011978 0.036680 0.000000 0.000000 0.000000
# 4 0.000000 0.000000 0.000000 0.009133 0.000000 0.000000
# 5 0.000000 0.000000 0.000000 0.000000 0.038309 0.000000
# 6 0.000000 0.000000 0.000000 0.000000 0.000000 0.102665
#
#
# Mechanical properties :
#
#
# Convention : Reuss Voigt Hill
#
# Bulk Modulus (GPa) = 72.29692 80.41782 76.35737
# Shear Modulus (GPa) = 17.10063 36.15979 26.63021
#
# Velocity S-wave (km/s) = 3.22622 4.69138 4.02601
# Velocity P-wave (km/s) = 7.60804 8.84831 8.25151
#
# Compressibility (1/GPa) = 0.01383185
#
# Stress axis : x y z
#
# Youngs Moduli (GPa) = 54.28550 48.42924 27.26245
#
# Poissons Ratio (x) = 0.10617 0.45769
# Poissons Ratio (y) = 0.11901 0.32656
# Poissons Ratio (z) = 0.91136 0.58011
#
# Static dielectric constant tensor:
#      x y z
#    x 1.551680 0.000000 0.000000 
#    y 0.000000 1.549990 0.000000 
#    z 0.000000 0.000000 1.562070 
# 
# From -- ./inp_files/11490.got.cif
#   From: 2010.05.17/outbox.cif.g08.bks.cpg/sg21_6_cif.got.tgz:11490.got - 2010.06.03 23:14:55.
