data_PCOD9325525
_publ_section_title
;
Structure prediction by ZEFSAII (Michael W. Deem and Ramdas Pophale) SiO2 
 PCOD9325525
Probable space group: C 2 2 2
;
_chemical_formula_sum "Si O2"
_cell_formula_units_Z 28
_cell_length_a 12.795053
_cell_length_b 7.466522
_cell_length_c 11.472072
_cell_angle_alpha 90.000000
_cell_angle_beta 90.000000
_cell_angle_gamma 90.000000
_cell_volume 1095.979175
_symmetry_space_group_name_H-M "C 2 2 2"
_symmetry_group_IT_number 21
_symmetry_cell_setting 'orthorhombic'
loop_
_space_group_symop_operation_xyz
x,y,z
-x,-y,z
x,-y,-z
-x,y,-z
1/2+x,1/2+y,z
1/2-x,1/2-y,z
1/2+x,1/2-y,-z
1/2-x,1/2+y,-z
loop_
_atom_site_type_symbol
_atom_site_label
_atom_site_fract_x
_atom_site_fract_y
_atom_site_fract_z
Si Si1 0.326302 0.977286 0.137217
Si Si2 0.599224 0.636173 0.764016
Si Si3 0.377870 0.788879 0.488360
Si Si4 0.250000 0.750000 0.695002
O O1 0.411612 0.829247 0.173107
O O2 0.203809 0.933483 0.169943
O O3 0.330799 0.148096 0.221117
O O4 0.332182 0.000000 0.000000
O O5 0.500000 0.500000 0.767606
O O6 0.638472 0.699677 0.636429
O O7 0.500000 0.787537 0.500000
O O8 0.330407 0.678827 0.596238
O O9 0.347267 0.000000 0.500000
#
# Coordination Sequence:
#
# PCOD9325525 Si02
#       4
#     8   8   8   4
#     4  11  25  46  74 112 155 209 270 324 387 479
#     4  11  24  46  75 111 159 204 263 332 410 481
#     4  11  24  42  71 113 156 196 261 324 402 491
#     4  12  22  42  76 104 156 210 248 326 398 468
#
# _framework density 25.547930000000001
#
# number of rings (size 3 to 8) (size 9 to 14) (size 15 to 20)
#    0.000    0.857    2.857    5.143    0.000    3.429 
#    0.000    2.857    0.000    5.143    0.000    0.000 
#    0.000    0.000    0.000    0.000    0.000    0.000 
#
# Total GULP energy -78053.538906 kJ/mol
# GULP energy per Si atom -5575.252779 kJ/mol
# Density = 2.548978 g / cm^3
# Si number density = 25.547930 Si / 1000 Ang^3
#
#
#
# Elastic Constant Matrix: (Units=GPa)
#
#
# Indices 1 2 3 4 5 6 
#
# 1 158.5877 76.8733 50.6755 0.0000 0.0000 0.0000
# 2 76.8733 141.1103 94.5830 0.0000 0.0000 0.0000
# 3 50.6755 94.5830 286.4160 0.0000 0.0000 0.0000
# 4 0.0000 0.0000 0.0000 -32.7655 0.0000 0.0000
# 5 0.0000 0.0000 0.0000 0.0000 28.0967 0.0000
# 6 0.0000 0.0000 0.0000 0.0000 0.0000 55.7613
#
#
#
# Elastic Compliance Matrix: (Units=1/GPa)
#
#
# Indices 1 2 3 4 5 6 
#
# 1 0.008569 -0.004690 0.000033 0.000000 0.000000 0.000000
# 2 -0.004690 0.011668 -0.003023 0.000000 0.000000 0.000000
# 3 0.000033 -0.003023 0.004484 0.000000 0.000000 0.000000
# 4 0.000000 0.000000 0.000000 -0.030520 0.000000 0.000000
# 5 0.000000 0.000000 0.000000 0.000000 0.035591 0.000000
# 6 0.000000 0.000000 0.000000 0.000000 0.000000 0.017934
#
#
# Mechanical properties :
#
#
# Convention : Reuss Voigt Hill
#
# Bulk Modulus (GPa) = 106.84189 114.48640 110.66415
# Shear Modulus (GPa) = 75.52129 34.48401 55.00265
#
# Velocity S-wave (km/s) = 5.44287 3.67792 4.64499
# Velocity P-wave (km/s) = 9.02279 7.93384 8.49578
#
# Compressibility (1/GPa) = 0.00935962
#
# Stress axis : x y z
#
# Youngs Moduli (GPa) = 116.70592 85.70416 223.01296
#
# Poissons Ratio (x) = 0.40194 -0.00729
# Poissons Ratio (y) = 0.54733 0.67425
# Poissons Ratio (z) = -0.00382 0.25911
#
# Static dielectric constant tensor:
#      x y z
#    x 2.529610 0.000000 0.000000 
#    y 0.000000 2.594280 0.000000 
#    z 0.000000 0.000000 1.959360 
# 
# From -- ./inp_files/24623.got.cif
#   From: 2010.05.17/outbox.cif.g08.bks.cpg/sg21_13_cif.got.tgz:24623.got - 2010.06.03 23:14:55.
