data_PCOD9325312
_publ_section_title
;
Structure prediction by ZEFSAII (Michael W. Deem and Ramdas Pophale) SiO2 
 PCOD9325312
Probable space group: C 2 2 2
;
_chemical_formula_sum "Si O2"
_cell_formula_units_Z 32
_cell_length_a 22.566736
_cell_length_b 7.489020
_cell_length_c 8.364596
_cell_angle_alpha 90.000000
_cell_angle_beta 90.000000
_cell_angle_gamma 90.000000
_cell_volume 1413.639620
_symmetry_space_group_name_H-M "C 2 2 2"
_symmetry_group_IT_number 21
_symmetry_cell_setting 'orthorhombic'
loop_
_space_group_symop_operation_xyz
x,y,z
-x,-y,z
x,-y,-z
-x,y,-z
1/2+x,1/2+y,z
1/2-x,1/2-y,z
1/2+x,1/2-y,-z
1/2-x,1/2+y,-z
loop_
_atom_site_type_symbol
_atom_site_label
_atom_site_fract_x
_atom_site_fract_y
_atom_site_fract_z
Si Si1 0.474880 0.798744 0.203990
Si Si2 0.180059 0.500000 0.000000
Si Si3 0.093117 0.199642 0.123763
Si Si4 0.250000 0.750000 0.240872
Si Si5 0.871045 0.108328 0.341215
O O1 0.536309 0.700474 0.242684
O O2 0.421195 0.761178 0.323746
O O3 0.500000 0.000000 0.186035
O O4 0.443609 0.723165 0.042293
O O5 0.138374 0.636087 0.898396
O O6 0.220765 0.394952 0.876575
O O7 0.127280 0.026044 0.186737
O O8 0.195050 0.816493 0.344261
O O9 0.882536 0.000000 0.500000
#
# Coordination Sequence:
#
# PCOD9325312 Si02
#       5
#     8   4   8   4   8
#     4  11  21  44  74 108 143 183 242 313 384 439
#     4  12  22  43  76 108 137 184 266 326 366 426
#     4  11  21  42  75 107 138 182 244 313 375 439
#     4  12  26  44  68 102 148 198 258 310 364 430
#     4  12  28  46  69 106 153 202 246 297 378 455
#
# _framework density 22.636603000000001
#
# number of rings (size 3 to 8) (size 9 to 14) (size 15 to 20)
#    0.000    0.500    5.000    3.750    0.000    6.000 
#    0.000    6.250    0.000    0.000    0.000    0.000 
#    0.000    0.000    0.000    0.000    0.000    0.000 
#
# Total GULP energy -89198.186719 kJ/mol
# GULP energy per Si atom -5574.886670 kJ/mol
# Density = 2.258508 g / cm^3
# Si number density = 22.636603 Si / 1000 Ang^3
#
#
#
# Elastic Constant Matrix: (Units=GPa)
#
#
# Indices 1 2 3 4 5 6 
#
# 1 177.0952 48.1218 28.1002 0.0000 0.0000 0.0000
# 2 48.1218 90.1587 28.1185 0.0000 0.0000 0.0000
# 3 28.1002 28.1185 75.0601 0.0000 0.0000 0.0000
# 4 0.0000 0.0000 0.0000 18.9600 0.0000 0.0000
# 5 0.0000 0.0000 0.0000 0.0000 -5.9063 0.0000
# 6 0.0000 0.0000 0.0000 0.0000 0.0000 45.0770
#
#
#
# Elastic Compliance Matrix: (Units=1/GPa)
#
#
# Indices 1 2 3 4 5 6 
#
# 1 0.006719 -0.003173 -0.001327 0.000000 0.000000 0.000000
# 2 -0.003173 0.014057 -0.004078 0.000000 0.000000 0.000000
# 3 -0.001327 -0.004078 0.015347 0.000000 0.000000 0.000000
# 4 0.000000 0.000000 0.000000 0.052743 0.000000 0.000000
# 5 0.000000 0.000000 0.000000 0.000000 -0.169311 0.000000
# 6 0.000000 0.000000 0.000000 0.000000 0.000000 0.022184
#
#
# Mechanical properties :
#
#
# Convention : Reuss Voigt Hill
#
# Bulk Modulus (GPa) = 52.72082 61.22165 56.97124
# Shear Modulus (GPa) = -143.75018 27.49106 -58.12956
#
# Velocity S-wave (km/s) = -7.97755 3.48868 -5.07299
# Velocity P-wave (km/s) = 7.84311 6.58270 3.01516
#
# Compressibility (1/GPa) = 0.01896784
#
# Stress axis : x y z
#
# Youngs Moduli (GPa) = 148.82478 71.14017 65.15856
#
# Poissons Ratio (x) = 0.22569 0.08647
# Poissons Ratio (y) = 0.47215 0.26573
# Poissons Ratio (z) = 0.19750 0.29012
#
# Static dielectric constant tensor:
#      x y z
#    x 1.868200 0.000000 0.000000 
#    y 0.000000 1.982370 0.000000 
#    z 0.000000 0.000000 1.931020 
# 
# From -- ./inp_files/18171.got.cif
#   From: 2010.05.17/outbox.cif.g08.bks.cpg/sg21_10_cif.got.tgz:18171.got - 2010.06.03 23:14:55.
