data_PCOD9325596
_publ_section_title
;
Structure prediction by ZEFSAII (Michael W. Deem and Ramdas Pophale) SiO2 
 PCOD9325596
Probable space group: C 2 2 2
;
_chemical_formula_sum "Si O2"
_cell_formula_units_Z 24
_cell_length_a 6.932630
_cell_length_b 23.211001
_cell_length_c 7.402073
_cell_angle_alpha 90.000000
_cell_angle_beta 90.000000
_cell_angle_gamma 90.000000
_cell_volume 1191.091859
_symmetry_space_group_name_H-M "C 2 2 2"
_symmetry_group_IT_number 21
_symmetry_cell_setting 'orthorhombic'
loop_
_space_group_symop_operation_xyz
x,y,z
-x,-y,z
x,-y,-z
-x,y,-z
1/2+x,1/2+y,z
1/2-x,1/2-y,z
1/2+x,1/2-y,-z
1/2-x,1/2+y,-z
loop_
_atom_site_type_symbol
_atom_site_label
_atom_site_fract_x
_atom_site_fract_y
_atom_site_fract_z
Si Si1 0.500000 0.609821 0.000000
Si Si2 0.880186 0.559904 0.848799
Si Si3 0.000000 0.620839 0.500000
Si Si4 0.349720 0.309636 0.329758
O O1 0.333438 0.567475 0.075162
O O2 0.560518 0.652071 0.166855
O O3 0.892931 0.584445 0.651256
O O4 0.000000 0.500000 0.834674
O O5 0.000000 0.595237 0.000000
O O6 0.833282 0.656603 0.406513
O O7 0.500000 0.300977 0.500000
O O8 0.250000 0.250000 0.265832
#
# Coordination Sequence:
#
# PCOD9325596 Si02
#       4
#     4   8   4   8
#     4  12  26  47  74 110 142 192 239 298 358 424
#     4  11  25  44  72 102 142 185 240 296 351 417
#     4  12  23  46  72 100 140 192 233 296 354 428
#     4  12  26  44  74 106 146 187 240 292 363 429
#
# _framework density 20.149578000000002
#
# number of rings (size 3 to 8) (size 9 to 14) (size 15 to 20)
#    0.000    0.333    8.333    0.500    0.000    6.667 
#    0.000    0.000    0.000    0.000    0.000    0.000 
#    0.000    0.000    0.000    0.000    0.000    0.000 
#
# Total GULP energy -66825.889872 kJ/mol
# GULP energy per Si atom -5568.824156 kJ/mol
# Density = 2.010372 g / cm^3
# Si number density = 20.149578 Si / 1000 Ang^3
#
#
#
# Elastic Constant Matrix: (Units=GPa)
#
#
# Indices 1 2 3 4 5 6 
#
# 1 169.5573 65.4125 61.6252 0.0000 0.0000 0.0000
# 2 65.4125 116.6803 55.2262 0.0000 0.0000 0.0000
# 3 61.6252 55.2262 125.5016 0.0000 0.0000 0.0000
# 4 0.0000 0.0000 0.0000 26.1978 0.0000 0.0000
# 5 0.0000 0.0000 0.0000 0.0000 44.4370 0.0000
# 6 0.0000 0.0000 0.0000 0.0000 0.0000 -84.2409
#
#
#
# Elastic Compliance Matrix: (Units=1/GPa)
#
#
# Indices 1 2 3 4 5 6 
#
# 1 0.008102 -0.003359 -0.002500 0.000000 0.000000 0.000000
# 2 -0.003359 0.012217 -0.003727 0.000000 0.000000 0.000000
# 3 -0.002500 -0.003727 0.010836 0.000000 0.000000 0.000000
# 4 0.000000 0.000000 0.000000 0.038171 0.000000 0.000000
# 5 0.000000 0.000000 0.000000 0.000000 0.022504 0.000000
# 6 0.000000 0.000000 0.000000 0.000000 0.000000 -0.011871
#
#
# Mechanical properties :
#
#
# Convention : Reuss Voigt Hill
#
# Bulk Modulus (GPa) = 83.45014 86.25190 84.85102
# Shear Modulus (GPa) = 48.48421 12.57713 30.53067
#
# Velocity S-wave (km/s) = 4.91064 2.50109 3.89678
# Velocity P-wave (km/s) = 8.58241 7.15816 7.90244
#
# Compressibility (1/GPa) = 0.01198320
#
# Stress axis : x y z
#
# Youngs Moduli (GPa) = 123.42269 81.85061 92.28623
#
# Poissons Ratio (x) = 0.27491 0.23076
# Poissons Ratio (y) = 0.41454 0.34395
# Poissons Ratio (z) = 0.30861 0.30505
#
# Static dielectric constant tensor:
#      x y z
#    x 1.716090 0.000000 0.000000 
#    y 0.000000 2.043770 0.000000 
#    z 0.000000 0.000000 1.837350 
# 
# From -- ./inp_files/8634.got.cif
#   From: 2010.05.17/outbox.cif.g08.bks.cpg/sg21_5_cif.got.tgz:8634.got - 2010.06.03 23:14:55.
