data_PCOD9325595
_publ_section_title
;
Structure prediction by ZEFSAII (Michael W. Deem and Ramdas Pophale) SiO2 
 PCOD9325595
Probable space group: C 2 2 2
;
_chemical_formula_sum "Si O2"
_cell_formula_units_Z 40
_cell_length_a 9.042135
_cell_length_b 11.398816
_cell_length_c 17.678220
_cell_angle_alpha 90.000000
_cell_angle_beta 90.000000
_cell_angle_gamma 90.000000
_cell_volume 1822.087649
_symmetry_space_group_name_H-M "C 2 2 2"
_symmetry_group_IT_number 21
_symmetry_cell_setting 'orthorhombic'
loop_
_space_group_symop_operation_xyz
x,y,z
-x,-y,z
x,-y,-z
-x,y,-z
1/2+x,1/2+y,z
1/2-x,1/2-y,z
1/2+x,1/2-y,-z
1/2-x,1/2+y,-z
loop_
_atom_site_type_symbol
_atom_site_label
_atom_site_fract_x
_atom_site_fract_y
_atom_site_fract_z
Si Si1 0.422188 0.224208 0.578791
Si Si2 0.750000 0.750000 0.819696
Si Si3 0.020009 0.138392 0.088214
Si Si4 0.589493 0.614506 0.305973
Si Si5 0.857994 0.451476 0.290805
Si Si6 0.750000 0.250000 0.814212
O O1 0.500000 0.199723 0.500000
O O2 0.250000 0.250000 0.565096
O O3 0.505029 0.331366 0.622259
O O4 0.418992 0.117004 0.636845
O O5 0.892157 0.786751 0.869275
O O6 0.779118 0.641088 0.763524
O O7 0.182903 0.159529 0.124160
O O8 0.000000 0.000000 0.096485
O O9 0.000000 0.167968 0.000000
O O10 0.500000 0.500000 0.277669
O O11 0.749542 0.555113 0.317068
O O12 0.619515 0.720546 0.247484
O O13 0.000000 0.500000 0.247079
#
# Coordination Sequence:
#
# PCOD9325595 Si02
#       6
#     8   4   8   8   8   4
#     4  12  28  49  68 100 143 182 233 295 355 424
#     4  12  23  46  71 100 142 178 232 290 331 412
#     4  11  25  44  69 104 144 183 225 277 347 414
#     4  12  24  47  72 100 138 180 239 292 349 412
#     4  12  25  44  71 103 134 182 239 289 349 412
#     4  12  23  42  75 102 132 184 230 284 339 406
#
# _framework density 21.952840999999999
#
# number of rings (size 3 to 8) (size 9 to 14) (size 15 to 20)
#    0.000    0.200    3.000    7.200    4.200    0.800 
#    0.000    0.000    0.000    4.800    0.000    0.000 
#    0.000    0.000    0.000    0.000    0.000    0.000 
#
# Total GULP energy -111482.431476 kJ/mol
# GULP energy per Si atom -5574.121574 kJ/mol
# Density = 2.190288 g / cm^3
# Si number density = 21.952841 Si / 1000 Ang^3
#
#
#
# Elastic Constant Matrix: (Units=GPa)
#
#
# Indices 1 2 3 4 5 6 
#
# 1 113.9799 56.1952 42.2969 0.0000 0.0000 0.0000
# 2 56.1952 103.5042 50.8160 0.0000 0.0000 0.0000
# 3 42.2969 50.8160 150.2315 0.0000 0.0000 0.0000
# 4 0.0000 0.0000 0.0000 -240.8508 0.0000 0.0000
# 5 0.0000 0.0000 0.0000 0.0000 -3.2085 0.0000
# 6 0.0000 0.0000 0.0000 0.0000 0.0000 63.3073
#
#
#
# Elastic Compliance Matrix: (Units=1/GPa)
#
#
# Indices 1 2 3 4 5 6 
#
# 1 0.012233 -0.005937 -0.001436 0.000000 0.000000 0.000000
# 2 -0.005937 0.014466 -0.003222 0.000000 0.000000 0.000000
# 3 -0.001436 -0.003222 0.008151 0.000000 0.000000 0.000000
# 4 0.000000 0.000000 0.000000 -0.004152 0.000000 0.000000
# 5 0.000000 0.000000 0.000000 0.000000 -0.311669 0.000000
# 6 0.000000 0.000000 0.000000 0.000000 0.000000 0.015796
#
#
# Mechanical properties :
#
#
# Convention : Reuss Voigt Hill
#
# Bulk Modulus (GPa) = 73.20155 74.03688 73.61921
# Shear Modulus (GPa) = -20.88277 -21.58992 -21.23635
#
# Velocity S-wave (km/s) = -3.08759 -3.13943 -3.11362
# Velocity P-wave (km/s) = 4.55042 4.54503 4.54772
#
# Compressibility (1/GPa) = 0.01366091
#
# Stress axis : x y z
#
# Youngs Moduli (GPa) = 81.74339 69.12542 122.69160
#
# Poissons Ratio (x) = 0.41038 0.17620
# Poissons Ratio (y) = 0.48529 0.39529
# Poissons Ratio (z) = 0.11739 0.22271
#
# Static dielectric constant tensor:
#      x y z
#    x 1.988660 0.000000 0.000000 
#    y 0.000000 1.838600 0.000000 
#    z 0.000000 0.000000 1.783520 
# 
# From -- ./inp_files/35519.got.cif
#   From: 2010.05.17/outbox.cif.g08.bks.cpg/sg21_18_cif.got.tgz:35519.got - 2010.06.03 23:14:55.
