data_PCOD9325872
_publ_section_title
;
Structure prediction by ZEFSAII (Michael W. Deem and Ramdas Pophale) SiO2 
 PCOD9325872
Probable space group: F 2 2 2
;
_chemical_formula_sum "Si O2"
_cell_formula_units_Z 64
_cell_length_a 5.454369
_cell_length_b 14.215114
_cell_length_c 33.057506
_cell_angle_alpha 90.000000
_cell_angle_beta 90.000000
_cell_angle_gamma 90.000000
_cell_volume 2563.096443
_symmetry_space_group_name_H-M "F 2 2 2"
_symmetry_group_IT_number 22
_symmetry_cell_setting 'orthorhombic'
loop_
_space_group_symop_operation_xyz
x,y,z
-x,-y,z
x,-y,-z
-x,y,-z
x,1/2+y,1/2+z
-x,1/2-y,1/2+z
x,1/2-y,1/2-z
-x,1/2+y,1/2-z
1/2+x,y,1/2+z
1/2-x,-y,1/2+z
1/2+x,-y,1/2-z
1/2-x,y,1/2-z
1/2+x,1/2+y,z
1/2-x,1/2-y,z
1/2+x,1/2-y,-z
1/2-x,1/2+y,-z
loop_
_atom_site_type_symbol
_atom_site_label
_atom_site_fract_x
_atom_site_fract_y
_atom_site_fract_z
Si Si1 0.758167 0.606101 0.483031
Si Si2 0.508126 0.142713 0.232869
Si Si3 0.223200 0.103758 0.112525
Si Si4 0.208900 0.111551 0.643162
O O1 0.756010 0.500000 0.500000
O O2 0.500000 0.643795 0.500000
O O3 0.810399 0.597795 0.435233
O O4 0.000000 0.654686 0.500000
O O5 0.509018 0.250000 0.250000
O O6 0.750000 0.094312 0.250000
O O7 0.574955 0.134307 0.185725
O O8 0.250000 0.106498 0.250000
O O9 0.494547 0.148475 0.114265
O O10 0.987037 0.146821 0.135874
O O11 0.256073 0.999755 0.132783
#
# Coordination Sequence:
#
# PCOD9325872 Si02
#       4
#    16  16  16  16
#     4  10  16  25  41  64  99 144 176 198 229 291
#     4  10  21  37  55  73  93 127 174 229 276 315
#     4  10  19  30  46  74 105 141 174 203 254 314
#     4  10  18  32  49  68  99 133 169 216 257 312
#
# _framework density 24.969798000000001
#
# number of rings (size 3 to 8) (size 9 to 14) (size 15 to 20)
#    0.000    2.000    0.000    9.000    0.000    0.000 
#    0.000   10.000    0.000    0.000    0.000    0.000 
#    0.000    0.000    0.000  819.000    0.000    0.000 
#
# Total GULP energy -89069.231275 kJ/mol
# GULP energy per Si atom -5566.826955 kJ/mol
# Density = 2.491297 g / cm^3
# Si number density = 24.969798 Si / 1000 Ang^3
#
#
#
# Elastic Constant Matrix: (Units=GPa)
#
#
# Indices 1 2 3 4 5 6 
#
# 1 318.8203 22.8754 57.1022 0.0000 0.0000 0.0000
# 2 22.8754 143.4930 19.0377 0.0000 0.0000 0.0000
# 3 57.1022 19.0377 191.4422 0.0000 0.0000 0.0000
# 4 0.0000 0.0000 0.0000 37.0755 0.0000 0.0000
# 5 0.0000 0.0000 0.0000 0.0000 54.3741 0.0000
# 6 0.0000 0.0000 0.0000 0.0000 0.0000 -4.9403
#
#
#
# Elastic Compliance Matrix: (Units=1/GPa)
#
#
# Indices 1 2 3 4 5 6 
#
# 1 0.003337 -0.000405 -0.000955 0.000000 0.000000 0.000000
# 2 -0.000405 0.007111 -0.000586 0.000000 0.000000 0.000000
# 3 -0.000955 -0.000586 0.005567 0.000000 0.000000 0.000000
# 4 0.000000 0.000000 0.000000 0.026972 0.000000 0.000000
# 5 0.000000 0.000000 0.000000 0.000000 0.018391 0.000000
# 6 0.000000 0.000000 0.000000 0.000000 0.000000 -0.202417
#
#
# Mechanical properties :
#
#
# Convention : Reuss Voigt Hill
#
# Bulk Modulus (GPa) = 82.49652 94.64288 88.56970
# Shear Modulus (GPa) = -37.56406 54.28453 8.36023
#
# Velocity S-wave (km/s) = -3.88284 4.66768 1.83178
# Velocity P-wave (km/s) = 3.60670 8.18749 6.32626
#
# Compressibility (1/GPa) = 0.01212172
#
# Stress axis : x y z
#
# Youngs Moduli (GPa) = 299.69964 140.61986 179.64130
#
# Poissons Ratio (x) = 0.05698 0.17155
# Poissons Ratio (y) = 0.12145 0.10533
# Poissons Ratio (z) = 0.28620 0.08245
#
# Static dielectric constant tensor:
#      x y z
#    x 2.013050 0.000000 0.000000 
#    y 0.000000 1.617110 0.000000 
#    z 0.000000 0.000000 2.049180 
# 
# From -- ./inp_files/51067.got.cif
#   From: 2010.05.17/outbox.cif.g08.bks.cpg/sg22_26_cif.got.tgz:51067.got - 2010.06.03 23:40:54.
