data_PCOD9325579
_publ_section_title
;
Structure prediction by ZEFSAII (Michael W. Deem and Ramdas Pophale) SiO2 
 PCOD9325579
Probable space group: C 2 2 2
;
_chemical_formula_sum "Si O2"
_cell_formula_units_Z 32
_cell_length_a 9.580745
_cell_length_b 11.281604
_cell_length_c 12.924035
_cell_angle_alpha 90.000000
_cell_angle_beta 90.000000
_cell_angle_gamma 90.000000
_cell_volume 1396.909459
_symmetry_space_group_name_H-M "C 2 2 2"
_symmetry_group_IT_number 21
_symmetry_cell_setting 'orthorhombic'
loop_
_space_group_symop_operation_xyz
x,y,z
-x,-y,z
x,-y,-z
-x,y,-z
1/2+x,1/2+y,z
1/2-x,1/2-y,z
1/2+x,1/2-y,-z
1/2-x,1/2+y,-z
loop_
_atom_site_type_symbol
_atom_site_label
_atom_site_fract_x
_atom_site_fract_y
_atom_site_fract_z
Si Si1 0.500000 0.000000 0.791881
Si Si2 0.443050 0.661832 0.690839
Si Si3 0.400583 0.764736 0.908893
Si Si4 0.233222 0.925742 0.345915
Si Si5 0.750000 0.750000 0.469719
O O1 0.444097 0.893343 0.864246
O O2 0.628922 0.952129 0.721091
O O3 0.395501 0.684747 0.806597
O O4 0.610194 0.660372 0.697317
O O5 0.360304 0.545300 0.652040
O O6 0.383723 0.753304 0.606746
O O7 0.250000 0.750000 0.957239
O O8 0.500000 0.726042 0.000000
O O9 0.260595 0.864099 0.455802
#
# Coordination Sequence:
#
# PCOD9325579 Si02
#       5
#     4   8   8   8   4
#     4  12  25  50  75 116 158 196 270 328 392 484
#     4  11  24  48  71 109 159 204 260 322 393 482
#     4  12  27  50  78 110 153 203 263 332 398 466
#     4  11  25  43  75 111 153 209 254 317 401 478
#     4  12  22  42  74 112 154 206 254 312 388 486
#
# _framework density 22.907712
#
# number of rings (size 3 to 8) (size 9 to 14) (size 15 to 20)
#    0.000    0.500    3.750    3.375    3.500    4.000 
#    0.000    7.500    0.000    0.000    0.000    0.000 
#    0.000    0.000    0.000    0.000    0.000    0.000 
#
# Total GULP energy -89366.665337 kJ/mol
# GULP energy per Si atom -5585.416584 kJ/mol
# Density = 2.285557 g / cm^3
# Si number density = 22.907712 Si / 1000 Ang^3
#
#
#
# Elastic Constant Matrix: (Units=GPa)
#
#
# Indices 1 2 3 4 5 6 
#
# 1 175.3290 9.8082 21.8081 0.0000 0.0000 0.0000
# 2 9.8082 65.1625 26.5695 0.0000 0.0000 0.0000
# 3 21.8081 26.5695 89.5788 0.0000 0.0000 0.0000
# 4 0.0000 0.0000 0.0000 -18.4962 0.0000 0.0000
# 5 0.0000 0.0000 0.0000 0.0000 18.9873 0.0000
# 6 0.0000 0.0000 0.0000 0.0000 0.0000 41.5665
#
#
#
# Elastic Compliance Matrix: (Units=1/GPa)
#
#
# Indices 1 2 3 4 5 6 
#
# 1 0.005888 -0.000343 -0.001332 0.000000 0.000000 0.000000
# 2 -0.000343 0.017478 -0.005100 0.000000 0.000000 0.000000
# 3 -0.001332 -0.005100 0.013000 0.000000 0.000000 0.000000
# 4 0.000000 0.000000 0.000000 -0.054065 0.000000 0.000000
# 5 0.000000 0.000000 0.000000 0.000000 0.052667 0.000000
# 6 0.000000 0.000000 0.000000 0.000000 0.000000 0.024058
#
#
# Mechanical properties :
#
#
# Convention : Reuss Voigt Hill
#
# Bulk Modulus (GPa) = 43.82976 49.60467 46.71722
# Shear Modulus (GPa) = 62.35844 26.53716 44.44780
#
# Velocity S-wave (km/s) = 5.22309 3.40728 4.40966
# Velocity P-wave (km/s) = 7.45312 6.09758 6.80917
#
# Compressibility (1/GPa) = 0.02281555
#
# Stress axis : x y z
#
# Youngs Moduli (GPa) = 169.82504 57.21624 76.92102
#
# Poissons Ratio (x) = 0.01964 0.10244
# Poissons Ratio (y) = 0.05830 0.39232
# Poissons Ratio (z) = 0.22616 0.29182
#
# Static dielectric constant tensor:
#      x y z
#    x 1.927850 0.000000 0.000000 
#    y 0.000000 2.049180 0.000000 
#    z 0.000000 0.000000 1.776970 
# 
# From -- ./inp_files/22008.got.cif
#   From: 2010.05.17/outbox.cif.g08.bks.cpg/sg21_12_cif.got.tgz:22008.got - 2010.06.03 23:14:55.
