data_PCOD9325850
_publ_section_title
;
Structure prediction by ZEFSAII (Michael W. Deem and Ramdas Pophale) SiO2 
 PCOD9325850
Probable space group: C 2 2 2
;
_chemical_formula_sum "Si O2"
_cell_formula_units_Z 17
_cell_length_a 30.000000
_cell_length_b 9.000000
_cell_length_c 6.000000
_cell_angle_alpha 90.000000
_cell_angle_beta 90.000000
_cell_angle_gamma 90.000000
_cell_volume 1620.000000
_symmetry_space_group_name_H-M "C 2 2 2"
_symmetry_group_IT_number 21
_symmetry_cell_setting 'orthorhombic'
loop_
_space_group_symop_operation_xyz
x,y,z
-x,-y,z
x,-y,-z
-x,y,-z
1/2+x,1/2+y,z
1/2-x,1/2-y,z
1/2+x,1/2-y,-z
1/2-x,1/2+y,-z
loop_
_atom_site_type_symbol
_atom_site_label
_atom_site_fract_x
_atom_site_fract_y
_atom_site_fract_z
Si Si1 0.250000 0.750000 0.823044
Si Si2 0.330674 0.219443 0.825738
Si Si3 0.500000 0.500000 0.500000
Si Si4 0.407212 0.000000 0.000000
Si Si5 0.045100 0.784282 0.845536
Si Si6 0.875879 0.000000 0.000000
Si Si7 0.776455 0.500000 0.500000
O O1 0.251856 0.599727 0.673653
O O2 0.293779 0.775382 0.975904
O O3 0.373390 0.112394 0.872833
O O4 0.305730 0.129064 0.625543
O O5 0.347264 0.393797 0.828990
O O6 0.529772 0.382542 0.636111
O O7 0.438266 0.888272 0.851897
O O8 0.089511 0.876469 0.910283
O O9 0.000000 0.791808 0.000000
#
# Coordination Sequence:
#
# PCOD9325850 Si02
#       7
#     4   8   2   4   8   4   4
#     4  12  26  46  68 102 146 188 242 300 352 436
#     4  11  25  46  67 103 141 188 238 301 347 433
#     4  12  22  40  76 106 136 186 242 280 358 440
#     4  10  23  47  68  98 144 180 236 301 351 410
#     4  11  22  46  68 100 140 186 227 295 361 424
#     4  10  23  43  72  96 148 182 232 301 357 404
#     4  12  26  44  73 100 143 196 245 282 375 426
#
# _framework density 10.493827
#
# number of rings (size 3 to 8) (size 9 to 14) (size 15 to 20)
#    0.000    0.941    4.706    1.059    6.588    1.882 
#    0.000    1.176    0.000    0.000    0.000    0.000 
#    0.000    0.000    0.000    0.000    0.000    0.000 
#
# Total GULP energy -94636.381000 kJ/mol
# GULP energy per Si atom -5566.845941 kJ/mol
# Density = 1.046994 g / cm^3
# Si number density = 10.493827 Si / 1000 Ang^3
#
#
#
# Elastic Constant Matrix: (Units=GPa)
#
#
# Indices 1 2 3 4 5 6 
#
# 1 96.5977 54.3837 45.7327 0.0000 0.0000 0.0000
# 2 54.3837 193.9589 48.0125 0.0000 0.0000 0.0000
# 3 45.7327 48.0125 71.8894 0.0000 0.0000 0.0000
# 4 0.0000 0.0000 0.0000 35.9004 0.0000 0.0000
# 5 0.0000 0.0000 0.0000 0.0000 15.5608 0.0000
# 6 0.0000 0.0000 0.0000 0.0000 0.0000 64.7069
#
#
#
# Elastic Compliance Matrix: (Units=1/GPa)
#
#
# Indices 1 2 3 4 5 6 
#
# 1 0.015626 -0.002301 -0.008404 0.000000 0.000000 0.000000
# 2 -0.002301 0.006516 -0.002888 0.000000 0.000000 0.000000
# 3 -0.008404 -0.002888 0.021185 0.000000 0.000000 0.000000
# 4 0.000000 0.000000 0.000000 0.027855 0.000000 0.000000
# 5 0.000000 0.000000 0.000000 0.000000 0.064264 0.000000
# 6 0.000000 0.000000 0.000000 0.000000 0.000000 0.015454
#
#
# Mechanical properties :
#
#
# Convention : Reuss Voigt Hill
#
# Bulk Modulus (GPa) = 61.95187 73.18931 67.57059
# Shear Modulus (GPa) = 27.25284 37.52143 32.38713
#
# Velocity S-wave (km/s) = 3.60740 4.23281 3.93256
# Velocity P-wave (km/s) = 6.85080 7.67054 7.27223
#
# Compressibility (1/GPa) = 0.01614156
#
# Stress axis : x y z
#
# Youngs Moduli (GPa) = 63.99393 153.47339 47.20291
#
# Poissons Ratio (x) = 0.35317 0.39669
# Poissons Ratio (y) = 0.14726 0.13631
# Poissons Ratio (z) = 0.53780 0.44320
#
# Static dielectric constant tensor:
#      x y z
#    x 1.794400 0.000000 0.000000 
#    y 0.000000 1.769080 0.000000 
#    z 0.000000 0.000000 1.839950 
# 
# From -- ./inp_files/1666.got.cif
#   From: 2010.05.17/outbox.ucp.g08.bks.cvg/sg21_1_cif.got.tgz:1666.got - 2010.06.11 15:15:05.
