data_PCOD9325066
_publ_section_title
;
Structure prediction by ZEFSAII (Michael W. Deem and Ramdas Pophale) SiO2 
 PCOD9325066
Probable space group: C 2 2 2
;
_chemical_formula_sum "Si O2"
_cell_formula_units_Z 38
_cell_length_a 11.855807
_cell_length_b 24.994585
_cell_length_c 5.667958
_cell_angle_alpha 90.000000
_cell_angle_beta 90.000000
_cell_angle_gamma 90.000000
_cell_volume 1679.591525
_symmetry_space_group_name_H-M "C 2 2 2"
_symmetry_group_IT_number 21
_symmetry_cell_setting 'orthorhombic'
loop_
_space_group_symop_operation_xyz
x,y,z
-x,-y,z
x,-y,-z
-x,y,-z
1/2+x,1/2+y,z
1/2-x,1/2-y,z
1/2+x,1/2-y,-z
1/2-x,1/2+y,-z
loop_
_atom_site_type_symbol
_atom_site_label
_atom_site_fract_x
_atom_site_fract_y
_atom_site_fract_z
Si Si1 0.500000 0.229613 0.000000
Si Si2 0.871155 0.935920 0.515854
Si Si3 0.500000 0.166907 0.500000
Si Si4 0.800582 0.368404 0.746085
Si Si5 0.250000 0.750000 0.906663
Si Si6 0.000000 0.500000 0.500000
Si Si7 0.674751 0.944927 0.856782
O O1 0.498630 0.199077 0.253159
O O2 0.375364 0.256358 0.979558
O O3 0.803234 0.906612 0.310669
O O4 0.793069 0.925762 0.743087
O O5 0.000000 0.917851 0.500000
O O6 0.870126 0.000000 0.500000
O O7 0.613932 0.133705 0.527175
O O8 0.761996 0.307434 0.780222
O O9 0.861014 0.397176 0.967084
O O10 0.918526 0.534452 0.669796
O O11 0.696243 0.000000 0.000000
#
# Coordination Sequence:
#
# PCOD9325066 Si02
#       7
#     4   8   4   8   4   2   8
#     4  10  24  52  78 110 162 206 270 326 398 474
#     4  11  25  48  71 108 148 195 260 317 385 470
#     4  10  26  49  77 116 158 202 257 339 394 462
#     4  11  26  51  75 111 154 204 255 323 397 472
#     4  10  26  52  74 114 154 206 262 326 396 478
#     4  12  26  46  70 118 152 194 264 314 416 472
#     4  12  25  48  72 109 154 201 254 327 393 478
#
# _framework density 22.624548999999998
#
# number of rings (size 3 to 8) (size 9 to 14) (size 15 to 20)
#    0.000    1.053    3.158    0.316    5.895   10.947 
#   18.947    0.000    0.000    0.000    0.000    0.000 
#    0.000    0.000    0.000    0.000    0.000    0.000 
#
# Total GULP energy -105926.658433 kJ/mol
# GULP energy per Si atom -5575.087286 kJ/mol
# Density = 2.257305 g / cm^3
# Si number density = 22.624549 Si / 1000 Ang^3
#
#
#
# Elastic Constant Matrix: (Units=GPa)
#
#
# Indices 1 2 3 4 5 6 
#
# 1 224.9530 46.4944 60.4850 0.0000 0.0000 0.0000
# 2 46.4944 127.6445 47.8124 0.0000 0.0000 0.0000
# 3 60.4850 47.8124 124.4512 0.0000 0.0000 0.0000
# 4 0.0000 0.0000 0.0000 20.4007 0.0000 0.0000
# 5 0.0000 0.0000 0.0000 0.0000 28.4223 0.0000
# 6 0.0000 0.0000 0.0000 0.0000 0.0000 32.1259
#
#
#
# Elastic Compliance Matrix: (Units=1/GPa)
#
#
# Indices 1 2 3 4 5 6 
#
# 1 0.005246 -0.001117 -0.002121 0.000000 0.000000 0.000000
# 2 -0.001117 0.009389 -0.003064 0.000000 0.000000 0.000000
# 3 -0.002121 -0.003064 0.010243 0.000000 0.000000 0.000000
# 4 0.000000 0.000000 0.000000 0.049018 0.000000 0.000000
# 5 0.000000 0.000000 0.000000 0.000000 0.035184 0.000000
# 6 0.000000 0.000000 0.000000 0.000000 0.000000 0.031127
#
#
# Mechanical properties :
#
#
# Convention : Reuss Voigt Hill
#
# Bulk Modulus (GPa) = 81.46685 87.40358 84.43522
# Shear Modulus (GPa) = 31.86685 37.67358 34.77021
#
# Velocity S-wave (km/s) = 3.75708 4.08507 3.92450
# Velocity P-wave (km/s) = 7.40994 7.80810 7.61162
#
# Compressibility (1/GPa) = 0.01227493
#
# Stress axis : x y z
#
# Youngs Moduli (GPa) = 190.60673 106.50972 97.62451
#
# Poissons Ratio (x) = 0.11893 0.20705
# Poissons Ratio (y) = 0.21283 0.29916
# Poissons Ratio (z) = 0.40425 0.32639
#
# Static dielectric constant tensor:
#      x y z
#    x 1.915620 0.000000 0.000000 
#    y 0.000000 1.881600 0.000000 
#    z 0.000000 0.000000 1.917230 
# 
# From -- ./inp_files/2914.got.cif
#   From: 2010.05.17/outbox.cif.g08.bks.cpg/sg21_2_cif.got.tgz:2914.got - 2010.06.03 23:14:55.
