data_PCOD9325242
_publ_section_title
;
Structure prediction by ZEFSAII (Michael W. Deem and Ramdas Pophale) SiO2 
 PCOD9325242
Probable space group: C 2 2 2
;
_chemical_formula_sum "Si O2"
_cell_formula_units_Z 60
_cell_length_a 10.126827
_cell_length_b 21.457015
_cell_length_c 11.952186
_cell_angle_alpha 90.000000
_cell_angle_beta 90.000000
_cell_angle_gamma 90.000000
_cell_volume 2597.108171
_symmetry_space_group_name_H-M "C 2 2 2"
_symmetry_group_IT_number 21
_symmetry_cell_setting 'orthorhombic'
loop_
_space_group_symop_operation_xyz
x,y,z
-x,-y,z
x,-y,-z
-x,y,-z
1/2+x,1/2+y,z
1/2-x,1/2-y,z
1/2+x,1/2-y,-z
1/2-x,1/2+y,-z
loop_
_atom_site_type_symbol
_atom_site_label
_atom_site_fract_x
_atom_site_fract_y
_atom_site_fract_z
Si Si1 0.746353 0.500000 0.500000
Si Si2 0.814167 0.683250 0.739718
Si Si3 0.374593 0.891321 0.919354
Si Si4 0.942682 0.877211 0.207933
Si Si5 0.553752 0.236267 0.872905
Si Si6 0.298059 0.966929 0.742233
Si Si7 0.188496 0.078975 0.891701
Si Si8 0.880984 0.127489 0.425868
O O1 0.823452 0.486764 0.615369
O O2 0.658549 0.438374 0.479736
O O3 0.750000 0.750000 0.748212
O O4 0.961705 0.699227 0.781710
O O5 0.753699 0.640462 0.836689
O O6 0.758205 0.658061 0.619073
O O7 0.341022 0.819105 0.894199
O O8 0.412432 0.933872 0.813060
O O9 0.500000 0.891030 0.000000
O O10 0.253740 0.922842 0.986209
O O11 0.812441 0.912539 0.248110
O O12 0.925207 0.804755 0.176909
O O13 0.031619 0.912861 0.116189
O O14 0.041407 0.882128 0.311948
O O15 0.500000 0.247080 0.000000
O O16 0.239486 0.024342 0.811400
O O17 0.000000 0.158838 0.500000
#
# Coordination Sequence:
#
# PCOD9325242 Si02
#       8
#     4   8   8   8   8   8   8   8
#     4  12  23  42  70 103 142 190 231 290 385 424
#     4  11  20  40  71 103 139 185 245 288 359 434
#     4  11  26  47  69  97 145 202 243 291 356 437
#     4  11  24  40  71 112 140 178 237 299 369 437
#     4  11  23  43  71 101 141 197 234 287 358 439
#     4  12  26  42  70 108 143 186 241 304 362 440
#     4  11  22  42  70 105 141 187 231 296 365 437
#     4  11  22  39  72 101 137 189 232 294 365 425
#
# _framework density 23.102618
#
# number of rings (size 3 to 8) (size 9 to 14) (size 15 to 20)
#    0.000    0.800    9.333    1.000    1.867    1.600 
#    2.400    2.667    0.000    5.600    0.000    0.000 
#    0.000    0.000    0.000    0.000    0.000    0.000 
#
# Total GULP energy -167229.358348 kJ/mol
# GULP energy per Si atom -5574.311945 kJ/mol
# Density = 2.305004 g / cm^3
# Si number density = 23.102618 Si / 1000 Ang^3
#
#
#
# Elastic Constant Matrix: (Units=GPa)
#
#
# Indices 1 2 3 4 5 6 
#
# 1 56.3215 -0.3897 2.8332 0.0000 0.0000 0.0000
# 2 -0.3897 136.0130 40.9482 0.0000 0.0000 0.0000
# 3 2.8332 40.9482 121.9237 0.0000 0.0000 0.0000
# 4 0.0000 0.0000 0.0000 -31.5900 0.0000 0.0000
# 5 0.0000 0.0000 0.0000 0.0000 39.3777 0.0000
# 6 0.0000 0.0000 0.0000 0.0000 0.0000 52.1420
#
#
#
# Elastic Compliance Matrix: (Units=1/GPa)
#
#
# Indices 1 2 3 4 5 6 
#
# 1 0.017781 0.000195 -0.000479 0.000000 0.000000 0.000000
# 2 0.000195 0.008181 -0.002752 0.000000 0.000000 0.000000
# 3 -0.000479 -0.002752 0.009137 0.000000 0.000000 0.000000
# 4 0.000000 0.000000 0.000000 -0.031656 0.000000 0.000000
# 5 0.000000 0.000000 0.000000 0.000000 0.025395 0.000000
# 6 0.000000 0.000000 0.000000 0.000000 0.000000 0.019178
#
#
# Mechanical properties :
#
#
# Convention : Reuss Voigt Hill
#
# Bulk Modulus (GPa) = 34.45002 44.56019 39.50510
# Shear Modulus (GPa) = 78.41298 30.04369 54.22834
#
# Velocity S-wave (km/s) = 5.83223 3.61008 4.85013
# Velocity P-wave (km/s) = 7.76513 6.05861 6.96434
#
# Compressibility (1/GPa) = 0.02902756
#
# Stress axis : x y z
#
# Youngs Moduli (GPa) = 56.24099 122.22854 109.44124
#
# Poissons Ratio (x) = -0.02384 0.05239
# Poissons Ratio (y) = -0.01097 0.30121
# Poissons Ratio (z) = 0.02692 0.33641
#
# Static dielectric constant tensor:
#      x y z
#    x 2.080470 0.000000 0.000000 
#    y 0.000000 1.862450 0.000000 
#    z 0.000000 0.000000 2.080230 
# 
# From -- ./inp_files/24295.got.cif
#   From: 2010.05.17/outbox.cif.g08.bks.cpg/sg21_13_cif.got.tgz:24295.got - 2010.06.03 23:14:55.
