data_PCOD9325783
_publ_section_title
;
Structure prediction by ZEFSAII (Michael W. Deem and Ramdas Pophale) SiO2 
 PCOD9325783
Probable space group: C 2 2 2
;
_chemical_formula_sum "Si O2"
_cell_formula_units_Z 30
_cell_length_a 12.437828
_cell_length_b 8.694518
_cell_length_c 13.037154
_cell_angle_alpha 90.000000
_cell_angle_beta 90.000000
_cell_angle_gamma 90.000000
_cell_volume 1409.849820
_symmetry_space_group_name_H-M "C 2 2 2"
_symmetry_group_IT_number 21
_symmetry_cell_setting 'orthorhombic'
loop_
_space_group_symop_operation_xyz
x,y,z
-x,-y,z
x,-y,-z
-x,y,-z
1/2+x,1/2+y,z
1/2-x,1/2-y,z
1/2+x,1/2-y,-z
1/2-x,1/2+y,-z
loop_
_atom_site_type_symbol
_atom_site_label
_atom_site_fract_x
_atom_site_fract_y
_atom_site_fract_z
Si Si1 0.500000 0.000000 0.500000
Si Si2 0.331691 0.125982 0.186448
Si Si3 0.458197 0.328902 0.849804
Si Si4 0.190605 0.000000 0.000000
Si Si5 0.853041 0.337538 0.336872
O O1 0.430950 0.888392 0.427356
O O2 0.250000 0.250000 0.232541
O O3 0.443460 0.206088 0.150565
O O4 0.266921 0.060311 0.089337
O O5 0.343101 0.992736 0.269331
O O6 0.500000 0.500000 0.831013
O O7 0.391684 0.280066 0.750990
O O8 0.383422 0.363467 0.950137
O O9 0.750000 0.250000 0.381303
#
# Coordination Sequence:
#
# PCOD9325783 Si02
#       5
#     2   8   8   4   8
#     4  12  28  52  86 112 152 204 270 328 408 436
#     4  12  26  44  73 106 156 204 258 309 381 469
#     4  12  25  46  71 106 155 201 257 313 372 473
#     4  12  27  42  75 110 164 209 252 303 398 454
#     4  12  26  53  79 109 154 199 266 327 389 457
#
# _framework density 21.278860999999999
#
# number of rings (size 3 to 8) (size 9 to 14) (size 15 to 20)
#    0.000    0.000    8.000    0.400    3.733    1.067 
#    9.600    0.000    0.000    0.000    0.000    0.000 
#    0.000    0.000    0.000    0.000    0.000    0.000 
#
# Total GULP energy -83798.889440 kJ/mol
# GULP energy per Si atom -5586.592629 kJ/mol
# Density = 2.123043 g / cm^3
# Si number density = 21.278861 Si / 1000 Ang^3
#
#
#
# Elastic Constant Matrix: (Units=GPa)
#
#
# Indices 1 2 3 4 5 6 
#
# 1 131.5475 44.1688 66.4420 0.0000 0.0000 0.0000
# 2 44.1688 105.8047 62.6408 0.0000 0.0000 0.0000
# 3 66.4420 62.6408 138.6913 0.0000 0.0000 0.0000
# 4 0.0000 0.0000 0.0000 9.8700 0.0000 0.0000
# 5 0.0000 0.0000 0.0000 0.0000 56.0830 0.0000
# 6 0.0000 0.0000 0.0000 0.0000 0.0000 4.5534
#
#
#
# Elastic Compliance Matrix: (Units=1/GPa)
#
#
# Indices 1 2 3 4 5 6 
#
# 1 0.010295 -0.001881 -0.004083 0.000000 0.000000 0.000000
# 2 -0.001881 0.013245 -0.005081 0.000000 0.000000 0.000000
# 3 -0.004083 -0.005081 0.011461 0.000000 0.000000 0.000000
# 4 0.000000 0.000000 0.000000 0.101317 0.000000 0.000000
# 5 0.000000 0.000000 0.000000 0.000000 0.017831 0.000000
# 6 0.000000 0.000000 0.000000 0.000000 0.000000 0.219614
#
#
# Mechanical properties :
#
#
# Convention : Reuss Voigt Hill
#
# Bulk Modulus (GPa) = 77.44665 80.28297 78.86481
# Shear Modulus (GPa) = 12.49511 27.62076 20.05794
#
# Velocity S-wave (km/s) = 2.42587 3.60674 3.07355
# Velocity P-wave (km/s) = 6.65744 7.42668 7.05256
#
# Compressibility (1/GPa) = 0.01291211
#
# Stress axis : x y z
#
# Youngs Moduli (GPa) = 97.13090 75.50183 87.25229
#
# Poissons Ratio (x) = 0.14200 0.35622
# Poissons Ratio (y) = 0.18268 0.44333
# Poissons Ratio (z) = 0.39656 0.38363
#
# Static dielectric constant tensor:
#      x y z
#    x 1.885420 0.000000 0.000000 
#    y 0.000000 1.805650 0.000000 
#    z 0.000000 0.000000 1.819460 
# 
# From -- ./inp_files/24730.got.cif
#   From: 2010.05.17/outbox.cif.g08.bks.cpg/sg21_13_cif.got.tgz:24730.got - 2010.06.03 23:14:55.
