data_PCOD9325689
_publ_section_title
;
Structure prediction by ZEFSAII (Michael W. Deem and Ramdas Pophale) SiO2 
 PCOD9325689
Probable space group: C 2 2 2
;
_chemical_formula_sum "Si O2"
_cell_formula_units_Z 40
_cell_length_a 13.902035
_cell_length_b 14.651310
_cell_length_c 8.361984
_cell_angle_alpha 90.000000
_cell_angle_beta 90.000000
_cell_angle_gamma 90.000000
_cell_volume 1703.194191
_symmetry_space_group_name_H-M "C 2 2 2"
_symmetry_group_IT_number 21
_symmetry_cell_setting 'orthorhombic'
loop_
_space_group_symop_operation_xyz
x,y,z
-x,-y,z
x,-y,-z
-x,y,-z
1/2+x,1/2+y,z
1/2-x,1/2-y,z
1/2+x,1/2-y,-z
1/2-x,1/2+y,-z
loop_
_atom_site_type_symbol
_atom_site_label
_atom_site_fract_x
_atom_site_fract_y
_atom_site_fract_z
Si Si1 0.663867 0.903484 0.751291
Si Si2 0.000000 0.210010 0.000000
Si Si3 0.706440 0.351773 0.968001
Si Si4 0.473111 0.165051 0.316626
Si Si5 0.250000 0.250000 0.569360
Si Si6 0.258578 0.915820 0.637835
O O1 0.715572 0.901392 0.919825
O O2 0.550700 0.912399 0.733926
O O3 0.676853 0.800758 0.685170
O O4 0.720548 0.974198 0.638018
O O5 0.901210 0.156297 0.035966
O O6 0.023808 0.267784 0.162358
O O7 0.750000 0.250000 0.942759
O O8 0.701271 0.404465 0.802851
O O9 0.500000 0.195720 0.500000
O O10 0.366168 0.124924 0.335444
O O11 0.210195 0.165754 0.467084
#
# Coordination Sequence:
#
# PCOD9325689 Si02
#       6
#     8   4   8   8   4   8
#     4  12  25  43  69 104 142 185 240 294 361 434
#     4  12  24  46  72 108 148 186 248 302 354 442
#     4  12  23  46  71  99 140 192 234 293 360 419
#     4  12  23  40  72 110 145 184 232 305 382 431
#     4  12  22  40  62  94 146 184 222 292 360 414
#     4  12  25  43  69 104 142 185 240 294 361 434
#
# _framework density 23.485284
#
# number of rings (size 3 to 8) (size 9 to 14) (size 15 to 20)
#    0.000    0.000    8.000    1.800    0.000    0.800 
#    0.000    5.000    0.000    0.000    0.000   11.200 
#    0.000    0.000    0.000    0.000    0.000    0.000 
#
# Total GULP energy -111453.736911 kJ/mol
# GULP energy per Si atom -5572.686846 kJ/mol
# Density = 2.343183 g / cm^3
# Si number density = 23.485284 Si / 1000 Ang^3
#
#
#
# Elastic Constant Matrix: (Units=GPa)
#
#
# Indices 1 2 3 4 5 6 
#
# 1 89.0220 20.5046 -14.2689 0.0000 0.0000 0.0000
# 2 20.5046 105.4650 19.9976 0.0000 0.0000 0.0000
# 3 -14.2689 19.9976 19.2617 0.0000 0.0000 0.0000
# 4 0.0000 0.0000 0.0000 -21.6412 0.0000 0.0000
# 5 0.0000 0.0000 0.0000 0.0000 30.7853 0.0000
# 6 0.0000 0.0000 0.0000 0.0000 0.0000 19.9242
#
#
#
# Elastic Compliance Matrix: (Units=1/GPa)
#
#
# Indices 1 2 3 4 5 6 
#
# 1 0.015692 -0.006543 0.018418 0.000000 0.000000 0.000000
# 2 -0.006543 0.014534 -0.019937 0.000000 0.000000 0.000000
# 3 0.018418 -0.019937 0.086259 0.000000 0.000000 0.000000
# 4 0.000000 0.000000 0.000000 -0.046208 0.000000 0.000000
# 5 0.000000 0.000000 0.000000 0.000000 0.032483 0.000000
# 6 0.000000 0.000000 0.000000 0.000000 0.000000 0.050190
#
#
# Mechanical properties :
#
#
# Convention : Reuss Voigt Hill
#
# Bulk Modulus (GPa) = 9.96396 29.57949 19.77172
# Shear Modulus (GPa) = 24.68788 18.31467 21.50128
#
# Velocity S-wave (km/s) = 3.24575 2.79558 3.02904
# Velocity P-wave (km/s) = 4.27766 4.80027 4.54648
#
# Compressibility (1/GPa) = 0.10036172
#
# Stress axis : x y z
#
# Youngs Moduli (GPa) = 63.72508 68.80317 11.59301
#
# Poissons Ratio (x) = 0.45020 -0.21352
# Poissons Ratio (y) = 0.41697 0.23113
# Poissons Ratio (z) = -1.17369 1.37171
#
# Static dielectric constant tensor:
#      x y z
#    x 1.916340 0.000000 0.000000 
#    y 0.000000 1.984390 0.000000 
#    z 0.000000 0.000000 2.097980 
# 
# From -- ./inp_files/14591.got.cif
#   From: 2010.05.17/outbox.cif.g08.bks.cpg/sg21_8_cif.got.tgz:14591.got - 2010.06.03 23:14:55.
