data_PCOD9325831
_publ_section_title
;
Structure prediction by ZEFSAII (Michael W. Deem and Ramdas Pophale) SiO2 
 PCOD9325831
Probable space group: C 2 2 2
;
_chemical_formula_sum "Si O2"
_cell_formula_units_Z 32
_cell_length_a 15.000000
_cell_length_b 9.000000
_cell_length_c 24.000000
_cell_angle_alpha 90.000000
_cell_angle_beta 90.000000
_cell_angle_gamma 90.000000
_cell_volume 3240.000000
_symmetry_space_group_name_H-M "C 2 2 2"
_symmetry_group_IT_number 21
_symmetry_cell_setting 'orthorhombic'
loop_
_space_group_symop_operation_xyz
x,y,z
-x,-y,z
x,-y,-z
-x,y,-z
1/2+x,1/2+y,z
1/2-x,1/2-y,z
1/2+x,1/2-y,-z
1/2-x,1/2+y,-z
loop_
_atom_site_type_symbol
_atom_site_label
_atom_site_fract_x
_atom_site_fract_y
_atom_site_fract_z
Si Si1 0.089853 0.567868 0.356489
Si Si2 0.001657 0.179930 0.065057
Si Si3 0.750953 0.928479 0.561216
Si Si4 0.353962 0.281629 0.846871
Si Si5 0.855729 0.722187 0.154263
Si Si6 0.910200 0.924866 0.644975
Si Si7 0.147848 0.032327 0.234320
Si Si8 0.357220 0.026934 0.767288
O O1 0.167868 0.529203 0.399432
O O2 0.086377 0.746395 0.351814
O O3 0.101644 0.506141 0.293384
O O4 0.000000 0.500000 0.379555
O O5 0.917235 0.240069 0.100491
O O6 0.086965 0.231761 0.101171
O O7 0.000000 0.000000 0.065297
O O8 0.000000 0.226678 0.000000
O O9 0.750000 0.750000 0.554245
O O10 0.834576 0.966267 0.600591
O O11 0.751323 0.000000 0.500000
O O12 0.250000 0.250000 0.860328
O O13 0.372330 0.445386 0.823181
O O14 0.371695 0.192730 0.789379
O O15 0.750000 0.750000 0.143997
O O16 0.879746 0.558309 0.175213
O O17 0.875688 0.804388 0.213459
O O18 0.893694 0.985159 0.707619
O O19 0.000000 0.000000 0.624850
O O20 0.253124 0.007704 0.241697
#
# Coordination Sequence:
#
# PCOD9325831 Si02
#       8
#     8   8   8   8   8   8   8   8
#     4  11  24  40  62  97 131 165 206 260 317 370
#     4  11  24  42  64  89 121 168 218 252 303 385
#     4  10  24  48  69  89 129 175 216 257 304 372
#     4  10  21  37  64  91 120 164 204 254 312 377
#     4  10  23  39  60  93 128 162 201 265 316 370
#     4  11  24  39  64  96 128 168 209 259 308 375
#     4  10  19  37  61  92 128 160 208 251 315 377
#     4  10  21  37  60  93 131 159 199 257 326 373
#
# _framework density 9.8765429999999999
#
# number of rings (size 3 to 8) (size 9 to 14) (size 15 to 20)
#    0.000    1.625    3.750    0.000    5.250    2.000 
#    0.000    3.750    0.000    0.000    0.000    0.000 
#    0.000    0.000    0.000    0.000    0.000    0.000 
#
# Total GULP energy -178326.335890 kJ/mol
# GULP energy per Si atom -5572.697997 kJ/mol
# Density = 0.985406 g / cm^3
# Si number density = 9.876543 Si / 1000 Ang^3
#
#
#
# Elastic Constant Matrix: (Units=GPa)
#
#
# Indices 1 2 3 4 5 6 
#
# 1 140.2449 27.3354 97.0777 0.0000 0.0000 0.0000
# 2 27.3354 4.3661 22.2844 0.0000 0.0000 0.0000
# 3 97.0777 22.2844 163.2109 0.0000 0.0000 0.0000
# 4 0.0000 0.0000 0.0000 44.3084 0.0000 0.0000
# 5 0.0000 0.0000 0.0000 0.0000 -6.7939 0.0000
# 6 0.0000 0.0000 0.0000 0.0000 0.0000 20.6056
#
#
#
# Elastic Compliance Matrix: (Units=1/GPa)
#
#
# Indices 1 2 3 4 5 6 
#
# 1 -0.014858 0.158077 -0.012746 0.000000 0.000000 0.000000
# 2 0.158077 -0.926223 0.032440 0.000000 0.000000 0.000000
# 3 -0.012746 0.032440 0.009279 0.000000 0.000000 0.000000
# 4 0.000000 0.000000 0.000000 0.022569 0.000000 0.000000
# 5 0.000000 0.000000 0.000000 0.000000 -0.147190 0.000000
# 6 0.000000 0.000000 0.000000 0.000000 0.000000 0.048531
#
#
# Mechanical properties :
#
#
# Convention : Reuss Voigt Hill
#
# Bulk Modulus (GPa) = -1.73533 66.80188 32.53328
# Shear Modulus (GPa) = -3.21436 22.36563 9.57564
#
# Velocity S-wave (km/s) = -1.27703 3.36856 2.20413
# Velocity P-wave (km/s) = 1.74780 7.00153 4.79409
#
# Compressibility (1/GPa) = -0.57625979
#
# Stress axis : x y z
#
# Youngs Moduli (GPa) = -67.30332 -1.07965 107.76979
#
# Poissons Ratio (x) = 0.17067 1.37362
# Poissons Ratio (y) = 10.63913 -3.49602
# Poissons Ratio (z) = -0.85784 0.03502
#
# Static dielectric constant tensor:
#      x y z
#    x 1.516650 0.000000 0.000000 
#    y 0.000000 1.719940 0.000000 
#    z 0.000000 0.000000 1.613890 
# 
# From -- ./inp_files/38763.got.cif
#   From: 2010.05.17/outbox.ucp.g08.bks.cvg/sg21_20_cif.got.tgz:38763.got - 2010.06.11 15:15:05.
