data_PCOD9325150
_publ_section_title
;
Structure prediction by ZEFSAII (Michael W. Deem and Ramdas Pophale) SiO2 
 PCOD9325150
Probable space group: C 2 2 2
;
_chemical_formula_sum "Si O2"
_cell_formula_units_Z 26
_cell_length_a 13.393447
_cell_length_b 15.279325
_cell_length_c 5.429744
_cell_angle_alpha 90.000000
_cell_angle_beta 90.000000
_cell_angle_gamma 90.000000
_cell_volume 1111.158176
_symmetry_space_group_name_H-M "C 2 2 2"
_symmetry_group_IT_number 21
_symmetry_cell_setting 'orthorhombic'
loop_
_space_group_symop_operation_xyz
x,y,z
-x,-y,z
x,-y,-z
-x,y,-z
1/2+x,1/2+y,z
1/2-x,1/2-y,z
1/2+x,1/2-y,-z
1/2-x,1/2+y,-z
loop_
_atom_site_type_symbol
_atom_site_label
_atom_site_fract_x
_atom_site_fract_y
_atom_site_fract_z
Si Si1 0.250000 0.250000 0.580319
Si Si2 0.324124 0.919673 0.693308
Si Si3 0.844845 0.000000 0.000000
Si Si4 0.559920 0.653841 0.755093
Si Si5 0.500000 0.000000 0.000000
O O1 0.306891 0.173972 0.428470
O O2 0.337343 0.294133 0.734636
O O3 0.319132 0.000000 0.500000
O O4 0.229123 0.932803 0.868377
O O5 0.426699 0.938323 0.839393
O O6 0.908613 0.946395 0.804651
O O7 0.500000 0.663316 0.500000
O O8 0.500000 0.681133 0.000000
#
# Coordination Sequence:
#
# PCOD9325150 Si02
#       5
#     4   8   4   8   2
#     4  12  28  54  80 118 170 210 280 346 410 490
#     4  11  24  52  80 112 168 218 272 347 407 492
#     4  11  25  49  81 110 158 208 272 340 410 484
#     4  12  29  51  83 120 159 215 272 338 413 493
#     4  10  26  48  82 122 158 234 284 328 420 500
#
# _framework density 23.399010000000001
#
# number of rings (size 3 to 8) (size 9 to 14) (size 15 to 20)
#    0.000    0.615    3.077    2.769    0.000   11.077 
#   11.077    0.000    0.000    0.000    0.000    0.000 
#    0.000    0.000    0.000    0.000    0.000    0.000 
#
# Total GULP energy -72817.923666 kJ/mol
# GULP energy per Si atom -5601.378744 kJ/mol
# Density = 2.334575 g / cm^3
# Si number density = 23.399010 Si / 1000 Ang^3
#
#
#
# Elastic Constant Matrix: (Units=GPa)
#
#
# Indices 1 2 3 4 5 6 
#
# 1 203.5336 84.5184 104.9371 0.0000 0.0000 0.0000
# 2 84.5184 152.1033 65.4513 0.0000 0.0000 0.0000
# 3 104.9371 65.4513 157.4346 0.0000 0.0000 0.0000
# 4 0.0000 0.0000 0.0000 40.8467 0.0000 0.0000
# 5 0.0000 0.0000 0.0000 0.0000 61.3075 0.0000
# 6 0.0000 0.0000 0.0000 0.0000 0.0000 167.5261
#
#
#
# Elastic Compliance Matrix: (Units=1/GPa)
#
#
# Indices 1 2 3 4 5 6 
#
# 1 0.008320 -0.002724 -0.004413 0.000000 0.000000 0.000000
# 2 -0.002724 0.008899 -0.001884 0.000000 0.000000 0.000000
# 3 -0.004413 -0.001884 0.010076 0.000000 0.000000 0.000000
# 4 0.000000 0.000000 0.000000 0.024482 0.000000 0.000000
# 5 0.000000 0.000000 0.000000 0.000000 0.016311 0.000000
# 6 0.000000 0.000000 0.000000 0.000000 0.000000 0.005969
#
#
# Mechanical properties :
#
#
# Convention : Reuss Voigt Hill
#
# Bulk Modulus (GPa) = 108.07043 113.65391 110.86217
# Shear Modulus (GPa) = 52.53053 71.14703 61.83878
#
# Velocity S-wave (km/s) = 4.74327 5.52015 5.14639
# Velocity P-wave (km/s) = 8.73409 9.45023 9.09921
#
# Compressibility (1/GPa) = 0.00925322
#
# Stress axis : x y z
#
# Youngs Moduli (GPa) = 120.19950 112.37541 99.24159
#
# Poissons Ratio (x) = 0.30611 0.43794
# Poissons Ratio (y) = 0.32742 0.18696
# Poissons Ratio (z) = 0.53042 0.21170
#
# Static dielectric constant tensor:
#      x y z
#    x 1.863120 0.000000 0.000000 
#    y 0.000000 1.941380 0.000000 
#    z 0.000000 0.000000 1.572210 
# 
# From -- ./inp_files/3276.got.cif
#   From: 2010.05.17/outbox.cif.g08.bks.cpg/sg21_2_cif.got.tgz:3276.got - 2010.06.03 23:14:55.
