data_PCOD9325637
_publ_section_title
;
Structure prediction by ZEFSAII (Michael W. Deem and Ramdas Pophale) SiO2 
 PCOD9325637
Probable space group: C 2 2 2
;
_chemical_formula_sum "Si O2"
_cell_formula_units_Z 30
_cell_length_a 7.773278
_cell_length_b 11.288382
_cell_length_c 16.024508
_cell_angle_alpha 90.000000
_cell_angle_beta 90.000000
_cell_angle_gamma 90.000000
_cell_volume 1406.114225
_symmetry_space_group_name_H-M "C 2 2 2"
_symmetry_group_IT_number 21
_symmetry_cell_setting 'orthorhombic'
loop_
_space_group_symop_operation_xyz
x,y,z
-x,-y,z
x,-y,-z
-x,y,-z
1/2+x,1/2+y,z
1/2-x,1/2-y,z
1/2+x,1/2-y,-z
1/2-x,1/2+y,-z
loop_
_atom_site_type_symbol
_atom_site_label
_atom_site_fract_x
_atom_site_fract_y
_atom_site_fract_z
Si Si1 0.685992 0.615481 0.042349
Si Si2 0.000000 0.500000 0.500000
Si Si3 0.400221 0.154917 0.348258
Si Si4 0.811667 0.003380 0.777111
Si Si5 0.250000 0.750000 0.266774
O O1 0.750000 0.750000 0.034275
O O2 0.674334 0.579458 0.139272
O O3 0.777966 0.500000 0.000000
O O4 0.500000 0.618503 0.000000
O O5 0.095789 0.413342 0.435928
O O6 0.250000 0.250000 0.349933
O O7 0.333573 0.061085 0.279779
O O8 0.582071 0.215782 0.322605
O O9 0.774552 0.865193 0.790418
O O10 0.000000 0.000000 0.734455
#
# Coordination Sequence:
#
# PCOD9325637 Si02
#       5
#     8   2   8   8   4
#     4  11  26  48  70 110 150 197 253 320 379 453
#     4  12  28  48  70 122 146 194 260 308 388 460
#     4  12  27  49  75 110 152 198 250 315 384 460
#     4  12  24  47  77 107 152 196 254 309 381 457
#     4  12  26  48  80 112 146 208 248 316 384 464
#
# _framework density 21.335394999999998
#
# number of rings (size 3 to 8) (size 9 to 14) (size 15 to 20)
#    0.000    0.267    8.000    0.800    3.733    0.533 
#    4.800    1.333    0.000    0.000    0.000    0.000 
#    0.000    0.000    0.000    0.000    0.000    0.000 
#
# Total GULP energy -83733.414065 kJ/mol
# GULP energy per Si atom -5582.227604 kJ/mol
# Density = 2.128683 g / cm^3
# Si number density = 21.335395 Si / 1000 Ang^3
#
#
#
# Elastic Constant Matrix: (Units=GPa)
#
#
# Indices 1 2 3 4 5 6 
#
# 1 146.2374 70.0209 52.2401 0.0000 0.0000 0.0000
# 2 70.0209 234.1844 54.4024 0.0000 0.0000 0.0000
# 3 52.2401 54.4024 125.6932 0.0000 0.0000 0.0000
# 4 0.0000 0.0000 0.0000 46.2939 0.0000 0.0000
# 5 0.0000 0.0000 0.0000 0.0000 29.1845 0.0000
# 6 0.0000 0.0000 0.0000 0.0000 0.0000 31.0189
#
#
#
# Elastic Compliance Matrix: (Units=1/GPa)
#
#
# Indices 1 2 3 4 5 6 
#
# 1 0.008783 -0.001977 -0.002795 0.000000 0.000000 0.000000
# 2 -0.001977 0.005192 -0.001426 0.000000 0.000000 0.000000
# 3 -0.002795 -0.001426 0.009735 0.000000 0.000000 0.000000
# 4 0.000000 0.000000 0.000000 0.021601 0.000000 0.000000
# 5 0.000000 0.000000 0.000000 0.000000 0.034265 0.000000
# 6 0.000000 0.000000 0.000000 0.000000 0.000000 0.032238
#
#
# Mechanical properties :
#
#
# Convention : Reuss Voigt Hill
#
# Bulk Modulus (GPa) = 88.37636 95.49354 91.93495
# Shear Modulus (GPa) = 39.06831 43.26291 41.16561
#
# Velocity S-wave (km/s) = 4.28384 4.50794 4.39732
# Velocity P-wave (km/s) = 8.12285 8.48238 8.30456
#
# Compressibility (1/GPa) = 0.01131524
#
# Stress axis : x y z
#
# Youngs Moduli (GPa) = 113.85445 192.58751 102.72714
#
# Poissons Ratio (x) = 0.38073 0.28710
# Poissons Ratio (y) = 0.22508 0.14646
# Poissons Ratio (z) = 0.31820 0.27458
#
# Static dielectric constant tensor:
#      x y z
#    x 1.809750 0.000000 0.000000 
#    y 0.000000 1.865000 0.000000 
#    z 0.000000 0.000000 1.742070 
# 
# From -- ./inp_files/29860.got.cif
#   From: 2010.05.17/outbox.cif.g08.bks.cpg/sg21_15_cif.got.tgz:29860.got - 2010.06.03 23:14:55.
