data_PCOD9325133
_publ_section_title
;
Structure prediction by ZEFSAII (Michael W. Deem and Ramdas Pophale) SiO2 
 PCOD9325133
Probable space group: C 2 2 2
;
_chemical_formula_sum "Si O2"
_cell_formula_units_Z 26
_cell_length_a 14.042008
_cell_length_b 13.692350
_cell_length_c 6.386250
_cell_angle_alpha 90.000000
_cell_angle_beta 90.000000
_cell_angle_gamma 90.000000
_cell_volume 1227.872079
_symmetry_space_group_name_H-M "C 2 2 2"
_symmetry_group_IT_number 21
_symmetry_cell_setting 'orthorhombic'
loop_
_space_group_symop_operation_xyz
x,y,z
-x,-y,z
x,-y,-z
-x,y,-z
1/2+x,1/2+y,z
1/2-x,1/2-y,z
1/2+x,1/2-y,-z
1/2-x,1/2+y,-z
loop_
_atom_site_type_symbol
_atom_site_label
_atom_site_fract_x
_atom_site_fract_y
_atom_site_fract_z
Si Si1 0.500000 0.500000 0.000000
Si Si2 0.000000 0.660696 0.000000
Si Si3 0.750000 0.750000 0.487834
Si Si4 0.399530 0.095091 0.621496
Si Si5 0.571577 0.333838 0.701874
O O1 0.557484 0.427652 0.848070
O O2 0.929701 0.594334 0.863223
O O3 0.048491 0.736742 0.837857
O O4 0.674659 0.816999 0.607725
O O5 0.680823 0.677754 0.363033
O O6 0.500000 0.111681 0.500000
O O7 0.360907 0.000000 0.500000
O O8 0.500000 0.340012 0.500000
#
# Coordination Sequence:
#
# PCOD9325133 Si02
#       5
#     2   4   4   8   8
#     4  10  26  44  74 102 138 202 228 276 362 430
#     4  11  20  48  73  96 140 194 227 279 366 410
#     4  12  22  48  70 106 148 176 230 312 346 398
#     4  11  25  46  70 105 142 186 233 295 349 419
#     4  11  23  46  71 103 146 181 233 296 346 418
#
# _framework density 21.174844
#
# number of rings (size 3 to 8) (size 9 to 14) (size 15 to 20)
#    0.000    0.923    6.154    0.462    0.000    6.154 
#    5.538    0.000    0.000    0.000    0.000    0.000 
#    0.000    0.000    0.000    0.000    0.000    0.000 
#
# Total GULP energy -72496.725790 kJ/mol
# GULP energy per Si atom -5576.671215 kJ/mol
# Density = 2.112665 g / cm^3
# Si number density = 21.174844 Si / 1000 Ang^3
#
#
#
# Elastic Constant Matrix: (Units=GPa)
#
#
# Indices 1 2 3 4 5 6 
#
# 1 119.8690 35.3732 45.6423 0.0000 0.0000 0.0000
# 2 35.3732 138.6054 64.5835 0.0000 0.0000 0.0000
# 3 45.6423 64.5835 134.7112 0.0000 0.0000 0.0000
# 4 0.0000 0.0000 0.0000 4.8658 0.0000 0.0000
# 5 0.0000 0.0000 0.0000 0.0000 19.9703 0.0000
# 6 0.0000 0.0000 0.0000 0.0000 0.0000 14.2172
#
#
#
# Elastic Compliance Matrix: (Units=1/GPa)
#
#
# Indices 1 2 3 4 5 6 
#
# 1 0.009736 -0.001220 -0.002714 0.000000 0.000000 0.000000
# 2 -0.001220 0.009443 -0.004114 0.000000 0.000000 0.000000
# 3 -0.002714 -0.004114 0.010315 0.000000 0.000000 0.000000
# 4 0.000000 0.000000 0.000000 0.205516 0.000000 0.000000
# 5 0.000000 0.000000 0.000000 0.000000 0.050074 0.000000
# 6 0.000000 0.000000 0.000000 0.000000 0.000000 0.070337
#
#
# Mechanical properties :
#
#
# Convention : Reuss Voigt Hill
#
# Bulk Modulus (GPa) = 74.63531 76.04262 75.33896
# Shear Modulus (GPa) = 13.29850 24.31645 18.80748
#
# Velocity S-wave (km/s) = 2.50878 3.39243 2.98350
# Velocity P-wave (km/s) = 6.61178 7.16481 6.89384
#
# Compressibility (1/GPa) = 0.01339848
#
# Stress axis : x y z
#
# Youngs Moduli (GPa) = 102.71376 105.89923 96.94692
#
# Poissons Ratio (x) = 0.12922 0.26308
# Poissons Ratio (y) = 0.12533 0.39881
# Poissons Ratio (z) = 0.27873 0.43564
#
# Static dielectric constant tensor:
#      x y z
#    x 1.851320 0.000000 0.000000 
#    y 0.000000 1.838660 0.000000 
#    z 0.000000 0.000000 1.878950 
# 
# From -- ./inp_files/3277.got.cif
#   From: 2010.05.17/outbox.cif.g08.bks.cpg/sg21_2_cif.got.tgz:3277.got - 2010.06.03 23:14:55.
