data_PCOD9325225
_publ_section_title
;
Structure prediction by ZEFSAII (Michael W. Deem and Ramdas Pophale) SiO2 
 PCOD9325225
Probable space group: C 2 2 2
;
_chemical_formula_sum "Si O2"
_cell_formula_units_Z 56
_cell_length_a 9.366846
_cell_length_b 20.083915
_cell_length_c 13.812381
_cell_angle_alpha 90.000000
_cell_angle_beta 90.000000
_cell_angle_gamma 90.000000
_cell_volume 2598.425707
_symmetry_space_group_name_H-M "C 2 2 2"
_symmetry_group_IT_number 21
_symmetry_cell_setting 'orthorhombic'
loop_
_space_group_symop_operation_xyz
x,y,z
-x,-y,z
x,-y,-z
-x,y,-z
1/2+x,1/2+y,z
1/2-x,1/2-y,z
1/2+x,1/2-y,-z
1/2-x,1/2+y,-z
loop_
_atom_site_type_symbol
_atom_site_label
_atom_site_fract_x
_atom_site_fract_y
_atom_site_fract_z
Si Si1 0.776167 0.146433 0.873209
Si Si2 0.326146 0.504336 0.162813
Si Si3 0.444417 0.683219 0.235443
Si Si4 0.994821 0.330723 0.764112
Si Si5 0.215661 0.358806 0.912412
Si Si6 0.868350 0.547069 0.652966
Si Si7 0.074090 0.072691 0.596023
O O1 0.777092 0.066566 0.875338
O O2 0.672312 0.167941 0.786488
O O3 0.931163 0.170292 0.841891
O O4 0.736925 0.168888 0.980950
O O5 0.500000 0.500000 0.172173
O O6 0.278697 0.566173 0.096105
O O7 0.232187 0.516601 0.260499
O O8 0.462493 0.757871 0.272347
O O9 0.303119 0.677876 0.171864
O O10 0.445138 0.624755 0.315690
O O11 0.057381 0.351104 0.870510
O O12 0.057094 0.386646 0.693856
O O13 0.743415 0.563391 0.577506
O O14 0.000000 0.500000 0.625584
O O15 0.000000 0.099960 0.500000
O O16 0.000000 0.000000 0.613079
#
# Coordination Sequence:
#
# PCOD9325225 Si02
#       7
#     8   8   8   8   8   8   8
#     4  12  23  38  60  94 140 183 234 279 325 390
#     4  11  20  37  60  94 130 178 232 284 326 390
#     4  12  24  41  68  94 133 182 226 278 335 400
#     4  11  25  40  61  96 141 181 221 270 335 396
#     4  11  24  36  62  95 133 188 233 277 325 391
#     4  11  21  41  74 101 132 173 213 273 343 398
#     4  11  25  48  78 101 126 167 220 278 343 412
#
# _framework density 21.551511000000001
#
# number of rings (size 3 to 8) (size 9 to 14) (size 15 to 20)
#    0.000    0.714    5.714    3.429    0.000    4.000 
#    0.000    2.857    6.286    0.000    0.000    0.000 
#    0.000    0.000    0.000    0.000    0.000    0.000 
#
# Total GULP energy -156405.688894 kJ/mol
# GULP energy per Si atom -5585.917461 kJ/mol
# Density = 2.150246 g / cm^3
# Si number density = 21.551511 Si / 1000 Ang^3
#
#
#
# Elastic Constant Matrix: (Units=GPa)
#
#
# Indices 1 2 3 4 5 6 
#
# 1 65.8787 6.7857 19.1501 0.0000 0.0000 0.0000
# 2 6.7857 133.9673 14.7714 0.0000 0.0000 0.0000
# 3 19.1501 14.7714 63.2951 0.0000 0.0000 0.0000
# 4 0.0000 0.0000 0.0000 -9.8020 0.0000 0.0000
# 5 0.0000 0.0000 0.0000 0.0000 21.1422 0.0000
# 6 0.0000 0.0000 0.0000 0.0000 0.0000 29.3410
#
#
#
# Elastic Compliance Matrix: (Units=1/GPa)
#
#
# Indices 1 2 3 4 5 6 
#
# 1 0.016655 -0.000296 -0.004970 0.000000 0.000000 0.000000
# 2 -0.000296 0.007667 -0.001700 0.000000 0.000000 0.000000
# 3 -0.004970 -0.001700 0.017699 0.000000 0.000000 0.000000
# 4 0.000000 0.000000 0.000000 -0.102020 0.000000 0.000000
# 5 0.000000 0.000000 0.000000 0.000000 0.047299 0.000000
# 6 0.000000 0.000000 0.000000 0.000000 0.000000 0.034082
#
#
# Mechanical properties :
#
#
# Convention : Reuss Voigt Hill
#
# Bulk Modulus (GPa) = 35.59963 38.28396 36.94179
# Shear Modulus (GPa) = 111.91758 22.96517 67.44137
#
# Velocity S-wave (km/s) = 7.21408 3.26789 5.60009
# Velocity P-wave (km/s) = 9.27065 5.66050 7.68070
#
# Compressibility (1/GPa) = 0.02809018
#
# Stress axis : x y z
#
# Youngs Moduli (GPa) = 60.04369 130.43080 56.49922
#
# Poissons Ratio (x) = 0.03856 0.28080
# Poissons Ratio (y) = 0.01775 0.09604
# Poissons Ratio (z) = 0.29841 0.22171
#
# Static dielectric constant tensor:
#      x y z
#    x 1.776880 0.000000 0.000000 
#    y 0.000000 1.800850 0.000000 
#    z 0.000000 0.000000 1.798610 
# 
# From -- ./inp_files/30757.got.cif
#   From: 2010.05.17/outbox.cif.g08.bks.cpg/sg21_16_cif.got.tgz:30757.got - 2010.06.03 23:14:55.
