data_PCOD9325683
_publ_section_title
;
Structure prediction by ZEFSAII (Michael W. Deem and Ramdas Pophale) SiO2 
 PCOD9325683
Probable space group: C 2 2 2
;
_chemical_formula_sum "Si O2"
_cell_formula_units_Z 40
_cell_length_a 24.219155
_cell_length_b 9.134132
_cell_length_c 10.009251
_cell_angle_alpha 90.000000
_cell_angle_beta 90.000000
_cell_angle_gamma 90.000000
_cell_volume 2214.256102
_symmetry_space_group_name_H-M "C 2 2 2"
_symmetry_group_IT_number 21
_symmetry_cell_setting 'orthorhombic'
loop_
_space_group_symop_operation_xyz
x,y,z
-x,-y,z
x,-y,-z
-x,y,-z
1/2+x,1/2+y,z
1/2-x,1/2-y,z
1/2+x,1/2-y,-z
1/2-x,1/2+y,-z
loop_
_atom_site_type_symbol
_atom_site_label
_atom_site_fract_x
_atom_site_fract_y
_atom_site_fract_z
Si Si1 0.380678 0.246048 0.984924
Si Si2 0.121673 0.479178 0.226942
Si Si3 0.738860 0.923316 0.359989
Si Si4 0.223816 0.906529 0.113755
Si Si5 0.500000 0.754991 0.000000
Si Si6 0.000000 0.500000 0.770727
O O1 0.332824 0.358523 0.954727
O O2 0.440972 0.319666 0.989919
O O3 0.376912 0.123675 0.867164
O O4 0.375129 0.156768 0.123205
O O5 0.175463 0.462754 0.318885
O O6 0.060708 0.488648 0.296032
O O7 0.750000 0.750000 0.365391
O O8 0.751102 0.000000 0.500000
O O9 0.776490 0.994445 0.244121
O O10 0.250000 0.750000 0.147596
O O11 0.255926 0.000000 0.000000
O O12 0.499553 0.861748 0.871268
#
# Coordination Sequence:
#
# PCOD9325683 Si02
#       6
#     8   8   8   8   4   4
#     4   9  16  29  55  83 116 148 186 231 286 342
#     4   9  16  32  54  84 115 149 186 241 286 344
#     4  12  26  41  56  80 118 157 198 247 302 355
#     4  12  22  35  56  84 114 152 192 235 284 349
#     4   7  12  24  45  82 116 144 174 228 286 334
#     4   7  12  24  51  80 112 142 184 234 288 328
#
# _framework density 18.064758000000001
#
# number of rings (size 3 to 8) (size 9 to 14) (size 15 to 20)
#    0.000    2.200    2.000    6.000    0.000    0.000 
#    0.000    1.000    0.000    0.000    0.000    0.000 
#    0.000    0.000    0.000    0.000    0.000    0.000 
#
# Total GULP energy -111357.481175 kJ/mol
# GULP energy per Si atom -5567.874059 kJ/mol
# Density = 1.802364 g / cm^3
# Si number density = 18.064758 Si / 1000 Ang^3
#
#
#
# Elastic Constant Matrix: (Units=GPa)
#
#
# Indices 1 2 3 4 5 6 
#
# 1 97.0394 18.3919 -5.8032 0.0000 0.0000 0.0000
# 2 18.3919 112.0343 35.4309 0.0000 0.0000 0.0000
# 3 -5.8032 35.4309 69.8655 0.0000 0.0000 0.0000
# 4 0.0000 0.0000 0.0000 26.4430 0.0000 0.0000
# 5 0.0000 0.0000 0.0000 0.0000 3.3292 0.0000
# 6 0.0000 0.0000 0.0000 0.0000 0.0000 21.3439
#
#
#
# Elastic Compliance Matrix: (Units=1/GPa)
#
#
# Indices 1 2 3 4 5 6 
#
# 1 0.010903 -0.002473 0.002160 0.000000 0.000000 0.000000
# 2 -0.002473 0.011192 -0.005881 0.000000 0.000000 0.000000
# 3 0.002160 -0.005881 0.017475 0.000000 0.000000 0.000000
# 4 0.000000 0.000000 0.000000 0.037817 0.000000 0.000000
# 5 0.000000 0.000000 0.000000 0.000000 0.300369 0.000000
# 6 0.000000 0.000000 0.000000 0.000000 0.000000 0.046852
#
#
# Mechanical properties :
#
#
# Convention : Reuss Voigt Hill
#
# Bulk Modulus (GPa) = 36.79010 41.66426 39.22718
# Shear Modulus (GPa) = 11.20933 25.61786 18.41360
#
# Velocity S-wave (km/s) = 2.49370 3.76987 3.19613
# Velocity P-wave (km/s) = 5.35736 6.48561 5.94829
#
# Compressibility (1/GPa) = 0.02718123
#
# Stress axis : x y z
#
# Youngs Moduli (GPa) = 91.71846 89.35221 57.22449
#
# Poissons Ratio (x) = 0.22096 -0.12359
# Poissons Ratio (y) = 0.22681 0.33654
# Poissons Ratio (z) = -0.19808 0.52548
#
# Static dielectric constant tensor:
#      x y z
#    x 1.756270 0.000000 0.000000 
#    y 0.000000 1.609520 0.000000 
#    z 0.000000 0.000000 1.595910 
# 
# From -- ./inp_files/18979.got.cif
#   From: 2010.05.17/outbox.cif.g08.bks.cpg/sg21_10_cif.got.tgz:18979.got - 2010.06.03 23:14:55.
