data_PCOD9325486
_publ_section_title
;
Structure prediction by ZEFSAII (Michael W. Deem and Ramdas Pophale) SiO2 
 PCOD9325486
Probable space group: C 2 2 2
;
_chemical_formula_sum "Si O2"
_cell_formula_units_Z 32
_cell_length_a 8.964824
_cell_length_b 12.030013
_cell_length_c 12.733371
_cell_angle_alpha 90.000000
_cell_angle_beta 90.000000
_cell_angle_gamma 90.000000
_cell_volume 1373.255216
_symmetry_space_group_name_H-M "C 2 2 2"
_symmetry_group_IT_number 21
_symmetry_cell_setting 'orthorhombic'
loop_
_space_group_symop_operation_xyz
x,y,z
-x,-y,z
x,-y,-z
-x,y,-z
1/2+x,1/2+y,z
1/2-x,1/2-y,z
1/2+x,1/2-y,-z
1/2-x,1/2+y,-z
loop_
_atom_site_type_symbol
_atom_site_label
_atom_site_fract_x
_atom_site_fract_y
_atom_site_fract_z
Si Si1 0.647258 0.142785 0.293546
Si Si2 0.000000 0.357651 0.500000
Si Si3 0.250000 0.750000 0.642895
Si Si4 0.937416 0.625729 0.104619
Si Si5 0.839628 0.054725 0.801019
O O1 0.750000 0.250000 0.311540
O O2 0.596093 0.091306 0.404751
O O3 0.510671 0.170486 0.212944
O O4 0.744291 0.050388 0.236638
O O5 0.882418 0.288862 0.567609
O O6 0.181115 0.852383 0.710270
O O7 0.758618 0.613002 0.107192
O O8 0.000000 0.500000 0.102499
O O9 0.000000 0.682967 0.000000
O O10 0.000000 0.000000 0.823600
#
# Coordination Sequence:
#
# PCOD9325486 Si02
#       5
#     8   4   4   8   8
#     4  11  23  45  66  99 138 185 238 288 362 425
#     4  12  24  43  65  98 140 188 233 293 356 426
#     4  12  26  44  66 104 152 188 242 294 356 428
#     4   9  20  44  71  95 135 187 231 294 362 423
#     4  11  25  44  71 104 142 185 239 297 352 435
#
# _framework density 23.302295999999998
#
# number of rings (size 3 to 8) (size 9 to 14) (size 15 to 20)
#    0.000    1.250    3.750    1.500    0.000    2.000 
#    2.250   10.000    0.000    0.000    0.000    0.000 
#    0.000    0.000    0.000    0.000    0.000    0.000 
#
# Total GULP energy -89252.009549 kJ/mol
# GULP energy per Si atom -5578.250597 kJ/mol
# Density = 2.324926 g / cm^3
# Si number density = 23.302296 Si / 1000 Ang^3
#
#
#
# Elastic Constant Matrix: (Units=GPa)
#
#
# Indices 1 2 3 4 5 6 
#
# 1 182.5222 33.6479 64.7647 0.0000 0.0000 0.0000
# 2 33.6479 89.3453 7.0998 0.0000 0.0000 0.0000
# 3 64.7647 7.0998 141.6363 0.0000 0.0000 0.0000
# 4 0.0000 0.0000 0.0000 21.4221 0.0000 0.0000
# 5 0.0000 0.0000 0.0000 0.0000 32.2398 0.0000
# 6 0.0000 0.0000 0.0000 0.0000 0.0000 43.3718
#
#
#
# Elastic Compliance Matrix: (Units=1/GPa)
#
#
# Indices 1 2 3 4 5 6 
#
# 1 0.007016 -0.002397 -0.003088 0.000000 0.000000 0.000000
# 2 -0.002397 0.012056 0.000492 0.000000 0.000000 0.000000
# 3 -0.003088 0.000492 0.008448 0.000000 0.000000 0.000000
# 4 0.000000 0.000000 0.000000 0.046681 0.000000 0.000000
# 5 0.000000 0.000000 0.000000 0.000000 0.031018 0.000000
# 6 0.000000 0.000000 0.000000 0.000000 0.000000 0.023056
#
#
# Mechanical properties :
#
#
# Convention : Reuss Voigt Hill
#
# Bulk Modulus (GPa) = 57.03383 69.39208 63.21295
# Shear Modulus (GPa) = 34.69648 39.93949 37.31799
#
# Velocity S-wave (km/s) = 3.86291 4.14451 4.00618
# Velocity P-wave (km/s) = 6.66520 7.26266 6.97033
#
# Compressibility (1/GPa) = 0.01753345
#
# Stress axis : x y z
#
# Youngs Moduli (GPa) = 142.52176 82.94491 118.37394
#
# Poissons Ratio (x) = 0.19882 0.36556
# Poissons Ratio (y) = 0.34163 -0.05821
# Poissons Ratio (z) = 0.44014 -0.04079
#
# Static dielectric constant tensor:
#      x y z
#    x 1.935460 0.000000 0.000000 
#    y 0.000000 1.914570 0.000000 
#    z 0.000000 0.000000 1.946820 
# 
# From -- ./inp_files/22012.got.cif
#   From: 2010.05.17/outbox.cif.g08.bks.cpg/sg21_12_cif.got.tgz:22012.got - 2010.06.03 23:14:55.
