data_PCOD9325780
_publ_section_title
;
Structure prediction by ZEFSAII (Michael W. Deem and Ramdas Pophale) SiO2 
 PCOD9325780
Probable space group: C 2 2 2
;
_chemical_formula_sum "Si O2"
_cell_formula_units_Z 22
_cell_length_a 14.124678
_cell_length_b 14.505129
_cell_length_c 4.967780
_cell_angle_alpha 90.000000
_cell_angle_beta 90.000000
_cell_angle_gamma 90.000000
_cell_volume 1017.800140
_symmetry_space_group_name_H-M "C 2 2 2"
_symmetry_group_IT_number 21
_symmetry_cell_setting 'orthorhombic'
loop_
_space_group_symop_operation_xyz
x,y,z
-x,-y,z
x,-y,-z
-x,y,-z
1/2+x,1/2+y,z
1/2-x,1/2-y,z
1/2+x,1/2-y,-z
1/2-x,1/2+y,-z
loop_
_atom_site_type_symbol
_atom_site_label
_atom_site_fract_x
_atom_site_fract_y
_atom_site_fract_z
Si Si1 0.346309 0.907283 0.617637
Si Si2 0.934199 0.253328 0.260505
Si Si3 0.750000 0.250000 0.974092
Si Si4 0.500000 0.000000 0.000000
O O1 0.395140 0.849554 0.379234
O O2 0.286111 0.833307 0.785820
O O3 0.429459 0.943184 0.809832
O O4 0.298654 0.000000 0.500000
O O5 0.000000 0.213025 0.500000
O O6 0.835430 0.210636 0.157624
O O7 0.000000 0.259264 0.000000
#
# Coordination Sequence:
#
# PCOD9325780 Si02
#       4
#     8   8   4   2
#     4  12  25  41  71 110 158 192 245 306 379 443
#     4  12  25  44  69 105 155 198 246 304 370 443
#     4  12  26  44  68 114 158 202 242 308 384 450
#     4  12  26  44  74 112 160 190 242 320 378 432
#
# _framework density 21.615247
#
# number of rings (size 3 to 8) (size 9 to 14) (size 15 to 20)
#    0.000    0.000    3.636    8.182    2.545    0.000 
#    0.000    0.000    0.000    0.000    0.000   57.273 
#    0.000    0.000    0.000    0.000    0.000    0.000 
#
# Total GULP energy -61497.664080 kJ/mol
# GULP energy per Si atom -5590.696735 kJ/mol
# Density = 2.156605 g / cm^3
# Si number density = 21.615247 Si / 1000 Ang^3
#
#
#
# Elastic Constant Matrix: (Units=GPa)
#
#
# Indices 1 2 3 4 5 6 
#
# 1 152.1524 50.2978 74.8457 0.0000 0.0000 0.0000
# 2 50.2978 92.3400 41.2107 0.0000 0.0000 0.0000
# 3 74.8457 41.2107 172.3902 0.0000 0.0000 0.0000
# 4 0.0000 0.0000 0.0000 42.4151 0.0000 0.0000
# 5 0.0000 0.0000 0.0000 0.0000 61.9639 0.0000
# 6 0.0000 0.0000 0.0000 0.0000 0.0000 44.7884
#
#
#
# Elastic Compliance Matrix: (Units=1/GPa)
#
#
# Indices 1 2 3 4 5 6 
#
# 1 0.009352 -0.003674 -0.003182 0.000000 0.000000 0.000000
# 2 -0.003674 0.013566 -0.001648 0.000000 0.000000 0.000000
# 3 -0.003182 -0.001648 0.007576 0.000000 0.000000 0.000000
# 4 0.000000 0.000000 0.000000 0.023577 0.000000 0.000000
# 5 0.000000 0.000000 0.000000 0.000000 0.016138 0.000000
# 6 0.000000 0.000000 0.000000 0.000000 0.000000 0.022327
#
#
# Mechanical properties :
#
#
# Convention : Reuss Voigt Hill
#
# Bulk Modulus (GPa) = 74.14754 83.28788 78.71771
# Shear Modulus (GPa) = 43.84401 46.53537 45.18969
#
# Velocity S-wave (km/s) = 4.50864 4.64496 4.57731
# Velocity P-wave (km/s) = 7.84102 8.20873 8.02698
#
# Compressibility (1/GPa) = 0.01348662
#
# Stress axis : x y z
#
# Youngs Moduli (GPa) = 106.92647 73.71224 131.99054
#
# Poissons Ratio (x) = 0.27082 0.42001
# Poissons Ratio (y) = 0.39285 0.21751
# Poissons Ratio (z) = 0.34025 0.12147
#
# Static dielectric constant tensor:
#      x y z
#    x 1.845850 0.000000 0.000000 
#    y 0.000000 1.831380 0.000000 
#    z 0.000000 0.000000 1.860140 
# 
# From -- ./inp_files/1874.got.cif
#   From: 2010.05.17/outbox.cif.g08.bks.cpg/sg21_1_cif.got.tgz:1874.got - 2010.06.03 23:14:55.
