data_PCOD9325076
_publ_section_title
;
Structure prediction by ZEFSAII (Michael W. Deem and Ramdas Pophale) SiO2 
 PCOD9325076
Probable space group: C 2 2 2
;
_chemical_formula_sum "Si O2"
_cell_formula_units_Z 32
_cell_length_a 5.044616
_cell_length_b 28.345031
_cell_length_c 10.554083
_cell_angle_alpha 90.000000
_cell_angle_beta 90.000000
_cell_angle_gamma 90.000000
_cell_volume 1509.126185
_symmetry_space_group_name_H-M "C 2 2 2"
_symmetry_group_IT_number 21
_symmetry_cell_setting 'orthorhombic'
loop_
_space_group_symop_operation_xyz
x,y,z
-x,-y,z
x,-y,-z
-x,y,-z
1/2+x,1/2+y,z
1/2-x,1/2-y,z
1/2+x,1/2-y,-z
1/2-x,1/2+y,-z
loop_
_atom_site_type_symbol
_atom_site_label
_atom_site_fract_x
_atom_site_fract_y
_atom_site_fract_z
Si Si1 0.500000 0.617757 0.000000
Si Si2 0.500000 0.718479 0.500000
Si Si3 0.256534 0.032970 0.147234
Si Si4 0.980037 0.404809 0.648919
Si Si5 0.523307 0.351946 0.273501
O O1 0.709351 0.579633 0.059962
O O2 0.441136 0.650938 0.121501
O O3 0.250000 0.750000 0.538789
O O4 0.407776 0.687552 0.377999
O O5 0.335201 0.051747 0.285585
O O6 0.500000 0.000000 0.115807
O O7 0.000000 0.000000 0.144532
O O8 0.782272 0.362867 0.691819
O O9 0.000000 0.408114 0.500000
O O10 0.275767 0.395259 0.698110
#
# Coordination Sequence:
#
# PCOD9325076 Si02
#       5
#     4   4   8   8   8
#     4  10  25  42  66  90 128 178 220 258 314 382
#     4  12  24  44  72 104 129 158 201 266 334 392
#     4  11  24  39  59  92 133 174 226 281 319 354
#     4  11  21  40  64  90 127 178 223 266 316 379
#     4  11  23  42  68  97 126 167 217 256 315 406
#
# _framework density 21.204324
#
# number of rings (size 3 to 8) (size 9 to 14) (size 15 to 20)
#    0.000    1.000    2.500    4.875    0.000   12.500 
#    0.000    5.000    0.000    0.000    0.000    0.000 
#    0.000    0.000    0.000    0.000    0.000    0.000 
#
# Total GULP energy -89185.963014 kJ/mol
# GULP energy per Si atom -5574.122688 kJ/mol
# Density = 2.115606 g / cm^3
# Si number density = 21.204324 Si / 1000 Ang^3
#
#
#
# Elastic Constant Matrix: (Units=GPa)
#
#
# Indices 1 2 3 4 5 6 
#
# 1 114.0699 15.9775 22.1479 0.0000 0.0000 0.0000
# 2 15.9775 56.3645 33.0040 0.0000 0.0000 0.0000
# 3 22.1479 33.0040 223.9683 0.0000 0.0000 0.0000
# 4 0.0000 0.0000 0.0000 23.8175 0.0000 0.0000
# 5 0.0000 0.0000 0.0000 0.0000 31.6383 0.0000
# 6 0.0000 0.0000 0.0000 0.0000 0.0000 8.4349
#
#
#
# Elastic Compliance Matrix: (Units=1/GPa)
#
#
# Indices 1 2 3 4 5 6 
#
# 1 0.009196 -0.002270 -0.000575 0.000000 0.000000 0.000000
# 2 -0.002270 0.019978 -0.002719 0.000000 0.000000 0.000000
# 3 -0.000575 -0.002719 0.004922 0.000000 0.000000 0.000000
# 4 0.000000 0.000000 0.000000 0.041986 0.000000 0.000000
# 5 0.000000 0.000000 0.000000 0.000000 0.031607 0.000000
# 6 0.000000 0.000000 0.000000 0.000000 0.000000 0.118556
#
#
# Mechanical properties :
#
#
# Convention : Reuss Voigt Hill
#
# Bulk Modulus (GPa) = 43.54022 59.62904 51.58463
# Shear Modulus (GPa) = 20.40568 34.32968 27.36768
#
# Velocity S-wave (km/s) = 3.10552 4.02804 3.59648
# Velocity P-wave (km/s) = 5.78249 7.05802 6.45186
#
# Compressibility (1/GPa) = 0.02296727
#
# Stress axis : x y z
#
# Youngs Moduli (GPa) = 108.74111 50.05621 203.14903
#
# Poissons Ratio (x) = 0.11364 0.11678
# Poissons Ratio (y) = 0.24687 0.55244
# Poissons Ratio (z) = 0.06251 0.13612
#
# Static dielectric constant tensor:
#      x y z
#    x 1.761580 0.000000 0.000000 
#    y 0.000000 1.794720 0.000000 
#    z 0.000000 0.000000 1.899260 
# 
# From -- ./inp_files/9209.got.cif
#   From: 2010.05.17/outbox.cif.g08.bks.cpg/sg21_5_cif.got.tgz:9209.got - 2010.06.03 23:14:55.
