data_PCOD9325170
_publ_section_title
;
Structure prediction by ZEFSAII (Michael W. Deem and Ramdas Pophale) SiO2 
 PCOD9325170
Probable space group: C 2 2 2
;
_chemical_formula_sum "Si O2"
_cell_formula_units_Z 20
_cell_length_a 5.654115
_cell_length_b 26.347043
_cell_length_c 5.208830
_cell_angle_alpha 90.000000
_cell_angle_beta 90.000000
_cell_angle_gamma 90.000000
_cell_volume 775.955295
_symmetry_space_group_name_H-M "C 2 2 2"
_symmetry_group_IT_number 21
_symmetry_cell_setting 'orthorhombic'
loop_
_space_group_symop_operation_xyz
x,y,z
-x,-y,z
x,-y,-z
-x,y,-z
1/2+x,1/2+y,z
1/2-x,1/2-y,z
1/2+x,1/2-y,-z
1/2-x,1/2+y,-z
loop_
_atom_site_type_symbol
_atom_site_label
_atom_site_fract_x
_atom_site_fract_y
_atom_site_fract_z
Si Si1 0.839409 0.807606 0.247751
Si Si2 0.752877 0.941978 0.896295
Si Si3 0.000000 0.385609 0.500000
O O1 0.750000 0.750000 0.224588
O O2 0.625006 0.846186 0.303487
O O3 0.000000 0.811219 0.500000
O O4 0.000000 0.817376 0.000000
O O5 0.706861 0.923884 0.604102
O O6 0.500000 0.924455 0.000000
O O7 0.000000 0.921477 0.000000
O O8 0.757641 0.000000 0.000000
#
# Coordination Sequence:
#
# PCOD9325170 Si02
#       3
#     8   8   4
#     4  12  29  53  83 125 179 235 296 370 448 538
#     4  10  26  52  81 119 171 229 298 373 440 523
#     4  12  30  49  84 128 172 236 298 367 452 538
#
# _framework density 25.774684000000001
#
# number of rings (size 3 to 8) (size 9 to 14) (size 15 to 20)
#    0.000    0.800    2.000    1.200   11.200    3.200 
#    0.000   16.000    0.000    0.000    0.000    0.000 
#    0.000    0.000    0.000    0.000    0.000    0.000 
#
# Total GULP energy -55837.597789 kJ/mol
# GULP energy per Si atom -5583.759779 kJ/mol
# Density = 2.571602 g / cm^3
# Si number density = 25.774684 Si / 1000 Ang^3
#
#
#
# Elastic Constant Matrix: (Units=GPa)
#
#
# Indices 1 2 3 4 5 6 
#
# 1 209.9936 66.2630 81.5175 0.0000 0.0000 0.0000
# 2 66.2630 252.6618 80.1958 0.0000 0.0000 0.0000
# 3 81.5175 80.1958 161.1921 0.0000 0.0000 0.0000
# 4 0.0000 0.0000 0.0000 -94.1351 0.0000 0.0000
# 5 0.0000 0.0000 0.0000 0.0000 71.8142 0.0000
# 6 0.0000 0.0000 0.0000 0.0000 0.0000 27.7239
#
#
#
# Elastic Compliance Matrix: (Units=1/GPa)
#
#
# Indices 1 2 3 4 5 6 
#
# 1 0.006036 -0.000729 -0.002690 0.000000 0.000000 0.000000
# 2 -0.000729 0.004788 -0.002013 0.000000 0.000000 0.000000
# 3 -0.002690 -0.002013 0.008566 0.000000 0.000000 0.000000
# 4 0.000000 0.000000 0.000000 -0.010623 0.000000 0.000000
# 5 0.000000 0.000000 0.000000 0.000000 0.013925 0.000000
# 6 0.000000 0.000000 0.000000 0.000000 0.000000 0.036070
#
#
# Mechanical properties :
#
#
# Convention : Reuss Voigt Hill
#
# Bulk Modulus (GPa) = 117.29880 119.97779 118.63829
# Shear Modulus (GPa) = 68.99520 27.47202 48.23361
#
# Velocity S-wave (km/s) = 5.17945 3.26828 4.33061
# Velocity P-wave (km/s) = 9.02092 7.80333 8.43413
#
# Compressibility (1/GPa) = 0.00852524
#
# Stress axis : x y z
#
# Youngs Moduli (GPa) = 165.66293 208.84747 116.74394
#
# Poissons Ratio (x) = 0.15232 0.31402
# Poissons Ratio (y) = 0.12082 0.23505
# Poissons Ratio (z) = 0.44561 0.42049
#
# Static dielectric constant tensor:
#      x y z
#    x 2.017650 0.000000 0.000000 
#    y 0.000000 2.262790 0.000000 
#    z 0.000000 0.000000 3.060730 
# 
# From -- ./inp_files/596.got.cif
#   From: 2010.05.17/outbox.cif.g08.bks.cpg/sg21_1_cif.got.tgz:596.got - 2010.06.03 23:14:55.
