data_PCOD9325685
_publ_section_title
;
Structure prediction by ZEFSAII (Michael W. Deem and Ramdas Pophale) SiO2 
 PCOD9325685
Probable space group: C 2 2 2
;
_chemical_formula_sum "Si O2"
_cell_formula_units_Z 32
_cell_length_a 9.122863
_cell_length_b 18.261825
_cell_length_c 10.053284
_cell_angle_alpha 90.000000
_cell_angle_beta 90.000000
_cell_angle_gamma 90.000000
_cell_volume 1674.878397
_symmetry_space_group_name_H-M "C 2 2 2"
_symmetry_group_IT_number 21
_symmetry_cell_setting 'orthorhombic'
loop_
_space_group_symop_operation_xyz
x,y,z
-x,-y,z
x,-y,-z
-x,y,-z
1/2+x,1/2+y,z
1/2-x,1/2-y,z
1/2+x,1/2-y,-z
1/2-x,1/2+y,-z
loop_
_atom_site_type_symbol
_atom_site_label
_atom_site_fract_x
_atom_site_fract_y
_atom_site_fract_z
Si Si1 0.742789 0.418957 0.992044
Si Si2 0.075604 0.763546 0.360834
Si Si3 0.907304 0.716344 0.112785
Si Si4 0.984789 0.917521 0.772327
O O1 0.858635 0.357392 0.960021
O O2 0.623746 0.414404 0.872344
O O3 0.807163 0.500000 0.000000
O O4 0.655006 0.410606 0.129792
O O5 0.250000 0.750000 0.365511
O O6 0.030199 0.847660 0.323521
O O7 0.000000 0.744916 0.500000
O O8 0.006355 0.714855 0.242644
O O9 0.750000 0.750000 0.148657
O O10 0.000000 0.759892 0.000000
O O11 0.000000 0.000000 0.712517
#
# Coordination Sequence:
#
# PCOD9325685 Si02
#       4
#     8   8   8   8
#     4   9  18  34  61  96 127 159 206 264 324 382
#     4  12  26  42  62  94 130 172 225 274 326 390
#     4  12  22  36  62  92 127 164 208 265 325 380
#     4   9  18  37  63  93 127 165 214 263 320 398
#
# _framework density 19.105864
#
# number of rings (size 3 to 8) (size 9 to 14) (size 15 to 20)
#    0.000    1.500    2.500    6.000    0.000    1.000 
#    0.000    0.000    0.000    0.000    0.000    0.000 
#    0.000    0.000    0.000    0.000    0.000    0.000 
#
# Total GULP energy -89232.359214 kJ/mol
# GULP energy per Si atom -5577.022451 kJ/mol
# Density = 1.906238 g / cm^3
# Si number density = 19.105864 Si / 1000 Ang^3
#
#
#
# Elastic Constant Matrix: (Units=GPa)
#
#
# Indices 1 2 3 4 5 6 
#
# 1 131.2554 18.7165 41.4803 0.0000 0.0000 0.0000
# 2 18.7165 95.0755 -1.5739 0.0000 0.0000 0.0000
# 3 41.4803 -1.5739 89.6696 0.0000 0.0000 0.0000
# 4 0.0000 0.0000 0.0000 9.8065 0.0000 0.0000
# 5 0.0000 0.0000 0.0000 0.0000 30.2432 0.0000
# 6 0.0000 0.0000 0.0000 0.0000 0.0000 28.0075
#
#
#
# Elastic Compliance Matrix: (Units=1/GPa)
#
#
# Indices 1 2 3 4 5 6 
#
# 1 0.009252 -0.001893 -0.004313 0.000000 0.000000 0.000000
# 2 -0.001893 0.010908 0.001067 0.000000 0.000000 0.000000
# 3 -0.004313 0.001067 0.013166 0.000000 0.000000 0.000000
# 4 0.000000 0.000000 0.000000 0.101973 0.000000 0.000000
# 5 0.000000 0.000000 0.000000 0.000000 0.033065 0.000000
# 6 0.000000 0.000000 0.000000 0.000000 0.000000 0.035705
#
#
# Mechanical properties :
#
#
# Convention : Reuss Voigt Hill
#
# Bulk Modulus (GPa) = 43.38672 48.13846 45.76259
# Shear Modulus (GPa) = 22.51958 30.76997 26.64477
#
# Velocity S-wave (km/s) = 3.43691 4.01746 3.73847
# Velocity P-wave (km/s) = 6.20545 6.83888 6.52985
#
# Compressibility (1/GPa) = 0.02304853
#
# Stress axis : x y z
#
# Youngs Moduli (GPa) = 108.08912 91.67410 75.95381
#
# Poissons Ratio (x) = 0.17351 0.32758
# Poissons Ratio (y) = 0.20458 -0.08104
# Poissons Ratio (z) = 0.46618 -0.09782
#
# Static dielectric constant tensor:
#      x y z
#    x 1.660270 0.000000 0.000000 
#    y 0.000000 1.821080 0.000000 
#    z 0.000000 0.000000 1.642980 
# 
# From -- ./inp_files/10417.got.cif
#   From: 2010.05.17/outbox.cif.g08.bks.cpg/sg21_6_cif.got.tgz:10417.got - 2010.06.03 23:14:55.
