data_PCOD9325119
_publ_section_title
;
Structure prediction by ZEFSAII (Michael W. Deem and Ramdas Pophale) SiO2 
 PCOD9325119
Probable space group: C 2 2 2
;
_chemical_formula_sum "Si O2"
_cell_formula_units_Z 56
_cell_length_a 22.096958
_cell_length_b 22.096567
_cell_length_c 6.083914
_cell_angle_alpha 90.000000
_cell_angle_beta 90.000000
_cell_angle_gamma 90.000000
_cell_volume 2970.573907
_symmetry_space_group_name_H-M "C 2 2 2"
_symmetry_group_IT_number 21
_symmetry_cell_setting 'orthorhombic'
loop_
_space_group_symop_operation_xyz
x,y,z
-x,-y,z
x,-y,-z
-x,y,-z
1/2+x,1/2+y,z
1/2-x,1/2-y,z
1/2+x,1/2-y,-z
1/2-x,1/2+y,-z
loop_
_atom_site_type_symbol
_atom_site_label
_atom_site_fract_x
_atom_site_fract_y
_atom_site_fract_z
Si Si1 0.565957 0.264876 0.981048
Si Si2 0.851759 0.730721 0.614433
Si Si3 0.235384 0.065989 0.480382
Si Si4 0.440052 0.149317 0.343344
Si Si5 0.350975 0.939974 0.843804
Si Si6 0.173417 0.173281 0.249681
Si Si7 0.730466 0.851653 0.885047
O O1 0.555930 0.200793 0.849135
O O2 0.608598 0.310096 0.847421
O O3 0.500000 0.291898 0.000000
O O4 0.598424 0.255713 0.215079
O O5 0.885331 0.676802 0.486217
O O6 0.823523 0.778558 0.446677
O O7 0.799086 0.701183 0.750167
O O8 0.299481 0.055992 0.348584
O O9 0.190027 0.108421 0.346467
O O10 0.244542 0.098672 0.714019
O O11 0.208486 0.000000 0.500000
O O12 0.500000 0.145742 0.500000
O O13 0.414890 0.085341 0.249780
O O14 0.323431 0.885361 0.987065
O O15 0.354637 0.000000 0.000000
O O16 0.221675 0.176430 0.053055
#
# Coordination Sequence:
#
# PCOD9325119 Si02
#       7
#     8   8   8   8   8   8   8
#     4  11  22  40  64  88 128 167 207 267 328 394
#     4  11  22  40  61  92 132 166 209 268 334 393
#     4  11  22  40  64  88 128 167 207 267 328 394
#     4  11  22  39  64  93 124 173 227 266 322 386
#     4  11  22  39  64  93 124 173 227 266 322 386
#     4  10  26  37  58 100 121 164 214 258 329 406
#     4  11  22  40  61  92 132 166 209 268 334 393
#
# _framework density 18.851575
#
# number of rings (size 3 to 8) (size 9 to 14) (size 15 to 20)
#    0.000    1.143    5.714    0.857    0.000    3.429 
#    0.000    0.000    0.000   15.429    0.000   14.000 
#    0.000    0.000    0.000    0.000    0.000    0.000 
#
# Total GULP energy -156255.583029 kJ/mol
# GULP energy per Si atom -5580.556537 kJ/mol
# Density = 1.880867 g / cm^3
# Si number density = 18.851575 Si / 1000 Ang^3
#
#
#
# Elastic Constant Matrix: (Units=GPa)
#
#
# Indices 1 2 3 4 5 6 
#
# 1 117.3309 79.7568 62.4675 0.0000 0.0000 0.0000
# 2 79.7568 115.7077 61.5115 0.0000 0.0000 0.0000
# 3 62.4675 61.5115 122.3928 0.0000 0.0000 0.0000
# 4 0.0000 0.0000 0.0000 33.7732 0.0000 0.0000
# 5 0.0000 0.0000 0.0000 0.0000 32.8600 0.0000
# 6 0.0000 0.0000 0.0000 0.0000 0.0000 18.8652
#
#
#
# Elastic Compliance Matrix: (Units=1/GPa)
#
#
# Indices 1 2 3 4 5 6 
#
# 1 0.017282 -0.009857 -0.003867 0.000000 0.000000 0.000000
# 2 -0.009857 0.017415 -0.003722 0.000000 0.000000 0.000000
# 3 -0.003867 -0.003722 0.012014 0.000000 0.000000 0.000000
# 4 0.000000 0.000000 0.000000 0.029609 0.000000 0.000000
# 5 0.000000 0.000000 0.000000 0.000000 0.030432 0.000000
# 6 0.000000 0.000000 0.000000 0.000000 0.000000 0.053008
#
#
# Mechanical properties :
#
#
# Convention : Reuss Voigt Hill
#
# Bulk Modulus (GPa) = 84.59400 84.76699 84.68050
# Shear Modulus (GPa) = 25.17747 27.21273 26.19510
#
# Velocity S-wave (km/s) = 3.65850 3.80350 3.73170
# Velocity P-wave (km/s) = 7.92574 8.02196 7.97399
#
# Compressibility (1/GPa) = 0.01182117
#
# Stress axis : x y z
#
# Youngs Moduli (GPa) = 57.86495 57.42144 83.23408
#
# Poissons Ratio (x) = 0.56598 0.32183
# Poissons Ratio (y) = 0.57035 0.30977
# Poissons Ratio (z) = 0.22374 0.21371
#
# Static dielectric constant tensor:
#      x y z
#    x 1.651980 0.000000 0.000000 
#    y 0.000000 1.651540 0.000000 
#    z 0.000000 0.000000 1.733620 
# 
# From -- ./inp_files/6792.got.cif
#   From: 2010.05.17/outbox.cif.g08.bks.cpg/sg21_4_cif.got.tgz:6792.got - 2010.06.03 23:14:55.
