data_PCOD9325310
_publ_section_title
;
Structure prediction by ZEFSAII (Michael W. Deem and Ramdas Pophale) SiO2 
 PCOD9325310
Probable space group: C 2 2 2
;
_chemical_formula_sum "Si O2"
_cell_formula_units_Z 40
_cell_length_a 11.793195
_cell_length_b 17.406933
_cell_length_c 7.974427
_cell_angle_alpha 90.000000
_cell_angle_beta 90.000000
_cell_angle_gamma 90.000000
_cell_volume 1637.017131
_symmetry_space_group_name_H-M "C 2 2 2"
_symmetry_group_IT_number 21
_symmetry_cell_setting 'orthorhombic'
loop_
_space_group_symop_operation_xyz
x,y,z
-x,-y,z
x,-y,-z
-x,y,-z
1/2+x,1/2+y,z
1/2-x,1/2-y,z
1/2+x,1/2-y,-z
1/2-x,1/2+y,-z
loop_
_atom_site_type_symbol
_atom_site_label
_atom_site_fract_x
_atom_site_fract_y
_atom_site_fract_z
Si Si1 0.037282 0.172693 0.746743
Si Si2 0.186346 0.168381 0.086863
Si Si3 0.837378 0.432115 0.719259
Si Si4 0.959779 0.340066 0.192403
Si Si5 0.245968 0.397537 0.631912
O O1 0.012277 0.261805 0.709689
O O2 0.122182 0.125163 0.630887
O O3 0.912465 0.142462 0.783093
O O4 0.113389 0.173726 0.917504
O O5 0.250000 0.250000 0.116576
O O6 0.279698 0.103174 0.115627
O O7 0.786116 0.515648 0.684868
O O8 0.803339 0.384764 0.553102
O O9 0.970521 0.413886 0.742082
O O10 0.827852 0.349318 0.234526
O O11 0.000000 0.329056 0.000000
#
# Coordination Sequence:
#
# PCOD9325310 Si02
#       5
#     8   8   8   8   8
#     4  11  23  41  68 100 131 172 222 285 332 400
#     4  11  21  42  69  96 133 173 222 277 340 401
#     4  11  25  45  65  94 142 182 220 277 335 409
#     4  12  22  43  70  99 134 174 227 286 335 396
#     4  11  26  43  64 100 138 179 226 273 338 405
#
# _framework density 24.434687
#
# number of rings (size 3 to 8) (size 9 to 14) (size 15 to 20)
#    0.000    0.800    4.000    4.200    0.000    8.800 
#    3.600    4.000    0.000    0.000    0.000    0.000 
#    0.000    0.000    0.000    0.000    0.000    0.000 
#
# Total GULP energy -111633.040858 kJ/mol
# GULP energy per Si atom -5581.652043 kJ/mol
# Density = 2.437907 g / cm^3
# Si number density = 24.434687 Si / 1000 Ang^3
#
#
#
# Elastic Constant Matrix: (Units=GPa)
#
#
# Indices 1 2 3 4 5 6 
#
# 1 131.2881 -10.6951 -4.9697 0.0000 0.0000 0.0000
# 2 -10.6951 48.3135 -12.6317 0.0000 0.0000 0.0000
# 3 -4.9697 -12.6317 83.7594 0.0000 0.0000 0.0000
# 4 0.0000 0.0000 0.0000 425.2909 0.0000 0.0000
# 5 0.0000 0.0000 0.0000 0.0000 29.7614 0.0000
# 6 0.0000 0.0000 0.0000 0.0000 0.0000 30.6585
#
#
#
# Elastic Compliance Matrix: (Units=1/GPa)
#
#
# Indices 1 2 3 4 5 6 
#
# 1 0.007802 0.001924 0.000753 0.000000 0.000000 0.000000
# 2 0.001924 0.022022 0.003435 0.000000 0.000000 0.000000
# 3 0.000753 0.003435 0.012502 0.000000 0.000000 0.000000
# 4 0.000000 0.000000 0.000000 0.002351 0.000000 0.000000
# 5 0.000000 0.000000 0.000000 0.000000 0.033601 0.000000
# 6 0.000000 0.000000 0.000000 0.000000 0.000000 0.032617
#
#
# Mechanical properties :
#
#
# Convention : Reuss Voigt Hill
#
# Bulk Modulus (GPa) = 18.33150 22.97422 20.65286
# Shear Modulus (GPa) = 42.78839 116.58599 79.68719
#
# Velocity S-wave (km/s) = 4.18919 6.91498 5.71692
# Velocity P-wave (km/s) = 5.56036 8.55445 7.21444
#
# Compressibility (1/GPa) = 0.05455092
#
# Stress axis : x y z
#
# Youngs Moduli (GPa) = 128.17097 45.40863 79.98900
#
# Poissons Ratio (x) = -0.08737 -0.06024
# Poissons Ratio (y) = -0.24661 -0.27479
# Poissons Ratio (z) = -0.09652 -0.15599
#
# Static dielectric constant tensor:
#      x y z
#    x 1.919150 0.000000 0.000000 
#    y 0.000000 1.939400 0.000000 
#    z 0.000000 0.000000 2.055830 
# 
# From -- ./inp_files/12706.got.cif
#   From: 2010.05.17/outbox.cif.g08.bks.cpg/sg21_7_cif.got.tgz:12706.got - 2010.06.03 23:14:55.
