data_PCOD9325562
_publ_section_title
;
Structure prediction by ZEFSAII (Michael W. Deem and Ramdas Pophale) SiO2 
 PCOD9325562
Probable space group: C 2 2 2
;
_chemical_formula_sum "Si O2"
_cell_formula_units_Z 32
_cell_length_a 8.939949
_cell_length_b 12.047715
_cell_length_c 13.792255
_cell_angle_alpha 90.000000
_cell_angle_beta 90.000000
_cell_angle_gamma 90.000000
_cell_volume 1485.508033
_symmetry_space_group_name_H-M "C 2 2 2"
_symmetry_group_IT_number 21
_symmetry_cell_setting 'orthorhombic'
loop_
_space_group_symop_operation_xyz
x,y,z
-x,-y,z
x,-y,-z
-x,y,-z
1/2+x,1/2+y,z
1/2-x,1/2-y,z
1/2+x,1/2-y,-z
1/2-x,1/2+y,-z
loop_
_atom_site_type_symbol
_atom_site_label
_atom_site_fract_x
_atom_site_fract_y
_atom_site_fract_z
Si Si1 0.105113 0.822105 0.095422
Si Si2 0.228294 0.617696 0.646527
Si Si3 0.000000 0.500000 0.000000
Si Si4 0.377657 0.156994 0.154810
Si Si5 0.500000 0.000000 0.500000
Si Si6 0.000000 0.000000 0.247946
O O1 0.250000 0.750000 0.064704
O O2 0.098325 0.925916 0.170196
O O3 0.025706 0.727935 0.158678
O O4 0.000000 0.844723 0.000000
O O5 0.250000 0.750000 0.632532
O O6 0.141423 0.594838 0.746149
O O7 0.389454 0.566187 0.678706
O O8 0.118802 0.570809 0.564126
O O9 0.893649 0.574497 0.065901
O O10 0.250000 0.250000 0.146821
#
# Coordination Sequence:
#
# PCOD9325562 Si02
#       6
#     8   8   2   8   2   4
#     4  12  27  44  70 110 154 206 252 292 351 429
#     4  11  27  52  74 111 148 184 250 310 373 459
#     4  12  26  36  72 102 152 204 236 288 360 408
#     4  11  24  46  66 103 151 188 244 300 345 440
#     4  12  30  50  88 108 140 190 242 316 408 438
#     4  12  27  47  80 104 156 200 244 302 378 428
#
# _framework density 21.541452
#
# number of rings (size 3 to 8) (size 9 to 14) (size 15 to 20)
#    0.000    0.500    6.250    1.875    7.000    2.500 
#    0.000    0.000    0.000    0.000    0.000    0.000 
#    0.000    0.000    0.000    0.000    0.000    0.000 
#
# Total GULP energy -89114.644946 kJ/mol
# GULP energy per Si atom -5569.665309 kJ/mol
# Density = 2.149242 g / cm^3
# Si number density = 21.541452 Si / 1000 Ang^3
#
#
#
# Elastic Constant Matrix: (Units=GPa)
#
#
# Indices 1 2 3 4 5 6 
#
# 1 113.2038 61.6379 73.4714 0.0000 0.0000 0.0000
# 2 61.6379 135.9341 80.3679 0.0000 0.0000 0.0000
# 3 73.4714 80.3679 140.8403 0.0000 0.0000 0.0000
# 4 0.0000 0.0000 0.0000 39.9687 0.0000 0.0000
# 5 0.0000 0.0000 0.0000 0.0000 48.7977 0.0000
# 6 0.0000 0.0000 0.0000 0.0000 0.0000 33.2151
#
#
#
# Elastic Compliance Matrix: (Units=1/GPa)
#
#
# Indices 1 2 3 4 5 6 
#
# 1 0.014172 -0.003102 -0.005623 0.000000 0.000000 0.000000
# 2 -0.003102 0.011781 -0.005105 0.000000 0.000000 0.000000
# 3 -0.005623 -0.005105 0.012946 0.000000 0.000000 0.000000
# 4 0.000000 0.000000 0.000000 0.025020 0.000000 0.000000
# 5 0.000000 0.000000 0.000000 0.000000 0.020493 0.000000
# 6 0.000000 0.000000 0.000000 0.000000 0.000000 0.030107
#
#
# Mechanical properties :
#
#
# Convention : Reuss Voigt Hill
#
# Bulk Modulus (GPa) = 88.96238 91.21476 90.08857
# Shear Modulus (GPa) = 34.26448 36.02967 35.14707
#
# Velocity S-wave (km/s) = 3.99260 4.09415 4.04369
# Velocity P-wave (km/s) = 7.91469 8.04892 7.98209
#
# Compressibility (1/GPa) = 0.01124071
#
# Stress axis : x y z
#
# Youngs Moduli (GPa) = 70.56214 84.88383 77.24128
#
# Poissons Ratio (x) = 0.26327 0.43434
# Poissons Ratio (y) = 0.21885 0.39428
# Poissons Ratio (z) = 0.39678 0.43329
#
# Static dielectric constant tensor:
#      x y z
#    x 1.781410 0.000000 0.000000 
#    y 0.000000 1.813420 0.000000 
#    z 0.000000 0.000000 1.860900 
# 
# From -- ./inp_files/29898.got.cif
#   From: 2010.05.17/outbox.cif.g08.bks.cpg/sg21_15_cif.got.tgz:29898.got - 2010.06.03 23:14:55.
