data_PCOD9325273
_publ_section_title
;
Structure prediction by ZEFSAII (Michael W. Deem and Ramdas Pophale) SiO2 
 PCOD9325273
Probable space group: C 2 2 2
;
_chemical_formula_sum "Si O2"
_cell_formula_units_Z 36
_cell_length_a 17.095772
_cell_length_b 5.384030
_cell_length_c 19.529883
_cell_angle_alpha 90.000000
_cell_angle_beta 90.000000
_cell_angle_gamma 90.000000
_cell_volume 1797.611467
_symmetry_space_group_name_H-M "C 2 2 2"
_symmetry_group_IT_number 21
_symmetry_cell_setting 'orthorhombic'
loop_
_space_group_symop_operation_xyz
x,y,z
-x,-y,z
x,-y,-z
-x,y,-z
1/2+x,1/2+y,z
1/2-x,1/2-y,z
1/2+x,1/2-y,-z
1/2-x,1/2+y,-z
loop_
_atom_site_type_symbol
_atom_site_label
_atom_site_fract_x
_atom_site_fract_y
_atom_site_fract_z
Si Si1 0.250000 0.250000 0.823939
Si Si2 0.667667 0.604583 0.278311
Si Si3 0.329399 0.116803 0.068009
Si Si4 0.049819 0.249295 0.172772
Si Si5 0.197071 0.999709 0.425265
O O1 0.311538 0.384428 0.774162
O O2 0.201888 0.429381 0.873929
O O3 0.750000 0.750000 0.281664
O O4 0.601758 0.765992 0.241683
O O5 0.648592 0.517392 0.355021
O O6 0.250000 0.250000 0.044205
O O7 0.391472 0.281142 0.108457
O O8 0.365300 0.000000 0.000000
O O9 0.000000 0.500000 0.163310
O O10 0.000000 0.000000 0.178448
O O11 0.250000 0.250000 0.426989
O O12 0.156653 0.000000 0.500000
O O13 0.250000 0.750000 0.419698
#
# Coordination Sequence:
#
# PCOD9325273 Si02
#       5
#     4   8   8   8   8
#     4  12  18  38  66  94 120 150 220 262 300 358
#     4  11  21  37  67  91 123 167 213 260 302 369
#     4  12  25  42  67  93 118 165 214 265 313 378
#     4  12  27  44  63  93 133 166 208 260 317 376
#     4   9  18  31  54  94 129 153 194 260 319 354
#
# _framework density 20.026574
#
# number of rings (size 3 to 8) (size 9 to 14) (size 15 to 20)
#    0.000    0.889    6.667    1.333    0.000    0.444 
#    0.000    3.333    0.000    0.667    0.000    4.667 
#    0.000    0.000    0.000    0.000    0.000    0.000 
#
# Total GULP energy -100462.101326 kJ/mol
# GULP energy per Si atom -5581.227851 kJ/mol
# Density = 1.998099 g / cm^3
# Si number density = 20.026574 Si / 1000 Ang^3
#
#
#
# Elastic Constant Matrix: (Units=GPa)
#
#
# Indices 1 2 3 4 5 6 
#
# 1 61.1514 11.9497 19.1225 0.0000 0.0000 0.0000
# 2 11.9497 78.0600 9.2877 0.0000 0.0000 0.0000
# 3 19.1225 9.2877 170.5571 0.0000 0.0000 0.0000
# 4 0.0000 0.0000 0.0000 35.2722 0.0000 0.0000
# 5 0.0000 0.0000 0.0000 0.0000 -17.4248 0.0000
# 6 0.0000 0.0000 0.0000 0.0000 0.0000 30.2021
#
#
#
# Elastic Compliance Matrix: (Units=1/GPa)
#
#
# Indices 1 2 3 4 5 6 
#
# 1 0.017399 -0.002447 -0.001818 0.000000 0.000000 0.000000
# 2 -0.002447 0.013238 -0.000447 0.000000 0.000000 0.000000
# 3 -0.001818 -0.000447 0.006091 0.000000 0.000000 0.000000
# 4 0.000000 0.000000 0.000000 0.028351 0.000000 0.000000
# 5 0.000000 0.000000 0.000000 0.000000 -0.057389 0.000000
# 6 0.000000 0.000000 0.000000 0.000000 0.000000 0.033110
#
#
# Mechanical properties :
#
#
# Convention : Reuss Voigt Hill
#
# Bulk Modulus (GPa) = 36.62144 43.38759 40.00452
# Shear Modulus (GPa) = 84.28022 27.57045 55.92534
#
# Velocity S-wave (km/s) = 6.49427 3.71441 5.29020
# Velocity P-wave (km/s) = 8.63482 6.33307 7.57192
#
# Compressibility (1/GPa) = 0.02730640
#
# Stress axis : x y z
#
# Youngs Moduli (GPa) = 57.47307 75.53761 164.17041
#
# Poissons Ratio (x) = 0.18487 0.29838
# Poissons Ratio (y) = 0.14066 0.07330
# Poissons Ratio (z) = 0.10446 0.03373
#
# Static dielectric constant tensor:
#      x y z
#    x 1.721410 0.000000 0.000000 
#    y 0.000000 1.758620 0.000000 
#    z 0.000000 0.000000 1.727360 
# 
# From -- ./inp_files/37478.got.cif
#   From: 2010.05.17/outbox.cif.g08.bks.cpg/sg21_19_cif.got.tgz:37478.got - 2010.06.03 23:14:55.
