data_PCOD9325351
_publ_section_title
;
Structure prediction by ZEFSAII (Michael W. Deem and Ramdas Pophale) SiO2 
 PCOD9325351
Probable space group: C 2 2 2
;
_chemical_formula_sum "Si O2"
_cell_formula_units_Z 56
_cell_length_a 20.621871
_cell_length_b 14.274551
_cell_length_c 8.667412
_cell_angle_alpha 90.000000
_cell_angle_beta 90.000000
_cell_angle_gamma 90.000000
_cell_volume 2551.408296
_symmetry_space_group_name_H-M "C 2 2 2"
_symmetry_group_IT_number 21
_symmetry_cell_setting 'orthorhombic'
loop_
_space_group_symop_operation_xyz
x,y,z
-x,-y,z
x,-y,-z
-x,y,-z
1/2+x,1/2+y,z
1/2-x,1/2-y,z
1/2+x,1/2-y,-z
1/2-x,1/2+y,-z
loop_
_atom_site_type_symbol
_atom_site_label
_atom_site_fract_x
_atom_site_fract_y
_atom_site_fract_z
Si Si1 0.824536 0.752855 0.085782
Si Si2 0.115012 0.255865 0.403743
Si Si3 0.905310 0.908249 0.906188
Si Si4 0.687498 0.907832 0.601508
Si Si5 0.833151 0.906814 0.598801
Si Si6 0.489530 0.763721 0.183196
Si Si7 0.109062 0.411793 0.897685
O O1 0.750000 0.750000 0.037917
O O2 0.831790 0.754536 0.268983
O O3 0.864430 0.840543 0.018957
O O4 0.859436 0.661729 0.016439
O O5 0.137882 0.340086 0.512530
O O6 0.119305 0.166089 0.514285
O O7 0.951830 0.266214 0.694320
O O8 0.857895 0.934032 0.767242
O O9 0.958822 0.840720 0.825814
O O10 0.926721 0.000000 0.000000
O O11 0.760223 0.866261 0.610151
O O12 0.663333 0.936567 0.771461
O O13 0.691460 0.000000 0.500000
O O14 0.831491 0.000000 0.500000
O O15 0.442537 0.852860 0.204594
O O16 0.500000 0.778705 0.000000
O O17 0.085987 0.500000 0.000000
#
# Coordination Sequence:
#
# PCOD9325351 Si02
#       7
#     8   8   8   8   8   8   8
#     4  11  22  39  66  98 132 179 232 284 351 417
#     4  12  23  45  68  96 141 184 226 289 356 408
#     4  11  24  44  70 100 137 186 237 292 346 416
#     4  11  25  43  67 104 140 177 229 287 352 423
#     4  11  25  43  67 104 140 177 229 287 352 423
#     4  11  25  47  68  98 134 178 236 290 345 420
#     4  11  24  44  70 100 137 186 237 292 346 416
#
# _framework density 21.948661999999999
#
# number of rings (size 3 to 8) (size 9 to 14) (size 15 to 20)
#    0.000    0.857    2.857    5.571    0.000    7.429 
#    0.000    1.429    0.000    0.000    0.000    0.000 
#    0.000    0.000    0.000    0.000    0.000    0.000 
#
# Total GULP energy -156361.164299 kJ/mol
# GULP energy per Si atom -5584.327296 kJ/mol
# Density = 2.189871 g / cm^3
# Si number density = 21.948662 Si / 1000 Ang^3
#
#
#
# Elastic Constant Matrix: (Units=GPa)
#
#
# Indices 1 2 3 4 5 6 
#
# 1 114.5311 33.5908 29.0369 0.0000 0.0000 0.0000
# 2 33.5908 104.4025 26.1919 0.0000 0.0000 0.0000
# 3 29.0369 26.1919 129.3752 0.0000 0.0000 0.0000
# 4 0.0000 0.0000 0.0000 31.9587 0.0000 0.0000
# 5 0.0000 0.0000 0.0000 0.0000 -17.1185 0.0000
# 6 0.0000 0.0000 0.0000 0.0000 0.0000 128.0691
#
#
#
# Elastic Compliance Matrix: (Units=1/GPa)
#
#
# Indices 1 2 3 4 5 6 
#
# 1 0.009974 -0.002789 -0.001674 0.000000 0.000000 0.000000
# 2 -0.002789 0.010871 -0.001575 0.000000 0.000000 0.000000
# 3 -0.001674 -0.001575 0.008424 0.000000 0.000000 0.000000
# 4 0.000000 0.000000 0.000000 0.031290 0.000000 0.000000
# 5 0.000000 0.000000 0.000000 0.000000 -0.058416 0.000000
# 6 0.000000 0.000000 0.000000 0.000000 0.000000 0.007808
#
#
# Mechanical properties :
#
#
# Convention : Reuss Voigt Hill
#
# Bulk Modulus (GPa) = 58.16329 58.43867 58.30098
# Shear Modulus (GPa) = 180.13528 45.88115 113.00821
#
# Velocity S-wave (km/s) = 9.06914 4.57703 7.18326
# Velocity P-wave (km/s) = 11.67146 7.39021 9.76827
#
# Compressibility (1/GPa) = 0.01719298
#
# Stress axis : x y z
#
# Youngs Moduli (GPa) = 100.26459 91.99000 118.70915
#
# Poissons Ratio (x) = 0.25656 0.19870
# Poissons Ratio (y) = 0.27964 0.18694
# Poissons Ratio (z) = 0.16783 0.14487
#
# Static dielectric constant tensor:
#      x y z
#    x 1.906290 0.000000 0.000000 
#    y 0.000000 1.784780 0.000000 
#    z 0.000000 0.000000 1.735200 
# 
# From -- ./inp_files/17696.got.cif
#   From: 2010.05.17/outbox.cif.g08.bks.cpg/sg21_9_cif.got.tgz:17696.got - 2010.06.03 23:14:55.
