data_PCOD9325510
_publ_section_title
;
Structure prediction by ZEFSAII (Michael W. Deem and Ramdas Pophale) SiO2 
 PCOD9325510
Probable space group: C 2 2 2
;
_chemical_formula_sum "Si O2"
_cell_formula_units_Z 40
_cell_length_a 5.316007
_cell_length_b 26.689679
_cell_length_c 12.921498
_cell_angle_alpha 90.000000
_cell_angle_beta 90.000000
_cell_angle_gamma 90.000000
_cell_volume 1833.334703
_symmetry_space_group_name_H-M "C 2 2 2"
_symmetry_group_IT_number 21
_symmetry_cell_setting 'orthorhombic'
loop_
_space_group_symop_operation_xyz
x,y,z
-x,-y,z
x,-y,-z
-x,y,-z
1/2+x,1/2+y,z
1/2-x,1/2-y,z
1/2+x,1/2-y,-z
1/2-x,1/2+y,-z
loop_
_atom_site_type_symbol
_atom_site_label
_atom_site_fract_x
_atom_site_fract_y
_atom_site_fract_z
Si Si1 0.951342 0.571586 0.879568
Si Si2 0.750000 0.750000 0.309946
Si Si3 0.379273 0.825313 0.209862
Si Si4 0.068147 0.947312 0.757117
Si Si5 0.499134 0.351602 0.619995
Si Si6 0.750000 0.250000 0.063881
O O1 0.173474 0.544110 0.818190
O O2 0.002791 0.629774 0.851826
O O3 0.667441 0.563392 0.835665
O O4 0.000000 0.562114 0.000000
O O5 0.556448 0.779772 0.239471
O O6 0.627467 0.703520 0.371860
O O7 0.262124 0.843865 0.318009
O O8 0.184194 0.799350 0.132107
O O9 0.107545 0.899200 0.683224
O O10 0.000000 0.000000 0.702554
O O11 0.500000 0.364666 0.500000
O O12 0.500000 0.237583 0.000000
#
# Coordination Sequence:
#
# PCOD9325510 Si02
#       6
#     8   4   8   8   8   4
#     4  11  24  43  70 103 137 179 229 280 347 409
#     4  12  21  43  68  92 146 170 233 269 350 396
#     4  11  24  41  62  99 141 179 224 282 335 408
#     4  11  25  47  71 100 139 177 229 291 341 408
#     4  11  26  43  70 100 134 183 229 285 350 408
#     4  12  25  37  64  96 138 192 229 263 334 404
#
# _framework density 21.818162000000001
#
# number of rings (size 3 to 8) (size 9 to 14) (size 15 to 20)
#    0.000    0.800    4.000    2.400    2.800    6.000 
#    0.000    0.000    0.000    2.400    0.000    0.000 
#    0.000    0.000    0.000    0.000    0.000    0.000 
#
# Total GULP energy -111567.890488 kJ/mol
# GULP energy per Si atom -5578.394524 kJ/mol
# Density = 2.176850 g / cm^3
# Si number density = 21.818162 Si / 1000 Ang^3
#
#
#
# Elastic Constant Matrix: (Units=GPa)
#
#
# Indices 1 2 3 4 5 6 
#
# 1 87.4521 18.0546 30.1342 0.0000 0.0000 0.0000
# 2 18.0546 128.1156 32.9039 0.0000 0.0000 0.0000
# 3 30.1342 32.9039 97.0489 0.0000 0.0000 0.0000
# 4 0.0000 0.0000 0.0000 2.1728 0.0000 0.0000
# 5 0.0000 0.0000 0.0000 0.0000 246.8171 0.0000
# 6 0.0000 0.0000 0.0000 0.0000 0.0000 40.3053
#
#
#
# Elastic Compliance Matrix: (Units=1/GPa)
#
#
# Indices 1 2 3 4 5 6 
#
# 1 0.012892 -0.000864 -0.003710 0.000000 0.000000 0.000000
# 2 -0.000864 0.008608 -0.002650 0.000000 0.000000 0.000000
# 3 -0.003710 -0.002650 0.012355 0.000000 0.000000 0.000000
# 4 0.000000 0.000000 0.000000 0.460237 0.000000 0.000000
# 5 0.000000 0.000000 0.000000 0.000000 0.004052 0.000000
# 6 0.000000 0.000000 0.000000 0.000000 0.000000 0.024811
#
#
# Mechanical properties :
#
#
# Convention : Reuss Voigt Hill
#
# Bulk Modulus (GPa) = 51.53096 52.75580 52.14338
# Shear Modulus (GPa) = 9.19338 73.29398 41.24368
#
# Velocity S-wave (km/s) = 2.05494 5.80224 4.35252
# Velocity P-wave (km/s) = 5.41295 8.31386 7.01500
#
# Compressibility (1/GPa) = 0.01940581
#
# Stress axis : x y z
#
# Youngs Moduli (GPa) = 77.57006 116.17315 80.94155
#
# Poissons Ratio (x) = 0.10036 0.30029
# Poissons Ratio (y) = 0.06701 0.21451
# Poissons Ratio (z) = 0.28779 0.30788
#
# Static dielectric constant tensor:
#      x y z
#    x 1.873870 0.000000 0.000000 
#    y 0.000000 1.317240 0.000000 
#    z 0.000000 0.000000 1.791950 
# 
# From -- ./inp_files/21217.got.cif
#   From: 2010.05.17/outbox.cif.g08.bks.cpg/sg21_11_cif.got.tgz:21217.got - 2010.06.03 23:14:55.
