data_PCOD9325458
_publ_section_title
;
Structure prediction by ZEFSAII (Michael W. Deem and Ramdas Pophale) SiO2 
 PCOD9325458
Probable space group: C 2 2 2
;
_chemical_formula_sum "Si O2"
_cell_formula_units_Z 32
_cell_length_a 17.651048
_cell_length_b 7.600928
_cell_length_c 10.546822
_cell_angle_alpha 90.000000
_cell_angle_beta 90.000000
_cell_angle_gamma 90.000000
_cell_volume 1415.007465
_symmetry_space_group_name_H-M "C 2 2 2"
_symmetry_group_IT_number 21
_symmetry_cell_setting 'orthorhombic'
loop_
_space_group_symop_operation_xyz
x,y,z
-x,-y,z
x,-y,-z
-x,y,-z
1/2+x,1/2+y,z
1/2-x,1/2-y,z
1/2+x,1/2-y,-z
1/2-x,1/2+y,-z
loop_
_atom_site_type_symbol
_atom_site_label
_atom_site_fract_x
_atom_site_fract_y
_atom_site_fract_z
Si Si1 0.581219 0.044833 0.782753
Si Si2 0.366558 0.608736 0.677228
Si Si3 0.245137 0.456711 0.860521
Si Si4 0.918859 0.248721 0.429804
O O1 0.584219 0.250906 0.753615
O O2 0.500000 0.000000 0.839925
O O3 0.657181 0.005712 0.857777
O O4 0.588005 0.922987 0.654893
O O5 0.290826 0.561979 0.753284
O O6 0.357959 0.706872 0.541092
O O7 0.409626 0.424941 0.655706
O O8 0.250000 0.250000 0.834602
O O9 0.276844 0.500000 0.000000
O O10 0.000000 0.250269 0.500000
#
# Coordination Sequence:
#
# PCOD9325458 Si02
#       4
#     8   8   8   8
#     4  12  25  44  73 111 147 195 238 294 371 437
#     4  11  23  43  72 106 145 193 235 298 365 426
#     4  12  27  53  75 104 146 194 255 313 361 435
#     4  11  23  42  70 110 156 186 234 297 364 445
#
# _framework density 22.614722
#
# number of rings (size 3 to 8) (size 9 to 14) (size 15 to 20)
#    0.000    0.500    5.000    4.500    0.000    0.500 
#   18.000    0.000    0.000    3.000    0.000    0.000 
#    0.000    0.000    0.000    0.000    0.000    0.000 
#
# Total GULP energy -89476.553727 kJ/mol
# GULP energy per Si atom -5592.284608 kJ/mol
# Density = 2.256325 g / cm^3
# Si number density = 22.614722 Si / 1000 Ang^3
#
#
#
# Elastic Constant Matrix: (Units=GPa)
#
#
# Indices 1 2 3 4 5 6 
#
# 1 112.2313 41.2286 56.7484 0.0000 0.0000 0.0000
# 2 41.2286 151.4275 34.1563 0.0000 0.0000 0.0000
# 3 56.7484 34.1563 102.0708 0.0000 0.0000 0.0000
# 4 0.0000 0.0000 0.0000 1.8325 0.0000 0.0000
# 5 0.0000 0.0000 0.0000 0.0000 -104.8062 0.0000
# 6 0.0000 0.0000 0.0000 0.0000 0.0000 21.6187
#
#
#
# Elastic Compliance Matrix: (Units=1/GPa)
#
#
# Indices 1 2 3 4 5 6 
#
# 1 0.012962 -0.002059 -0.006518 0.000000 0.000000 0.000000
# 2 -0.002059 0.007470 -0.001355 0.000000 0.000000 0.000000
# 3 -0.006518 -0.001355 0.013874 0.000000 0.000000 0.000000
# 4 0.000000 0.000000 0.000000 0.545700 0.000000 0.000000
# 5 0.000000 0.000000 0.000000 0.000000 -0.009541 0.000000
# 6 0.000000 0.000000 0.000000 0.000000 0.000000 0.046256
#
#
# Mechanical properties :
#
#
# Convention : Reuss Voigt Hill
#
# Bulk Modulus (GPa) = 69.23681 69.99958 69.61819
# Shear Modulus (GPa) = 7.79547 -0.69790 3.54879
#
# Velocity S-wave (km/s) = 1.85864 -0.55612 1.25405
# Velocity P-wave (km/s) = 5.94040 5.53244 5.74005
#
# Compressibility (1/GPa) = 0.01444318
#
# Stress axis : x y z
#
# Youngs Moduli (GPa) = 77.14827 133.86779 72.07688
#
# Poissons Ratio (x) = 0.27564 0.46976
# Poissons Ratio (y) = 0.15885 0.09766
# Poissons Ratio (z) = 0.50281 0.18139
#
# Static dielectric constant tensor:
#      x y z
#    x 1.842760 0.000000 0.000000 
#    y 0.000000 1.824580 0.000000 
#    z 0.000000 0.000000 1.902140 
# 
# From -- ./inp_files/24697.got.cif
#   From: 2010.05.17/outbox.cif.g08.bks.cpg/sg21_13_cif.got.tgz:24697.got - 2010.06.03 23:14:55.
