data_PCOD9325422
_publ_section_title
;
Structure prediction by ZEFSAII (Michael W. Deem and Ramdas Pophale) SiO2 
 PCOD9325422
Probable space group: C 2 2 2
;
_chemical_formula_sum "Si O2"
_cell_formula_units_Z 48
_cell_length_a 8.502814
_cell_length_b 16.613613
_cell_length_c 17.771616
_cell_angle_alpha 90.000000
_cell_angle_beta 90.000000
_cell_angle_gamma 90.000000
_cell_volume 2510.462216
_symmetry_space_group_name_H-M "C 2 2 2"
_symmetry_group_IT_number 21
_symmetry_cell_setting 'orthorhombic'
loop_
_space_group_symop_operation_xyz
x,y,z
-x,-y,z
x,-y,-z
-x,y,-z
1/2+x,1/2+y,z
1/2-x,1/2-y,z
1/2+x,1/2-y,-z
1/2-x,1/2+y,-z
loop_
_atom_site_type_symbol
_atom_site_label
_atom_site_fract_x
_atom_site_fract_y
_atom_site_fract_z
Si Si1 0.381874 0.423874 0.724034
Si Si2 0.190455 0.659456 0.145466
Si Si3 0.320783 0.404396 0.008409
Si Si4 0.181298 0.659576 0.838367
Si Si5 0.809919 0.011464 0.583477
Si Si6 0.815429 0.160242 0.681767
O O1 0.500000 0.500000 0.739222
O O2 0.284692 0.397950 0.796829
O O3 0.274348 0.450908 0.652862
O O4 0.498070 0.351025 0.698360
O O5 0.250000 0.750000 0.157136
O O6 0.005324 0.657477 0.158848
O O7 0.224161 0.633996 0.059742
O O8 0.253283 0.384103 0.089800
O O9 0.320117 0.500000 0.000000
O O10 0.500000 0.374558 0.000000
O O11 0.250000 0.750000 0.841353
O O12 0.236368 0.626796 0.758033
O O13 0.778105 0.100910 0.613385
O O14 0.743749 0.000000 0.500000
O O15 0.000000 0.000000 0.577889
O O16 0.750000 0.250000 0.670269
#
# Coordination Sequence:
#
# PCOD9325422 Si02
#       6
#     8   8   8   8   8   8
#     4   9  20  37  62  88 119 155 201 240 299 356
#     4  12  24  39  62  86 119 158 201 247 300 358
#     4  11  25  40  60  83 119 158 200 248 299 353
#     4  11  23  40  59  85 118 154 202 250 297 347
#     4   8  16  33  59  88 117 154 192 235 291 358
#     4   9  17  33  59  85 117 151 196 245 293 345
#
# _framework density 19.119983999999999
#
# number of rings (size 3 to 8) (size 9 to 14) (size 15 to 20)
#    0.000    2.333    0.000    5.000    7.000    1.333 
#    0.000    0.833    0.000    6.000    0.000    0.000 
#    0.000    0.000    0.000    0.000    0.000    0.167 
#
# Total GULP energy -133899.170526 kJ/mol
# GULP energy per Si atom -5579.132105 kJ/mol
# Density = 1.907647 g / cm^3
# Si number density = 19.119984 Si / 1000 Ang^3
#
#
#
# Elastic Constant Matrix: (Units=GPa)
#
#
# Indices 1 2 3 4 5 6 
#
# 1 81.0833 36.6837 38.3376 0.0000 0.0000 0.0000
# 2 36.6837 87.7632 60.8663 0.0000 0.0000 0.0000
# 3 38.3376 60.8663 163.9242 0.0000 0.0000 0.0000
# 4 0.0000 0.0000 0.0000 30.6776 0.0000 0.0000
# 5 0.0000 0.0000 0.0000 0.0000 241.3333 0.0000
# 6 0.0000 0.0000 0.0000 0.0000 0.0000 28.3242
#
#
#
# Elastic Compliance Matrix: (Units=1/GPa)
#
#
# Indices 1 2 3 4 5 6 
#
# 1 0.015532 -0.005351 -0.001646 0.000000 0.000000 0.000000
# 2 -0.005351 0.017189 -0.005131 0.000000 0.000000 0.000000
# 3 -0.001646 -0.005131 0.008391 0.000000 0.000000 0.000000
# 4 0.000000 0.000000 0.000000 0.032597 0.000000 0.000000
# 5 0.000000 0.000000 0.000000 0.000000 0.004144 0.000000
# 6 0.000000 0.000000 0.000000 0.000000 0.000000 0.035305
#
#
# Mechanical properties :
#
#
# Convention : Reuss Voigt Hill
#
# Bulk Modulus (GPa) = 59.32402 67.17176 63.24789
# Shear Modulus (GPa) = 34.95714 73.19255 54.07484
#
# Velocity S-wave (km/s) = 4.28051 6.19385 5.32384
# Velocity P-wave (km/s) = 7.45150 9.29299 8.42272
#
# Compressibility (1/GPa) = 0.01685658
#
# Stress axis : x y z
#
# Youngs Moduli (GPa) = 64.38359 58.17520 119.18206
#
# Poissons Ratio (x) = 0.31128 0.19614
# Poissons Ratio (y) = 0.34450 0.61154
# Poissons Ratio (z) = 0.10596 0.29851
#
# Static dielectric constant tensor:
#      x y z
#    x 1.675450 0.000000 0.000000 
#    y 0.000000 1.677770 0.000000 
#    z 0.000000 0.000000 1.690930 
# 
# From -- ./inp_files/35666.got.cif
#   From: 2010.05.17/outbox.cif.g08.bks.cpg/sg21_18_cif.got.tgz:35666.got - 2010.06.03 23:14:55.
