data_PCOD9325961
_publ_section_title
;
Structure prediction by ZEFSAII (Michael W. Deem and Ramdas Pophale) SiO2 
 PCOD9325961
Probable space group: F 2 2 2
;
_chemical_formula_sum "Si O2"
_cell_formula_units_Z 80
_cell_length_a 26.854998
_cell_length_b 7.357264
_cell_length_c 16.658653
_cell_angle_alpha 90.000000
_cell_angle_beta 90.000000
_cell_angle_gamma 90.000000
_cell_volume 3291.405165
_symmetry_space_group_name_H-M "F 2 2 2"
_symmetry_group_IT_number 22
_symmetry_cell_setting 'orthorhombic'
loop_
_space_group_symop_operation_xyz
x,y,z
-x,-y,z
x,-y,-z
-x,y,-z
x,1/2+y,1/2+z
-x,1/2-y,1/2+z
x,1/2-y,1/2-z
-x,1/2+y,1/2-z
1/2+x,y,1/2+z
1/2-x,-y,1/2+z
1/2+x,-y,1/2-z
1/2-x,y,1/2-z
1/2+x,1/2+y,z
1/2-x,1/2-y,z
1/2+x,1/2-y,-z
1/2-x,1/2+y,-z
loop_
_atom_site_type_symbol
_atom_site_label
_atom_site_fract_x
_atom_site_fract_y
_atom_site_fract_z
Si Si1 0.250000 0.750000 0.938452
Si Si2 0.341279 0.201238 0.543566
Si Si3 0.791442 0.463151 0.314859
Si Si4 0.539221 0.208265 0.662912
Si Si5 0.131113 0.750000 0.750000
Si Si6 0.051420 0.851820 0.071733
O O1 0.235926 0.915967 0.881954
O O2 0.298899 0.793499 0.990501
O O3 0.398654 0.258683 0.553759
O O4 0.345075 0.000000 0.500000
O O5 0.318639 0.189127 0.632930
O O6 0.750000 0.424285 0.250000
O O7 0.833945 0.585880 0.274782
O O8 0.515838 0.250000 0.750000
O O9 0.593569 0.297490 0.676090
O O10 0.498647 0.256943 0.595307
O O11 0.553705 0.996298 0.646387
O O12 0.048193 0.000000 0.000000
#
# Coordination Sequence:
#
# PCOD9325961 Si02
#       6
#     8  16  16  16   8  16
#     4  10  19  32  51  74 106 128 168 206 263 296
#     4   9  19  32  51  75 104 135 164 217 254 308
#     4  11  18  32  53  77  96 130 177 209 248 303
#     4   9  18  29  49  77 102 126 166 215 254 291
#     4  10  17  30  52  78 100 127 172 222 244 290
#     4  10  18  33  53  77 101 131 174 211 251 300
#
# _framework density 24.305727999999998
#
# number of rings (size 3 to 8) (size 9 to 14) (size 15 to 20)
#    0.600    1.600    4.000    1.200    0.000    0.000 
#    0.000    2.500    0.000    0.000    0.000   11.200 
#    0.000    0.000    0.000    0.000    0.000    0.000 
#
# Total GULP energy -111420.567082 kJ/mol
# GULP energy per Si atom -5571.028354 kJ/mol
# Density = 2.425041 g / cm^3
# Si number density = 24.305728 Si / 1000 Ang^3
#
#
#
# Elastic Constant Matrix: (Units=GPa)
#
#
# Indices 1 2 3 4 5 6 
#
# 1 256.0114 32.6991 85.4493 0.0000 0.0000 0.0000
# 2 32.6991 35.8541 26.2596 0.0000 -0.0002 0.0000
# 3 85.4493 26.2596 122.6391 0.0000 0.0000 0.0000
# 4 0.0000 0.0000 0.0000 14.1520 0.0000 0.0000
# 5 0.0000 -0.0002 0.0000 0.0000 68.4638 0.0000
# 6 0.0000 0.0000 0.0000 0.0000 0.0000 -3.1724
#
#
#
# Elastic Compliance Matrix: (Units=1/GPa)
#
#
# Indices 1 2 3 4 5 6 
#
# 1 0.005274 -0.002513 -0.003137 0.000000 0.000000 0.000000
# 2 -0.002513 0.034275 -0.005588 0.000000 0.000000 0.000000
# 3 -0.003137 -0.005588 0.011536 0.000000 0.000000 0.000000
# 4 0.000000 0.000000 0.000000 0.070661 0.000000 0.000000
# 5 0.000000 0.000000 0.000000 0.000000 0.014606 0.000000
# 6 0.000000 0.000000 0.000000 0.000000 0.000000 -0.315217
#
#
# Mechanical properties :
#
#
# Convention : Reuss Voigt Hill
#
# Bulk Modulus (GPa) = 34.95284 78.14675 56.54979
# Shear Modulus (GPa) = -34.04772 33.89511 -0.07630
#
# Velocity S-wave (km/s) = -3.74680 3.73839 -0.17737
# Velocity P-wave (km/s) = 2.07516 7.13130 4.82438
#
# Compressibility (1/GPa) = 0.02860998
#
# Stress axis : x y z
#
# Youngs Moduli (GPa) = 189.61272 29.17561 86.68468
#
# Poissons Ratio (x) = 0.07331 0.27190
# Poissons Ratio (y) = 0.47641 0.48443
# Poissons Ratio (z) = 0.59474 0.16305
#
# Static dielectric constant tensor:
#      x y z
#    x 2.100470 0.000000 0.000000 
#    y 0.000000 1.953950 0.000000 
#    z 0.000000 0.000000 1.987410 
# 
# From -- ./inp_files/33020.got.cif
#   From: 2010.05.17/outbox.cif.g08.bks.cpg/sg22_17_cif.got.tgz:33020.got - 2010.06.03 23:40:54.
