data_PCOD9325963
_publ_section_title
;
Structure prediction by ZEFSAII (Michael W. Deem and Ramdas Pophale) SiO2 
 PCOD9325963
Probable space group: F 2 2 2
;
_chemical_formula_sum "Si O2"
_cell_formula_units_Z 104
_cell_length_a 24.750477
_cell_length_b 12.957908
_cell_length_c 16.661197
_cell_angle_alpha 90.000000
_cell_angle_beta 90.000000
_cell_angle_gamma 90.000000
_cell_volume 5343.485864
_symmetry_space_group_name_H-M "F 2 2 2"
_symmetry_group_IT_number 22
_symmetry_cell_setting 'orthorhombic'
loop_
_space_group_symop_operation_xyz
x,y,z
-x,-y,z
x,-y,-z
-x,y,-z
x,1/2+y,1/2+z
-x,1/2-y,1/2+z
x,1/2-y,1/2-z
-x,1/2+y,1/2-z
1/2+x,y,1/2+z
1/2-x,-y,1/2+z
1/2+x,-y,1/2-z
1/2-x,y,1/2-z
1/2+x,1/2+y,z
1/2-x,1/2-y,z
1/2+x,1/2-y,-z
1/2-x,1/2+y,-z
loop_
_atom_site_type_symbol
_atom_site_label
_atom_site_fract_x
_atom_site_fract_y
_atom_site_fract_z
Si Si1 0.886174 0.891744 0.529088
Si Si2 0.633106 0.000000 0.500000
Si Si3 0.540240 0.899107 0.819171
Si Si4 0.936997 0.472167 0.342784
Si Si5 0.467590 0.769036 0.928778
Si Si6 0.117922 0.326540 0.321348
Si Si7 0.311053 0.286415 0.041315
O O1 0.909604 0.904697 0.618675
O O2 0.938115 0.865158 0.472586
O O3 0.846782 0.796671 0.508936
O O4 0.862196 0.000000 0.500000
O O5 0.595181 0.036925 0.425915
O O6 0.671670 0.901856 0.483801
O O7 0.504319 0.808741 0.857215
O O8 0.500000 0.000000 0.821201
O O9 0.558335 0.886330 0.727047
O O10 0.899622 0.559061 0.297662
O O11 0.000000 0.500000 0.358559
O O12 0.423539 0.694281 0.893690
O O13 0.500000 0.715868 0.000000
O O14 0.106577 0.250000 0.250000
O O15 0.173433 0.292958 0.363627
O O16 0.250000 0.250000 0.031247
#
# Coordination Sequence:
#
# PCOD9325963 Si02
#       7
#    16   8  16  16  16  16  16
#     4  10  19  32  59  89 119 146 186 246 294 344
#     4  10  23  46  58  82 122 150 205 238 280 370
#     4  10  17  30  52  88 125 152 186 229 289 343
#     4  10  21  33  57  81 122 168 187 224 276 351
#     4   9  18  30  50  80 121 153 186 232 286 344
#     4  10  20  35  53  82 116 147 202 246 286 343
#     4  10  24  42  64  85 103 156 200 251 309 345
#
# _framework density 19.462948999999998
#
# number of rings (size 3 to 8) (size 9 to 14) (size 15 to 20)
#    0.000    2.154    1.538    2.077    3.231    5.231 
#    0.000    3.846    0.000    1.846    0.000    0.000 
#    0.000    0.000    0.000    0.000    0.000    0.000 
#
# Total GULP energy -144804.354173 kJ/mol
# GULP energy per Si atom -5569.398237 kJ/mol
# Density = 1.941865 g / cm^3
# Si number density = 19.462949 Si / 1000 Ang^3
#
#
#
# Elastic Constant Matrix: (Units=GPa)
#
#
# Indices 1 2 3 4 5 6 
#
# 1 110.4983 33.6392 49.6229 0.0000 0.0000 0.0000
# 2 33.6392 71.3567 28.6626 0.0000 0.0000 0.0000
# 3 49.6229 28.6626 108.2022 0.0000 0.0000 0.0000
# 4 0.0000 0.0000 0.0000 15.1684 0.0000 0.0000
# 5 0.0000 0.0000 0.0000 0.0000 15.4091 0.0000
# 6 0.0000 0.0000 0.0000 0.0000 0.0000 19.0291
#
#
#
# Elastic Compliance Matrix: (Units=1/GPa)
#
#
# Indices 1 2 3 4 5 6 
#
# 1 0.012322 -0.003960 -0.004602 0.000000 0.000000 0.000000
# 2 -0.003960 0.016956 -0.002675 0.000000 0.000000 0.000000
# 3 -0.004602 -0.002675 0.012061 0.000000 0.000000 0.000000
# 4 0.000000 0.000000 0.000000 0.065927 0.000000 0.000000
# 5 0.000000 0.000000 0.000000 0.000000 0.064897 0.000000
# 6 0.000000 0.000000 0.000000 0.000000 0.000000 0.052551
#
#
# Mechanical properties :
#
#
# Convention : Reuss Voigt Hill
#
# Bulk Modulus (GPa) = 53.01177 57.10074 55.05625
# Shear Modulus (GPa) = 19.72565 21.79682 20.76124
#
# Velocity S-wave (km/s) = 3.18700 3.35014 3.26959
# Velocity P-wave (km/s) = 6.39054 6.66082 6.52708
#
# Compressibility (1/GPa) = 0.01886374
#
# Stress axis : x y z
#
# Youngs Moduli (GPa) = 81.15368 58.97710 82.91068
#
# Poissons Ratio (x) = 0.23358 0.38156
# Poissons Ratio (y) = 0.32141 0.22181
# Poissons Ratio (z) = 0.37347 0.15778
#
# Static dielectric constant tensor:
#      x y z
#    x 1.712250 0.000000 0.000000 
#    y 0.000000 1.740540 0.000000 
#    z 0.000000 0.000000 1.723120 
# 
# From -- ./inp_files/39563.got.cif
#   From: 2010.05.17/outbox.cif.g08.bks.cpg/sg22_20_cif.got.tgz:39563.got - 2010.06.03 23:40:54.
