data_PCOD9325603
_publ_section_title
;
Structure prediction by ZEFSAII (Michael W. Deem and Ramdas Pophale) SiO2 
 PCOD9325603
Probable space group: C 2 2 2
;
_chemical_formula_sum "Si O2"
_cell_formula_units_Z 40
_cell_length_a 8.411352
_cell_length_b 24.355816
_cell_length_c 8.788495
_cell_angle_alpha 90.000000
_cell_angle_beta 90.000000
_cell_angle_gamma 90.000000
_cell_volume 1800.458031
_symmetry_space_group_name_H-M "C 2 2 2"
_symmetry_group_IT_number 21
_symmetry_cell_setting 'orthorhombic'
loop_
_space_group_symop_operation_xyz
x,y,z
-x,-y,z
x,-y,-z
-x,y,-z
1/2+x,1/2+y,z
1/2-x,1/2-y,z
1/2+x,1/2-y,-z
1/2-x,1/2+y,-z
loop_
_atom_site_type_symbol
_atom_site_label
_atom_site_fract_x
_atom_site_fract_y
_atom_site_fract_z
Si Si1 0.310281 0.388394 0.328668
Si Si2 0.690294 0.999579 0.819445
Si Si3 0.677327 0.385195 0.304097
Si Si4 0.626765 0.793644 0.879897
Si Si5 0.606770 0.789394 0.357938
O O1 0.259449 0.447205 0.265130
O O2 0.489801 0.377260 0.276430
O O3 0.303564 0.384138 0.512759
O O4 0.187082 0.341717 0.278733
O O5 0.500000 0.000000 0.798717
O O6 0.766257 0.944861 0.750450
O O7 0.723785 0.000000 0.000000
O O8 0.780484 0.340481 0.212915
O O9 0.750000 0.750000 0.948442
O O10 0.516420 0.761821 0.757468
O O11 0.500000 0.815945 0.000000
O O12 0.500000 0.806384 0.500000
O O13 0.750000 0.750000 0.405767
#
# Coordination Sequence:
#
# PCOD9325603 Si02
#       5
#     8   8   8   8   8
#     4  11  25  45  72 108 144 191 243 307 372 437
#     4  11  26  45  71 104 145 192 243 300 370 449
#     4  11  25  45  74 104 147 190 247 306 367 444
#     4  12  27  48  71 106 150 198 249 305 373 446
#     4  12  25  43  74 106 145 191 245 305 367 438
#
# _framework density 22.216567999999999
#
# number of rings (size 3 to 8) (size 9 to 14) (size 15 to 20)
#    0.000    0.600    2.000    4.800    8.400    4.000 
#    0.000    0.000    0.000    0.000    0.000    0.000 
#    0.000    0.000    0.000    0.000    0.000    0.000 
#
# Total GULP energy -111939.133691 kJ/mol
# GULP energy per Si atom -5596.956685 kJ/mol
# Density = 2.216600 g / cm^3
# Si number density = 22.216568 Si / 1000 Ang^3
#
#
#
# Elastic Constant Matrix: (Units=GPa)
#
#
# Indices 1 2 3 4 5 6 
#
# 1 167.7386 77.5988 74.8755 0.0000 0.0000 0.0000
# 2 77.5988 147.7687 36.3276 0.0000 0.0000 0.0000
# 3 74.8755 36.3276 79.7145 0.0000 0.0000 0.0000
# 4 0.0000 0.0000 0.0000 28.1728 0.0000 0.0000
# 5 0.0000 0.0000 0.0000 0.0000 41.3733 0.0000
# 6 0.0000 0.0000 0.0000 0.0000 0.0000 42.2611
#
#
#
# Elastic Compliance Matrix: (Units=1/GPa)
#
#
# Indices 1 2 3 4 5 6 
#
# 1 0.012048 -0.003992 -0.009497 0.000000 0.000000 0.000000
# 2 -0.003992 0.008944 -0.000326 0.000000 0.000000 0.000000
# 3 -0.009497 -0.000326 0.021614 0.000000 0.000000 0.000000
# 4 0.000000 0.000000 0.000000 0.035495 0.000000 0.000000
# 5 0.000000 0.000000 0.000000 0.000000 0.024170 0.000000
# 6 0.000000 0.000000 0.000000 0.000000 0.000000 0.023662
#
#
# Mechanical properties :
#
#
# Convention : Reuss Voigt Hill
#
# Bulk Modulus (GPa) = 66.77836 85.86950 76.32393
# Shear Modulus (GPa) = 31.53454 36.12276 33.82865
#
# Velocity S-wave (km/s) = 3.77160 4.03667 3.90638
# Velocity P-wave (km/s) = 7.00641 7.77568 7.40105
#
# Compressibility (1/GPa) = 0.01497491
#
# Stress axis : x y z
#
# Youngs Moduli (GPa) = 83.00279 111.80850 46.26590
#
# Poissons Ratio (x) = 0.44633 0.43940
# Poissons Ratio (y) = 0.33134 0.01510
# Poissons Ratio (z) = 0.78830 0.03648
#
# Static dielectric constant tensor:
#      x y z
#    x 1.803700 0.000000 0.000000 
#    y 0.000000 1.765560 0.000000 
#    z 0.000000 0.000000 1.858730 
# 
# From -- ./inp_files/10904.got.cif
#   From: 2010.05.17/outbox.cif.g08.bks.cpg/sg21_6_cif.got.tgz:10904.got - 2010.06.03 23:14:55.
