data_PCOD9325876
_publ_section_title
;
Structure prediction by ZEFSAII (Michael W. Deem and Ramdas Pophale) SiO2 
 PCOD9325876
Probable space group: F 2 2 2
;
_chemical_formula_sum "Si O2"
_cell_formula_units_Z 68
_cell_length_a 14.440392
_cell_length_b 5.626360
_cell_length_c 36.109774
_cell_angle_alpha 90.000000
_cell_angle_beta 90.000000
_cell_angle_gamma 90.000000
_cell_volume 2933.805173
_symmetry_space_group_name_H-M "F 2 2 2"
_symmetry_group_IT_number 22
_symmetry_cell_setting 'orthorhombic'
loop_
_space_group_symop_operation_xyz
x,y,z
-x,-y,z
x,-y,-z
-x,y,-z
x,1/2+y,1/2+z
-x,1/2-y,1/2+z
x,1/2-y,1/2-z
-x,1/2+y,1/2-z
1/2+x,y,1/2+z
1/2-x,-y,1/2+z
1/2+x,-y,1/2-z
1/2-x,y,1/2-z
1/2+x,1/2+y,z
1/2-x,1/2-y,z
1/2+x,1/2-y,-z
1/2-x,1/2+y,-z
loop_
_atom_site_type_symbol
_atom_site_label
_atom_site_fract_x
_atom_site_fract_y
_atom_site_fract_z
Si Si1 0.609078 0.757144 0.897157
Si Si2 0.101065 0.760105 0.868425
Si Si3 0.893006 0.248497 0.485473
Si Si4 0.646735 0.141840 0.712327
Si Si5 0.250000 0.750000 0.250000
O O1 0.647481 0.503657 0.883052
O O2 0.500613 0.748406 0.886268
O O3 0.614093 0.761087 0.941322
O O4 0.643948 0.004481 0.879189
O O5 0.092623 0.797338 0.824424
O O6 0.854963 0.500000 0.500000
O O7 0.000000 0.248333 0.500000
O O8 0.852822 0.000000 0.500000
O O9 0.605195 0.250000 0.750000
O O10 0.750000 0.250000 0.707520
O O11 0.677376 0.877815 0.722514
#
# Coordination Sequence:
#
# PCOD9325876 Si02
#       5
#    16  16  16  16   4
#     4  10  20  32  47  78 111 136 163 200 256 305
#     4  10  19  33  50  71 107 135 160 208 259 301
#     4  10  16  26  46  67 101 137 170 198 230 288
#     4   9  20  35  55  75  92 130 174 220 257 293
#     4   8  18  36  56  74  96 116 190 224 264 288
#
# _framework density 23.178091999999999
#
# number of rings (size 3 to 8) (size 9 to 14) (size 15 to 20)
#    0.000    2.588    0.000    7.059    6.588    0.000 
#    0.000    4.706    0.000    0.000    0.000    0.000 
#    0.000   69.647    0.000    0.000    0.000    0.000 
#
# Total GULP energy -94772.514152 kJ/mol
# GULP energy per Si atom -5574.853774 kJ/mol
# Density = 2.312534 g / cm^3
# Si number density = 23.178092 Si / 1000 Ang^3
#
#
#
# Elastic Constant Matrix: (Units=GPa)
#
#
# Indices 1 2 3 4 5 6 
#
# 1 69.1851 16.5062 5.7045 0.0000 0.0000 0.0000
# 2 16.5062 247.7210 95.4979 0.0000 0.0000 0.0000
# 3 5.7045 95.4979 245.1420 0.0000 0.0000 0.0000
# 4 0.0000 0.0000 0.0000 106.0731 0.0000 0.0000
# 5 0.0000 0.0000 0.0000 0.0000 -99.6254 0.0000
# 6 0.0000 0.0000 0.0000 0.0000 0.0000 21.6248
#
#
#
# Elastic Compliance Matrix: (Units=1/GPa)
#
#
# Indices 1 2 3 4 5 6 
#
# 1 0.014688 -0.000997 0.000046 0.000000 0.000000 0.000000
# 2 -0.000997 0.004818 -0.001854 0.000000 0.000000 0.000000
# 3 0.000046 -0.001854 0.004800 0.000000 0.000000 0.000000
# 4 0.000000 0.000000 0.000000 0.009427 0.000000 0.000000
# 5 0.000000 0.000000 0.000000 0.000000 -0.010038 0.000000
# 6 0.000000 0.000000 0.000000 0.000000 0.000000 0.046243
#
#
# Mechanical properties :
#
#
# Convention : Reuss Voigt Hill
#
# Bulk Modulus (GPa) = 53.48042 88.60726 71.04384
# Shear Modulus (GPa) = 61.14006 35.23712 48.18859
#
# Velocity S-wave (km/s) = 5.14156 3.90330 4.56462
# Velocity P-wave (km/s) = 7.64011 7.65678 7.64845
#
# Compressibility (1/GPa) = 0.01869843
#
# Stress axis : x y z
#
# Youngs Moduli (GPa) = 68.08315 207.56396 208.32061
#
# Poissons Ratio (x) = 0.20686 -0.00967
# Poissons Ratio (y) = 0.06785 0.38615
# Poissons Ratio (z) = -0.00316 0.38475
#
# Static dielectric constant tensor:
#      x y z
#    x 1.034280 0.000000 0.000000 
#    y 0.000000 2.279000 0.000000 
#    z 0.000000 0.000000 1.731440 
# 
# From -- ./inp_files/3980.got.cif
#   From: 2010.05.17/outbox.cif.g08.bks.cpg/sg22_2_cif.got.tgz:3980.got - 2010.06.03 23:40:54.
