data_PCOD9325354
_publ_section_title
;
Structure prediction by ZEFSAII (Michael W. Deem and Ramdas Pophale) SiO2 
 PCOD9325354
Probable space group: C 2 2 2
;
_chemical_formula_sum "Si O2"
_cell_formula_units_Z 24
_cell_length_a 14.020583
_cell_length_b 9.474741
_cell_length_c 7.212578
_cell_angle_alpha 90.000000
_cell_angle_beta 90.000000
_cell_angle_gamma 90.000000
_cell_volume 958.128906
_symmetry_space_group_name_H-M "C 2 2 2"
_symmetry_group_IT_number 21
_symmetry_cell_setting 'orthorhombic'
loop_
_space_group_symop_operation_xyz
x,y,z
-x,-y,z
x,-y,-z
-x,y,-z
1/2+x,1/2+y,z
1/2-x,1/2-y,z
1/2+x,1/2-y,-z
1/2-x,1/2+y,-z
loop_
_atom_site_type_symbol
_atom_site_label
_atom_site_fract_x
_atom_site_fract_y
_atom_site_fract_z
Si Si1 0.408228 0.358797 0.858695
Si Si2 0.714643 0.394339 0.791256
Si Si3 0.097770 0.442890 0.708888
O O1 0.373628 0.497955 0.742466
O O2 0.408818 0.224611 0.727538
O O3 0.500000 0.360356 0.000000
O O4 0.325589 0.342780 0.011875
O O5 0.750000 0.250000 0.689289
O O6 0.808079 0.490494 0.795067
O O7 0.100426 0.500000 0.500000
O O8 0.000000 0.500000 0.794553
#
# Coordination Sequence:
#
# PCOD9325354 Si02
#       3
#     8   8   8
#     4  11  23  43  71 105 145 189 245 304 364 443
#     4  11  22  39  69 107 140 182 240 302 367 438
#     4  11  26  46  68 101 149 199 245 303 374 441
#
# _framework density 25.048819999999999
#
# number of rings (size 3 to 8) (size 9 to 14) (size 15 to 20)
#    0.000    1.000    0.000    9.000    0.000    6.000 
#    0.000    0.000    0.000    6.000    0.000    0.000 
#    0.000    0.000    0.000    0.000    0.000    0.000 
#
# Total GULP energy -66847.111151 kJ/mol
# GULP energy per Si atom -5570.592596 kJ/mol
# Density = 2.499181 g / cm^3
# Si number density = 25.048820 Si / 1000 Ang^3
#
#
#
# Elastic Constant Matrix: (Units=GPa)
#
#
# Indices 1 2 3 4 5 6 
#
# 1 206.6982 62.0735 40.2789 0.0000 0.0000 0.0000
# 2 62.0735 263.5652 42.5085 0.0000 0.0000 0.0000
# 3 40.2789 42.5085 100.9314 0.0000 0.0000 0.0000
# 4 0.0000 0.0000 0.0000 -48.8829 0.0000 0.0000
# 5 0.0000 0.0000 0.0000 0.0000 236.0926 0.0000
# 6 0.0000 0.0000 0.0000 0.0000 0.0000 40.1729
#
#
#
# Elastic Compliance Matrix: (Units=1/GPa)
#
#
# Indices 1 2 3 4 5 6 
#
# 1 0.005484 -0.001007 -0.001764 0.000000 0.000000 0.000000
# 2 -0.001007 0.004256 -0.001390 0.000000 0.000000 0.000000
# 3 -0.001764 -0.001390 0.011197 0.000000 0.000000 0.000000
# 4 0.000000 0.000000 0.000000 -0.020457 0.000000 0.000000
# 5 0.000000 0.000000 0.000000 0.000000 0.004236 0.000000
# 6 0.000000 0.000000 0.000000 0.000000 0.000000 0.024892
#
#
# Mechanical properties :
#
#
# Convention : Reuss Voigt Hill
#
# Bulk Modulus (GPa) = 79.28068 95.65741 87.46904
# Shear Modulus (GPa) = 118.66184 73.89877 96.28031
#
# Velocity S-wave (km/s) = 6.89022 5.43746 6.20649
# Velocity P-wave (km/s) = 9.74778 8.81434 9.29279
#
# Compressibility (1/GPa) = 0.01261341
#
# Stress axis : x y z
#
# Youngs Moduli (GPa) = 182.34085 234.98743 89.30600
#
# Poissons Ratio (x) = 0.23664 0.15758
# Poissons Ratio (y) = 0.18362 0.12417
# Poissons Ratio (z) = 0.32174 0.32673
#
# Static dielectric constant tensor:
#      x y z
#    x 2.135750 0.000000 0.000000 
#    y 0.000000 1.611220 0.000000 
#    z 0.000000 0.000000 2.058980 
# 
# From -- ./inp_files/13825.got.cif
#   From: 2010.05.17/outbox.cif.g08.bks.cpg/sg21_7_cif.got.tgz:13825.got - 2010.06.03 23:14:55.
