data_PCOD9325698
_publ_section_title
;
Structure prediction by ZEFSAII (Michael W. Deem and Ramdas Pophale) SiO2 
 PCOD9325698
Probable space group: C 2 2 2
;
_chemical_formula_sum "Si O2"
_cell_formula_units_Z 34
_cell_length_a 8.413136
_cell_length_b 12.893229
_cell_length_c 15.383160
_cell_angle_alpha 90.000000
_cell_angle_beta 90.000000
_cell_angle_gamma 90.000000
_cell_volume 1668.649655
_symmetry_space_group_name_H-M "C 2 2 2"
_symmetry_group_IT_number 21
_symmetry_cell_setting 'orthorhombic'
loop_
_space_group_symop_operation_xyz
x,y,z
-x,-y,z
x,-y,-z
-x,y,-z
1/2+x,1/2+y,z
1/2-x,1/2-y,z
1/2+x,1/2-y,-z
1/2-x,1/2+y,-z
loop_
_atom_site_type_symbol
_atom_site_label
_atom_site_fract_x
_atom_site_fract_y
_atom_site_fract_z
Si Si1 0.161730 0.141817 0.642909
Si Si2 0.500000 0.500000 0.500000
Si Si3 0.397380 0.322516 0.208911
Si Si4 0.313178 0.023171 0.794215
Si Si5 0.892527 0.690753 0.927063
O O1 0.250000 0.250000 0.622525
O O2 0.276124 0.068985 0.699905
O O3 0.015333 0.162954 0.709515
O O4 0.102352 0.076160 0.561213
O O5 0.250000 0.250000 0.234334
O O6 0.310628 0.431127 0.186182
O O7 0.495979 0.264867 0.132457
O O8 0.299610 0.113939 0.864057
O O9 0.500000 0.000000 0.798533
O O10 0.750000 0.750000 0.974616
O O11 0.000000 0.638220 0.000000
#
# Coordination Sequence:
#
# PCOD9325698 Si02
#       5
#     8   2   8   8   8
#     4  12  24  49  74 106 146 189 242 300 373 435
#     4  12  28  44  78 114 150 184 254 304 352 462
#     4  12  22  44  75  99 139 198 237 293 375 430
#     4  12  23  44  75  98 136 194 239 292 373 437
#     4  12  26  45  66 105 144 190 247 302 351 432
#
# _framework density 20.375758999999999
#
# number of rings (size 3 to 8) (size 9 to 14) (size 15 to 20)
#    0.000    0.000    9.412    0.706    0.000    1.412 
#    4.235    1.176    0.000    0.000    0.000    0.000 
#    0.000    0.000    0.000    0.000    0.000    0.000 
#
# Total GULP energy -94975.226236 kJ/mol
# GULP energy per Si atom -5586.778014 kJ/mol
# Density = 2.032938 g / cm^3
# Si number density = 20.375759 Si / 1000 Ang^3
#
#
#
# Elastic Constant Matrix: (Units=GPa)
#
#
# Indices 1 2 3 4 5 6 
#
# 1 98.4926 43.8052 22.1724 0.0000 0.0000 0.0000
# 2 43.8052 124.3255 38.2820 0.0000 0.0000 0.0000
# 3 22.1724 38.2820 98.7234 0.0000 0.0000 0.0000
# 4 0.0000 0.0000 0.0000 -937.3270 0.0000 0.0000
# 5 0.0000 0.0000 0.0000 0.0000 40.0442 0.0000
# 6 0.0000 0.0000 0.0000 0.0000 0.0000 57.5531
#
#
#
# Elastic Compliance Matrix: (Units=1/GPa)
#
#
# Indices 1 2 3 4 5 6 
#
# 1 0.012167 -0.003913 -0.001215 0.000000 0.000000 0.000000
# 2 -0.003913 0.010392 -0.003151 0.000000 0.000000 0.000000
# 3 -0.001215 -0.003151 0.011624 0.000000 0.000000 0.000000
# 4 0.000000 0.000000 0.000000 -0.001067 0.000000 0.000000
# 5 0.000000 0.000000 0.000000 0.000000 0.024972 0.000000
# 6 0.000000 0.000000 0.000000 0.000000 0.000000 0.017375
#
#
# Mechanical properties :
#
#
# Convention : Reuss Voigt Hill
#
# Bulk Modulus (GPa) = 56.73726 58.89563 57.81645
# Shear Modulus (GPa) = 51.07395 -153.46050 -51.19327
#
# Velocity S-wave (km/s) = 5.01203 -8.68785 -5.01788
# Velocity P-wave (km/s) = 7.83581 8.46586 2.26616
#
# Compressibility (1/GPa) = 0.01762510
#
# Stress axis : x y z
#
# Youngs Moduli (GPa) = 82.19072 96.22538 86.02773
#
# Poissons Ratio (x) = 0.37650 0.10455
# Poissons Ratio (y) = 0.32158 0.27108
# Poissons Ratio (z) = 0.09989 0.30321
#
# Static dielectric constant tensor:
#      x y z
#    x 1.846960 0.000000 0.000000 
#    y 0.000000 1.790570 0.000000 
#    z 0.000000 0.000000 1.671790 
# 
# From -- ./inp_files/29953.got.cif
#   From: 2010.05.17/outbox.cif.g08.bks.cpg/sg21_15_cif.got.tgz:29953.got - 2010.06.03 23:14:55.
