data_PCOD9325267
_publ_section_title
;
Structure prediction by ZEFSAII (Michael W. Deem and Ramdas Pophale) SiO2 
 PCOD9325267
Probable space group: C 2 2 2
;
_chemical_formula_sum "Si O2"
_cell_formula_units_Z 24
_cell_length_a 21.517133
_cell_length_b 10.423655
_cell_length_c 4.739995
_cell_angle_alpha 90.000000
_cell_angle_beta 90.000000
_cell_angle_gamma 90.000000
_cell_volume 1063.120069
_symmetry_space_group_name_H-M "C 2 2 2"
_symmetry_group_IT_number 21
_symmetry_cell_setting 'orthorhombic'
loop_
_space_group_symop_operation_xyz
x,y,z
-x,-y,z
x,-y,-z
-x,y,-z
1/2+x,1/2+y,z
1/2-x,1/2-y,z
1/2+x,1/2-y,-z
1/2-x,1/2+y,-z
loop_
_atom_site_type_symbol
_atom_site_label
_atom_site_fract_x
_atom_site_fract_y
_atom_site_fract_z
Si Si1 0.649117 0.229356 0.958853
Si Si2 0.760157 0.884999 0.720870
Si Si3 0.071219 0.652560 0.450905
O O1 0.702908 0.129523 0.057944
O O2 0.679174 0.359705 0.084680
O O3 0.589275 0.187171 0.135612
O O4 0.622819 0.222123 0.645458
O O5 0.750000 0.750000 0.550969
O O6 0.760750 0.000000 0.500000
O O7 0.077875 0.500000 0.500000
O O8 0.000000 0.688635 0.500000
#
# Coordination Sequence:
#
# PCOD9325267 Si02
#       3
#     8   8   8
#     4   9  21  35  60  90 133 172 218 277 339 407
#     4   8  19  37  65  95 143 178 223 278 350 409
#     4  11  21  36  57  91 132 176 220 280 340 401
#
# _framework density 22.575061000000002
#
# number of rings (size 3 to 8) (size 9 to 14) (size 15 to 20)
#    2.000    0.333    0.000    3.000    0.000    8.000 
#    0.000    5.000    0.000    1.000    0.000    4.667 
#    0.000   10.667    0.000    0.000    0.000    0.000 
#
# Total GULP energy -66879.042331 kJ/mol
# GULP energy per Si atom -5573.253528 kJ/mol
# Density = 2.252368 g / cm^3
# Si number density = 22.575061 Si / 1000 Ang^3
#
#
#
# Elastic Constant Matrix: (Units=GPa)
#
#
# Indices 1 2 3 4 5 6 
#
# 1 138.0095 7.6651 9.6747 0.0000 0.0000 0.0000
# 2 7.6651 124.5258 23.4506 0.0000 0.0000 0.0000
# 3 9.6747 23.4506 72.5979 0.0000 0.0000 0.0000
# 4 0.0000 0.0000 0.0000 44.1305 0.0000 0.0000
# 5 0.0000 0.0000 0.0000 0.0000 12.8784 0.0000
# 6 0.0000 0.0000 0.0000 0.0000 0.0000 45.7551
#
#
#
# Elastic Compliance Matrix: (Units=1/GPa)
#
#
# Indices 1 2 3 4 5 6 
#
# 1 0.007324 -0.000284 -0.000884 0.000000 0.000000 0.000000
# 2 -0.000284 0.008562 -0.002728 0.000000 0.000000 0.000000
# 3 -0.000884 -0.002728 0.014773 0.000000 0.000000 0.000000
# 4 0.000000 0.000000 0.000000 0.022660 0.000000 0.000000
# 5 0.000000 0.000000 0.000000 0.000000 0.077649 0.000000
# 6 0.000000 0.000000 0.000000 0.000000 0.000000 0.021855
#
#
# Mechanical properties :
#
#
# Convention : Reuss Voigt Hill
#
# Bulk Modulus (GPa) = 43.73224 46.30157 45.01691
# Shear Modulus (GPa) = 29.71981 40.17567 34.94774
#
# Velocity S-wave (km/s) = 3.63228 4.22316 3.93882
# Velocity P-wave (km/s) = 6.08320 6.65843 6.37730
#
# Compressibility (1/GPa) = 0.02286642
#
# Stress axis : x y z
#
# Youngs Moduli (GPa) = 136.54399 116.80004 67.68913
#
# Poissons Ratio (x) = 0.03321 0.05985
# Poissons Ratio (y) = 0.03882 0.18464
# Poissons Ratio (z) = 0.12072 0.31860
#
# Static dielectric constant tensor:
#      x y z
#    x 1.829360 0.000000 0.000000 
#    y 0.000000 1.972390 0.000000 
#    z 0.000000 0.000000 1.834470 
# 
# From -- ./inp_files/6300.got.cif
#   From: 2010.05.17/outbox.cif.g08.bks.cpg/sg21_4_cif.got.tgz:6300.got - 2010.06.03 23:14:55.
