data_PCOD9325080
_publ_section_title
;
Structure prediction by ZEFSAII (Michael W. Deem and Ramdas Pophale) SiO2 
 PCOD9325080
Probable space group: C 2 2 2
;
_chemical_formula_sum "Si O2"
_cell_formula_units_Z 56
_cell_length_a 21.726785
_cell_length_b 14.182996
_cell_length_c 8.460675
_cell_angle_alpha 90.000000
_cell_angle_beta 90.000000
_cell_angle_gamma 90.000000
_cell_volume 2607.164656
_symmetry_space_group_name_H-M "C 2 2 2"
_symmetry_group_IT_number 21
_symmetry_cell_setting 'orthorhombic'
loop_
_space_group_symop_operation_xyz
x,y,z
-x,-y,z
x,-y,-z
-x,y,-z
1/2+x,1/2+y,z
1/2-x,1/2-y,z
1/2+x,1/2-y,-z
1/2-x,1/2+y,-z
loop_
_atom_site_type_symbol
_atom_site_label
_atom_site_fract_x
_atom_site_fract_y
_atom_site_fract_z
Si Si1 0.874331 0.403844 0.396110
Si Si2 0.765728 0.358875 0.187146
Si Si3 0.017454 0.391515 0.829633
Si Si4 0.940053 0.945896 0.331008
Si Si5 0.205505 0.660354 0.837309
Si Si6 0.302042 0.484287 0.310441
Si Si7 0.418229 0.774081 0.659455
O O1 0.884143 0.500000 0.500000
O O2 0.805789 0.393792 0.334609
O O3 0.914268 0.396197 0.236991
O O4 0.892072 0.311631 0.494759
O O5 0.750000 0.250000 0.202086
O O6 0.705742 0.421360 0.207922
O O7 0.797214 0.375515 0.017649
O O8 0.000000 0.500000 0.835929
O O9 0.975213 0.339470 0.704213
O O10 0.000000 0.349042 0.000000
O O11 0.870607 0.951142 0.263504
O O12 0.944226 0.832260 0.344900
O O13 0.936009 0.000000 0.500000
O O14 0.000000 0.000000 0.255719
O O15 0.250000 0.750000 0.838099
O O16 0.244738 0.584074 0.736424
O O17 0.139131 0.695895 0.774811
O O18 0.301466 0.500000 0.500000
#
# Coordination Sequence:
#
# PCOD9325080 Si02
#       7
#     8   8   8   8   8   8   8
#     4  12  25  43  67 108 135 174 232 286 346 412
#     4  11  26  41  68  99 139 180 220 277 346 423
#     4  11  25  44  68 100 142 182 223 277 353 426
#     4  10  25  43  67 102 134 180 230 286 345 395
#     4  11  23  45  68 101 136 179 226 274 353 410
#     4  11  23  42  69  99 136 174 229 288 341 408
#     4  12  24  42  74  98 142 181 230 296 339 415
#
# _framework density 21.479272999999999
#
# number of rings (size 3 to 8) (size 9 to 14) (size 15 to 20)
#    0.000    0.857    2.857    3.857    8.000    1.143 
#    0.000    0.000    0.000    0.000    0.000    0.000 
#    0.000    0.000    0.000    0.000    0.000    0.000 
#
# Total GULP energy -156102.967625 kJ/mol
# GULP energy per Si atom -5575.105987 kJ/mol
# Density = 2.143038 g / cm^3
# Si number density = 21.479273 Si / 1000 Ang^3
#
#
#
# Elastic Constant Matrix: (Units=GPa)
#
#
# Indices 1 2 3 4 5 6 
#
# 1 91.8368 36.8842 15.4312 0.0000 0.0000 0.0000
# 2 36.8842 134.5688 27.1286 0.0000 0.0000 0.0000
# 3 15.4312 27.1286 81.3901 0.0000 0.0000 0.0000
# 4 0.0000 0.0000 0.0000 -28.9119 0.0000 0.0000
# 5 0.0000 0.0000 0.0000 0.0000 14.6710 0.0000
# 6 0.0000 0.0000 0.0000 0.0000 0.0000 28.2812
#
#
#
# Elastic Compliance Matrix: (Units=1/GPa)
#
#
# Indices 1 2 3 4 5 6 
#
# 1 0.012363 -0.003126 -0.001302 0.000000 0.000000 0.000000
# 2 -0.003126 0.008757 -0.002326 0.000000 0.000000 0.000000
# 3 -0.001302 -0.002326 0.013309 0.000000 0.000000 0.000000
# 4 0.000000 0.000000 0.000000 -0.034588 0.000000 0.000000
# 5 0.000000 0.000000 0.000000 0.000000 0.068162 0.000000
# 6 0.000000 0.000000 0.000000 0.000000 0.000000 0.035359
#
#
# Mechanical properties :
#
#
# Convention : Reuss Voigt Hill
#
# Bulk Modulus (GPa) = 47.80060 51.85376 49.82718
# Shear Modulus (GPa) = 40.37336 18.03150 29.20243
#
# Velocity S-wave (km/s) = 4.34019 2.90053 3.69123
# Velocity P-wave (km/s) = 6.88614 5.95072 6.43545
#
# Compressibility (1/GPa) = 0.02092024
#
# Stress axis : x y z
#
# Youngs Moduli (GPa) = 80.88513 114.19511 75.13886
#
# Poissons Ratio (x) = 0.35699 0.09783
# Poissons Ratio (y) = 0.25286 0.17478
# Poissons Ratio (z) = 0.10531 0.26563
#
# Static dielectric constant tensor:
#      x y z
#    x 1.898640 0.000000 0.000000 
#    y 0.000000 1.825100 0.000000 
#    z 0.000000 0.000000 2.129800 
# 
# From -- ./inp_files/17690.got.cif
#   From: 2010.05.17/outbox.cif.g08.bks.cpg/sg21_9_cif.got.tgz:17690.got - 2010.06.03 23:14:55.
