data_PCOD9325870
_publ_section_title
;
Structure prediction by ZEFSAII (Michael W. Deem and Ramdas Pophale) SiO2 
 PCOD9325870
Probable space group: F 2 2 2
;
_chemical_formula_sum "Si O2"
_cell_formula_units_Z 108
_cell_length_a 18.235764
_cell_length_b 19.094393
_cell_length_c 17.251867
_cell_angle_alpha 90.000000
_cell_angle_beta 90.000000
_cell_angle_gamma 90.000000
_cell_volume 6007.114658
_symmetry_space_group_name_H-M "F 2 2 2"
_symmetry_group_IT_number 22
_symmetry_cell_setting 'orthorhombic'
loop_
_space_group_symop_operation_xyz
x,y,z
-x,-y,z
x,-y,-z
-x,y,-z
x,1/2+y,1/2+z
-x,1/2-y,1/2+z
x,1/2-y,1/2-z
-x,1/2+y,1/2-z
1/2+x,y,1/2+z
1/2-x,-y,1/2+z
1/2+x,-y,1/2-z
1/2-x,y,1/2-z
1/2+x,1/2+y,z
1/2-x,1/2-y,z
1/2+x,1/2-y,-z
1/2-x,1/2+y,-z
loop_
_atom_site_type_symbol
_atom_site_label
_atom_site_fract_x
_atom_site_fract_y
_atom_site_fract_z
Si Si1 0.000000 0.500000 0.500000
Si Si2 0.753453 0.000000 0.000000
Si Si3 0.443312 0.785294 0.570487
Si Si4 0.199296 0.085102 0.633244
Si Si5 0.577284 0.706886 0.828223
Si Si6 0.140531 0.436685 0.701317
Si Si7 0.830992 0.225561 0.460112
Si Si8 0.875445 0.428718 0.595267
O O1 0.947955 0.454240 0.552351
O O2 0.808230 0.058438 0.964448
O O3 0.704686 0.975258 0.929720
O O4 0.500000 0.806307 0.500000
O O5 0.499556 0.766300 0.638778
O O6 0.388972 0.729212 0.530599
O O7 0.391223 0.846915 0.603727
O O8 0.150202 0.065222 0.706486
O O9 0.282449 0.091628 0.665907
O O10 0.174694 0.152967 0.586087
O O11 0.595678 0.750000 0.750000
O O12 0.579893 0.622451 0.818111
O O13 0.636633 0.722699 0.894729
O O14 0.132518 0.514567 0.665030
O O15 0.750000 0.250000 0.484164
#
# Coordination Sequence:
#
# PCOD9325870 Si02
#       8
#     4   8  16  16  16  16  16  16
#     4  10  16  24  48  68 100 142 162 214 266 330
#     4   9  20  31  54  80 111 146 191 238 282 343
#     4  10  22  35  53  85 115 149 185 233 294 346
#     4  10  19  34  51  83 114 145 190 236 288 340
#     4  11  21  35  53  85 115 147 189 234 290 342
#     4  10  20  31  54  82 115 148 182 242 293 331
#     4  11  20  33  58  82 111 146 186 233 290 342
#     4  10  18  31  49  78 112 141 184 225 285 340
#
# _framework density 17.978680000000001
#
# number of rings (size 3 to 8) (size 9 to 14) (size 15 to 20)
#    0.000    1.778    3.704    1.778    8.296    0.296 
#    0.000    1.481    0.000    2.222    0.000    0.000 
#    0.000    0.000    0.000    0.000    0.000    0.000 
#
# Total GULP energy -150325.426531 kJ/mol
# GULP energy per Si atom -5567.608390 kJ/mol
# Density = 1.793776 g / cm^3
# Si number density = 17.978680 Si / 1000 Ang^3
#
#
#
# Elastic Constant Matrix: (Units=GPa)
#
#
# Indices 1 2 3 4 5 6 
#
# 1 68.4170 15.9553 33.6857 0.0000 0.0000 0.0000
# 2 15.9553 39.0781 14.5488 0.0000 0.0000 0.0000
# 3 33.6857 14.5488 72.8764 0.0000 0.0000 0.0000
# 4 0.0000 0.0000 0.0000 33.1388 0.0000 0.0000
# 5 0.0000 0.0000 0.0000 0.0000 24.2761 0.0000
# 6 0.0000 0.0000 0.0000 0.0000 0.0000 -36.6773
#
#
#
# Elastic Compliance Matrix: (Units=1/GPa)
#
#
# Indices 1 2 3 4 5 6 
#
# 1 0.019805 -0.005054 -0.008146 0.000000 0.000000 0.000000
# 2 -0.005054 0.028934 -0.003440 0.000000 0.000000 0.000000
# 3 -0.008146 -0.003440 0.018174 0.000000 0.000000 0.000000
# 4 0.000000 0.000000 0.000000 0.030176 0.000000 0.000000
# 5 0.000000 0.000000 0.000000 0.000000 0.041193 0.000000
# 6 0.000000 0.000000 0.000000 0.000000 0.000000 -0.027265
#
#
# Mechanical properties :
#
#
# Convention : Reuss Voigt Hill
#
# Bulk Modulus (GPa) = 29.73203 34.30565 32.01884
# Shear Modulus (GPa) = 32.15266 11.89299 22.02282
#
# Velocity S-wave (km/s) = 4.23351 2.57476 3.50371
# Velocity P-wave (km/s) = 6.36161 5.28790 5.84944
#
# Compressibility (1/GPa) = 0.03363376
#
# Stress axis : x y z
#
# Youngs Moduli (GPa) = 50.49114 34.56146 55.02401
#
# Poissons Ratio (x) = 0.17466 0.44821
# Poissons Ratio (y) = 0.25517 0.18930
# Poissons Ratio (z) = 0.41129 0.11890
#
# Static dielectric constant tensor:
#      x y z
#    x 1.520750 0.000000 0.000000 
#    y 0.000000 1.664800 0.000000 
#    z 0.000000 0.000000 1.628250 
# 
# From -- ./inp_files/38261.got.cif
#   From: 2010.05.17/outbox.cif.g08.bks.cpg/sg22_20_cif.got.tgz:38261.got - 2010.06.03 23:40:54.
