data_PCOD9325887
_publ_section_title
;
Structure prediction by ZEFSAII (Michael W. Deem and Ramdas Pophale) SiO2 
 PCOD9325887
Probable space group: F 2 2 2
;
_chemical_formula_sum "Si O2"
_cell_formula_units_Z 68
_cell_length_a 19.991489
_cell_length_b 5.246331
_cell_length_c 33.313573
_cell_angle_alpha 90.000000
_cell_angle_beta 90.000000
_cell_angle_gamma 90.000000
_cell_volume 3493.993113
_symmetry_space_group_name_H-M "F 2 2 2"
_symmetry_group_IT_number 22
_symmetry_cell_setting 'orthorhombic'
loop_
_space_group_symop_operation_xyz
x,y,z
-x,-y,z
x,-y,-z
-x,y,-z
x,1/2+y,1/2+z
-x,1/2-y,1/2+z
x,1/2-y,1/2-z
-x,1/2+y,1/2-z
1/2+x,y,1/2+z
1/2-x,-y,1/2+z
1/2+x,-y,1/2-z
1/2-x,y,1/2-z
1/2+x,1/2+y,z
1/2-x,1/2-y,z
1/2+x,1/2-y,-z
1/2-x,1/2+y,-z
loop_
_atom_site_type_symbol
_atom_site_label
_atom_site_fract_x
_atom_site_fract_y
_atom_site_fract_z
Si Si1 0.643536 0.893622 0.708104
Si Si2 0.000000 0.000000 0.777676
Si Si3 0.295007 0.500000 0.000000
Si Si4 0.329405 0.723660 0.375824
Si Si5 0.750000 0.250000 0.750000
Si Si6 0.830887 0.280189 0.582085
O O1 0.636127 0.750000 0.750000
O O2 0.661466 0.705694 0.671819
O O3 0.570069 0.003511 0.698802
O O4 0.702001 0.090962 0.719800
O O5 0.002957 0.750000 0.750000
O O6 0.250000 0.750000 0.013184
O O7 0.337188 0.616414 0.963285
O O8 0.250000 0.750000 0.382952
O O9 0.356534 0.491620 0.402467
O O10 0.356965 0.996264 0.389582
O O11 0.750000 0.250000 0.586032
#
# Coordination Sequence:
#
# PCOD9325887 Si02
#       6
#    16   8   8  16   4  16
#     4  11  24  37  57  82 114 156 207 255 300 357
#     4  10  22  42  58  78 110 153 204 253 306 352
#     4  10  16  28  48  70 104 153 194 223 280 368
#     4  10  20  31  47  74 106 143 186 239 284 336
#     4  12  22  36  60  90 104 162 214 268 286 360
#     4   9  18  29  45  71 104 142 186 225 278 343
#
# _framework density 19.461973
#
# number of rings (size 3 to 8) (size 9 to 14) (size 15 to 20)
#    0.000    1.882    1.176    5.294    8.235    0.000 
#    0.000    0.000    0.000    0.000    0.000    0.000 
#    0.000    0.941    0.000   34.824   11.765    1.176 
#
# Total GULP energy -94642.527769 kJ/mol
# GULP energy per Si atom -5567.207516 kJ/mol
# Density = 1.941768 g / cm^3
# Si number density = 19.461973 Si / 1000 Ang^3
#
#
#
# Elastic Constant Matrix: (Units=GPa)
#
#
# Indices 1 2 3 4 5 6 
#
# 1 69.8523 25.2262 4.7138 0.0000 0.0000 0.0000
# 2 25.2262 121.3494 51.7838 0.0000 -0.0001 0.0000
# 3 4.7138 51.7838 124.2106 0.0000 0.0000 0.0000
# 4 0.0000 0.0000 0.0000 35.6754 0.0000 0.0000
# 5 0.0000 -0.0001 0.0000 0.0000 -10.2193 0.0000
# 6 0.0000 0.0000 0.0000 0.0000 0.0000 11.7379
#
#
#
# Elastic Compliance Matrix: (Units=1/GPa)
#
#
# Indices 1 2 3 4 5 6 
#
# 1 0.015564 -0.003629 0.000922 0.000000 0.000000 0.000000
# 2 -0.003629 0.010870 -0.004394 0.000000 0.000000 0.000000
# 3 0.000922 -0.004394 0.009848 0.000000 0.000000 0.000000
# 4 0.000000 0.000000 0.000000 0.028031 0.000000 0.000000
# 5 0.000000 0.000000 0.000000 0.000000 -0.097854 0.000000
# 6 0.000000 0.000000 0.000000 0.000000 0.000000 0.085194
#
#
# Mechanical properties :
#
#
# Convention : Reuss Voigt Hill
#
# Bulk Modulus (GPa) = 45.28886 53.20664 49.24775
# Shear Modulus (GPa) = 68.29190 23.01803 45.65496
#
# Velocity S-wave (km/s) = 5.93010 3.44280 4.84866
# Velocity P-wave (km/s) = 8.37909 6.57282 7.53031
#
# Compressibility (1/GPa) = 0.02208049
#
# Stress axis : x y z
#
# Youngs Moduli (GPa) = 64.24967 91.99478 101.54607
#
# Poissons Ratio (x) = 0.33386 -0.09366
# Poissons Ratio (y) = 0.23317 0.44620
# Poissons Ratio (z) = -0.05926 0.40423
#
# Static dielectric constant tensor:
#      x y z
#    x 1.724860 0.000000 0.000000 
#    y 0.000000 1.780520 0.000000 
#    z 0.000000 0.000000 1.731990 
# 
# From -- ./inp_files/56896.got.cif
#   From: 2010.05.17/outbox.cif.g08.bks.cpg/sg22_29_cif.got.tgz:56896.got - 2010.06.03 23:40:54.
