data_PCOD9325107
_publ_section_title
;
Structure prediction by ZEFSAII (Michael W. Deem and Ramdas Pophale) SiO2 
 PCOD9325107
Probable space group: C 2 2 2
;
_chemical_formula_sum "Si O2"
_cell_formula_units_Z 32
_cell_length_a 16.711873
_cell_length_b 13.609092
_cell_length_c 6.172635
_cell_angle_alpha 90.000000
_cell_angle_beta 90.000000
_cell_angle_gamma 90.000000
_cell_volume 1403.863471
_symmetry_space_group_name_H-M "C 2 2 2"
_symmetry_group_IT_number 21
_symmetry_cell_setting 'orthorhombic'
loop_
_space_group_symop_operation_xyz
x,y,z
-x,-y,z
x,-y,-z
-x,y,-z
1/2+x,1/2+y,z
1/2-x,1/2-y,z
1/2+x,1/2-y,-z
1/2-x,1/2+y,-z
loop_
_atom_site_type_symbol
_atom_site_label
_atom_site_fract_x
_atom_site_fract_y
_atom_site_fract_z
Si Si1 0.233640 0.359473 0.132536
Si Si2 0.125355 0.136525 0.778842
Si Si3 0.000000 0.500000 0.500000
Si Si4 0.075741 0.648688 0.161772
Si Si5 0.000000 0.000000 0.000000
Si Si6 0.227245 0.000000 0.500000
O O1 0.250000 0.250000 0.229953
O O2 0.227310 0.446704 0.305487
O O3 0.310767 0.368358 0.976216
O O4 0.154721 0.366932 0.984181
O O5 0.093980 0.245278 0.733862
O O6 0.053051 0.068816 0.850356
O O7 0.171364 0.087459 0.583064
O O8 0.053681 0.568861 0.343285
O O9 0.000000 0.654759 0.000000
#
# Coordination Sequence:
#
# PCOD9325107 Si02
#       6
#     8   8   2   8   2   4
#     4  10  25  48  72 106 150 195 238 305 375 436
#     4  11  25  45  74 108 150 188 242 312 377 438
#     4  12  30  50  76 110 136 206 254 302 360 444
#     4  11  27  50  74 104 153 196 245 312 361 435
#     4  12  20  46  76 110 140 188 236 306 380 426
#     4  12  24  46  78 112 138 198 246 299 369 461
#
# _framework density 22.794239000000001
#
# number of rings (size 3 to 8) (size 9 to 14) (size 15 to 20)
#    0.000    1.000    3.750    0.375    0.000   17.500 
#    0.000    2.500    0.000    0.000    0.000    0.000 
#    0.000    0.000    0.000    0.000    0.000    0.000 
#
# Total GULP energy -89585.706405 kJ/mol
# GULP energy per Si atom -5599.106650 kJ/mol
# Density = 2.274236 g / cm^3
# Si number density = 22.794239 Si / 1000 Ang^3
#
#
#
# Elastic Constant Matrix: (Units=GPa)
#
#
# Indices 1 2 3 4 5 6 
#
# 1 135.0728 82.2191 43.2854 0.0000 0.0000 0.0000
# 2 82.2191 215.0502 89.1345 0.0000 0.0000 0.0000
# 3 43.2854 89.1345 78.6614 0.0000 0.0000 0.0000
# 4 0.0000 0.0000 0.0000 -81.4130 0.0000 0.0000
# 5 0.0000 0.0000 0.0000 0.0000 32.6855 0.0000
# 6 0.0000 0.0000 0.0000 0.0000 0.0000 46.8775
#
#
#
# Elastic Compliance Matrix: (Units=1/GPa)
#
#
# Indices 1 2 3 4 5 6 
#
# 1 0.009842 -0.002862 -0.002172 0.000000 0.000000 0.000000
# 2 -0.002862 0.009601 -0.009304 0.000000 0.000000 0.000000
# 3 -0.002172 -0.009304 0.024451 0.000000 0.000000 0.000000
# 4 0.000000 0.000000 0.000000 -0.012283 0.000000 0.000000
# 5 0.000000 0.000000 0.000000 0.000000 0.030595 0.000000
# 6 0.000000 0.000000 0.000000 0.000000 0.000000 0.021332
#
#
# Mechanical properties :
#
#
# Convention : Reuss Voigt Hill
#
# Bulk Modulus (GPa) = 65.71920 95.34025 80.52973
# Shear Modulus (GPa) = 42.63078 13.90634 28.26856
#
# Velocity S-wave (km/s) = 4.32932 2.47266 3.52541
# Velocity P-wave (km/s) = 7.34063 7.07597 7.20951
#
# Compressibility (1/GPa) = 0.01521625
#
# Stress axis : x y z
#
# Youngs Moduli (GPa) = 101.60636 104.15830 40.89881
#
# Poissons Ratio (x) = 0.29815 0.08884
# Poissons Ratio (y) = 0.29085 0.38052
# Poissons Ratio (z) = 0.22070 0.96908
#
# Static dielectric constant tensor:
#      x y z
#    x 1.854240 0.000000 0.000000 
#    y 0.000000 1.865440 0.000000 
#    z 0.000000 0.000000 1.557210 
# 
# From -- ./inp_files/4645.got.cif
#   From: 2010.05.17/outbox.cif.g08.bks.cpg/sg21_3_cif.got.tgz:4645.got - 2010.06.03 23:14:55.
