data_PCOD9325479
_publ_section_title
;
Structure prediction by ZEFSAII (Michael W. Deem and Ramdas Pophale) SiO2 
 PCOD9325479
Probable space group: C 2 2 2
;
_chemical_formula_sum "Si O2"
_cell_formula_units_Z 38
_cell_length_a 10.785778
_cell_length_b 10.684136
_cell_length_c 14.538631
_cell_angle_alpha 90.000000
_cell_angle_beta 90.000000
_cell_angle_gamma 90.000000
_cell_volume 1675.384135
_symmetry_space_group_name_H-M "C 2 2 2"
_symmetry_group_IT_number 21
_symmetry_cell_setting 'orthorhombic'
loop_
_space_group_symop_operation_xyz
x,y,z
-x,-y,z
x,-y,-z
-x,y,-z
1/2+x,1/2+y,z
1/2-x,1/2-y,z
1/2+x,1/2-y,-z
1/2-x,1/2+y,-z
loop_
_atom_site_type_symbol
_atom_site_label
_atom_site_fract_x
_atom_site_fract_y
_atom_site_fract_z
Si Si1 0.450579 0.288101 0.262518
Si Si2 0.500000 0.000000 0.000000
Si Si3 0.397195 0.251730 0.568253
Si Si4 0.225740 0.551333 0.699127
Si Si5 0.637666 0.844073 0.847796
Si Si6 0.332510 0.000000 0.500000
O O1 0.563052 0.305751 0.334548
O O2 0.355065 0.401200 0.257878
O O3 0.371317 0.166881 0.295362
O O4 0.518809 0.242889 0.172607
O O5 0.407098 0.925839 0.067207
O O6 0.500000 0.307484 0.500000
O O7 0.250000 0.250000 0.550281
O O8 0.411244 0.102760 0.556272
O O9 0.172412 0.435599 0.759953
O O10 0.248222 0.541696 0.588576
O O11 0.750000 0.750000 0.864282
#
# Coordination Sequence:
#
# PCOD9325479 Si02
#       6
#     8   2   8   8   8   4
#     4  11  23  44  71 103 150 201 249 310 372 443
#     4  12  28  52  88 114 140 188 240 316 400 482
#     4  12  24  39  60  95 140 200 264 316 368 429
#     4  11  24  44  73 108 152 207 257 306 367 445
#     4  12  27  51  81 112 149 190 243 311 391 462
#     4  12  23  38  65 100 147 206 265 304 353 426
#
# _framework density 22.681365
#
# number of rings (size 3 to 8) (size 9 to 14) (size 15 to 20)
#    0.000    0.421    6.316    2.211    0.000    2.526 
#    0.000    3.684    0.000    0.000    0.000    0.000 
#    0.000    0.000    0.000    0.000    0.000    0.000 
#
# Total GULP energy -105936.367716 kJ/mol
# GULP energy per Si atom -5575.598301 kJ/mol
# Density = 2.262974 g / cm^3
# Si number density = 22.681365 Si / 1000 Ang^3
#
#
#
# Elastic Constant Matrix: (Units=GPa)
#
#
# Indices 1 2 3 4 5 6 
#
# 1 144.1876 30.1379 44.6559 0.0000 0.0000 0.0000
# 2 30.1379 62.8081 30.9497 0.0000 0.0000 0.0000
# 3 44.6559 30.9497 128.4373 0.0000 0.0000 0.0000
# 4 0.0000 0.0000 0.0000 19.0609 0.0000 0.0000
# 5 0.0000 0.0000 0.0000 0.0000 25.8903 0.0000
# 6 0.0000 0.0000 0.0000 0.0000 0.0000 41.2804
#
#
#
# Elastic Compliance Matrix: (Units=1/GPa)
#
#
# Indices 1 2 3 4 5 6 
#
# 1 0.008205 -0.002872 -0.002161 0.000000 0.000000 0.000000
# 2 -0.002872 0.019072 -0.003597 0.000000 0.000000 0.000000
# 3 -0.002161 -0.003597 0.009404 0.000000 0.000000 0.000000
# 4 0.000000 0.000000 0.000000 0.052463 0.000000 0.000000
# 5 0.000000 0.000000 0.000000 0.000000 0.038625 0.000000
# 6 0.000000 0.000000 0.000000 0.000000 0.000000 0.024225
#
#
# Mechanical properties :
#
#
# Convention : Reuss Voigt Hill
#
# Bulk Modulus (GPa) = 51.49099 60.76890 56.12995
# Shear Modulus (GPa) = 28.45311 32.55896 30.50603
#
# Velocity S-wave (km/s) = 3.54569 3.79290 3.67138
# Velocity P-wave (km/s) = 6.28600 6.78469 6.54010
#
# Compressibility (1/GPa) = 0.01942087
#
# Stress axis : x y z
#
# Youngs Moduli (GPa) = 121.87779 52.43184 106.33857
#
# Poissons Ratio (x) = 0.15061 0.22975
# Poissons Ratio (y) = 0.35008 0.38252
# Poissons Ratio (z) = 0.26333 0.18861
#
# Static dielectric constant tensor:
#      x y z
#    x 1.979680 0.000000 0.000000 
#    y 0.000000 1.977550 0.000000 
#    z 0.000000 0.000000 1.838600 
# 
# From -- ./inp_files/31404.got.cif
#   From: 2010.05.17/outbox.cif.g08.bks.cpg/sg21_16_cif.got.tgz:31404.got - 2010.06.03 23:14:55.
