data_PCOD9325748
_publ_section_title
;
Structure prediction by ZEFSAII (Michael W. Deem and Ramdas Pophale) SiO2 
 PCOD9325748
Probable space group: C 2 2 2
;
_chemical_formula_sum "Si O2"
_cell_formula_units_Z 42
_cell_length_a 20.574111
_cell_length_b 10.825786
_cell_length_c 7.191750
_cell_angle_alpha 90.000000
_cell_angle_beta 90.000000
_cell_angle_gamma 90.000000
_cell_volume 1601.825114
_symmetry_space_group_name_H-M "C 2 2 2"
_symmetry_group_IT_number 21
_symmetry_cell_setting 'orthorhombic'
loop_
_space_group_symop_operation_xyz
x,y,z
-x,-y,z
x,-y,-z
-x,y,-z
1/2+x,1/2+y,z
1/2-x,1/2-y,z
1/2+x,1/2-y,-z
1/2-x,1/2+y,-z
loop_
_atom_site_type_symbol
_atom_site_label
_atom_site_fract_x
_atom_site_fract_y
_atom_site_fract_z
Si Si1 0.610450 0.318471 0.014593
Si Si2 0.813969 0.608243 0.362290
Si Si3 0.500000 0.500000 0.000000
Si Si4 0.863125 0.873708 0.419604
Si Si5 0.950995 0.390599 0.808068
Si Si6 0.250000 0.250000 0.030458
Si Si7 0.500000 0.291304 0.500000
O O1 0.624856 0.369853 0.803495
O O2 0.576439 0.186189 0.982850
O O3 0.685033 0.294460 0.080330
O O4 0.553155 0.406642 0.091212
O O5 0.793191 0.500000 0.500000
O O6 0.825285 0.744562 0.454309
O O7 0.885131 0.567588 0.292743
O O8 0.772837 0.640836 0.175066
O O9 0.933406 0.863717 0.513440
O O10 0.835453 0.000000 0.500000
O O11 0.986479 0.294478 0.674753
O O12 0.000000 0.500000 0.826474
#
# Coordination Sequence:
#
# PCOD9325748 Si02
#       7
#     8   8   2   8   8   4   4
#     4   9  22  36  61  80 112 151 189 241 297 335
#     4   9  17  29  50  80 116 161 181 212 273 352
#     4  12  24  44  60  84 104 150 212 264 284 332
#     4   9  17  27  48  84 118 152 179 226 280 352
#     4   9  15  28  50  83 113 146 177 224 280 339
#     4   8  18  38  56  80 112 158 188 226 298 350
#     4   8  14  20  40  74 119 147 166 206 269 338
#
# _framework density 26.220091
#
# number of rings (size 3 to 8) (size 9 to 14) (size 15 to 20)
#    0.000    3.810    0.000    2.857    5.333    3.048 
#    0.000    0.476    8.381    0.000    0.000    0.000 
#    0.000    0.000    0.000    0.000    0.000    0.000 
#
# Total GULP energy -117179.396183 kJ/mol
# GULP energy per Si atom -5579.971247 kJ/mol
# Density = 2.616041 g / cm^3
# Si number density = 26.220091 Si / 1000 Ang^3
#
#
#
# Elastic Constant Matrix: (Units=GPa)
#
#
# Indices 1 2 3 4 5 6 
#
# 1 264.4059 81.0102 22.6657 0.0000 0.0000 0.0000
# 2 81.0102 169.4744 15.9582 0.0000 0.0000 0.0000
# 3 22.6657 15.9582 70.0167 0.0000 0.0000 0.0000
# 4 0.0000 0.0000 0.0000 17.9633 0.0000 0.0000
# 5 0.0000 0.0000 0.0000 0.0000 2.0433 0.0000
# 6 0.0000 0.0000 0.0000 0.0000 0.0000 -19.8108
#
#
#
# Elastic Compliance Matrix: (Units=1/GPa)
#
#
# Indices 1 2 3 4 5 6 
#
# 1 0.004497 -0.002057 -0.000987 0.000000 0.000000 0.000000
# 2 -0.002057 0.006971 -0.000923 0.000000 0.000000 0.000000
# 3 -0.000987 -0.000923 0.014812 0.000000 0.000000 0.000000
# 4 0.000000 0.000000 0.000000 0.055669 0.000000 0.000000
# 5 0.000000 0.000000 0.000000 0.000000 0.489405 0.000000
# 6 0.000000 0.000000 0.000000 0.000000 0.000000 -0.050477
#
#
# Mechanical properties :
#
#
# Convention : Reuss Voigt Hill
#
# Bulk Modulus (GPa) = 54.50629 82.57390 68.54010
# Shear Modulus (GPa) = 9.34712 25.65667 17.50189
#
# Velocity S-wave (km/s) = 1.89013 3.13151 2.58640
# Velocity P-wave (km/s) = 5.05931 6.68103 5.92591
#
# Compressibility (1/GPa) = 0.01834651
#
# Stress axis : x y z
#
# Youngs Moduli (GPa) = 222.38193 143.46049 67.51204
#
# Poissons Ratio (x) = 0.29503 0.06663
# Poissons Ratio (y) = 0.45734 0.06231
# Poissons Ratio (z) = 0.21948 0.13241
#
# Static dielectric constant tensor:
#      x y z
#    x 2.091270 0.000000 0.000000 
#    y 0.000000 2.113550 0.000000 
#    z 0.000000 0.000000 2.190620 
# 
# From -- ./inp_files/18438.got.cif
#   From: 2010.05.17/outbox.cif.g08.bks.cpg/sg21_10_cif.got.tgz:18438.got - 2010.06.03 23:14:55.
