data_PCOD9325044
_publ_section_title
;
Structure prediction by ZEFSAII (Michael W. Deem and Ramdas Pophale) SiO2 
 PCOD9325044
Probable space group: C 2 2 2
;
_chemical_formula_sum "Si O2"
_cell_formula_units_Z 32
_cell_length_a 13.410777
_cell_length_b 5.113649
_cell_length_c 18.769139
_cell_angle_alpha 90.000000
_cell_angle_beta 90.000000
_cell_angle_gamma 90.000000
_cell_volume 1287.150134
_symmetry_space_group_name_H-M "C 2 2 2"
_symmetry_group_IT_number 21
_symmetry_cell_setting 'orthorhombic'
loop_
_space_group_symop_operation_xyz
x,y,z
-x,-y,z
x,-y,-z
-x,y,-z
1/2+x,1/2+y,z
1/2-x,1/2-y,z
1/2+x,1/2-y,-z
1/2-x,1/2+y,-z
loop_
_atom_site_type_symbol
_atom_site_label
_atom_site_fract_x
_atom_site_fract_y
_atom_site_fract_z
Si Si1 0.864826 0.723500 0.613507
Si Si2 0.846415 0.880728 0.074904
Si Si3 0.133597 0.224600 0.289529
Si Si4 0.000000 0.000000 0.500000
Si Si5 0.000000 0.000000 0.177336
Si Si6 0.000000 0.500000 0.000000
O O1 0.750000 0.750000 0.589738
O O2 0.883349 0.443762 0.649994
O O3 0.877401 0.940562 0.674861
O O4 0.933750 0.812767 0.549372
O O5 0.750000 0.750000 0.108660
O O6 0.905928 0.075165 0.126967
O O7 0.929364 0.675297 0.049368
O O8 0.811527 0.000000 0.000000
O O9 0.250000 0.250000 0.268201
O O10 0.053335 0.218922 0.226170
#
# Coordination Sequence:
#
# PCOD9325044 Si02
#       6
#     8   8   8   2   4   2
#     4  10  25  48  74 108 153 194 247 308 369 436
#     4  12  25  45  70 106 143 186 242 310 376 444
#     4  10  24  48  70 104 153 197 244 312 368 440
#     4  12  26  46  84 114 148 206 250 302 376 446
#     4  12  24  44  74 108 138 194 260 298 380 454
#     4  12  22  44  72  92 144 184 230 298 372 440
#
# _framework density 24.861125999999999
#
# number of rings (size 3 to 8) (size 9 to 14) (size 15 to 20)
#    0.000    1.000    3.750    1.500    0.000   11.000 
#    0.000    6.250    0.000    0.000    0.000    0.000 
#    0.000    0.000    0.000    0.000    0.000    0.000 
#
# Total GULP energy -89591.623551 kJ/mol
# GULP energy per Si atom -5599.476472 kJ/mol
# Density = 2.480454 g / cm^3
# Si number density = 24.861126 Si / 1000 Ang^3
#
#
#
# Elastic Constant Matrix: (Units=GPa)
#
#
# Indices 1 2 3 4 5 6 
#
# 1 202.6309 35.4038 80.0129 0.0000 0.0000 0.0000
# 2 35.4038 80.8851 13.9123 0.0000 0.0000 0.0000
# 3 80.0129 13.9123 121.2723 0.0000 0.0000 0.0000
# 4 0.0000 0.0000 0.0000 -288.9260 0.0000 0.0000
# 5 0.0000 0.0000 0.0000 0.0000 -27.3571 0.0000
# 6 0.0000 0.0000 0.0000 0.0000 0.0000 45.6422
#
#
#
# Elastic Compliance Matrix: (Units=1/GPa)
#
#
# Indices 1 2 3 4 5 6 
#
# 1 0.007084 -0.002343 -0.004405 0.000000 0.000000 0.000000
# 2 -0.002343 0.013387 0.000010 0.000000 0.000000 0.000000
# 3 -0.004405 0.000010 0.011151 0.000000 0.000000 0.000000
# 4 0.000000 0.000000 0.000000 -0.003461 0.000000 0.000000
# 5 0.000000 0.000000 0.000000 0.000000 -0.036554 0.000000
# 6 0.000000 0.000000 0.000000 0.000000 0.000000 0.021910
#
#
# Mechanical properties :
#
#
# Convention : Reuss Voigt Hill
#
# Bulk Modulus (GPa) = 55.10798 73.71624 64.41211
# Shear Modulus (GPa) = 151.32621 -35.76422 57.78099
#
# Velocity S-wave (km/s) = 7.81030 -3.79695 4.82617
# Velocity P-wave (km/s) = 10.17589 3.23931 7.55122
#
# Compressibility (1/GPa) = 0.01814619
#
# Stress axis : x y z
#
# Youngs Moduli (GPa) = 141.16631 74.69931 89.67754
#
# Poissons Ratio (x) = 0.17502 0.39503
# Poissons Ratio (y) = 0.33075 -0.00091
# Poissons Ratio (z) = 0.62184 -0.00075
#
# Static dielectric constant tensor:
#      x y z
#    x 2.905920 0.000000 0.000000 
#    y 0.000000 1.989770 0.000000 
#    z 0.000000 0.000000 2.022060 
# 
# From -- ./inp_files/36490.got.cif
#   From: 2010.05.17/outbox.cif.g08.bks.cpg/sg21_19_cif.got.tgz:36490.got - 2010.06.03 23:14:55.
