data_PCOD9325291
_publ_section_title
;
Structure prediction by ZEFSAII (Michael W. Deem and Ramdas Pophale) SiO2 
 PCOD9325291
Probable space group: C 2 2 2
;
_chemical_formula_sum "Si O2"
_cell_formula_units_Z 48
_cell_length_a 11.778919
_cell_length_b 16.591695
_cell_length_c 13.223944
_cell_angle_alpha 90.000000
_cell_angle_beta 90.000000
_cell_angle_gamma 90.000000
_cell_volume 2584.384885
_symmetry_space_group_name_H-M "C 2 2 2"
_symmetry_group_IT_number 21
_symmetry_cell_setting 'orthorhombic'
loop_
_space_group_symop_operation_xyz
x,y,z
-x,-y,z
x,-y,-z
-x,y,-z
1/2+x,1/2+y,z
1/2-x,1/2-y,z
1/2+x,1/2-y,-z
1/2-x,1/2+y,-z
loop_
_atom_site_type_symbol
_atom_site_label
_atom_site_fract_x
_atom_site_fract_y
_atom_site_fract_z
Si Si1 0.652399 0.807844 0.392740
Si Si2 0.503235 0.364518 0.117650
Si Si3 0.690596 0.495922 0.883548
Si Si4 0.224107 0.637272 0.383220
Si Si5 0.632833 0.018786 0.707442
Si Si6 0.432447 0.268239 0.689356
O O1 0.750000 0.750000 0.351429
O O2 0.686153 0.831313 0.507050
O O3 0.643812 0.890637 0.332001
O O4 0.536041 0.759005 0.380961
O O5 0.608257 0.426924 0.130932
O O6 0.390062 0.418064 0.133580
O O7 0.520298 0.297293 0.202793
O O8 0.500000 0.337288 0.000000
O O9 0.795984 0.493513 0.809245
O O10 0.726502 0.500000 0.000000
O O11 0.190637 0.544922 0.369559
O O12 0.353721 0.661827 0.359816
O O13 0.149129 0.690135 0.304703
O O14 0.500000 0.000000 0.717431
#
# Coordination Sequence:
#
# PCOD9325291 Si02
#       6
#     8   8   8   8   8   8
#     4  12  25  40  62  94 129 163 215 269 319 367
#     4   9  18  37  67  91 119 160 211 272 325 375
#     4   9  19  38  62  92 122 162 209 264 329 383
#     4  11  24  40  64  87 124 178 210 260 317 388
#     4  12  24  40  63  90 127 172 215 257 317 397
#     4  11  21  40  64  87 125 166 216 255 322 377
#
# _framework density 18.573086
#
# number of rings (size 3 to 8) (size 9 to 14) (size 15 to 20)
#    0.000    1.333    5.000    3.000    0.000    1.000 
#    0.000    1.667    3.667    2.000    0.000    0.000 
#    0.000    0.000    0.000    0.000    0.000    0.000 
#
# Total GULP energy -133971.837559 kJ/mol
# GULP energy per Si atom -5582.159898 kJ/mol
# Density = 1.853081 g / cm^3
# Si number density = 18.573086 Si / 1000 Ang^3
#
#
#
# Elastic Constant Matrix: (Units=GPa)
#
#
# Indices 1 2 3 4 5 6 
#
# 1 136.6290 62.9327 53.1175 0.0000 0.0000 0.0000
# 2 62.9327 92.4448 52.4095 0.0000 0.0000 0.0000
# 3 53.1175 52.4095 114.6969 0.0000 0.0000 0.0000
# 4 0.0000 0.0000 0.0000 16.6664 0.0000 0.0000
# 5 0.0000 0.0000 0.0000 0.0000 23.6187 0.0000
# 6 0.0000 0.0000 0.0000 0.0000 0.0000 22.6473
#
#
#
# Elastic Compliance Matrix: (Units=1/GPa)
#
#
# Indices 1 2 3 4 5 6 
#
# 1 0.011085 -0.006257 -0.002275 0.000000 0.000000 0.000000
# 2 -0.006257 0.018131 -0.005387 0.000000 0.000000 0.000000
# 3 -0.002275 -0.005387 0.012234 0.000000 0.000000 0.000000
# 4 0.000000 0.000000 0.000000 0.060001 0.000000 0.000000
# 5 0.000000 0.000000 0.000000 0.000000 0.042339 0.000000
# 6 0.000000 0.000000 0.000000 0.000000 0.000000 0.044155
#
#
# Mechanical properties :
#
#
# Convention : Reuss Voigt Hill
#
# Bulk Modulus (GPa) = 73.46201 75.63222 74.54711
# Shear Modulus (GPa) = 22.69424 24.27389 23.48406
#
# Velocity S-wave (km/s) = 3.49934 3.61908 3.55972
# Velocity P-wave (km/s) = 7.48104 7.63371 7.55776
#
# Compressibility (1/GPa) = 0.01361248
#
# Stress axis : x y z
#
# Youngs Moduli (GPa) = 90.20834 55.15498 81.74176
#
# Poissons Ratio (x) = 0.34510 0.18595
# Poissons Ratio (y) = 0.56442 0.44034
# Poissons Ratio (z) = 0.20521 0.29712
#
# Static dielectric constant tensor:
#      x y z
#    x 1.661860 0.000000 0.000000 
#    y 0.000000 1.655070 0.000000 
#    z 0.000000 0.000000 1.639220 
# 
# From -- ./inp_files/24051.got.cif
#   From: 2010.05.17/outbox.cif.g08.bks.cpg/sg21_13_cif.got.tgz:24051.got - 2010.06.03 23:14:55.
