data_PCOD9325737
_publ_section_title
;
Structure prediction by ZEFSAII (Michael W. Deem and Ramdas Pophale) SiO2 
 PCOD9325737
Probable space group: C 2 2 2
;
_chemical_formula_sum "Si O2"
_cell_formula_units_Z 38
_cell_length_a 21.371947
_cell_length_b 17.217062
_cell_length_c 5.104264
_cell_angle_alpha 90.000000
_cell_angle_beta 90.000000
_cell_angle_gamma 90.000000
_cell_volume 1878.175887
_symmetry_space_group_name_H-M "C 2 2 2"
_symmetry_group_IT_number 21
_symmetry_cell_setting 'orthorhombic'
loop_
_space_group_symop_operation_xyz
x,y,z
-x,-y,z
x,-y,-z
-x,y,-z
1/2+x,1/2+y,z
1/2-x,1/2-y,z
1/2+x,1/2-y,-z
1/2-x,1/2+y,-z
loop_
_atom_site_type_symbol
_atom_site_label
_atom_site_fract_x
_atom_site_fract_y
_atom_site_fract_z
Si Si1 0.286158 0.944915 0.754764
Si Si2 0.913842 0.636718 0.342070
Si Si3 0.886502 0.232155 0.290041
Si Si4 0.000000 0.248549 0.000000
Si Si5 0.193286 0.191569 0.217433
Si Si6 0.000000 0.500000 0.500000
O O1 0.345356 0.886911 0.751672
O O2 0.224308 0.892991 0.784656
O O3 0.286191 0.000000 0.500000
O O4 0.293184 0.000000 0.000000
O O5 0.902064 0.678507 0.623474
O O6 0.953659 0.697674 0.172544
O O7 0.954515 0.558641 0.348882
O O8 0.857993 0.196888 0.553898
O O9 0.953187 0.201752 0.187017
O O10 0.836876 0.217844 0.058250
O O11 0.250000 0.250000 0.284756
#
# Coordination Sequence:
#
# PCOD9325737 Si02
#       6
#     8   8   8   4   8   2
#     4  12  28  46  66 102 144 188 232 285 360 416
#     4  12  26  40  65  97 145 193 228 271 327 426
#     4  12  24  43  67  98 135 176 238 292 333 394
#     4  12  24  43  64 102 141 172 238 284 336 412
#     4  12  25  42  72  96 136 185 243 294 337 406
#     4  12  24  38  60  96 150 192 220 250 338 412
#
# _framework density 20.232396999999999
#
# number of rings (size 3 to 8) (size 9 to 14) (size 15 to 20)
#    0.000    0.000    7.368    1.895    8.842    0.000 
#    0.000    0.000    0.000    0.000    0.000   11.053 
#    0.000    0.000    0.000    0.000    0.000    0.000 
#
# Total GULP energy -106191.414725 kJ/mol
# GULP energy per Si atom -5589.021828 kJ/mol
# Density = 2.018635 g / cm^3
# Si number density = 20.232397 Si / 1000 Ang^3
#
#
#
# Elastic Constant Matrix: (Units=GPa)
#
#
# Indices 1 2 3 4 5 6 
#
# 1 131.8250 44.0019 59.3550 0.0000 0.0000 0.0000
# 2 44.0019 33.7451 25.7246 0.0000 0.0000 0.0000
# 3 59.3550 25.7246 142.5376 0.0000 0.0000 0.0000
# 4 0.0000 0.0000 0.0000 -158.4865 0.0000 0.0000
# 5 0.0000 0.0000 0.0000 0.0000 46.5695 0.0000
# 6 0.0000 0.0000 0.0000 0.0000 0.0000 56.1499
#
#
#
# Elastic Compliance Matrix: (Units=1/GPa)
#
#
# Indices 1 2 3 4 5 6 
#
# 1 0.014487 -0.016571 -0.003042 0.000000 0.000000 0.000000
# 2 -0.016571 0.053317 -0.002722 0.000000 0.000000 0.000000
# 3 -0.003042 -0.002722 0.008774 0.000000 0.000000 0.000000
# 4 0.000000 0.000000 0.000000 -0.006310 0.000000 0.000000
# 5 0.000000 0.000000 0.000000 0.000000 0.021473 0.000000
# 6 0.000000 0.000000 0.000000 0.000000 0.000000 0.017809
#
#
# Mechanical properties :
#
#
# Convention : Reuss Voigt Hill
#
# Bulk Modulus (GPa) = 31.34066 62.91896 47.12981
# Shear Modulus (GPa) = 30.32961 0.78165 15.55563
#
# Velocity S-wave (km/s) = 3.87597 0.62223 2.77582
# Velocity P-wave (km/s) = 5.96279 5.62866 5.79813
#
# Compressibility (1/GPa) = 0.03190743
#
# Stress axis : x y z
#
# Youngs Moduli (GPa) = 69.02905 18.75584 113.97833
#
# Poissons Ratio (x) = 0.31080 0.34670
# Poissons Ratio (y) = 1.14388 0.31024
# Poissons Ratio (z) = 0.20997 0.05105
#
# Static dielectric constant tensor:
#      x y z
#    x 1.749650 0.000000 0.000000 
#    y 0.000000 1.703470 0.000000 
#    z 0.000000 0.000000 1.754990 
# 
# From -- ./inp_files/4866.got.cif
#   From: 2010.05.17/outbox.cif.g08.bks.cpg/sg21_3_cif.got.tgz:4866.got - 2010.06.03 23:14:55.
