data_PCOD9325813
_publ_section_title
;
Structure prediction by ZEFSAII (Michael W. Deem and Ramdas Pophale) SiO2 
 PCOD9325813
Probable space group: C 2 2 2
;
_chemical_formula_sum "Si O2"
_cell_formula_units_Z 22
_cell_length_a 5.434771
_cell_length_b 31.677032
_cell_length_c 5.031093
_cell_angle_alpha 90.000000
_cell_angle_beta 90.000000
_cell_angle_gamma 90.000000
_cell_volume 866.139965
_symmetry_space_group_name_H-M "C 2 2 2"
_symmetry_group_IT_number 21
_symmetry_cell_setting 'orthorhombic'
loop_
_space_group_symop_operation_xyz
x,y,z
-x,-y,z
x,-y,-z
-x,y,-z
1/2+x,1/2+y,z
1/2-x,1/2-y,z
1/2+x,1/2-y,-z
1/2-x,1/2+y,-z
loop_
_atom_site_type_symbol
_atom_site_label
_atom_site_fract_x
_atom_site_fract_y
_atom_site_fract_z
Si Si1 0.500000 0.859965 0.000000
Si Si2 0.844448 0.067853 0.234499
Si Si3 0.674095 0.701429 0.738453
Si Si4 0.000000 0.500000 0.500000
O O1 0.286024 0.893221 0.080732
O O2 0.422093 0.825566 0.222677
O O3 0.000000 0.080336 0.500000
O O4 0.659168 0.032252 0.329291
O O5 0.000000 0.048275 0.000000
O O6 0.500000 0.686943 0.500000
O O7 0.750000 0.750000 0.701731
O O8 0.500000 0.697744 0.000000
#
# Coordination Sequence:
#
# PCOD9325813 Si02
#       4
#     4   8   8   2
#     4  12  28  51  82 118 164 218 264 339 396 474
#     4  12  29  52  80 122 163 212 270 328 402 483
#     4  12  27  49  77 113 157 214 275 333 399 470
#     4  12  30  54  88 120 164 214 262 338 400 484
#
# _framework density 25.400055999999999
#
# number of rings (size 3 to 8) (size 9 to 14) (size 15 to 20)
#    0.000    0.000    1.818    6.000    0.000   16.727 
#    0.000    0.000    0.000    0.000    0.000    0.000 
#    0.000    0.000    0.000    0.000    0.000    0.000 
#
# Total GULP energy -61439.098148 kJ/mol
# GULP energy per Si atom -5585.372559 kJ/mol
# Density = 2.534224 g / cm^3
# Si number density = 25.400056 Si / 1000 Ang^3
#
#
#
# Elastic Constant Matrix: (Units=GPa)
#
#
# Indices 1 2 3 4 5 6 
#
# 1 136.8117 67.5994 106.0796 0.0000 0.0000 0.0000
# 2 67.5994 179.8918 31.5604 0.0000 0.0000 0.0000
# 3 106.0796 31.5604 207.1393 0.0000 0.0000 0.0000
# 4 0.0000 0.0000 0.0000 -25.3948 0.0000 0.0000
# 5 0.0000 0.0000 0.0000 0.0000 52.2154 0.0000
# 6 0.0000 0.0000 0.0000 0.0000 0.0000 -26.3244
#
#
#
# Elastic Compliance Matrix: (Units=1/GPa)
#
#
# Indices 1 2 3 4 5 6 
#
# 1 0.014842 -0.004360 -0.006937 0.000000 0.000000 0.000000
# 2 -0.004360 0.006993 0.001168 0.000000 0.000000 0.000000
# 3 -0.006937 0.001168 0.008202 0.000000 0.000000 0.000000
# 4 0.000000 0.000000 0.000000 -0.039378 0.000000 0.000000
# 5 0.000000 0.000000 0.000000 0.000000 0.019151 0.000000
# 6 0.000000 0.000000 0.000000 0.000000 0.000000 -0.037988
#
#
# Mechanical properties :
#
#
# Convention : Reuss Voigt Hill
#
# Bulk Modulus (GPa) = 102.26854 103.81350 103.04102
# Shear Modulus (GPa) = -1073.16334 21.33947 -525.91194
#
# Velocity S-wave (km/s) = -20.57721 2.90165 -14.40489
# Velocity P-wave (km/s) = 22.89567 7.22400 15.36270
#
# Compressibility (1/GPa) = 0.00977818
#
# Stress axis : x y z
#
# Youngs Moduli (GPa) = 67.37512 143.00826 121.91965
#
# Poissons Ratio (x) = 0.62358 0.84571
# Poissons Ratio (y) = 0.29379 -0.14236
# Poissons Ratio (z) = 0.46736 -0.16698
#
# Static dielectric constant tensor:
#      x y z
#    x 1.923780 0.000000 0.000000 
#    y 0.000000 1.964210 0.000000 
#    z 0.000000 0.000000 1.961020 
# 
# From -- ./inp_files/748.got.cif
#   From: 2010.05.17/outbox.cif.g08.bks.cpg/sg21_1_cif.got.tgz:748.got - 2010.06.03 23:14:55.
