data_PCOD9325527
_publ_section_title
;
Structure prediction by ZEFSAII (Michael W. Deem and Ramdas Pophale) SiO2 
 PCOD9325527
Probable space group: C 2 2 2
;
_chemical_formula_sum "Si O2"
_cell_formula_units_Z 58
_cell_length_a 15.595103
_cell_length_b 10.258170
_cell_length_c 19.091632
_cell_angle_alpha 90.000000
_cell_angle_beta 90.000000
_cell_angle_gamma 90.000000
_cell_volume 3054.226170
_symmetry_space_group_name_H-M "C 2 2 2"
_symmetry_group_IT_number 21
_symmetry_cell_setting 'orthorhombic'
loop_
_space_group_symop_operation_xyz
x,y,z
-x,-y,z
x,-y,-z
-x,y,-z
1/2+x,1/2+y,z
1/2-x,1/2-y,z
1/2+x,1/2-y,-z
1/2-x,1/2+y,-z
loop_
_atom_site_type_symbol
_atom_site_label
_atom_site_fract_x
_atom_site_fract_y
_atom_site_fract_z
Si Si1 0.849818 0.254195 0.179695
Si Si2 0.999746 0.343088 0.082020
Si Si3 0.848031 0.737004 0.184215
Si Si4 0.000000 0.000000 0.500000
Si Si5 0.103682 0.492913 0.721027
Si Si6 0.601442 0.497169 0.259707
Si Si7 0.642450 0.371057 0.406680
Si Si8 0.663882 0.067707 0.428632
O O1 0.750000 0.250000 0.162078
O O2 0.866367 0.356607 0.243576
O O3 0.912184 0.297592 0.118027
O O4 0.876825 0.110120 0.201991
O O5 0.080245 0.280530 0.123708
O O6 0.000000 0.500000 0.090005
O O7 0.000000 0.311443 0.000000
O O8 0.750000 0.750000 0.158449
O O9 0.858503 0.608234 0.231667
O O10 0.868058 0.862298 0.232950
O O11 0.937471 0.919645 0.549314
O O12 0.137006 0.508113 0.641674
O O13 0.000000 0.500000 0.722532
O O14 0.500000 0.500000 0.270687
O O15 0.640935 0.438249 0.330588
O O16 0.635205 0.215105 0.410812
O O17 0.733937 0.415096 0.436682
O O18 0.630824 0.000000 0.500000
#
# Coordination Sequence:
#
# PCOD9325527 Si02
#       8
#     8   8   8   2   8   8   8   8
#     4  12  22  43  72  98 132 180 229 273 332 399
#     4  11  24  45  71 101 139 181 223 274 339 410
#     4  12  24  42  68 102 136 171 223 280 329 392
#     4  12  24  40  66  84 122 176 206 274 348 404
#     4  12  23  44  70  96 131 178 234 277 329 401
#     4  12  23  40  68  99 129 172 220 284 334 387
#     4  11  24  43  64  93 129 172 224 271 345 410
#     4  11  25  44  64  93 133 172 222 287 336 400
#
# _framework density 18.990081
#
# number of rings (size 3 to 8) (size 9 to 14) (size 15 to 20)
#    0.000    0.414    6.897    2.483    0.000    3.034 
#    2.483    1.379    0.000    0.000    0.000    0.000 
#    0.000    0.000    0.000    0.000    0.000    0.000 
#
# Total GULP energy -162017.951191 kJ/mol
# GULP energy per Si atom -5586.825903 kJ/mol
# Density = 1.894686 g / cm^3
# Si number density = 18.990081 Si / 1000 Ang^3
#
#
#
# Elastic Constant Matrix: (Units=GPa)
#
#
# Indices 1 2 3 4 5 6 
#
# 1 110.6220 39.2486 47.2547 0.0000 0.0000 0.0000
# 2 39.2486 79.1898 27.9645 0.0000 0.0000 0.0000
# 3 47.2547 27.9645 127.6157 0.0000 0.0000 0.0000
# 4 0.0000 0.0000 0.0000 32.9948 0.0000 0.0000
# 5 0.0000 0.0000 0.0000 0.0000 19.7895 0.0000
# 6 0.0000 0.0000 0.0000 0.0000 0.0000 22.3108
#
#
#
# Elastic Compliance Matrix: (Units=1/GPa)
#
#
# Indices 1 2 3 4 5 6 
#
# 1 0.012240 -0.004841 -0.003472 0.000000 0.000000 0.000000
# 2 -0.004841 0.015601 -0.001626 0.000000 0.000000 0.000000
# 3 -0.003472 -0.001626 0.009478 0.000000 0.000000 0.000000
# 4 0.000000 0.000000 0.000000 0.030308 0.000000 0.000000
# 5 0.000000 0.000000 0.000000 0.000000 0.050532 0.000000
# 6 0.000000 0.000000 0.000000 0.000000 0.000000 0.044821
#
#
# Mechanical properties :
#
#
# Convention : Reuss Voigt Hill
#
# Bulk Modulus (GPa) = 57.33201 60.70701 59.01951
# Shear Modulus (GPa) = 26.50104 28.54967 27.52535
#
# Velocity S-wave (km/s) = 3.73972 3.88158 3.81131
# Velocity P-wave (km/s) = 6.99309 7.21983 7.10737
#
# Compressibility (1/GPa) = 0.01744226
#
# Stress axis : x y z
#
# Youngs Moduli (GPa) = 81.69751 64.09706 105.50818
#
# Poissons Ratio (x) = 0.31027 0.36629
# Poissons Ratio (y) = 0.39547 0.17159
# Poissons Ratio (z) = 0.28363 0.10424
#
# Static dielectric constant tensor:
#      x y z
#    x 1.560500 0.000000 0.000000 
#    y 0.000000 1.645690 0.000000 
#    z 0.000000 0.000000 1.655800 
# 
# From -- ./inp_files/36719.got.cif
#   From: 2010.05.17/outbox.cif.g08.bks.cpg/sg21_19_cif.got.tgz:36719.got - 2010.06.03 23:14:55.
