data_PCOD9325015
_publ_section_title
;
Structure prediction by ZEFSAII (Michael W. Deem and Ramdas Pophale) SiO2 
 PCOD9325015
Probable space group: C 2 2 2
;
_chemical_formula_sum "Si O2"
_cell_formula_units_Z 48
_cell_length_a 5.500934
_cell_length_b 27.998232
_cell_length_c 13.920223
_cell_angle_alpha 90.000000
_cell_angle_beta 90.000000
_cell_angle_gamma 90.000000
_cell_volume 2143.943000
_symmetry_space_group_name_H-M "C 2 2 2"
_symmetry_group_IT_number 21
_symmetry_cell_setting 'orthorhombic'
loop_
_space_group_symop_operation_xyz
x,y,z
-x,-y,z
x,-y,-z
-x,y,-z
1/2+x,1/2+y,z
1/2-x,1/2-y,z
1/2+x,1/2-y,-z
1/2-x,1/2+y,-z
loop_
_atom_site_type_symbol
_atom_site_label
_atom_site_fract_x
_atom_site_fract_y
_atom_site_fract_z
Si Si1 0.000000 0.836030 0.000000
Si Si2 0.757041 0.028115 0.311029
Si Si3 0.500000 0.429506 0.500000
Si Si4 0.405437 0.792223 0.271880
Si Si5 0.250000 0.250000 0.109363
Si Si6 0.199136 0.146191 0.364973
Si Si7 0.386471 0.619202 0.196680
Si Si8 0.000000 0.780018 0.500000
O O1 0.812931 0.796880 0.046126
O O2 0.073724 0.872245 0.084906
O O3 0.840015 0.043894 0.418924
O O4 0.746032 0.073909 0.240438
O O5 0.500000 0.000000 0.311836
O O6 0.000000 0.000000 0.276596
O O7 0.308509 0.397336 0.439359
O O8 0.250000 0.750000 0.315133
O O9 0.544321 0.766149 0.184232
O O10 0.573361 0.819944 0.347271
O O11 0.253210 0.833271 0.224297
O O12 0.002478 0.182216 0.411010
O O13 0.129016 0.124195 0.261829
O O14 0.750000 0.750000 0.490457
#
# Coordination Sequence:
#
# PCOD9325015 Si02
#       8
#     4   8   4   8   4   8   8   4
#     4  12  22  44  67 108 146 198 255 316 374 448
#     4  11  27  52  82 116 150 195 255 324 400 467
#     4   9  23  50  73 114 142 202 250 327 382 464
#     4  12  23  42  70 103 151 209 250 309 375 444
#     4  12  24  40  64 106 144 194 268 302 356 450
#     4  10  24  46  63  99 150 197 246 311 375 444
#     4  11  26  44  74 104 148 198 244 319 389 456
#     4  11  28  40  61  92 139 198 261 295 350 433
#
# _framework density 22.388653999999999
#
# number of rings (size 3 to 8) (size 9 to 14) (size 15 to 20)
#    0.000    1.000    3.333    1.250   10.500    1.333 
#    3.000    0.417    0.000    1.000    0.000    0.000 
#    0.000    0.000    0.000    0.000    0.000    0.000 
#
# Total GULP energy -133979.279670 kJ/mol
# GULP energy per Si atom -5582.469986 kJ/mol
# Density = 2.233770 g / cm^3
# Si number density = 22.388654 Si / 1000 Ang^3
#
#
#
# Elastic Constant Matrix: (Units=GPa)
#
#
# Indices 1 2 3 4 5 6 
#
# 1 91.1091 55.4982 21.2571 0.0000 0.0000 0.0000
# 2 55.4982 134.0670 57.9196 0.0000 0.0000 0.0000
# 3 21.2571 57.9196 136.0710 0.0000 0.0000 0.0000
# 4 0.0000 0.0000 0.0000 67.8493 0.0000 0.0000
# 5 0.0000 0.0000 0.0000 0.0000 -144.1895 0.0000
# 6 0.0000 0.0000 0.0000 0.0000 0.0000 31.8703
#
#
#
# Elastic Compliance Matrix: (Units=1/GPa)
#
#
# Indices 1 2 3 4 5 6 
#
# 1 0.014691 -0.006237 0.000360 0.000000 0.000000 0.000000
# 2 -0.006237 0.011787 -0.004043 0.000000 0.000000 0.000000
# 3 0.000360 -0.004043 0.009014 0.000000 0.000000 0.000000
# 4 0.000000 0.000000 0.000000 0.014739 0.000000 0.000000
# 5 0.000000 0.000000 0.000000 0.000000 -0.006935 0.000000
# 6 0.000000 0.000000 0.000000 0.000000 0.000000 0.031377
#
#
# Mechanical properties :
#
#
# Convention : Reuss Voigt Hill
#
# Bulk Modulus (GPa) = 63.89002 70.06633 66.97817
# Shear Modulus (GPa) = 50.13503 6.21084 28.17294
#
# Velocity S-wave (km/s) = 4.73726 1.66737 3.55118
# Velocity P-wave (km/s) = 7.64990 5.92201 6.84073
#
# Compressibility (1/GPa) = 0.01565190
#
# Stress axis : x y z
#
# Youngs Moduli (GPa) = 68.06851 84.83574 110.94007
#
# Poissons Ratio (x) = 0.52911 -0.03991
# Poissons Ratio (y) = 0.42454 0.44854
# Poissons Ratio (z) = -0.02449 0.34300
#
# Static dielectric constant tensor:
#      x y z
#    x 1.841900 0.000000 0.000000 
#    y 0.000000 2.261700 0.000000 
#    z 0.000000 0.000000 2.263150 
# 
# From -- ./inp_files/29433.got.cif
#   From: 2010.05.17/outbox.cif.g08.bks.cpg/sg21_15_cif.got.tgz:29433.got - 2010.06.03 23:14:55.
