data_PCOD9325584
_publ_section_title
;
Structure prediction by ZEFSAII (Michael W. Deem and Ramdas Pophale) SiO2 
 PCOD9325584
Probable space group: C 2 2 2
;
_chemical_formula_sum "Si O2"
_cell_formula_units_Z 48
_cell_length_a 29.982816
_cell_length_b 7.982586
_cell_length_c 8.985570
_cell_angle_alpha 90.000000
_cell_angle_beta 90.000000
_cell_angle_gamma 90.000000
_cell_volume 2150.609983
_symmetry_space_group_name_H-M "C 2 2 2"
_symmetry_group_IT_number 21
_symmetry_cell_setting 'orthorhombic'
loop_
_space_group_symop_operation_xyz
x,y,z
-x,-y,z
x,-y,-z
-x,y,-z
1/2+x,1/2+y,z
1/2-x,1/2-y,z
1/2+x,1/2-y,-z
1/2-x,1/2+y,-z
loop_
_atom_site_type_symbol
_atom_site_label
_atom_site_fract_x
_atom_site_fract_y
_atom_site_fract_z
Si Si1 0.284956 0.133183 0.385959
Si Si2 0.639555 0.225592 0.153444
Si Si3 0.638750 0.832755 0.188682
Si Si4 0.723065 0.421695 0.163438
Si Si5 0.449852 0.306940 0.679937
Si Si6 0.549550 0.288524 0.667586
O O1 0.250000 0.250000 0.473054
O O2 0.324148 0.232257 0.303224
O O3 0.304797 0.000000 0.500000
O O4 0.252867 0.041919 0.266359
O O5 0.674657 0.357828 0.220418
O O6 0.590189 0.249716 0.216642
O O7 0.650148 0.030514 0.182207
O O8 0.642183 0.243158 0.975190
O O9 0.589217 0.799428 0.245800
O O10 0.750000 0.250000 0.144198
O O11 0.718800 0.500000 0.000000
O O12 0.499551 0.245345 0.720880
O O13 0.448384 0.509586 0.682407
O O14 0.444490 0.252512 0.507953
#
# Coordination Sequence:
#
# PCOD9325584 Si02
#       6
#     8   8   8   8   8   8
#     4  12  28  46  66  97 134 175 225 281 342 406
#     4  11  25  41  65  96 131 174 224 269 332 403
#     4  11  25  44  62  96 134 173 218 277 334 392
#     4  12  24  44  69  95 134 179 224 280 339 409
#     4   9  21  42  66 100 127 172 222 269 335 404
#     4   9  21  42  68  94 135 168 217 280 330 397
#
# _framework density 22.319251000000001
#
# number of rings (size 3 to 8) (size 9 to 14) (size 15 to 20)
#    0.000    1.333    1.667    4.000    7.000    1.333 
#    0.000    5.000    0.000    0.000    0.000    0.000 
#    0.000    0.000    0.000    0.000    0.000    0.000 
#
# Total GULP energy -134218.659377 kJ/mol
# GULP energy per Si atom -5592.444141 kJ/mol
# Density = 2.226845 g / cm^3
# Si number density = 22.319251 Si / 1000 Ang^3
#
#
#
# Elastic Constant Matrix: (Units=GPa)
#
#
# Indices 1 2 3 4 5 6 
#
# 1 161.3722 19.7415 49.3736 0.0000 0.0000 0.0000
# 2 19.7415 31.1138 4.7568 0.0000 0.0000 0.0000
# 3 49.3736 4.7568 58.6006 0.0000 0.0000 0.0000
# 4 0.0000 0.0000 0.0000 28.5253 0.0000 0.0000
# 5 0.0000 0.0000 0.0000 0.0000 38.2695 0.0000
# 6 0.0000 0.0000 0.0000 0.0000 0.0000 41.8293
#
#
#
# Elastic Compliance Matrix: (Units=1/GPa)
#
#
# Indices 1 2 3 4 5 6 
#
# 1 0.008951 -0.004583 -0.007170 0.000000 0.000000 0.000000
# 2 -0.004583 0.034891 0.001029 0.000000 0.000000 0.000000
# 3 -0.007170 0.001029 0.023022 0.000000 0.000000 0.000000
# 4 0.000000 0.000000 0.000000 0.035057 0.000000 0.000000
# 5 0.000000 0.000000 0.000000 0.000000 0.026130 0.000000
# 6 0.000000 0.000000 0.000000 0.000000 0.000000 0.023907
#
#
# Mechanical properties :
#
#
# Convention : Reuss Voigt Hill
#
# Bulk Modulus (GPa) = 22.01831 44.31448 33.16639
# Shear Modulus (GPa) = 26.51900 33.53911 30.02906
#
# Velocity S-wave (km/s) = 3.45072 3.88067 3.67199
# Velocity P-wave (km/s) = 5.07575 6.32277 5.73326
#
# Compressibility (1/GPa) = 0.04541675
#
# Stress axis : x y z
#
# Youngs Moduli (GPa) = 111.71649 28.66081 43.43685
#
# Poissons Ratio (x) = 0.13136 0.31143
# Poissons Ratio (y) = 0.51204 -0.04472
# Poissons Ratio (z) = 0.80098 -0.02951
#
# Static dielectric constant tensor:
#      x y z
#    x 1.831140 0.000000 0.000000 
#    y 0.000000 1.917790 0.000000 
#    z 0.000000 0.000000 1.794440 
# 
# From -- ./inp_files/19635.got.cif
#   From: 2010.05.17/outbox.cif.g08.bks.cpg/sg21_10_cif.got.tgz:19635.got - 2010.06.03 23:14:55.
