data_PCOD9325346
_publ_section_title
;
Structure prediction by ZEFSAII (Michael W. Deem and Ramdas Pophale) SiO2 
 PCOD9325346
Probable space group: C 2 2 2
;
_chemical_formula_sum "Si O2"
_cell_formula_units_Z 48
_cell_length_a 8.505904
_cell_length_b 17.594777
_cell_length_c 15.933663
_cell_angle_alpha 90.000000
_cell_angle_beta 90.000000
_cell_angle_gamma 90.000000
_cell_volume 2384.623784
_symmetry_space_group_name_H-M "C 2 2 2"
_symmetry_group_IT_number 21
_symmetry_cell_setting 'orthorhombic'
loop_
_space_group_symop_operation_xyz
x,y,z
-x,-y,z
x,-y,-z
-x,y,-z
1/2+x,1/2+y,z
1/2-x,1/2-y,z
1/2+x,1/2-y,-z
1/2-x,1/2+y,-z
loop_
_atom_site_type_symbol
_atom_site_label
_atom_site_fract_x
_atom_site_fract_y
_atom_site_fract_z
Si Si1 0.632686 0.675068 0.427185
Si Si2 0.939431 0.586090 0.086281
Si Si3 0.584125 0.846056 0.746086
Si Si4 0.935684 0.086130 0.910479
Si Si5 0.561670 0.666514 0.744000
Si Si6 0.926943 0.415002 0.583822
O O1 0.500000 0.680959 0.500000
O O2 0.750000 0.750000 0.428124
O O3 0.544946 0.663565 0.338647
O O4 0.743517 0.600182 0.432156
O O5 0.752102 0.586376 0.087076
O O6 0.000000 0.500000 0.085774
O O7 0.013213 0.621298 0.169035
O O8 0.000000 0.623358 0.000000
O O9 0.581432 0.756134 0.756152
O O10 0.765261 0.869371 0.730834
O O11 0.480691 0.872098 0.667314
O O12 0.990292 0.130738 0.828045
O O13 0.000000 0.000000 0.903753
O O14 0.000000 0.116535 0.000000
O O15 0.000000 0.500000 0.590145
O O16 0.000000 0.379420 0.500000
#
# Coordination Sequence:
#
# PCOD9325346 Si02
#       6
#     8   8   8   8   8   8
#     4  12  25  43  73 103 138 185 239 290 357 431
#     4  11  22  39  64  89 125 174 223 273 341 412
#     4  11  23  42  64  94 133 176 222 281 342 412
#     4  11  23  42  67  97 136 177 232 288 349 421
#     4  11  25  40  66  99 134 173 232 281 341 413
#     4  11  24  44  67  97 137 177 225 284 349 416
#
# _framework density 20.128961
#
# number of rings (size 3 to 8) (size 9 to 14) (size 15 to 20)
#    0.000    0.833    1.667    7.000    2.333    2.000 
#    0.000    5.000    0.000    0.000    0.000    0.000 
#    0.000    0.000    0.000    0.000    0.000    0.000 
#
# Total GULP energy -134029.141625 kJ/mol
# GULP energy per Si atom -5584.547568 kJ/mol
# Density = 2.008315 g / cm^3
# Si number density = 20.128961 Si / 1000 Ang^3
#
#
#
# Elastic Constant Matrix: (Units=GPa)
#
#
# Indices 1 2 3 4 5 6 
#
# 1 174.4275 36.9337 78.0087 0.0000 0.0000 0.0000
# 2 36.9337 54.4383 42.3969 0.0000 0.0000 0.0000
# 3 78.0087 42.3969 205.0929 0.0000 0.0000 0.0000
# 4 0.0000 0.0000 0.0000 19.5950 0.0000 0.0000
# 5 0.0000 0.0000 0.0000 0.0000 75.1468 0.0000
# 6 0.0000 0.0000 0.0000 0.0000 0.0000 32.6362
#
#
#
# Elastic Compliance Matrix: (Units=1/GPa)
#
#
# Indices 1 2 3 4 5 6 
#
# 1 0.007392 -0.003368 -0.002116 0.000000 0.000000 0.000000
# 2 -0.003368 0.023429 -0.003562 0.000000 0.000000 0.000000
# 3 -0.002116 -0.003562 0.006417 0.000000 0.000000 0.000000
# 4 0.000000 0.000000 0.000000 0.051033 0.000000 0.000000
# 5 0.000000 0.000000 0.000000 0.000000 0.013307 0.000000
# 6 0.000000 0.000000 0.000000 0.000000 0.000000 0.030641
#
#
# Mechanical properties :
#
#
# Convention : Reuss Voigt Hill
#
# Bulk Modulus (GPa) = 52.22816 83.18192 67.70504
# Shear Modulus (GPa) = 31.90968 43.91689 37.91328
#
# Velocity S-wave (km/s) = 3.98585 4.67602 4.34466
# Velocity P-wave (km/s) = 6.86919 8.40046 7.67312
#
# Compressibility (1/GPa) = 0.01914676
#
# Stress axis : x y z
#
# Youngs Moduli (GPa) = 135.27696 42.68305 155.83883
#
# Poissons Ratio (x) = 0.14374 0.32968
# Poissons Ratio (y) = 0.45557 0.55513
# Poissons Ratio (z) = 0.28618 0.15205
#
# Static dielectric constant tensor:
#      x y z
#    x 1.749090 0.000000 0.000000 
#    y 0.000000 1.690930 0.000000 
#    z 0.000000 0.000000 1.710760 
# 
# From -- ./inp_files/30520.got.cif
#   From: 2010.05.17/outbox.cif.g08.bks.cpg/sg21_16_cif.got.tgz:30520.got - 2010.06.03 23:14:55.
