data_PCOD9325078
_publ_section_title
;
Structure prediction by ZEFSAII (Michael W. Deem and Ramdas Pophale) SiO2 
 PCOD9325078
Probable space group: C 2 2 2
;
_chemical_formula_sum "Si O2"
_cell_formula_units_Z 28
_cell_length_a 24.637648
_cell_length_b 10.612314
_cell_length_c 5.065612
_cell_angle_alpha 90.000000
_cell_angle_beta 90.000000
_cell_angle_gamma 90.000000
_cell_volume 1324.467359
_symmetry_space_group_name_H-M "C 2 2 2"
_symmetry_group_IT_number 21
_symmetry_cell_setting 'orthorhombic'
loop_
_space_group_symop_operation_xyz
x,y,z
-x,-y,z
x,-y,-z
-x,y,-z
1/2+x,1/2+y,z
1/2-x,1/2-y,z
1/2+x,1/2-y,-z
1/2-x,1/2+y,-z
loop_
_atom_site_type_symbol
_atom_site_label
_atom_site_fract_x
_atom_site_fract_y
_atom_site_fract_z
Si Si1 0.377127 0.500000 0.500000
Si Si2 0.814399 0.747803 0.355086
Si Si3 0.869074 0.366256 0.145662
Si Si4 0.038136 0.825993 0.243353
O O1 0.340204 0.385128 0.404360
O O2 0.417832 0.564917 0.292755
O O3 0.750000 0.750000 0.382577
O O4 0.840146 0.651065 0.569955
O O5 0.832412 0.710486 0.062105
O O6 0.927088 0.299275 0.184070
O O7 0.874895 0.500000 0.000000
O O8 0.000000 0.813133 0.500000
O O9 0.000000 0.852823 0.000000
#
# Coordination Sequence:
#
# PCOD9325078 Si02
#       4
#     4   8   8   8
#     4  10  25  42  68 100 134 168 231 280 332 410
#     4  11  25  44  68 100 132 181 228 279 344 395
#     4  11  25  45  67  98 140 177 229 281 326 417
#     4  11  24  43  68 101 136 179 224 280 344 393
#
# _framework density 21.140574999999998
#
# number of rings (size 3 to 8) (size 9 to 14) (size 15 to 20)
#    0.000    1.143    0.000    5.571    4.000   14.286 
#    0.000    4.286    0.000    0.000    0.000    0.000 
#    0.000    0.000    0.000    0.000    0.000    0.000 
#
# Total GULP energy -78314.833162 kJ/mol
# GULP energy per Si atom -5593.916654 kJ/mol
# Density = 2.109246 g / cm^3
# Si number density = 21.140575 Si / 1000 Ang^3
#
#
#
# Elastic Constant Matrix: (Units=GPa)
#
#
# Indices 1 2 3 4 5 6 
#
# 1 172.3852 57.1758 42.3779 0.0000 0.0000 0.0000
# 2 57.1758 119.0033 10.2880 0.0000 0.0000 0.0000
# 3 42.3779 10.2880 106.2781 0.0000 0.0000 0.0000
# 4 0.0000 0.0000 0.0000 31.2597 0.0000 0.0000
# 5 0.0000 0.0000 0.0000 0.0000 46.5575 0.0000
# 6 0.0000 0.0000 0.0000 0.0000 0.0000 21.2910
#
#
#
# Elastic Compliance Matrix: (Units=1/GPa)
#
#
# Indices 1 2 3 4 5 6 
#
# 1 0.007598 -0.003417 -0.002699 0.000000 0.000000 0.000000
# 2 -0.003417 0.010011 0.000393 0.000000 0.000000 0.000000
# 3 -0.002699 0.000393 0.010447 0.000000 0.000000 0.000000
# 4 0.000000 0.000000 0.000000 0.031990 0.000000 0.000000
# 5 0.000000 0.000000 0.000000 0.000000 0.021479 0.000000
# 6 0.000000 0.000000 0.000000 0.000000 0.000000 0.046968
#
#
# Mechanical properties :
#
#
# Convention : Reuss Voigt Hill
#
# Bulk Modulus (GPa) = 60.20054 68.59444 64.39749
# Shear Modulus (GPa) = 34.37020 39.00998 36.69009
#
# Velocity S-wave (km/s) = 4.03649 4.30032 4.17049
# Velocity P-wave (km/s) = 7.08960 7.56136 7.32928
#
# Compressibility (1/GPa) = 0.01661115
#
# Stress axis : x y z
#
# Youngs Moduli (GPa) = 131.61758 99.89143 95.71838
#
# Poissons Ratio (x) = 0.34134 0.25832
# Poissons Ratio (y) = 0.44975 -0.03766
# Poissons Ratio (z) = 0.35521 -0.03930
#
# Static dielectric constant tensor:
#      x y z
#    x 1.677040 0.000000 0.000000 
#    y 0.000000 1.589890 0.000000 
#    z 0.000000 0.000000 1.737580 
# 
# From -- ./inp_files/5527.got.cif
#   From: 2010.05.17/outbox.cif.g08.bks.cpg/sg21_3_cif.got.tgz:5527.got - 2010.06.03 23:14:55.
