data_PCOD9325191
_publ_section_title
;
Structure prediction by ZEFSAII (Michael W. Deem and Ramdas Pophale) SiO2 
 PCOD9325191
Probable space group: C 2 2 2
;
_chemical_formula_sum "Si O2"
_cell_formula_units_Z 40
_cell_length_a 14.485793
_cell_length_b 18.569435
_cell_length_c 9.204150
_cell_angle_alpha 90.000000
_cell_angle_beta 90.000000
_cell_angle_gamma 90.000000
_cell_volume 2475.851843
_symmetry_space_group_name_H-M "C 2 2 2"
_symmetry_group_IT_number 21
_symmetry_cell_setting 'orthorhombic'
loop_
_space_group_symop_operation_xyz
x,y,z
-x,-y,z
x,-y,-z
-x,y,-z
1/2+x,1/2+y,z
1/2-x,1/2-y,z
1/2+x,1/2-y,-z
1/2-x,1/2+y,-z
loop_
_atom_site_type_symbol
_atom_site_label
_atom_site_fract_x
_atom_site_fract_y
_atom_site_fract_z
Si Si1 0.406989 0.801485 0.409503
Si Si2 0.489988 0.295474 0.829709
Si Si3 0.740590 0.922002 0.528551
Si Si4 0.325456 0.303079 0.348605
Si Si5 0.055683 0.927111 0.352115
O O1 0.500000 0.821450 0.500000
O O2 0.438235 0.768847 0.255716
O O3 0.333436 0.866409 0.403216
O O4 0.360190 0.736180 0.502338
O O5 0.590120 0.304776 0.758400
O O6 0.444510 0.369889 0.776914
O O7 0.500000 0.285464 0.000000
O O8 0.778403 0.878395 0.388110
O O9 0.836824 0.938078 0.611601
O O10 0.697419 0.000000 0.500000
O O11 0.250000 0.250000 0.284624
O O12 0.000000 0.900502 0.500000
O O13 0.000000 0.000000 0.316303
#
# Coordination Sequence:
#
# PCOD9325191 Si02
#       5
#     8   8   8   8   8
#     4   9  19  35  54  76 105 138 184 229 266 319
#     4  11  20  33  50  77 111 145 177 218 272 337
#     4  11  18  30  58  83 103 134 179 233 277 310
#     4   9  17  33  52  74 101 134 175 224 266 311
#     4  11  18  32  54  78 110 140 175 224 281 328
#
# _framework density 16.156054999999999
#
# number of rings (size 3 to 8) (size 9 to 14) (size 15 to 20)
#    0.000    1.800    6.000    0.600    0.000    0.800 
#    3.600    0.000    0.000    0.000    0.000   12.600 
#    0.000    0.000    0.000    0.000    0.000    0.000 
#
# Total GULP energy -111353.098175 kJ/mol
# GULP energy per Si atom -5567.654909 kJ/mol
# Density = 1.611928 g / cm^3
# Si number density = 16.156055 Si / 1000 Ang^3
#
#
#
# Elastic Constant Matrix: (Units=GPa)
#
#
# Indices 1 2 3 4 5 6 
#
# 1 72.5670 42.7778 23.7762 0.0000 0.0000 0.0000
# 2 42.7778 120.8723 44.8436 0.0000 0.0000 0.0000
# 3 23.7762 44.8436 99.3881 0.0000 0.0000 0.0000
# 4 0.0000 0.0000 0.0000 14.0181 0.0000 0.0000
# 5 0.0000 0.0000 0.0000 0.0000 8.6473 0.0000
# 6 0.0000 0.0000 0.0000 0.0000 0.0000 32.6600
#
#
#
# Elastic Compliance Matrix: (Units=1/GPa)
#
#
# Indices 1 2 3 4 5 6 
#
# 1 0.017645 -0.005619 -0.001686 0.000000 0.000000 0.000000
# 2 -0.005619 0.011726 -0.003946 0.000000 0.000000 0.000000
# 3 -0.001686 -0.003946 0.012245 0.000000 0.000000 0.000000
# 4 0.000000 0.000000 0.000000 0.071336 0.000000 0.000000
# 5 0.000000 0.000000 0.000000 0.000000 0.115643 0.000000
# 6 0.000000 0.000000 0.000000 0.000000 0.000000 0.030619
#
#
# Mechanical properties :
#
#
# Convention : Reuss Voigt Hill
#
# Bulk Modulus (GPa) = 52.31876 57.29141 54.80509
# Shear Modulus (GPa) = 17.35573 23.16040 20.25807
#
# Velocity S-wave (km/s) = 3.28114 3.79032 3.54489
# Velocity P-wave (km/s) = 6.84165 7.39552 7.12397
#
# Compressibility (1/GPa) = 0.01911360
#
# Stress axis : x y z
#
# Youngs Moduli (GPa) = 56.67232 85.27988 81.66282
#
# Poissons Ratio (x) = 0.47922 0.13766
# Poissons Ratio (y) = 0.31847 0.32228
# Poissons Ratio (z) = 0.09554 0.33655
#
# Static dielectric constant tensor:
#      x y z
#    x 1.588940 0.000000 0.000000 
#    y 0.000000 1.591090 0.000000 
#    z 0.000000 0.000000 1.520530 
# 
# From -- ./inp_files/14752.got.cif
#   From: 2010.05.17/outbox.cif.g08.bks.cpg/sg21_8_cif.got.tgz:14752.got - 2010.06.03 23:14:55.
