data_PCOD9325690
_publ_section_title
;
Structure prediction by ZEFSAII (Michael W. Deem and Ramdas Pophale) SiO2 
 PCOD9325690
Probable space group: C 2 2 2
;
_chemical_formula_sum "Si O2"
_cell_formula_units_Z 34
_cell_length_a 6.777410
_cell_length_b 29.526103
_cell_length_c 9.262084
_cell_angle_alpha 90.000000
_cell_angle_beta 90.000000
_cell_angle_gamma 90.000000
_cell_volume 1853.440313
_symmetry_space_group_name_H-M "C 2 2 2"
_symmetry_group_IT_number 21
_symmetry_cell_setting 'orthorhombic'
loop_
_space_group_symop_operation_xyz
x,y,z
-x,-y,z
x,-y,-z
-x,y,-z
1/2+x,1/2+y,z
1/2-x,1/2-y,z
1/2+x,1/2-y,-z
1/2-x,1/2+y,-z
loop_
_atom_site_type_symbol
_atom_site_label
_atom_site_fract_x
_atom_site_fract_y
_atom_site_fract_z
Si Si1 0.920750 0.287289 0.158409
Si Si2 0.000000 0.000000 0.000000
Si Si3 0.647947 0.873377 0.640625
Si Si4 0.000000 0.829266 0.500000
Si Si5 0.750000 0.750000 0.364836
Si Si6 0.877490 0.545317 0.859181
O O1 0.750000 0.250000 0.143470
O O2 0.885144 0.333502 0.243353
O O3 0.074645 0.262993 0.261416
O O4 0.000000 0.297259 0.000000
O O5 0.844405 0.030569 0.092074
O O6 0.500000 0.871346 0.500000
O O7 0.623100 0.919849 0.727961
O O8 0.874549 0.863232 0.598144
O O9 0.170836 0.793629 0.549155
O O10 0.000000 0.500000 0.820335
O O11 0.000000 0.563395 0.000000
#
# Coordination Sequence:
#
# PCOD9325690 Si02
#       6
#     8   2   8   4   4   8
#     4  12  24  41  63  90 125 167 218 269 311 366
#     4   8  18  44  72  92 120 160 202 262 324 378
#     4  12  25  41  62  95 129 169 212 258 317 385
#     4  12  24  38  64  89 132 174 213 258 320 380
#     4  12  22  42  60  86 126 176 216 256 314 368
#     4   9  21  44  71  94 124 162 206 265 321 377
#
# _framework density 18.344266999999999
#
# number of rings (size 3 to 8) (size 9 to 14) (size 15 to 20)
#    0.000    1.176    5.882    2.118    0.000    4.235 
#    6.353    0.000    0.000    0.000    0.000    0.000 
#    0.000    0.000    0.000    0.000    0.000    0.000 
#
# Total GULP energy -94662.177259 kJ/mol
# GULP energy per Si atom -5568.363368 kJ/mol
# Density = 1.830251 g / cm^3
# Si number density = 18.344267 Si / 1000 Ang^3
#
#
#
# Elastic Constant Matrix: (Units=GPa)
#
#
# Indices 1 2 3 4 5 6 
#
# 1 114.2159 52.3793 55.7091 0.0000 0.0000 0.0000
# 2 52.3793 114.2795 79.6478 0.0000 0.0000 0.0000
# 3 55.7091 79.6478 123.2786 0.0000 0.0000 0.0000
# 4 0.0000 0.0000 0.0000 28.1567 0.0000 0.0000
# 5 0.0000 0.0000 0.0000 0.0000 32.6510 0.0000
# 6 0.0000 0.0000 0.0000 0.0000 0.0000 24.7212
#
#
#
# Elastic Compliance Matrix: (Units=1/GPa)
#
#
# Indices 1 2 3 4 5 6 
#
# 1 0.011797 -0.003077 -0.003343 0.000000 0.000000 0.000000
# 2 -0.003077 0.016721 -0.009413 0.000000 0.000000 0.000000
# 3 -0.003343 -0.009413 0.015704 0.000000 0.000000 0.000000
# 4 0.000000 0.000000 0.000000 0.035516 0.000000 0.000000
# 5 0.000000 0.000000 0.000000 0.000000 0.030627 0.000000
# 6 0.000000 0.000000 0.000000 0.000000 0.000000 0.040451
#
#
# Mechanical properties :
#
#
# Convention : Reuss Voigt Hill
#
# Bulk Modulus (GPa) = 79.64100 80.80514 80.22307
# Shear Modulus (GPa) = 26.78581 28.04164 27.41372
#
# Velocity S-wave (km/s) = 3.82537 3.91401 3.86994
# Velocity P-wave (km/s) = 7.93852 8.03560 7.98721
#
# Compressibility (1/GPa) = 0.01255635
#
# Stress axis : x y z
#
# Youngs Moduli (GPa) = 84.76671 59.80491 63.67975
#
# Poissons Ratio (x) = 0.18404 0.21287
# Poissons Ratio (y) = 0.26085 0.59939
# Poissons Ratio (z) = 0.28337 0.56291
#
# Static dielectric constant tensor:
#      x y z
#    x 1.689040 0.000000 0.000000 
#    y 0.000000 1.676520 0.000000 
#    z 0.000000 0.000000 1.634270 
# 
# From -- ./inp_files/9232.got.cif
#   From: 2010.05.17/outbox.cif.g08.bks.cpg/sg21_5_cif.got.tgz:9232.got - 2010.06.03 23:14:55.
