data_PCOD9325315
_publ_section_title
;
Structure prediction by ZEFSAII (Michael W. Deem and Ramdas Pophale) SiO2 
 PCOD9325315
Probable space group: C 2 2 2
;
_chemical_formula_sum "Si O2"
_cell_formula_units_Z 34
_cell_length_a 9.900494
_cell_length_b 15.334738
_cell_length_c 9.443357
_cell_angle_alpha 90.000000
_cell_angle_beta 90.000000
_cell_angle_gamma 90.000000
_cell_volume 1433.704451
_symmetry_space_group_name_H-M "C 2 2 2"
_symmetry_group_IT_number 21
_symmetry_cell_setting 'orthorhombic'
loop_
_space_group_symop_operation_xyz
x,y,z
-x,-y,z
x,-y,-z
-x,y,-z
1/2+x,1/2+y,z
1/2-x,1/2-y,z
1/2+x,1/2-y,-z
1/2-x,1/2+y,-z
loop_
_atom_site_type_symbol
_atom_site_label
_atom_site_fract_x
_atom_site_fract_y
_atom_site_fract_z
Si Si1 0.123000 0.801499 0.425477
Si Si2 0.772078 0.588453 0.331724
Si Si3 0.000000 0.500000 0.500000
Si Si4 0.154149 0.394736 0.020441
Si Si5 0.116026 0.932391 0.194485
O O1 0.250000 0.750000 0.365131
O O2 0.190644 0.858069 0.551501
O O3 0.061331 0.859477 0.300159
O O4 0.000000 0.751482 0.500000
O O5 0.702596 0.496272 0.294699
O O6 0.912092 0.560800 0.399965
O O7 0.797905 0.630190 0.178006
O O8 0.283425 0.384229 0.915637
O O9 0.140265 0.500000 0.000000
O O10 0.000000 0.359983 0.000000
O O11 0.000000 0.000000 0.142920
#
# Coordination Sequence:
#
# PCOD9325315 Si02
#       5
#     8   8   2   8   8
#     4  12  27  44  65 100 140 185 238 295 356 423
#     4  11  22  37  65  99 136 175 231 286 347 412
#     4  12  20  32  68 100 132 176 218 284 344 396
#     4   9  20  36  60 102 139 169 222 290 348 414
#     4  11  21  43  69  99 135 180 236 294 351 416
#
# _framework density 23.714789
#
# number of rings (size 3 to 8) (size 9 to 14) (size 15 to 20)
#    0.000    1.176    4.706    2.824    1.647    4.235 
#    0.000    1.176    0.000    0.000    0.000    0.000 
#    0.000    0.000    0.000    0.000    0.000    0.000 
#
# Total GULP energy -94808.690680 kJ/mol
# GULP energy per Si atom -5576.981805 kJ/mol
# Density = 2.366081 g / cm^3
# Si number density = 23.714789 Si / 1000 Ang^3
#
#
#
# Elastic Constant Matrix: (Units=GPa)
#
#
# Indices 1 2 3 4 5 6 
#
# 1 129.9735 15.8814 44.7918 0.0000 0.0000 0.0000
# 2 15.8814 23.9374 31.3094 0.0000 0.0000 0.0000
# 3 44.7918 31.3094 127.6577 0.0000 0.0000 0.0000
# 4 0.0000 0.0000 0.0000 -7.4660 0.0000 0.0000
# 5 0.0000 0.0000 0.0000 0.0000 29.1515 0.0000
# 6 0.0000 0.0000 0.0000 0.0000 0.0000 28.0547
#
#
#
# Elastic Compliance Matrix: (Units=1/GPa)
#
#
# Indices 1 2 3 4 5 6 
#
# 1 0.008867 -0.002670 -0.002456 0.000000 0.000000 0.000000
# 2 -0.002670 0.062310 -0.014345 0.000000 0.000000 0.000000
# 3 -0.002456 -0.014345 0.012214 0.000000 0.000000 0.000000
# 4 0.000000 0.000000 0.000000 -0.133941 0.000000 0.000000
# 5 0.000000 0.000000 0.000000 0.000000 0.034304 0.000000
# 6 0.000000 0.000000 0.000000 0.000000 0.000000 0.035645
#
#
# Mechanical properties :
#
#
# Convention : Reuss Voigt Hill
#
# Bulk Modulus (GPa) = 22.49852 51.72598 37.11225
# Shear Modulus (GPa) = 68.34649 22.58712 45.46680
#
# Velocity S-wave (km/s) = 5.37427 3.08952 4.38337
# Velocity P-wave (km/s) = 6.92951 5.88098 6.42666
#
# Compressibility (1/GPa) = 0.04444737
#
# Stress axis : x y z
#
# Youngs Moduli (GPa) = 112.78301 16.04871 81.87560
#
# Poissons Ratio (x) = 0.04285 0.20111
# Poissons Ratio (y) = 0.30112 1.17454
# Poissons Ratio (z) = 0.27702 0.23023
#
# Static dielectric constant tensor:
#      x y z
#    x 1.990370 0.000000 0.000000 
#    y 0.000000 1.902870 0.000000 
#    z 0.000000 0.000000 1.890540 
# 
# From -- ./inp_files/10564.got.cif
#   From: 2010.05.17/outbox.cif.g08.bks.cpg/sg21_6_cif.got.tgz:10564.got - 2010.06.03 23:14:55.
