data_PCOD9325636
_publ_section_title
;
Structure prediction by ZEFSAII (Michael W. Deem and Ramdas Pophale) SiO2 
 PCOD9325636
Probable space group: C 2 2 2
;
_chemical_formula_sum "Si O2"
_cell_formula_units_Z 22
_cell_length_a 10.593555
_cell_length_b 14.345350
_cell_length_c 6.891222
_cell_angle_alpha 90.000000
_cell_angle_beta 90.000000
_cell_angle_gamma 90.000000
_cell_volume 1047.246977
_symmetry_space_group_name_H-M "C 2 2 2"
_symmetry_group_IT_number 21
_symmetry_cell_setting 'orthorhombic'
loop_
_space_group_symop_operation_xyz
x,y,z
-x,-y,z
x,-y,-z
-x,y,-z
1/2+x,1/2+y,z
1/2-x,1/2-y,z
1/2+x,1/2-y,-z
1/2-x,1/2+y,-z
loop_
_atom_site_type_symbol
_atom_site_label
_atom_site_fract_x
_atom_site_fract_y
_atom_site_fract_z
Si Si1 0.962523 0.103022 0.777274
Si Si2 0.325290 0.083399 0.338250
Si Si3 0.500000 0.759339 0.500000
Si Si4 0.000000 0.500000 0.000000
O O1 0.813998 0.108059 0.734843
O O2 0.032057 0.187370 0.670647
O O3 0.000000 0.000000 0.709549
O O4 0.000000 0.108392 0.000000
O O5 0.388215 0.172613 0.438042
O O6 0.324423 0.000000 0.500000
O O7 0.409845 0.055834 0.150272
#
# Coordination Sequence:
#
# PCOD9325636 Si02
#       4
#     8   8   4   2
#     4  11  26  48  70 103 143 194 240 293 358 427
#     4  12  25  47  74 105 147 191 238 305 356 433
#     4  12  24  46  70 108 142 186 240 300 360 414
#     4  12  22  44  74 102 146 188 258 278 376 418
#
# _framework density 21.007460999999999
#
# number of rings (size 3 to 8) (size 9 to 14) (size 15 to 20)
#    0.000    0.364    3.636    6.000    2.545    0.000 
#    6.545    0.000    0.000    0.000    0.000    0.000 
#    0.000    0.000    0.000    0.000    0.000    0.000 
#
# Total GULP energy -61516.786706 kJ/mol
# GULP energy per Si atom -5592.435155 kJ/mol
# Density = 2.095965 g / cm^3
# Si number density = 21.007461 Si / 1000 Ang^3
#
#
#
# Elastic Constant Matrix: (Units=GPa)
#
#
# Indices 1 2 3 4 5 6 
#
# 1 155.0305 64.6942 69.1254 0.0000 0.0000 0.0000
# 2 64.6942 180.0068 90.8502 0.0000 0.0000 0.0000
# 3 69.1254 90.8502 189.8755 0.0000 0.0000 0.0000
# 4 0.0000 0.0000 0.0000 50.7464 0.0000 0.0000
# 5 0.0000 0.0000 0.0000 0.0000 48.1013 0.0000
# 6 0.0000 0.0000 0.0000 0.0000 0.0000 21.0111
#
#
#
# Elastic Compliance Matrix: (Units=1/GPa)
#
#
# Indices 1 2 3 4 5 6 
#
# 1 0.008160 -0.001890 -0.002067 0.000000 0.000000 0.000000
# 2 -0.001890 0.007762 -0.003026 0.000000 0.000000 0.000000
# 3 -0.002067 -0.003026 0.007467 0.000000 0.000000 0.000000
# 4 0.000000 0.000000 0.000000 0.019706 0.000000 0.000000
# 5 0.000000 0.000000 0.000000 0.000000 0.020789 0.000000
# 6 0.000000 0.000000 0.000000 0.000000 0.000000 0.047594
#
#
# Mechanical properties :
#
#
# Convention : Reuss Voigt Hill
#
# Bulk Modulus (GPa) = 106.10725 108.25028 107.17876
# Shear Modulus (GPa) = 38.88516 43.98797 41.43657
#
# Velocity S-wave (km/s) = 4.30701 4.58090 4.44607
# Velocity P-wave (km/s) = 8.68060 8.92305 8.80266
#
# Compressibility (1/GPa) = 0.00942443
#
# Stress axis : x y z
#
# Youngs Moduli (GPa) = 122.54241 128.83875 133.92774
#
# Poissons Ratio (x) = 0.24348 0.27678
# Poissons Ratio (y) = 0.23158 0.40523
# Poissons Ratio (z) = 0.25325 0.38983
#
# Static dielectric constant tensor:
#      x y z
#    x 1.750960 0.000000 0.000000 
#    y 0.000000 1.740560 0.000000 
#    z 0.000000 0.000000 2.129730 
# 
# From -- ./inp_files/1963.got.cif
#   From: 2010.05.17/outbox.cif.g08.bks.cpg/sg21_1_cif.got.tgz:1963.got - 2010.06.03 23:14:55.
