data_PCOD9325851
_publ_section_title
;
Structure prediction by ZEFSAII (Michael W. Deem and Ramdas Pophale) SiO2 
 PCOD9325851
Probable space group: C 2 2 2
;
_chemical_formula_sum "Si O2"
_cell_formula_units_Z 28
_cell_length_a 21.000000
_cell_length_b 9.000000
_cell_length_c 15.000000
_cell_angle_alpha 90.000000
_cell_angle_beta 90.000000
_cell_angle_gamma 90.000000
_cell_volume 2835.000000
_symmetry_space_group_name_H-M "C 2 2 2"
_symmetry_group_IT_number 21
_symmetry_cell_setting 'orthorhombic'
loop_
_space_group_symop_operation_xyz
x,y,z
-x,-y,z
x,-y,-z
-x,y,-z
1/2+x,1/2+y,z
1/2-x,1/2-y,z
1/2+x,1/2-y,-z
1/2-x,1/2+y,-z
loop_
_atom_site_type_symbol
_atom_site_label
_atom_site_fract_x
_atom_site_fract_y
_atom_site_fract_z
Si Si1 0.260632 0.425543 0.094165
Si Si2 0.072679 0.170683 0.528618
Si Si3 0.963975 0.641955 0.163005
Si Si4 0.188460 0.359316 0.436903
Si Si5 0.588047 0.543012 0.102880
Si Si6 0.661165 0.008220 0.243541
Si Si7 0.923011 0.208831 0.258642
O O1 0.250000 0.250000 0.088657
O O2 0.335650 0.446502 0.107712
O O3 0.220345 0.490033 0.176527
O O4 0.241466 0.500000 0.000000
O O5 0.126927 0.272614 0.480221
O O6 0.077029 0.169070 0.636715
O O7 0.000000 0.214654 0.500000
O O8 0.082343 0.000000 0.500000
O O9 0.945186 0.796023 0.114887
O O10 0.898148 0.580265 0.201071
O O11 0.000000 0.500000 0.116855
O O12 0.014067 0.693256 0.238437
O O13 0.202967 0.500000 0.500000
O O14 0.250000 0.250000 0.432465
O O15 0.174458 0.431255 0.339335
O O16 0.573789 0.424967 0.184359
O O17 0.573207 0.500000 0.000000
O O18 0.637236 0.179561 0.246930
#
# Coordination Sequence:
#
# PCOD9325851 Si02
#       7
#     8   8   8   8   8   8   8
#     4  11  25  44  71 100 137 186 235 289 355 432
#     4  11  26  45  71 103 141 192 237 298 363 439
#     4  10  23  44  72 100 138 183 237 287 350 424
#     4  12  26  46  69 103 144 185 244 301 368 428
#     4  11  26  45  71 104 145 188 234 297 363 430
#     4  11  24  45  70 102 139 185 232 295 356 425
#     4  11  25  44  69 105 138 186 237 290 356 436
#
# _framework density 9.8765429999999999
#
# number of rings (size 3 to 8) (size 9 to 14) (size 15 to 20)
#    0.000    1.000    2.857    2.143   10.000    2.571 
#    0.000    5.714    0.000    0.000    0.000    0.000 
#    0.000    0.000    0.000    0.000    0.000    0.000 
#
# Total GULP energy -156348.819886 kJ/mol
# GULP energy per Si atom -5583.886424 kJ/mol
# Density = 0.985406 g / cm^3
# Si number density = 9.876543 Si / 1000 Ang^3
#
#
#
# Elastic Constant Matrix: (Units=GPa)
#
#
# Indices 1 2 3 4 5 6 
#
# 1 130.1001 51.9962 59.2225 0.0000 0.0000 0.0000
# 2 51.9962 151.8829 77.8290 0.0000 0.0000 0.0000
# 3 59.2225 77.8290 169.0594 0.0000 0.0000 0.0000
# 4 0.0000 0.0000 0.0000 38.2007 0.0000 0.0000
# 5 0.0000 0.0000 0.0000 0.0000 26.8271 0.0000
# 6 0.0000 0.0000 0.0000 0.0000 0.0000 42.3083
#
#
#
# Elastic Compliance Matrix: (Units=1/GPa)
#
#
# Indices 1 2 3 4 5 6 
#
# 1 0.009608 -0.002048 -0.002423 0.000000 0.000000 0.000000
# 2 -0.002048 0.009053 -0.003450 0.000000 0.000000 0.000000
# 3 -0.002423 -0.003450 0.008352 0.000000 0.000000 0.000000
# 4 0.000000 0.000000 0.000000 0.026178 0.000000 0.000000
# 5 0.000000 0.000000 0.000000 0.000000 0.037276 0.000000
# 6 0.000000 0.000000 0.000000 0.000000 0.000000 0.023636
#
#
# Mechanical properties :
#
#
# Convention : Reuss Voigt Hill
#
# Bulk Modulus (GPa) = 89.51655 92.12641 90.82148
# Shear Modulus (GPa) = 37.40607 38.93353 38.16980
#
# Velocity S-wave (km/s) = 4.35637 4.44442 4.40061
# Velocity P-wave (km/s) = 8.40952 8.54853 8.47931
#
# Compressibility (1/GPa) = 0.01117112
#
# Stress axis : x y z
#
# Youngs Moduli (GPa) = 104.08343 110.45953 119.72672
#
# Poissons Ratio (x) = 0.22617 0.29010
# Poissons Ratio (y) = 0.21311 0.41311
# Poissons Ratio (z) = 0.25220 0.38114
#
# Static dielectric constant tensor:
#      x y z
#    x 1.704170 0.000000 0.000000 
#    y 0.000000 1.707310 0.000000 
#    z 0.000000 0.000000 1.676870 
# 
# From -- ./inp_files/33306.got.cif
#   From: 2010.05.17/outbox.ucp.g08.bks.cvg/sg21_17_cif.got.tgz:33306.got - 2010.06.11 15:15:05.
