data_PCOD9325052
_publ_section_title
;
Structure prediction by ZEFSAII (Michael W. Deem and Ramdas Pophale) SiO2 
 PCOD9325052
Probable space group: C 2 2 2
;
_chemical_formula_sum "Si O2"
_cell_formula_units_Z 58
_cell_length_a 26.368840
_cell_length_b 8.588824
_cell_length_c 11.833257
_cell_angle_alpha 90.000000
_cell_angle_beta 90.000000
_cell_angle_gamma 90.000000
_cell_volume 2679.964401
_symmetry_space_group_name_H-M "C 2 2 2"
_symmetry_group_IT_number 21
_symmetry_cell_setting 'orthorhombic'
loop_
_space_group_symop_operation_xyz
x,y,z
-x,-y,z
x,-y,-z
-x,y,-z
1/2+x,1/2+y,z
1/2-x,1/2-y,z
1/2+x,1/2-y,-z
1/2-x,1/2+y,-z
loop_
_atom_site_type_symbol
_atom_site_label
_atom_site_fract_x
_atom_site_fract_y
_atom_site_fract_z
Si Si1 0.551215 0.930387 0.871246
Si Si2 0.339927 0.076697 0.188898
Si Si3 0.236142 0.931773 0.114267
Si Si4 0.500000 0.500000 0.500000
Si Si5 0.352677 0.577274 0.752388
Si Si6 0.206719 0.838410 0.548248
Si Si7 0.435440 0.340393 0.704211
Si Si8 0.646606 0.109372 0.403006
O O1 0.547030 0.755065 0.817728
O O2 0.500000 0.000000 0.816022
O O3 0.607524 0.991731 0.842020
O O4 0.548673 0.000000 0.000000
O O5 0.349274 0.260435 0.181360
O O6 0.288883 0.025438 0.126824
O O7 0.331068 0.012221 0.314496
O O8 0.250000 0.750000 0.110730
O O9 0.194214 0.968706 0.209174
O O10 0.212116 0.000000 0.000000
O O11 0.469015 0.394909 0.594406
O O12 0.341636 0.622892 0.623189
O O13 0.405681 0.489773 0.753190
O O14 0.250000 0.750000 0.618443
O O15 0.189924 0.720737 0.451542
O O16 0.225777 0.000000 0.500000
O O17 0.394598 0.222673 0.650227
O O18 0.623853 0.000000 0.500000
#
# Coordination Sequence:
#
# PCOD9325052 Si02
#       8
#     8   8   8   2   8   8   8   8
#     4  10  24  48  76 105 142 189 256 315 379 450
#     4  11  24  41  71 101 144 188 245 305 378 446
#     4  12  26  45  69 100 141 187 246 305 376 446
#     4  12  28  44  78 110 160 196 246 310 394 468
#     4  12  25  43  66  99 143 186 241 302 364 450
#     4  12  24  36  59  90 137 182 238 282 358 434
#     4  11  26  45  72 106 148 194 244 311 385 459
#     4  11  22  39  62  95 133 185 235 294 359 446
#
# _framework density 21.642078000000001
#
# number of rings (size 3 to 8) (size 9 to 14) (size 15 to 20)
#    0.000    0.690    2.759    5.379    3.862    2.207 
#    0.000    0.000    0.000    0.000    0.000    0.000 
#    0.000    0.000    0.000    0.000    0.000    0.000 
#
# Total GULP energy -161566.544435 kJ/mol
# GULP energy per Si atom -5571.260153 kJ/mol
# Density = 2.159282 g / cm^3
# Si number density = 21.642078 Si / 1000 Ang^3
#
#
#
# Elastic Constant Matrix: (Units=GPa)
#
#
# Indices 1 2 3 4 5 6 
#
# 1 79.7619 36.0282 21.4283 0.0000 0.0000 0.0000
# 2 36.0282 145.5441 39.2622 0.0000 0.0000 0.0000
# 3 21.4283 39.2622 82.6838 0.0000 0.0000 0.0000
# 4 0.0000 0.0000 0.0000 34.5893 0.0000 0.0000
# 5 0.0000 0.0000 0.0000 0.0000 26.3913 0.0000
# 6 0.0000 0.0000 0.0000 0.0000 0.0000 51.4710
#
#
#
# Elastic Compliance Matrix: (Units=1/GPa)
#
#
# Indices 1 2 3 4 5 6 
#
# 1 0.014505 -0.002955 -0.002356 0.000000 0.000000 0.000000
# 2 -0.002955 0.008482 -0.003262 0.000000 0.000000 0.000000
# 3 -0.002356 -0.003262 0.014254 0.000000 0.000000 0.000000
# 4 0.000000 0.000000 0.000000 0.028911 0.000000 0.000000
# 5 0.000000 0.000000 0.000000 0.000000 0.037891 0.000000
# 6 0.000000 0.000000 0.000000 0.000000 0.000000 0.019428
#
#
# Mechanical properties :
#
#
# Convention : Reuss Voigt Hill
#
# Bulk Modulus (GPa) = 49.76317 55.71412 52.73865
# Shear Modulus (GPa) = 33.94076 36.57507 35.25792
#
# Velocity S-wave (km/s) = 3.96444 4.11542 4.04064
# Velocity P-wave (km/s) = 6.63320 6.95568 6.79636
#
# Compressibility (1/GPa) = 0.02009518
#
# Stress axis : x y z
#
# Youngs Moduli (GPa) = 68.94164 117.89383 70.15706
#
# Poissons Ratio (x) = 0.34838 0.16528
# Poissons Ratio (y) = 0.20373 0.22885
# Poissons Ratio (z) = 0.16242 0.38456
#
# Static dielectric constant tensor:
#      x y z
#    x 1.831750 0.000000 0.000000 
#    y 0.000000 1.772270 0.000000 
#    z 0.000000 0.000000 1.307920 
# 
# From -- ./inp_files/27800.got.cif
#   From: 2010.05.17/outbox.cif.g08.bks.cpg/sg21_14_cif.got.tgz:27800.got - 2010.06.03 23:14:55.
