data_PCOD9325318
_publ_section_title
;
Structure prediction by ZEFSAII (Michael W. Deem and Ramdas Pophale) SiO2 
 PCOD9325318
Probable space group: C 2 2 2
;
_chemical_formula_sum "Si O2"
_cell_formula_units_Z 32
_cell_length_a 13.067258
_cell_length_b 8.354268
_cell_length_c 11.598875
_cell_angle_alpha 90.000000
_cell_angle_beta 90.000000
_cell_angle_gamma 90.000000
_cell_volume 1266.218741
_symmetry_space_group_name_H-M "C 2 2 2"
_symmetry_group_IT_number 21
_symmetry_cell_setting 'orthorhombic'
loop_
_space_group_symop_operation_xyz
x,y,z
-x,-y,z
x,-y,-z
-x,y,-z
1/2+x,1/2+y,z
1/2-x,1/2-y,z
1/2+x,1/2-y,-z
1/2-x,1/2+y,-z
loop_
_atom_site_type_symbol
_atom_site_label
_atom_site_fract_x
_atom_site_fract_y
_atom_site_fract_z
Si Si1 0.377320 0.177415 0.989545
Si Si2 0.414921 0.611325 0.803181
Si Si3 0.074213 0.643637 0.253758
Si Si4 0.751777 0.054131 0.626722
O O1 0.363256 0.213069 0.854996
O O2 0.500000 0.171411 0.000000
O O3 0.355571 0.292629 0.096856
O O4 0.332467 0.000000 0.000000
O O5 0.500000 0.500000 0.861101
O O6 0.486474 0.724368 0.720215
O O7 0.335931 0.519471 0.723224
O O8 0.150741 0.552510 0.341275
O O9 0.000000 0.500000 0.211514
O O10 0.750000 0.250000 0.629456
O O11 0.783448 0.000000 0.500000
#
# Coordination Sequence:
#
# PCOD9325318 Si02
#       4
#     8   8   8   8
#     4   9  15  36  73 101 143 196 234 298 384 474
#     4  11  25  45  77 115 156 197 258 326 400 469
#     4  11  21  45  79 106 149 205 248 313 402 464
#     4  12  28  50  76 112 155 206 277 325 375 479
#
# _framework density 25.272096999999999
#
# number of rings (size 3 to 8) (size 9 to 14) (size 15 to 20)
#    0.000    1.250    7.500    0.000    3.500    5.500 
#    0.000    2.500   27.500    0.000    0.000    0.000 
#    0.000    0.000    0.000    0.000    0.000    0.000 
#
# Total GULP energy -89194.037889 kJ/mol
# GULP energy per Si atom -5574.627368 kJ/mol
# Density = 2.521458 g / cm^3
# Si number density = 25.272097 Si / 1000 Ang^3
#
#
#
# Elastic Constant Matrix: (Units=GPa)
#
#
# Indices 1 2 3 4 5 6 
#
# 1 114.5891 47.1354 30.8131 0.0000 0.0000 0.0000
# 2 47.1354 104.7598 44.4011 0.0000 0.0000 0.0000
# 3 30.8131 44.4011 142.0751 0.0000 0.0000 0.0000
# 4 0.0000 0.0000 0.0000 53.0901 0.0000 0.0000
# 5 0.0000 0.0000 0.0000 0.0000 26.3913 0.0000
# 6 0.0000 0.0000 0.0000 0.0000 0.0000 43.3685
#
#
#
# Elastic Compliance Matrix: (Units=1/GPa)
#
#
# Indices 1 2 3 4 5 6 
#
# 1 0.010819 -0.004465 -0.000951 0.000000 0.000000 0.000000
# 2 -0.004465 0.012846 -0.003046 0.000000 0.000000 0.000000
# 3 -0.000951 -0.003046 0.008197 0.000000 0.000000 0.000000
# 4 0.000000 0.000000 0.000000 0.018836 0.000000 0.000000
# 5 0.000000 0.000000 0.000000 0.000000 0.037891 0.000000
# 6 0.000000 0.000000 0.000000 0.000000 0.000000 0.023058
#
#
# Mechanical properties :
#
#
# Convention : Reuss Voigt Hill
#
# Bulk Modulus (GPa) = 66.94625 67.34704 67.14665
# Shear Modulus (GPa) = 37.43908 40.50828 38.97368
#
# Velocity S-wave (km/s) = 3.85312 4.00795 3.93130
# Velocity P-wave (km/s) = 6.80758 6.93721 6.87270
#
# Compressibility (1/GPa) = 0.01493736
#
# Stress axis : x y z
#
# Youngs Moduli (GPa) = 92.42857 77.84754 121.99905
#
# Poissons Ratio (x) = 0.34758 0.11603
# Poissons Ratio (y) = 0.41268 0.37163
# Poissons Ratio (z) = 0.08791 0.23714
#
# Static dielectric constant tensor:
#      x y z
#    x 2.041280 0.000000 0.000000 
#    y 0.000000 2.193370 0.000000 
#    z 0.000000 0.000000 1.942900 
# 
# From -- ./inp_files/24701.got.cif
#   From: 2010.05.17/outbox.cif.g08.bks.cpg/sg21_13_cif.got.tgz:24701.got - 2010.06.03 23:14:55.
