data_PCOD9325824
_publ_section_title
;
Structure prediction by ZEFSAII (Michael W. Deem and Ramdas Pophale) SiO2 
 PCOD9325824
Probable space group: C 2 2 2
;
_chemical_formula_sum "Si O2"
_cell_formula_units_Z 14
_cell_length_a 21.621031
_cell_length_b 5.070993
_cell_length_c 5.206466
_cell_angle_alpha 90.000000
_cell_angle_beta 90.000000
_cell_angle_gamma 90.000000
_cell_volume 570.837437
_symmetry_space_group_name_H-M "C 2 2 2"
_symmetry_group_IT_number 21
_symmetry_cell_setting 'orthorhombic'
loop_
_space_group_symop_operation_xyz
x,y,z
-x,-y,z
x,-y,-z
-x,y,-z
1/2+x,1/2+y,z
1/2-x,1/2-y,z
1/2+x,1/2-y,-z
1/2-x,1/2+y,-z
loop_
_atom_site_type_symbol
_atom_site_label
_atom_site_fract_x
_atom_site_fract_y
_atom_site_fract_z
Si Si1 0.708639 0.500000 0.500000
Si Si2 0.392169 0.822848 0.755961
Si Si3 0.500000 0.500000 0.000000
O O1 0.750000 0.750000 0.581344
O O2 0.662124 0.386478 0.711845
O O3 0.397176 0.000000 0.500000
O O4 0.455782 0.676426 0.822927
O O5 0.377057 0.000000 0.000000
#
# Coordination Sequence:
#
# PCOD9325824 Si02
#       3
#     4   8   2
#     4  12  28  59  86 125 172 222 284 346 416 508
#     4  12  29  56  83 126 169 223 278 351 420 496
#     4  12  30  50  88 124 172 212 292 338 428 496
#
# _framework density 24.525369999999999
#
# number of rings (size 3 to 8) (size 9 to 14) (size 15 to 20)
#    0.000    0.000    2.857    4.286    0.000   17.143 
#   15.429    0.000    0.000    0.000    0.000    0.000 
#    0.000    0.000    0.000    0.000    0.000    0.000 
#
# Total GULP energy -39317.221705 kJ/mol
# GULP energy per Si atom -5616.745958 kJ/mol
# Density = 2.446955 g / cm^3
# Si number density = 24.525370 Si / 1000 Ang^3
#
#
#
# Elastic Constant Matrix: (Units=GPa)
#
#
# Indices 1 2 3 4 5 6 
#
# 1 211.6782 128.4769 85.6516 0.0000 0.0000 0.0000
# 2 128.4769 218.9866 117.2386 0.0000 0.0000 0.0000
# 3 85.6516 117.2386 209.7714 0.0000 0.0000 0.0000
# 4 0.0000 0.0000 0.0000 32.5989 0.0000 0.0000
# 5 0.0000 0.0000 0.0000 0.0000 55.3932 0.0000
# 6 0.0000 0.0000 0.0000 0.0000 0.0000 61.6209
#
#
#
# Elastic Compliance Matrix: (Units=1/GPa)
#
#
# Indices 1 2 3 4 5 6 
#
# 1 0.007442 -0.003909 -0.000854 0.000000 0.000000 0.000000
# 2 -0.003909 0.008569 -0.003193 0.000000 0.000000 0.000000
# 3 -0.000854 -0.003193 0.006900 0.000000 0.000000 0.000000
# 4 0.000000 0.000000 0.000000 0.030676 0.000000 0.000000
# 5 0.000000 0.000000 0.000000 0.000000 0.018053 0.000000
# 6 0.000000 0.000000 0.000000 0.000000 0.000000 0.016228
#
#
# Mechanical properties :
#
#
# Convention : Reuss Voigt Hill
#
# Bulk Modulus (GPa) = 142.86703 144.79673 143.83188
# Shear Modulus (GPa) = 47.11860 50.52718 48.82289
#
# Velocity S-wave (km/s) = 4.38793 4.54387 4.46658
# Velocity P-wave (km/s) = 9.16794 9.31111 9.23980
#
# Compressibility (1/GPa) = 0.00699952
#
# Stress axis : x y z
#
# Youngs Moduli (GPa) = 134.36648 116.69298 144.91774
#
# Poissons Ratio (x) = 0.45617 0.12376
# Poissons Ratio (y) = 0.52525 0.46276
# Poissons Ratio (z) = 0.11475 0.37263
#
# Static dielectric constant tensor:
#      x y z
#    x 1.926090 0.000000 0.000000 
#    y 0.000000 1.964310 0.000000 
#    z 0.000000 0.000000 1.896910 
# 
# From -- ./inp_files/330.got.cif
#   From: 2010.05.17/outbox.cif.g08.bks.cpg/sg21_1_cif.got.tgz:330.got - 2010.06.03 23:14:55.
