data_PCOD9325549
_publ_section_title
;
Structure prediction by ZEFSAII (Michael W. Deem and Ramdas Pophale) SiO2 
 PCOD9325549
Probable space group: C 2 2 2
;
_chemical_formula_sum "Si O2"
_cell_formula_units_Z 34
_cell_length_a 7.650182
_cell_length_b 14.531471
_cell_length_c 12.724928
_cell_angle_alpha 90.000000
_cell_angle_beta 90.000000
_cell_angle_gamma 90.000000
_cell_volume 1414.609859
_symmetry_space_group_name_H-M "C 2 2 2"
_symmetry_group_IT_number 21
_symmetry_cell_setting 'orthorhombic'
loop_
_space_group_symop_operation_xyz
x,y,z
-x,-y,z
x,-y,-z
-x,y,-z
1/2+x,1/2+y,z
1/2-x,1/2-y,z
1/2+x,1/2-y,-z
1/2-x,1/2+y,-z
loop_
_atom_site_type_symbol
_atom_site_label
_atom_site_fract_x
_atom_site_fract_y
_atom_site_fract_z
Si Si1 0.312119 0.029823 0.201491
Si Si2 0.000000 0.000000 0.500000
Si Si3 0.788388 0.651097 0.017026
Si Si4 0.354715 0.341340 0.781966
Si Si5 0.308497 0.652394 0.639227
O O1 0.227063 0.073340 0.097765
O O2 0.341533 0.106447 0.290087
O O3 0.500000 0.000000 0.163304
O O4 0.214101 0.942571 0.249682
O O5 0.120849 0.927098 0.563104
O O6 0.750000 0.750000 0.067894
O O7 0.681508 0.652749 0.907875
O O8 0.000000 0.646007 0.000000
O O9 0.250000 0.250000 0.748819
O O10 0.540315 0.331682 0.726361
O O11 0.250000 0.750000 0.592029
#
# Coordination Sequence:
#
# PCOD9325549 Si02
#       5
#     8   2   8   8   8
#     4  12  23  44  74 111 154 203 255 302 371 453
#     4  12  28  60  78 120 144 192 266 328 420 480
#     4  11  25  40  67 109 155 207 255 302 359 450
#     4  11  24  44  74 109 155 202 249 306 373 458
#     4  12  28  53  82 110 151 196 252 331 395 464
#
# _framework density 24.034896
#
# number of rings (size 3 to 8) (size 9 to 14) (size 15 to 20)
#    0.000    0.471    4.706    2.824    9.882    0.941 
#    4.235    2.353    0.000    0.000    0.000    0.000 
#    0.000    0.000    0.000    0.000    0.000    0.000 
#
# Total GULP energy -94981.599295 kJ/mol
# GULP energy per Si atom -5587.152900 kJ/mol
# Density = 2.398019 g / cm^3
# Si number density = 24.034896 Si / 1000 Ang^3
#
#
#
# Elastic Constant Matrix: (Units=GPa)
#
#
# Indices 1 2 3 4 5 6 
#
# 1 72.8407 34.7053 26.5233 0.0000 0.0000 0.0000
# 2 34.7053 200.6010 52.7091 0.0000 0.0000 0.0000
# 3 26.5233 52.7091 77.9134 0.0000 0.0000 0.0000
# 4 0.0000 0.0000 0.0000 7.7358 0.0000 0.0000
# 5 0.0000 0.0000 0.0000 0.0000 16.4022 0.0000
# 6 0.0000 0.0000 0.0000 0.0000 0.0000 43.3102
#
#
#
# Elastic Compliance Matrix: (Units=1/GPa)
#
#
# Indices 1 2 3 4 5 6 
#
# 1 0.016101 -0.001636 -0.004374 0.000000 0.000000 0.000000
# 2 -0.001636 0.006229 -0.003657 0.000000 0.000000 0.000000
# 3 -0.004374 -0.003657 0.016798 0.000000 0.000000 0.000000
# 4 0.000000 0.000000 0.000000 0.129269 0.000000 0.000000
# 5 0.000000 0.000000 0.000000 0.000000 0.060967 0.000000
# 6 0.000000 0.000000 0.000000 0.000000 0.000000 0.023089
#
#
# Mechanical properties :
#
#
# Convention : Reuss Voigt Hill
#
# Bulk Modulus (GPa) = 50.52293 64.35896 57.44095
# Shear Modulus (GPa) = 17.96067 29.31747 23.63907
#
# Velocity S-wave (km/s) = 2.73660 3.49633 3.13953
# Velocity P-wave (km/s) = 5.57239 6.56769 6.09041
#
# Compressibility (1/GPa) = 0.01979299
#
# Stress axis : x y z
#
# Youngs Moduli (GPa) = 62.10821 160.53973 59.53167
#
# Poissons Ratio (x) = 0.26268 0.26040
# Poissons Ratio (y) = 0.10162 0.21770
# Poissons Ratio (z) = 0.27167 0.58709
#
# Static dielectric constant tensor:
#      x y z
#    x 1.960830 0.000000 0.000000 
#    y 0.000000 2.064740 0.000000 
#    z 0.000000 0.000000 1.938590 
# 
# From -- ./inp_files/21984.got.cif
#   From: 2010.05.17/outbox.cif.g08.bks.cpg/sg21_11_cif.got.tgz:21984.got - 2010.06.03 23:14:55.
