data_PCOD9325077
_publ_section_title
;
Structure prediction by ZEFSAII (Michael W. Deem and Ramdas Pophale) SiO2 
 PCOD9325077
Probable space group: C 2 2 2
;
_chemical_formula_sum "Si O2"
_cell_formula_units_Z 48
_cell_length_a 27.758548
_cell_length_b 13.460692
_cell_length_c 5.490734
_cell_angle_alpha 90.000000
_cell_angle_beta 90.000000
_cell_angle_gamma 90.000000
_cell_volume 2051.608723
_symmetry_space_group_name_H-M "C 2 2 2"
_symmetry_group_IT_number 21
_symmetry_cell_setting 'orthorhombic'
loop_
_space_group_symop_operation_xyz
x,y,z
-x,-y,z
x,-y,-z
-x,y,-z
1/2+x,1/2+y,z
1/2-x,1/2-y,z
1/2+x,1/2-y,-z
1/2-x,1/2+y,-z
loop_
_atom_site_type_symbol
_atom_site_label
_atom_site_fract_x
_atom_site_fract_y
_atom_site_fract_z
Si Si1 0.382479 0.807347 0.057772
Si Si2 0.845694 0.120381 0.776650
Si Si3 0.697365 0.754402 0.575769
Si Si4 0.924330 0.000000 0.000000
Si Si5 0.761865 0.000000 0.000000
Si Si6 0.826703 0.562155 0.281570
Si Si7 0.029009 0.803464 0.239026
O O1 0.337628 0.800852 0.233739
O O2 0.427121 0.776051 0.230857
O O3 0.375445 0.714893 0.874753
O O4 0.369818 0.904646 0.900113
O O5 0.823523 0.150187 0.518702
O O6 0.799688 0.088260 0.940790
O O7 0.887026 0.038994 0.795006
O O8 0.750000 0.750000 0.677934
O O9 0.696999 0.831875 0.352420
O O10 0.953175 0.086965 0.143090
O O11 0.721076 0.997916 0.789916
O O12 0.849289 0.500000 0.500000
O O13 0.000000 0.807595 0.500000
O O14 0.000000 0.768219 0.000000
#
# Coordination Sequence:
#
# PCOD9325077 Si02
#       7
#     8   8   8   4   4   8   8
#     4  10  25  42  66  95 142 186 243 302 371 449
#     4   9  21  39  60  90 145 193 241 290 359 424
#     4  11  22  39  64  93 141 194 237 290 357 436
#     4   9  21  44  63 104 146 192 245 318 356 440
#     4  11  20  36  57 100 134 188 249 282 351 424
#     4  11  24  39  63  95 138 183 246 306 359 429
#     4  11  26  48  76 106 143 195 253 311 385 454
#
# _framework density 23.396273999999998
#
# number of rings (size 3 to 8) (size 9 to 14) (size 15 to 20)
#    0.000    1.667    1.667    1.250   11.667    1.333 
#    3.000    1.667    0.000    0.000    0.000    8.750 
#    0.000    0.000    0.000    0.000    0.000    0.000 
#
# Total GULP energy -133655.193307 kJ/mol
# GULP energy per Si atom -5568.966388 kJ/mol
# Density = 2.334302 g / cm^3
# Si number density = 23.396274 Si / 1000 Ang^3
#
#
#
# Elastic Constant Matrix: (Units=GPa)
#
#
# Indices 1 2 3 4 5 6 
#
# 1 129.5290 51.8833 66.7397 0.0000 0.0000 0.0000
# 2 51.8833 84.5167 37.5697 0.0000 0.0000 0.0000
# 3 66.7397 37.5697 122.8406 0.0000 0.0000 0.0000
# 4 0.0000 0.0000 0.0000 19.2329 0.0000 0.0000
# 5 0.0000 0.0000 0.0000 0.0000 37.2153 0.0000
# 6 0.0000 0.0000 0.0000 0.0000 0.0000 33.4109
#
#
#
# Elastic Compliance Matrix: (Units=1/GPa)
#
#
# Indices 1 2 3 4 5 6 
#
# 1 0.012546 -0.005407 -0.005163 0.000000 0.000000 0.000000
# 2 -0.005407 0.016024 -0.001963 0.000000 0.000000 0.000000
# 3 -0.005163 -0.001963 0.011546 0.000000 0.000000 0.000000
# 4 0.000000 0.000000 0.000000 0.051994 0.000000 0.000000
# 5 0.000000 0.000000 0.000000 0.000000 0.026871 0.000000
# 6 0.000000 0.000000 0.000000 0.000000 0.000000 0.029930
#
#
# Mechanical properties :
#
#
# Convention : Reuss Voigt Hill
#
# Bulk Modulus (GPa) = 66.44339 72.14131 69.29235
# Shear Modulus (GPa) = 27.93400 30.01807 28.97604
#
# Velocity S-wave (km/s) = 3.45911 3.58582 3.52304
# Velocity P-wave (km/s) = 6.66443 6.93150 6.79928
#
# Compressibility (1/GPa) = 0.01505041
#
# Stress axis : x y z
#
# Youngs Moduli (GPa) = 79.70607 62.40702 86.61040
#
# Poissons Ratio (x) = 0.33743 0.44714
# Poissons Ratio (y) = 0.43096 0.17003
# Poissons Ratio (z) = 0.41150 0.12252
#
# Static dielectric constant tensor:
#      x y z
#    x 1.893690 0.000000 0.000000 
#    y 0.000000 1.908960 0.000000 
#    z 0.000000 0.000000 2.117070 
# 
# From -- ./inp_files/7353.got.cif
#   From: 2010.05.17/outbox.cif.g08.bks.cpg/sg21_4_cif.got.tgz:7353.got - 2010.06.03 23:14:55.
