data_PCOD9325086
_publ_section_title
;
Structure prediction by ZEFSAII (Michael W. Deem and Ramdas Pophale) SiO2 
 PCOD9325086
Probable space group: C 2 2 2
;
_chemical_formula_sum "Si O2"
_cell_formula_units_Z 56
_cell_length_a 7.867306
_cell_length_b 22.653003
_cell_length_c 14.492210
_cell_angle_alpha 90.000000
_cell_angle_beta 90.000000
_cell_angle_gamma 90.000000
_cell_volume 2582.774224
_symmetry_space_group_name_H-M "C 2 2 2"
_symmetry_group_IT_number 21
_symmetry_cell_setting 'orthorhombic'
loop_
_space_group_symop_operation_xyz
x,y,z
-x,-y,z
x,-y,-z
-x,y,-z
1/2+x,1/2+y,z
1/2-x,1/2-y,z
1/2+x,1/2-y,-z
1/2-x,1/2+y,-z
loop_
_atom_site_type_symbol
_atom_site_label
_atom_site_fract_x
_atom_site_fract_y
_atom_site_fract_z
Si Si1 0.510233 0.682589 0.753546
Si Si2 0.669661 0.312402 0.444689
Si Si3 0.803228 0.436148 0.524858
Si Si4 0.190160 0.400139 0.265170
Si Si5 0.204490 0.994329 0.888880
Si Si6 0.060093 0.727822 0.099140
Si Si7 0.343505 0.885378 0.182212
O O1 0.611577 0.696648 0.660529
O O2 0.331239 0.651089 0.737028
O O3 0.471274 0.739342 0.816539
O O4 0.653469 0.640247 0.800573
O O5 0.500000 0.317712 0.500000
O O6 0.750000 0.250000 0.474825
O O7 0.753298 0.375907 0.469466
O O8 0.721551 0.500000 0.500000
O O9 0.780567 0.429613 0.635106
O O10 0.000000 0.441069 0.500000
O O11 0.231884 0.439082 0.173252
O O12 0.989228 0.383696 0.260987
O O13 0.309694 0.048723 0.847968
O O14 0.000000 0.000000 0.874083
O O15 0.229697 0.000000 0.000000
O O16 0.250000 0.750000 0.109807
O O17 0.068590 0.657735 0.107830
O O18 0.000000 0.747708 0.000000
#
# Coordination Sequence:
#
# PCOD9325086 Si02
#       7
#     8   8   8   8   8   8   8
#     4  11  25  49  69 108 144 191 243 306 373 439
#     4  12  25  47  75 104 147 193 252 311 381 455
#     4  11  27  47  74 111 149 194 250 316 383 453
#     4  12  26  45  77 108 141 197 245 304 373 452
#     4  11  26  46  72 106 148 197 246 305 367 440
#     4  10  25  44  70 105 146 189 240 304 366 443
#     4  11  25  44  72 102 148 186 245 301 363 438
#
# _framework density 21.682110999999999
#
# number of rings (size 3 to 8) (size 9 to 14) (size 15 to 20)
#    0.000    0.857    2.857    3.000   10.000    3.143 
#    0.000    0.000    0.000    0.000    0.000    0.000 
#    0.000    0.000    0.000    0.000    0.000    0.000 
#
# Total GULP energy -156042.959185 kJ/mol
# GULP energy per Si atom -5572.962828 kJ/mol
# Density = 2.163276 g / cm^3
# Si number density = 21.682111 Si / 1000 Ang^3
#
#
#
# Elastic Constant Matrix: (Units=GPa)
#
#
# Indices 1 2 3 4 5 6 
#
# 1 95.5527 45.6608 7.9079 0.0000 0.0000 0.0000
# 2 45.6608 112.8141 14.3345 0.0000 0.0000 0.0000
# 3 7.9079 14.3345 85.3480 0.0000 0.0000 0.0000
# 4 0.0000 0.0000 0.0000 43.3375 0.0000 0.0000
# 5 0.0000 0.0000 0.0000 0.0000 44.4591 0.0000
# 6 0.0000 0.0000 0.0000 0.0000 0.0000 43.7689
#
#
#
# Elastic Compliance Matrix: (Units=1/GPa)
#
#
# Indices 1 2 3 4 5 6 
#
# 1 0.012984 -0.005214 -0.000327 0.000000 0.000000 0.000000
# 2 -0.005214 0.011151 -0.001390 0.000000 0.000000 0.000000
# 3 -0.000327 -0.001390 0.011980 0.000000 0.000000 0.000000
# 4 0.000000 0.000000 0.000000 0.023075 0.000000 0.000000
# 5 0.000000 0.000000 0.000000 0.000000 0.022493 0.000000
# 6 0.000000 0.000000 0.000000 0.000000 0.000000 0.022847
#
#
# Mechanical properties :
#
#
# Convention : Reuss Voigt Hill
#
# Bulk Modulus (GPa) = 44.93608 47.72460 46.33034
# Shear Modulus (GPa) = 39.74273 41.36719 40.55496
#
# Velocity S-wave (km/s) = 4.28597 4.37268 4.32954
# Velocity P-wave (km/s) = 6.72775 6.89584 6.81232
#
# Compressibility (1/GPa) = 0.02225383
#
# Stress axis : x y z
#
# Youngs Moduli (GPa) = 77.01860 89.67904 83.46901
#
# Poissons Ratio (x) = 0.46755 0.02733
# Poissons Ratio (y) = 0.40154 0.11600
# Poissons Ratio (z) = 0.02522 0.12463
#
# Static dielectric constant tensor:
#      x y z
#    x 1.771150 0.000000 0.000000 
#    y 0.000000 1.252840 0.000000 
#    z 0.000000 0.000000 1.662320 
# 
# From -- ./inp_files/30775.got.cif
#   From: 2010.05.17/outbox.cif.g08.bks.cpg/sg21_16_cif.got.tgz:30775.got - 2010.06.03 23:14:55.
