data_PCOD9325975
_publ_section_title
;
Structure prediction by ZEFSAII (Michael W. Deem and Ramdas Pophale) SiO2 
 PCOD9325975
Probable space group: F 2 2 2
;
_chemical_formula_sum "Si O2"
_cell_formula_units_Z 68
_cell_length_a 31.204789
_cell_length_b 18.877082
_cell_length_c 5.579811
_cell_angle_alpha 90.000000
_cell_angle_beta 90.000000
_cell_angle_gamma 90.000000
_cell_volume 3286.817581
_symmetry_space_group_name_H-M "F 2 2 2"
_symmetry_group_IT_number 22
_symmetry_cell_setting 'orthorhombic'
loop_
_space_group_symop_operation_xyz
x,y,z
-x,-y,z
x,-y,-z
-x,y,-z
x,1/2+y,1/2+z
-x,1/2-y,1/2+z
x,1/2-y,1/2-z
-x,1/2+y,1/2-z
1/2+x,y,1/2+z
1/2-x,-y,1/2+z
1/2+x,-y,1/2-z
1/2-x,y,1/2-z
1/2+x,1/2+y,z
1/2-x,1/2-y,z
1/2+x,1/2-y,-z
1/2-x,1/2+y,-z
loop_
_atom_site_type_symbol
_atom_site_label
_atom_site_fract_x
_atom_site_fract_y
_atom_site_fract_z
Si Si1 0.931760 0.568934 0.660764
Si Si2 0.198765 0.419749 0.256009
Si Si3 0.164929 0.582677 0.237791
Si Si4 0.050550 0.220507 0.002253
Si Si5 0.000000 0.000000 0.500000
O O1 0.925401 0.500000 0.500000
O O2 0.886213 0.584172 0.780774
O O3 0.944694 0.636289 0.504896
O O4 0.969361 0.549669 0.842979
O O5 0.250000 0.423173 0.250000
O O6 0.180673 0.500493 0.247348
O O7 0.180902 0.387831 0.505161
O O8 0.183838 0.385307 0.006087
O O9 0.069177 0.250000 0.250000
O O10 0.068604 0.250000 0.750000
O O11 0.000000 0.239696 0.000000
#
# Coordination Sequence:
#
# PCOD9325975 Si02
#       5
#    16  16  16  16   4
#     4  12  25  40  61  92 128 166 215 263 329 376
#     4  10  17  31  50  78 121 165 189 233 314 384
#     4  10  19  31  50  80 115 158 188 252 296 368
#     4  10  24  43  63  83 115 164 222 264 307 366
#     4  12  26  36  64  94 124 172 220 268 326 396
#
# _framework density 20.688707000000001
#
# number of rings (size 3 to 8) (size 9 to 14) (size 15 to 20)
#    0.000    1.412    2.353    6.706    8.235    0.000 
#    0.000    0.000    0.000    0.000    0.000    0.000 
#    0.000   22.588    0.000    0.000    0.000    0.000 
#
# Total GULP energy -94925.407079 kJ/mol
# GULP energy per Si atom -5583.847475 kJ/mol
# Density = 2.064162 g / cm^3
# Si number density = 20.688707 Si / 1000 Ang^3
#
#
#
# Elastic Constant Matrix: (Units=GPa)
#
#
# Indices 1 2 3 4 5 6 
#
# 1 138.7164 -11.9724 57.0112 0.0001 -0.0004 0.0001
# 2 -11.9724 53.3615 39.6905 0.0001 -0.0002 0.0000
# 3 57.0112 39.6905 200.2678 0.0003 -0.0016 0.0003
# 4 0.0001 0.0001 0.0003 22.2916 -0.0009 0.0000
# 5 -0.0004 -0.0002 -0.0016 -0.0009 -21.1180 -0.0004
# 6 0.0001 0.0000 0.0003 0.0000 -0.0004 6.1645
#
#
#
# Elastic Compliance Matrix: (Units=1/GPa)
#
#
# Indices 1 2 3 4 5 6 
#
# 1 0.009043 0.004626 -0.003491 0.000000 0.000000 0.000000
# 2 0.004626 0.024346 -0.006142 0.000000 0.000000 0.000000
# 3 -0.003491 -0.006142 0.007204 0.000000 0.000000 0.000000
# 4 0.000000 0.000000 0.000000 0.044860 -0.000002 0.000000
# 5 0.000000 0.000000 0.000000 -0.000002 -0.047353 -0.000003
# 6 0.000000 0.000000 0.000000 0.000000 -0.000003 0.162220
#
#
# Mechanical properties :
#
#
# Convention : Reuss Voigt Hill
#
# Bulk Modulus (GPa) = 32.70235 62.42271 47.56253
# Shear Modulus (GPa) = 22.67286 21.97538 22.32412
#
# Velocity S-wave (km/s) = 3.31404 3.26266 3.28845
# Velocity P-wave (km/s) = 5.52132 6.66567 6.12030
#
# Compressibility (1/GPa) = 0.03057884
#
# Stress axis : x y z
#
# Youngs Moduli (GPa) = 110.58338 41.07405 138.80480
#
# Poissons Ratio (x) = -0.18999 0.48457
# Poissons Ratio (y) = -0.51151 0.85252
# Poissons Ratio (z) = 0.38605 0.25227
#
# Static dielectric constant tensor:
#      x y z
#    x 1.786540 0.000000 0.000000 
#    y 0.000000 1.710950 0.000000 
#    z 0.000000 0.000000 1.833530 
# 
# From -- ./inp_files/3790.got.cif
#   From: 2010.05.17/outbox.cif.g08.bks.cpg/sg22_2_cif.got.tgz:3790.got - 2010.06.03 23:40:54.
