data_PCOD9325392
_publ_section_title
;
Structure prediction by ZEFSAII (Michael W. Deem and Ramdas Pophale) SiO2 
 PCOD9325392
Probable space group: C 2 2 2
;
_chemical_formula_sum "Si O2"
_cell_formula_units_Z 58
_cell_length_a 11.616581
_cell_length_b 8.738695
_cell_length_c 25.628963
_cell_angle_alpha 90.000000
_cell_angle_beta 90.000000
_cell_angle_gamma 90.000000
_cell_volume 2601.692356
_symmetry_space_group_name_H-M "C 2 2 2"
_symmetry_group_IT_number 21
_symmetry_cell_setting 'orthorhombic'
loop_
_space_group_symop_operation_xyz
x,y,z
-x,-y,z
x,-y,-z
-x,y,-z
1/2+x,1/2+y,z
1/2-x,1/2-y,z
1/2+x,1/2-y,-z
1/2-x,1/2+y,-z
loop_
_atom_site_type_symbol
_atom_site_label
_atom_site_fract_x
_atom_site_fract_y
_atom_site_fract_z
Si Si1 0.176356 0.541464 0.173056
Si Si2 0.431958 0.638271 0.152767
Si Si3 0.789402 0.582018 0.714804
Si Si4 0.286922 0.103589 0.542062
Si Si5 0.382586 0.199843 0.087629
Si Si6 0.041412 0.333034 0.627794
Si Si7 0.334135 0.395948 0.375768
Si Si8 0.000000 0.500000 0.000000
O O1 0.301053 0.577391 0.146722
O O2 0.098437 0.694621 0.176117
O O3 0.195092 0.487476 0.232474
O O4 0.121950 0.415509 0.136434
O O5 0.500000 0.500000 0.182137
O O6 0.519626 0.676158 0.104712
O O7 0.750000 0.750000 0.732035
O O8 0.904615 0.623516 0.683331
O O9 0.702882 0.501563 0.673714
O O10 0.250000 0.250000 0.508687
O O11 0.358836 0.189667 0.586391
O O12 0.351246 0.000000 0.500000
O O13 0.196450 0.994408 0.572651
O O14 0.250000 0.250000 0.080201
O O15 0.424750 0.107777 0.037327
O O16 0.000000 0.500000 0.609034
O O17 0.957266 0.188330 0.627832
O O18 0.250000 0.250000 0.374171
#
# Coordination Sequence:
#
# PCOD9325392 Si02
#       8
#     8   8   8   8   8   8   8   2
#     4  11  24  46  71 105 150 184 243 295 348 433
#     4  11  22  43  73 103 143 188 232 297 357 418
#     4  11  24  42  65 105 138 181 228 283 343 410
#     4  11  25  45  70 101 133 176 232 294 355 424
#     4  12  26  48  74 105 142 191 242 297 367 428
#     4  11  23  43  69  95 138 182 224 286 349 417
#     4  11  22  45  65  96 140 179 229 279 346 418
#     4  12  28  48  70 102 144 192 238 308 364 424
#
# _framework density 22.293182999999999
#
# number of rings (size 3 to 8) (size 9 to 14) (size 15 to 20)
#    0.000    0.828    6.897    2.069    0.000    6.345 
#    0.000    0.690    0.000    0.000    0.000    0.000 
#    0.000    0.000    0.000    0.000    0.000    0.000 
#
# Total GULP energy -161570.309086 kJ/mol
# GULP energy per Si atom -5571.389968 kJ/mol
# Density = 2.224244 g / cm^3
# Si number density = 22.293183 Si / 1000 Ang^3
#
#
#
# Elastic Constant Matrix: (Units=GPa)
#
#
# Indices 1 2 3 4 5 6 
#
# 1 149.4264 57.6786 54.8353 0.0000 0.0000 0.0000
# 2 57.6786 115.2556 51.4141 0.0000 0.0000 0.0000
# 3 54.8353 51.4141 129.3371 0.0000 0.0000 0.0000
# 4 0.0000 0.0000 0.0000 77.9837 0.0000 0.0000
# 5 0.0000 0.0000 0.0000 0.0000 -7.6292 0.0000
# 6 0.0000 0.0000 0.0000 0.0000 0.0000 58.0565
#
#
#
# Elastic Compliance Matrix: (Units=1/GPa)
#
#
# Indices 1 2 3 4 5 6 
#
# 1 0.008881 -0.003361 -0.002429 0.000000 0.000000 0.000000
# 2 -0.003361 0.011818 -0.003273 0.000000 0.000000 0.000000
# 3 -0.002429 -0.003273 0.010063 0.000000 0.000000 0.000000
# 4 0.000000 0.000000 0.000000 0.012823 0.000000 0.000000
# 5 0.000000 0.000000 0.000000 0.000000 -0.131075 0.000000
# 6 0.000000 0.000000 0.000000 0.000000 0.000000 0.017225
#
#
# Mechanical properties :
#
#
# Convention : Reuss Voigt Hill
#
# Bulk Modulus (GPa) = 79.14069 80.20833 79.67451
# Shear Modulus (GPa) = -104.32503 41.02161 -31.65171
#
# Velocity S-wave (km/s) = -6.84824 4.29429 -3.77210
# Velocity P-wave (km/s) = 5.19174 7.78748 4.10431
#
# Compressibility (1/GPa) = 0.01263573
#
# Stress axis : x y z
#
# Youngs Moduli (GPa) = 112.60005 84.61433 99.37536
#
# Poissons Ratio (x) = 0.28436 0.24142
# Poissons Ratio (y) = 0.37842 0.32527
# Poissons Ratio (z) = 0.27354 0.27696
#
# Static dielectric constant tensor:
#      x y z
#    x 1.565540 0.000000 0.000000 
#    y 0.000000 1.595890 0.000000 
#    z 0.000000 0.000000 1.782600 
# 
# From -- ./inp_files/39268.got.cif
#   From: 2010.05.17/outbox.cif.g08.bks.cpg/sg21_20_cif.got.tgz:39268.got - 2010.06.03 23:14:55.
