data_PCOD9325959
_publ_section_title
;
Structure prediction by ZEFSAII (Michael W. Deem and Ramdas Pophale) SiO2 
 PCOD9325959
Probable space group: F 2 2 2
;
_chemical_formula_sum "Si O2"
_cell_formula_units_Z 96
_cell_length_a 8.809815
_cell_length_b 21.300734
_cell_length_c 25.183180
_cell_angle_alpha 90.000000
_cell_angle_beta 90.000000
_cell_angle_gamma 90.000000
_cell_volume 4725.762887
_symmetry_space_group_name_H-M "F 2 2 2"
_symmetry_group_IT_number 22
_symmetry_cell_setting 'orthorhombic'
loop_
_space_group_symop_operation_xyz
x,y,z
-x,-y,z
x,-y,-z
-x,y,-z
x,1/2+y,1/2+z
-x,1/2-y,1/2+z
x,1/2-y,1/2-z
-x,1/2+y,1/2-z
1/2+x,y,1/2+z
1/2-x,-y,1/2+z
1/2+x,-y,1/2-z
1/2-x,y,1/2-z
1/2+x,1/2+y,z
1/2-x,1/2-y,z
1/2+x,1/2-y,-z
1/2-x,1/2+y,-z
loop_
_atom_site_type_symbol
_atom_site_label
_atom_site_fract_x
_atom_site_fract_y
_atom_site_fract_z
Si Si1 0.090979 0.306585 0.719554
Si Si2 0.750000 0.250000 0.119984
Si Si3 0.222948 0.605236 0.587365
Si Si4 0.535177 0.151457 0.061687
Si Si5 0.500000 0.098633 0.500000
Si Si6 0.480320 0.430288 0.824109
Si Si7 0.761457 0.459076 0.420050
O O1 0.006569 0.250000 0.750000
O O2 0.250000 0.312075 0.750000
O O3 0.134625 0.286603 0.659579
O O4 0.027875 0.376065 0.718920
O O5 0.650349 0.202421 0.085531
O O6 0.374531 0.645741 0.592098
O O7 0.268779 0.532934 0.573941
O O8 0.117352 0.632460 0.539746
O O9 0.116462 0.593416 0.637891
O O10 0.620036 0.084732 0.067343
O O11 0.500000 0.163350 0.000000
O O12 0.605172 0.058761 0.460868
O O13 0.500000 0.500000 0.801770
O O14 0.333486 0.439566 0.862861
#
# Coordination Sequence:
#
# PCOD9325959 Si02
#       7
#    16   8  16  16   8  16  16
#     4   9  19  40  76  90 106 166 218 253 321 398
#     4  10  23  44  56  82 124 158 225 268 298 376
#     4  10  20  31  56  92 123 169 200 261 330 361
#     4  12  23  37  56  86 124 176 225 264 306 370
#     4  10  17  30  50  84 126 170 210 246 303 382
#     4   9  18  36  64  96 128 155 196 263 338 392
#     4  10  18  32  57  86 128 161 204 257 315 379
#
# _framework density 20.314181999999999
#
# number of rings (size 3 to 8) (size 9 to 14) (size 15 to 20)
#    0.000    2.167    3.333    3.000    0.000    0.667 
#    4.500    0.000   14.667    4.000    0.000    0.000 
#    0.000    0.000    0.000    0.000    0.000    0.000 
#
# Total GULP energy -133818.329910 kJ/mol
# GULP energy per Si atom -5575.763746 kJ/mol
# Density = 2.026795 g / cm^3
# Si number density = 20.314182 Si / 1000 Ang^3
#
#
#
# Elastic Constant Matrix: (Units=GPa)
#
#
# Indices 1 2 3 4 5 6 
#
# 1 90.3191 35.0444 18.2635 0.0000 0.0000 0.0000
# 2 35.0444 100.2132 44.6394 0.0000 0.0000 0.0000
# 3 18.2635 44.6394 42.7652 0.0000 0.0000 0.0000
# 4 0.0000 0.0000 0.0000 12.0393 0.0000 0.0000
# 5 0.0000 0.0000 0.0000 0.0000 2.5836 0.0000
# 6 0.0000 0.0000 0.0000 0.0000 0.0000 35.7757
#
#
#
# Elastic Compliance Matrix: (Units=1/GPa)
#
#
# Indices 1 2 3 4 5 6 
#
# 1 0.012861 -0.003833 -0.001491 0.000000 0.000000 0.000000
# 2 -0.003833 0.019793 -0.019024 0.000000 0.000000 0.000000
# 3 -0.001491 -0.019024 0.043878 0.000000 0.000000 0.000000
# 4 0.000000 0.000000 0.000000 0.083061 0.000000 0.000000
# 5 0.000000 0.000000 0.000000 0.000000 0.387062 0.000000
# 6 0.000000 0.000000 0.000000 0.000000 0.000000 0.027952
#
#
# Mechanical properties :
#
#
# Convention : Reuss Voigt Hill
#
# Bulk Modulus (GPa) = 35.92525 47.68802 41.80664
# Shear Modulus (GPa) = 7.90413 19.10307 13.50360
#
# Velocity S-wave (km/s) = 1.97469 3.06989 2.58105
# Velocity P-wave (km/s) = 4.78773 6.00765 5.43204
#
# Compressibility (1/GPa) = 0.02783558
#
# Stress axis : x y z
#
# Youngs Moduli (GPa) = 77.75651 50.52272 22.79066
#
# Poissons Ratio (x) = 0.19366 0.03399
# Poissons Ratio (y) = 0.29805 0.43356
# Poissons Ratio (z) = 0.11596 0.96112
#
# Static dielectric constant tensor:
#      x y z
#    x 1.751940 0.000000 0.000000 
#    y 0.000000 1.786150 0.000000 
#    z 0.000000 0.000000 1.754110 
# 
# From -- ./inp_files/47412.got.cif
#   From: 2010.05.17/outbox.cif.g08.bks.cpg/sg22_24_cif.got.tgz:47412.got - 2010.06.03 23:40:54.
