data_PCOD9325821
_publ_section_title
;
Structure prediction by ZEFSAII (Michael W. Deem and Ramdas Pophale) SiO2 
 PCOD9325821
Probable space group: C 2 2 2
;
_chemical_formula_sum "Si O2"
_cell_formula_units_Z 28
_cell_length_a 24.220899
_cell_length_b 5.454969
_cell_length_c 8.344303
_cell_angle_alpha 90.000000
_cell_angle_beta 90.000000
_cell_angle_gamma 90.000000
_cell_volume 1102.484802
_symmetry_space_group_name_H-M "C 2 2 2"
_symmetry_group_IT_number 21
_symmetry_cell_setting 'orthorhombic'
loop_
_space_group_symop_operation_xyz
x,y,z
-x,-y,z
x,-y,-z
-x,y,-z
1/2+x,1/2+y,z
1/2-x,1/2-y,z
1/2+x,1/2-y,-z
1/2-x,1/2+y,-z
loop_
_atom_site_type_symbol
_atom_site_label
_atom_site_fract_x
_atom_site_fract_y
_atom_site_fract_z
Si Si1 0.652352 0.000000 0.500000
Si Si2 0.500000 0.000000 0.000000
Si Si3 0.750000 0.750000 0.635150
Si Si4 0.750000 0.750000 0.160782
Si Si5 0.419551 0.236067 0.748567
Si Si6 0.844612 0.000000 0.000000
Si Si7 0.000000 0.000000 0.500000
O O1 0.694779 0.224574 0.472396
O O2 0.614333 0.021045 0.342597
O O3 0.539690 0.850128 0.885902
O O4 0.751114 0.503725 0.740200
O O5 0.804403 0.780104 0.053102
O O6 0.379192 0.419256 0.844131
O O7 0.458483 0.349836 0.612701
#
# Coordination Sequence:
#
# PCOD9325821 Si02
#       7
#     4   2   4   4   8   4   2
#     4  12  28  52  80 128 166 242 270 368 440 530
#     4  12  28  54  76 128 164 226 312 370 432 514
#     4  12  28  52  84 126 184 218 298 346 436 550
#     4  12  28  52  80 134 172 234 280 368 412 568
#     4  12  28  50  86 118 173 234 295 373 444 518
#     4  12  28  50  88 126 176 240 292 362 454 528
#     4  12  28  54  76 128 164 226 308 378 428 514
#
# _framework density 25.397176999999999
#
# number of rings (size 3 to 8) (size 9 to 14) (size 15 to 20)
#    0.000    0.000    2.857    5.143    8.000    1.143 
#    0.000    0.000    0.000    0.000    0.000    0.000 
#    0.000    0.000    0.000    0.000    0.000    0.000 
#
# Total GULP energy -78453.778080 kJ/mol
# GULP energy per Si atom -5603.841291 kJ/mol
# Density = 2.533937 g / cm^3
# Si number density = 25.397177 Si / 1000 Ang^3
#
#
#
# Elastic Constant Matrix: (Units=GPa)
#
#
# Indices 1 2 3 4 5 6 
#
# 1 190.6123 73.0821 107.0162 0.0000 0.0000 0.0000
# 2 73.0821 157.6421 95.3213 0.0000 0.0000 0.0000
# 3 107.0162 95.3213 199.6915 0.0000 0.0000 0.0000
# 4 0.0000 0.0000 0.0000 3.9962 0.0000 0.0000
# 5 0.0000 0.0000 0.0000 0.0000 96.6509 0.0000
# 6 0.0000 0.0000 0.0000 0.0000 0.0000 44.7646
#
#
#
# Elastic Compliance Matrix: (Units=1/GPa)
#
#
# Indices 1 2 3 4 5 6 
#
# 1 0.007755 -0.001521 -0.003430 0.000000 0.000000 0.000000
# 2 -0.001521 0.009216 -0.003584 0.000000 0.000000 0.000000
# 3 -0.003430 -0.003584 0.008557 0.000000 0.000000 0.000000
# 4 0.000000 0.000000 0.000000 0.250237 0.000000 0.000000
# 5 0.000000 0.000000 0.000000 0.000000 0.010347 0.000000
# 6 0.000000 0.000000 0.000000 0.000000 0.000000 0.022339
#
#
# Mechanical properties :
#
#
# Convention : Reuss Voigt Hill
#
# Bulk Modulus (GPa) = 118.23833 122.08723 120.16278
# Shear Modulus (GPa) = 15.22816 47.25077 31.23946
#
# Velocity S-wave (km/s) = 2.45133 4.31800 3.51099
# Velocity P-wave (km/s) = 7.39383 8.54609 7.99076
#
# Compressibility (1/GPa) = 0.00845749
#
# Stress axis : x y z
#
# Youngs Moduli (GPa) = 128.94605 108.50959 116.87013
#
# Poissons Ratio (x) = 0.16508 0.40085
# Poissons Ratio (y) = 0.19617 0.41884
# Poissons Ratio (z) = 0.44227 0.38888
#
# Static dielectric constant tensor:
#      x y z
#    x 2.580570 0.000000 0.000000 
#    y 0.000000 1.986900 0.000000 
#    z 0.000000 0.000000 2.042200 
# 
# From -- ./inp_files/18861.got.cif
#   From: 2010.05.17/outbox.cif.g08.bks.cpg/sg21_10_cif.got.tgz:18861.got - 2010.06.03 23:14:55.
