data_PCOD9325400
_publ_section_title
;
Structure prediction by ZEFSAII (Michael W. Deem and Ramdas Pophale) SiO2 
 PCOD9325400
Probable space group: C 2 2 2
;
_chemical_formula_sum "Si O2"
_cell_formula_units_Z 34
_cell_length_a 16.917881
_cell_length_b 9.272217
_cell_length_c 10.426030
_cell_angle_alpha 90.000000
_cell_angle_beta 90.000000
_cell_angle_gamma 90.000000
_cell_volume 1635.492372
_symmetry_space_group_name_H-M "C 2 2 2"
_symmetry_group_IT_number 21
_symmetry_cell_setting 'orthorhombic'
loop_
_space_group_symop_operation_xyz
x,y,z
-x,-y,z
x,-y,-z
-x,y,-z
1/2+x,1/2+y,z
1/2-x,1/2-y,z
1/2+x,1/2-y,-z
1/2-x,1/2+y,-z
loop_
_atom_site_type_symbol
_atom_site_label
_atom_site_fract_x
_atom_site_fract_y
_atom_site_fract_z
Si Si1 0.013769 0.161484 0.350482
Si Si2 0.000000 0.500000 0.000000
Si Si3 0.688270 0.369125 0.606537
Si Si4 0.270837 0.454372 0.854836
Si Si5 0.389374 0.204756 0.828274
O O1 0.105403 0.202361 0.350388
O O2 0.000000 0.152774 0.500000
O O3 0.949332 0.263197 0.286868
O O4 0.000000 0.000000 0.295614
O O5 0.058227 0.607960 0.076711
O O6 0.677955 0.500000 0.500000
O O7 0.750000 0.250000 0.556916
O O8 0.715585 0.430943 0.743424
O O9 0.350597 0.357873 0.869925
O O10 0.192423 0.376007 0.801952
O O11 0.251369 0.500000 0.000000
#
# Coordination Sequence:
#
# PCOD9325400 Si02
#       5
#     8   2   8   8   8
#     4  11  22  46  72 103 137 184 244 304 367 453
#     4  12  28  44  64 104 148 186 248 312 372 432
#     4  12  28  46  76 109 148 193 251 306 380 450
#     4  11  26  47  72 103 144 197 247 303 379 452
#     4  11  26  44  71  99 150 185 243 310 369 436
#
# _framework density 20.788848000000002
#
# number of rings (size 3 to 8) (size 9 to 14) (size 15 to 20)
#    0.000    0.706    5.882    0.000   16.471    0.000 
#    0.000    0.588    0.000    0.000    0.000    0.000 
#    0.000    0.000    0.000    0.000    0.000    0.000 
#
# Total GULP energy -94669.306059 kJ/mol
# GULP energy per Si atom -5568.782709 kJ/mol
# Density = 2.074153 g / cm^3
# Si number density = 20.788848 Si / 1000 Ang^3
#
#
#
# Elastic Constant Matrix: (Units=GPa)
#
#
# Indices 1 2 3 4 5 6 
#
# 1 183.1348 53.0191 42.7309 0.0000 0.0000 0.0000
# 2 53.0191 61.7117 37.4928 0.0000 0.0000 0.0000
# 3 42.7309 37.4928 92.2871 0.0000 0.0000 0.0000
# 4 0.0000 0.0000 0.0000 16.2181 0.0000 0.0000
# 5 0.0000 0.0000 0.0000 0.0000 48.1156 0.0000
# 6 0.0000 0.0000 0.0000 0.0000 0.0000 36.2377
#
#
#
# Elastic Compliance Matrix: (Units=1/GPa)
#
#
# Indices 1 2 3 4 5 6 
#
# 1 0.007353 -0.005641 -0.001113 0.000000 0.000000 0.000000
# 2 -0.005641 0.025843 -0.007887 0.000000 0.000000 0.000000
# 3 -0.001113 -0.007887 0.014555 0.000000 0.000000 0.000000
# 4 0.000000 0.000000 0.000000 0.061660 0.000000 0.000000
# 5 0.000000 0.000000 0.000000 0.000000 0.020783 0.000000
# 6 0.000000 0.000000 0.000000 0.000000 0.000000 0.027596
#
#
# Mechanical properties :
#
#
# Convention : Reuss Voigt Hill
#
# Bulk Modulus (GPa) = 54.14471 67.06877 60.60674
# Shear Modulus (GPa) = 25.87609 33.70700 29.79155
#
# Velocity S-wave (km/s) = 3.53187 4.03103 3.78968
# Velocity P-wave (km/s) = 6.53711 7.34830 6.95454
#
# Compressibility (1/GPa) = 0.01846903
#
# Stress axis : x y z
#
# Youngs Moduli (GPa) = 135.99186 38.69537 68.70416
#
# Poissons Ratio (x) = 0.21830 0.07646
# Poissons Ratio (y) = 0.76720 0.54186
# Poissons Ratio (z) = 0.15134 0.30518
#
# Static dielectric constant tensor:
#      x y z
#    x 1.806440 0.000000 0.000000 
#    y 0.000000 1.861420 0.000000 
#    z 0.000000 0.000000 1.731570 
# 
# From -- ./inp_files/24795.got.cif
#   From: 2010.05.17/outbox.cif.g08.bks.cpg/sg21_13_cif.got.tgz:24795.got - 2010.06.03 23:14:55.
