data_PCOD9325777
_publ_section_title
;
Structure prediction by ZEFSAII (Michael W. Deem and Ramdas Pophale) SiO2 
 PCOD9325777
Probable space group: C 2 2 2
;
_chemical_formula_sum "Si O2"
_cell_formula_units_Z 34
_cell_length_a 14.752696
_cell_length_b 13.093099
_cell_length_c 7.375589
_cell_angle_alpha 90.000000
_cell_angle_beta 90.000000
_cell_angle_gamma 90.000000
_cell_volume 1424.657776
_symmetry_space_group_name_H-M "C 2 2 2"
_symmetry_group_IT_number 21
_symmetry_cell_setting 'orthorhombic'
loop_
_space_group_symop_operation_xyz
x,y,z
-x,-y,z
x,-y,-z
-x,y,-z
1/2+x,1/2+y,z
1/2-x,1/2-y,z
1/2+x,1/2-y,-z
1/2-x,1/2+y,-z
loop_
_atom_site_type_symbol
_atom_site_label
_atom_site_fract_x
_atom_site_fract_y
_atom_site_fract_z
Si Si1 0.313165 0.023460 0.783458
Si Si2 0.833329 0.301669 0.652775
Si Si3 0.500000 0.500000 0.500000
Si Si4 0.969041 0.668362 0.808986
Si Si5 0.862502 0.846634 0.689977
O O1 0.403505 0.084111 0.723868
O O2 0.226418 0.095333 0.755111
O O3 0.306358 0.920552 0.666141
O O4 0.318611 0.000000 0.000000
O O5 0.750000 0.250000 0.764425
O O6 0.839012 0.228997 0.476598
O O7 0.938056 0.302508 0.712483
O O8 0.435529 0.428567 0.621017
O O9 0.909078 0.770490 0.833149
O O10 0.000000 0.626078 0.000000
#
# Coordination Sequence:
#
# PCOD9325777 Si02
#       5
#     8   8   2   8   8
#     4  12  28  48  83 117 161 210 270 335 406 483
#     4  12  26  49  78 116 156 211 265 333 397 484
#     4  12  24  52  70 114 154 204 262 336 400 490
#     4  12  26  48  79 114 160 207 268 332 404 477
#     4  12  28  48  80 113 157 209 266 332 405 483
#
# _framework density 23.865380999999999
#
# number of rings (size 3 to 8) (size 9 to 14) (size 15 to 20)
#    0.000    0.000    4.706    4.235    3.294    2.824 
#    0.000    4.706    0.000    0.000    0.000    0.000 
#    0.000    0.000    0.000    0.000    0.000    0.000 
#
# Total GULP energy -95118.540389 kJ/mol
# GULP energy per Si atom -5595.208258 kJ/mol
# Density = 2.381106 g / cm^3
# Si number density = 23.865381 Si / 1000 Ang^3
#
#
#
# Elastic Constant Matrix: (Units=GPa)
#
#
# Indices 1 2 3 4 5 6 
#
# 1 226.8326 98.2128 36.4745 0.0000 0.0000 0.0000
# 2 98.2128 186.9684 36.4575 0.0000 0.0000 0.0000
# 3 36.4745 36.4575 63.4283 0.0000 0.0000 0.0000
# 4 0.0000 0.0000 0.0000 77.5897 0.0000 0.0000
# 5 0.0000 0.0000 0.0000 0.0000 37.0242 0.0000
# 6 0.0000 0.0000 0.0000 0.0000 0.0000 71.3641
#
#
#
# Elastic Compliance Matrix: (Units=1/GPa)
#
#
# Indices 1 2 3 4 5 6 
#
# 1 0.005885 -0.002739 -0.001810 0.000000 0.000000 0.000000
# 2 -0.002739 0.007298 -0.002620 0.000000 0.000000 0.000000
# 3 -0.001810 -0.002620 0.018313 0.000000 0.000000 0.000000
# 4 0.000000 0.000000 0.000000 0.012888 0.000000 0.000000
# 5 0.000000 0.000000 0.000000 0.000000 0.027009 0.000000
# 6 0.000000 0.000000 0.000000 0.000000 0.000000 0.014013
#
#
# Mechanical properties :
#
#
# Convention : Reuss Voigt Hill
#
# Bulk Modulus (GPa) = 58.28027 91.05767 74.66897
# Shear Modulus (GPa) = 47.40987 57.60124 52.50555
#
# Velocity S-wave (km/s) = 4.46191 4.91816 4.69558
# Velocity P-wave (km/s) = 7.14271 8.39575 7.79445
#
# Compressibility (1/GPa) = 0.01715847
#
# Stress axis : x y z
#
# Youngs Moduli (GPa) = 169.91357 137.02608 54.60678
#
# Poissons Ratio (x) = 0.37525 0.09886
# Poissons Ratio (y) = 0.46531 0.14307
# Poissons Ratio (z) = 0.30760 0.35900
#
# Static dielectric constant tensor:
#      x y z
#    x 1.407150 0.000000 0.000000 
#    y 0.000000 1.883980 0.000000 
#    z 0.000000 0.000000 1.988660 
# 
# From -- ./inp_files/14142.got.cif
#   From: 2010.05.17/outbox.cif.g08.bks.cpg/sg21_8_cif.got.tgz:14142.got - 2010.06.03 23:14:55.
