data_PCOD9325558
_publ_section_title
;
Structure prediction by ZEFSAII (Michael W. Deem and Ramdas Pophale) SiO2 
 PCOD9325558
Probable space group: C 2 2 2
;
_chemical_formula_sum "Si O2"
_cell_formula_units_Z 22
_cell_length_a 7.555334
_cell_length_b 7.512342
_cell_length_c 15.833002
_cell_angle_alpha 90.000000
_cell_angle_beta 90.000000
_cell_angle_gamma 90.000000
_cell_volume 898.653532
_symmetry_space_group_name_H-M "C 2 2 2"
_symmetry_group_IT_number 21
_symmetry_cell_setting 'orthorhombic'
loop_
_space_group_symop_operation_xyz
x,y,z
-x,-y,z
x,-y,-z
-x,y,-z
1/2+x,1/2+y,z
1/2-x,1/2-y,z
1/2+x,1/2-y,-z
1/2-x,1/2+y,-z
loop_
_atom_site_type_symbol
_atom_site_label
_atom_site_fract_x
_atom_site_fract_y
_atom_site_fract_z
Si Si1 0.250000 0.750000 0.385941
Si Si2 0.202441 0.444687 0.275862
Si Si3 0.500000 0.000000 0.500000
Si Si4 0.207860 0.044547 0.906972
O O1 0.122194 0.634683 0.445879
O O2 0.318549 0.598010 0.320762
O O3 0.250000 0.250000 0.309331
O O4 0.220597 0.445021 0.174828
O O5 0.000000 0.500000 0.291653
O O6 0.250000 0.250000 0.891924
O O7 0.000000 0.000000 0.909066
O O8 0.281242 0.000000 0.000000
#
# Coordination Sequence:
#
# PCOD9325558 Si02
#       4
#     4   8   2   8
#     4  12  30  58  78 124 150 210 254 334 396 474
#     4  12  27  48  81 116 158 208 258 320 391 465
#     4  12  32  52  88 108 164 194 268 326 404 470
#     4  11  24  45  73 113 158 209 262 316 375 455
#
# _framework density 24.481069999999999
#
# number of rings (size 3 to 8) (size 9 to 14) (size 15 to 20)
#    0.000    0.364    3.636    3.273    2.545    7.273 
#    0.000    0.000    0.000    0.000    0.000    0.000 
#    0.000    0.000    0.000    0.000    0.000    0.000 
#
# Total GULP energy -61546.847213 kJ/mol
# GULP energy per Si atom -5595.167928 kJ/mol
# Density = 2.442535 g / cm^3
# Si number density = 24.481070 Si / 1000 Ang^3
#
#
#
# Elastic Constant Matrix: (Units=GPa)
#
#
# Indices 1 2 3 4 5 6 
#
# 1 117.3806 61.2905 40.5801 0.0000 0.0000 0.0000
# 2 61.2905 257.2916 60.2777 0.0000 0.0000 0.0000
# 3 40.5801 60.2777 169.3970 0.0000 0.0000 0.0000
# 4 0.0000 0.0000 0.0000 222.5275 0.0000 0.0000
# 5 0.0000 0.0000 0.0000 0.0000 603.3158 0.0000
# 6 0.0000 0.0000 0.0000 0.0000 0.0000 50.9096
#
#
#
# Elastic Compliance Matrix: (Units=1/GPa)
#
#
# Indices 1 2 3 4 5 6 
#
# 1 0.010168 -0.002020 -0.001717 0.000000 0.000000 0.000000
# 2 -0.002020 0.004641 -0.001168 0.000000 0.000000 0.000000
# 3 -0.001717 -0.001168 0.006730 0.000000 0.000000 0.000000
# 4 0.000000 0.000000 0.000000 0.004494 0.000000 0.000000
# 5 0.000000 0.000000 0.000000 0.000000 0.001658 0.000000
# 6 0.000000 0.000000 0.000000 0.000000 0.000000 0.019643
#
#
# Mechanical properties :
#
#
# Convention : Reuss Voigt Hill
#
# Bulk Modulus (GPa) = 85.25128 96.48507 90.86817
# Shear Modulus (GPa) = 81.89745 200.81198 141.35471
#
# Velocity S-wave (km/s) = 5.79016 9.06673 7.60696
# Velocity P-wave (km/s) = 8.92190 12.21086 10.69358
#
# Compressibility (1/GPa) = 0.01173003
#
# Stress axis : x y z
#
# Youngs Moduli (GPa) = 98.35245 215.45433 148.58579
#
# Poissons Ratio (x) = 0.43517 0.25512
# Poissons Ratio (y) = 0.19865 0.17351
# Poissons Ratio (z) = 0.16887 0.25159
#
# Static dielectric constant tensor:
#      x y z
#    x 1.992590 0.000000 0.000000 
#    y 0.000000 1.623860 0.000000 
#    z 0.000000 0.000000 2.031780 
# 
# From -- ./inp_files/29657.got.cif
#   From: 2010.05.17/outbox.cif.g08.bks.cpg/sg21_15_cif.got.tgz:29657.got - 2010.06.03 23:14:55.
