data_PCOD9325311
_publ_section_title
;
Structure prediction by ZEFSAII (Michael W. Deem and Ramdas Pophale) SiO2 
 PCOD9325311
Probable space group: C 2 2 2
;
_chemical_formula_sum "Si O2"
_cell_formula_units_Z 56
_cell_length_a 14.242534
_cell_length_b 12.194782
_cell_length_c 16.260223
_cell_angle_alpha 90.000000
_cell_angle_beta 90.000000
_cell_angle_gamma 90.000000
_cell_volume 2824.150283
_symmetry_space_group_name_H-M "C 2 2 2"
_symmetry_group_IT_number 21
_symmetry_cell_setting 'orthorhombic'
loop_
_space_group_symop_operation_xyz
x,y,z
-x,-y,z
x,-y,-z
-x,y,-z
1/2+x,1/2+y,z
1/2-x,1/2-y,z
1/2+x,1/2-y,-z
1/2-x,1/2+y,-z
loop_
_atom_site_type_symbol
_atom_site_label
_atom_site_fract_x
_atom_site_fract_y
_atom_site_fract_z
Si Si1 0.146875 0.225219 0.668418
Si Si2 0.896143 0.017411 0.222725
Si Si3 0.291723 0.588333 0.067074
Si Si4 0.488654 0.130094 0.755413
Si Si5 0.353410 0.709959 0.687800
Si Si6 0.887219 0.872871 0.494461
Si Si7 0.412774 0.190279 0.935907
O O1 0.250000 0.250000 0.701233
O O2 0.101946 0.121636 0.716131
O O3 0.088113 0.332842 0.688662
O O4 0.149064 0.192477 0.573485
O O5 0.816358 0.041262 0.156373
O O6 0.874076 0.907074 0.271301
O O7 0.000000 0.000000 0.184970
O O8 0.361402 0.691955 0.056774
O O9 0.180663 0.614178 0.056664
O O10 0.318419 0.500000 0.000000
O O11 0.578689 0.197898 0.725314
O O12 0.454990 0.172369 0.844880
O O13 0.500000 0.000000 0.758587
O O14 0.250000 0.750000 0.706204
O O15 0.363593 0.687328 0.590466
O O16 0.000000 0.875962 0.500000
O O17 0.854021 0.000000 0.500000
O O18 0.500000 0.175865 0.000000
#
# Coordination Sequence:
#
# PCOD9325311 Si02
#       7
#     8   8   8   8   8   8   8
#     4  12  24  44  73 104 137 188 239 293 356 424
#     4  12  23  46  74 104 141 187 241 297 356 419
#     4  11  27  44  73 108 139 178 239 300 353 419
#     4  12  28  47  71  99 142 189 232 289 355 430
#     4  12  27  44  67 110 141 180 241 294 355 419
#     4  11  21  42  72 102 140 182 236 296 356 424
#     4  11  27  50  69 102 143 188 234 287 366 433
#
# _framework density 19.828973000000001
#
# number of rings (size 3 to 8) (size 9 to 14) (size 15 to 20)
#    0.000    0.429    5.714    1.286   10.000    0.000 
#    0.000    1.429    0.000    0.000    0.000    0.000 
#    0.000    0.000    0.000    0.000    0.000    0.000 
#
# Total GULP energy -156457.319141 kJ/mol
# GULP energy per Si atom -5587.761398 kJ/mol
# Density = 1.978384 g / cm^3
# Si number density = 19.828973 Si / 1000 Ang^3
#
#
#
# Elastic Constant Matrix: (Units=GPa)
#
#
# Indices 1 2 3 4 5 6 
#
# 1 137.5564 53.4610 29.8856 0.0000 0.0000 0.0000
# 2 53.4610 128.6601 61.8427 0.0000 0.0000 0.0000
# 3 29.8856 61.8427 116.2024 0.0000 0.0000 0.0000
# 4 0.0000 0.0000 0.0000 27.1970 0.0000 0.0000
# 5 0.0000 0.0000 0.0000 0.0000 35.4918 0.0000
# 6 0.0000 0.0000 0.0000 0.0000 0.0000 -39.8174
#
#
#
# Elastic Compliance Matrix: (Units=1/GPa)
#
#
# Indices 1 2 3 4 5 6 
#
# 1 0.008685 -0.003407 -0.000421 0.000000 0.000000 0.000000
# 2 -0.003407 0.011780 -0.005393 0.000000 0.000000 0.000000
# 3 -0.000421 -0.005393 0.011584 0.000000 0.000000 0.000000
# 4 0.000000 0.000000 0.000000 0.036769 0.000000 0.000000
# 5 0.000000 0.000000 0.000000 0.000000 0.028176 0.000000
# 6 0.000000 0.000000 0.000000 0.000000 0.000000 -0.025115
#
#
# Mechanical properties :
#
#
# Convention : Reuss Voigt Hill
#
# Bulk Modulus (GPa) = 73.48438 74.75530 74.11984
# Shear Modulus (GPa) = 52.71107 20.38959 36.55033
#
# Velocity S-wave (km/s) = 5.16145 3.21015 4.29800
# Velocity P-wave (km/s) = 8.52410 7.17788 7.87979
#
# Compressibility (1/GPa) = 0.01360833
#
# Stress axis : x y z
#
# Youngs Moduli (GPa) = 115.13937 84.88704 86.32453
#
# Poissons Ratio (x) = 0.28918 0.03632
# Poissons Ratio (y) = 0.39224 0.46558
# Poissons Ratio (z) = 0.04844 0.45783
#
# Static dielectric constant tensor:
#      x y z
#    x 1.696980 0.000000 0.000000 
#    y 0.000000 1.653290 0.000000 
#    z 0.000000 0.000000 1.781260 
# 
# From -- ./inp_files/32311.got.cif
#   From: 2010.05.17/outbox.cif.g08.bks.cpg/sg21_17_cif.got.tgz:32311.got - 2010.06.03 23:14:55.
