data_PCOD9325343
_publ_section_title
;
Structure prediction by ZEFSAII (Michael W. Deem and Ramdas Pophale) SiO2 
 PCOD9325343
Probable space group: C 2 2 2
;
_chemical_formula_sum "Si O2"
_cell_formula_units_Z 34
_cell_length_a 24.707143
_cell_length_b 5.303247
_cell_length_c 11.176596
_cell_angle_alpha 90.000000
_cell_angle_beta 90.000000
_cell_angle_gamma 90.000000
_cell_volume 1464.447937
_symmetry_space_group_name_H-M "C 2 2 2"
_symmetry_group_IT_number 21
_symmetry_cell_setting 'orthorhombic'
loop_
_space_group_symop_operation_xyz
x,y,z
-x,-y,z
x,-y,-z
-x,y,-z
1/2+x,1/2+y,z
1/2-x,1/2-y,z
1/2+x,1/2-y,-z
1/2-x,1/2+y,-z
loop_
_atom_site_type_symbol
_atom_site_label
_atom_site_fract_x
_atom_site_fract_y
_atom_site_fract_z
Si Si1 0.925132 0.366838 0.623136
Si Si2 0.000000 0.000000 0.500000
Si Si3 0.161419 0.956259 0.873622
Si Si4 0.089917 0.452630 0.873194
Si Si5 0.690005 0.653835 0.382331
O O1 0.940471 0.500000 0.500000
O O2 0.939566 0.496398 0.747942
O O3 0.860002 0.346229 0.626546
O O4 0.956872 0.110995 0.597767
O O5 0.115228 0.172672 0.870952
O O6 0.135952 0.675223 0.877859
O O7 0.191383 0.982079 0.747046
O O8 0.191666 0.000000 0.000000
O O9 0.060884 0.500000 0.000000
O O10 0.674914 0.500000 0.500000
O O11 0.750000 0.750000 0.403734
#
# Coordination Sequence:
#
# PCOD9325343 Si02
#       5
#     8   2   8   8   8
#     4  11  23  42  68  97 135 178 230 283 337 407
#     4  12  26  44  68 104 128 188 238 284 338 412
#     4   9  19  38  62  96 135 179 222 268 331 410
#     4   9  19  37  68  99 131 177 220 282 340 397
#     4  11  22  39  63 100 138 178 221 276 341 401
#
# _framework density 23.216940000000001
#
# number of rings (size 3 to 8) (size 9 to 14) (size 15 to 20)
#    0.000    1.882    1.176    2.471    3.294    1.882 
#    0.000   10.588    0.000    4.235    0.000    0.000 
#    0.000    0.000    0.000    0.000    0.000    0.000 
#
# Total GULP energy -94658.983697 kJ/mol
# GULP energy per Si atom -5568.175512 kJ/mol
# Density = 2.316410 g / cm^3
# Si number density = 23.216940 Si / 1000 Ang^3
#
#
#
# Elastic Constant Matrix: (Units=GPa)
#
#
# Indices 1 2 3 4 5 6 
#
# 1 85.4243 6.5491 -14.9226 0.0000 0.0000 0.0000
# 2 6.5491 48.2592 -1.7386 0.0000 0.0000 0.0000
# 3 -14.9226 -1.7386 227.1398 0.0000 0.0000 0.0000
# 4 0.0000 0.0000 0.0000 34.2092 0.0000 0.0000
# 5 0.0000 0.0000 0.0000 0.0000 -212.3926 0.0000
# 6 0.0000 0.0000 0.0000 0.0000 0.0000 63.8672
#
#
#
# Elastic Compliance Matrix: (Units=1/GPa)
#
#
# Indices 1 2 3 4 5 6 
#
# 1 0.011964 -0.001596 0.000774 0.000000 0.000000 0.000000
# 2 -0.001596 0.020940 0.000055 0.000000 0.000000 0.000000
# 3 0.000774 0.000055 0.004454 0.000000 0.000000 0.000000
# 4 0.000000 0.000000 0.000000 0.029232 0.000000 0.000000
# 5 0.000000 0.000000 0.000000 0.000000 -0.004708 0.000000
# 6 0.000000 0.000000 0.000000 0.000000 0.000000 0.015657
#
#
# Mechanical properties :
#
#
# Convention : Reuss Voigt Hill
#
# Bulk Modulus (GPa) = 27.91371 37.84433 32.87902
# Shear Modulus (GPa) = 54.93710 1.86580 28.40145
#
# Velocity S-wave (km/s) = 4.86969 0.89743 3.50138
# Velocity P-wave (km/s) = 6.60815 4.17247 5.52617
#
# Compressibility (1/GPa) = 0.03582469
#
# Stress axis : x y z
#
# Youngs Moduli (GPa) = 83.58564 47.75558 224.52561
#
# Poissons Ratio (x) = 0.07620 -0.17373
# Poissons Ratio (y) = 0.13338 -0.01245
# Poissons Ratio (z) = -0.06468 -0.00265
#
# Static dielectric constant tensor:
#      x y z
#    x 1.828450 0.000000 0.000000 
#    y 0.000000 2.514630 0.000000 
#    z 0.000000 0.000000 1.872340 
# 
# From -- ./inp_files/20978.got.cif
#   From: 2010.05.17/outbox.cif.g08.bks.cpg/sg21_11_cif.got.tgz:20978.got - 2010.06.03 23:14:55.
