data_PCOD9325512
_publ_section_title
;
Structure prediction by ZEFSAII (Michael W. Deem and Ramdas Pophale) SiO2 
 PCOD9325512
Probable space group: C 2 2 2
;
_chemical_formula_sum "Si O2"
_cell_formula_units_Z 34
_cell_length_a 12.602775
_cell_length_b 5.083160
_cell_length_c 23.611167
_cell_angle_alpha 90.000000
_cell_angle_beta 90.000000
_cell_angle_gamma 90.000000
_cell_volume 1512.576733
_symmetry_space_group_name_H-M "C 2 2 2"
_symmetry_group_IT_number 21
_symmetry_cell_setting 'orthorhombic'
loop_
_space_group_symop_operation_xyz
x,y,z
-x,-y,z
x,-y,-z
-x,y,-z
1/2+x,1/2+y,z
1/2-x,1/2-y,z
1/2+x,1/2-y,-z
1/2-x,1/2+y,-z
loop_
_atom_site_type_symbol
_atom_site_label
_atom_site_fract_x
_atom_site_fract_y
_atom_site_fract_z
Si Si1 0.155325 0.103461 0.939835
Si Si2 0.000000 0.500000 0.000000
Si Si3 0.000000 0.000000 0.671910
Si Si4 0.176448 0.500000 0.500000
Si Si5 0.000000 0.000000 0.855201
Si Si6 0.824450 0.995882 0.764724
Si Si7 0.500000 0.000000 0.406017
O O1 0.250000 0.250000 0.908468
O O2 0.072620 0.319983 0.960800
O O3 0.090393 0.901798 0.900774
O O4 0.196862 0.000000 0.000000
O O5 0.976729 0.750045 0.632980
O O6 0.101085 0.933338 0.711524
O O7 0.250000 0.250000 0.511376
O O8 0.099743 0.444675 0.446830
O O9 0.912077 0.892470 0.811203
O O10 0.750000 0.250000 0.780624
O O11 0.750000 0.750000 0.751811
#
# Coordination Sequence:
#
# PCOD9325512 Si02
#       7
#     8   2   4   4   4   8   4
#     4  12  24  41  63  94 121 164 205 255 316 394
#     4  12  22  40  66  84 130 156 206 252 308 386
#     4  11  24  43  71  99 135 176 231 290 334 392
#     4  11  24  41  64 100 148 191 232 277 334 396
#     4  11  25  44  65  93 128 165 215 270 334 398
#     4  11  26  47  69  99 131 171 223 278 341 403
#     4  11  24  42  67 104 139 184 235 282 332 394
#
# _framework density 22.478197999999999
#
# number of rings (size 3 to 8) (size 9 to 14) (size 15 to 20)
#    0.000    0.706    3.529    3.529    0.000   15.059 
#    0.000    0.000    0.000    0.000    0.000    0.000 
#    0.000    0.000    0.000    0.000    0.000    0.000 
#
# Total GULP energy -94674.791544 kJ/mol
# GULP energy per Si atom -5569.105385 kJ/mol
# Density = 2.242704 g / cm^3
# Si number density = 22.478198 Si / 1000 Ang^3
#
#
#
# Elastic Constant Matrix: (Units=GPa)
#
#
# Indices 1 2 3 4 5 6 
#
# 1 140.6162 16.7621 28.9194 0.0000 0.0000 0.0000
# 2 16.7621 72.2470 -9.2425 0.0000 0.0000 0.0000
# 3 28.9194 -9.2425 85.3681 0.0000 0.0000 0.0000
# 4 0.0000 0.0000 0.0000 38.8559 0.0000 0.0000
# 5 0.0000 0.0000 0.0000 0.0000 11.6923 0.0000
# 6 0.0000 0.0000 0.0000 0.0000 0.0000 42.9883
#
#
#
# Elastic Compliance Matrix: (Units=1/GPa)
#
#
# Indices 1 2 3 4 5 6 
#
# 1 0.007983 -0.002229 -0.002946 0.000000 0.000000 0.000000
# 2 -0.002229 0.014658 0.002342 0.000000 0.000000 0.000000
# 3 -0.002946 0.002342 0.012965 0.000000 0.000000 0.000000
# 4 0.000000 0.000000 0.000000 0.025736 0.000000 0.000000
# 5 0.000000 0.000000 0.000000 0.000000 0.085526 0.000000
# 6 0.000000 0.000000 0.000000 0.000000 0.000000 0.023262
#
#
# Mechanical properties :
#
#
# Convention : Reuss Voigt Hill
#
# Bulk Modulus (GPa) = 33.39848 41.23439 37.31644
# Shear Modulus (GPa) = 26.91404 36.16014 31.53709
#
# Velocity S-wave (km/s) = 3.46401 4.01518 3.74974
# Velocity P-wave (km/s) = 5.55784 6.31503 5.94849
#
# Compressibility (1/GPa) = 0.02994148
#
# Stress axis : x y z
#
# Youngs Moduli (GPa) = 125.26499 68.22128 77.12822
#
# Poissons Ratio (x) = 0.15207 0.22720
# Poissons Ratio (y) = 0.27922 -0.18064
# Poissons Ratio (z) = 0.36899 -0.15978
#
# Static dielectric constant tensor:
#      x y z
#    x 1.800810 0.000000 0.000000 
#    y 0.000000 1.857870 0.000000 
#    z 0.000000 0.000000 1.864280 
# 
# From -- ./inp_files/38615.got.cif
#   From: 2010.05.17/outbox.cif.g08.bks.cpg/sg21_20_cif.got.tgz:38615.got - 2010.06.03 23:14:55.
