data_PCOD9325537
_publ_section_title
;
Structure prediction by ZEFSAII (Michael W. Deem and Ramdas Pophale) SiO2 
 PCOD9325537
Probable space group: C 2 2 2
;
_chemical_formula_sum "Si O2"
_cell_formula_units_Z 48
_cell_length_a 14.152525
_cell_length_b 17.092859
_cell_length_c 8.642583
_cell_angle_alpha 90.000000
_cell_angle_beta 90.000000
_cell_angle_gamma 90.000000
_cell_volume 2090.702314
_symmetry_space_group_name_H-M "C 2 2 2"
_symmetry_group_IT_number 21
_symmetry_cell_setting 'orthorhombic'
loop_
_space_group_symop_operation_xyz
x,y,z
-x,-y,z
x,-y,-z
-x,y,-z
1/2+x,1/2+y,z
1/2-x,1/2-y,z
1/2+x,1/2-y,-z
1/2-x,1/2+y,-z
loop_
_atom_site_type_symbol
_atom_site_label
_atom_site_fract_x
_atom_site_fract_y
_atom_site_fract_z
Si Si1 0.000000 0.500000 0.500000
Si Si2 0.500000 0.500000 0.500000
Si Si3 0.612618 0.750544 0.479383
Si Si4 0.888979 0.411655 0.012617
Si Si5 0.627326 0.600606 0.274438
Si Si6 0.500000 0.654408 0.000000
Si Si7 0.352234 0.237814 0.822718
Si Si8 0.660981 0.902735 0.317954
O O1 0.074738 0.456066 0.383813
O O2 0.562619 0.553200 0.390844
O O3 0.500000 0.763003 0.500000
O O4 0.630230 0.687941 0.345686
O O5 0.648804 0.729470 0.648987
O O6 0.661507 0.831177 0.434998
O O7 0.861693 0.370023 0.852729
O O8 0.848275 0.500000 0.000000
O O9 0.868890 0.355487 0.157373
O O10 0.000000 0.419876 0.000000
O O11 0.571944 0.605745 0.110613
O O12 0.732977 0.565245 0.292033
O O13 0.433514 0.712431 0.097153
O O14 0.250000 0.250000 0.896680
#
# Coordination Sequence:
#
# PCOD9325537 Si02
#       8
#     2   2   8   8   8   4   8   8
#     4  12  26  42  74 110 156 198 248 308 380 450
#     4  12  26  52  72  98 160 180 242 312 368 442
#     4  12  23  47  75 102 143 188 248 310 363 439
#     4  11  24  44  65  98 149 185 228 302 370 436
#     4  12  26  49  75 107 142 199 245 314 379 441
#     4  12  24  47  75 106 148 186 262 314 366 447
#     4  12  24  42  71 105 140 193 246 306 376 447
#     4  12  26  45  72 108 144 195 249 302 370 457
#
# _framework density 22.958793
#
# number of rings (size 3 to 8) (size 9 to 14) (size 15 to 20)
#    0.000    0.167    4.167    6.000    2.333    0.333 
#    9.000    0.000    0.000    0.000    0.000    0.000 
#    0.000    0.000    0.000    0.000    0.000    0.000 
#
# Total GULP energy -134045.872350 kJ/mol
# GULP energy per Si atom -5585.244681 kJ/mol
# Density = 2.290654 g / cm^3
# Si number density = 22.958793 Si / 1000 Ang^3
#
#
#
# Elastic Constant Matrix: (Units=GPa)
#
#
# Indices 1 2 3 4 5 6 
#
# 1 169.5033 20.8999 28.3796 0.0000 0.0000 0.0000
# 2 20.8999 60.5392 7.2102 0.0000 0.0000 0.0000
# 3 28.3796 7.2102 99.8224 0.0000 0.0000 0.0000
# 4 0.0000 0.0000 0.0000 34.0067 0.0000 0.0000
# 5 0.0000 0.0000 0.0000 0.0000 17.4199 0.0000
# 6 0.0000 0.0000 0.0000 0.0000 0.0000 16.2158
#
#
#
# Elastic Compliance Matrix: (Units=1/GPa)
#
#
# Indices 1 2 3 4 5 6 
#
# 1 0.006430 -0.002020 -0.001682 0.000000 0.000000 0.000000
# 2 -0.002020 0.017296 -0.000675 0.000000 0.000000 0.000000
# 3 -0.001682 -0.000675 0.010545 0.000000 0.000000 0.000000
# 4 0.000000 0.000000 0.000000 0.029406 0.000000 0.000000
# 5 0.000000 0.000000 0.000000 0.000000 0.057406 0.000000
# 6 0.000000 0.000000 0.000000 0.000000 0.000000 0.061668
#
#
# Mechanical properties :
#
#
# Convention : Reuss Voigt Hill
#
# Bulk Modulus (GPa) = 39.18945 49.20491 44.19718
# Shear Modulus (GPa) = 24.99868 31.75349 28.37608
#
# Velocity S-wave (km/s) = 3.30335 3.72299 3.51943
# Velocity P-wave (km/s) = 5.62637 6.32133 5.98395
#
# Compressibility (1/GPa) = 0.02551707
#
# Stress axis : x y z
#
# Youngs Moduli (GPa) = 155.51474 57.81736 94.83331
#
# Poissons Ratio (x) = 0.11677 0.15953
# Poissons Ratio (y) = 0.31407 0.06402
# Poissons Ratio (z) = 0.26162 0.03903
#
# Static dielectric constant tensor:
#      x y z
#    x 1.876480 0.000000 0.000000 
#    y 0.000000 1.915130 0.000000 
#    z 0.000000 0.000000 1.817120 
# 
# From -- ./inp_files/15068.got.cif
#   From: 2010.05.17/outbox.cif.g08.bks.cpg/sg21_8_cif.got.tgz:15068.got - 2010.06.03 23:14:55.
