data_PCOD9325316
_publ_section_title
;
Structure prediction by ZEFSAII (Michael W. Deem and Ramdas Pophale) SiO2 
 PCOD9325316
Probable space group: C 2 2 2
;
_chemical_formula_sum "Si O2"
_cell_formula_units_Z 24
_cell_length_a 12.001058
_cell_length_b 10.111922
_cell_length_c 8.164605
_cell_angle_alpha 90.000000
_cell_angle_beta 90.000000
_cell_angle_gamma 90.000000
_cell_volume 990.805535
_symmetry_space_group_name_H-M "C 2 2 2"
_symmetry_group_IT_number 21
_symmetry_cell_setting 'orthorhombic'
loop_
_space_group_symop_operation_xyz
x,y,z
-x,-y,z
x,-y,-z
-x,y,-z
1/2+x,1/2+y,z
1/2-x,1/2-y,z
1/2+x,1/2-y,-z
1/2-x,1/2+y,-z
loop_
_atom_site_type_symbol
_atom_site_label
_atom_site_fract_x
_atom_site_fract_y
_atom_site_fract_z
Si Si1 0.045951 0.301196 0.681858
Si Si2 0.150548 0.444322 0.180641
Si Si3 0.128070 0.973386 0.306295
O O1 0.110801 0.439321 0.695735
O O2 0.129636 0.183730 0.728263
O O3 0.000000 0.274855 0.500000
O O4 0.933676 0.324001 0.788273
O O5 0.281546 0.437628 0.214277
O O6 0.132937 0.500000 0.000000
O O7 0.142594 0.000000 0.500000
O O8 0.000000 0.000000 0.263178
#
# Coordination Sequence:
#
# PCOD9325316 Si02
#       3
#     8   8   8
#     4  11  21  44  73  95 128 176 229 281 328 391
#     4  11  25  44  66 101 138 176 221 274 343 411
#     4  11  23  45  66  99 133 170 230 280 329 394
#
# _framework density 24.222715000000001
#
# number of rings (size 3 to 8) (size 9 to 14) (size 15 to 20)
#    0.000    1.000    3.333    7.000    0.000    2.000 
#   18.000    0.000    0.000    0.000    0.000    0.000 
#    0.000    0.000    0.000    0.000    0.000    0.000 
#
# Total GULP energy -67071.765653 kJ/mol
# GULP energy per Si atom -5589.313804 kJ/mol
# Density = 2.416758 g / cm^3
# Si number density = 24.222715 Si / 1000 Ang^3
#
#
#
# Elastic Constant Matrix: (Units=GPa)
#
#
# Indices 1 2 3 4 5 6 
#
# 1 172.8882 22.4741 40.0864 0.0000 0.0000 0.0000
# 2 22.4741 82.9733 -1.7016 0.0000 0.0000 0.0000
# 3 40.0864 -1.7016 82.8295 0.0000 0.0000 0.0000
# 4 0.0000 0.0000 0.0000 -3.3773 0.0000 0.0000
# 5 0.0000 0.0000 0.0000 0.0000 8.2744 0.0000
# 6 0.0000 0.0000 0.0000 0.0000 0.0000 36.7033
#
#
#
# Elastic Compliance Matrix: (Units=1/GPa)
#
#
# Indices 1 2 3 4 5 6 
#
# 1 0.006805 -0.001912 -0.003333 0.000000 0.000000 0.000000
# 2 -0.001912 0.012594 0.001184 0.000000 0.000000 0.000000
# 3 -0.003333 0.001184 0.013710 0.000000 0.000000 0.000000
# 4 0.000000 0.000000 0.000000 -0.296095 0.000000 0.000000
# 5 0.000000 0.000000 0.000000 0.000000 0.120855 0.000000
# 6 0.000000 0.000000 0.000000 0.000000 0.000000 0.027246
#
#
# Mechanical properties :
#
#
# Convention : Reuss Voigt Hill
#
# Bulk Modulus (GPa) = 40.01823 51.15656 45.58739
# Shear Modulus (GPa) = -50.79515 26.84222 -11.97646
#
# Velocity S-wave (km/s) = -4.58427 3.33249 -2.22599
# Velocity P-wave (km/s) = 3.38585 5.99770 3.50060
#
# Compressibility (1/GPa) = 0.02498861
#
# Stress axis : x y z
#
# Youngs Moduli (GPa) = 146.94355 79.40209 72.93805
#
# Poissons Ratio (x) = 0.15179 0.24309
# Poissons Ratio (y) = 0.28090 -0.08635
# Poissons Ratio (z) = 0.48973 -0.09400
#
# Static dielectric constant tensor:
#      x y z
#    x 2.004690 0.000000 0.000000 
#    y 0.000000 2.075220 0.000000 
#    z 0.000000 0.000000 1.885420 
# 
# From -- ./inp_files/11852.got.cif
#   From: 2010.05.17/outbox.cif.g08.bks.cpg/sg21_6_cif.got.tgz:11852.got - 2010.06.03 23:14:55.
