data_PCOD9325534
_publ_section_title
;
Structure prediction by ZEFSAII (Michael W. Deem and Ramdas Pophale) SiO2 
 PCOD9325534
Probable space group: C 2 2 2
;
_chemical_formula_sum "Si O2"
_cell_formula_units_Z 38
_cell_length_a 17.300458
_cell_length_b 14.728724
_cell_length_c 7.357876
_cell_angle_alpha 90.000000
_cell_angle_beta 90.000000
_cell_angle_gamma 90.000000
_cell_volume 1874.887394
_symmetry_space_group_name_H-M "C 2 2 2"
_symmetry_group_IT_number 21
_symmetry_cell_setting 'orthorhombic'
loop_
_space_group_symop_operation_xyz
x,y,z
-x,-y,z
x,-y,-z
-x,y,-z
1/2+x,1/2+y,z
1/2-x,1/2-y,z
1/2+x,1/2-y,-z
1/2-x,1/2+y,-z
loop_
_atom_site_type_symbol
_atom_site_label
_atom_site_fract_x
_atom_site_fract_y
_atom_site_fract_z
Si Si1 0.500000 0.500000 0.500000
Si Si2 0.578953 0.817825 0.905406
Si Si3 0.064261 0.891125 0.161502
Si Si4 0.586548 0.893970 0.530818
Si Si5 0.705839 0.500000 0.000000
Si Si6 0.702421 0.157494 0.784868
O O1 0.543896 0.435573 0.355424
O O2 0.566924 0.717097 0.827741
O O3 0.605690 0.878737 0.739863
O O4 0.500000 0.850430 0.000000
O O5 0.643000 0.817003 0.057406
O O6 0.146502 0.932432 0.103137
O O7 0.000000 0.907738 0.000000
O O8 0.500000 0.853739 0.500000
O O9 0.651767 0.859663 0.394636
O O10 0.580673 0.000000 0.500000
O O11 0.752942 0.433014 0.861550
O O12 0.750000 0.250000 0.754627
#
# Coordination Sequence:
#
# PCOD9325534 Si02
#       6
#     2   8   8   8   4   8
#     4  12  22  40  72 102 134 192 240 284 344 418
#     4  11  24  46  75  99 134 187 237 289 352 421
#     4  11  24  43  71 103 141 187 239 285 353 433
#     4  11  25  47  72 103 136 182 246 291 340 426
#     4  12  23  48  67 102 154 174 228 300 357 414
#     4  12  26  46  72 103 141 187 228 297 363 415
#
# _framework density 20.267883999999999
#
# number of rings (size 3 to 8) (size 9 to 14) (size 15 to 20)
#    0.000    0.632    6.316    1.263    1.474    2.526 
#    9.474    0.000    0.000    0.000    0.000    0.000 
#    0.000    0.000    0.000    0.000    0.000    0.000 
#
# Total GULP energy -106059.473018 kJ/mol
# GULP energy per Si atom -5582.077527 kJ/mol
# Density = 2.022175 g / cm^3
# Si number density = 20.267884 Si / 1000 Ang^3
#
#
#
# Elastic Constant Matrix: (Units=GPa)
#
#
# Indices 1 2 3 4 5 6 
#
# 1 127.8500 46.5029 69.7378 0.0000 0.0000 0.0000
# 2 46.5029 102.3795 55.2184 0.0000 0.0000 0.0000
# 3 69.7378 55.2184 167.4577 0.0000 0.0000 0.0000
# 4 0.0000 0.0000 0.0000 43.6016 0.0000 0.0000
# 5 0.0000 0.0000 0.0000 0.0000 48.8221 0.0000
# 6 0.0000 0.0000 0.0000 0.0000 0.0000 8.2613
#
#
#
# Elastic Compliance Matrix: (Units=1/GPa)
#
#
# Indices 1 2 3 4 5 6 
#
# 1 0.010841 -0.003028 -0.003516 0.000000 0.000000 0.000000
# 2 -0.003028 0.012726 -0.002935 0.000000 0.000000 0.000000
# 3 -0.003516 -0.002935 0.008404 0.000000 0.000000 0.000000
# 4 0.000000 0.000000 0.000000 0.022935 0.000000 0.000000
# 5 0.000000 0.000000 0.000000 0.000000 0.020483 0.000000
# 6 0.000000 0.000000 0.000000 0.000000 0.000000 0.121047
#
#
# Mechanical properties :
#
#
# Convention : Reuss Voigt Hill
#
# Bulk Modulus (GPa) = 76.85199 82.28950 79.57074
# Shear Modulus (GPa) = 22.75505 35.21887 28.98696
#
# Velocity S-wave (km/s) = 3.35433 4.17306 3.78589
# Velocity P-wave (km/s) = 7.28028 7.99427 7.64561
#
# Compressibility (1/GPa) = 0.01301202
#
# Stress axis : x y z
#
# Youngs Moduli (GPa) = 92.24260 78.57894 118.99067
#
# Poissons Ratio (x) = 0.23791 0.41842
# Poissons Ratio (y) = 0.27928 0.34930
# Poissons Ratio (z) = 0.32436 0.23067
#
# Static dielectric constant tensor:
#      x y z
#    x 1.764450 0.000000 0.000000 
#    y 0.000000 1.712970 0.000000 
#    z 0.000000 0.000000 1.603300 
# 
# From -- ./inp_files/4863.got.cif
#   From: 2010.05.17/outbox.cif.g08.bks.cpg/sg21_3_cif.got.tgz:4863.got - 2010.06.03 23:14:55.
