data_PCOD9325082
_publ_section_title
;
Structure prediction by ZEFSAII (Michael W. Deem and Ramdas Pophale) SiO2 
 PCOD9325082
Probable space group: C 2 2 2
;
_chemical_formula_sum "Si O2"
_cell_formula_units_Z 18
_cell_length_a 20.278001
_cell_length_b 8.015622
_cell_length_c 5.100585
_cell_angle_alpha 90.000000
_cell_angle_beta 90.000000
_cell_angle_gamma 90.000000
_cell_volume 829.053120
_symmetry_space_group_name_H-M "C 2 2 2"
_symmetry_group_IT_number 21
_symmetry_cell_setting 'orthorhombic'
loop_
_space_group_symop_operation_xyz
x,y,z
-x,-y,z
x,-y,-z
-x,y,-z
1/2+x,1/2+y,z
1/2-x,1/2-y,z
1/2+x,1/2-y,-z
1/2-x,1/2+y,-z
loop_
_atom_site_type_symbol
_atom_site_label
_atom_site_fract_x
_atom_site_fract_y
_atom_site_fract_z
Si Si1 0.000000 0.500000 0.000000
Si Si2 0.775925 0.500000 0.500000
Si Si3 0.375209 0.840544 0.826360
Si Si4 0.182436 0.000000 0.000000
O O1 0.047398 0.614875 0.819312
O O2 0.828122 0.353324 0.573339
O O3 0.728555 0.474699 0.253172
O O4 0.360902 0.664544 0.955814
O O5 0.352472 0.000000 0.000000
#
# Coordination Sequence:
#
# PCOD9325082 Si02
#       4
#     2   4   8   4
#     4   8  22  48  64  98 132 186 228 278 332 398
#     4  12  26  43  70 109 136 172 230 282 346 406
#     4  10  25  44  67 100 134 185 217 288 324 413
#     4  12  27  41  74 101 141 178 226 278 356 406
#
# _framework density 21.711518000000002
#
# number of rings (size 3 to 8) (size 9 to 14) (size 15 to 20)
#    1.333    0.000    2.222    1.333   12.444    1.778 
#    0.000    0.000    0.000    2.667    0.000    0.000 
#    0.000    0.000    0.000    0.000    0.000    0.000 
#
# Total GULP energy -50151.726840 kJ/mol
# GULP energy per Si atom -5572.414093 kJ/mol
# Density = 2.166210 g / cm^3
# Si number density = 21.711518 Si / 1000 Ang^3
#
#
#
# Elastic Constant Matrix: (Units=GPa)
#
#
# Indices 1 2 3 4 5 6 
#
# 1 181.6785 80.2011 59.1732 0.0000 0.0000 0.0000
# 2 80.2011 181.7883 46.2799 0.0000 0.0000 0.0000
# 3 59.1732 46.2799 115.2260 0.0000 0.0000 0.0000
# 4 0.0000 0.0000 0.0000 32.0485 0.0000 0.0000
# 5 0.0000 0.0000 0.0000 0.0000 51.3766 0.0000
# 6 0.0000 0.0000 0.0000 0.0000 0.0000 -90.5479
#
#
#
# Elastic Compliance Matrix: (Units=1/GPa)
#
#
# Indices 1 2 3 4 5 6 
#
# 1 0.007589 -0.002624 -0.002843 0.000000 0.000000 0.000000
# 2 -0.002624 0.007035 -0.001478 0.000000 0.000000 0.000000
# 3 -0.002843 -0.001478 0.010732 0.000000 0.000000 0.000000
# 4 0.000000 0.000000 0.000000 0.031203 0.000000 0.000000
# 5 0.000000 0.000000 0.000000 0.000000 0.019464 0.000000
# 6 0.000000 0.000000 0.000000 0.000000 0.000000 -0.011044
#
#
# Mechanical properties :
#
#
# Convention : Reuss Voigt Hill
#
# Bulk Modulus (GPa) = 87.21865 94.44455 90.83160
# Shear Modulus (GPa) = 60.46615 18.11133 39.28874
#
# Velocity S-wave (km/s) = 5.28302 2.89135 4.25853
# Velocity P-wave (km/s) = 8.80185 7.39870 8.13060
#
# Compressibility (1/GPa) = 0.01146544
#
# Stress axis : x y z
#
# Youngs Moduli (GPa) = 131.77565 142.14899 93.17717
#
# Poissons Ratio (x) = 0.37302 0.26491
# Poissons Ratio (y) = 0.34580 0.13771
# Poissons Ratio (z) = 0.37465 0.21008
#
# Static dielectric constant tensor:
#      x y z
#    x 1.818750 0.000000 0.000000 
#    y 0.000000 1.745330 0.000000 
#    z 0.000000 0.000000 2.243140 
# 
# From -- ./inp_files/959.got.cif
#   From: 2010.05.17/outbox.cif.g08.bks.cpg/sg21_1_cif.got.tgz:959.got - 2010.06.03 23:14:55.
