data_PCOD9325658
_publ_section_title
;
Structure prediction by ZEFSAII (Michael W. Deem and Ramdas Pophale) SiO2 
 PCOD9325658
Probable space group: C 2 2 2
;
_chemical_formula_sum "Si O2"
_cell_formula_units_Z 22
_cell_length_a 14.787862
_cell_length_b 10.329373
_cell_length_c 5.858329
_cell_angle_alpha 90.000000
_cell_angle_beta 90.000000
_cell_angle_gamma 90.000000
_cell_volume 894.855903
_symmetry_space_group_name_H-M "C 2 2 2"
_symmetry_group_IT_number 21
_symmetry_cell_setting 'orthorhombic'
loop_
_space_group_symop_operation_xyz
x,y,z
-x,-y,z
x,-y,-z
-x,y,-z
1/2+x,1/2+y,z
1/2-x,1/2-y,z
1/2+x,1/2-y,-z
1/2-x,1/2+y,-z
loop_
_atom_site_type_symbol
_atom_site_label
_atom_site_fract_x
_atom_site_fract_y
_atom_site_fract_z
Si Si1 0.750000 0.250000 0.075049
Si Si2 0.159051 0.103278 0.292033
Si Si3 0.607950 0.149630 0.444555
Si Si4 0.500000 0.500000 0.000000
O O1 0.775768 0.126872 0.921564
O O2 0.660239 0.200492 0.215291
O O3 0.151432 0.246480 0.389996
O O4 0.173869 0.000000 0.500000
O O5 0.064026 0.075272 0.172141
O O6 0.500000 0.160905 0.500000
O O7 0.629409 0.000000 0.500000
#
# Coordination Sequence:
#
# PCOD9325658 Si02
#       4
#     4   8   8   2
#     4  12  28  48  80 118 158 208 258 324 392 456
#     4  12  26  46  76 112 153 205 266 319 381 462
#     4  11  27  51  77 112 158 205 258 319 389 469
#     4  12  26  48  80 112 152 210 258 322 388 450
#
# _framework density 24.584965
#
# number of rings (size 3 to 8) (size 9 to 14) (size 15 to 20)
#    0.000    0.364    0.000    8.182    0.000   16.000 
#    0.000    3.636    0.000    4.364    0.000    0.000 
#    0.000    0.000    0.000    0.000    0.000    0.000 
#
# Total GULP energy -61323.135748 kJ/mol
# GULP energy per Si atom -5574.830523 kJ/mol
# Density = 2.452901 g / cm^3
# Si number density = 24.584965 Si / 1000 Ang^3
#
#
#
# Elastic Constant Matrix: (Units=GPa)
#
#
# Indices 1 2 3 4 5 6 
#
# 1 208.8237 65.6834 99.2260 0.0000 0.0000 0.0000
# 2 65.6834 219.2736 88.4305 0.0000 0.0000 0.0000
# 3 99.2260 88.4305 168.3628 0.0000 0.0000 0.0000
# 4 0.0000 0.0000 0.0000 2.1492 0.0000 0.0000
# 5 0.0000 0.0000 0.0000 0.0000 -25.8790 0.0000
# 6 0.0000 0.0000 0.0000 0.0000 0.0000 77.7657
#
#
#
# Elastic Compliance Matrix: (Units=1/GPa)
#
#
# Indices 1 2 3 4 5 6 
#
# 1 0.006699 -0.000526 -0.003672 0.000000 0.000000 0.000000
# 2 -0.000526 0.005827 -0.002751 0.000000 0.000000 0.000000
# 3 -0.003672 -0.002751 0.009548 0.000000 0.000000 0.000000
# 4 0.000000 0.000000 0.000000 0.465291 0.000000 0.000000
# 5 0.000000 0.000000 0.000000 0.000000 -0.038641 0.000000
# 6 0.000000 0.000000 0.000000 0.000000 0.000000 0.012859
#
#
# Mechanical properties :
#
#
# Convention : Reuss Voigt Hill
#
# Bulk Modulus (GPa) = 122.28483 122.57108 122.42795
# Shear Modulus (GPa) = 10.45574 33.68186 22.06880
#
# Velocity S-wave (km/s) = 2.06449 3.70539 2.99934
# Velocity P-wave (km/s) = 7.45188 8.26262 7.86770
#
# Compressibility (1/GPa) = 0.00817763
#
# Stress axis : x y z
#
# Youngs Moduli (GPa) = 149.27913 171.60246 104.72905
#
# Poissons Ratio (x) = 0.09023 0.38455
# Poissons Ratio (y) = 0.07850 0.28810
# Poissons Ratio (z) = 0.54813 0.47206
#
# Static dielectric constant tensor:
#      x y z
#    x 2.063810 0.000000 0.000000 
#    y 0.000000 1.938970 0.000000 
#    z 0.000000 0.000000 2.074840 
# 
# From -- ./inp_files/3112.got.cif
#   From: 2010.05.17/outbox.cif.g08.bks.cpg/sg21_2_cif.got.tgz:3112.got - 2010.06.03 23:14:55.
