data_PCOD9325206
_publ_section_title
;
Structure prediction by ZEFSAII (Michael W. Deem and Ramdas Pophale) SiO2 
 PCOD9325206
Probable space group: C 2 2 2
;
_chemical_formula_sum "Si O2"
_cell_formula_units_Z 46
_cell_length_a 14.751713
_cell_length_b 12.405294
_cell_length_c 11.863443
_cell_angle_alpha 90.000000
_cell_angle_beta 90.000000
_cell_angle_gamma 90.000000
_cell_volume 2171.002201
_symmetry_space_group_name_H-M "C 2 2 2"
_symmetry_group_IT_number 21
_symmetry_cell_setting 'orthorhombic'
loop_
_space_group_symop_operation_xyz
x,y,z
-x,-y,z
x,-y,-z
-x,y,-z
1/2+x,1/2+y,z
1/2-x,1/2-y,z
1/2+x,1/2-y,-z
1/2-x,1/2+y,-z
loop_
_atom_site_type_symbol
_atom_site_label
_atom_site_fract_x
_atom_site_fract_y
_atom_site_fract_z
Si Si1 0.691983 0.078570 0.267458
Si Si2 0.349434 0.000000 0.500000
Si Si3 0.445608 0.732562 0.265989
Si Si4 0.000000 0.500000 0.000000
Si Si5 0.500000 0.811810 0.500000
Si Si6 0.750000 0.750000 0.071664
Si Si7 0.896353 0.618181 0.176906
Si Si8 0.354294 0.593528 0.090705
O O1 0.711932 0.042881 0.395860
O O2 0.646318 0.195583 0.257986
O O3 0.769323 0.065676 0.173600
O O4 0.611406 0.993904 0.242093
O O5 0.416643 0.896760 0.524738
O O6 0.467230 0.734021 0.399009
O O7 0.531960 0.798805 0.223176
O O8 0.429440 0.633196 0.181091
O O9 0.067333 0.418992 0.058456
O O10 0.799459 0.668253 0.155076
O O11 0.678567 0.691069 0.990110
O O12 0.376652 0.500000 0.000000
#
# Coordination Sequence:
#
# PCOD9325206 Si02
#       8
#     8   4   8   2   4   4   8   8
#     4  11  19  38  65  98 136 170 220 282 337 388
#     4   9  18  32  62 102 132 167 216 288 339 384
#     4  11  21  39  65 100 130 179 223 279 338 397
#     4  12  20  32  60  90 118 166 220 268 326 400
#     4   9  18  34  62  98 137 162 224 285 337 396
#     4  12  24  40  56  94 134 170 210 276 330 398
#     4  12  22  37  61  95 127 171 223 271 331 396
#     4  12  24  41  64  95 143 179 219 273 342 408
#
# _framework density 21.188372999999999
#
# number of rings (size 3 to 8) (size 9 to 14) (size 15 to 20)
#    0.000    0.870    6.957    2.087    0.000    0.000 
#    0.000    3.478    0.000    0.000    0.000    0.000 
#    0.000    0.000    0.000    0.000    0.000    0.000 
#
# Total GULP energy -128136.480634 kJ/mol
# GULP energy per Si atom -5571.151332 kJ/mol
# Density = 2.114015 g / cm^3
# Si number density = 21.188373 Si / 1000 Ang^3
#
#
#
# Elastic Constant Matrix: (Units=GPa)
#
#
# Indices 1 2 3 4 5 6 
#
# 1 39.5664 6.1525 24.8794 0.0000 0.0000 0.0000
# 2 6.1525 65.6766 48.7339 0.0000 0.0000 0.0000
# 3 24.8794 48.7339 102.7356 0.0000 0.0000 0.0000
# 4 0.0000 0.0000 0.0000 1.0129 0.0000 0.0000
# 5 0.0000 0.0000 0.0000 0.0000 23.7396 0.0000
# 6 0.0000 0.0000 0.0000 0.0000 0.0000 28.0017
#
#
#
# Elastic Compliance Matrix: (Units=1/GPa)
#
#
# Indices 1 2 3 4 5 6 
#
# 1 0.030496 0.004048 -0.009305 0.000000 0.000000 0.000000
# 2 0.004048 0.024034 -0.012381 0.000000 0.000000 0.000000
# 3 -0.009305 -0.012381 0.017860 0.000000 0.000000 0.000000
# 4 0.000000 0.000000 0.000000 0.987247 0.000000 0.000000
# 5 0.000000 0.000000 0.000000 0.000000 0.042124 0.000000
# 6 0.000000 0.000000 0.000000 0.000000 0.000000 0.035712
#
#
# Mechanical properties :
#
#
# Convention : Reuss Voigt Hill
#
# Bulk Modulus (GPa) = 26.94466 40.83450 33.88958
# Shear Modulus (GPa) = 4.21898 19.09838 11.65868
#
# Velocity S-wave (km/s) = 1.41262 3.00553 2.34826
# Velocity P-wave (km/s) = 3.92492 5.59984 4.83545
#
# Compressibility (1/GPa) = 0.03711311
#
# Stress axis : x y z
#
# Youngs Moduli (GPa) = 32.79152 41.60761 55.98999
#
# Poissons Ratio (x) = -0.16843 0.52101
# Poissons Ratio (y) = -0.13274 0.69322
# Poissons Ratio (z) = 0.30514 0.51515
#
# Static dielectric constant tensor:
#      x y z
#    x 2.104830 0.000000 0.000000 
#    y 0.000000 1.744330 0.000000 
#    z 0.000000 0.000000 1.885880 
# 
# From -- ./inp_files/26107.got.cif
#   From: 2010.05.17/outbox.cif.g08.bks.cpg/sg21_14_cif.got.tgz:26107.got - 2010.06.03 23:14:55.
