data_PCOD9325591
_publ_section_title
;
Structure prediction by ZEFSAII (Michael W. Deem and Ramdas Pophale) SiO2 
 PCOD9325591
Probable space group: C 2 2 2
;
_chemical_formula_sum "Si O2"
_cell_formula_units_Z 34
_cell_length_a 12.080322
_cell_length_b 11.534841
_cell_length_c 10.559152
_cell_angle_alpha 90.000000
_cell_angle_beta 90.000000
_cell_angle_gamma 90.000000
_cell_volume 1471.360743
_symmetry_space_group_name_H-M "C 2 2 2"
_symmetry_group_IT_number 21
_symmetry_cell_setting 'orthorhombic'
loop_
_space_group_symop_operation_xyz
x,y,z
-x,-y,z
x,-y,-z
-x,y,-z
1/2+x,1/2+y,z
1/2-x,1/2-y,z
1/2+x,1/2-y,-z
1/2-x,1/2+y,-z
loop_
_atom_site_type_symbol
_atom_site_label
_atom_site_fract_x
_atom_site_fract_y
_atom_site_fract_z
Si Si1 0.671977 0.067389 0.863835
Si Si2 0.102380 0.818018 0.832226
Si Si3 0.000000 0.000000 0.000000
Si Si4 0.825249 0.577166 0.622556
Si Si5 0.922013 0.166083 0.383279
O O1 0.777843 0.131249 0.793656
O O2 0.600512 0.185025 0.877435
O O3 0.635270 0.978343 0.754911
O O4 0.681218 0.000000 0.000000
O O5 0.003078 0.840980 0.735988
O O6 0.082685 0.908024 0.942241
O O7 0.850340 0.500000 0.500000
O O8 0.881695 0.701441 0.602840
O O9 0.691737 0.595326 0.629864
O O10 0.000000 0.133302 0.500000
#
# Coordination Sequence:
#
# PCOD9325591 Si02
#       5
#     8   8   2   8   8
#     4  11  25  45  69 105 144 185 234 299 355 420
#     4  11  25  43  71  98 142 185 236 286 355 424
#     4  12  24  44  64 100 132 190 232 280 340 436
#     4  11  25  45  70 102 147 186 240 303 350 420
#     4  11  25  44  71 105 138 191 244 289 360 424
#
# _framework density 23.107861
#
# number of rings (size 3 to 8) (size 9 to 14) (size 15 to 20)
#    0.000    0.941    1.176    4.235    3.294   11.294 
#    0.000    0.000    0.000    0.000    0.000    0.000 
#    0.000    0.000    0.000    0.000    0.000    0.000 
#
# Total GULP energy -94827.299497 kJ/mol
# GULP energy per Si atom -5578.076441 kJ/mol
# Density = 2.305527 g / cm^3
# Si number density = 23.107861 Si / 1000 Ang^3
#
#
#
# Elastic Constant Matrix: (Units=GPa)
#
#
# Indices 1 2 3 4 5 6 
#
# 1 57.5850 7.5704 -9.4059 0.0000 0.0000 0.0000
# 2 7.5704 152.1331 50.4555 0.0000 0.0000 0.0000
# 3 -9.4059 50.4555 73.2264 0.0000 0.0000 0.0000
# 4 0.0000 0.0000 0.0000 -627.3251 0.0000 0.0000
# 5 0.0000 0.0000 0.0000 0.0000 25.9197 0.0000
# 6 0.0000 0.0000 0.0000 0.0000 0.0000 79.3240
#
#
#
# Elastic Compliance Matrix: (Units=1/GPa)
#
#
# Indices 1 2 3 4 5 6 
#
# 1 0.018283 -0.002189 0.003857 0.000000 0.000000 0.000000
# 2 -0.002189 0.008782 -0.006332 0.000000 0.000000 0.000000
# 3 0.003857 -0.006332 0.018515 0.000000 0.000000 0.000000
# 4 0.000000 0.000000 0.000000 -0.001594 0.000000 0.000000
# 5 0.000000 0.000000 0.000000 0.000000 0.038581 0.000000
# 6 0.000000 0.000000 0.000000 0.000000 0.000000 0.012607
#
#
# Mechanical properties :
#
#
# Convention : Reuss Voigt Hill
#
# Bulk Modulus (GPa) = 27.58520 42.24271 34.91396
# Shear Modulus (GPa) = 42.88648 -88.79464 -22.95408
#
# Velocity S-wave (km/s) = 4.31272 -6.20561 -3.15516
# Velocity P-wave (km/s) = 6.06324 5.74680 1.36696
#
# Compressibility (1/GPa) = 0.03625132
#
# Stress axis : x y z
#
# Youngs Moduli (GPa) = 54.69454 113.86526 54.01032
#
# Poissons Ratio (x) = 0.24924 -0.20830
# Poissons Ratio (y) = 0.11972 0.34202
# Poissons Ratio (z) = -0.21094 0.72105
#
# Static dielectric constant tensor:
#      x y z
#    x 19.391290 0.000000 0.000000 
#    y 0.000000 1.808910 0.000000 
#    z 0.000000 0.000000 1.546220 
# 
# From -- ./inp_files/23466.got.cif
#   From: 2010.05.17/outbox.cif.g08.bks.cpg/sg21_12_cif.got.tgz:23466.got - 2010.06.03 23:14:55.
