data_PCOD9325581
_publ_section_title
;
Structure prediction by ZEFSAII (Michael W. Deem and Ramdas Pophale) SiO2 
 PCOD9325581
Probable space group: C 2 2 2
;
_chemical_formula_sum "Si O2"
_cell_formula_units_Z 32
_cell_length_a 21.204429
_cell_length_b 12.757881
_cell_length_c 4.900981
_cell_angle_alpha 90.000000
_cell_angle_beta 90.000000
_cell_angle_gamma 90.000000
_cell_volume 1325.830935
_symmetry_space_group_name_H-M "C 2 2 2"
_symmetry_group_IT_number 21
_symmetry_cell_setting 'orthorhombic'
loop_
_space_group_symop_operation_xyz
x,y,z
-x,-y,z
x,-y,-z
-x,y,-z
1/2+x,1/2+y,z
1/2-x,1/2-y,z
1/2+x,1/2-y,-z
1/2-x,1/2+y,-z
loop_
_atom_site_type_symbol
_atom_site_label
_atom_site_fract_x
_atom_site_fract_y
_atom_site_fract_z
Si Si1 0.685906 0.768082 0.923431
Si Si2 0.332276 0.570767 0.735864
Si Si3 0.925408 0.221253 0.502046
Si Si4 0.620386 0.932286 0.229120
O O1 0.750000 0.750000 0.752752
O O2 0.621822 0.742251 0.756392
O O3 0.694383 0.681480 0.159597
O O4 0.677901 0.882982 0.053269
O O5 0.301062 0.500000 0.500000
O O6 0.398385 0.613327 0.620929
O O7 0.338585 0.500000 0.000000
O O8 0.914135 0.326982 0.677026
O O9 0.000000 0.211436 0.500000
O O10 0.633870 0.000000 0.500000
O O11 0.584587 0.000000 0.000000
#
# Coordination Sequence:
#
# PCOD9325581 Si02
#       4
#     8   8   8   8
#     4  11  26  48  75 108 153 199 250 308 372 445
#     4  11  24  49  71 110 144 194 245 306 370 440
#     4  11  26  49  74 108 151 191 250 312 368 439
#     4  11  24  49  71 110 144 194 245 306 370 440
#
# _framework density 24.135809999999999
#
# number of rings (size 3 to 8) (size 9 to 14) (size 15 to 20)
#    0.000    1.000    5.000    0.000    0.000   11.000 
#    9.000    0.000    0.000    0.000    0.000    0.000 
#    0.000    0.000    0.000    0.000    0.000    0.000 
#
# Total GULP energy -89244.676368 kJ/mol
# GULP energy per Si atom -5577.792273 kJ/mol
# Density = 2.408088 g / cm^3
# Si number density = 24.135810 Si / 1000 Ang^3
#
#
#
# Elastic Constant Matrix: (Units=GPa)
#
#
# Indices 1 2 3 4 5 6 
#
# 1 115.8015 2.6358 27.9950 0.0000 0.0000 0.0000
# 2 2.6358 162.6757 67.8409 0.0000 0.0000 0.0000
# 3 27.9950 67.8409 169.8722 0.0000 0.0000 0.0000
# 4 0.0000 0.0000 0.0000 68.3905 0.0000 0.0000
# 5 0.0000 0.0000 0.0000 0.0000 8.7812 0.0000
# 6 0.0000 0.0000 0.0000 0.0000 0.0000 5.4475
#
#
#
# Elastic Compliance Matrix: (Units=1/GPa)
#
#
# Indices 1 2 3 4 5 6 
#
# 1 0.009038 0.000570 -0.001717 0.000000 0.000000 0.000000
# 2 0.000570 0.007411 -0.003054 0.000000 0.000000 0.000000
# 3 -0.001717 -0.003054 0.007389 0.000000 0.000000 0.000000
# 4 0.000000 0.000000 0.000000 0.014622 0.000000 0.000000
# 5 0.000000 0.000000 0.000000 0.000000 0.113879 0.000000
# 6 0.000000 0.000000 0.000000 0.000000 0.000000 0.183570
#
#
# Mechanical properties :
#
#
# Convention : Reuss Voigt Hill
#
# Bulk Modulus (GPa) = 64.78271 71.69919 68.24095
# Shear Modulus (GPa) = 14.30793 39.84903 27.07848
#
# Velocity S-wave (km/s) = 2.43741 4.06770 3.35314
# Velocity P-wave (km/s) = 5.90089 7.19949 6.58229
#
# Compressibility (1/GPa) = 0.01543622
#
# Stress axis : x y z
#
# Youngs Moduli (GPa) = 110.64941 134.92589 135.33134
#
# Poissons Ratio (x) = -0.07685 0.23234
# Poissons Ratio (y) = -0.06302 0.41327
# Poissons Ratio (z) = 0.18997 0.41203
#
# Static dielectric constant tensor:
#      x y z
#    x 2.090940 0.000000 0.000000 
#    y 0.000000 2.005790 0.000000 
#    z 0.000000 0.000000 2.025500 
# 
# From -- ./inp_files/5592.got.cif
#   From: 2010.05.17/outbox.cif.g08.bks.cpg/sg21_3_cif.got.tgz:5592.got - 2010.06.03 23:14:55.
