data_PCOD9325406
_publ_section_title
;
Structure prediction by ZEFSAII (Michael W. Deem and Ramdas Pophale) SiO2 
 PCOD9325406
Probable space group: C 2 2 2
;
_chemical_formula_sum "Si O2"
_cell_formula_units_Z 32
_cell_length_a 9.900203
_cell_length_b 19.587992
_cell_length_c 8.180982
_cell_angle_alpha 90.000000
_cell_angle_beta 90.000000
_cell_angle_gamma 90.000000
_cell_volume 1586.497729
_symmetry_space_group_name_H-M "C 2 2 2"
_symmetry_group_IT_number 21
_symmetry_cell_setting 'orthorhombic'
loop_
_space_group_symop_operation_xyz
x,y,z
-x,-y,z
x,-y,-z
-x,y,-z
1/2+x,1/2+y,z
1/2-x,1/2-y,z
1/2+x,1/2-y,-z
1/2-x,1/2+y,-z
loop_
_atom_site_type_symbol
_atom_site_label
_atom_site_fract_x
_atom_site_fract_y
_atom_site_fract_z
Si Si1 0.676044 0.332713 0.822020
Si Si2 0.726616 0.171898 0.193544
Si Si3 0.961751 0.920296 0.680762
Si Si4 0.944428 0.691925 0.316579
O O1 0.564642 0.389857 0.811433
O O2 0.803056 0.347619 0.703219
O O3 0.598939 0.264747 0.760083
O O4 0.730821 0.325629 0.004489
O O5 0.750000 0.250000 0.260459
O O6 0.816514 0.112920 0.277536
O O7 0.567563 0.160299 0.215220
O O8 0.000000 0.893709 0.500000
O O9 0.000000 0.000000 0.679136
O O10 0.000000 0.698180 0.500000
#
# Coordination Sequence:
#
# PCOD9325406 Si02
#       4
#     8   8   8   8
#     4  11  23  38  61  94 130 170 211 268 329 387
#     4  12  23  38  64  96 132 167 215 273 325 386
#     4  11  25  45  67  94 131 178 222 266 327 401
#     4  11  23  37  60  94 128 165 212 269 325 374
#
# _framework density 20.170214000000001
#
# number of rings (size 3 to 8) (size 9 to 14) (size 15 to 20)
#    0.000    0.750    5.000    3.750    3.500    2.000 
#    0.000    1.250    0.000    7.500    0.000    0.000 
#    0.000    0.000    0.000    0.000    0.000    0.000 
#
# Total GULP energy -89294.994433 kJ/mol
# GULP energy per Si atom -5580.937152 kJ/mol
# Density = 2.012431 g / cm^3
# Si number density = 20.170214 Si / 1000 Ang^3
#
#
#
# Elastic Constant Matrix: (Units=GPa)
#
#
# Indices 1 2 3 4 5 6 
#
# 1 178.7942 40.6702 48.0775 0.0000 0.0000 0.0000
# 2 40.6702 49.0879 11.9420 0.0000 0.0000 0.0000
# 3 48.0775 11.9420 116.0363 0.0000 0.0000 0.0000
# 4 0.0000 0.0000 0.0000 16.7173 0.0000 0.0000
# 5 0.0000 0.0000 0.0000 0.0000 39.7049 0.0000
# 6 0.0000 0.0000 0.0000 0.0000 0.0000 25.5213
#
#
#
# Elastic Compliance Matrix: (Units=1/GPa)
#
#
# Indices 1 2 3 4 5 6 
#
# 1 0.007564 -0.005646 -0.002553 0.000000 0.000000 0.000000
# 2 -0.005646 0.025109 -0.000245 0.000000 0.000000 0.000000
# 3 -0.002553 -0.000245 0.009701 0.000000 0.000000 0.000000
# 4 0.000000 0.000000 0.000000 0.059818 0.000000 0.000000
# 5 0.000000 0.000000 0.000000 0.000000 0.025186 0.000000
# 6 0.000000 0.000000 0.000000 0.000000 0.000000 0.039183
#
#
# Mechanical properties :
#
#
# Convention : Reuss Voigt Hill
#
# Bulk Modulus (GPa) = 39.23640 60.58864 49.91252
# Shear Modulus (GPa) = 26.04944 32.60394 29.32669
#
# Velocity S-wave (km/s) = 3.59762 4.02486 3.81722
# Velocity P-wave (km/s) = 6.06234 7.19049 6.65038
#
# Compressibility (1/GPa) = 0.02548654
#
# Stress axis : x y z
#
# Youngs Moduli (GPa) = 132.21071 39.82685 103.08290
#
# Poissons Ratio (x) = 0.22485 0.26316
# Poissons Ratio (y) = 0.74641 0.02525
# Poissons Ratio (z) = 0.33751 0.00975
#
# Static dielectric constant tensor:
#      x y z
#    x 1.751730 0.000000 0.000000 
#    y 0.000000 1.789200 0.000000 
#    z 0.000000 0.000000 1.770680 
# 
# From -- ./inp_files/10393.got.cif
#   From: 2010.05.17/outbox.cif.g08.bks.cpg/sg21_6_cif.got.tgz:10393.got - 2010.06.03 23:14:55.
