data_PCOD9325914
_publ_section_title
;
Structure prediction by ZEFSAII (Michael W. Deem and Ramdas Pophale) SiO2 
 PCOD9325914
Probable space group: F 2 2 2
;
_chemical_formula_sum "Si O2"
_cell_formula_units_Z 84
_cell_length_a 21.823961
_cell_length_b 7.447904
_cell_length_c 25.396888
_cell_angle_alpha 90.000000
_cell_angle_beta 90.000000
_cell_angle_gamma 90.000000
_cell_volume 4128.080434
_symmetry_space_group_name_H-M "F 2 2 2"
_symmetry_group_IT_number 22
_symmetry_cell_setting 'orthorhombic'
loop_
_space_group_symop_operation_xyz
x,y,z
-x,-y,z
x,-y,-z
-x,y,-z
x,1/2+y,1/2+z
-x,1/2-y,1/2+z
x,1/2-y,1/2-z
-x,1/2+y,1/2-z
1/2+x,y,1/2+z
1/2-x,-y,1/2+z
1/2+x,-y,1/2-z
1/2-x,y,1/2-z
1/2+x,1/2+y,z
1/2-x,1/2-y,z
1/2+x,1/2-y,-z
1/2-x,1/2+y,-z
loop_
_atom_site_type_symbol
_atom_site_label
_atom_site_fract_x
_atom_site_fract_y
_atom_site_fract_z
Si Si1 0.250000 0.250000 0.585302
Si Si2 0.068267 0.076224 0.920975
Si Si3 0.105031 0.258524 0.031785
Si Si4 0.324452 0.536270 0.749515
Si Si5 0.284086 0.500000 0.500000
Si Si6 0.000000 0.000000 0.500000
Si Si7 0.138309 0.751895 0.335671
O O1 0.244427 0.416314 0.545939
O O2 0.191336 0.229635 0.621151
O O3 0.079391 0.201148 0.870693
O O4 0.107401 0.892366 0.923644
O O5 0.088101 0.176746 0.974336
O O6 0.000000 0.000000 0.925770
O O7 0.169009 0.358168 0.025591
O O8 0.046866 0.390982 0.037477
O O9 0.337556 0.750000 0.750000
O O10 0.250000 0.515117 0.750000
O O11 0.347717 0.421021 0.799266
O O12 0.355320 0.428973 0.700504
#
# Coordination Sequence:
#
# PCOD9325914 Si02
#       7
#     8  16  16  16   8   4  16
#     4  12  24  41  54  94 138 173 198 260 328 388
#     4  11  21  39  61  90 124 177 220 266 318 381
#     4  10  20  37  56  84 127 175 223 255 301 375
#     4  10  21  43  70  99 118 160 217 269 328 410
#     4  11  26  35  54  88 137 174 207 262 316 382
#     4  10  16  34  56  80 116 162 222 280 270 346
#     4  11  22  41  67  92 131 163 213 277 328 387
#
# _framework density 20.348441000000001
#
# number of rings (size 3 to 8) (size 9 to 14) (size 15 to 20)
#    0.000    1.333    5.714    1.143    2.667    1.524 
#    0.000    0.000    4.190    0.000    0.000    0.000 
#    0.000    0.000    0.000    0.000    0.000    0.000 
#
# Total GULP energy -117175.346061 kJ/mol
# GULP energy per Si atom -5579.778384 kJ/mol
# Density = 2.030213 g / cm^3
# Si number density = 20.348441 Si / 1000 Ang^3
#
#
#
# Elastic Constant Matrix: (Units=GPa)
#
#
# Indices 1 2 3 4 5 6 
#
# 1 31.6300 11.6244 9.3077 0.0000 0.0000 -0.0001
# 2 11.6244 125.8824 47.8133 0.0000 0.0000 -0.0001
# 3 9.3077 47.8133 104.7288 0.0000 0.0000 0.0000
# 4 0.0000 0.0000 0.0000 19.9228 0.0000 0.0000
# 5 0.0000 0.0000 0.0000 0.0000 -7.8882 0.0000
# 6 -0.0001 -0.0001 0.0000 0.0000 0.0000 29.7498
#
#
#
# Elastic Compliance Matrix: (Units=1/GPa)
#
#
# Indices 1 2 3 4 5 6 
#
# 1 0.033025 -0.002341 -0.001866 0.000000 0.000000 0.000000
# 2 -0.002341 0.009776 -0.004255 0.000000 0.000000 0.000000
# 3 -0.001866 -0.004255 0.011657 0.000000 0.000000 0.000000
# 4 0.000000 0.000000 0.000000 0.050194 0.000000 0.000000
# 5 0.000000 0.000000 0.000000 0.000000 -0.126771 0.000000
# 6 0.000000 0.000000 0.000000 0.000000 0.000000 0.033614
#
#
# Mechanical properties :
#
#
# Convention : Reuss Voigt Hill
#
# Bulk Modulus (GPa) = 26.64281 44.41465 35.52873
# Shear Modulus (GPa) = 122.15706 21.25660 71.70683
#
# Velocity S-wave (km/s) = 7.75648 3.23558 5.94272
# Velocity P-wave (km/s) = 9.66121 5.98607 8.03654
#
# Compressibility (1/GPa) = 0.03753359
#
# Stress axis : x y z
#
# Youngs Moduli (GPa) = 30.28004 102.28781 85.78484
#
# Poissons Ratio (x) = 0.23943 0.16011
# Poissons Ratio (y) = 0.07088 0.36504
# Poissons Ratio (z) = 0.05652 0.43526
#
# Static dielectric constant tensor:
#      x y z
#    x 1.740550 0.000000 0.000000 
#    y 0.000000 1.890980 0.000000 
#    z 0.000000 0.000000 1.702840 
# 
# From -- ./inp_files/49766.got.cif
#   From: 2010.05.17/outbox.cif.g08.bks.cpg/sg22_25_cif.got.tgz:49766.got - 2010.06.03 23:40:54.
