data_PCOD9325019
_publ_section_title
;
Structure prediction by ZEFSAII (Michael W. Deem and Ramdas Pophale) SiO2 
 PCOD9325019
Probable space group: C 2 2 2
;
_chemical_formula_sum "Si O2"
_cell_formula_units_Z 40
_cell_length_a 6.152521
_cell_length_b 18.082030
_cell_length_c 16.873078
_cell_angle_alpha 90.000000
_cell_angle_beta 90.000000
_cell_angle_gamma 90.000000
_cell_volume 1877.131097
_symmetry_space_group_name_H-M "C 2 2 2"
_symmetry_group_IT_number 21
_symmetry_cell_setting 'orthorhombic'
loop_
_space_group_symop_operation_xyz
x,y,z
-x,-y,z
x,-y,-z
-x,y,-z
1/2+x,1/2+y,z
1/2-x,1/2-y,z
1/2+x,1/2-y,-z
1/2-x,1/2+y,-z
loop_
_atom_site_type_symbol
_atom_site_label
_atom_site_fract_x
_atom_site_fract_y
_atom_site_fract_z
Si Si1 0.176679 0.673153 0.943064
Si Si2 0.010009 0.087701 0.165784
Si Si3 0.735259 0.161186 0.685921
Si Si4 0.248314 0.024600 0.408902
Si Si5 0.881518 0.322071 0.201889
O O1 0.250000 0.750000 0.984000
O O2 0.357998 0.618167 0.910042
O O3 0.057355 0.700669 0.863197
O O4 0.000000 0.636801 0.000000
O O5 0.110356 0.126445 0.245062
O O6 0.768340 0.118076 0.161256
O O7 0.000000 0.000000 0.171664
O O8 0.750000 0.250000 0.678476
O O9 0.760795 0.112424 0.608016
O O10 0.497153 0.146550 0.721626
O O11 0.500000 0.000000 0.380287
O O12 0.247288 0.000000 0.500000
O O13 0.000000 0.000000 0.377907
O O14 0.750000 0.250000 0.223972
#
# Coordination Sequence:
#
# PCOD9325019 Si02
#       5
#     8   8   8   8   8
#     4  11  23  39  66  91 121 179 233 280 353 427
#     4  11  24  41  63  97 134 171 223 295 356 416
#     4  11  23  38  67 103 132 178 232 289 349 416
#     4  10  24  46  69 101 144 186 229 281 354 430
#     4  11  20  40  64  96 132 166 231 293 344 420
#
# _framework density 21.309114999999998
#
# number of rings (size 3 to 8) (size 9 to 14) (size 15 to 20)
#    0.000    1.200    4.000    2.400    5.600    2.400 
#    0.000    7.000    0.000    0.000    0.000    0.000 
#    0.000    0.000    0.000    0.000    0.000    0.000 
#
# Total GULP energy -111395.069793 kJ/mol
# GULP energy per Si atom -5569.753490 kJ/mol
# Density = 2.126061 g / cm^3
# Si number density = 21.309115 Si / 1000 Ang^3
#
#
#
# Elastic Constant Matrix: (Units=GPa)
#
#
# Indices 1 2 3 4 5 6 
#
# 1 126.3111 58.8075 17.2138 0.0000 0.0000 0.0000
# 2 58.8075 170.0069 48.4348 0.0000 0.0000 0.0000
# 3 17.2138 48.4348 74.7804 0.0000 0.0000 0.0000
# 4 0.0000 0.0000 0.0000 68.6462 0.0000 0.0000
# 5 0.0000 0.0000 0.0000 0.0000 0.6197 0.0000
# 6 0.0000 0.0000 0.0000 0.0000 0.0000 22.3804
#
#
#
# Elastic Compliance Matrix: (Units=1/GPa)
#
#
# Indices 1 2 3 4 5 6 
#
# 1 0.009437 -0.003244 -0.000071 0.000000 0.000000 0.000000
# 2 -0.003244 0.008328 -0.004647 0.000000 0.000000 0.000000
# 3 -0.000071 -0.004647 0.016399 0.000000 0.000000 0.000000
# 4 0.000000 0.000000 0.000000 0.014567 0.000000 0.000000
# 5 0.000000 0.000000 0.000000 0.000000 1.613711 0.000000
# 6 0.000000 0.000000 0.000000 0.000000 0.000000 0.044682
#
#
# Mechanical properties :
#
#
# Convention : Reuss Voigt Hill
#
# Bulk Modulus (GPa) = 54.82762 68.89007 61.85885
# Shear Modulus (GPa) = 2.89163 34.77206 18.83184
#
# Velocity S-wave (km/s) = 1.16616 4.04393 2.97601
# Velocity P-wave (km/s) = 5.25345 7.36231 6.39540
#
# Compressibility (1/GPa) = 0.01823898
#
# Stress axis : x y z
#
# Youngs Moduli (GPa) = 105.96542 120.07170 60.97932
#
# Poissons Ratio (x) = 0.38953 0.00434
# Poissons Ratio (y) = 0.34377 0.28340
# Poissons Ratio (z) = 0.00754 0.55803
#
# Static dielectric constant tensor:
#      x y z
#    x 1.687350 0.000000 0.000000 
#    y 0.000000 1.868300 0.000000 
#    z 0.000000 0.000000 1.772730 
# 
# From -- ./inp_files/34667.got.cif
#   From: 2010.05.17/outbox.cif.g08.bks.cpg/sg21_18_cif.got.tgz:34667.got - 2010.06.03 23:14:55.
