data_PCOD9325428
_publ_section_title
;
Structure prediction by ZEFSAII (Michael W. Deem and Ramdas Pophale) SiO2 
 PCOD9325428
Probable space group: C 2 2 2
;
_chemical_formula_sum "Si O2"
_cell_formula_units_Z 24
_cell_length_a 12.188059
_cell_length_b 8.998809
_cell_length_c 9.940398
_cell_angle_alpha 90.000000
_cell_angle_beta 90.000000
_cell_angle_gamma 90.000000
_cell_volume 1090.243121
_symmetry_space_group_name_H-M "C 2 2 2"
_symmetry_group_IT_number 21
_symmetry_cell_setting 'orthorhombic'
loop_
_space_group_symop_operation_xyz
x,y,z
-x,-y,z
x,-y,-z
-x,y,-z
1/2+x,1/2+y,z
1/2-x,1/2-y,z
1/2+x,1/2-y,-z
1/2-x,1/2+y,-z
loop_
_atom_site_type_symbol
_atom_site_label
_atom_site_fract_x
_atom_site_fract_y
_atom_site_fract_z
Si Si1 0.296999 0.093541 0.391301
Si Si2 0.264422 0.427337 0.857599
Si Si3 0.000000 0.244150 0.500000
Si Si4 0.500000 0.500000 0.268720
O O1 0.250000 0.250000 0.341644
O O2 0.395787 0.150428 0.483727
O O3 0.224394 0.000000 0.500000
O O4 0.311477 0.993554 0.261009
O O5 0.250000 0.250000 0.861580
O O6 0.388569 0.478683 0.816942
O O7 0.236901 0.500000 0.000000
O O8 0.001357 0.142165 0.367546
#
# Coordination Sequence:
#
# PCOD9325428 Si02
#       4
#     8   8   4   4
#     4  12  23  42  70 107 144 191 248 314 374 443
#     4  12  27  48  76 108 155 207 255 314 390 465
#     4  11  23  40  76 110 144 188 256 316 370 450
#     4  11  23  46  74 112 146 200 250 320 396 440
#
# _framework density 22.013437
#
# number of rings (size 3 to 8) (size 9 to 14) (size 15 to 20)
#    0.000    0.333    3.333    7.000    0.000    0.000 
#    0.000    0.000    0.000    0.000    0.000    0.000 
#    0.000    0.000    0.000    0.000    0.000    0.000 
#
# Total GULP energy -67054.843695 kJ/mol
# GULP energy per Si atom -5587.903641 kJ/mol
# Density = 2.196333 g / cm^3
# Si number density = 22.013437 Si / 1000 Ang^3
#
#
#
# Elastic Constant Matrix: (Units=GPa)
#
#
# Indices 1 2 3 4 5 6 
#
# 1 80.2081 13.4069 16.8101 0.0000 0.0000 0.0000
# 2 13.4069 200.5185 87.4101 0.0000 0.0000 0.0000
# 3 16.8101 87.4101 184.6482 0.0000 0.0000 0.0000
# 4 0.0000 0.0000 0.0000 46.2823 0.0000 0.0000
# 5 0.0000 0.0000 0.0000 0.0000 20.7448 0.0000
# 6 0.0000 0.0000 0.0000 0.0000 0.0000 23.9755
#
#
#
# Elastic Compliance Matrix: (Units=1/GPa)
#
#
# Indices 1 2 3 4 5 6 
#
# 1 0.012740 -0.000436 -0.000953 0.000000 0.000000 0.000000
# 2 -0.000436 0.006299 -0.002942 0.000000 0.000000 0.000000
# 3 -0.000953 -0.002942 0.006895 0.000000 0.000000 0.000000
# 4 0.000000 0.000000 0.000000 0.021607 0.000000 0.000000
# 5 0.000000 0.000000 0.000000 0.000000 0.048205 0.000000
# 6 0.000000 0.000000 0.000000 0.000000 0.000000 0.041709
#
#
# Mechanical properties :
#
#
# Convention : Reuss Voigt Hill
#
# Bulk Modulus (GPa) = 57.90056 77.84769 67.87412
# Shear Modulus (GPa) = 32.92177 41.38370 37.15274
#
# Velocity S-wave (km/s) = 3.87140 4.34052 4.11266
# Velocity P-wave (km/s) = 6.80758 7.78207 7.31108
#
# Compressibility (1/GPa) = 0.01727099
#
# Stress axis : x y z
#
# Youngs Moduli (GPa) = 78.49119 158.76228 145.02820
#
# Poissons Ratio (x) = 0.06926 0.13826
# Poissons Ratio (y) = 0.03424 0.42668
# Poissons Ratio (z) = 0.07483 0.46708
#
# Static dielectric constant tensor:
#      x y z
#    x 1.949920 0.000000 0.000000 
#    y 0.000000 1.827000 0.000000 
#    z 0.000000 0.000000 1.762660 
# 
# From -- ./inp_files/13829.got.cif
#   From: 2010.05.17/outbox.cif.g08.bks.cpg/sg21_7_cif.got.tgz:13829.got - 2010.06.03 23:14:55.
