data_PCOD9325578
_publ_section_title
;
Structure prediction by ZEFSAII (Michael W. Deem and Ramdas Pophale) SiO2 
 PCOD9325578
Probable space group: C 2 2 2
;
_chemical_formula_sum "Si O2"
_cell_formula_units_Z 38
_cell_length_a 17.250491
_cell_length_b 10.576757
_cell_length_c 9.210203
_cell_angle_alpha 90.000000
_cell_angle_beta 90.000000
_cell_angle_gamma 90.000000
_cell_volume 1680.440694
_symmetry_space_group_name_H-M "C 2 2 2"
_symmetry_group_IT_number 21
_symmetry_cell_setting 'orthorhombic'
loop_
_space_group_symop_operation_xyz
x,y,z
-x,-y,z
x,-y,-z
-x,y,-z
1/2+x,1/2+y,z
1/2-x,1/2-y,z
1/2+x,1/2-y,-z
1/2-x,1/2+y,-z
loop_
_atom_site_type_symbol
_atom_site_label
_atom_site_fract_x
_atom_site_fract_y
_atom_site_fract_z
Si Si1 0.092179 0.141675 0.978388
Si Si2 0.102764 0.649273 0.234446
Si Si3 0.631215 0.706915 0.286014
Si Si4 0.500000 0.000000 0.000000
Si Si5 0.000000 0.268443 0.500000
Si Si6 0.273330 0.040438 0.336090
O O1 0.115549 0.225161 0.116282
O O2 0.114278 0.209559 0.828695
O O3 0.000000 0.132968 0.000000
O O4 0.123218 0.000000 0.000000
O O5 0.181748 0.570826 0.252908
O O6 0.054725 0.654576 0.386198
O O7 0.051791 0.582326 0.109983
O O8 0.556904 0.692418 0.390550
O O9 0.672926 0.835167 0.333460
O O10 0.689115 0.589044 0.291206
O O11 0.265956 0.000000 0.500000
#
# Coordination Sequence:
#
# PCOD9325578 Si02
#       6
#     8   8   8   2   4   8
#     4  11  24  48  71 105 151 196 262 321 377 469
#     4  12  23  43  79 114 148 203 260 326 385 460
#     4  11  25  48  70 111 153 201 253 326 386 464
#     4  12  24  38  74 120 152 194 278 330 368 478
#     4  12  22  43  83 110 144 200 269 311 388 454
#     4  11  25  46  73 109 160 192 253 325 394 468
#
# _framework density 22.613116999999999
#
# number of rings (size 3 to 8) (size 9 to 14) (size 15 to 20)
#    0.000    0.632    5.263    2.526    0.000    2.526 
#    9.474    1.053    0.000    0.000    0.000    0.000 
#    0.000    0.000    0.000    0.000    0.000    0.000 
#
# Total GULP energy -106188.916166 kJ/mol
# GULP energy per Si atom -5588.890325 kJ/mol
# Density = 2.256165 g / cm^3
# Si number density = 22.613117 Si / 1000 Ang^3
#
#
#
# Elastic Constant Matrix: (Units=GPa)
#
#
# Indices 1 2 3 4 5 6 
#
# 1 87.5435 33.7559 23.0046 0.0000 0.0000 0.0000
# 2 33.7559 101.3887 27.3637 0.0000 0.0000 0.0000
# 3 23.0046 27.3637 120.7706 0.0000 0.0000 0.0000
# 4 0.0000 0.0000 0.0000 47.3308 0.0000 0.0000
# 5 0.0000 0.0000 0.0000 0.0000 33.1478 0.0000
# 6 0.0000 0.0000 0.0000 0.0000 0.0000 292.5804
#
#
#
# Elastic Compliance Matrix: (Units=1/GPa)
#
#
# Indices 1 2 3 4 5 6 
#
# 1 0.013404 -0.004019 -0.001643 0.000000 0.000000 0.000000
# 2 -0.004019 0.011711 -0.001888 0.000000 0.000000 0.000000
# 3 -0.001643 -0.001888 0.009021 0.000000 0.000000 0.000000
# 4 0.000000 0.000000 0.000000 0.021128 0.000000 0.000000
# 5 0.000000 0.000000 0.000000 0.000000 0.030168 0.000000
# 6 0.000000 0.000000 0.000000 0.000000 0.000000 0.003418
#
#
# Mechanical properties :
#
#
# Convention : Reuss Voigt Hill
#
# Bulk Modulus (GPa) = 52.53119 53.10569 52.81844
# Shear Modulus (GPa) = 45.33313 89.65036 67.49175
#
# Velocity S-wave (km/s) = 4.48228 6.30328 5.46910
# Velocity P-wave (km/s) = 7.07591 8.74703 7.95547
#
# Compressibility (1/GPa) = 0.01903631
#
# Stress axis : x y z
#
# Youngs Moduli (GPa) = 74.60233 85.39166 110.85543
#
# Poissons Ratio (x) = 0.34323 0.18209
# Poissons Ratio (y) = 0.29986 0.20927
# Poissons Ratio (z) = 0.12254 0.16120
#
# Static dielectric constant tensor:
#      x y z
#    x 1.818570 0.000000 0.000000 
#    y 0.000000 1.875930 0.000000 
#    z 0.000000 0.000000 1.626730 
# 
# From -- ./inp_files/12787.got.cif
#   From: 2010.05.17/outbox.cif.g08.bks.cpg/sg21_7_cif.got.tgz:12787.got - 2010.06.03 23:14:55.
