data_PCOD9325280
_publ_section_title
;
Structure prediction by ZEFSAII (Michael W. Deem and Ramdas Pophale) SiO2 
 PCOD9325280
Probable space group: C 2 2 2
;
_chemical_formula_sum "Si O2"
_cell_formula_units_Z 44
_cell_length_a 15.073591
_cell_length_b 13.413005
_cell_length_c 11.237001
_cell_angle_alpha 90.000000
_cell_angle_beta 90.000000
_cell_angle_gamma 90.000000
_cell_volume 2271.921038
_symmetry_space_group_name_H-M "C 2 2 2"
_symmetry_group_IT_number 21
_symmetry_cell_setting 'orthorhombic'
loop_
_space_group_symop_operation_xyz
x,y,z
-x,-y,z
x,-y,-z
-x,y,-z
1/2+x,1/2+y,z
1/2-x,1/2-y,z
1/2+x,1/2-y,-z
1/2-x,1/2+y,-z
loop_
_atom_site_type_symbol
_atom_site_label
_atom_site_fract_x
_atom_site_fract_y
_atom_site_fract_z
Si Si1 0.041823 0.267811 0.629977
Si Si2 0.121901 0.361152 0.246021
Si Si3 0.650577 0.591193 0.588861
Si Si4 0.103667 0.380060 0.988325
Si Si5 0.750000 0.250000 0.575389
Si Si6 0.174036 0.413396 0.735019
O O1 0.068590 0.152072 0.645614
O O2 0.127407 0.338161 0.643906
O O3 0.000000 0.279539 0.500000
O O4 0.972584 0.311991 0.724535
O O5 0.187926 0.314275 0.339609
O O6 0.123597 0.480535 0.264489
O O7 0.148045 0.341294 0.109343
O O8 0.629172 0.500000 0.500000
O O9 0.693502 0.673828 0.502432
O O10 0.725587 0.568546 0.689014
O O11 0.156229 0.363919 0.865030
O O12 0.101803 0.500000 0.000000
O O13 0.000000 0.348320 0.000000
#
# Coordination Sequence:
#
# PCOD9325280 Si02
#       6
#     8   8   8   8   4   8
#     4  12  23  37  60  91 122 158 212 252 321 384
#     4  11  22  39  60  89 125 161 204 263 315 375
#     4  12  24  41  59  87 134 168 206 263 318 391
#     4   9  18  35  58  90 121 153 200 261 316 367
#     4  12  22  40  56  88 122 158 208 256 320 378
#     4  11  21  38  66  90 124 161 207 267 321 372
#
# _framework density 19.366869999999999
#
# number of rings (size 3 to 8) (size 9 to 14) (size 15 to 20)
#    0.000    0.909    7.273    0.545    0.000    1.091 
#    3.273    0.000    0.000    0.000    0.000    0.000 
#    5.455    0.000    0.000    0.000    0.000    0.000 
#
# Total GULP energy -122692.853714 kJ/mol
# GULP energy per Si atom -5576.947896 kJ/mol
# Density = 1.932279 g / cm^3
# Si number density = 19.366870 Si / 1000 Ang^3
#
#
#
# Elastic Constant Matrix: (Units=GPa)
#
#
# Indices 1 2 3 4 5 6 
#
# 1 29.6524 23.3870 38.2124 0.0000 0.0000 0.0000
# 2 23.3870 98.4284 34.4077 0.0000 0.0000 0.0000
# 3 38.2124 34.4077 110.7415 0.0000 0.0000 0.0000
# 4 0.0000 0.0000 0.0000 15.5374 0.0000 0.0000
# 5 0.0000 0.0000 0.0000 0.0000 16.8798 0.0000
# 6 0.0000 0.0000 0.0000 0.0000 0.0000 36.3471
#
#
#
# Elastic Compliance Matrix: (Units=1/GPa)
#
#
# Indices 1 2 3 4 5 6 
#
# 1 0.066864 -0.008775 -0.020346 0.000000 0.000000 0.000000
# 2 -0.008775 0.012549 -0.000871 0.000000 0.000000 0.000000
# 3 -0.020346 -0.000871 0.016321 0.000000 0.000000 0.000000
# 4 0.000000 0.000000 0.000000 0.064361 0.000000 0.000000
# 5 0.000000 0.000000 0.000000 0.000000 0.059242 0.000000
# 6 0.000000 0.000000 0.000000 0.000000 0.000000 0.027512
#
#
# Mechanical properties :
#
#
# Convention : Reuss Voigt Hill
#
# Bulk Modulus (GPa) = 27.97139 47.87070 37.92104
# Shear Modulus (GPa) = 15.68624 23.27388 19.48006
#
# Velocity S-wave (km/s) = 2.84905 3.47037 3.17495
# Velocity P-wave (km/s) = 5.02962 6.38979 5.75007
#
# Compressibility (1/GPa) = 0.03575082
#
# Stress axis : x y z
#
# Youngs Moduli (GPa) = 14.95573 79.68654 61.27006
#
# Poissons Ratio (x) = 0.69924 1.24658
# Poissons Ratio (y) = 0.13124 0.05338
# Poissons Ratio (z) = 0.30428 0.06942
#
# Static dielectric constant tensor:
#      x y z
#    x 1.770760 0.000000 0.000000 
#    y 0.000000 1.677890 0.000000 
#    z 0.000000 0.000000 1.714970 
# 
# From -- ./inp_files/25139.got.cif
#   From: 2010.05.17/outbox.cif.g08.bks.cpg/sg21_13_cif.got.tgz:25139.got - 2010.06.03 23:14:55.
