data_PCOD9325443
_publ_section_title
;
Structure prediction by ZEFSAII (Michael W. Deem and Ramdas Pophale) SiO2 
 PCOD9325443
Probable space group: C 2 2 2
;
_chemical_formula_sum "Si O2"
_cell_formula_units_Z 26
_cell_length_a 8.522001
_cell_length_b 13.571349
_cell_length_c 10.166258
_cell_angle_alpha 90.000000
_cell_angle_beta 90.000000
_cell_angle_gamma 90.000000
_cell_volume 1175.779075
_symmetry_space_group_name_H-M "C 2 2 2"
_symmetry_group_IT_number 21
_symmetry_cell_setting 'orthorhombic'
loop_
_space_group_symop_operation_xyz
x,y,z
-x,-y,z
x,-y,-z
-x,y,-z
1/2+x,1/2+y,z
1/2-x,1/2-y,z
1/2+x,1/2-y,-z
1/2-x,1/2+y,-z
loop_
_atom_site_type_symbol
_atom_site_label
_atom_site_fract_x
_atom_site_fract_y
_atom_site_fract_z
Si Si1 0.176007 0.490029 0.843180
Si Si2 0.887609 0.826841 0.126895
Si Si3 0.000000 0.000000 0.500000
Si Si4 0.150688 0.836300 0.319269
O O1 0.302092 0.575843 0.816718
O O2 0.245431 0.387457 0.794590
O O3 0.000000 0.500000 0.788279
O O4 0.163430 0.500000 0.000000
O O5 0.750000 0.750000 0.093679
O O6 0.999581 0.792176 0.245102
O O7 0.000000 0.845416 0.000000
O O8 0.896644 0.074561 0.413414
O O9 0.250000 0.750000 0.385135
#
# Coordination Sequence:
#
# PCOD9325443 Si02
#       4
#     8   8   2   8
#     4  11  23  41  71 109 144 181 227 292 372 448
#     4  12  24  40  70 110 148 186 233 297 376 452
#     4  12  28  52  76 102 144 196 266 310 360 410
#     4  12  26  50  74 102 143 193 246 307 365 429
#
# _framework density 22.112998000000001
#
# number of rings (size 3 to 8) (size 9 to 14) (size 15 to 20)
#    0.000    0.308    6.154    2.769    4.308    1.231 
#    5.538    0.000    0.000    0.000    0.000    0.000 
#    0.000    0.000    0.000    0.000    0.000    0.000 
#
# Total GULP energy -72644.314840 kJ/mol
# GULP energy per Si atom -5588.024218 kJ/mol
# Density = 2.206267 g / cm^3
# Si number density = 22.112998 Si / 1000 Ang^3
#
#
#
# Elastic Constant Matrix: (Units=GPa)
#
#
# Indices 1 2 3 4 5 6 
#
# 1 146.3535 60.4304 30.3476 0.0000 0.0000 0.0000
# 2 60.4304 124.4013 27.9579 0.0000 0.0000 0.0000
# 3 30.3476 27.9579 59.2887 0.0000 0.0000 0.0000
# 4 0.0000 0.0000 0.0000 18.8743 0.0000 0.0000
# 5 0.0000 0.0000 0.0000 0.0000 2.5703 0.0000
# 6 0.0000 0.0000 0.0000 0.0000 0.0000 53.6736
#
#
#
# Elastic Compliance Matrix: (Units=1/GPa)
#
#
# Indices 1 2 3 4 5 6 
#
# 1 0.008953 -0.003713 -0.002832 0.000000 0.000000 0.000000
# 2 -0.003713 0.010531 -0.003066 0.000000 0.000000 0.000000
# 3 -0.002832 -0.003066 0.019762 0.000000 0.000000 0.000000
# 4 0.000000 0.000000 0.000000 0.052982 0.000000 0.000000
# 5 0.000000 0.000000 0.000000 0.000000 0.389065 0.000000
# 6 0.000000 0.000000 0.000000 0.000000 0.000000 0.018631
#
#
# Mechanical properties :
#
#
# Convention : Reuss Voigt Hill
#
# Bulk Modulus (GPa) = 49.93669 63.05725 56.49697
# Shear Modulus (GPa) = 9.50897 29.11080 19.30988
#
# Velocity S-wave (km/s) = 2.07594 3.63224 2.95826
# Velocity P-wave (km/s) = 5.32706 6.79475 6.10517
#
# Compressibility (1/GPa) = 0.02002536
#
# Stress axis : x y z
#
# Youngs Moduli (GPa) = 111.69475 94.95822 50.60274
#
# Poissons Ratio (x) = 0.35254 0.14330
# Poissons Ratio (y) = 0.41468 0.15513
# Poissons Ratio (z) = 0.31632 0.29110
#
# Static dielectric constant tensor:
#      x y z
#    x 1.899280 0.000000 0.000000 
#    y 0.000000 1.830220 0.000000 
#    z 0.000000 0.000000 1.862090 
# 
# From -- ./inp_files/21634.got.cif
#   From: 2010.05.17/outbox.cif.g08.bks.cpg/sg21_11_cif.got.tgz:21634.got - 2010.06.03 23:14:55.
