data_PCOD9325864
_publ_section_title
;
Structure prediction by ZEFSAII (Michael W. Deem and Ramdas Pophale) SiO2 
 PCOD9325864
Probable space group: F 2 2 2
;
_chemical_formula_sum "Si O2"
_cell_formula_units_Z 52
_cell_length_a 30.506015
_cell_length_b 14.326238
_cell_length_c 5.572816
_cell_angle_alpha 90.000000
_cell_angle_beta 90.000000
_cell_angle_gamma 90.000000
_cell_volume 2435.523617
_symmetry_space_group_name_H-M "F 2 2 2"
_symmetry_group_IT_number 22
_symmetry_cell_setting 'orthorhombic'
loop_
_space_group_symop_operation_xyz
x,y,z
-x,-y,z
x,-y,-z
-x,y,-z
x,1/2+y,1/2+z
-x,1/2-y,1/2+z
x,1/2-y,1/2-z
-x,1/2+y,1/2-z
1/2+x,y,1/2+z
1/2-x,-y,1/2+z
1/2+x,-y,1/2-z
1/2-x,y,1/2-z
1/2+x,1/2+y,z
1/2-x,1/2-y,z
1/2+x,1/2-y,-z
1/2-x,1/2+y,-z
loop_
_atom_site_type_symbol
_atom_site_label
_atom_site_fract_x
_atom_site_fract_y
_atom_site_fract_z
Si Si1 0.866520 0.190967 0.498789
Si Si2 0.000000 0.000000 0.000000
Si Si3 0.042948 0.643292 0.841086
Si Si4 0.267615 0.141902 0.998807
O O1 0.869925 0.250000 0.250000
O O2 0.910931 0.131313 0.524350
O O3 0.820063 0.139821 0.490526
O O4 0.864171 0.250000 0.750000
O O5 0.966832 0.068412 0.861464
O O6 0.043000 0.750000 0.750000
O O7 0.000000 0.633366 0.000000
O O8 0.250000 0.103431 0.250000
O O9 0.250000 0.250000 0.998329
O O10 0.250000 0.101629 0.750000
#
# Coordination Sequence:
#
# PCOD9325864 Si02
#       4
#    16   4  16  16
#     4  11  20  32  58  90 131 177 219 276 334 398
#     4  12  26  48  68  96 140 188 222 296 350 406
#     4  11  24  43  68  95 137 181 231 284 348 409
#     4  10  15  27  46  81 130 175 206 271 332 386
#
# _framework density 21.350643999999999
#
# number of rings (size 3 to 8) (size 9 to 14) (size 15 to 20)
#    0.000    1.231    7.692    1.385    4.308    0.000 
#    0.000    0.000    0.000    0.000    0.000    0.000 
#    9.231    0.000    0.000    0.000    0.000    0.000 
#
# Total GULP energy -72521.946908 kJ/mol
# GULP energy per Si atom -5578.611301 kJ/mol
# Density = 2.130205 g / cm^3
# Si number density = 21.350644 Si / 1000 Ang^3
#
#
#
# Elastic Constant Matrix: (Units=GPa)
#
#
# Indices 1 2 3 4 5 6 
#
# 1 258.0674 35.6243 88.7081 0.0000 0.0000 0.0000
# 2 35.6243 104.7397 45.8057 0.0000 0.0000 0.0000
# 3 88.7081 45.8057 201.5316 0.0000 0.0000 0.0000
# 4 0.0000 0.0000 0.0000 -0.1232 0.0000 0.0000
# 5 0.0000 0.0000 0.0000 0.0000 69.2138 0.0000
# 6 0.0000 0.0000 0.0000 0.0000 0.0000 -14.6531
#
#
#
# Elastic Compliance Matrix: (Units=1/GPa)
#
#
# Indices 1 2 3 4 5 6 
#
# 1 0.004619 -0.000757 -0.001861 0.000001 0.000000 0.000000
# 2 -0.000757 0.010725 -0.002104 -0.000001 0.000000 0.000000
# 3 -0.001861 -0.002104 0.006260 -0.000002 0.000000 0.000000
# 4 0.000001 -0.000001 -0.000002 -8.119889 -0.000001 0.000010
# 5 0.000000 0.000000 0.000000 -0.000001 0.014448 0.000000
# 6 0.000000 0.000000 0.000000 0.000010 0.000000 -0.068245
#
#
# Mechanical properties :
#
#
# Convention : Reuss Voigt Hill
#
# Bulk Modulus (GPa) = 82.24653 100.51275 91.37964
# Shear Modulus (GPa) = -0.61436 37.16755 18.27660
#
# Velocity S-wave (km/s) = -0.53700 4.17684 2.92896
# Velocity P-wave (km/s) = 6.18231 8.39289 7.37094
#
# Compressibility (1/GPa) = 0.01215857
#
# Stress axis : x y z
#
# Youngs Moduli (GPa) = 216.48636 93.23704 159.75620
#
# Poissons Ratio (x) = 0.07060 0.29733
# Poissons Ratio (y) = 0.16392 0.33620
# Poissons Ratio (z) = 0.40291 0.19621
#
# Static dielectric constant tensor:
#      x y z
#    x 1.754290 0.000000 0.000000 
#    y 0.000000 1.681900 0.000000 
#    z 0.000000 0.000000 1.799220 
# 
# From -- ./inp_files/1832.got.cif
#   From: 2010.05.17/outbox.cif.g08.bks.cpg/sg22_1_cif.got.tgz:1832.got - 2010.06.03 23:40:54.
