data_PCOD9325017
_publ_section_title
;
Structure prediction by ZEFSAII (Michael W. Deem and Ramdas Pophale) SiO2 
 PCOD9325017
Probable space group: C 2 2 2
;
_chemical_formula_sum "Si O2"
_cell_formula_units_Z 58
_cell_length_a 9.256580
_cell_length_b 18.604143
_cell_length_c 15.730448
_cell_angle_alpha 90.000000
_cell_angle_beta 90.000000
_cell_angle_gamma 90.000000
_cell_volume 2708.952059
_symmetry_space_group_name_H-M "C 2 2 2"
_symmetry_group_IT_number 21
_symmetry_cell_setting 'orthorhombic'
loop_
_space_group_symop_operation_xyz
x,y,z
-x,-y,z
x,-y,-z
-x,y,-z
1/2+x,1/2+y,z
1/2-x,1/2-y,z
1/2+x,1/2-y,-z
1/2-x,1/2+y,-z
loop_
_atom_site_type_symbol
_atom_site_label
_atom_site_fract_x
_atom_site_fract_y
_atom_site_fract_z
Si Si1 0.420059 0.753423 0.084870
Si Si2 0.578160 0.885588 0.125730
Si Si3 0.000000 0.500000 0.000000
Si Si4 0.347869 0.530124 0.733032
Si Si5 0.420832 0.930982 0.299857
Si Si6 0.832163 0.813608 0.186283
Si Si7 0.143059 0.314968 0.552322
Si Si8 0.658469 0.574175 0.461278
O O1 0.250000 0.750000 0.088518
O O2 0.446875 0.838385 0.092149
O O3 0.510146 0.712957 0.159759
O O4 0.500000 0.726590 0.000000
O O5 0.523937 0.907049 0.221058
O O6 0.709570 0.828622 0.114907
O O7 0.595553 0.953205 0.064952
O O8 0.500000 0.500000 0.762893
O O9 0.227269 0.467234 0.735512
O O10 0.326789 0.605849 0.779151
O O11 0.359566 0.556390 0.636379
O O12 0.394483 0.866655 0.366825
O O13 0.500000 0.000000 0.342370
O O14 0.750000 0.750000 0.238809
O O15 0.250000 0.250000 0.578387
O O16 0.234665 0.363011 0.486225
O O17 0.000000 0.291316 0.500000
O O18 0.716219 0.500000 0.500000
O O19 0.500000 0.588221 0.500000
#
# Coordination Sequence:
#
# PCOD9325017 Si02
#       8
#     8   8   2   8   8   8   8   8
#     4  11  24  45  73 101 140 186 235 285 362 438
#     4  11  23  42  70 102 138 187 235 297 355 439
#     4  12  20  40  76  98 142 176 244 288 368 424
#     4  12  23  40  70  99 142 181 234 298 356 428
#     4  12  24  45  70 104 141 187 247 296 369 444
#     4  10  24  46  66 102 139 184 235 291 363 433
#     4  12  28  46  72 105 147 187 252 308 370 443
#     4  11  21  44  68  98 135 191 236 290 362 431
#
# _framework density 21.410492999999999
#
# number of rings (size 3 to 8) (size 9 to 14) (size 15 to 20)
#    0.000    0.690    5.517    2.483    1.931    1.103 
#    9.931    0.000    0.000    0.828    0.000    0.000 
#    0.000    0.000    0.000    0.000    0.000    0.000 
#
# Total GULP energy -161642.698135 kJ/mol
# GULP energy per Si atom -5573.886143 kJ/mol
# Density = 2.136176 g / cm^3
# Si number density = 21.410493 Si / 1000 Ang^3
#
#
#
# Elastic Constant Matrix: (Units=GPa)
#
#
# Indices 1 2 3 4 5 6 
#
# 1 163.8695 58.8333 28.8666 0.0000 0.0000 0.0000
# 2 58.8333 114.9020 27.5918 0.0000 0.0000 0.0000
# 3 28.8666 27.5918 53.6636 0.0000 0.0000 0.0000
# 4 0.0000 0.0000 0.0000 25.0794 0.0000 0.0000
# 5 0.0000 0.0000 0.0000 0.0000 17.4949 0.0000
# 6 0.0000 0.0000 0.0000 0.0000 0.0000 45.7460
#
#
#
# Elastic Compliance Matrix: (Units=1/GPa)
#
#
# Indices 1 2 3 4 5 6 
#
# 1 0.007744 -0.003383 -0.002427 0.000000 0.000000 0.000000
# 2 -0.003383 0.011406 -0.004045 0.000000 0.000000 0.000000
# 3 -0.002427 -0.004045 0.022020 0.000000 0.000000 0.000000
# 4 0.000000 0.000000 0.000000 0.039873 0.000000 0.000000
# 5 0.000000 0.000000 0.000000 0.000000 0.057159 0.000000
# 6 0.000000 0.000000 0.000000 0.000000 0.000000 0.021860
#
#
# Mechanical properties :
#
#
# Convention : Reuss Voigt Hill
#
# Bulk Modulus (GPa) = 46.59451 62.55759 54.57605
# Shear Modulus (GPa) = 26.74855 32.14028 29.44441
#
# Velocity S-wave (km/s) = 3.53841 3.87867 3.71244
# Velocity P-wave (km/s) = 6.20512 7.02427 6.62736
#
# Compressibility (1/GPa) = 0.02146176
#
# Stress axis : x y z
#
# Youngs Moduli (GPa) = 129.12693 87.66961 45.41371
#
# Poissons Ratio (x) = 0.29655 0.11020
# Poissons Ratio (y) = 0.43679 0.18371
# Poissons Ratio (z) = 0.31334 0.35464
#
# Static dielectric constant tensor:
#      x y z
#    x 1.888290 0.000000 0.000000 
#    y 0.000000 1.795140 0.000000 
#    z 0.000000 0.000000 1.498140 
# 
# From -- ./inp_files/35802.got.cif
#   From: 2010.05.17/outbox.cif.g08.bks.cpg/sg21_18_cif.got.tgz:35802.got - 2010.06.03 23:14:55.
