data_PCOD9325541
_publ_section_title
;
Structure prediction by ZEFSAII (Michael W. Deem and Ramdas Pophale) SiO2 
 PCOD9325541
Probable space group: C 2 2 2
;
_chemical_formula_sum "Si O2"
_cell_formula_units_Z 48
_cell_length_a 17.194544
_cell_length_b 8.216035
_cell_length_c 16.367206
_cell_angle_alpha 90.000000
_cell_angle_beta 90.000000
_cell_angle_gamma 90.000000
_cell_volume 2312.211155
_symmetry_space_group_name_H-M "C 2 2 2"
_symmetry_group_IT_number 21
_symmetry_cell_setting 'orthorhombic'
loop_
_space_group_symop_operation_xyz
x,y,z
-x,-y,z
x,-y,-z
-x,y,-z
1/2+x,1/2+y,z
1/2-x,1/2-y,z
1/2+x,1/2-y,-z
1/2-x,1/2+y,-z
loop_
_atom_site_type_symbol
_atom_site_label
_atom_site_fract_x
_atom_site_fract_y
_atom_site_fract_z
Si Si1 0.702539 0.583127 0.285206
Si Si2 0.193397 0.384252 0.802360
Si Si3 0.415924 0.445484 0.594267
Si Si4 0.066392 0.132004 0.163274
Si Si5 0.961390 0.327594 0.289393
Si Si6 0.827697 0.352941 0.937383
O O1 0.750000 0.750000 0.286823
O O2 0.763637 0.437818 0.279839
O O3 0.649552 0.550398 0.362349
O O4 0.644347 0.564298 0.207394
O O5 0.250000 0.250000 0.841600
O O6 0.107125 0.337171 0.778221
O O7 0.191095 0.546920 0.855510
O O8 0.500000 0.500000 0.624977
O O9 0.412681 0.500000 0.500000
O O10 0.421514 0.262964 0.632485
O O11 0.100044 0.236254 0.087035
O O12 0.028419 0.237793 0.236525
O O13 0.000000 0.000000 0.141288
O O14 0.000000 0.500000 0.312539
O O15 0.750000 0.250000 0.959852
O O16 0.845582 0.500000 0.000000
#
# Coordination Sequence:
#
# PCOD9325541 Si02
#       6
#     8   8   8   8   8   8
#     4  12  20  41  71  97 134 186 242 284 342 436
#     4  12  22  38  70 104 136 178 238 294 350 429
#     4  11  24  44  68  97 145 192 233 297 376 429
#     4  12  21  43  76 102 133 189 244 288 353 436
#     4  12  22  39  72 104 136 178 243 301 347 432
#     4  12  26  47  73 104 147 189 239 305 371 431
#
# _framework density 20.759347999999999
#
# number of rings (size 3 to 8) (size 9 to 14) (size 15 to 20)
#    0.000    0.167   10.000    0.500    0.000    0.000 
#    3.000    3.333    0.000    0.000    0.000    0.000 
#    0.000    0.000    0.000    0.000    0.000    0.000 
#
# Total GULP energy -133709.676989 kJ/mol
# GULP energy per Si atom -5571.236541 kJ/mol
# Density = 2.071210 g / cm^3
# Si number density = 20.759348 Si / 1000 Ang^3
#
#
#
# Elastic Constant Matrix: (Units=GPa)
#
#
# Indices 1 2 3 4 5 6 
#
# 1 109.8291 56.7215 30.2782 0.0000 0.0000 0.0000
# 2 56.7215 135.5568 46.3467 0.0000 0.0000 0.0000
# 3 30.2782 46.3467 77.0987 0.0000 0.0000 0.0000
# 4 0.0000 0.0000 0.0000 24.5298 0.0000 0.0000
# 5 0.0000 0.0000 0.0000 0.0000 18.9931 0.0000
# 6 0.0000 0.0000 0.0000 0.0000 0.0000 56.7491
#
#
#
# Elastic Compliance Matrix: (Units=1/GPa)
#
#
# Indices 1 2 3 4 5 6 
#
# 1 0.011882 -0.004250 -0.002112 0.000000 0.000000 0.000000
# 2 -0.004250 0.010805 -0.004827 0.000000 0.000000 0.000000
# 3 -0.002112 -0.004827 0.016701 0.000000 0.000000 0.000000
# 4 0.000000 0.000000 0.000000 0.040767 0.000000 0.000000
# 5 0.000000 0.000000 0.000000 0.000000 0.052651 0.000000
# 6 0.000000 0.000000 0.000000 0.000000 0.000000 0.017621
#
#
# Mechanical properties :
#
#
# Convention : Reuss Voigt Hill
#
# Bulk Modulus (GPa) = 58.78000 65.46416 62.12208
# Shear Modulus (GPa) = 28.01524 32.66361 30.33942
#
# Velocity S-wave (km/s) = 3.67757 3.97097 3.82708
# Velocity P-wave (km/s) = 6.81243 7.25452 7.03694
#
# Compressibility (1/GPa) = 0.01701259
#
# Stress axis : x y z
#
# Youngs Moduli (GPa) = 84.16049 92.54579 59.87656
#
# Poissons Ratio (x) = 0.39331 0.12643
# Poissons Ratio (y) = 0.35767 0.28900
# Poissons Ratio (z) = 0.17771 0.44667
#
# Static dielectric constant tensor:
#      x y z
#    x 1.769570 0.000000 0.000000 
#    y 0.000000 1.849790 0.000000 
#    z 0.000000 0.000000 1.805400 
# 
# From -- ./inp_files/36640.got.cif
#   From: 2010.05.17/outbox.cif.g08.bks.cpg/sg21_19_cif.got.tgz:36640.got - 2010.06.03 23:14:55.
