data_PCOD9325913
_publ_section_title
;
Structure prediction by ZEFSAII (Michael W. Deem and Ramdas Pophale) SiO2 
 PCOD9325913
Probable space group: F 2 2 2
;
_chemical_formula_sum "Si O2"
_cell_formula_units_Z 120
_cell_length_a 8.988965
_cell_length_b 27.413189
_cell_length_c 25.541967
_cell_angle_alpha 90.000000
_cell_angle_beta 90.000000
_cell_angle_gamma 90.000000
_cell_volume 6293.954358
_symmetry_space_group_name_H-M "F 2 2 2"
_symmetry_group_IT_number 22
_symmetry_cell_setting 'orthorhombic'
loop_
_space_group_symop_operation_xyz
x,y,z
-x,-y,z
x,-y,-z
-x,y,-z
x,1/2+y,1/2+z
-x,1/2-y,1/2+z
x,1/2-y,1/2-z
-x,1/2+y,1/2-z
1/2+x,y,1/2+z
1/2-x,-y,1/2+z
1/2+x,-y,1/2-z
1/2-x,y,1/2-z
1/2+x,1/2+y,z
1/2-x,1/2-y,z
1/2+x,1/2-y,-z
1/2-x,1/2+y,-z
loop_
_atom_site_type_symbol
_atom_site_label
_atom_site_fract_x
_atom_site_fract_y
_atom_site_fract_z
Si Si1 0.936371 0.700176 0.219122
Si Si2 0.470050 0.125421 0.939066
Si Si3 0.800479 0.302786 0.137182
Si Si4 0.959091 0.132451 0.188203
Si Si5 0.275035 0.376968 0.352660
Si Si6 0.831119 0.519648 0.946079
Si Si7 0.750000 0.057783 0.250000
Si Si8 0.667072 0.484039 0.660064
O O1 0.900214 0.750000 0.250000
O O2 0.826657 0.671805 0.178668
O O3 0.086118 0.706882 0.185226
O O4 0.966920 0.663185 0.265661
O O5 0.384764 0.167398 0.907706
O O6 0.625894 0.119400 0.906252
O O7 0.363837 0.077219 0.938551
O O8 0.500000 0.135745 0.000000
O O9 0.750000 0.250000 0.118014
O O10 0.665668 0.335591 0.158902
O O11 0.874888 0.090560 0.221400
O O12 0.095289 0.120715 0.148552
O O13 0.321155 0.427686 0.324547
O O14 0.754062 0.496155 0.895178
O O15 0.000000 0.500000 0.949561
O O16 0.760051 0.500000 0.000000
O O17 0.708643 0.021170 0.204363
O O18 0.500000 0.500000 0.649678
#
# Coordination Sequence:
#
# PCOD9325913 Si02
#       8
#    16  16  16  16  16  16   8  16
#     4  11  22  41  65  90 122 164 218 265 308 377
#     4  11  21  43  70  96 122 167 217 274 329 389
#     4  11  23  43  66  91 123 171 219 265 322 399
#     4  12  24  40  59  92 132 171 211 262 320 388
#     4  11  25  39  61  98 131 159 219 275 319 381
#     4  10  16  33  65  94 118 154 219 266 305 374
#     4  12  26  36  57  84 139 190 204 246 332 406
#     4  11  22  37  57  90 132 173 215 258 320 397
#
# _framework density 19.065915
#
# number of rings (size 3 to 8) (size 9 to 14) (size 15 to 20)
#    0.000    0.933    6.667    2.000    3.733    1.067 
#    0.000    2.000    0.000    0.000    0.000    1.867 
#    0.000    0.000    0.000    0.000    0.000    0.000 
#
# Total GULP energy -167073.097951 kJ/mol
# GULP energy per Si atom -5569.103265 kJ/mol
# Density = 1.902252 g / cm^3
# Si number density = 19.065915 Si / 1000 Ang^3
#
#
#
# Elastic Constant Matrix: (Units=GPa)
#
#
# Indices 1 2 3 4 5 6 
#
# 1 88.9849 38.4165 33.6075 0.0000 0.0000 0.0000
# 2 38.4165 106.0357 51.5905 0.0000 0.0000 0.0000
# 3 33.6075 51.5905 122.9540 0.0000 0.0000 0.0000
# 4 0.0000 0.0000 0.0000 22.4910 0.0000 0.0000
# 5 0.0000 0.0000 0.0000 0.0000 -153.4992 0.0000
# 6 0.0000 0.0000 0.0000 0.0000 0.0000 4.1786
#
#
#
# Elastic Compliance Matrix: (Units=1/GPa)
#
#
# Indices 1 2 3 4 5 6 
#
# 1 0.013738 -0.003958 -0.002094 0.000000 0.000000 0.000000
# 2 -0.003958 0.012990 -0.004369 0.000000 0.000000 0.000000
# 3 -0.002094 -0.004369 0.010539 0.000000 0.000000 0.000000
# 4 0.000000 0.000000 0.000000 0.044462 0.000000 0.000000
# 5 0.000000 0.000000 0.000000 0.000000 -0.006515 0.000000
# 6 0.000000 0.000000 0.000000 0.000000 0.000000 0.239315
#
#
# Mechanical properties :
#
#
# Convention : Reuss Voigt Hill
#
# Bulk Modulus (GPa) = 60.88490 62.80038 61.84264
# Shear Modulus (GPa) = 14.66937 -12.40858 1.13040
#
# Velocity S-wave (km/s) = 2.77682 -2.55390 0.77083
# Velocity P-wave (km/s) = 6.50263 4.93088 5.77052
#
# Compressibility (1/GPa) = 0.01642443
#
# Stress axis : x y z
#
# Youngs Moduli (GPa) = 72.79295 76.97981 94.88914
#
# Poissons Ratio (x) = 0.30470 0.19871
# Poissons Ratio (y) = 0.28813 0.41455
# Poissons Ratio (z) = 0.15244 0.33631
#
# Static dielectric constant tensor:
#      x y z
#    x 1.727000 0.000000 0.000000 
#    y 0.000000 2.281960 0.000000 
#    z 0.000000 0.000000 1.803040 
# 
# From -- ./inp_files/52195.got.cif
#   From: 2010.05.17/outbox.cif.g08.bks.cpg/sg22_27_cif.got.tgz:52195.got - 2010.06.03 23:40:54.
