data_PCOD9325745
_publ_section_title
;
Structure prediction by ZEFSAII (Michael W. Deem and Ramdas Pophale) SiO2 
 PCOD9325745
Probable space group: C 2 2 2
;
_chemical_formula_sum "Si O2"
_cell_formula_units_Z 38
_cell_length_a 14.041037
_cell_length_b 6.685838
_cell_length_c 16.831160
_cell_angle_alpha 90.000000
_cell_angle_beta 90.000000
_cell_angle_gamma 90.000000
_cell_volume 1580.043638
_symmetry_space_group_name_H-M "C 2 2 2"
_symmetry_group_IT_number 21
_symmetry_cell_setting 'orthorhombic'
loop_
_space_group_symop_operation_xyz
x,y,z
-x,-y,z
x,-y,-z
-x,y,-z
1/2+x,1/2+y,z
1/2-x,1/2-y,z
1/2+x,1/2-y,-z
1/2-x,1/2+y,-z
loop_
_atom_site_type_symbol
_atom_site_label
_atom_site_fract_x
_atom_site_fract_y
_atom_site_fract_z
Si Si1 0.655924 0.385645 0.126761
Si Si2 0.426169 0.132370 0.332869
Si Si3 0.573651 0.631903 0.705985
Si Si4 0.000000 0.000000 0.000000
Si Si5 0.250000 0.750000 0.778754
Si Si6 0.250000 0.250000 0.614765
Si Si7 0.379390 0.000000 0.500000
O O1 0.750000 0.250000 0.111423
O O2 0.592367 0.323230 0.201731
O O3 0.697321 0.596029 0.160824
O O4 0.577670 0.389497 0.056552
O O5 0.452119 0.376905 0.307435
O O6 0.328677 0.141680 0.278373
O O7 0.448875 0.878435 0.321196
O O8 0.424464 0.142918 0.431348
O O9 0.677707 0.620281 0.665665
O O10 0.185373 0.372235 0.556177
#
# Coordination Sequence:
#
# PCOD9325745 Si02
#       7
#     8   8   8   2   4   4   4
#     4  12  26  50  80 117 154 194 252 312 378 467
#     4  12  24  43  70 100 144 193 253 314 377 443
#     4  12  24  45  72  99 137 190 245 306 370 448
#     4  12  28  52  82 118 168 192 244 312 390 466
#     4  12  25  48  83 112 146 208 256 312 375 460
#     4  12  27  44  65  96 142 192 240 320 363 444
#     4  12  27  44  61 100 144 186 253 314 383 434
#
# _framework density 24.049969000000001
#
# number of rings (size 3 to 8) (size 9 to 14) (size 15 to 20)
#    0.000    0.000    6.316    3.474    4.421    0.000 
#    0.000    1.053    0.000    0.000    0.000    0.000 
#    0.000    0.000    0.000    0.000    0.000    0.000 
#
# Total GULP energy -105782.594310 kJ/mol
# GULP energy per Si atom -5567.504964 kJ/mol
# Density = 2.399523 g / cm^3
# Si number density = 24.049969 Si / 1000 Ang^3
#
#
#
# Elastic Constant Matrix: (Units=GPa)
#
#
# Indices 1 2 3 4 5 6 
#
# 1 225.7640 108.0421 97.3516 0.0000 0.0000 0.0000
# 2 108.0421 125.5570 49.4448 0.0000 0.0000 0.0000
# 3 97.3516 49.4448 197.9921 0.0000 0.0000 0.0000
# 4 0.0000 0.0000 0.0000 -60.4625 0.0000 0.0000
# 5 0.0000 0.0000 0.0000 0.0000 70.7839 0.0000
# 6 0.0000 0.0000 0.0000 0.0000 0.0000 92.4233
#
#
#
# Elastic Compliance Matrix: (Units=1/GPa)
#
#
# Indices 1 2 3 4 5 6 
#
# 1 0.008623 -0.006378 -0.002647 0.000000 0.000000 0.000000
# 2 -0.006378 0.013550 -0.000248 0.000000 0.000000 0.000000
# 3 -0.002647 -0.000248 0.006414 0.000000 0.000000 0.000000
# 4 0.000000 0.000000 0.000000 -0.016539 0.000000 0.000000
# 5 0.000000 0.000000 0.000000 0.000000 0.014128 0.000000
# 6 0.000000 0.000000 0.000000 0.000000 0.000000 0.010820
#
#
# Mechanical properties :
#
#
# Convention : Reuss Voigt Hill
#
# Bulk Modulus (GPa) = 99.58497 117.66557 108.62527
# Shear Modulus (GPa) = 84.90624 40.18059 62.54342
#
# Velocity S-wave (km/s) = 5.94817 4.09187 5.10510
# Velocity P-wave (km/s) = 9.41657 8.44726 8.94505
#
# Compressibility (1/GPa) = 0.01004168
#
# Stress axis : x y z
#
# Youngs Moduli (GPa) = 115.96903 73.79981 155.90270
#
# Poissons Ratio (x) = 0.47067 0.41270
# Poissons Ratio (y) = 0.73961 0.03867
# Poissons Ratio (z) = 0.30699 0.01831
#
# Static dielectric constant tensor:
#      x y z
#    x 2.138500 0.000000 0.000000 
#    y 0.000000 2.075520 0.000000 
#    z 0.000000 0.000000 1.931090 
# 
# From -- ./inp_files/32065.got.cif
#   From: 2010.05.17/outbox.cif.g08.bks.cpg/sg21_17_cif.got.tgz:32065.got - 2010.06.03 23:14:55.
