data_PCOD9325483
_publ_section_title
;
Structure prediction by ZEFSAII (Michael W. Deem and Ramdas Pophale) SiO2 
 PCOD9325483
Probable space group: C 2 2 2
;
_chemical_formula_sum "Si O2"
_cell_formula_units_Z 52
_cell_length_a 14.122842
_cell_length_b 21.744715
_cell_length_c 6.883824
_cell_angle_alpha 90.000000
_cell_angle_beta 90.000000
_cell_angle_gamma 90.000000
_cell_volume 2114.002899
_symmetry_space_group_name_H-M "C 2 2 2"
_symmetry_group_IT_number 21
_symmetry_cell_setting 'orthorhombic'
loop_
_space_group_symop_operation_xyz
x,y,z
-x,-y,z
x,-y,-z
-x,y,-z
1/2+x,1/2+y,z
1/2-x,1/2-y,z
1/2+x,1/2-y,-z
1/2-x,1/2+y,-z
loop_
_atom_site_type_symbol
_atom_site_label
_atom_site_fract_x
_atom_site_fract_y
_atom_site_fract_z
Si Si1 0.037322 0.065893 0.275882
Si Si2 0.844849 0.220481 0.641193
Si Si3 0.611103 0.665308 0.738131
Si Si4 0.713725 0.621478 0.078072
Si Si5 0.474589 0.204748 0.777574
Si Si6 0.000000 0.403265 0.500000
Si Si7 0.404113 0.057864 0.121932
O O1 0.144335 0.074565 0.194430
O O2 0.000000 0.063899 0.500000
O O3 0.982011 0.127056 0.204946
O O4 0.000000 0.000000 0.202937
O O5 0.750000 0.250000 0.557517
O O6 0.874752 0.167427 0.491873
O O7 0.814214 0.187669 0.837434
O O8 0.930656 0.266554 0.678003
O O9 0.597526 0.737879 0.779530
O O10 0.691655 0.628617 0.851223
O O11 0.822635 0.608120 0.113714
O O12 0.448507 0.144537 0.651259
O O13 0.564039 0.057464 0.650866
O O14 0.500000 0.191953 0.000000
O O15 0.500000 0.067190 0.000000
O O16 0.361823 0.000000 0.000000
#
# Coordination Sequence:
#
# PCOD9325483 Si02
#       7
#     8   8   8   8   8   4   8
#     4  11  23  44  75 117 161 210 260 318 404 505
#     4  12  25  43  68 109 159 216 266 315 400 500
#     4  12  23  45  75 112 168 216 251 331 412 498
#     4  12  26  46  79 117 160 210 267 329 417 491
#     4  12  22  44  76 113 164 215 264 335 417 510
#     4  12  26  51  90 110 159 212 274 356 434 474
#     4  11  30  59  83 117 153 213 296 361 409 483
#
# _framework density 24.597885000000002
#
# number of rings (size 3 to 8) (size 9 to 14) (size 15 to 20)
#    0.000    0.308    6.154    1.846    2.154    4.923 
#    2.769    1.538    0.000    0.000    0.000    0.000 
#    0.000    0.000    0.000    0.000    0.000    0.000 
#
# Total GULP energy -145141.878666 kJ/mol
# GULP energy per Si atom -5582.379949 kJ/mol
# Density = 2.454190 g / cm^3
# Si number density = 24.597885 Si / 1000 Ang^3
#
#
#
# Elastic Constant Matrix: (Units=GPa)
#
#
# Indices 1 2 3 4 5 6 
#
# 1 112.6412 3.4581 24.9384 0.0000 0.0000 0.0000
# 2 3.4581 86.1728 19.0237 0.0000 0.0000 0.0000
# 3 24.9384 19.0237 176.3697 0.0000 0.0000 0.0000
# 4 0.0000 0.0000 0.0000 -4.1723 0.0000 0.0000
# 5 0.0000 0.0000 0.0000 0.0000 28.2981 0.0000
# 6 0.0000 0.0000 0.0000 0.0000 0.0000 23.4678
#
#
#
# Elastic Compliance Matrix: (Units=1/GPa)
#
#
# Indices 1 2 3 4 5 6 
#
# 1 0.009165 -0.000084 -0.001287 0.000000 0.000000 0.000000
# 2 -0.000084 0.011888 -0.001270 0.000000 0.000000 0.000000
# 3 -0.001287 -0.001270 0.005989 0.000000 0.000000 0.000000
# 4 0.000000 0.000000 0.000000 -0.239676 0.000000 0.000000
# 5 0.000000 0.000000 0.000000 0.000000 0.035338 0.000000
# 6 0.000000 0.000000 0.000000 0.000000 0.000000 0.042612
#
#
# Mechanical properties :
#
#
# Convention : Reuss Voigt Hill
#
# Bulk Modulus (GPa) = 45.95511 52.22491 49.09001
# Shear Modulus (GPa) = -40.93381 31.36961 -4.78210
#
# Velocity S-wave (km/s) = -4.08379 3.57500 -1.39583
# Velocity P-wave (km/s) = 1.87439 6.19019 4.17164
#
# Compressibility (1/GPa) = 0.02176037
#
# Stress axis : x y z
#
# Youngs Moduli (GPa) = 109.10788 84.11545 166.97516
#
# Poissons Ratio (x) = 0.00704 0.21488
# Poissons Ratio (y) = 0.00913 0.21214
# Poissons Ratio (z) = 0.14041 0.10687
#
# Static dielectric constant tensor:
#      x y z
#    x 2.070360 0.000000 0.000000 
#    y 0.000000 2.069810 0.000000 
#    z 0.000000 0.000000 2.057350 
# 
# From -- ./inp_files/15232.got.cif
#   From: 2010.05.17/outbox.cif.g08.bks.cpg/sg21_8_cif.got.tgz:15232.got - 2010.06.03 23:14:55.
