data_PCOD9325490
_publ_section_title
;
Structure prediction by ZEFSAII (Michael W. Deem and Ramdas Pophale) SiO2 
 PCOD9325490
Probable space group: C 2 2 2
;
_chemical_formula_sum "Si O2"
_cell_formula_units_Z 22
_cell_length_a 13.172497
_cell_length_b 12.761835
_cell_length_c 5.341232
_cell_angle_alpha 90.000000
_cell_angle_beta 90.000000
_cell_angle_gamma 90.000000
_cell_volume 897.889051
_symmetry_space_group_name_H-M "C 2 2 2"
_symmetry_group_IT_number 21
_symmetry_cell_setting 'orthorhombic'
loop_
_space_group_symop_operation_xyz
x,y,z
-x,-y,z
x,-y,-z
-x,y,-z
1/2+x,1/2+y,z
1/2-x,1/2-y,z
1/2+x,1/2-y,-z
1/2-x,1/2+y,-z
loop_
_atom_site_type_symbol
_atom_site_label
_atom_site_fract_x
_atom_site_fract_y
_atom_site_fract_z
Si Si1 0.000000 0.766876 0.500000
Si Si2 0.344591 0.890703 0.357638
Si Si3 0.500000 0.000000 0.000000
Si Si4 0.623575 0.429089 0.246686
O O1 0.099639 0.694486 0.531795
O O2 0.035268 0.843530 0.277866
O O3 0.232723 0.870539 0.252436
O O4 0.333226 0.000000 0.500000
O O5 0.427122 0.922002 0.151320
O O6 0.618338 0.500000 0.500000
O O7 0.618986 0.500000 0.000000
#
# Coordination Sequence:
#
# PCOD9325490 Si02
#       4
#     4   8   2   8
#     4  12  24  46  76 112 150 210 280 330 406 496
#     4  11  23  45  72 113 153 202 271 350 407 487
#     4  12  18  40  80 102 156 200 266 344 414 470
#     4  11  27  49  71 108 161 211 260 335 413 488
#
# _framework density 24.501912000000001
#
# number of rings (size 3 to 8) (size 9 to 14) (size 15 to 20)
#    0.000    0.727    5.455    1.636    0.000    5.818 
#    0.000    3.636    0.000    0.000    0.000    0.000 
#    0.000    0.000    0.000    0.000    0.000    0.000 
#
# Total GULP energy -61482.199912 kJ/mol
# GULP energy per Si atom -5589.290901 kJ/mol
# Density = 2.444614 g / cm^3
# Si number density = 24.501912 Si / 1000 Ang^3
#
#
#
# Elastic Constant Matrix: (Units=GPa)
#
#
# Indices 1 2 3 4 5 6 
#
# 1 210.5574 75.4255 58.0728 0.0000 0.0000 0.0000
# 2 75.4255 139.9520 57.1155 0.0000 0.0000 0.0000
# 3 58.0728 57.1155 118.9951 0.0000 0.0000 0.0000
# 4 0.0000 0.0000 0.0000 43.5340 0.0000 0.0000
# 5 0.0000 0.0000 0.0000 0.0000 -40.2159 0.0000
# 6 0.0000 0.0000 0.0000 0.0000 0.0000 0.2937
#
#
#
# Elastic Compliance Matrix: (Units=1/GPa)
#
#
# Indices 1 2 3 4 5 6 
#
# 1 0.006168 -0.002606 -0.001759 0.000000 0.000000 0.000000
# 2 -0.002606 0.009987 -0.003522 0.000000 0.000000 0.000000
# 3 -0.001759 -0.003522 0.010953 0.000000 0.000000 0.000000
# 4 0.000000 0.000000 0.000000 0.022971 0.000000 0.000000
# 5 0.000000 0.000000 0.000000 0.000000 -0.024866 0.000000
# 6 0.000000 0.000000 0.000000 0.000000 0.000000 3.404711
#
#
# Mechanical properties :
#
#
# Convention : Reuss Voigt Hill
#
# Bulk Modulus (GPa) = 88.23454 94.52578 91.38016
# Shear Modulus (GPa) = 1.44950 19.31510 10.38230
#
# Velocity S-wave (km/s) = 0.76998 2.81073 2.06071
# Velocity P-wave (km/s) = 6.07289 7.01401 6.56035
#
# Compressibility (1/GPa) = 0.01133343
#
# Stress axis : x y z
#
# Youngs Moduli (GPa) = 162.12389 100.12847 91.30229
#
# Poissons Ratio (x) = 0.26096 0.16062
# Poissons Ratio (y) = 0.42254 0.32154
# Poissons Ratio (z) = 0.28522 0.35262
#
# Static dielectric constant tensor:
#      x y z
#    x 2.022370 0.000000 0.000000 
#    y 0.000000 2.030640 0.000000 
#    z 0.000000 0.000000 1.975110 
# 
# From -- ./inp_files/1970.got.cif
#   From: 2010.05.17/outbox.cif.g08.bks.cpg/sg21_1_cif.got.tgz:1970.got - 2010.06.03 23:14:55.
