data_PCOD9325096
_publ_section_title
;
Structure prediction by ZEFSAII (Michael W. Deem and Ramdas Pophale) SiO2 
 PCOD9325096
Probable space group: C 2 2 2
;
_chemical_formula_sum "Si O2"
_cell_formula_units_Z 38
_cell_length_a 10.162318
_cell_length_b 10.337848
_cell_length_c 17.386906
_cell_angle_alpha 90.000000
_cell_angle_beta 90.000000
_cell_angle_gamma 90.000000
_cell_volume 1826.607470
_symmetry_space_group_name_H-M "C 2 2 2"
_symmetry_group_IT_number 21
_symmetry_cell_setting 'orthorhombic'
loop_
_space_group_symop_operation_xyz
x,y,z
-x,-y,z
x,-y,-z
-x,y,-z
1/2+x,1/2+y,z
1/2-x,1/2-y,z
1/2+x,1/2-y,-z
1/2-x,1/2+y,-z
loop_
_atom_site_type_symbol
_atom_site_label
_atom_site_fract_x
_atom_site_fract_y
_atom_site_fract_z
Si Si1 0.190805 0.378733 0.206135
Si Si2 0.000000 0.000000 0.500000
Si Si3 0.311138 0.452037 0.912040
Si Si4 0.000000 0.500000 0.676423
Si Si5 0.462020 0.800759 0.088296
Si Si6 0.591529 0.240062 0.430293
O O1 0.250000 0.250000 0.242554
O O2 0.303773 0.441366 0.153617
O O3 0.124617 0.465544 0.270383
O O4 0.075741 0.343695 0.145269
O O5 0.059122 0.105544 0.561053
O O6 0.426036 0.349035 0.902789
O O7 0.172226 0.378691 0.899275
O O8 0.313558 0.500000 0.000000
O O9 0.045777 0.365828 0.633723
O O10 0.500000 0.824312 0.000000
O O11 0.500000 0.188128 0.500000
O O12 0.750000 0.250000 0.437515
#
# Coordination Sequence:
#
# PCOD9325096 Si02
#       6
#     8   2   8   4   8   8
#     4  12  26  43  63  93 137 186 226 282 346 416
#     4   8  24  42  78 116 144 162 224 280 324 390
#     4  11  22  39  65  89 125 174 241 305 350 398
#     4  12  27  44  71 104 150 188 224 268 349 422
#     4  11  22  39  65  91 122 176 243 301 352 401
#     4  10  25  46  81 113 142 179 225 279 336 406
#
# _framework density 20.803595000000001
#
# number of rings (size 3 to 8) (size 9 to 14) (size 15 to 20)
#    0.632    0.421    4.211    1.579    2.947    7.158 
#    0.000    0.000    0.000    0.000    0.000    0.000 
#    0.000    0.000    0.000    0.000    0.000    0.000 
#
# Total GULP energy -105773.590014 kJ/mol
# GULP energy per Si atom -5567.031053 kJ/mol
# Density = 2.075624 g / cm^3
# Si number density = 20.803595 Si / 1000 Ang^3
#
#
#
# Elastic Constant Matrix: (Units=GPa)
#
#
# Indices 1 2 3 4 5 6 
#
# 1 78.7061 38.8334 35.4673 0.0000 0.0000 0.0000
# 2 38.8334 151.8669 61.1806 0.0000 0.0000 0.0000
# 3 35.4673 61.1806 93.4956 0.0000 0.0000 0.0000
# 4 0.0000 0.0000 0.0000 19.2962 0.0000 0.0000
# 5 0.0000 0.0000 0.0000 0.0000 -16.7231 0.0000
# 6 0.0000 0.0000 0.0000 0.0000 0.0000 35.7957
#
#
#
# Elastic Compliance Matrix: (Units=1/GPa)
#
#
# Indices 1 2 3 4 5 6 
#
# 1 0.015856 -0.002215 -0.004565 0.000000 0.000000 0.000000
# 2 -0.002215 0.009251 -0.005214 0.000000 0.000000 0.000000
# 3 -0.004565 -0.005214 0.015839 0.000000 0.000000 0.000000
# 4 0.000000 0.000000 0.000000 0.051824 0.000000 0.000000
# 5 0.000000 0.000000 0.000000 0.000000 -0.059797 0.000000
# 6 0.000000 0.000000 0.000000 0.000000 0.000000 0.027936
#
#
# Mechanical properties :
#
#
# Convention : Reuss Voigt Hill
#
# Bulk Modulus (GPa) = 58.96841 66.11458 62.54149
# Shear Modulus (GPa) = 55.21823 20.24623 37.73223
#
# Velocity S-wave (km/s) = 5.15754 3.12301 4.26342
# Velocity P-wave (km/s) = 7.99211 6.69729 7.37318
#
# Compressibility (1/GPa) = 0.01695823
#
# Stress axis : x y z
#
# Youngs Moduli (GPa) = 63.06864 108.09083 63.13509
#
# Poissons Ratio (x) = 0.23945 0.28822
# Poissons Ratio (y) = 0.13972 0.32916
# Poissons Ratio (z) = 0.28792 0.56353
#
# Static dielectric constant tensor:
#      x y z
#    x 1.732220 0.000000 0.000000 
#    y 0.000000 1.851890 0.000000 
#    z 0.000000 0.000000 1.723850 
# 
# From -- ./inp_files/36074.got.cif
#   From: 2010.05.17/outbox.cif.g08.bks.cpg/sg21_19_cif.got.tgz:36074.got - 2010.06.03 23:14:55.
