data_PCOD9325445
_publ_section_title
;
Structure prediction by ZEFSAII (Michael W. Deem and Ramdas Pophale) SiO2 
 PCOD9325445
Probable space group: C 2 2 2
;
_chemical_formula_sum "Si O2"
_cell_formula_units_Z 24
_cell_length_a 7.929798
_cell_length_b 12.115706
_cell_length_c 10.009051
_cell_angle_alpha 90.000000
_cell_angle_beta 90.000000
_cell_angle_gamma 90.000000
_cell_volume 961.620588
_symmetry_space_group_name_H-M "C 2 2 2"
_symmetry_group_IT_number 21
_symmetry_cell_setting 'orthorhombic'
loop_
_space_group_symop_operation_xyz
x,y,z
-x,-y,z
x,-y,-z
-x,y,-z
1/2+x,1/2+y,z
1/2-x,1/2-y,z
1/2+x,1/2-y,-z
1/2-x,1/2+y,-z
loop_
_atom_site_type_symbol
_atom_site_label
_atom_site_fract_x
_atom_site_fract_y
_atom_site_fract_z
Si Si1 0.679620 0.356908 0.069681
Si Si2 0.697577 0.627650 0.468439
Si Si3 0.680711 0.057287 0.805837
O O1 0.750000 0.250000 0.140663
O O2 0.808618 0.379955 0.947098
O O3 0.500000 0.347277 0.000000
O O4 0.688353 0.457404 0.170862
O O5 0.762945 0.500000 0.500000
O O6 0.500000 0.622463 0.500000
O O7 0.750000 0.750000 0.525003
O O8 0.756464 0.630601 0.314494
O O9 0.500000 0.000000 0.785455
#
# Coordination Sequence:
#
# PCOD9325445 Si02
#       3
#     8   8   8
#     4  11  23  41  72 110 150 193 245 305 386 464
#     4  11  29  50  78 108 152 200 268 316 384 446
#     4  11  24  44  72 105 149 193 247 311 383 454
#
# _framework density 24.957865999999999
#
# number of rings (size 3 to 8) (size 9 to 14) (size 15 to 20)
#    0.000    1.000    0.000    7.000   14.000    1.333 
#    0.000    0.000    0.000    0.000    0.000    0.000 
#    0.000    0.000    0.000    0.000    0.000    0.000 
#
# Total GULP energy -66989.054708 kJ/mol
# GULP energy per Si atom -5582.421226 kJ/mol
# Density = 2.490106 g / cm^3
# Si number density = 24.957866 Si / 1000 Ang^3
#
#
#
# Elastic Constant Matrix: (Units=GPa)
#
#
# Indices 1 2 3 4 5 6 
#
# 1 160.8788 38.3492 25.5585 0.0000 0.0000 0.0000
# 2 38.3492 219.9550 26.8082 0.0000 0.0000 0.0000
# 3 25.5585 26.8082 74.2887 0.0000 0.0000 0.0000
# 4 0.0000 0.0000 0.0000 3.1903 0.0000 0.0000
# 5 0.0000 0.0000 0.0000 0.0000 22.9094 0.0000
# 6 0.0000 0.0000 0.0000 0.0000 0.0000 29.3189
#
#
#
# Elastic Compliance Matrix: (Units=1/GPa)
#
#
# Indices 1 2 3 4 5 6 
#
# 1 0.006754 -0.000936 -0.001986 0.000000 0.000000 0.000000
# 2 -0.000936 0.004885 -0.001441 0.000000 0.000000 0.000000
# 3 -0.001986 -0.001441 0.014664 0.000000 0.000000 0.000000
# 4 0.000000 0.000000 0.000000 0.313451 0.000000 0.000000
# 5 0.000000 0.000000 0.000000 0.000000 0.043650 0.000000
# 6 0.000000 0.000000 0.000000 0.000000 0.000000 0.034108
#
#
# Mechanical properties :
#
#
# Convention : Reuss Voigt Hill
#
# Bulk Modulus (GPa) = 56.88809 70.72826 63.80818
# Shear Modulus (GPa) = 11.57146 35.37750 23.47448
#
# Velocity S-wave (km/s) = 2.15557 3.76904 3.07019
# Velocity P-wave (km/s) = 5.38873 6.88051 6.17980
#
# Compressibility (1/GPa) = 0.01757837
#
# Stress axis : x y z
#
# Youngs Moduli (GPa) = 148.05133 204.70289 68.19263
#
# Poissons Ratio (x) = 0.19151 0.13544
# Poissons Ratio (y) = 0.13851 0.09827
# Poissons Ratio (z) = 0.29406 0.29498
#
# Static dielectric constant tensor:
#      x y z
#    x 1.952580 0.000000 0.000000 
#    y 0.000000 2.174470 0.000000 
#    z 0.000000 0.000000 1.961550 
# 
# From -- ./inp_files/21630.got.cif
#   From: 2010.05.17/outbox.cif.g08.bks.cpg/sg21_11_cif.got.tgz:21630.got - 2010.06.03 23:14:55.
