data_PCOD9325050
_publ_section_title
;
Structure prediction by ZEFSAII (Michael W. Deem and Ramdas Pophale) SiO2 
 PCOD9325050
Probable space group: C 2 2 2
;
_chemical_formula_sum "Si O2"
_cell_formula_units_Z 34
_cell_length_a 21.842649
_cell_length_b 11.023668
_cell_length_c 6.398931
_cell_angle_alpha 90.000000
_cell_angle_beta 90.000000
_cell_angle_gamma 90.000000
_cell_volume 1540.773709
_symmetry_space_group_name_H-M "C 2 2 2"
_symmetry_group_IT_number 21
_symmetry_cell_setting 'orthorhombic'
loop_
_space_group_symop_operation_xyz
x,y,z
-x,-y,z
x,-y,-z
-x,y,-z
1/2+x,1/2+y,z
1/2-x,1/2-y,z
1/2+x,1/2-y,-z
1/2-x,1/2+y,-z
loop_
_atom_site_type_symbol
_atom_site_label
_atom_site_fract_x
_atom_site_fract_y
_atom_site_fract_z
Si Si1 0.500000 0.346836 0.000000
Si Si2 0.788546 0.000000 0.500000
Si Si3 0.217051 0.625506 0.861716
Si Si4 0.000000 0.500000 0.500000
Si Si5 0.093693 0.105027 0.650302
Si Si6 0.084190 0.693782 0.692229
O O1 0.447674 0.403500 0.852617
O O2 0.541438 0.272173 0.840556
O O3 0.749487 0.089633 0.642255
O O4 0.834716 0.068654 0.339345
O O5 0.250000 0.750000 0.944152
O O6 0.147767 0.663036 0.804133
O O7 0.218488 0.500000 0.000000
O O8 0.045226 0.576649 0.641721
O O9 0.091656 0.231223 0.524559
O O10 0.069049 0.000000 0.500000
#
# Coordination Sequence:
#
# PCOD9325050 Si02
#       6
#     4   4   8   2   8   8
#     4  12  26  44  80 110 148 199 257 306 398 482
#     4  10  25  50  79 105 159 194 254 324 398 468
#     4  12  28  49  80 115 153 209 272 323 394 476
#     4  12  26  50  70 108 156 200 252 318 400 468
#     4  10  24  48  75 112 148 196 248 325 395 462
#     4  12  27  48  72 111 153 201 254 321 392 462
#
# _framework density 22.066837
#
# number of rings (size 3 to 8) (size 9 to 14) (size 15 to 20)
#    0.706    0.000    4.706    0.706    6.588    6.588 
#    0.000    0.000    0.000    0.000    0.000    0.000 
#    0.000    0.000    0.000    0.000    0.000    0.000 
#
# Total GULP energy -94907.641534 kJ/mol
# GULP energy per Si atom -5582.802443 kJ/mol
# Density = 2.201661 g / cm^3
# Si number density = 22.066837 Si / 1000 Ang^3
#
#
#
# Elastic Constant Matrix: (Units=GPa)
#
#
# Indices 1 2 3 4 5 6 
#
# 1 157.6328 50.0734 33.3788 0.0000 0.0000 0.0000
# 2 50.0734 127.8648 38.9640 0.0000 0.0000 0.0000
# 3 33.3788 38.9640 78.5997 0.0000 0.0000 0.0000
# 4 0.0000 0.0000 0.0000 73.5392 0.0000 0.0000
# 5 0.0000 0.0000 0.0000 0.0000 20.8230 0.0000
# 6 0.0000 0.0000 0.0000 0.0000 0.0000 41.2075
#
#
#
# Elastic Compliance Matrix: (Units=1/GPa)
#
#
# Indices 1 2 3 4 5 6 
#
# 1 0.007513 -0.002320 -0.002040 0.000000 0.000000 0.000000
# 2 -0.002320 0.009929 -0.003937 0.000000 0.000000 0.000000
# 3 -0.002040 -0.003937 0.015541 0.000000 0.000000 0.000000
# 4 0.000000 0.000000 0.000000 0.013598 0.000000 0.000000
# 5 0.000000 0.000000 0.000000 0.000000 0.048024 0.000000
# 6 0.000000 0.000000 0.000000 0.000000 0.000000 0.024267
#
#
# Mechanical properties :
#
#
# Convention : Reuss Voigt Hill
#
# Bulk Modulus (GPa) = 61.02035 67.65887 64.33961
# Shear Modulus (GPa) = 35.47874 43.22603 39.35238
#
# Velocity S-wave (km/s) = 4.01407 4.43071 4.22753
# Velocity P-wave (km/s) = 7.01400 7.54337 7.28350
#
# Compressibility (1/GPa) = 0.01638798
#
# Stress axis : x y z
#
# Youngs Moduli (GPa) = 133.10285 100.71406 64.34747
#
# Poissons Ratio (x) = 0.23370 0.13128
# Poissons Ratio (y) = 0.30886 0.25332
# Poissons Ratio (z) = 0.27156 0.39648
#
# Static dielectric constant tensor:
#      x y z
#    x 1.775410 0.000000 0.000000 
#    y 0.000000 1.876280 0.000000 
#    z 0.000000 0.000000 1.780800 
# 
# From -- ./inp_files/6528.got.cif
#   From: 2010.05.17/outbox.cif.g08.bks.cpg/sg21_4_cif.got.tgz:6528.got - 2010.06.03 23:14:55.
