data_PCOD9325811
_publ_section_title
;
Structure prediction by ZEFSAII (Michael W. Deem and Ramdas Pophale) SiO2 
 PCOD9325811
Probable space group: C 2 2 2
;
_chemical_formula_sum "Si O2"
_cell_formula_units_Z 16
_cell_length_a 8.754329
_cell_length_b 13.852727
_cell_length_c 4.871072
_cell_angle_alpha 90.000000
_cell_angle_beta 90.000000
_cell_angle_gamma 90.000000
_cell_volume 590.721379
_symmetry_space_group_name_H-M "C 2 2 2"
_symmetry_group_IT_number 21
_symmetry_cell_setting 'orthorhombic'
loop_
_space_group_symop_operation_xyz
x,y,z
-x,-y,z
x,-y,-z
-x,y,-z
1/2+x,1/2+y,z
1/2-x,1/2-y,z
1/2+x,1/2-y,-z
1/2-x,1/2+y,-z
loop_
_atom_site_type_symbol
_atom_site_label
_atom_site_fract_x
_atom_site_fract_y
_atom_site_fract_z
Si Si1 0.000000 0.343122 0.000000
Si Si2 0.784369 0.068338 0.751095
Si Si3 0.750000 0.750000 0.581484
O O1 0.879575 0.290811 0.208683
O O2 0.109468 0.408023 0.183880
O O3 0.829923 0.173245 0.627438
O O4 0.807132 0.000000 0.500000
O O5 0.840206 0.000000 0.000000
#
# Coordination Sequence:
#
# PCOD9325811 Si02
#       3
#     4   8   4
#     4  12  27  50  82 129 162 220 267 362 399 500
#     4  12  27  47  82 126 161 214 280 340 404 499
#     4  12  28  48  84 132 170 208 286 346 420 480
#
# _framework density 27.085526000000002
#
# number of rings (size 3 to 8) (size 9 to 14) (size 15 to 20)
#    0.000    0.000    5.000    3.750    7.000    0.000 
#    0.000    0.000    0.000   42.000    0.000    0.000 
#    0.000    0.000    0.000    0.000    0.000    0.000 
#
# Total GULP energy -44657.159211 kJ/mol
# GULP energy per Si atom -5582.144901 kJ/mol
# Density = 2.702388 g / cm^3
# Si number density = 27.085526 Si / 1000 Ang^3
#
#
#
# Elastic Constant Matrix: (Units=GPa)
#
#
# Indices 1 2 3 4 5 6 
#
# 1 147.8880 28.6929 35.8218 0.0000 0.0000 0.0000
# 2 28.6929 181.5511 88.8440 0.0000 0.0000 0.0000
# 3 35.8218 88.8440 260.0095 0.0000 0.0000 0.0000
# 4 0.0000 0.0000 0.0000 -87.3919 0.0000 0.0000
# 5 0.0000 0.0000 0.0000 0.0000 44.3102 0.0000
# 6 0.0000 0.0000 0.0000 0.0000 0.0000 68.0406
#
#
#
# Elastic Compliance Matrix: (Units=1/GPa)
#
#
# Indices 1 2 3 4 5 6 
#
# 1 0.007084 -0.000771 -0.000713 0.000000 0.000000 0.000000
# 2 -0.000771 0.006698 -0.002182 0.000000 0.000000 0.000000
# 3 -0.000713 -0.002182 0.004690 0.000000 0.000000 0.000000
# 4 0.000000 0.000000 0.000000 -0.011443 0.000000 0.000000
# 5 0.000000 0.000000 0.000000 0.000000 0.022568 0.000000
# 6 0.000000 0.000000 0.000000 0.000000 0.000000 0.014697
#
#
# Mechanical properties :
#
#
# Convention : Reuss Voigt Hill
#
# Bulk Modulus (GPa) = 89.76588 99.57401 94.66994
# Shear Modulus (GPa) = 90.35121 34.06445 62.20783
#
# Velocity S-wave (km/s) = 5.78188 3.55020 4.79761
# Velocity P-wave (km/s) = 8.81970 7.32447 8.10663
#
# Compressibility (1/GPa) = 0.01114009
#
# Stress axis : x y z
#
# Youngs Moduli (GPa) = 141.16245 149.29997 213.22350
#
# Poissons Ratio (x) = 0.11509 0.15194
# Poissons Ratio (y) = 0.10882 0.46535
# Poissons Ratio (z) = 0.10059 0.32584
#
# Static dielectric constant tensor:
#      x y z
#    x 2.075990 0.000000 0.000000 
#    y 0.000000 2.095620 0.000000 
#    z 0.000000 0.000000 2.079220 
# 
# From -- ./inp_files/860.got.cif
#   From: 2010.05.17/outbox.cif.g08.bks.cpg/sg21_1_cif.got.tgz:860.got - 2010.06.03 23:14:55.
