data_PCOD9325790
_publ_section_title
;
Structure prediction by ZEFSAII (Michael W. Deem and Ramdas Pophale) SiO2 
 PCOD9325790
Probable space group: C 2 2 2
;
_chemical_formula_sum "Si O2"
_cell_formula_units_Z 26
_cell_length_a 8.831629
_cell_length_b 24.191350
_cell_length_c 5.033547
_cell_angle_alpha 90.000000
_cell_angle_beta 90.000000
_cell_angle_gamma 90.000000
_cell_volume 1075.412425
_symmetry_space_group_name_H-M "C 2 2 2"
_symmetry_group_IT_number 21
_symmetry_cell_setting 'orthorhombic'
loop_
_space_group_symop_operation_xyz
x,y,z
-x,-y,z
x,-y,-z
-x,y,-z
1/2+x,1/2+y,z
1/2-x,1/2-y,z
1/2+x,1/2-y,-z
1/2-x,1/2+y,-z
loop_
_atom_site_type_symbol
_atom_site_label
_atom_site_fract_x
_atom_site_fract_y
_atom_site_fract_z
Si Si1 0.660613 0.914476 0.881519
Si Si2 0.893121 0.128711 0.756621
Si Si3 0.500000 0.000000 0.500000
Si Si4 0.177698 0.695609 0.445745
O O1 0.611460 0.964499 0.689733
O O2 0.701780 0.861271 0.710511
O O3 0.500000 0.898434 0.000000
O O4 0.784008 0.919336 0.117166
O O5 0.782594 0.180276 0.697530
O O6 0.000000 0.115229 0.500000
O O7 0.000000 0.143554 0.000000
O O8 0.250000 0.750000 0.320900
O O9 0.000000 0.702920 0.500000
#
# Coordination Sequence:
#
# PCOD9325790 Si02
#       4
#     8   8   2   8
#     4  12  25  51  86 127 167 224 303 354 425 516
#     4  12  26  49  80 121 172 217 273 359 433 513
#     4  12  26  52  92 132 156 238 306 368 416 526
#     4  12  26  49  78 128 166 229 282 353 432 517
#
# _framework density 24.176773000000001
#
# number of rings (size 3 to 8) (size 9 to 14) (size 15 to 20)
#    0.000    0.000    7.692    1.385    0.000    1.231 
#    5.538    0.000    0.000   25.846    0.000    0.000 
#    0.000    0.000    0.000    0.000    0.000    0.000 
#
# Total GULP energy -72601.273741 kJ/mol
# GULP energy per Si atom -5584.713365 kJ/mol
# Density = 2.412175 g / cm^3
# Si number density = 24.176773 Si / 1000 Ang^3
#
#
#
# Elastic Constant Matrix: (Units=GPa)
#
#
# Indices 1 2 3 4 5 6 
#
# 1 219.4316 57.3021 89.8055 0.0000 0.0000 0.0000
# 2 57.3021 143.6703 58.4975 0.0000 0.0000 0.0000
# 3 89.8055 58.4975 133.5910 0.0000 0.0000 0.0000
# 4 0.0000 0.0000 0.0000 20.0218 0.0000 0.0000
# 5 0.0000 0.0000 0.0000 0.0000 58.2969 0.0000
# 6 0.0000 0.0000 0.0000 0.0000 0.0000 31.0224
#
#
#
# Elastic Compliance Matrix: (Units=1/GPa)
#
#
# Indices 1 2 3 4 5 6 
#
# 1 0.006397 -0.000974 -0.003874 0.000000 0.000000 0.000000
# 2 -0.000974 0.008619 -0.003119 0.000000 0.000000 0.000000
# 3 -0.003874 -0.003119 0.011456 0.000000 0.000000 0.000000
# 4 0.000000 0.000000 0.000000 0.049946 0.000000 0.000000
# 5 0.000000 0.000000 0.000000 0.000000 0.017154 0.000000
# 6 0.000000 0.000000 0.000000 0.000000 0.000000 0.032235
#
#
# Mechanical properties :
#
#
# Convention : Reuss Voigt Hill
#
# Bulk Modulus (GPa) = 94.90232 100.87810 97.89021
# Shear Modulus (GPa) = 34.42291 41.27408 37.84850
#
# Velocity S-wave (km/s) = 3.77742 4.13628 3.96092
# Velocity P-wave (km/s) = 7.63963 8.03913 7.84192
#
# Compressibility (1/GPa) = 0.01053715
#
# Stress axis : x y z
#
# Youngs Moduli (GPa) = 156.32297 116.02324 87.29413
#
# Poissons Ratio (x) = 0.11302 0.33816
# Poissons Ratio (y) = 0.15228 0.27229
# Poissons Ratio (z) = 0.60556 0.36191
#
# Static dielectric constant tensor:
#      x y z
#    x 1.954300 0.000000 0.000000 
#    y 0.000000 1.913430 0.000000 
#    z 0.000000 0.000000 2.290220 
# 
# From -- ./inp_files/1151.got.cif
#   From: 2010.05.17/outbox.cif.g08.bks.cpg/sg21_1_cif.got.tgz:1151.got - 2010.06.03 23:14:55.
