data_PCOD9325524
_publ_section_title
;
Structure prediction by ZEFSAII (Michael W. Deem and Ramdas Pophale) SiO2 
 PCOD9325524
Probable space group: C 2 2 2
;
_chemical_formula_sum "Si O2"
_cell_formula_units_Z 40
_cell_length_a 18.833147
_cell_length_b 8.574793
_cell_length_c 11.324751
_cell_angle_alpha 90.000000
_cell_angle_beta 90.000000
_cell_angle_gamma 90.000000
_cell_volume 1828.837856
_symmetry_space_group_name_H-M "C 2 2 2"
_symmetry_group_IT_number 21
_symmetry_cell_setting 'orthorhombic'
loop_
_space_group_symop_operation_xyz
x,y,z
-x,-y,z
x,-y,-z
-x,y,-z
1/2+x,1/2+y,z
1/2-x,1/2-y,z
1/2+x,1/2-y,-z
1/2-x,1/2+y,-z
loop_
_atom_site_type_symbol
_atom_site_label
_atom_site_fract_x
_atom_site_fract_y
_atom_site_fract_z
Si Si1 0.185551 0.854172 0.921704
Si Si2 0.894765 0.876849 0.324094
Si Si3 0.553735 0.267094 0.324904
Si Si4 0.570201 0.172260 0.056621
Si Si5 0.320414 0.821732 0.478725
O O1 0.250000 0.750000 0.878353
O O2 0.135325 0.882414 0.809096
O O3 0.139458 0.758099 0.014297
O O4 0.210765 0.000000 0.000000
O O5 0.838608 0.790864 0.409596
O O6 0.969111 0.783542 0.340184
O O7 0.915183 0.057523 0.345932
O O8 0.563640 0.192266 0.195771
O O9 0.605311 0.170688 0.408702
O O10 0.500000 0.249516 0.000000
O O11 0.572981 0.000000 0.000000
O O12 0.250000 0.750000 0.417048
O O13 0.300958 0.000000 0.500000
#
# Coordination Sequence:
#
# PCOD9325524 Si02
#       5
#     8   8   8   8   8
#     4  12  25  44  69 103 146 191 242 290 363 431
#     4  11  24  46  74 106 144 188 241 301 364 433
#     4  11  24  45  76 104 142 191 239 298 362 440
#     4  11  24  42  69 105 147 185 238 290 354 424
#     4  12  28  48  73 105 145 189 242 302 367 432
#
# _framework density 21.871813
#
# number of rings (size 3 to 8) (size 9 to 14) (size 15 to 20)
#    0.000    0.600    4.000    3.600    2.800    4.400 
#    3.600    0.000    0.000    0.000    0.000    0.000 
#    0.000    0.000    0.000    0.000    0.000    0.000 
#
# Total GULP energy -111666.544818 kJ/mol
# GULP energy per Si atom -5583.327241 kJ/mol
# Density = 2.182203 g / cm^3
# Si number density = 21.871813 Si / 1000 Ang^3
#
#
#
# Elastic Constant Matrix: (Units=GPa)
#
#
# Indices 1 2 3 4 5 6 
#
# 1 81.8672 20.2204 -1.9279 0.0000 0.0000 0.0000
# 2 20.2204 70.0081 6.0474 0.0000 0.0000 0.0000
# 3 -1.9279 6.0474 78.2854 0.0000 0.0000 0.0000
# 4 0.0000 0.0000 0.0000 24.4736 0.0000 0.0000
# 5 0.0000 0.0000 0.0000 0.0000 23.3967 0.0000
# 6 0.0000 0.0000 0.0000 0.0000 0.0000 32.5590
#
#
#
# Elastic Compliance Matrix: (Units=1/GPa)
#
#
# Indices 1 2 3 4 5 6 
#
# 1 0.013183 -0.003862 0.000623 0.000000 0.000000 0.000000
# 2 -0.003862 0.015511 -0.001293 0.000000 0.000000 0.000000
# 3 0.000623 -0.001293 0.012889 0.000000 0.000000 0.000000
# 4 0.000000 0.000000 0.000000 0.040860 0.000000 0.000000
# 5 0.000000 0.000000 0.000000 0.000000 0.042741 0.000000
# 6 0.000000 0.000000 0.000000 0.000000 0.000000 0.030713
#
#
# Mechanical properties :
#
#
# Convention : Reuss Voigt Hill
#
# Bulk Modulus (GPa) = 30.75060 30.98227 30.86643
# Shear Modulus (GPa) = 28.44107 29.80724 29.12415
#
# Velocity S-wave (km/s) = 3.60995 3.69564 3.65305
# Velocity P-wave (km/s) = 5.60943 5.69267 5.65120
#
# Compressibility (1/GPa) = 0.03251969
#
# Stress axis : x y z
#
# Youngs Moduli (GPa) = 75.85328 64.46992 77.58543
#
# Poissons Ratio (x) = 0.24895 -0.04833
# Poissons Ratio (y) = 0.29291 0.10034
# Poissons Ratio (z) = -0.04725 0.08338
#
# Static dielectric constant tensor:
#      x y z
#    x 1.807180 0.000000 0.000000 
#    y 0.000000 1.782270 0.000000 
#    z 0.000000 0.000000 1.845930 
# 
# From -- ./inp_files/22281.got.cif
#   From: 2010.05.17/outbox.cif.g08.bks.cpg/sg21_12_cif.got.tgz:22281.got - 2010.06.03 23:14:55.
