data_PCOD9325960
_publ_section_title
;
Structure prediction by ZEFSAII (Michael W. Deem and Ramdas Pophale) SiO2 
 PCOD9325960
Probable space group: F 2 2 2
;
_chemical_formula_sum "Si O2"
_cell_formula_units_Z 120
_cell_length_a 13.263197
_cell_length_b 22.397770
_cell_length_c 24.023026
_cell_angle_alpha 90.000000
_cell_angle_beta 90.000000
_cell_angle_gamma 90.000000
_cell_volume 7136.425103
_symmetry_space_group_name_H-M "F 2 2 2"
_symmetry_group_IT_number 22
_symmetry_cell_setting 'orthorhombic'
loop_
_space_group_symop_operation_xyz
x,y,z
-x,-y,z
x,-y,-z
-x,y,-z
x,1/2+y,1/2+z
-x,1/2-y,1/2+z
x,1/2-y,1/2-z
-x,1/2+y,1/2-z
1/2+x,y,1/2+z
1/2-x,-y,1/2+z
1/2+x,-y,1/2-z
1/2-x,y,1/2-z
1/2+x,1/2+y,z
1/2-x,1/2-y,z
1/2+x,1/2-y,-z
1/2-x,1/2+y,-z
loop_
_atom_site_type_symbol
_atom_site_label
_atom_site_fract_x
_atom_site_fract_y
_atom_site_fract_z
Si Si1 0.864312 0.516680 0.378394
Si Si2 0.371457 0.183732 0.857551
Si Si3 0.487809 0.091925 0.565420
Si Si4 0.994923 0.897182 0.563507
Si Si5 0.662867 0.493833 0.563952
Si Si6 0.134499 0.104803 0.750993
Si Si7 0.500000 0.500000 0.774170
Si Si8 0.639954 0.675580 0.866126
O O1 0.917517 0.461387 0.410607
O O2 0.748059 0.506133 0.389432
O O3 0.904356 0.577050 0.407169
O O4 0.908826 0.517393 0.316372
O O5 0.458009 0.153638 0.894740
O O6 0.372774 0.154494 0.796592
O O7 0.378948 0.254977 0.854229
O O8 0.258710 0.169199 0.880853
O O9 0.500000 0.088690 0.500000
O O10 0.433726 0.151282 0.586452
O O11 0.000000 0.874719 0.500000
O O12 0.098924 0.933224 0.571484
O O13 0.911606 0.949915 0.568432
O O14 0.703964 0.500000 0.500000
O O15 0.250000 0.081022 0.750000
O O16 0.049297 0.054731 0.741438
O O17 0.120054 0.135313 0.811309
#
# Coordination Sequence:
#
# PCOD9325960 Si02
#       8
#    16  16  16  16  16  16   8  16
#     4  10  17  30  51  73 113 136 170 207 271 319
#     4  10  21  33  57  73 100 144 176 222 267 314
#     4  10  18  28  49  78 107 136 167 209 267 320
#     4   9  19  33  49  76 107 137 178 222 260 314
#     4   9  17  30  50  73 104 145 176 206 258 324
#     4  10  20  37  55  78 108 136 172 219 269 323
#     4  10  20  34  51  84 109 134 158 232 272 316
#     4  10  19  36  52  79 103 134 183 220 265 310
#
# _framework density 16.815142000000002
#
# number of rings (size 3 to 8) (size 9 to 14) (size 15 to 20)
#    0.000    2.400    2.667    3.600    1.867    4.267 
#    0.000    0.000    0.000    0.800    0.000    0.000 
#    0.000    0.000    0.000    0.000    0.000    0.000 
#
# Total GULP energy -167153.435652 kJ/mol
# GULP energy per Si atom -5571.781188 kJ/mol
# Density = 1.677687 g / cm^3
# Si number density = 16.815142 Si / 1000 Ang^3
#
#
#
# Elastic Constant Matrix: (Units=GPa)
#
#
# Indices 1 2 3 4 5 6 
#
# 1 54.4858 21.1816 13.5889 0.0000 0.0000 0.0000
# 2 21.1816 74.2593 12.6206 0.0000 0.0000 0.0000
# 3 13.5889 12.6206 32.2246 0.0000 0.0000 0.0000
# 4 0.0000 0.0000 0.0000 17.1072 0.0000 0.0000
# 5 0.0000 0.0000 0.0000 0.0000 19.2768 0.0000
# 6 0.0000 0.0000 0.0000 0.0000 0.0000 24.8512
#
#
#
# Elastic Compliance Matrix: (Units=1/GPa)
#
#
# Indices 1 2 3 4 5 6 
#
# 1 0.022160 -0.005070 -0.007359 0.000000 0.000000 0.000000
# 2 -0.005070 0.015587 -0.003966 0.000000 0.000000 0.000000
# 3 -0.007359 -0.003966 0.035689 0.000000 0.000000 0.000000
# 4 0.000000 0.000000 0.000000 0.058455 0.000000 0.000000
# 5 0.000000 0.000000 0.000000 0.000000 0.051876 0.000000
# 6 0.000000 0.000000 0.000000 0.000000 0.000000 0.040240
#
#
# Mechanical properties :
#
#
# Convention : Reuss Voigt Hill
#
# Bulk Modulus (GPa) = 24.60368 28.41687 26.51028
# Shear Modulus (GPa) = 18.49492 19.81894 19.15693
#
# Velocity S-wave (km/s) = 3.32007 3.43685 3.37896
# Velocity P-wave (km/s) = 5.41856 5.71713 5.56984
#
# Compressibility (1/GPa) = 0.04064432
#
# Stress axis : x y z
#
# Youngs Moduli (GPa) = 45.12682 64.15753 28.02001
#
# Poissons Ratio (x) = 0.32529 0.20620
# Poissons Ratio (y) = 0.22880 0.11114
# Poissons Ratio (z) = 0.33208 0.25447
#
# Static dielectric constant tensor:
#      x y z
#    x 1.597220 0.000000 0.000000 
#    y 0.000000 1.571650 0.000000 
#    z 0.000000 0.000000 1.586440 
# 
# From -- ./inp_files/49115.got.cif
#   From: 2010.05.17/outbox.cif.g08.bks.cpg/sg22_25_cif.got.tgz:49115.got - 2010.06.03 23:40:54.
