data_PCOD9325742
_publ_section_title
;
Structure prediction by ZEFSAII (Michael W. Deem and Ramdas Pophale) SiO2 
 PCOD9325742
Probable space group: C 2 2 2
;
_chemical_formula_sum "Si O2"
_cell_formula_units_Z 28
_cell_length_a 5.611893
_cell_length_b 8.046615
_cell_length_c 26.144369
_cell_angle_alpha 90.000000
_cell_angle_beta 90.000000
_cell_angle_gamma 90.000000
_cell_volume 1180.594536
_symmetry_space_group_name_H-M "C 2 2 2"
_symmetry_group_IT_number 21
_symmetry_cell_setting 'orthorhombic'
loop_
_space_group_symop_operation_xyz
x,y,z
-x,-y,z
x,-y,-z
-x,y,-z
1/2+x,1/2+y,z
1/2-x,1/2-y,z
1/2+x,1/2-y,-z
1/2-x,1/2+y,-z
loop_
_atom_site_type_symbol
_atom_site_label
_atom_site_fract_x
_atom_site_fract_y
_atom_site_fract_z
Si Si1 0.750000 0.250000 0.924518
Si Si2 0.750000 0.250000 0.423018
Si Si3 0.000000 0.500000 0.854981
Si Si4 0.500000 0.000000 0.347413
Si Si5 0.250000 0.250000 0.274188
Si Si6 0.500000 0.500000 0.206373
Si Si7 0.000000 0.000000 0.500000
Si Si8 0.500000 0.500000 0.000000
O O1 0.949773 0.336966 0.889417
O O2 0.652996 0.389439 0.961965
O O3 0.859481 0.117094 0.461458
O O4 0.913188 0.354794 0.384866
O O5 0.750528 0.517022 0.824090
O O6 0.678326 0.904855 0.309744
O O7 0.455382 0.331447 0.239248
#
# Coordination Sequence:
#
# PCOD9325742 Si02
#       8
#     4   4   4   4   4   4   2   2
#     4  12  27  48  78 112 152 198 250 308 375 446
#     4  12  24  43  68 100 140 184 240 299 366 438
#     4  12  29  51  80 114 154 200 252 313 377 448
#     4  12  25  45  70 102 142 190 242 301 365 440
#     4  12  27  47  74 106 146 194 248 307 371 442
#     4  12  29  51  78 113 152 199 254 313 377 448
#     4  12  24  42  68 100 138 184 236 300 364 436
#     4  12  26  48  76 110 150 196 248 306 370 448
#
# _framework density 23.716864000000001
#
# number of rings (size 3 to 8) (size 9 to 14) (size 15 to 20)
#    0.000    0.000    0.000    9.429    0.000   13.714 
#    0.000    0.000    0.000    0.000    0.000    0.000 
#    0.000    0.000    0.000    0.000    0.000    0.000 
#
# Total GULP energy -78400.742163 kJ/mol
# GULP energy per Si atom -5600.053012 kJ/mol
# Density = 2.366288 g / cm^3
# Si number density = 23.716864 Si / 1000 Ang^3
#
#
#
# Elastic Constant Matrix: (Units=GPa)
#
#
# Indices 1 2 3 4 5 6 
#
# 1 139.5365 65.2526 95.0174 0.0000 0.0000 0.0000
# 2 65.2526 139.2539 65.7300 0.0000 0.0000 0.0000
# 3 95.0174 65.7300 159.4019 0.0000 0.0000 0.0000
# 4 0.0000 0.0000 0.0000 14.0701 0.0000 0.0000
# 5 0.0000 0.0000 0.0000 0.0000 57.8028 0.0000
# 6 0.0000 0.0000 0.0000 0.0000 0.0000 70.1135
#
#
#
# Elastic Compliance Matrix: (Units=1/GPa)
#
#
# Indices 1 2 3 4 5 6 
#
# 1 0.013015 -0.003026 -0.006510 0.000000 0.000000 0.000000
# 2 -0.003026 0.009620 -0.002163 0.000000 0.000000 0.000000
# 3 -0.006510 -0.002163 0.011046 0.000000 0.000000 0.000000
# 4 0.000000 0.000000 0.000000 0.071073 0.000000 0.000000
# 5 0.000000 0.000000 0.000000 0.000000 0.017300 0.000000
# 6 0.000000 0.000000 0.000000 0.000000 0.000000 0.014263
#
#
# Mechanical properties :
#
#
# Convention : Reuss Voigt Hill
#
# Bulk Modulus (GPa) = 97.25255 98.91026 98.08141
# Shear Modulus (GPa) = 30.64817 42.54344 36.59580
#
# Velocity S-wave (km/s) = 3.59869 4.23993 3.93240
# Velocity P-wave (km/s) = 7.63951 8.10953 7.87803
#
# Compressibility (1/GPa) = 0.01028251
#
# Stress axis : x y z
#
# Youngs Moduli (GPa) = 76.83691 103.95010 90.52902
#
# Poissons Ratio (x) = 0.31450 0.58936
# Poissons Ratio (y) = 0.23247 0.19585
# Poissons Ratio (z) = 0.50023 0.22488
#
# Static dielectric constant tensor:
#      x y z
#    x 1.906750 0.000000 0.000000 
#    y 0.000000 1.823630 0.000000 
#    z 0.000000 0.000000 1.999470 
# 
# From -- ./inp_files/38958.got.cif
#   From: 2010.05.17/outbox.cif.g08.bks.cpg/sg21_20_cif.got.tgz:38958.got - 2010.06.03 23:14:55.
