data_PCOD9325265
_publ_section_title
;
Structure prediction by ZEFSAII (Michael W. Deem and Ramdas Pophale) SiO2 
 PCOD9325265
Probable space group: C 2 2 2
;
_chemical_formula_sum "Si O2"
_cell_formula_units_Z 58
_cell_length_a 21.288429
_cell_length_b 9.301949
_cell_length_c 15.533628
_cell_angle_alpha 90.000000
_cell_angle_beta 90.000000
_cell_angle_gamma 90.000000
_cell_volume 3076.029300
_symmetry_space_group_name_H-M "C 2 2 2"
_symmetry_group_IT_number 21
_symmetry_cell_setting 'orthorhombic'
loop_
_space_group_symop_operation_xyz
x,y,z
-x,-y,z
x,-y,-z
-x,y,-z
1/2+x,1/2+y,z
1/2-x,1/2-y,z
1/2+x,1/2-y,-z
1/2-x,1/2+y,-z
loop_
_atom_site_type_symbol
_atom_site_label
_atom_site_fract_x
_atom_site_fract_y
_atom_site_fract_z
Si Si1 0.934812 0.221834 0.733406
Si Si2 0.995257 0.737262 0.097901
Si Si3 0.097551 0.977996 0.400952
Si Si4 0.106699 0.475771 0.904288
Si Si5 0.754355 0.926214 0.589646
Si Si6 0.553932 0.833477 0.651330
Si Si7 0.000000 0.500000 0.500000
Si Si8 0.160004 0.470871 0.265903
O O1 0.964766 0.170185 0.824635
O O2 0.869457 0.310338 0.734533
O O3 0.988000 0.332401 0.700601
O O4 0.927077 0.101336 0.661627
O O5 0.945549 0.603764 0.100546
O O6 0.064354 0.667007 0.111721
O O7 0.000000 0.795828 0.000000
O O8 0.173016 0.969741 0.401632
O O9 0.074087 0.828853 0.362805
O O10 0.077161 0.000000 0.500000
O O11 0.161637 0.489986 0.834774
O O12 0.131821 0.500000 0.000000
O O13 0.750000 0.750000 0.587036
O O14 0.717210 0.994578 0.670702
O O15 0.730937 0.000000 0.500000
O O16 0.606165 0.923209 0.699094
O O17 0.543089 0.902310 0.558855
#
# Coordination Sequence:
#
# PCOD9325265 Si02
#       8
#     8   8   8   8   8   8   2   8
#     4  11  21  36  59  90 120 153 186 242 301 362
#     4   8  14  27  52  88 122 149 182 227 287 361
#     4  11  26  42  54  79 118 160 203 240 298 352
#     4   8  14  28  53  90 120 142 184 242 291 342
#     4  11  26  42  61  81 111 162 210 254 292 346
#     4  12  22  36  56  83 115 152 190 239 295 357
#     4  12  24  32  58  88 118 148 194 252 310 352
#     4  11  21  35  61  90 114 148 205 246 290 347
#
# _framework density 18.855477
#
# number of rings (size 3 to 8) (size 9 to 14) (size 15 to 20)
#    0.000    1.655    4.138    2.069    4.828    0.552 
#    0.000    0.000    0.000    1.655   14.345    0.000 
#    0.000    0.000    0.000    0.000    0.000    0.000 
#
# Total GULP energy -161621.666343 kJ/mol
# GULP energy per Si atom -5573.160908 kJ/mol
# Density = 1.881256 g / cm^3
# Si number density = 18.855477 Si / 1000 Ang^3
#
#
#
# Elastic Constant Matrix: (Units=GPa)
#
#
# Indices 1 2 3 4 5 6 
#
# 1 60.9267 8.3009 37.5488 0.0000 0.0000 0.0000
# 2 8.3009 63.1350 36.4688 0.0000 0.0000 0.0000
# 3 37.5488 36.4688 164.0758 0.0000 0.0000 0.0000
# 4 0.0000 0.0000 0.0000 17.4140 0.0000 0.0000
# 5 0.0000 0.0000 0.0000 0.0000 19.3538 0.0000
# 6 0.0000 0.0000 0.0000 0.0000 0.0000 20.2545
#
#
#
# Elastic Compliance Matrix: (Units=1/GPa)
#
#
# Indices 1 2 3 4 5 6 
#
# 1 0.019108 0.000016 -0.004376 0.000000 0.000000 0.000000
# 2 0.000016 0.018172 -0.004043 0.000000 0.000000 0.000000
# 3 -0.004376 -0.004043 0.007995 0.000000 0.000000 0.000000
# 4 0.000000 0.000000 0.000000 0.057425 0.000000 0.000000
# 5 0.000000 0.000000 0.000000 0.000000 0.051669 0.000000
# 6 0.000000 0.000000 0.000000 0.000000 0.000000 0.049372
#
#
# Mechanical properties :
#
#
# Convention : Reuss Voigt Hill
#
# Bulk Modulus (GPa) = 35.12674 50.30826 42.71750
# Shear Modulus (GPa) = 21.73555 25.12572 23.43064
#
# Velocity S-wave (km/s) = 3.39889 3.65436 3.52894
# Velocity P-wave (km/s) = 5.83723 6.67418 6.26969
#
# Compressibility (1/GPa) = 0.02846834
#
# Stress axis : x y z
#
# Youngs Moduli (GPa) = 52.33365 55.02908 125.08084
#
# Poissons Ratio (x) = -0.00086 0.54740
# Poissons Ratio (y) = -0.00082 0.50566
# Poissons Ratio (z) = 0.22903 0.22246
#
# Static dielectric constant tensor:
#      x y z
#    x 1.647120 0.000000 0.000000 
#    y 0.000000 1.820610 0.000000 
#    z 0.000000 0.000000 1.743300 
# 
# From -- ./inp_files/33573.got.cif
#   From: 2010.05.17/outbox.cif.g08.bks.cpg/sg21_17_cif.got.tgz:33573.got - 2010.06.03 23:14:55.
