data_PCOD9325223
_publ_section_title
;
Structure prediction by ZEFSAII (Michael W. Deem and Ramdas Pophale) SiO2 
 PCOD9325223
Probable space group: C 2 2 2
;
_chemical_formula_sum "Si O2"
_cell_formula_units_Z 58
_cell_length_a 9.617089
_cell_length_b 17.129185
_cell_length_c 19.581184
_cell_angle_alpha 90.000000
_cell_angle_beta 90.000000
_cell_angle_gamma 90.000000
_cell_volume 3225.665160
_symmetry_space_group_name_H-M "C 2 2 2"
_symmetry_group_IT_number 21
_symmetry_cell_setting 'orthorhombic'
loop_
_space_group_symop_operation_xyz
x,y,z
-x,-y,z
x,-y,-z
-x,y,-z
1/2+x,1/2+y,z
1/2-x,1/2-y,z
1/2+x,1/2-y,-z
1/2-x,1/2+y,-z
loop_
_atom_site_type_symbol
_atom_site_label
_atom_site_fract_x
_atom_site_fract_y
_atom_site_fract_z
Si Si1 0.354148 0.022866 0.077503
Si Si2 0.145343 0.821991 0.270241
Si Si3 0.606652 0.203227 0.934772
Si Si4 0.593000 0.221443 0.779584
Si Si5 0.639984 0.050279 0.717779
Si Si6 0.153579 0.965871 0.177565
Si Si7 0.000000 0.000000 0.500000
Si Si8 0.355109 0.534333 0.367571
O O1 0.343286 0.115092 0.079115
O O2 0.500000 0.000000 0.113439
O O3 0.224292 0.975911 0.105304
O O4 0.366128 0.000000 0.000000
O O5 0.250000 0.750000 0.270834
O O6 0.160830 0.878484 0.205186
O O7 0.170064 0.882480 0.332182
O O8 0.994998 0.782520 0.264863
O O9 0.750000 0.250000 0.948017
O O10 0.541931 0.223307 0.859349
O O11 0.500000 0.207171 0.000000
O O12 0.750000 0.250000 0.783938
O O13 0.596862 0.137401 0.741364
O O14 0.500000 0.000000 0.714063
O O15 0.744856 0.018132 0.775440
O O16 0.732688 0.027319 0.650405
O O17 0.000000 0.000000 0.178604
O O18 0.102332 0.956493 0.446833
O O19 0.500000 0.500000 0.336427
#
# Coordination Sequence:
#
# PCOD9325223 Si02
#       8
#     8   8   8   8   8   8   2   8
#     4  11  23  42  63  80 111 165 212 260 323 390
#     4  11  23  35  60  97 123 153 196 263 308 358
#     4  11  25  42  60  83 122 163 209 267 335 392
#     4  11  22  36  58  87 121 155 200 257 320 364
#     4  11  20  35  63  92 123 155 203 256 302 362
#     4  11  23  39  59  86 119 158 209 256 310 377
#     4   8  20  40  78  84 128 176 222 220 308 372
#     4   9  19  40  66  91 123 171 208 238 291 371
#
# _framework density 17.980786999999999
#
# number of rings (size 3 to 8) (size 9 to 14) (size 15 to 20)
#    0.414    0.966    2.759    5.379    3.862    1.931 
#    0.000    0.345    3.034    0.000    0.000    0.000 
#    0.000    0.000    0.000    0.000    0.000    0.000 
#
# Total GULP energy -161456.364514 kJ/mol
# GULP energy per Si atom -5567.460845 kJ/mol
# Density = 1.793986 g / cm^3
# Si number density = 17.980787 Si / 1000 Ang^3
#
#
#
# Elastic Constant Matrix: (Units=GPa)
#
#
# Indices 1 2 3 4 5 6 
#
# 1 95.6031 30.8019 40.0994 0.0000 0.0000 0.0000
# 2 30.8019 121.8922 34.7499 0.0000 0.0000 0.0000
# 3 40.0994 34.7499 94.5174 0.0000 0.0000 0.0000
# 4 0.0000 0.0000 0.0000 24.1881 0.0000 0.0000
# 5 0.0000 0.0000 0.0000 0.0000 -325.9701 0.0000
# 6 0.0000 0.0000 0.0000 0.0000 0.0000 40.5728
#
#
#
# Elastic Compliance Matrix: (Units=1/GPa)
#
#
# Indices 1 2 3 4 5 6 
#
# 1 0.013119 -0.001931 -0.004856 0.000000 0.000000 0.000000
# 2 -0.001931 0.009449 -0.002655 0.000000 0.000000 0.000000
# 3 -0.004856 -0.002655 0.013616 0.000000 0.000000 0.000000
# 4 0.000000 0.000000 0.000000 0.041343 0.000000 0.000000
# 5 0.000000 0.000000 0.000000 0.000000 -0.003068 0.000000
# 6 0.000000 0.000000 0.000000 0.000000 0.000000 0.024647
#
#
# Mechanical properties :
#
#
# Convention : Reuss Voigt Hill
#
# Bulk Modulus (GPa) = 57.80019 58.14613 57.97316
# Shear Modulus (GPa) = 40.40238 -38.48441 0.95899
#
# Velocity S-wave (km/s) = 4.74537 -4.63136 0.73109
# Velocity P-wave (km/s) = 7.88923 1.95160 5.74668
#
# Compressibility (1/GPa) = 0.01730098
#
# Stress axis : x y z
#
# Youngs Moduli (GPa) = 76.22732 105.83469 73.44197
#
# Poissons Ratio (x) = 0.20434 0.35662
# Poissons Ratio (y) = 0.14717 0.19497
# Poissons Ratio (z) = 0.37014 0.28097
#
# Static dielectric constant tensor:
#      x y z
#    x 1.786480 0.000000 0.000000 
#    y 0.000000 2.899030 0.000000 
#    z 0.000000 0.000000 1.677120 
# 
# From -- ./inp_files/38516.got.cif
#   From: 2010.05.17/outbox.cif.g08.bks.cpg/sg21_20_cif.got.tgz:38516.got - 2010.06.03 23:14:55.
