data_PCOD9325560
_publ_section_title
;
Structure prediction by ZEFSAII (Michael W. Deem and Ramdas Pophale) SiO2 
 PCOD9325560
Probable space group: C 2 2 2
;
_chemical_formula_sum "Si O2"
_cell_formula_units_Z 26
_cell_length_a 16.014668
_cell_length_b 8.182447
_cell_length_c 8.138814
_cell_angle_alpha 90.000000
_cell_angle_beta 90.000000
_cell_angle_gamma 90.000000
_cell_volume 1066.503449
_symmetry_space_group_name_H-M "C 2 2 2"
_symmetry_group_IT_number 21
_symmetry_cell_setting 'orthorhombic'
loop_
_space_group_symop_operation_xyz
x,y,z
-x,-y,z
x,-y,-z
-x,y,-z
1/2+x,1/2+y,z
1/2-x,1/2-y,z
1/2+x,1/2-y,-z
1/2-x,1/2+y,-z
loop_
_atom_site_type_symbol
_atom_site_label
_atom_site_fract_x
_atom_site_fract_y
_atom_site_fract_z
Si Si1 0.661681 0.688862 0.622001
Si Si2 0.000000 0.000000 0.000000
Si Si3 0.882383 0.153757 0.724772
Si Si4 0.095246 0.503111 0.193851
O O1 0.750000 0.750000 0.552381
O O2 0.669901 0.515025 0.713341
O O3 0.597660 0.672071 0.470340
O O4 0.633713 0.829438 0.743820
O O5 0.947786 0.111589 0.871022
O O6 0.854971 0.338490 0.760713
O O7 0.000000 0.500000 0.260284
O O8 0.090954 0.500000 0.000000
#
# Coordination Sequence:
#
# PCOD9325560 Si02
#       4
#     8   2   8   8
#     4  11  27  46  70 111 149 206 256 303 390 463
#     4  12  24  50  74 120 140 196 258 320 410 426
#     4  11  25  44  79 100 155 191 249 323 368 472
#     4  11  24  45  74 111 149 195 253 315 386 462
#
# _framework density 24.378729
#
# number of rings (size 3 to 8) (size 9 to 14) (size 15 to 20)
#    0.000    0.923    0.000    6.462    8.615    9.846 
#    8.308    1.538    0.000    0.000    0.000    0.000 
#    0.000    0.000    0.000    0.000    0.000    0.000 
#
# Total GULP energy -72504.021481 kJ/mol
# GULP energy per Si atom -5577.232422 kJ/mol
# Density = 2.432324 g / cm^3
# Si number density = 24.378729 Si / 1000 Ang^3
#
#
#
# Elastic Constant Matrix: (Units=GPa)
#
#
# Indices 1 2 3 4 5 6 
#
# 1 79.1276 45.9950 45.7478 0.0000 0.0000 0.0000
# 2 45.9950 264.1826 58.2358 0.0000 0.0000 0.0000
# 3 45.7478 58.2358 126.5108 0.0000 0.0000 0.0000
# 4 0.0000 0.0000 0.0000 52.3641 0.0000 0.0000
# 5 0.0000 0.0000 0.0000 0.0000 21.2736 0.0000
# 6 0.0000 0.0000 0.0000 0.0000 0.0000 13.8920
#
#
#
# Elastic Compliance Matrix: (Units=1/GPa)
#
#
# Indices 1 2 3 4 5 6 
#
# 1 0.016676 -0.001752 -0.005224 0.000000 0.000000 0.000000
# 2 -0.001752 0.004397 -0.001390 0.000000 0.000000 0.000000
# 3 -0.005224 -0.001390 0.010434 0.000000 0.000000 0.000000
# 4 0.000000 0.000000 0.000000 0.019097 0.000000 0.000000
# 5 0.000000 0.000000 0.000000 0.000000 0.047007 0.000000
# 6 0.000000 0.000000 0.000000 0.000000 0.000000 0.071984
#
#
# Mechanical properties :
#
#
# Convention : Reuss Voigt Hill
#
# Bulk Modulus (GPa) = 67.68556 85.53092 76.60824
# Shear Modulus (GPa) = 26.14362 38.82877 32.48620
#
# Velocity S-wave (km/s) = 3.27830 3.99523 3.65439
# Velocity P-wave (km/s) = 6.49262 7.51285 7.02129
#
# Compressibility (1/GPa) = 0.01477420
#
# Stress axis : x y z
#
# Youngs Moduli (GPa) = 59.96507 227.43977 95.84459
#
# Poissons Ratio (x) = 0.39844 0.50069
# Poissons Ratio (y) = 0.10505 0.13327
# Poissons Ratio (z) = 0.31325 0.31624
#
# Static dielectric constant tensor:
#      x y z
#    x 2.149890 0.000000 0.000000 
#    y 0.000000 1.928110 0.000000 
#    z 0.000000 0.000000 1.902660 
# 
# From -- ./inp_files/15856.got.cif
#   From: 2010.05.17/outbox.cif.g08.bks.cpg/sg21_8_cif.got.tgz:15856.got - 2010.06.03 23:14:55.
