data_PCOD9325068
_publ_section_title
;
Structure prediction by ZEFSAII (Michael W. Deem and Ramdas Pophale) SiO2 
 PCOD9325068
Probable space group: C 2 2 2
;
_chemical_formula_sum "Si O2"
_cell_formula_units_Z 32
_cell_length_a 27.516099
_cell_length_b 9.020305
_cell_length_c 5.109984
_cell_angle_alpha 90.000000
_cell_angle_beta 90.000000
_cell_angle_gamma 90.000000
_cell_volume 1268.316452
_symmetry_space_group_name_H-M "C 2 2 2"
_symmetry_group_IT_number 21
_symmetry_cell_setting 'orthorhombic'
loop_
_space_group_symop_operation_xyz
x,y,z
-x,-y,z
x,-y,-z
-x,y,-z
1/2+x,1/2+y,z
1/2-x,1/2-y,z
1/2+x,1/2-y,-z
1/2-x,1/2+y,-z
loop_
_atom_site_type_symbol
_atom_site_label
_atom_site_fract_x
_atom_site_fract_y
_atom_site_fract_z
Si Si1 0.659637 0.408162 0.743848
Si Si2 0.564313 0.751314 0.264461
Si Si3 0.888901 0.500000 0.500000
Si Si4 0.318974 0.000000 0.000000
Si Si5 0.000000 0.000000 0.000000
Si Si6 0.750000 0.750000 0.182763
Si Si7 0.500000 0.000000 0.000000
O O1 0.638733 0.500000 0.500000
O O2 0.616834 0.299742 0.835335
O O3 0.709372 0.334004 0.648843
O O4 0.672667 0.500000 0.000000
O O5 0.531216 0.608111 0.192918
O O6 0.580482 0.844163 0.525807
O O7 0.535525 0.888005 0.144644
O O8 0.853399 0.500861 0.251923
O O9 0.282945 0.140137 0.012773
#
# Coordination Sequence:
#
# PCOD9325068 Si02
#       7
#     8   8   4   4   2   4   2
#     4  12  29  48  79 115 162 206 262 329 399 472
#     4  11  25  51  85 117 167 203 276 330 412 476
#     4  12  28  49  84 118 164 212 264 337 408 478
#     4  12  29  47  80 119 162 215 265 325 400 476
#     4  10  24  56  86 124 158 222 272 342 410 496
#     4  12  28  50  80 118 160 208 270 320 394 484
#     4  10  26  52  88 122 152 212 264 338 404 482
#
# _framework density 25.230298000000001
#
# number of rings (size 3 to 8) (size 9 to 14) (size 15 to 20)
#    0.000    0.500    5.000    0.750    5.250    2.500 
#    4.500    0.000    0.000    0.000    0.000    0.000 
#    0.000    0.000    0.000    0.000    0.000    0.000 
#
# Total GULP energy -89306.833302 kJ/mol
# GULP energy per Si atom -5581.677081 kJ/mol
# Density = 2.517287 g / cm^3
# Si number density = 25.230298 Si / 1000 Ang^3
#
#
#
# Elastic Constant Matrix: (Units=GPa)
#
#
# Indices 1 2 3 4 5 6 
#
# 1 181.8743 83.4385 44.7844 0.0000 0.0000 0.0000
# 2 83.4385 176.9356 42.9560 0.0000 0.0000 0.0000
# 3 44.7844 42.9560 109.8231 0.0000 0.0000 0.0000
# 4 0.0000 0.0000 0.0000 17.8798 0.0000 0.0000
# 5 0.0000 0.0000 0.0000 0.0000 -3.1166 0.0000
# 6 0.0000 0.0000 0.0000 0.0000 0.0000 23.8326
#
#
#
# Elastic Compliance Matrix: (Units=1/GPa)
#
#
# Indices 1 2 3 4 5 6 
#
# 1 0.007327 -0.003016 -0.001808 0.000000 0.000000 0.000000
# 2 -0.003016 0.007487 -0.001698 0.000000 0.000000 0.000000
# 3 -0.001808 -0.001698 0.010507 0.000000 0.000000 0.000000
# 4 0.000000 0.000000 0.000000 0.055929 0.000000 0.000000
# 5 0.000000 0.000000 0.000000 0.000000 -0.320859 0.000000
# 6 0.000000 0.000000 0.000000 0.000000 0.000000 0.041959
#
#
# Mechanical properties :
#
#
# Convention : Reuss Voigt Hill
#
# Bulk Modulus (GPa) = 81.46350 90.11009 85.78680
# Shear Modulus (GPa) = -27.69904 27.54943 -0.07480
#
# Velocity S-wave (km/s) = -3.31697 3.30800 -0.17237
# Velocity P-wave (km/s) = 4.20575 7.09810 5.83401
#
# Compressibility (1/GPa) = 0.01227544
#
# Stress axis : x y z
#
# Youngs Moduli (GPa) = 136.47417 133.57300 95.17348
#
# Poissons Ratio (x) = 0.40291 0.17209
# Poissons Ratio (y) = 0.41167 0.16162
# Poissons Ratio (z) = 0.24677 0.22683
#
# Static dielectric constant tensor:
#      x y z
#    x 2.014210 0.000000 0.000000 
#    y 0.000000 2.107930 0.000000 
#    z 0.000000 0.000000 1.987520 
# 
# From -- ./inp_files/7750.got.cif
#   From: 2010.05.17/outbox.cif.g08.bks.cpg/sg21_4_cif.got.tgz:7750.got - 2010.06.03 23:14:55.
