data_PCOD9325750
_publ_section_title
;
Structure prediction by ZEFSAII (Michael W. Deem and Ramdas Pophale) SiO2 
 PCOD9325750
Probable space group: C 2 2 2
;
_chemical_formula_sum "Si O2"
_cell_formula_units_Z 26
_cell_length_a 5.262141
_cell_length_b 8.393073
_cell_length_c 24.548189
_cell_angle_alpha 90.000000
_cell_angle_beta 90.000000
_cell_angle_gamma 90.000000
_cell_volume 1084.183865
_symmetry_space_group_name_H-M "C 2 2 2"
_symmetry_group_IT_number 21
_symmetry_cell_setting 'orthorhombic'
loop_
_space_group_symop_operation_xyz
x,y,z
-x,-y,z
x,-y,-z
-x,y,-z
1/2+x,1/2+y,z
1/2-x,1/2-y,z
1/2+x,1/2-y,-z
1/2-x,1/2+y,-z
loop_
_atom_site_type_symbol
_atom_site_label
_atom_site_fract_x
_atom_site_fract_y
_atom_site_fract_z
Si Si1 0.500000 0.000000 0.500000
Si Si2 0.750000 0.250000 0.963986
Si Si3 0.000000 0.000000 0.114367
Si Si4 0.250000 0.250000 0.807989
Si Si5 0.500000 0.500000 0.661363
Si Si6 0.250000 0.750000 0.418283
Si Si7 0.250000 0.750000 0.734985
O O1 0.358643 0.881926 0.459048
O O2 0.672215 0.393344 0.924705
O O3 0.500000 0.215670 0.000000
O O4 0.820078 0.104159 0.152896
O O5 0.498306 0.226533 0.770921
O O6 0.418239 0.355237 0.622383
O O7 0.296640 0.589564 0.699614
#
# Coordination Sequence:
#
# PCOD9325750 Si02
#       7
#     2   4   4   4   4   4   4
#     4  12  24  44  72 104 148 196 248 310 376 448
#     4  12  30  52  80 115 155 202 254 316 382 454
#     4  12  30  52  80 115 155 202 256 316 380 456
#     4  12  30  52  80 115 155 204 256 316 382 454
#     4  12  27  47  74 109 151 198 253 313 378 452
#     4  12  25  45  72 107 147 196 249 309 376 448
#     4  12  29  51  78 113 155 202 255 317 382 454
#
# _framework density 23.981172999999998
#
# number of rings (size 3 to 8) (size 9 to 14) (size 15 to 20)
#    0.000    0.000    0.000    7.846    0.000   25.846 
#    0.000    0.000    0.000    0.000    0.000    0.000 
#    0.000    0.000    0.000    0.000    0.000    0.000 
#
# Total GULP energy -72908.676187 kJ/mol
# GULP energy per Si atom -5608.359707 kJ/mol
# Density = 2.392659 g / cm^3
# Si number density = 23.981173 Si / 1000 Ang^3
#
#
#
# Elastic Constant Matrix: (Units=GPa)
#
#
# Indices 1 2 3 4 5 6 
#
# 1 190.0008 95.4935 129.0384 0.0000 0.0000 0.0000
# 2 95.4935 193.4300 107.7952 0.0000 0.0000 0.0000
# 3 129.0384 107.7952 206.3030 0.0000 0.0000 0.0000
# 4 0.0000 0.0000 0.0000 73.5100 0.0000 0.0000
# 5 0.0000 0.0000 0.0000 0.0000-1862.4289 0.0000
# 6 0.0000 0.0000 0.0000 0.0000 0.0000 66.1920
#
#
#
# Elastic Compliance Matrix: (Units=1/GPa)
#
#
# Indices 1 2 3 4 5 6 
#
# 1 0.009658 -0.001977 -0.005008 0.000000 0.000000 0.000000
# 2 -0.001977 0.007698 -0.002786 0.000000 0.000000 0.000000
# 3 -0.005008 -0.002786 0.009435 0.000000 0.000000 0.000000
# 4 0.000000 0.000000 0.000000 0.013604 0.000000 0.000000
# 5 0.000000 0.000000 0.000000 0.000000 -0.000537 0.000000
# 6 0.000000 0.000000 0.000000 0.000000 0.000000 0.015108
#
#
# Mechanical properties :
#
#
# Convention : Reuss Voigt Hill
#
# Bulk Modulus (GPa) = 137.93227 139.37645 138.65436
# Shear Modulus (GPa) = 64.99971 -327.38493 -131.19261
#
# Velocity S-wave (km/s) = 5.21184 -11.69675 -7.40441
# Velocity P-wave (km/s) = 9.68811 11.14330 3.89318
#
# Compressibility (1/GPa) = 0.00724993
#
# Stress axis : x y z
#
# Youngs Moduli (GPa) = 103.54311 129.89669 105.98827
#
# Poissons Ratio (x) = 0.25684 0.53075
# Poissons Ratio (y) = 0.20473 0.29526
# Poissons Ratio (z) = 0.51851 0.36186
#
# Static dielectric constant tensor:
#      x y z
#    x 1.889760 0.000000 0.000000 
#    y 0.000000 2.635550 0.000000 
#    z 0.000000 0.000000 1.926030 
# 
# From -- ./inp_files/38043.got.cif
#   From: 2010.05.17/outbox.cif.g08.bks.cpg/sg21_20_cif.got.tgz:38043.got - 2010.06.03 23:14:55.
