data_PCOD9325226
_publ_section_title
;
Structure prediction by ZEFSAII (Michael W. Deem and Ramdas Pophale) SiO2 
 PCOD9325226
Probable space group: C 2 2 2
;
_chemical_formula_sum "Si O2"
_cell_formula_units_Z 34
_cell_length_a 19.125899
_cell_length_b 10.432416
_cell_length_c 8.499945
_cell_angle_alpha 90.000000
_cell_angle_beta 90.000000
_cell_angle_gamma 90.000000
_cell_volume 1695.988371
_symmetry_space_group_name_H-M "C 2 2 2"
_symmetry_group_IT_number 21
_symmetry_cell_setting 'orthorhombic'
loop_
_space_group_symop_operation_xyz
x,y,z
-x,-y,z
x,-y,-z
-x,y,-z
1/2+x,1/2+y,z
1/2-x,1/2-y,z
1/2+x,1/2-y,-z
1/2-x,1/2+y,-z
loop_
_atom_site_type_symbol
_atom_site_label
_atom_site_fract_x
_atom_site_fract_y
_atom_site_fract_z
Si Si1 0.385730 0.032754 0.759278
Si Si2 0.000000 0.500000 0.000000
Si Si3 0.919171 0.698856 0.456092
Si Si4 0.196274 0.138583 0.545829
Si Si5 0.264376 0.610010 0.107970
O O1 0.445833 0.071495 0.883752
O O2 0.388913 0.120166 0.605062
O O3 0.309777 0.050647 0.834070
O O4 0.404734 0.890024 0.695949
O O5 0.875634 0.829418 0.457920
O O6 0.000000 0.713770 0.500000
O O7 0.250000 0.250000 0.499731
O O8 0.191377 0.138763 0.734963
O O9 0.223989 0.000000 0.500000
O O10 0.250000 0.750000 0.032464
O O11 0.296771 0.500000 0.000000
#
# Coordination Sequence:
#
# PCOD9325226 Si02
#       5
#     8   2   8   8   8
#     4  11  20  37  61  94 126 165 211 265 314 386
#     4  12  20  34  64  96 130 158 216 266 326 382
#     4  11  21  38  65  91 126 166 213 264 322 377
#     4  11  23  41  64  91 126 164 217 267 312 379
#     4  11  23  38  59  89 131 164 207 263 323 377
#
# _framework density 20.047305000000001
#
# number of rings (size 3 to 8) (size 9 to 14) (size 15 to 20)
#    0.000    0.941    8.235    2.118    0.000    3.294 
#    0.000    0.000    0.000    0.000    0.000    0.000 
#    0.000    0.000    0.000    0.000    0.000    0.000 
#
# Total GULP energy -94854.226936 kJ/mol
# GULP energy per Si atom -5579.660408 kJ/mol
# Density = 2.000168 g / cm^3
# Si number density = 20.047305 Si / 1000 Ang^3
#
#
#
# Elastic Constant Matrix: (Units=GPa)
#
#
# Indices 1 2 3 4 5 6 
#
# 1 97.6605 20.5341 9.8154 0.0000 0.0000 0.0000
# 2 20.5341 126.0211 20.8118 0.0000 0.0000 0.0000
# 3 9.8154 20.8118 49.4982 0.0000 0.0000 0.0000
# 4 0.0000 0.0000 0.0000 30.1971 0.0000 0.0000
# 5 0.0000 0.0000 0.0000 0.0000 26.7679 0.0000
# 6 0.0000 0.0000 0.0000 0.0000 0.0000 22.1054
#
#
#
# Elastic Compliance Matrix: (Units=1/GPa)
#
#
# Indices 1 2 3 4 5 6 
#
# 1 0.010704 -0.001498 -0.001493 0.000000 0.000000 0.000000
# 2 -0.001498 0.008737 -0.003376 0.000000 0.000000 0.000000
# 3 -0.001493 -0.003376 0.021918 0.000000 0.000000 0.000000
# 4 0.000000 0.000000 0.000000 0.033116 0.000000 0.000000
# 5 0.000000 0.000000 0.000000 0.000000 0.037358 0.000000
# 6 0.000000 0.000000 0.000000 0.000000 0.000000 0.045238
#
#
# Mechanical properties :
#
#
# Convention : Reuss Voigt Hill
#
# Bulk Modulus (GPa) = 34.93380 41.72250 38.32815
# Shear Modulus (GPa) = 27.87882 30.61531 29.24707
#
# Velocity S-wave (km/s) = 3.73319 3.91212 3.82370
# Velocity P-wave (km/s) = 6.00381 6.42366 6.21728
#
# Compressibility (1/GPa) = 0.02862557
#
# Stress axis : x y z
#
# Youngs Moduli (GPa) = 93.41867 114.45813 45.62366
#
# Poissons Ratio (x) = 0.17142 0.06812
# Poissons Ratio (y) = 0.13991 0.15405
# Poissons Ratio (z) = 0.13947 0.38646
#
# Static dielectric constant tensor:
#      x y z
#    x 1.748360 0.000000 0.000000 
#    y 0.000000 1.757630 0.000000 
#    z 0.000000 0.000000 1.744740 
# 
# From -- ./inp_files/12644.got.cif
#   From: 2010.05.17/outbox.cif.g08.bks.cpg/sg21_7_cif.got.tgz:12644.got - 2010.06.03 23:14:55.
