data_PCOD9325753
_publ_section_title
;
Structure prediction by ZEFSAII (Michael W. Deem and Ramdas Pophale) SiO2 
 PCOD9325753
Probable space group: C 2 2 2
;
_chemical_formula_sum "Si O2"
_cell_formula_units_Z 24
_cell_length_a 4.923185
_cell_length_b 19.994619
_cell_length_c 10.912213
_cell_angle_alpha 90.000000
_cell_angle_beta 90.000000
_cell_angle_gamma 90.000000
_cell_volume 1074.167785
_symmetry_space_group_name_H-M "C 2 2 2"
_symmetry_group_IT_number 21
_symmetry_cell_setting 'orthorhombic'
loop_
_space_group_symop_operation_xyz
x,y,z
-x,-y,z
x,-y,-z
-x,y,-z
1/2+x,1/2+y,z
1/2-x,1/2-y,z
1/2+x,1/2-y,-z
1/2-x,1/2+y,-z
loop_
_atom_site_type_symbol
_atom_site_label
_atom_site_fract_x
_atom_site_fract_y
_atom_site_fract_z
Si Si1 0.896881 0.388973 0.292944
Si Si2 0.250000 0.750000 0.412085
Si Si3 0.899483 0.104049 0.873837
Si Si4 0.000000 0.500000 0.500000
Si Si5 0.500000 0.000000 0.000000
O O1 0.795332 0.317087 0.336860
O O2 0.679232 0.413234 0.192810
O O3 0.192397 0.372474 0.233459
O O4 0.887384 0.444937 0.400751
O O5 0.500000 0.738016 0.500000
O O6 0.708399 0.045756 0.925049
O O7 0.000000 0.141693 0.000000
#
# Coordination Sequence:
#
# PCOD9325753 Si02
#       5
#     8   4   8   2   2
#     4  12  28  48  80 112 156 196 259 319 379 458
#     4  12  26  56  76 108 156 214 250 308 394 464
#     4  12  26  46  75 113 147 205 248 311 388 455
#     4  12  30  46  74 126 148 194 264 320 368 462
#     4  12  24  44  74 110 162 190 246 310 392 456
#
# _framework density 22.342879
#
# number of rings (size 3 to 8) (size 9 to 14) (size 15 to 20)
#    0.000    0.000    5.000    3.500    4.667    1.333 
#    0.000    3.333    3.667    0.000    0.000    0.000 
#    0.000    0.000    0.000    0.000    0.000    0.000 
#
# Total GULP energy -66827.498302 kJ/mol
# GULP energy per Si atom -5568.958192 kJ/mol
# Density = 2.229203 g / cm^3
# Si number density = 22.342879 Si / 1000 Ang^3
#
#
#
# Elastic Constant Matrix: (Units=GPa)
#
#
# Indices 1 2 3 4 5 6 
#
# 1 157.2155 12.9915 61.1761 0.0000 0.0000 0.0000
# 2 12.9915 139.6069 43.9303 0.0000 0.0000 0.0000
# 3 61.1761 43.9303 145.6489 0.0000 0.0000 0.0000
# 4 0.0000 0.0000 0.0000 -0.0857 0.0000 0.0000
# 5 0.0000 0.0000 0.0000 0.0000 62.0971 0.0000
# 6 0.0000 0.0000 0.0000 0.0000 0.0000 28.3336
#
#
#
# Elastic Compliance Matrix: (Units=1/GPa)
#
#
# Indices 1 2 3 4 5 6 
#
# 1 0.007617 0.000329 -0.003299 0.000000 0.000000 0.000000
# 2 0.000329 0.007928 -0.002530 0.000000 0.000000 0.000000
# 3 -0.003299 -0.002530 0.009014 0.000000 0.000000 0.000000
# 4 0.000000 0.000000 0.000000-11.673012 0.000000 0.000000
# 5 0.000000 0.000000 0.000000 0.000000 0.016104 0.000000
# 6 0.000000 0.000000 0.000000 0.000000 0.000000 0.035294
#
#
# Mechanical properties :
#
#
# Convention : Reuss Voigt Hill
#
# Bulk Modulus (GPa) = 73.73771 75.40747 74.57259
# Shear Modulus (GPa) = -0.43172 39.69390 19.63109
#
# Velocity S-wave (km/s) = -0.44005 4.21952 2.96738
# Velocity P-wave (km/s) = 5.72855 7.58700 6.72230
#
# Compressibility (1/GPa) = 0.01356158
#
# Stress axis : x y z
#
# Youngs Moduli (GPa) = 131.28400 126.13006 110.93483
#
# Poissons Ratio (x) = -0.04152 0.36593
# Poissons Ratio (y) = -0.04321 0.28062
# Poissons Ratio (z) = 0.43306 0.31906
#
# Static dielectric constant tensor:
#      x y z
#    x 1.849210 0.000000 0.000000 
#    y 0.000000 1.735960 0.000000 
#    z 0.000000 0.000000 1.722960 
# 
# From -- ./inp_files/20364.got.cif
#   From: 2010.05.17/outbox.cif.g08.bks.cpg/sg21_11_cif.got.tgz:20364.got - 2010.06.03 23:14:55.
