data_PCOD9325149
_publ_section_title
;
Structure prediction by ZEFSAII (Michael W. Deem and Ramdas Pophale) SiO2 
 PCOD9325149
Probable space group: C 2 2 2
;
_chemical_formula_sum "Si O2"
_cell_formula_units_Z 34
_cell_length_a 12.893252
_cell_length_b 23.051068
_cell_length_c 5.033416
_cell_angle_alpha 90.000000
_cell_angle_beta 90.000000
_cell_angle_gamma 90.000000
_cell_volume 1495.947486
_symmetry_space_group_name_H-M "C 2 2 2"
_symmetry_group_IT_number 21
_symmetry_cell_setting 'orthorhombic'
loop_
_space_group_symop_operation_xyz
x,y,z
-x,-y,z
x,-y,-z
-x,y,-z
1/2+x,1/2+y,z
1/2-x,1/2-y,z
1/2+x,1/2-y,-z
1/2-x,1/2+y,-z
loop_
_atom_site_type_symbol
_atom_site_label
_atom_site_fract_x
_atom_site_fract_y
_atom_site_fract_z
Si Si1 0.175132 0.377636 0.899316
Si Si2 0.596540 0.393545 0.195640
Si Si3 0.118432 0.439384 0.402852
Si Si4 0.000000 0.000000 0.500000
Si Si5 0.500000 0.701548 0.500000
Si Si6 0.000000 0.717052 0.000000
O O1 0.126738 0.426777 0.092986
O O2 0.296858 0.382827 0.957995
O O3 0.169467 0.390512 0.585568
O O4 0.101967 0.322669 0.953927
O O5 0.572850 0.456463 0.327371
O O6 0.590018 0.343165 0.416510
O O7 0.500000 0.384286 0.000000
O O8 0.164833 0.500000 0.500000
O O9 0.000000 0.438582 0.500000
O O10 0.479195 0.742877 0.747366
#
# Coordination Sequence:
#
# PCOD9325149 Si02
#       6
#     8   8   8   2   4   4
#     4  12  26  44  75 109 147 191 253 301 374 453
#     4  11  27  51  73 114 147 199 255 303 377 454
#     4  11  23  42  67 105 152 192 235 298 372 448
#     4  10  26  48  80 106 162 202 242 318 370 452
#     4  11  26  51  74 102 151 190 259 308 368 442
#     4  12  24  50  75 107 146 198 242 324 384 422
#
# _framework density 22.728072000000001
#
# number of rings (size 3 to 8) (size 9 to 14) (size 15 to 20)
#    0.000    0.706    3.529    2.471    8.235    4.706 
#    4.235    0.000    0.000    0.000    0.000    0.000 
#    0.000    0.000    0.000    0.000    0.000    0.000 
#
# Total GULP energy -94970.465016 kJ/mol
# GULP energy per Si atom -5586.497942 kJ/mol
# Density = 2.267634 g / cm^3
# Si number density = 22.728072 Si / 1000 Ang^3
#
#
#
# Elastic Constant Matrix: (Units=GPa)
#
#
# Indices 1 2 3 4 5 6 
#
# 1 162.7796 49.9894 27.4051 0.0000 0.0000 0.0000
# 2 49.9894 158.1562 51.8081 0.0000 0.0000 0.0000
# 3 27.4051 51.8081 102.5602 0.0000 0.0000 0.0000
# 4 0.0000 0.0000 0.0000 32.7687 0.0000 0.0000
# 5 0.0000 0.0000 0.0000 0.0000 35.6154 0.0000
# 6 0.0000 0.0000 0.0000 0.0000 0.0000 15.7161
#
#
#
# Elastic Compliance Matrix: (Units=1/GPa)
#
#
# Indices 1 2 3 4 5 6 
#
# 1 0.006870 -0.001881 -0.000885 0.000000 0.000000 0.000000
# 2 -0.001881 0.008092 -0.003585 0.000000 0.000000 0.000000
# 3 -0.000885 -0.003585 0.011798 0.000000 0.000000 0.000000
# 4 0.000000 0.000000 0.000000 0.030517 0.000000 0.000000
# 5 0.000000 0.000000 0.000000 0.000000 0.028078 0.000000
# 6 0.000000 0.000000 0.000000 0.000000 0.000000 0.063629
#
#
# Mechanical properties :
#
#
# Convention : Reuss Voigt Hill
#
# Bulk Modulus (GPa) = 71.14148 75.76680 73.45414
# Shear Modulus (GPa) = 30.05309 36.43960 33.24635
#
# Velocity S-wave (km/s) = 3.64027 4.00845 3.82879
# Velocity P-wave (km/s) = 7.00271 7.40487 7.20660
#
# Compressibility (1/GPa) = 0.01405650
#
# Stress axis : x y z
#
# Youngs Moduli (GPa) = 145.55777 123.58100 84.76134
#
# Poissons Ratio (x) = 0.23251 0.07504
# Poissons Ratio (y) = 0.27386 0.30386
# Poissons Ratio (z) = 0.12887 0.44302
#
# Static dielectric constant tensor:
#      x y z
#    x 1.926740 0.000000 0.000000 
#    y 0.000000 1.868150 0.000000 
#    z 0.000000 0.000000 1.869030 
# 
# From -- ./inp_files/3726.got.cif
#   From: 2010.05.17/outbox.cif.g08.bks.cpg/sg21_2_cif.got.tgz:3726.got - 2010.06.03 23:14:55.
