data_PCOD9325884
_publ_section_title
;
Structure prediction by ZEFSAII (Michael W. Deem and Ramdas Pophale) SiO2 
 PCOD9325884
Probable space group: F 2 2 2
;
_chemical_formula_sum "Si O2"
_cell_formula_units_Z 80
_cell_length_a 13.964701
_cell_length_b 7.852331
_cell_length_c 33.057530
_cell_angle_alpha 90.000000
_cell_angle_beta 90.000000
_cell_angle_gamma 90.000000
_cell_volume 3624.938479
_symmetry_space_group_name_H-M "F 2 2 2"
_symmetry_group_IT_number 22
_symmetry_cell_setting 'orthorhombic'
loop_
_space_group_symop_operation_xyz
x,y,z
-x,-y,z
x,-y,-z
-x,y,-z
x,1/2+y,1/2+z
-x,1/2-y,1/2+z
x,1/2-y,1/2-z
-x,1/2+y,1/2-z
1/2+x,y,1/2+z
1/2-x,-y,1/2+z
1/2+x,-y,1/2-z
1/2-x,y,1/2-z
1/2+x,1/2+y,z
1/2-x,1/2-y,z
1/2+x,1/2-y,-z
1/2-x,1/2+y,-z
loop_
_atom_site_type_symbol
_atom_site_label
_atom_site_fract_x
_atom_site_fract_y
_atom_site_fract_z
Si Si1 0.749707 0.541845 0.818967
Si Si2 0.765036 0.491392 0.589025
Si Si3 0.108925 0.546824 0.248747
Si Si4 0.110488 0.799805 0.446773
Si Si5 0.102446 0.677556 0.528190
O O1 0.750000 0.750000 0.823589
O O2 0.739784 0.466492 0.863244
O O3 0.843318 0.490917 0.793355
O O4 0.665570 0.486798 0.788399
O O5 0.834607 0.654111 0.578623
O O6 0.657565 0.534081 0.573371
O O7 0.825516 0.355576 0.564095
O O8 0.120830 0.750000 0.250000
O O9 0.000000 0.500000 0.250731
O O10 0.140814 0.802626 0.493738
O O11 0.998176 0.748248 0.452921
O O12 0.096147 0.500000 0.500000
#
# Coordination Sequence:
#
# PCOD9325884 Si02
#       5
#    16  16  16  16  16
#     4   9  17  33  51  81 107 135 190 224 271 352
#     4  10  16  27  51  78 102 147 183 234 282 324
#     4   9  19  35  58  83 110 147 178 230 286 346
#     4   9  16  27  46  74 103 135 187 237 270 324
#     4   9  17  29  45  76 101 137 191 238 270 329
#
# _framework density 22.069338999999999
#
# number of rings (size 3 to 8) (size 9 to 14) (size 15 to 20)
#    0.000    2.800    2.000    5.400    0.000    1.600 
#    0.000    2.000    0.000   21.600    0.000    0.000 
#    0.000    0.000    0.000    0.000    0.000    0.000 
#
# Total GULP energy -111439.568071 kJ/mol
# GULP energy per Si atom -5571.978404 kJ/mol
# Density = 2.201911 g / cm^3
# Si number density = 22.069339 Si / 1000 Ang^3
#
#
#
# Elastic Constant Matrix: (Units=GPa)
#
#
# Indices 1 2 3 4 5 6 
#
# 1 154.6155 26.1108 80.9524 0.0000 0.0000 0.0000
# 2 26.1108 56.4966 28.5844 0.0000 0.0000 0.0000
# 3 80.9524 28.5844 214.9396 0.0000 0.0000 0.0000
# 4 0.0000 0.0000 0.0000 7.2423 0.0000 0.0000
# 5 0.0000 0.0000 0.0000 0.0000 0.6058 0.0000
# 6 0.0000 0.0000 0.0000 0.0000 0.0000 36.8367
#
#
#
# Elastic Compliance Matrix: (Units=1/GPa)
#
#
# Indices 1 2 3 4 5 6 
#
# 1 0.008357 -0.002434 -0.002824 0.000000 0.000000 0.000000
# 2 -0.002434 0.019686 -0.001701 0.000000 0.000000 0.000000
# 3 -0.002824 -0.001701 0.005942 0.000000 0.000000 0.000000
# 4 0.000000 0.000000 0.000000 0.138078 0.000000 0.000000
# 5 0.000000 0.000000 0.000000 0.000000 1.650689 0.000000
# 6 0.000000 0.000000 0.000000 0.000000 0.000000 0.027147
#
#
# Mechanical properties :
#
#
# Convention : Reuss Voigt Hill
#
# Bulk Modulus (GPa) = 49.83221 77.48298 63.65759
# Shear Modulus (GPa) = 2.67307 28.29724 15.48516
#
# Velocity S-wave (km/s) = 1.10175 3.58466 2.65176
# Velocity P-wave (km/s) = 4.92416 7.23313 6.18730
#
# Compressibility (1/GPa) = 0.02006734
#
# Stress axis : x y z
#
# Youngs Moduli (GPa) = 119.65794 50.79817 168.28518
#
# Poissons Ratio (x) = 0.12362 0.47522
# Poissons Ratio (y) = 0.29120 0.28632
# Poissons Ratio (z) = 0.33790 0.08643
#
# Static dielectric constant tensor:
#      x y z
#    x 1.798500 0.000000 0.000000 
#    y 0.000000 2.109280 0.000000 
#    z 0.000000 0.000000 1.759680 
# 
# From -- ./inp_files/56372.got.cif
#   From: 2010.05.17/outbox.cif.g08.bks.cpg/sg22_29_cif.got.tgz:56372.got - 2010.06.03 23:40:54.
