data_PCOD9325606
_publ_section_title
;
Structure prediction by ZEFSAII (Michael W. Deem and Ramdas Pophale) SiO2 
 PCOD9325606
Probable space group: C 2 2 2
;
_chemical_formula_sum "Si O2"
_cell_formula_units_Z 40
_cell_length_a 8.045012
_cell_length_b 24.526692
_cell_length_c 8.798802
_cell_angle_alpha 90.000000
_cell_angle_beta 90.000000
_cell_angle_gamma 90.000000
_cell_volume 1736.157890
_symmetry_space_group_name_H-M "C 2 2 2"
_symmetry_group_IT_number 21
_symmetry_cell_setting 'orthorhombic'
loop_
_space_group_symop_operation_xyz
x,y,z
-x,-y,z
x,-y,-z
-x,y,-z
1/2+x,1/2+y,z
1/2-x,1/2-y,z
1/2+x,1/2-y,-z
1/2-x,1/2+y,-z
loop_
_atom_site_type_symbol
_atom_site_label
_atom_site_fract_x
_atom_site_fract_y
_atom_site_fract_z
Si Si1 0.416324 0.784163 0.662611
Si Si2 0.300282 0.999700 0.823557
Si Si3 0.175701 0.112569 0.687676
Si Si4 0.781408 0.113860 0.665904
Si Si5 0.131821 0.792686 0.116871
O O1 0.500000 0.794019 0.500000
O O2 0.250000 0.750000 0.631305
O O3 0.345302 0.840987 0.730593
O O4 0.535136 0.745901 0.763412
O O5 0.221571 0.053353 0.749173
O O6 0.500000 0.000000 0.815582
O O7 0.247454 0.945176 0.736878
O O8 0.250243 0.000000 0.000000
O O9 0.240718 0.115166 0.516287
O O10 0.235827 0.160687 0.798013
O O11 0.977626 0.124284 0.687734
O O12 0.250000 0.750000 0.030103
O O13 0.000000 0.817246 0.000000
#
# Coordination Sequence:
#
# PCOD9325606 Si02
#       5
#     8   8   8   8   8
#     4  12  24  44  73 108 147 191 246 303 368 440
#     4  11  28  47  70 106 142 185 240 302 370 439
#     4  11  25  48  71 103 143 187 244 295 358 439
#     4  11  25  45  74 104 138 191 240 298 359 433
#     4  12  28  46  70 107 147 193 241 304 372 448
#
# _framework density 23.039380000000001
#
# number of rings (size 3 to 8) (size 9 to 14) (size 15 to 20)
#    0.000    0.600    2.000    4.800    8.400    3.200 
#    0.000    0.000    0.000    0.000    0.000    0.000 
#    0.000    0.000    0.000    0.000    0.000    0.000 
#
# Total GULP energy -111979.308414 kJ/mol
# GULP energy per Si atom -5598.965421 kJ/mol
# Density = 2.298694 g / cm^3
# Si number density = 23.039380 Si / 1000 Ang^3
#
#
#
# Elastic Constant Matrix: (Units=GPa)
#
#
# Indices 1 2 3 4 5 6 
#
# 1 38.0851 24.8158 2.7740 0.0000 0.0000 0.0000
# 2 24.8158 188.4185 45.2995 0.0000 0.0000 0.0000
# 3 2.7740 45.2995 86.9984 0.0000 0.0000 0.0000
# 4 0.0000 0.0000 0.0000 39.0613 0.0000 0.0000
# 5 0.0000 0.0000 0.0000 0.0000 31.5462 0.0000
# 6 0.0000 0.0000 0.0000 0.0000 0.0000 52.0256
#
#
#
# Elastic Compliance Matrix: (Units=1/GPa)
#
#
# Indices 1 2 3 4 5 6 
#
# 1 0.028833 -0.004088 0.001209 0.000000 0.000000 0.000000
# 2 -0.004088 0.006646 -0.003330 0.000000 0.000000 0.000000
# 3 0.001209 -0.003330 0.013190 0.000000 0.000000 0.000000
# 4 0.000000 0.000000 0.000000 0.025601 0.000000 0.000000
# 5 0.000000 0.000000 0.000000 0.000000 0.031700 0.000000
# 6 0.000000 0.000000 0.000000 0.000000 0.000000 0.019221
#
#
# Mechanical properties :
#
#
# Convention : Reuss Voigt Hill
#
# Bulk Modulus (GPa) = 27.58566 51.03119 39.30842
# Shear Modulus (GPa) = 33.40169 40.56745 36.98457
#
# Velocity S-wave (km/s) = 3.81171 4.20073 4.01094
# Velocity P-wave (km/s) = 5.60102 6.76208 6.20875
#
# Compressibility (1/GPa) = 0.03625072
#
# Stress axis : x y z
#
# Youngs Moduli (GPa) = 34.68277 150.45567 75.81484
#
# Poissons Ratio (x) = 0.61509 -0.09169
# Poissons Ratio (y) = 0.14179 0.25250
# Poissons Ratio (z) = -0.04194 0.50108
#
# Static dielectric constant tensor:
#      x y z
#    x 1.992020 0.000000 0.000000 
#    y 0.000000 1.852380 0.000000 
#    z 0.000000 0.000000 1.842080 
# 
# From -- ./inp_files/10890.got.cif
#   From: 2010.05.17/outbox.cif.g08.bks.cpg/sg21_6_cif.got.tgz:10890.got - 2010.06.03 23:14:55.
