data_PCOD9325630
_publ_section_title
;
Structure prediction by ZEFSAII (Michael W. Deem and Ramdas Pophale) SiO2 
 PCOD9325630
Probable space group: C 2 2 2
;
_chemical_formula_sum "Si O2"
_cell_formula_units_Z 26
_cell_length_a 8.334521
_cell_length_b 16.764887
_cell_length_c 8.249886
_cell_angle_alpha 90.000000
_cell_angle_beta 90.000000
_cell_angle_gamma 90.000000
_cell_volume 1152.734319
_symmetry_space_group_name_H-M "C 2 2 2"
_symmetry_group_IT_number 21
_symmetry_cell_setting 'orthorhombic'
loop_
_space_group_symop_operation_xyz
x,y,z
-x,-y,z
x,-y,-z
-x,y,-z
1/2+x,1/2+y,z
1/2-x,1/2-y,z
1/2+x,1/2-y,-z
1/2-x,1/2+y,-z
loop_
_atom_site_type_symbol
_atom_site_label
_atom_site_fract_x
_atom_site_fract_y
_atom_site_fract_z
Si Si1 0.732067 0.554845 0.233657
Si Si2 0.750000 0.750000 0.786527
Si Si3 0.500000 0.000000 0.000000
Si Si4 0.183716 0.891580 0.431859
Si Si5 0.500000 0.344294 0.000000
O O1 0.882916 0.548365 0.116379
O O2 0.682009 0.468878 0.312365
O O3 0.775407 0.599044 0.399048
O O4 0.598962 0.599467 0.124432
O O5 0.726572 0.824033 0.667434
O O6 0.612170 0.714753 0.899113
O O7 0.000000 0.877786 0.500000
#
# Coordination Sequence:
#
# PCOD9325630 Si02
#       5
#     8   4   2   8   4
#     4  11  26  50  81 112 153 212 281 316 395 473
#     4  12  28  48  76 122 164 208 260 328 416 468
#     4  12  28  42  76 130 148 196 268 354 368 462
#     4  11  25  50  83 115 152 218 266 328 395 492
#     4  12  28  52  82 116 164 212 260 343 398 479
#
# _framework density 22.555066
#
# number of rings (size 3 to 8) (size 9 to 14) (size 15 to 20)
#    0.000    0.615    3.077    3.692    4.308    9.846 
#   11.077    0.000    0.000    0.000    0.000    0.000 
#    0.000    0.000    0.000    0.000    0.000    0.000 
#
# Total GULP energy -72601.190900 kJ/mol
# GULP energy per Si atom -5584.706992 kJ/mol
# Density = 2.250373 g / cm^3
# Si number density = 22.555066 Si / 1000 Ang^3
#
#
#
# Elastic Constant Matrix: (Units=GPa)
#
#
# Indices 1 2 3 4 5 6 
#
# 1 123.2929 64.6630 107.1785 0.0000 0.0000 0.0000
# 2 64.6630 134.7832 119.6660 0.0000 0.0000 0.0000
# 3 107.1785 119.6660 251.8205 0.0000 0.0000 0.0000
# 4 0.0000 0.0000 0.0000 -123.8939 0.0000 0.0000
# 5 0.0000 0.0000 0.0000 0.0000 -117.2065 0.0000
# 6 0.0000 0.0000 0.0000 0.0000 0.0000 44.9215
#
#
#
# Elastic Compliance Matrix: (Units=1/GPa)
#
#
# Indices 1 2 3 4 5 6 
#
# 1 0.013288 -0.002342 -0.004543 0.000000 0.000000 0.000000
# 2 -0.002342 0.013247 -0.005298 0.000000 0.000000 0.000000
# 3 -0.004543 -0.005298 0.008422 0.000000 0.000000 0.000000
# 4 0.000000 0.000000 0.000000 -0.008071 0.000000 0.000000
# 5 0.000000 0.000000 0.000000 0.000000 -0.008532 0.000000
# 6 0.000000 0.000000 0.000000 0.000000 0.000000 0.022261
#
#
# Mechanical properties :
#
#
# Convention : Reuss Voigt Hill
#
# Bulk Modulus (GPa) = 94.41478 121.43461 107.92469
# Shear Modulus (GPa) = 72.98144 -24.67650 24.15247
#
# Velocity S-wave (km/s) = 5.69449 -3.31124 3.27589
# Velocity P-wave (km/s) = 9.22967 6.27192 7.89062
#
# Compressibility (1/GPa) = 0.01059156
#
# Stress axis : x y z
#
# Youngs Moduli (GPa) = 75.25629 75.49013 118.73279
#
# Poissons Ratio (x) = 0.17678 0.53937
# Poissons Ratio (y) = 0.17623 0.62907
# Poissons Ratio (z) = 0.34187 0.39996
#
# Static dielectric constant tensor:
#      x y z
#    x 1.915580 0.000000 0.000000 
#    y 0.000000 1.927570 0.000000 
#    z 0.000000 0.000000 1.761260 
# 
# From -- ./inp_files/10186.got.cif
#   From: 2010.05.17/outbox.cif.g08.bks.cpg/sg21_6_cif.got.tgz:10186.got - 2010.06.03 23:14:55.
