data_PCOD9325218
_publ_section_title
;
Structure prediction by ZEFSAII (Michael W. Deem and Ramdas Pophale) SiO2 
 PCOD9325218
Probable space group: C 2 2 2
;
_chemical_formula_sum "Si O2"
_cell_formula_units_Z 40
_cell_length_a 28.627209
_cell_length_b 7.292137
_cell_length_c 8.220758
_cell_angle_alpha 90.000000
_cell_angle_beta 90.000000
_cell_angle_gamma 90.000000
_cell_volume 1716.112251
_symmetry_space_group_name_H-M "C 2 2 2"
_symmetry_group_IT_number 21
_symmetry_cell_setting 'orthorhombic'
loop_
_space_group_symop_operation_xyz
x,y,z
-x,-y,z
x,-y,-z
-x,y,-z
1/2+x,1/2+y,z
1/2-x,1/2-y,z
1/2+x,1/2-y,-z
1/2-x,1/2+y,-z
loop_
_atom_site_type_symbol
_atom_site_label
_atom_site_fract_x
_atom_site_fract_y
_atom_site_fract_z
Si Si1 0.792838 0.345685 0.117008
Si Si2 0.553988 0.224101 0.490808
Si Si3 0.612731 0.788942 0.200565
Si Si4 0.206770 0.628805 0.634126
Si Si5 0.108922 0.269856 0.830437
O O1 0.750000 0.250000 0.029811
O O2 0.770522 0.468722 0.256529
O O3 0.835477 0.228586 0.184972
O O4 0.814107 0.500000 0.000000
O O5 0.500000 0.277625 0.500000
O O6 0.581204 0.284115 0.653009
O O7 0.578389 0.291140 0.323342
O O8 0.555367 0.000000 0.500000
O O9 0.666459 0.767427 0.264415
O O10 0.604802 0.008597 0.185825
O O11 0.600209 0.716720 0.019669
O O12 0.181638 0.500000 0.500000
O O13 0.250000 0.750000 0.576811
#
# Coordination Sequence:
#
# PCOD9325218 Si02
#       5
#     8   8   8   8   8
#     4  11  20  33  52  76 107 148 184 221 271 332
#     4   9  17  27  42  66  96 133 174 218 266 330
#     4   9  16  29  46  65  97 136 174 214 272 325
#     4  11  21  34  51  75 106 147 189 229 273 330
#     4   9  16  29  46  67  98 138 173 211 273 325
#
# _framework density 23.308498
#
# number of rings (size 3 to 8) (size 9 to 14) (size 15 to 20)
#    0.000    2.200    4.000    4.200    0.000    0.800 
#    0.000    4.000    0.000    0.000    0.000    0.000 
#    0.000    7.200    0.400    1.600    0.000    0.400 
#
# Total GULP energy -111374.292221 kJ/mol
# GULP energy per Si atom -5568.714611 kJ/mol
# Density = 2.325545 g / cm^3
# Si number density = 23.308498 Si / 1000 Ang^3
#
#
#
# Elastic Constant Matrix: (Units=GPa)
#
#
# Indices 1 2 3 4 5 6 
#
# 1 182.6592 18.0621 109.2418 0.0000 0.0000 0.0000
# 2 18.0621 51.5236 23.2433 0.0000 0.0000 0.0000
# 3 109.2418 23.2433 195.8406 0.0000 0.0000 0.0000
# 4 0.0000 0.0000 0.0000 -2.1966 0.0000 0.0000
# 5 0.0000 0.0000 0.0000 0.0000 33.0411 0.0000
# 6 0.0000 0.0000 0.0000 0.0000 0.0000 4.4661
#
#
#
# Elastic Compliance Matrix: (Units=1/GPa)
#
#
# Indices 1 2 3 4 5 6 
#
# 1 0.008251 -0.000862 -0.004500 0.000000 0.000000 0.000000
# 2 -0.000862 0.020597 -0.001963 0.000000 0.000000 0.000000
# 3 -0.004500 -0.001963 0.007850 0.000000 0.000000 0.000000
# 4 0.000000 0.000000 0.000000 -0.455245 0.000000 0.000000
# 5 0.000000 0.000000 0.000000 0.000000 0.030265 0.000000
# 6 0.000000 0.000000 0.000000 0.000000 0.000000 0.223907
#
#
# Mechanical properties :
#
#
# Convention : Reuss Voigt Hill
#
# Bulk Modulus (GPa) = 45.36135 81.23532 63.29833
# Shear Modulus (GPa) = -35.11892 25.69387 -4.71253
#
# Velocity S-wave (km/s) = -3.88583 3.32375 -1.42345
# Velocity P-wave (km/s) = 0.79335 7.04682 4.95117
#
# Compressibility (1/GPa) = 0.02204520
#
# Stress axis : x y z
#
# Youngs Moduli (GPa) = 121.19029 48.55158 127.39504
#
# Poissons Ratio (x) = 0.04187 0.57333
# Poissons Ratio (y) = 0.10452 0.25013
# Poissons Ratio (z) = 0.54541 0.09533
#
# Static dielectric constant tensor:
#      x y z
#    x 1.821060 0.000000 0.000000 
#    y 0.000000 2.016030 0.000000 
#    z 0.000000 0.000000 2.038690 
# 
# From -- ./inp_files/18938.got.cif
#   From: 2010.05.17/outbox.cif.g08.bks.cpg/sg21_10_cif.got.tgz:18938.got - 2010.06.03 23:14:55.
