data_PCOD9325303
_publ_section_title
;
Structure prediction by ZEFSAII (Michael W. Deem and Ramdas Pophale) SiO2 
 PCOD9325303
Probable space group: C 2 2 2
;
_chemical_formula_sum "Si O2"
_cell_formula_units_Z 48
_cell_length_a 10.274499
_cell_length_b 16.814808
_cell_length_c 14.944299
_cell_angle_alpha 90.000000
_cell_angle_beta 90.000000
_cell_angle_gamma 90.000000
_cell_volume 2581.832807
_symmetry_space_group_name_H-M "C 2 2 2"
_symmetry_group_IT_number 21
_symmetry_cell_setting 'orthorhombic'
loop_
_space_group_symop_operation_xyz
x,y,z
-x,-y,z
x,-y,-z
-x,y,-z
1/2+x,1/2+y,z
1/2-x,1/2-y,z
1/2+x,1/2-y,-z
1/2-x,1/2+y,-z
loop_
_atom_site_type_symbol
_atom_site_label
_atom_site_fract_x
_atom_site_fract_y
_atom_site_fract_z
Si Si1 0.899885 0.774656 0.272351
Si Si2 0.004136 0.362529 0.394623
Si Si3 0.872839 0.958432 0.238201
Si Si4 0.603386 0.775019 0.070955
Si Si5 0.790022 0.503841 0.604920
Si Si6 0.864418 0.460409 0.904075
O O1 0.750000 0.750000 0.289740
O O2 0.983022 0.717163 0.336562
O O3 0.905543 0.869783 0.273135
O O4 0.929827 0.753858 0.169860
O O5 0.124715 0.423487 0.377420
O O6 0.000000 0.342591 0.500000
O O7 0.880126 0.419195 0.378336
O O8 0.752839 0.960538 0.167668
O O9 0.826941 0.005173 0.326302
O O10 0.000000 0.000000 0.198339
O O11 0.750000 0.750000 0.048507
O O12 0.602721 0.869659 0.075380
O O13 0.500000 0.744521 0.000000
O O14 0.755613 0.500000 0.500000
O O15 0.000000 0.500000 0.870463
O O16 0.830214 0.500000 0.000000
#
# Coordination Sequence:
#
# PCOD9325303 Si02
#       6
#     8   8   8   8   8   8
#     4  11  21  41  64  88 127 171 205 253 325 381
#     4   9  18  36  66  96 117 162 223 266 301 369
#     4  12  26  42  62  96 132 171 206 263 331 373
#     4  11  22  41  66  96 123 162 210 260 318 372
#     4   9  19  37  64  94 124 164 217 261 305 374
#     4  11  23  42  68  93 119 167 222 255 304 383
#
# _framework density 18.591443999999999
#
# number of rings (size 3 to 8) (size 9 to 14) (size 15 to 20)
#    0.000    1.500    6.667    1.000    4.667    2.000 
#    3.000    0.833    0.000    0.000    0.000    0.000 
#    0.000    0.000    0.000    0.000    0.000    0.000 
#
# Total GULP energy -133873.368367 kJ/mol
# GULP energy per Si atom -5578.057015 kJ/mol
# Density = 1.854913 g / cm^3
# Si number density = 18.591444 Si / 1000 Ang^3
#
#
#
# Elastic Constant Matrix: (Units=GPa)
#
#
# Indices 1 2 3 4 5 6 
#
# 1 84.1129 44.3535 61.4447 0.0000 0.0000 0.0000
# 2 44.3535 98.4719 34.3390 0.0000 0.0000 0.0000
# 3 61.4447 34.3390 84.5982 0.0000 0.0000 0.0000
# 4 0.0000 0.0000 0.0000 -9.0173 0.0000 0.0000
# 5 0.0000 0.0000 0.0000 0.0000 15.2298 0.0000
# 6 0.0000 0.0000 0.0000 0.0000 0.0000 22.9308
#
#
#
# Elastic Compliance Matrix: (Units=1/GPa)
#
#
# Indices 1 2 3 4 5 6 
#
# 1 0.028550 -0.006556 -0.018075 0.000000 0.000000 0.000000
# 2 -0.006556 0.013335 -0.000651 0.000000 0.000000 0.000000
# 3 -0.018075 -0.000651 0.025213 0.000000 0.000000 0.000000
# 4 0.000000 0.000000 0.000000 -0.110898 0.000000 0.000000
# 5 0.000000 0.000000 0.000000 0.000000 0.065661 0.000000
# 6 0.000000 0.000000 0.000000 0.000000 0.000000 0.043609
#
#
# Mechanical properties :
#
#
# Convention : Reuss Voigt Hill
#
# Bulk Modulus (GPa) = 60.48262 60.82859 60.65561
# Shear Modulus (GPa) = 41.13703 14.29838 27.71770
#
# Velocity S-wave (km/s) = 4.70902 2.77624 3.86539
# Velocity P-wave (km/s) = 7.88477 6.56249 7.25383
#
# Compressibility (1/GPa) = 0.01653367
#
# Stress axis : x y z
#
# Youngs Moduli (GPa) = 35.02688 74.98929 39.66264
#
# Poissons Ratio (x) = 0.49165 0.71689
# Poissons Ratio (y) = 0.22964 0.02582
# Poissons Ratio (z) = 0.63310 0.04882
#
# Static dielectric constant tensor:
#      x y z
#    x 1.708620 0.000000 0.000000 
#    y 0.000000 1.642100 0.000000 
#    z 0.000000 0.000000 1.644310 
# 
# From -- ./inp_files/30493.got.cif
#   From: 2010.05.17/outbox.cif.g08.bks.cpg/sg21_16_cif.got.tgz:30493.got - 2010.06.03 23:14:55.
