data_PCOD9325004
_publ_section_title
;
Structure prediction by ZEFSAII (Michael W. Deem and Ramdas Pophale) SiO2 
 PCOD9325004
Probable space group: C 2 2 2
;
_chemical_formula_sum "Si O2"
_cell_formula_units_Z 42
_cell_length_a 7.976876
_cell_length_b 15.330278
_cell_length_c 15.784604
_cell_angle_alpha 90.000000
_cell_angle_beta 90.000000
_cell_angle_gamma 90.000000
_cell_volume 1930.263339
_symmetry_space_group_name_H-M "C 2 2 2"
_symmetry_group_IT_number 21
_symmetry_cell_setting 'orthorhombic'
loop_
_space_group_symop_operation_xyz
x,y,z
-x,-y,z
x,-y,-z
-x,y,-z
1/2+x,1/2+y,z
1/2-x,1/2-y,z
1/2+x,1/2-y,-z
1/2-x,1/2+y,-z
loop_
_atom_site_type_symbol
_atom_site_label
_atom_site_fract_x
_atom_site_fract_y
_atom_site_fract_z
Si Si1 0.500000 0.000000 0.000000
Si Si2 0.549036 0.261116 0.594224
Si Si3 0.950701 0.353161 0.118966
Si Si4 0.538488 0.901642 0.306551
Si Si5 0.934773 0.905642 0.273831
Si Si6 0.555101 0.348852 0.091398
O O1 0.559002 0.073771 0.931082
O O2 0.500000 0.287102 0.500000
O O3 0.750000 0.250000 0.596443
O O4 0.483726 0.166427 0.622087
O O5 0.493224 0.329959 0.665644
O O6 0.755717 0.359538 0.093606
O O7 0.998834 0.253495 0.099000
O O8 0.956347 0.373499 0.218039
O O9 0.736258 0.898235 0.286625
O O10 0.500000 0.000000 0.329785
O O11 0.981087 0.892042 0.175656
O O12 0.000000 0.000000 0.300693
O O13 0.500000 0.382967 0.000000
#
# Coordination Sequence:
#
# PCOD9325004 Si02
#       6
#     2   8   8   8   8   8
#     4  12  24  40  62  96 120 172 234 260 312 368
#     4  10  24  45  70  97 129 170 214 272 338 399
#     4  11  24  39  63  94 129 173 218 267 322 377
#     4  11  23  43  67  96 134 173 216 267 334 392
#     4  11  25  43  66  97 134 173 218 275 327 386
#     4  11  25  41  62  95 133 175 220 264 325 377
#
# _framework density 21.758690000000001
#
# number of rings (size 3 to 8) (size 9 to 14) (size 15 to 20)
#    0.000    1.143    3.810    1.143    2.667    4.190 
#    0.000    3.810    0.000    0.000    0.000    0.000 
#    0.000    0.000    0.000    0.000    0.000    0.000 
#
# Total GULP energy -117285.923803 kJ/mol
# GULP energy per Si atom -5585.043991 kJ/mol
# Density = 2.170917 g / cm^3
# Si number density = 21.758690 Si / 1000 Ang^3
#
#
#
# Elastic Constant Matrix: (Units=GPa)
#
#
# Indices 1 2 3 4 5 6 
#
# 1 38.6058 11.0954 12.8615 0.0000 0.0000 0.0000
# 2 11.0954 135.0901 55.3213 0.0000 0.0000 0.0000
# 3 12.8615 55.3213 123.1333 0.0000 0.0000 0.0000
# 4 0.0000 0.0000 0.0000 7.2009 0.0000 0.0000
# 5 0.0000 0.0000 0.0000 0.0000 28.2289 0.0000
# 6 0.0000 0.0000 0.0000 0.0000 0.0000 20.2404
#
#
#
# Elastic Compliance Matrix: (Units=1/GPa)
#
#
# Indices 1 2 3 4 5 6 
#
# 1 0.027023 -0.001303 -0.002237 0.000000 0.000000 0.000000
# 2 -0.001303 0.009134 -0.003968 0.000000 0.000000 0.000000
# 3 -0.002237 -0.003968 0.010138 0.000000 0.000000 0.000000
# 4 0.000000 0.000000 0.000000 0.138872 0.000000 0.000000
# 5 0.000000 0.000000 0.000000 0.000000 0.035425 0.000000
# 6 0.000000 0.000000 0.000000 0.000000 0.000000 0.049406
#
#
# Mechanical properties :
#
#
# Convention : Reuss Voigt Hill
#
# Bulk Modulus (GPa) = 31.97098 50.59842 41.28470
# Shear Modulus (GPa) = 16.92389 25.63743 21.28066
#
# Velocity S-wave (km/s) = 2.79193 3.43631 3.13074
# Velocity P-wave (km/s) = 5.01184 6.24893 5.66426
#
# Compressibility (1/GPa) = 0.03127836
#
# Stress axis : x y z
#
# Youngs Moduli (GPa) = 37.00599 109.47665 98.64306
#
# Poissons Ratio (x) = 0.14269 0.22066
# Poissons Ratio (y) = 0.04823 0.39139
# Poissons Ratio (z) = 0.08278 0.43438
#
# Static dielectric constant tensor:
#      x y z
#    x 1.803840 0.000000 0.000000 
#    y 0.000000 1.932360 0.000000 
#    z 0.000000 0.000000 1.760390 
# 
# From -- ./inp_files/30241.got.cif
#   From: 2010.05.17/outbox.cif.g08.bks.cpg/sg21_16_cif.got.tgz:30241.got - 2010.06.03 23:14:55.
