data_PCOD9325814
_publ_section_title
;
Structure prediction by ZEFSAII (Michael W. Deem and Ramdas Pophale) SiO2 
 PCOD9325814
Probable space group: C 2 2 2
;
_chemical_formula_sum "Si O2"
_cell_formula_units_Z 30
_cell_length_a 18.668221
_cell_length_b 13.282002
_cell_length_c 4.806062
_cell_angle_alpha 90.000000
_cell_angle_beta 90.000000
_cell_angle_gamma 90.000000
_cell_volume 1191.669555
_symmetry_space_group_name_H-M "C 2 2 2"
_symmetry_group_IT_number 21
_symmetry_cell_setting 'orthorhombic'
loop_
_space_group_symop_operation_xyz
x,y,z
-x,-y,z
x,-y,-z
-x,y,-z
1/2+x,1/2+y,z
1/2-x,1/2-y,z
1/2+x,1/2-y,-z
1/2-x,1/2+y,-z
loop_
_atom_site_type_symbol
_atom_site_label
_atom_site_fract_x
_atom_site_fract_y
_atom_site_fract_z
Si Si1 0.714482 0.650856 0.532450
Si Si2 0.833892 0.500000 0.500000
Si Si3 0.000000 0.000000 0.000000
Si Si4 0.552160 0.855050 0.761972
Si Si5 0.617557 0.652306 0.019553
O O1 0.750000 0.750000 0.662137
O O2 0.776996 0.583311 0.398647
O O3 0.663671 0.683544 0.282734
O O4 0.667545 0.601785 0.779852
O O5 0.886115 0.564575 0.695279
O O6 0.055681 0.078349 0.134935
O O7 0.500000 0.838798 0.500000
O O8 0.500000 0.892309 0.000000
O O9 0.584596 0.749743 0.868886
#
# Coordination Sequence:
#
# PCOD9325814 Si02
#       5
#     8   4   2   8   8
#     4  12  27  50  78 112 155 200 259 316 388 456
#     4  12  29  50  82 111 158 206 256 326 386 455
#     4  12  28  46  84 110 158 202 258 318 388 452
#     4  12  28  52  79 114 157 201 257 320 391 460
#     4  12  27  50  77 114 154 202 254 318 385 462
#
# _framework density 25.174765000000001
#
# number of rings (size 3 to 8) (size 9 to 14) (size 15 to 20)
#    0.000    0.000    4.000    4.400    0.000    5.333 
#    0.000    0.000    0.000    0.000    0.000    0.000 
#    0.000    0.000    0.000    0.000    0.000    0.000 
#
# Total GULP energy -83963.939434 kJ/mol
# GULP energy per Si atom -5597.595962 kJ/mol
# Density = 2.511747 g / cm^3
# Si number density = 25.174765 Si / 1000 Ang^3
#
#
#
# Elastic Constant Matrix: (Units=GPa)
#
#
# Indices 1 2 3 4 5 6 
#
# 1 159.7671 69.2661 52.9640 0.0000 0.0000 0.0000
# 2 69.2661 133.9537 11.6539 0.0000 0.0000 0.0000
# 3 52.9640 11.6539 121.6475 0.0000 0.0000 0.0000
# 4 0.0000 0.0000 0.0000 5.1168 0.0000 0.0000
# 5 0.0000 0.0000 0.0000 0.0000 37.6669 0.0000
# 6 0.0000 0.0000 0.0000 0.0000 0.0000 72.3768
#
#
#
# Elastic Compliance Matrix: (Units=1/GPa)
#
#
# Indices 1 2 3 4 5 6 
#
# 1 0.009462 -0.004572 -0.003682 0.000000 0.000000 0.000000
# 2 -0.004572 0.009738 0.001058 0.000000 0.000000 0.000000
# 3 -0.003682 0.001058 0.009722 0.000000 0.000000 0.000000
# 4 0.000000 0.000000 0.000000 0.195434 0.000000 0.000000
# 5 0.000000 0.000000 0.000000 0.000000 0.026548 0.000000
# 6 0.000000 0.000000 0.000000 0.000000 0.000000 0.013817
#
#
# Mechanical properties :
#
#
# Convention : Reuss Voigt Hill
#
# Bulk Modulus (GPa) = 68.82590 75.90403 72.36496
# Shear Modulus (GPa) = 17.60836 41.79773 29.70304
#
# Velocity S-wave (km/s) = 2.64757 4.07910 3.43866
# Velocity P-wave (km/s) = 6.06175 7.23890 6.67632
#
# Compressibility (1/GPa) = 0.01452941
#
# Stress axis : x y z
#
# Youngs Moduli (GPa) = 105.68698 102.69521 102.85907
#
# Poissons Ratio (x) = 0.46956 0.37868
# Poissons Ratio (y) = 0.48324 -0.10881
# Poissons Ratio (z) = 0.38909 -0.10864
#
# Static dielectric constant tensor:
#      x y z
#    x 1.948630 0.000000 0.000000 
#    y 0.000000 2.020390 0.000000 
#    z 0.000000 0.000000 1.865720 
# 
# From -- ./inp_files/4629.got.cif
#   From: 2010.05.17/outbox.cif.g08.bks.cpg/sg21_3_cif.got.tgz:4629.got - 2010.06.03 23:14:55.
