data_PCOD9325332
_publ_section_title
;
Structure prediction by ZEFSAII (Michael W. Deem and Ramdas Pophale) SiO2 
 PCOD9325332
Probable space group: C 2 2 2
;
_chemical_formula_sum "Si O2"
_cell_formula_units_Z 64
_cell_length_a 8.522049
_cell_length_b 15.880569
_cell_length_c 24.429964
_cell_angle_alpha 90.000000
_cell_angle_beta 90.000000
_cell_angle_gamma 90.000000
_cell_volume 3306.228864
_symmetry_space_group_name_H-M "C 2 2 2"
_symmetry_group_IT_number 21
_symmetry_cell_setting 'orthorhombic'
loop_
_space_group_symop_operation_xyz
x,y,z
-x,-y,z
x,-y,-z
-x,y,-z
1/2+x,1/2+y,z
1/2-x,1/2-y,z
1/2+x,1/2-y,-z
1/2-x,1/2+y,-z
loop_
_atom_site_type_symbol
_atom_site_label
_atom_site_fract_x
_atom_site_fract_y
_atom_site_fract_z
Si Si1 0.687969 0.840492 0.383859
Si Si2 0.309132 0.402110 0.000000
Si Si3 0.311599 0.340795 0.118652
Si Si4 0.312031 0.840492 0.383859
Si Si5 0.812106 0.900960 0.500000
Si Si6 0.191224 0.500000 0.312419
Si Si7 0.311361 0.000000 0.813862
Si Si8 0.311599 0.659205 0.118652
O O1 0.750000 0.750000 0.365545
O O2 0.500000 0.839513 0.383971
O O3 0.746305 0.859065 0.445224
O O4 0.742651 0.916782 0.345041
O O5 0.257428 0.358194 0.056016
O O6 0.260099 0.500000 0.000000
O O7 0.500000 0.401656 0.000000
O O8 0.257428 0.358194 0.943984
O O9 0.250000 0.250000 0.136775
O O10 0.250523 0.417223 0.155447
O O11 0.500000 0.341333 0.119375
O O12 0.250000 0.750000 0.365545
O O13 0.253695 0.859065 0.445224
O O14 0.257349 0.916782 0.345041
O O15 0.000000 0.894314 0.500000
O O16 0.768595 0.000000 0.500000
O O17 0.240551 0.500000 0.249423
O O18 0.000000 0.500000 0.313068
O O19 0.500000 0.000000 0.815499
O O20 0.249477 0.082777 0.844553
O O21 0.250000 0.750000 0.136775
#
# Coordination Sequence:
#
# PCOD9325332 Si02
#       8
#     8   8   8   8   8   8   8   8
#     4  11  22  40  63  89 119 156 196 239 293 350
#     4   9  17  34  60  87 120 156 194 243 298 359
#     4  11  22  39  62  90 122 159 199 245 301 358
#     4  11  22  40  63  89 119 156 196 239 293 350
#     4  11  22  37  60  92 124 154 192 239 291 351
#     4   9  22  42  63  84 116 157 200 247 296 347
#     4  11  23  42  63  88 120 157 204 253 300 355
#     4  11  22  39  62  90 122 159 199 245 301 358
#
# _framework density 19.357402
#
# number of rings (size 3 to 8) (size 9 to 14) (size 15 to 20)
#    0.000    1.500    2.500    3.000    0.000    1.500 
#    0.000   10.000    0.000    0.000    0.000    0.000 
#    0.000    0.000    0.000    0.000    0.000    0.000 
#
# Total GULP energy -178896.944545 kJ/mol
# GULP energy per Si atom -5590.529517 kJ/mol
# Density = 1.931334 g / cm^3
# Si number density = 19.357402 Si / 1000 Ang^3
#
#
#
# Elastic Constant Matrix: (Units=GPa)
#
#
# Indices 1 2 3 4 5 6 
#
# 1 50.3100 41.3896 29.7797 0.0000 0.0000 0.0000
# 2 41.3896 206.8976 92.8074 0.0000 0.0000 0.0000
# 3 29.7797 92.8074 159.5944 0.0000 0.0000 0.0000
# 4 0.0000 0.0000 0.0000 -3.5346 0.0000 0.0000
# 5 0.0000 0.0000 0.0000 0.0000 -24.2522 0.0000
# 6 0.0000 0.0000 0.0000 0.0000 0.0000 32.1329
#
#
#
# Elastic Compliance Matrix: (Units=1/GPa)
#
#
# Indices 1 2 3 4 5 6 
#
# 1 0.024412 -0.003843 -0.002321 0.000000 0.000000 0.000000
# 2 -0.003843 0.007144 -0.003437 0.000000 0.000000 0.000000
# 3 -0.002321 -0.003437 0.008698 0.000000 0.000000 0.000000
# 4 0.000000 0.000000 0.000000 -0.282916 0.000000 0.000000
# 5 0.000000 0.000000 0.000000 0.000000 -0.041233 0.000000
# 6 0.000000 0.000000 0.000000 0.000000 0.000000 0.031121
#
#
# Mechanical properties :
#
#
# Convention : Reuss Voigt Hill
#
# Bulk Modulus (GPa) = 47.50065 82.75059 65.12562
# Shear Modulus (GPa) = -22.06950 17.72423 -2.17264
#
# Velocity S-wave (km/s) = -3.38021 3.02922 -1.06057
# Velocity P-wave (km/s) = 3.05902 7.42136 5.67601
#
# Compressibility (1/GPa) = 0.02105234
#
# Stress axis : x y z
#
# Youngs Moduli (GPa) = 40.96409 139.98014 114.97229
#
# Poissons Ratio (x) = 0.53789 0.26680
# Poissons Ratio (y) = 0.15741 0.39519
# Poissons Ratio (z) = 0.09506 0.48115
#
# Static dielectric constant tensor:
#      x y z
#    x 1.656460 0.000000 0.000000 
#    y 0.000000 1.661260 0.000000 
#    z 0.000000 0.000000 1.654150 
# 
# From -- ./inp_files/38522.got.cif
#   From: 2010.05.17/outbox.cif.g08.bks.cpg/sg21_20_cif.got.tgz:38522.got - 2010.06.03 23:14:55.
