data_PCOD9325827
_publ_section_title
;
Structure prediction by ZEFSAII (Michael W. Deem and Ramdas Pophale) SiO2 
 PCOD9325827
Probable space group: C 2 2 2
;
_chemical_formula_sum "Si O2"
_cell_formula_units_Z 26
_cell_length_a 7.285497
_cell_length_b 19.752927
_cell_length_c 7.979053
_cell_angle_alpha 90.000000
_cell_angle_beta 90.000000
_cell_angle_gamma 90.000000
_cell_volume 1148.264643
_symmetry_space_group_name_H-M "C 2 2 2"
_symmetry_group_IT_number 21
_symmetry_cell_setting 'orthorhombic'
loop_
_space_group_symop_operation_xyz
x,y,z
-x,-y,z
x,-y,-z
-x,y,-z
1/2+x,1/2+y,z
1/2-x,1/2-y,z
1/2+x,1/2-y,-z
1/2-x,1/2+y,-z
loop_
_atom_site_type_symbol
_atom_site_label
_atom_site_fract_x
_atom_site_fract_y
_atom_site_fract_z
Si Si1 0.500000 0.000000 0.500000
Si Si2 0.213274 0.326516 0.692877
Si Si3 0.724770 0.921749 0.994485
Si Si4 0.303642 0.124526 0.340070
O O1 0.626383 0.951022 0.389806
O O2 0.250000 0.250000 0.741923
O O3 0.276851 0.381874 0.827236
O O4 0.285260 0.344269 0.506227
O O5 0.992544 0.334512 0.684743
O O6 0.500000 0.921196 0.000000
O O7 0.790757 0.882735 0.161348
O O8 0.781244 0.000000 0.000000
#
# Coordination Sequence:
#
# PCOD9325827 Si02
#       4
#     2   8   8   8
#     4   8  12  24  42  60  80 104 124 158 206 252
#     4   9  17  26  37  58  87 110 134 160 191 243
#     4   9  15  25  42  61  82 106 129 161 206 245
#     4   9  16  26  41  59  85 108 128 161 203 238
#
# _framework density 22.642865
#
# number of rings (size 3 to 8) (size 9 to 14) (size 15 to 20)
#    0.000    3.385    0.000    5.538    0.000    1.231 
#    0.000    0.000    0.000    0.000    0.000    0.000 
#    0.000  375.385    0.000    0.000    0.000    0.000 
#
# Total GULP energy -72576.952808 kJ/mol
# GULP energy per Si atom -5582.842524 kJ/mol
# Density = 2.259133 g / cm^3
# Si number density = 22.642865 Si / 1000 Ang^3
#
#
#
# Elastic Constant Matrix: (Units=GPa)
#
#
# Indices 1 2 3 4 5 6 
#
# 1 75.9114 17.3023 9.7104 0.0000 0.0000 0.0000
# 2 17.3023 153.4953 54.5850 0.0000 0.0000 0.0000
# 3 9.7104 54.5850 193.5475 0.0000 0.0000 0.0000
# 4 0.0000 0.0000 0.0000 12.0989 0.0000 0.0000
# 5 0.0000 0.0000 0.0000 0.0000 -16.8288 0.0000
# 6 0.0000 0.0000 0.0000 0.0000 0.0000 -7.6732
#
#
#
# Elastic Compliance Matrix: (Units=1/GPa)
#
#
# Indices 1 2 3 4 5 6 
#
# 1 0.013534 -0.001427 -0.000276 0.000000 0.000000 0.000000
# 2 -0.001427 0.007392 -0.002013 0.000000 0.000000 0.000000
# 3 -0.000276 -0.002013 0.005748 0.000000 0.000000 0.000000
# 4 0.000000 0.000000 0.000000 0.082652 0.000000 0.000000
# 5 0.000000 0.000000 0.000000 0.000000 -0.059422 0.000000
# 6 0.000000 0.000000 0.000000 0.000000 0.000000 -0.130324
#
#
# Mechanical properties :
#
#
# Convention : Reuss Voigt Hill
#
# Bulk Modulus (GPa) = 51.97417 65.12773 58.55095
# Shear Modulus (GPa) = -75.10522 20.27650 -27.41436
#
# Velocity S-wave (km/s) = -5.76554 2.99572 -3.48333
# Velocity P-wave (km/s) = 4.61717 6.38681 3.12034
#
# Compressibility (1/GPa) = 0.01924033
#
# Stress axis : x y z
#
# Youngs Moduli (GPa) = 73.88841 135.28896 173.96527
#
# Poissons Ratio (x) = 0.19309 0.04810
# Poissons Ratio (y) = 0.10546 0.35019
# Poissons Ratio (z) = 0.02043 0.27234
#
# Static dielectric constant tensor:
#      x y z
#    x 1.941740 0.000000 0.000000 
#    y 0.000000 1.805270 0.000000 
#    z 0.000000 0.000000 1.915210 
# 
# From -- ./inp_files/10151.got.cif
#   From: 2010.05.17/outbox.cif.g08.bks.cpg/sg21_6_cif.got.tgz:10151.got - 2010.06.03 23:14:55.
