data_PCOD9325100
_publ_section_title
;
Structure prediction by ZEFSAII (Michael W. Deem and Ramdas Pophale) SiO2 
 PCOD9325100
Probable space group: C 2 2 2
;
_chemical_formula_sum "Si O2"
_cell_formula_units_Z 32
_cell_length_a 11.082652
_cell_length_b 9.249000
_cell_length_c 14.484308
_cell_angle_alpha 90.000000
_cell_angle_beta 90.000000
_cell_angle_gamma 90.000000
_cell_volume 1484.691517
_symmetry_space_group_name_H-M "C 2 2 2"
_symmetry_group_IT_number 21
_symmetry_cell_setting 'orthorhombic'
loop_
_space_group_symop_operation_xyz
x,y,z
-x,-y,z
x,-y,-z
-x,y,-z
1/2+x,1/2+y,z
1/2-x,1/2-y,z
1/2+x,1/2-y,-z
1/2-x,1/2+y,-z
loop_
_atom_site_type_symbol
_atom_site_label
_atom_site_fract_x
_atom_site_fract_y
_atom_site_fract_z
Si Si1 0.382734 0.685145 0.258693
Si Si2 0.830229 0.939222 0.399004
Si Si3 0.126656 0.158103 0.957026
Si Si4 0.569208 0.140522 0.636327
O O1 0.250000 0.750000 0.272785
O O2 0.389982 0.557781 0.333504
O O3 0.392241 0.640170 0.152749
O O4 0.485364 0.803173 0.280908
O O5 0.705513 0.907494 0.345301
O O6 0.903300 0.790630 0.417352
O O7 0.800785 0.000000 0.500000
O O8 0.250000 0.250000 0.971746
O O9 0.000000 0.217587 0.000000
O O10 0.144309 0.000000 0.000000
O O11 0.500000 0.000000 0.597790
#
# Coordination Sequence:
#
# PCOD9325100 Si02
#       4
#     8   8   8   8
#     4  11  24  47  70 104 148 189 242 299 369 440
#     4  11  27  44  68 107 144 196 240 289 362 427
#     4  10  25  47  73 107 144 190 244 313 376 448
#     4  11  25  44  71 102 141 193 241 298 350 431
#
# _framework density 21.553298000000002
#
# number of rings (size 3 to 8) (size 9 to 14) (size 15 to 20)
#    0.000    1.250    2.500    0.750   10.500    7.000 
#    0.000    0.000    0.000    0.000    0.000    0.000 
#    0.000    0.000    0.000    0.000    0.000    0.000 
#
# Total GULP energy -89218.217658 kJ/mol
# GULP energy per Si atom -5576.138604 kJ/mol
# Density = 2.150424 g / cm^3
# Si number density = 21.553298 Si / 1000 Ang^3
#
#
#
# Elastic Constant Matrix: (Units=GPa)
#
#
# Indices 1 2 3 4 5 6 
#
# 1 174.0513 64.9931 60.1633 0.0000 0.0000 0.0000
# 2 64.9931 131.1468 58.7060 0.0000 0.0000 0.0000
# 3 60.1633 58.7060 119.1418 0.0000 0.0000 0.0000
# 4 0.0000 0.0000 0.0000 39.8931 0.0000 0.0000
# 5 0.0000 0.0000 0.0000 0.0000 86.7796 0.0000
# 6 0.0000 0.0000 0.0000 0.0000 0.0000 54.5898
#
#
#
# Elastic Compliance Matrix: (Units=1/GPa)
#
#
# Indices 1 2 3 4 5 6 
#
# 1 0.007608 -0.002631 -0.002545 0.000000 0.000000 0.000000
# 2 -0.002631 0.010693 -0.003940 0.000000 0.000000 0.000000
# 3 -0.002545 -0.003940 0.011620 0.000000 0.000000 0.000000
# 4 0.000000 0.000000 0.000000 0.025067 0.000000 0.000000
# 5 0.000000 0.000000 0.000000 0.000000 0.011523 0.000000
# 6 0.000000 0.000000 0.000000 0.000000 0.000000 0.018318
#
#
# Mechanical properties :
#
#
# Convention : Reuss Voigt Hill
#
# Bulk Modulus (GPa) = 85.55969 88.00718 86.78343
# Shear Modulus (GPa) = 46.74739 52.28432 49.51586
#
# Velocity S-wave (km/s) = 4.66222 4.93060 4.79829
# Velocity P-wave (km/s) = 8.29245 8.56361 8.42912
#
# Compressibility (1/GPa) = 0.01168775
#
# Stress axis : x y z
#
# Youngs Moduli (GPa) = 131.44692 93.52295 86.05704
#
# Poissons Ratio (x) = 0.24604 0.21905
# Poissons Ratio (y) = 0.34581 0.33908
# Poissons Ratio (z) = 0.33458 0.36850
#
# Static dielectric constant tensor:
#      x y z
#    x 1.808300 0.000000 0.000000 
#    y 0.000000 1.803590 0.000000 
#    z 0.000000 0.000000 1.712700 
# 
# From -- ./inp_files/29812.got.cif
#   From: 2010.05.17/outbox.cif.g08.bks.cpg/sg21_15_cif.got.tgz:29812.got - 2010.06.03 23:14:55.
