data_PCOD9325468
_publ_section_title
;
Structure prediction by ZEFSAII (Michael W. Deem and Ramdas Pophale) SiO2 
 PCOD9325468
Probable space group: C 2 2 2
;
_chemical_formula_sum "Si O2"
_cell_formula_units_Z 22
_cell_length_a 4.750673
_cell_length_b 17.687916
_cell_length_c 10.742186
_cell_angle_alpha 90.000000
_cell_angle_beta 90.000000
_cell_angle_gamma 90.000000
_cell_volume 902.660572
_symmetry_space_group_name_H-M "C 2 2 2"
_symmetry_group_IT_number 21
_symmetry_cell_setting 'orthorhombic'
loop_
_space_group_symop_operation_xyz
x,y,z
-x,-y,z
x,-y,-z
-x,y,-z
1/2+x,1/2+y,z
1/2-x,1/2-y,z
1/2+x,1/2-y,-z
1/2-x,1/2+y,-z
loop_
_atom_site_type_symbol
_atom_site_label
_atom_site_fract_x
_atom_site_fract_y
_atom_site_fract_z
Si Si1 0.000000 0.000000 0.000000
Si Si2 0.906051 0.412971 0.361862
Si Si3 0.750000 0.250000 0.079699
Si Si4 0.886741 0.119634 0.794923
O O1 0.151085 0.943344 0.902937
O O2 0.087867 0.363887 0.265424
O O3 0.000000 0.500000 0.346482
O O4 0.000000 0.390201 0.500000
O O5 0.583682 0.408540 0.319934
O O6 0.939343 0.188978 0.150197
O O7 0.500000 0.209782 0.000000
#
# Coordination Sequence:
#
# PCOD9325468 Si02
#       4
#     2   8   4   8
#     4  12  24  42  70 106 140 172 240 280 348 410
#     4  11  23  43  69 100 135 178 235 294 343 398
#     4  12  26  44  66 102 152 188 224 278 364 424
#     4  12  25  42  69 103 140 180 231 289 344 419
#
# _framework density 24.372395999999998
#
# number of rings (size 3 to 8) (size 9 to 14) (size 15 to 20)
#    0.000    0.364    5.455    3.273    0.000    4.364 
#    0.000    3.636    0.000    0.000    0.000    0.000 
#    0.000    0.000    0.000    0.000    0.000    0.000 
#
# Total GULP energy -61523.228261 kJ/mol
# GULP energy per Si atom -5593.020751 kJ/mol
# Density = 2.431692 g / cm^3
# Si number density = 24.372396 Si / 1000 Ang^3
#
#
#
# Elastic Constant Matrix: (Units=GPa)
#
#
# Indices 1 2 3 4 5 6 
#
# 1 138.9541 12.2400 31.7384 0.0000 0.0000 0.0000
# 2 12.2400 90.2513 28.1299 0.0000 0.0000 0.0000
# 3 31.7384 28.1299 148.9293 0.0000 0.0000 0.0000
# 4 0.0000 0.0000 0.0000 26.5229 0.0000 0.0000
# 5 0.0000 0.0000 0.0000 0.0000 31.5454 0.0000
# 6 0.0000 0.0000 0.0000 0.0000 0.0000 34.6504
#
#
#
# Elastic Compliance Matrix: (Units=1/GPa)
#
#
# Indices 1 2 3 4 5 6 
#
# 1 0.007591 -0.000558 -0.001512 0.000000 0.000000 0.000000
# 2 -0.000558 0.011814 -0.002113 0.000000 0.000000 0.000000
# 3 -0.001512 -0.002113 0.007436 0.000000 0.000000 0.000000
# 4 0.000000 0.000000 0.000000 0.037703 0.000000 0.000000
# 5 0.000000 0.000000 0.000000 0.000000 0.031700 0.000000
# 6 0.000000 0.000000 0.000000 0.000000 0.000000 0.028860
#
#
# Mechanical properties :
#
#
# Convention : Reuss Voigt Hill
#
# Bulk Modulus (GPa) = 54.12616 58.03902 56.08259
# Shear Modulus (GPa) = 35.80911 38.94551 37.37731
#
# Velocity S-wave (km/s) = 3.83724 4.00175 3.92036
# Velocity P-wave (km/s) = 6.47215 6.72437 6.59946
#
# Compressibility (1/GPa) = 0.01847535
#
# Stress axis : x y z
#
# Youngs Moduli (GPa) = 131.73110 84.64308 134.48248
#
# Poissons Ratio (x) = 0.04724 0.20338
# Poissons Ratio (y) = 0.07353 0.28410
# Poissons Ratio (z) = 0.19922 0.17881
#
# Static dielectric constant tensor:
#      x y z
#    x 1.928430 0.000000 0.000000 
#    y 0.000000 1.952970 0.000000 
#    z 0.000000 0.000000 2.041050 
# 
# From -- ./inp_files/20407.got.cif
#   From: 2010.05.17/outbox.cif.g08.bks.cpg/sg21_11_cif.got.tgz:20407.got - 2010.06.03 23:14:55.
