data_PCOD9325213
_publ_section_title
;
Structure prediction by ZEFSAII (Michael W. Deem and Ramdas Pophale) SiO2 
 PCOD9325213
Probable space group: C 2 2 2
;
_chemical_formula_sum "Si O2"
_cell_formula_units_Z 40
_cell_length_a 17.488996
_cell_length_b 15.498319
_cell_length_c 6.580076
_cell_angle_alpha 90.000000
_cell_angle_beta 90.000000
_cell_angle_gamma 90.000000
_cell_volume 1783.529856
_symmetry_space_group_name_H-M "C 2 2 2"
_symmetry_group_IT_number 21
_symmetry_cell_setting 'orthorhombic'
loop_
_space_group_symop_operation_xyz
x,y,z
-x,-y,z
x,-y,-z
-x,y,-z
1/2+x,1/2+y,z
1/2-x,1/2-y,z
1/2+x,1/2-y,-z
1/2-x,1/2+y,-z
loop_
_atom_site_type_symbol
_atom_site_label
_atom_site_fract_x
_atom_site_fract_y
_atom_site_fract_z
Si Si1 0.306248 0.820136 0.423256
Si Si2 0.866776 0.405492 0.038708
Si Si3 0.211583 0.900704 0.789398
Si Si4 0.592447 0.744798 0.218120
Si Si5 0.124760 0.000000 0.500000
Si Si6 0.000000 0.852522 0.500000
O O1 0.250000 0.750000 0.317969
O O2 0.350804 0.881463 0.270625
O O3 0.250118 0.868733 0.578392
O O4 0.367309 0.775383 0.571757
O O5 0.901084 0.500000 0.000000
O O6 0.782169 0.408026 0.938428
O O7 0.909701 0.326646 0.928224
O O8 0.149798 0.829923 0.861859
O O9 0.170520 0.986849 0.710515
O O10 0.514095 0.703140 0.296927
O O11 0.072251 0.915645 0.481394
#
# Coordination Sequence:
#
# PCOD9325213 Si02
#       6
#     8   8   8   8   4   4
#     4   9  17  31  52  76 105 140 173 217 275 324
#     4  11  20  30  51  80 109 138 177 229 275 315
#     4   9  17  31  51  81 113 135 169 218 278 336
#     4   9  19  34  52  74 104 146 185 216 260 323
#     4   9  16  30  56  86 110 139 174 216 272 331
#     4   9  18  34  56  77 108 150 184 215 258 319
#
# _framework density 22.427434000000002
#
# number of rings (size 3 to 8) (size 9 to 14) (size 15 to 20)
#    0.000    2.600    0.000    4.200    0.000    2.400 
#    0.000    1.000    0.000   10.800    0.000   23.800 
#    0.000    0.000    0.000    0.000    0.000    0.000 
#
# Total GULP energy -111689.869467 kJ/mol
# GULP energy per Si atom -5584.493473 kJ/mol
# Density = 2.237639 g / cm^3
# Si number density = 22.427434 Si / 1000 Ang^3
#
#
#
# Elastic Constant Matrix: (Units=GPa)
#
#
# Indices 1 2 3 4 5 6 
#
# 1 46.6817 4.4554 1.5143 0.0000 0.0000 0.0000
# 2 4.4554 95.3528 13.6268 0.0000 0.0000 0.0000
# 3 1.5143 13.6268 37.8752 0.0000 0.0000 0.0000
# 4 0.0000 0.0000 0.0000 36.8153 0.0000 0.0000
# 5 0.0000 0.0000 0.0000 0.0000 21.5408 0.0000
# 6 0.0000 0.0000 0.0000 0.0000 0.0000 15.1400
#
#
#
# Elastic Compliance Matrix: (Units=1/GPa)
#
#
# Indices 1 2 3 4 5 6 
#
# 1 0.021528 -0.000931 -0.000526 0.000000 0.000000 0.000000
# 2 -0.000931 0.011096 -0.003955 0.000000 0.000000 0.000000
# 3 -0.000526 -0.003955 0.027846 0.000000 0.000000 0.000000
# 4 0.000000 0.000000 0.000000 0.027163 0.000000 0.000000
# 5 0.000000 0.000000 0.000000 0.000000 0.046424 0.000000
# 6 0.000000 0.000000 0.000000 0.000000 0.000000 0.066050
#
#
# Mechanical properties :
#
#
# Convention : Reuss Voigt Hill
#
# Bulk Modulus (GPa) = 20.14219 24.34473 22.24346
# Shear Modulus (GPa) = 21.98008 25.38675 23.68342
#
# Velocity S-wave (km/s) = 3.13398 3.36810 3.25314
# Velocity P-wave (km/s) = 4.70067 5.09940 4.90409
#
# Compressibility (1/GPa) = 0.04964704
#
# Stress axis : x y z
#
# Youngs Moduli (GPa) = 46.45208 90.12211 35.91122
#
# Poissons Ratio (x) = 0.08388 0.01888
# Poissons Ratio (y) = 0.04323 0.14203
# Poissons Ratio (z) = 0.02443 0.35643
#
# Static dielectric constant tensor:
#      x y z
#    x 1.879030 0.000000 0.000000 
#    y 0.000000 1.897780 0.000000 
#    z 0.000000 0.000000 1.835200 
# 
# From -- ./inp_files/5836.got.cif
#   From: 2010.05.17/outbox.cif.g08.bks.cpg/sg21_3_cif.got.tgz:5836.got - 2010.06.03 23:14:55.
