data_PCOD9325054
_publ_section_title
;
Structure prediction by ZEFSAII (Michael W. Deem and Ramdas Pophale) SiO2 
 PCOD9325054
Probable space group: C 2 2 2
;
_chemical_formula_sum "Si O2"
_cell_formula_units_Z 24
_cell_length_a 8.577087
_cell_length_b 4.903138
_cell_length_c 23.319798
_cell_angle_alpha 90.000000
_cell_angle_beta 90.000000
_cell_angle_gamma 90.000000
_cell_volume 980.705738
_symmetry_space_group_name_H-M "C 2 2 2"
_symmetry_group_IT_number 21
_symmetry_cell_setting 'orthorhombic'
loop_
_space_group_symop_operation_xyz
x,y,z
-x,-y,z
x,-y,-z
-x,y,-z
1/2+x,1/2+y,z
1/2-x,1/2-y,z
1/2+x,1/2-y,-z
1/2-x,1/2+y,-z
loop_
_atom_site_type_symbol
_atom_site_label
_atom_site_fract_x
_atom_site_fract_y
_atom_site_fract_z
Si Si1 0.000000 0.000000 0.168220
Si Si2 0.000000 0.500000 0.250294
Si Si3 0.250000 0.750000 0.664132
Si Si4 0.000000 0.000000 0.000000
Si Si5 0.750000 0.250000 0.417010
Si Si6 0.000000 0.500000 0.500000
Si Si7 0.250000 0.750000 0.916181
O O1 0.844950 0.937891 0.130410
O O2 0.042224 0.745822 0.208093
O O3 0.126056 0.379087 0.293186
O O4 0.298299 0.503114 0.622818
O O5 0.890076 0.796898 0.037003
O O6 0.891085 0.328042 0.458202
#
# Coordination Sequence:
#
# PCOD9325054 Si02
#       7
#     4   4   4   2   4   2   4
#     4  11  26  49  80 114 156 203 256 317 384 458
#     4  12  27  50  78 114 154 202 255 316 382 456
#     4  12  28  50  78 112 154 202 256 316 382 456
#     4  10  24  48  76 112 156 204 256 316 384 458
#     4  12  29  52  80 116 156 204 257 318 384 458
#     4  12  30  52  80 114 156 204 258 318 384 458
#     4  10  25  48  78 114 156 202 257 316 384 456
#
# _framework density 24.472173000000002
#
# number of rings (size 3 to 8) (size 9 to 14) (size 15 to 20)
#    0.000    0.667    0.000    5.000    0.000   21.333 
#    0.000    0.000    0.000    0.000    0.000    0.000 
#    0.000    0.000    0.000    0.000    0.000    0.000 
#
# Total GULP energy -66951.507552 kJ/mol
# GULP energy per Si atom -5579.292296 kJ/mol
# Density = 2.441647 g / cm^3
# Si number density = 24.472173 Si / 1000 Ang^3
#
#
#
# Elastic Constant Matrix: (Units=GPa)
#
#
# Indices 1 2 3 4 5 6 
#
# 1 203.5903 103.9398 130.9786 0.0000 0.0000 0.0000
# 2 103.9398 190.0443 131.9785 0.0000 0.0000 0.0000
# 3 130.9786 131.9785 246.3450 0.0000 0.0000 0.0000
# 4 0.0000 0.0000 0.0000 -139.8803 0.0000 0.0000
# 5 0.0000 0.0000 0.0000 0.0000 607.1384 0.0000
# 6 0.0000 0.0000 0.0000 0.0000 0.0000 54.0871
#
#
#
# Elastic Compliance Matrix: (Units=1/GPa)
#
#
# Indices 1 2 3 4 5 6 
#
# 1 0.008039 -0.002275 -0.003055 0.000000 0.000000 0.000000
# 2 -0.002275 0.009023 -0.003625 0.000000 0.000000 0.000000
# 3 -0.003055 -0.003625 0.007626 0.000000 0.000000 0.000000
# 4 0.000000 0.000000 0.000000 -0.007149 0.000000 0.000000
# 5 0.000000 0.000000 0.000000 0.000000 0.001647 0.000000
# 6 0.000000 0.000000 0.000000 0.000000 0.000000 0.018489
#
#
# Mechanical properties :
#
#
# Convention : Reuss Voigt Hill
#
# Bulk Modulus (GPa) = 147.53435 152.64148 150.08791
# Shear Modulus (GPa) = 86.43914 122.47455 104.45684
#
# Velocity S-wave (km/s) = 5.94963 7.08203 6.54038
# Velocity P-wave (km/s) = 10.37376 11.37464 10.88571
#
# Compressibility (1/GPa) = 0.00677808
#
# Stress axis : x y z
#
# Youngs Moduli (GPa) = 124.39531 110.82434 131.13270
#
# Poissons Ratio (x) = 0.25210 0.40068
# Poissons Ratio (y) = 0.28297 0.47532
# Poissons Ratio (z) = 0.38009 0.40171
#
# Static dielectric constant tensor:
#      x y z
#    x 1.920150 0.000000 0.000000 
#    y 0.000000 1.247870 0.000000 
#    z 0.000000 0.000000 1.914540 
# 
# From -- ./inp_files/38394.got.cif
#   From: 2010.05.17/outbox.cif.g08.bks.cpg/sg21_20_cif.got.tgz:38394.got - 2010.06.03 23:14:55.
