data_PCOD9325032
_publ_section_title
;
Structure prediction by ZEFSAII (Michael W. Deem and Ramdas Pophale) SiO2 
 PCOD9325032
Probable space group: C 2 2 2
;
_chemical_formula_sum "Si O2"
_cell_formula_units_Z 18
_cell_length_a 29.017562
_cell_length_b 5.138575
_cell_length_c 4.927954
_cell_angle_alpha 90.000000
_cell_angle_beta 90.000000
_cell_angle_gamma 90.000000
_cell_volume 734.801892
_symmetry_space_group_name_H-M "C 2 2 2"
_symmetry_group_IT_number 21
_symmetry_cell_setting 'orthorhombic'
loop_
_space_group_symop_operation_xyz
x,y,z
-x,-y,z
x,-y,-z
-x,y,-z
1/2+x,1/2+y,z
1/2-x,1/2-y,z
1/2+x,1/2-y,-z
1/2-x,1/2+y,-z
loop_
_atom_site_type_symbol
_atom_site_label
_atom_site_fract_x
_atom_site_fract_y
_atom_site_fract_z
Si Si1 0.000000 0.000000 0.000000
Si Si2 0.721512 0.000000 0.500000
Si Si3 0.064607 0.000000 0.500000
Si Si4 0.361267 0.236742 0.172196
O O1 0.964337 0.101030 0.236247
O O2 0.750000 0.750000 0.611563
O O3 0.687304 0.858589 0.290252
O O4 0.100115 0.786885 0.604970
O O5 0.355275 0.500000 0.000000
O O6 0.379323 0.000000 0.000000
#
# Coordination Sequence:
#
# PCOD9325032 Si02
#       4
#     2   4   4   8
#     4  10  24  46  90 118 166 206 282 334 390 506
#     4  12  27  48  77 121 160 213 277 330 397 484
#     4  11  23  50  81 126 162 216 267 334 413 469
#     4  12  26  49  84 112 166 219 264 333 412 479
#
# _framework density 24.496399
#
# number of rings (size 3 to 8) (size 9 to 14) (size 15 to 20)
#    0.000    0.444    2.222    6.667    0.000    3.556 
#    0.000    5.556    9.778    0.000    0.000    0.000 
#    0.000    0.000    0.000    0.000    0.000    0.000 
#
# Total GULP energy -50200.024591 kJ/mol
# GULP energy per Si atom -5577.780510 kJ/mol
# Density = 2.444064 g / cm^3
# Si number density = 24.496399 Si / 1000 Ang^3
#
#
#
# Elastic Constant Matrix: (Units=GPa)
#
#
# Indices 1 2 3 4 5 6 
#
# 1 164.1549 81.7195 85.1741 0.0000 0.0000 0.0000
# 2 81.7195 206.7554 89.1650 0.0000 0.0000 0.0000
# 3 85.1741 89.1650 184.9299 0.0000 0.0000 0.0000
# 4 0.0000 0.0000 0.0000 65.5446 0.0000 0.0000
# 5 0.0000 0.0000 0.0000 0.0000 31.3046 0.0000
# 6 0.0000 0.0000 0.0000 0.0000 0.0000 -29.3942
#
#
#
# Elastic Compliance Matrix: (Units=1/GPa)
#
#
# Indices 1 2 3 4 5 6 
#
# 1 0.008708 -0.002162 -0.002969 0.000000 0.000000 0.000000
# 2 -0.002162 0.006643 -0.002207 0.000000 0.000000 0.000000
# 3 -0.002969 -0.002207 0.007839 0.000000 0.000000 0.000000
# 4 0.000000 0.000000 0.000000 0.015257 0.000000 0.000000
# 5 0.000000 0.000000 0.000000 0.000000 0.031944 0.000000
# 6 0.000000 0.000000 0.000000 0.000000 0.000000 -0.034020
#
#
# Mechanical properties :
#
#
# Convention : Reuss Voigt Hill
#
# Bulk Modulus (GPa) = 117.43895 118.66194 118.05045
# Shear Modulus (GPa) = 92.79176 33.47645 63.13411
#
# Velocity S-wave (km/s) = 6.16133 3.70075 5.08220
# Velocity P-wave (km/s) = 9.93284 8.17352 9.09582
#
# Compressibility (1/GPa) = 0.00851506
#
# Stress axis : x y z
#
# Youngs Moduli (GPa) = 114.83444 150.53526 127.56824
#
# Poissons Ratio (x) = 0.32541 0.37869
# Poissons Ratio (y) = 0.24824 0.28158
# Poissons Ratio (z) = 0.34089 0.33228
#
# Static dielectric constant tensor:
#      x y z
#    x 2.014750 0.000000 0.000000 
#    y 0.000000 1.907430 0.000000 
#    z 0.000000 0.000000 2.105410 
# 
# From -- ./inp_files/6976.got.cif
#   From: 2010.05.17/outbox.cif.g08.bks.cpg/sg21_4_cif.got.tgz:6976.got - 2010.06.03 23:14:55.
