data_PCOD9325436
_publ_section_title
;
Structure prediction by ZEFSAII (Michael W. Deem and Ramdas Pophale) SiO2 
 PCOD9325436
Probable space group: C 2 2 2
;
_chemical_formula_sum "Si O2"
_cell_formula_units_Z 26
_cell_length_a 17.384054
_cell_length_b 8.007463
_cell_length_c 9.072160
_cell_angle_alpha 90.000000
_cell_angle_beta 90.000000
_cell_angle_gamma 90.000000
_cell_volume 1262.864351
_symmetry_space_group_name_H-M "C 2 2 2"
_symmetry_group_IT_number 21
_symmetry_cell_setting 'orthorhombic'
loop_
_space_group_symop_operation_xyz
x,y,z
-x,-y,z
x,-y,-z
-x,y,-z
1/2+x,1/2+y,z
1/2-x,1/2-y,z
1/2+x,1/2-y,-z
1/2-x,1/2+y,-z
loop_
_atom_site_type_symbol
_atom_site_label
_atom_site_fract_x
_atom_site_fract_y
_atom_site_fract_z
Si Si1 0.368580 0.500000 0.500000
Si Si2 0.041038 0.777232 0.262924
Si Si3 0.890645 0.563282 0.327931
Si Si4 0.500000 0.500000 0.000000
Si Si5 0.250000 0.250000 0.343790
O O1 0.421067 0.600392 0.383526
O O2 0.310036 0.362352 0.434883
O O3 0.085764 0.604489 0.246337
O O4 0.956176 0.706700 0.309936
O O5 0.043367 0.878662 0.111985
O O6 0.886251 0.500000 0.500000
O O7 0.809476 0.626621 0.267333
#
# Coordination Sequence:
#
# PCOD9325436 Si02
#       5
#     4   8   8   2   4
#     4  12  22  41  68 101 130 174 212 289 314 404
#     4  11  25  42  67  95 138 172 229 263 333 376
#     4  11  23  41  67 106 130 167 210 288 324 393
#     4  12  28  40  64 104 124 188 220 278 308 396
#     4  12  22  36  66 114 130 158 216 280 350 372
#
# _framework density 20.58812
#
# number of rings (size 3 to 8) (size 9 to 14) (size 15 to 20)
#    0.000    0.615    4.615    3.692    4.308    3.692 
#    0.000    0.000    0.000   36.923    0.000    0.000 
#    0.000    0.000    0.000    0.000    0.000    0.000 
#
# Total GULP energy -72549.948520 kJ/mol
# GULP energy per Si atom -5580.765271 kJ/mol
# Density = 2.054126 g / cm^3
# Si number density = 20.588120 Si / 1000 Ang^3
#
#
#
# Elastic Constant Matrix: (Units=GPa)
#
#
# Indices 1 2 3 4 5 6 
#
# 1 170.4607 87.0061 48.4294 0.0000 0.0000 0.0000
# 2 87.0061 167.0114 60.8533 0.0000 0.0000 0.0000
# 3 48.4294 60.8533 75.1391 0.0000 0.0000 0.0000
# 4 0.0000 0.0000 0.0000 37.5522 0.0000 0.0000
# 5 0.0000 0.0000 0.0000 0.0000 -1.7294 0.0000
# 6 0.0000 0.0000 0.0000 0.0000 0.0000 52.0028
#
#
#
# Elastic Compliance Matrix: (Units=1/GPa)
#
#
# Indices 1 2 3 4 5 6 
#
# 1 0.008344 -0.003387 -0.002635 0.000000 0.000000 0.000000
# 2 -0.003387 0.009869 -0.005810 0.000000 0.000000 0.000000
# 3 -0.002635 -0.005810 0.019712 0.000000 0.000000 0.000000
# 4 0.000000 0.000000 0.000000 0.026630 0.000000 0.000000
# 5 0.000000 0.000000 0.000000 0.000000 -0.578250 0.000000
# 6 0.000000 0.000000 0.000000 0.000000 0.000000 0.019230
#
#
# Mechanical properties :
#
#
# Convention : Reuss Voigt Hill
#
# Bulk Modulus (GPa) = 70.11676 89.46542 79.79109
# Shear Modulus (GPa) = -10.72847 31.98662 10.62908
#
# Velocity S-wave (km/s) = -2.28524 3.94591 2.27463
# Velocity P-wave (km/s) = 5.21227 8.01932 6.76303
#
# Compressibility (1/GPa) = 0.01426192
#
# Stress axis : x y z
#
# Youngs Moduli (GPa) = 119.85147 101.32988 50.73014
#
# Poissons Ratio (x) = 0.34316 0.13367
# Poissons Ratio (y) = 0.40589 0.29473
# Poissons Ratio (z) = 0.31581 0.58870
#
# Static dielectric constant tensor:
#      x y z
#    x 1.773300 0.000000 0.000000 
#    y 0.000000 2.436230 0.000000 
#    z 0.000000 0.000000 1.735830 
# 
# From -- ./inp_files/10067.got.cif
#   From: 2010.05.17/outbox.cif.g08.bks.cpg/sg21_6_cif.got.tgz:10067.got - 2010.06.03 23:14:55.
