data_PCOD9325461
_publ_section_title
;
Structure prediction by ZEFSAII (Michael W. Deem and Ramdas Pophale) SiO2 
 PCOD9325461
Probable space group: C 2 2 2
;
_chemical_formula_sum "Si O2"
_cell_formula_units_Z 40
_cell_length_a 14.702917
_cell_length_b 13.512528
_cell_length_c 9.361574
_cell_angle_alpha 90.000000
_cell_angle_beta 90.000000
_cell_angle_gamma 90.000000
_cell_volume 1859.897399
_symmetry_space_group_name_H-M "C 2 2 2"
_symmetry_group_IT_number 21
_symmetry_cell_setting 'orthorhombic'
loop_
_space_group_symop_operation_xyz
x,y,z
-x,-y,z
x,-y,-z
-x,y,-z
1/2+x,1/2+y,z
1/2-x,1/2-y,z
1/2+x,1/2-y,-z
1/2-x,1/2+y,-z
loop_
_atom_site_type_symbol
_atom_site_label
_atom_site_fract_x
_atom_site_fract_y
_atom_site_fract_z
Si Si1 0.072123 0.740745 0.707748
Si Si2 0.587853 0.341676 0.435445
Si Si3 0.680576 0.340557 0.917504
Si Si4 0.284206 0.444452 0.786818
Si Si5 0.895439 0.516438 0.330190
O O1 0.127893 0.793275 0.578223
O O2 0.086955 0.796579 0.855975
O O3 0.111481 0.631395 0.710054
O O4 0.967069 0.756493 0.655720
O O5 0.500000 0.397671 0.500000
O O6 0.656422 0.405809 0.345339
O O7 0.750000 0.250000 0.891756
O O8 0.694827 0.442648 0.831003
O O9 0.690681 0.374099 0.080796
O O10 0.177593 0.448273 0.748918
O O11 0.884145 0.500000 0.500000
O O12 0.000000 0.500000 0.292638
#
# Coordination Sequence:
#
# PCOD9325461 Si02
#       5
#     8   8   8   8   8
#     4   9  21  44  68  97 151 183 227 296 357 424
#     4   8  21  42  73 107 138 180 237 287 365 425
#     4  11  24  43  66  99 143 187 236 283 359 435
#     4  11  25  43  70 103 136 192 237 292 355 434
#     4  11  23  42  72 106 143 183 246 299 360 428
#
# _framework density 21.506564000000001
#
# number of rings (size 3 to 8) (size 9 to 14) (size 15 to 20)
#    1.200    0.600    2.000    2.400    2.800    4.800 
#    3.600    4.000    0.000    0.000    0.000    0.000 
#    0.000    0.000    0.000    0.000    0.000    0.000 
#
# Total GULP energy -111375.151779 kJ/mol
# GULP energy per Si atom -5568.757589 kJ/mol
# Density = 2.145761 g / cm^3
# Si number density = 21.506564 Si / 1000 Ang^3
#
#
#
# Elastic Constant Matrix: (Units=GPa)
#
#
# Indices 1 2 3 4 5 6 
#
# 1 75.8564 23.8467 67.5856 0.0000 0.0000 0.0000
# 2 23.8467 93.0448 57.8375 0.0000 0.0000 0.0000
# 3 67.5856 57.8375 107.8538 0.0000 0.0000 0.0000
# 4 0.0000 0.0000 0.0000 20.4278 0.0000 0.0000
# 5 0.0000 0.0000 0.0000 0.0000 29.1999 0.0000
# 6 0.0000 0.0000 0.0000 0.0000 0.0000 31.6396
#
#
#
# Elastic Compliance Matrix: (Units=1/GPa)
#
#
# Indices 1 2 3 4 5 6 
#
# 1 0.032230 0.006441 -0.023651 0.000000 0.000000 0.000000
# 2 0.006441 0.017409 -0.013372 0.000000 0.000000 0.000000
# 3 -0.023651 -0.013372 0.031263 0.000000 0.000000 0.000000
# 4 0.000000 0.000000 0.000000 0.048953 0.000000 0.000000
# 5 0.000000 0.000000 0.000000 0.000000 0.034247 0.000000
# 6 0.000000 0.000000 0.000000 0.000000 0.000000 0.031606
#
#
# Mechanical properties :
#
#
# Convention : Reuss Voigt Hill
#
# Bulk Modulus (GPa) = 50.66120 63.92161 57.29140
# Shear Modulus (GPa) = 18.97890 24.75249 21.86569
#
# Velocity S-wave (km/s) = 2.97386 3.39621 3.19203
# Velocity P-wave (km/s) = 5.94972 6.72052 6.34683
#
# Compressibility (1/GPa) = 0.01973897
#
# Stress axis : x y z
#
# Youngs Moduli (GPa) = 31.02693 57.44219 31.98645
#
# Poissons Ratio (x) = -0.37000 0.75651
# Poissons Ratio (y) = -0.19985 0.42772
# Poissons Ratio (z) = 0.73381 0.76812
#
# Static dielectric constant tensor:
#      x y z
#    x 1.873610 0.000000 0.000000 
#    y 0.000000 1.828710 0.000000 
#    z 0.000000 0.000000 1.793620 
# 
# From -- ./inp_files/16113.got.cif
#   From: 2010.05.17/outbox.cif.g08.bks.cpg/sg21_9_cif.got.tgz:16113.got - 2010.06.03 23:14:55.
