data_PCOD9325944
_publ_section_title
;
Structure prediction by ZEFSAII (Michael W. Deem and Ramdas Pophale) SiO2 
 PCOD9325944
Probable space group: F 2 2 2
;
_chemical_formula_sum "Si O2"
_cell_formula_units_Z 96
_cell_length_a 12.988236
_cell_length_b 18.472252
_cell_length_c 22.865965
_cell_angle_alpha 90.000000
_cell_angle_beta 90.000000
_cell_angle_gamma 90.000000
_cell_volume 5486.047333
_symmetry_space_group_name_H-M "F 2 2 2"
_symmetry_group_IT_number 22
_symmetry_cell_setting 'orthorhombic'
loop_
_space_group_symop_operation_xyz
x,y,z
-x,-y,z
x,-y,-z
-x,y,-z
x,1/2+y,1/2+z
-x,1/2-y,1/2+z
x,1/2-y,1/2-z
-x,1/2+y,1/2-z
1/2+x,y,1/2+z
1/2-x,-y,1/2+z
1/2+x,-y,1/2-z
1/2-x,y,1/2-z
1/2+x,1/2+y,z
1/2-x,1/2-y,z
1/2+x,1/2-y,-z
1/2-x,1/2+y,-z
loop_
_atom_site_type_symbol
_atom_site_label
_atom_site_fract_x
_atom_site_fract_y
_atom_site_fract_z
Si Si1 0.509495 0.624911 0.169820
Si Si2 0.521125 0.262267 0.067470
Si Si3 0.220296 0.398188 0.683034
Si Si4 0.163069 0.194744 0.370838
Si Si5 0.250000 0.250000 0.611215
Si Si6 0.074254 0.750000 0.750000
Si Si7 0.267883 0.442268 0.180025
O O1 0.505754 0.670088 0.109564
O O2 0.401271 0.586657 0.176933
O O3 0.511798 0.683417 0.222888
O O4 0.611926 0.577721 0.171651
O O5 0.441434 0.201643 0.091865
O O6 0.641956 0.246200 0.076754
O O7 0.500000 0.276413 0.000000
O O8 0.250000 0.386005 0.750000
O O9 0.245043 0.324543 0.648553
O O10 0.266144 0.475965 0.664776
O O11 0.250000 0.250000 0.395084
O O12 0.138440 0.223278 0.305358
O O13 0.207173 0.115412 0.359564
O O14 0.250000 0.432002 0.250000
#
# Coordination Sequence:
#
# PCOD9325944 Si02
#       7
#    16  16  16  16   8   8  16
#     4  10  20  33  54  80 117 149 189 238 284 347
#     4  10  23  37  61  85 106 155 195 237 278 331
#     4  10  23  34  53  80 119 160 184 227 289 363
#     4  11  18  32  58  87 114 143 183 240 284 340
#     4  10  23  42  56  78 116 149 198 234 278 362
#     4  10  17  28  55  82 116 139 182 224 293 346
#     4  11  19  33  54  88 120 143 189 241 291 345
#
# _framework density 17.498937000000002
#
# number of rings (size 3 to 8) (size 9 to 14) (size 15 to 20)
#    0.000    1.667    5.000    1.000    8.167    0.000 
#    0.000    0.833    0.000   14.000    0.000    0.000 
#    0.000    0.000    0.000    0.000    0.000    0.000 
#
# Total GULP energy -133712.871036 kJ/mol
# GULP energy per Si atom -5571.369626 kJ/mol
# Density = 1.745911 g / cm^3
# Si number density = 17.498937 Si / 1000 Ang^3
#
#
#
# Elastic Constant Matrix: (Units=GPa)
#
#
# Indices 1 2 3 4 5 6 
#
# 1 111.2326 39.4832 50.5958 0.0000 0.0000 0.0000
# 2 39.4832 106.2609 22.8699 0.0000 0.0000 0.0000
# 3 50.5958 22.8699 80.7645 0.0000 0.0000 0.0000
# 4 0.0000 0.0000 0.0000 -2.7498 0.0000 0.0000
# 5 0.0000 0.0000 0.0000 0.0000 13.5626 0.0000
# 6 0.0000 0.0000 0.0000 0.0000 0.0000 15.1091
#
#
#
# Elastic Compliance Matrix: (Units=1/GPa)
#
#
# Indices 1 2 3 4 5 6 
#
# 1 0.013662 -0.003444 -0.007584 0.000000 0.000000 0.000000
# 2 -0.003444 0.010890 -0.000926 0.000000 0.000000 0.000000
# 3 -0.007584 -0.000926 0.017395 0.000000 0.000000 0.000000
# 4 0.000000 0.000000 0.000000 -0.363660 0.000000 0.000000
# 5 0.000000 0.000000 0.000000 0.000000 0.073732 0.000000
# 6 0.000000 0.000000 0.000000 0.000000 0.000000 0.066185
#
#
# Mechanical properties :
#
#
# Convention : Reuss Voigt Hill
#
# Bulk Modulus (GPa) = 55.43478 58.23953 56.83715
# Shear Modulus (GPa) = -32.92167 17.53833 -7.69167
#
# Velocity S-wave (km/s) = -4.34216 3.16927 -2.09882
# Velocity P-wave (km/s) = 2.57071 6.83713 5.16502
#
# Compressibility (1/GPa) = 0.01803922
#
# Stress axis : x y z
#
# Youngs Moduli (GPa) = 73.19434 91.82844 57.48879
#
# Poissons Ratio (x) = 0.31628 0.43597
# Poissons Ratio (y) = 0.25210 0.05323
# Poissons Ratio (z) = 0.55507 0.08503
#
# Static dielectric constant tensor:
#      x y z
#    x 1.632830 0.000000 0.000000 
#    y 0.000000 1.660280 0.000000 
#    z 0.000000 0.000000 1.558270 
# 
# From -- ./inp_files/48192.got.cif
#   From: 2010.05.17/outbox.cif.g08.bks.cpg/sg22_25_cif.got.tgz:48192.got - 2010.06.03 23:40:54.
