data_PCOD9325148
_publ_section_title
;
Structure prediction by ZEFSAII (Michael W. Deem and Ramdas Pophale) SiO2 
 PCOD9325148
Probable space group: C 2 2 2
;
_chemical_formula_sum "Si O2"
_cell_formula_units_Z 38
_cell_length_a 21.939310
_cell_length_b 8.636393
_cell_length_c 8.330518
_cell_angle_alpha 90.000000
_cell_angle_beta 90.000000
_cell_angle_gamma 90.000000
_cell_volume 1578.437421
_symmetry_space_group_name_H-M "C 2 2 2"
_symmetry_group_IT_number 21
_symmetry_cell_setting 'orthorhombic'
loop_
_space_group_symop_operation_xyz
x,y,z
-x,-y,z
x,-y,-z
-x,y,-z
1/2+x,1/2+y,z
1/2-x,1/2-y,z
1/2+x,1/2-y,-z
1/2-x,1/2+y,-z
loop_
_atom_site_type_symbol
_atom_site_label
_atom_site_fract_x
_atom_site_fract_y
_atom_site_fract_z
Si Si1 0.157919 0.943860 0.822163
Si Si2 0.544206 0.749820 0.257815
Si Si3 0.182554 0.740080 0.308203
Si Si4 0.926705 0.572427 0.823487
Si Si5 0.000000 0.000000 0.500000
Si Si6 0.250000 0.750000 0.621130
O O1 0.100433 0.826631 0.839431
O O2 0.215393 0.866956 0.735242
O O3 0.148631 0.095662 0.710962
O O4 0.172338 0.000000 0.000000
O O5 0.475907 0.787590 0.190369
O O6 0.537392 0.621112 0.393279
O O7 0.561582 0.927110 0.295606
O O8 0.250000 0.750000 0.233931
O O9 0.140529 0.624537 0.214236
O O10 0.198025 0.696876 0.492824
O O11 0.932638 0.500000 0.000000
#
# Coordination Sequence:
#
# PCOD9325148 Si02
#       6
#     8   8   8   8   2   4
#     4  12  27  48  79 119 160 218 278 336 412 493
#     4  11  27  45  77 116 159 209 281 334 423 485
#     4  10  26  48  79 116 165 214 271 337 410 486
#     4  11  25  52  83 117 164 216 275 350 419 487
#     4  12  28  46  74 112 168 210 266 332 414 510
#     4  10  28  48  76 114 170 212 278 340 404 490
#
# _framework density 24.074442000000001
#
# number of rings (size 3 to 8) (size 9 to 14) (size 15 to 20)
#    0.632    0.421    0.000    4.421   10.316    4.211 
#    0.000    2.105    0.000    0.000    0.000    0.000 
#    0.000    0.000    0.000    0.000    0.000    0.000 
#
# Total GULP energy -106013.919555 kJ/mol
# GULP energy per Si atom -5579.679977 kJ/mol
# Density = 2.401965 g / cm^3
# Si number density = 24.074442 Si / 1000 Ang^3
#
#
#
# Elastic Constant Matrix: (Units=GPa)
#
#
# Indices 1 2 3 4 5 6 
#
# 1 162.2153 71.2356 68.1726 0.0000 0.0000 0.0000
# 2 71.2356 128.7056 55.5215 0.0000 0.0000 0.0000
# 3 68.1726 55.5215 129.7656 0.0000 0.0000 0.0000
# 4 0.0000 0.0000 0.0000 43.8174 0.0000 0.0000
# 5 0.0000 0.0000 0.0000 0.0000 19.8978 0.0000
# 6 0.0000 0.0000 0.0000 0.0000 0.0000 42.7574
#
#
#
# Elastic Compliance Matrix: (Units=1/GPa)
#
#
# Indices 1 2 3 4 5 6 
#
# 1 0.009129 -0.003659 -0.003230 0.000000 0.000000 0.000000
# 2 -0.003659 0.010995 -0.002782 0.000000 0.000000 0.000000
# 3 -0.003230 -0.002782 0.010594 0.000000 0.000000 0.000000
# 4 0.000000 0.000000 0.000000 0.022822 0.000000 0.000000
# 5 0.000000 0.000000 0.000000 0.000000 0.050257 0.000000
# 6 0.000000 0.000000 0.000000 0.000000 0.000000 0.023388
#
#
# Mechanical properties :
#
#
# Convention : Reuss Voigt Hill
#
# Bulk Modulus (GPa) = 87.91486 90.06066 88.98776
# Shear Modulus (GPa) = 33.26254 36.34497 34.80375
#
# Velocity S-wave (km/s) = 3.72109 3.88969 3.80632
# Velocity P-wave (km/s) = 7.42019 7.59364 7.50742
#
# Compressibility (1/GPa) = 0.01137464
#
# Stress axis : x y z
#
# Youngs Moduli (GPa) = 109.53888 90.94984 94.39686
#
# Poissons Ratio (x) = 0.33281 0.30494
# Poissons Ratio (y) = 0.40083 0.26261
# Poissons Ratio (z) = 0.35385 0.25302
#
# Static dielectric constant tensor:
#      x y z
#    x 1.894720 0.000000 0.000000 
#    y 0.000000 1.993320 0.000000 
#    z 0.000000 0.000000 1.979000 
# 
# From -- ./inp_files/18271.got.cif
#   From: 2010.05.17/outbox.cif.g08.bks.cpg/sg21_10_cif.got.tgz:18271.got - 2010.06.03 23:14:55.
