data_PCOD9325605
_publ_section_title
;
Structure prediction by ZEFSAII (Michael W. Deem and Ramdas Pophale) SiO2 
 PCOD9325605
Probable space group: C 2 2 2
;
_chemical_formula_sum "Si O2"
_cell_formula_units_Z 40
_cell_length_a 8.495284
_cell_length_b 15.478517
_cell_length_c 13.386371
_cell_angle_alpha 90.000000
_cell_angle_beta 90.000000
_cell_angle_gamma 90.000000
_cell_volume 1760.232794
_symmetry_space_group_name_H-M "C 2 2 2"
_symmetry_group_IT_number 21
_symmetry_cell_setting 'orthorhombic'
loop_
_space_group_symop_operation_xyz
x,y,z
-x,-y,z
x,-y,-z
-x,y,-z
1/2+x,1/2+y,z
1/2-x,1/2-y,z
1/2+x,1/2-y,-z
1/2-x,1/2+y,-z
loop_
_atom_site_type_symbol
_atom_site_label
_atom_site_fract_x
_atom_site_fract_y
_atom_site_fract_z
Si Si1 0.933069 0.251218 0.267364
Si Si2 0.934482 0.594788 0.392305
Si Si3 0.378579 0.576635 0.702078
Si Si4 0.359832 0.318546 0.934359
Si Si5 0.312461 0.988264 0.119502
O O1 0.750000 0.250000 0.299291
O O2 0.935073 0.244664 0.147839
O O3 0.011900 0.335481 0.311976
O O4 0.028167 0.165895 0.296231
O O5 0.748598 0.584725 0.385156
O O6 0.000000 0.500000 0.369800
O O7 0.000000 0.621021 0.500000
O O8 0.500000 0.500000 0.685623
O O9 0.284199 0.550920 0.805285
O O10 0.250000 0.250000 0.993362
O O11 0.266321 0.392738 0.873355
O O12 0.500000 0.356808 0.000000
O O13 0.500000 0.000000 0.138377
O O14 0.292566 0.000000 0.000000
#
# Coordination Sequence:
#
# PCOD9325605 Si02
#       5
#     8   8   8   8   8
#     4  11  25  45  73 108 150 196 246 315 378 453
#     4  11  27  51  78 107 145 194 252 323 390 465
#     4  12  24  45  78 115 151 201 252 316 387 458
#     4  11  26  44  68 113 159 207 257 314 373 458
#     4  11  26  44  75 112 159 214 264 311 377 458
#
# _framework density 22.724266
#
# number of rings (size 3 to 8) (size 9 to 14) (size 15 to 20)
#    0.000    0.800    2.000    3.600   11.200    3.200 
#    0.000    6.000    0.000    0.000    0.000    0.000 
#    0.000    0.000    0.000    0.000    0.000    0.000 
#
# Total GULP energy -111790.263121 kJ/mol
# GULP energy per Si atom -5589.513156 kJ/mol
# Density = 2.267254 g / cm^3
# Si number density = 22.724266 Si / 1000 Ang^3
#
#
#
# Elastic Constant Matrix: (Units=GPa)
#
#
# Indices 1 2 3 4 5 6 
#
# 1 175.5521 60.7148 44.7483 0.0000 0.0000 0.0000
# 2 60.7148 126.5030 28.0868 0.0000 0.0000 0.0000
# 3 44.7483 28.0868 91.1227 0.0000 0.0000 0.0000
# 4 0.0000 0.0000 0.0000 26.6161 0.0000 0.0000
# 5 0.0000 0.0000 0.0000 0.0000 32.2341 0.0000
# 6 0.0000 0.0000 0.0000 0.0000 0.0000 49.2931
#
#
#
# Elastic Compliance Matrix: (Units=1/GPa)
#
#
# Indices 1 2 3 4 5 6 
#
# 1 0.007413 -0.002952 -0.002731 0.000000 0.000000 0.000000
# 2 -0.002952 0.009661 -0.001528 0.000000 0.000000 0.000000
# 3 -0.002731 -0.001528 0.012786 0.000000 0.000000 0.000000
# 4 0.000000 0.000000 0.000000 0.037571 0.000000 0.000000
# 5 0.000000 0.000000 0.000000 0.000000 0.031023 0.000000
# 6 0.000000 0.000000 0.000000 0.000000 0.000000 0.020287
#
#
# Mechanical properties :
#
#
# Convention : Reuss Voigt Hill
#
# Bulk Modulus (GPa) = 64.77055 73.36420 69.06737
# Shear Modulus (GPa) = 36.15091 38.93718 37.54405
#
# Velocity S-wave (km/s) = 3.99287 4.14389 4.06908
# Velocity P-wave (km/s) = 7.05848 7.43306 7.24819
#
# Compressibility (1/GPa) = 0.01543912
#
# Stress axis : x y z
#
# Youngs Moduli (GPa) = 134.89452 103.50985 78.20899
#
# Poissons Ratio (x) = 0.30553 0.21356
# Poissons Ratio (y) = 0.39816 0.11953
# Poissons Ratio (z) = 0.36835 0.15819
#
# Static dielectric constant tensor:
#      x y z
#    x 1.938320 0.000000 0.000000 
#    y 0.000000 1.865360 0.000000 
#    z 0.000000 0.000000 1.857130 
# 
# From -- ./inp_files/30178.got.cif
#   From: 2010.05.17/outbox.cif.g08.bks.cpg/sg21_16_cif.got.tgz:30178.got - 2010.06.03 23:14:55.
