data_PCOD9325611
_publ_section_title
;
Structure prediction by ZEFSAII (Michael W. Deem and Ramdas Pophale) SiO2 
 PCOD9325611
Probable space group: C 2 2 2
;
_chemical_formula_sum "Si O2"
_cell_formula_units_Z 28
_cell_length_a 7.632482
_cell_length_b 11.560773
_cell_length_c 14.109176
_cell_angle_alpha 90.000000
_cell_angle_beta 90.000000
_cell_angle_gamma 90.000000
_cell_volume 1244.956891
_symmetry_space_group_name_H-M "C 2 2 2"
_symmetry_group_IT_number 21
_symmetry_cell_setting 'orthorhombic'
loop_
_space_group_symop_operation_xyz
x,y,z
-x,-y,z
x,-y,-z
-x,y,-z
1/2+x,1/2+y,z
1/2-x,1/2-y,z
1/2+x,1/2-y,-z
1/2-x,1/2+y,-z
loop_
_atom_site_type_symbol
_atom_site_label
_atom_site_fract_x
_atom_site_fract_y
_atom_site_fract_z
Si Si1 0.200853 0.624305 0.470550
Si Si2 0.541288 0.755274 0.104115
Si Si3 0.000000 0.000000 0.842332
Si Si4 0.340714 0.915104 0.256675
O O1 0.284342 0.500000 0.500000
O O2 0.250000 0.750000 0.512914
O O3 0.219604 0.632069 0.357519
O O4 0.000000 0.615080 0.500000
O O5 0.750000 0.750000 0.122964
O O6 0.491522 0.620514 0.103100
O O7 0.424799 0.822522 0.182557
O O8 0.500000 0.806503 0.000000
O O9 0.179788 0.009843 0.783629
O O10 0.500000 0.000000 0.277817
#
# Coordination Sequence:
#
# PCOD9325611 Si02
#       4
#     8   8   4   8
#     4  11  25  46  73 106 145 185 242 301 365 438
#     4  12  26  45  72 107 148 192 244 298 356 432
#     4  12  25  46  73 104 148 194 241 294 365 422
#     4  12  25  49  75 106 146 191 241 302 362 433
#
# _framework density 22.490736999999999
#
# number of rings (size 3 to 8) (size 9 to 14) (size 15 to 20)
#    0.000    0.286    5.714    4.714    0.000    6.857 
#    0.000    0.000    0.000    0.000    0.000    0.000 
#    0.000    0.000    0.000    0.000    0.000    0.000 
#
# Total GULP energy -78098.725998 kJ/mol
# GULP energy per Si atom -5578.480428 kJ/mol
# Density = 2.243955 g / cm^3
# Si number density = 22.490737 Si / 1000 Ang^3
#
#
#
# Elastic Constant Matrix: (Units=GPa)
#
#
# Indices 1 2 3 4 5 6 
#
# 1 97.7410 6.7304 -5.8181 0.0000 0.0000 0.0000
# 2 6.7304 173.9138 31.0737 0.0000 0.0000 0.0000
# 3 -5.8181 31.0737 112.1058 0.0000 0.0000 0.0000
# 4 0.0000 0.0000 0.0000 28.7393 0.0000 0.0000
# 5 0.0000 0.0000 0.0000 0.0000 0.0652 0.0000
# 6 0.0000 0.0000 0.0000 0.0000 0.0000 18.5435
#
#
#
# Elastic Compliance Matrix: (Units=1/GPa)
#
#
# Indices 1 2 3 4 5 6 
#
# 1 0.010307 -0.000520 0.000679 0.000000 0.000000 0.000000
# 2 -0.000520 0.006076 -0.001711 0.000000 0.000000 0.000000
# 3 0.000679 -0.001711 0.009430 0.000000 0.000000 0.000000
# 4 0.000000 0.000000 0.000000 0.034796 0.000000 0.000000
# 5 0.000000 0.000000 0.000000 0.000000 15.338096 0.000000
# 6 0.000000 0.000000 0.000000 0.000000 0.000000 0.053927
#
#
# Mechanical properties :
#
#
# Convention : Reuss Voigt Hill
#
# Bulk Modulus (GPa) = 44.03645 49.74806 46.89226
# Shear Modulus (GPa) = 0.32335 32.92125 16.62230
#
# Velocity S-wave (km/s) = 0.37958 3.83007 2.72154
# Velocity P-wave (km/s) = 4.45134 6.45962 5.54712
#
# Compressibility (1/GPa) = 0.02270846
#
# Stress axis : x y z
#
# Youngs Moduli (GPa) = 97.01798 164.58635 106.04818
#
# Poissons Ratio (x) = 0.08562 -0.07202
# Poissons Ratio (y) = 0.05047 0.18146
# Poissons Ratio (z) = -0.06589 0.28163
#
# Static dielectric constant tensor:
#      x y z
#    x 1.807570 0.000000 0.000000 
#    y 0.000000 1.919910 0.000000 
#    z 0.000000 0.000000 1.891330 
# 
# From -- ./inp_files/29804.got.cif
#   From: 2010.05.17/outbox.cif.g08.bks.cpg/sg21_15_cif.got.tgz:29804.got - 2010.06.03 23:14:55.
