data_PCOD9325304
_publ_section_title
;
Structure prediction by ZEFSAII (Michael W. Deem and Ramdas Pophale) SiO2 
 PCOD9325304
Probable space group: C 2 2 2
;
_chemical_formula_sum "Si O2"
_cell_formula_units_Z 48
_cell_length_a 28.242691
_cell_length_b 10.203499
_cell_length_c 8.445859
_cell_angle_alpha 90.000000
_cell_angle_beta 90.000000
_cell_angle_gamma 90.000000
_cell_volume 2433.879247
_symmetry_space_group_name_H-M "C 2 2 2"
_symmetry_group_IT_number 21
_symmetry_cell_setting 'orthorhombic'
loop_
_space_group_symop_operation_xyz
x,y,z
-x,-y,z
x,-y,-z
-x,y,-z
1/2+x,1/2+y,z
1/2-x,1/2-y,z
1/2+x,1/2-y,-z
1/2-x,1/2+y,-z
loop_
_atom_site_type_symbol
_atom_site_label
_atom_site_fract_x
_atom_site_fract_y
_atom_site_fract_z
Si Si1 0.351231 0.995369 0.307844
Si Si2 0.913241 0.746583 0.686406
Si Si3 0.110132 0.774324 0.685554
Si Si4 0.750607 0.901662 0.647898
Si Si5 0.154162 0.969578 0.184539
Si Si6 0.007912 0.847435 0.812288
O O1 0.390748 0.890542 0.258675
O O2 0.298921 0.942051 0.269428
O O3 0.351553 0.000000 0.500000
O O4 0.364585 0.141480 0.256229
O O5 0.901570 0.761616 0.500534
O O6 0.885844 0.863545 0.774135
O O7 0.968440 0.762559 0.722140
O O8 0.060526 0.802000 0.771373
O O9 0.142989 0.898755 0.718125
O O10 0.750000 0.750000 0.593478
O O11 0.795056 0.916777 0.762639
O O12 0.756594 0.000000 0.500000
O O13 0.152528 0.000000 0.000000
O O14 0.000000 0.000000 0.766052
O O15 0.000000 0.837823 0.000000
#
# Coordination Sequence:
#
# PCOD9325304 Si02
#       6
#     8   8   8   8   8   8
#     4   9  22  41  64  95 127 156 210 274 316 362
#     4  11  21  41  68  92 123 164 215 263 312 377
#     4  11  23  41  67  96 120 167 218 265 314 375
#     4  11  23  43  70  97 126 167 217 268 315 377
#     4  12  25  41  61  93 132 169 208 260 320 380
#     4  11  23  39  61  93 132 166 206 265 322 384
#
# _framework density 19.721601
#
# number of rings (size 3 to 8) (size 9 to 14) (size 15 to 20)
#    0.000    1.167    3.333    3.000    4.667    1.333 
#    3.000    6.667    0.000    0.000    0.000    0.000 
#    0.000    0.000    0.000    0.000    0.000    0.000 
#
# Total GULP energy -134182.514029 kJ/mol
# GULP energy per Si atom -5590.938085 kJ/mol
# Density = 1.967671 g / cm^3
# Si number density = 19.721601 Si / 1000 Ang^3
#
#
#
# Elastic Constant Matrix: (Units=GPa)
#
#
# Indices 1 2 3 4 5 6 
#
# 1 97.6399 34.3191 2.6340 0.0000 0.0000 0.0000
# 2 34.3191 128.5318 4.5748 0.0000 0.0000 0.0000
# 3 2.6340 4.5748 43.8982 0.0000 0.0000 0.0000
# 4 0.0000 0.0000 0.0000 -1.0470 0.0000 0.0000
# 5 0.0000 0.0000 0.0000 0.0000 -19.6454 0.0000
# 6 0.0000 0.0000 0.0000 0.0000 0.0000 28.9936
#
#
#
# Elastic Compliance Matrix: (Units=1/GPa)
#
#
# Indices 1 2 3 4 5 6 
#
# 1 0.011308 -0.003006 -0.000365 0.000000 0.000000 0.000000
# 2 -0.003006 0.008608 -0.000717 0.000000 0.000000 0.000000
# 3 -0.000365 -0.000717 0.022877 0.000000 0.000000 0.000000
# 4 0.000000 0.000000 0.000000 -0.955089 0.000000 0.000000
# 5 0.000000 0.000000 0.000000 0.000000 -0.050902 0.000000
# 6 0.000000 0.000000 0.000000 0.000000 0.000000 0.034490
#
#
# Mechanical properties :
#
#
# Convention : Reuss Voigt Hill
#
# Bulk Modulus (GPa) = 28.88787 39.23617 34.06202
# Shear Modulus (GPa) = -5.50060 16.89636 5.69788
#
# Velocity S-wave (km/s) = -1.67188 2.93019 1.70160
# Velocity P-wave (km/s) = 3.30949 5.60234 4.60103
#
# Compressibility (1/GPa) = 0.03461661
#
# Stress axis : x y z
#
# Youngs Moduli (GPa) = 88.43076 116.16528 43.71277
#
# Poissons Ratio (x) = 0.34924 0.01597
# Poissons Ratio (y) = 0.26586 0.03133
# Poissons Ratio (z) = 0.03230 0.08326
#
# Static dielectric constant tensor:
#      x y z
#    x 1.679270 0.000000 0.000000 
#    y 0.000000 1.699740 0.000000 
#    z 0.000000 0.000000 1.678050 
# 
# From -- ./inp_files/19632.got.cif
#   From: 2010.05.17/outbox.cif.g08.bks.cpg/sg21_10_cif.got.tgz:19632.got - 2010.06.03 23:14:55.
