data_PCOD9325937
_publ_section_title
;
Structure prediction by ZEFSAII (Michael W. Deem and Ramdas Pophale) SiO2 
 PCOD9325937
Probable space group: F 2 2 2
;
_chemical_formula_sum "Si O2"
_cell_formula_units_Z 96
_cell_length_a 17.657442
_cell_length_b 26.878582
_cell_length_c 10.205218
_cell_angle_alpha 90.000000
_cell_angle_beta 90.000000
_cell_angle_gamma 90.000000
_cell_volume 4843.467927
_symmetry_space_group_name_H-M "F 2 2 2"
_symmetry_group_IT_number 22
_symmetry_cell_setting 'orthorhombic'
loop_
_space_group_symop_operation_xyz
x,y,z
-x,-y,z
x,-y,-z
-x,y,-z
x,1/2+y,1/2+z
-x,1/2-y,1/2+z
x,1/2-y,1/2-z
-x,1/2+y,1/2-z
1/2+x,y,1/2+z
1/2-x,-y,1/2+z
1/2+x,-y,1/2-z
1/2-x,y,1/2-z
1/2+x,1/2+y,z
1/2-x,1/2-y,z
1/2+x,1/2-y,-z
1/2-x,1/2+y,-z
loop_
_atom_site_type_symbol
_atom_site_label
_atom_site_fract_x
_atom_site_fract_y
_atom_site_fract_z
Si Si1 0.589084 0.984061 0.861815
Si Si2 0.278262 0.306803 0.392759
Si Si3 0.545283 0.890143 0.725396
Si Si4 0.908159 0.957813 0.110561
Si Si5 0.853082 0.358802 0.512706
Si Si6 0.567360 0.692757 0.263901
O O1 0.589210 0.926125 0.824682
O O2 0.500000 0.000000 0.866085
O O3 0.620477 0.015000 0.740423
O O4 0.622813 0.000000 0.000000
O O5 0.250000 0.325781 0.250000
O O6 0.250000 0.250000 0.402308
O O7 0.231214 0.337333 0.498619
O O8 0.367838 0.308800 0.375462
O O9 0.485421 0.927237 0.649441
O O10 0.598294 0.863590 0.618891
O O11 0.496651 0.847353 0.793380
O O12 0.851959 0.915001 0.065025
O O13 0.917435 0.000000 0.000000
O O14 0.896702 0.325451 0.623384
O O15 0.542775 0.750000 0.250000
#
# Coordination Sequence:
#
# PCOD9325937 Si02
#       6
#    16  16  16  16  16  16
#     4   9  18  30  48  73 119 161 188 229 325 392
#     4   9  15  30  48  71 113 162 196 245 309 376
#     4  10  20  28  52  85 116 154 202 260 311 378
#     4  10  17  27  49  79 118 149 188 246 322 374
#     4  10  18  27  51  83 111 149 204 251 307 373
#     4  10  17  30  51  75 119 162 198 257 315 378
#
# _framework density 19.820509999999999
#
# number of rings (size 3 to 8) (size 9 to 14) (size 15 to 20)
#    0.000    2.333    5.000    2.000    4.667    0.000 
#    0.000    0.000   22.000    1.000    0.000   24.500 
#    0.000   27.667    0.000    0.000    0.000    0.000 
#
# Total GULP energy -133725.021762 kJ/mol
# GULP energy per Si atom -5571.875907 kJ/mol
# Density = 1.977540 g / cm^3
# Si number density = 19.820510 Si / 1000 Ang^3
#
#
#
# Elastic Constant Matrix: (Units=GPa)
#
#
# Indices 1 2 3 4 5 6 
#
# 1 53.7137 47.3854 30.9062 0.0000 0.0000 0.0000
# 2 47.3854 143.2884 44.9970 0.0000 0.0000 0.0000
# 3 30.9062 44.9970 79.4043 0.0000 0.0000 0.0000
# 4 0.0000 0.0000 0.0000 20.4175 0.0000 0.0000
# 5 0.0000 0.0000 0.0000 0.0000 6.1250 0.0000
# 6 0.0000 0.0000 0.0000 0.0000 0.0000 16.4551
#
#
#
# Elastic Compliance Matrix: (Units=1/GPa)
#
#
# Indices 1 2 3 4 5 6 
#
# 1 0.029318 -0.007435 -0.007198 0.000000 0.000000 0.000000
# 2 -0.007435 0.010375 -0.002986 0.000000 0.000000 0.000000
# 3 -0.007198 -0.002986 0.017087 0.000000 0.000000 0.000000
# 4 0.000000 0.000000 0.000000 0.048978 0.000000 0.000000
# 5 0.000000 0.000000 0.000000 0.000000 0.163265 0.000000
# 6 0.000000 0.000000 0.000000 0.000000 0.000000 0.060771
#
#
# Mechanical properties :
#
#
# Convention : Reuss Voigt Hill
#
# Bulk Modulus (GPa) = 46.41820 58.10931 52.26376
# Shear Modulus (GPa) = 13.43316 18.80738 16.12027
#
# Velocity S-wave (km/s) = 2.60617 3.08374 2.85496
# Velocity P-wave (km/s) = 5.70318 6.48542 6.10684
#
# Compressibility (1/GPa) = 0.02154327
#
# Stress axis : x y z
#
# Youngs Moduli (GPa) = 34.10884 96.38327 58.52305
#
# Poissons Ratio (x) = 0.71661 0.42125
# Poissons Ratio (y) = 0.25360 0.17472
# Poissons Ratio (z) = 0.24552 0.28776
#
# Static dielectric constant tensor:
#      x y z
#    x 1.768300 0.000000 0.000000 
#    y 0.000000 1.697100 0.000000 
#    z 0.000000 0.000000 1.735120 
# 
# From -- ./inp_files/12848.got.cif
#   From: 2010.05.17/outbox.cif.g08.bks.cpg/sg22_7_cif.got.tgz:12848.got - 2010.06.03 23:40:54.
