data_PCOD9325725
_publ_section_title
;
Structure prediction by ZEFSAII (Michael W. Deem and Ramdas Pophale) SiO2 
 PCOD9325725
Probable space group: C 2 2 2
;
_chemical_formula_sum "Si O2"
_cell_formula_units_Z 32
_cell_length_a 6.502328
_cell_length_b 13.417477
_cell_length_c 17.223707
_cell_angle_alpha 90.000000
_cell_angle_beta 90.000000
_cell_angle_gamma 90.000000
_cell_volume 1502.679499
_symmetry_space_group_name_H-M "C 2 2 2"
_symmetry_group_IT_number 21
_symmetry_cell_setting 'orthorhombic'
loop_
_space_group_symop_operation_xyz
x,y,z
-x,-y,z
x,-y,-z
-x,y,-z
1/2+x,1/2+y,z
1/2-x,1/2-y,z
1/2+x,1/2-y,-z
1/2-x,1/2+y,-z
loop_
_atom_site_type_symbol
_atom_site_label
_atom_site_fract_x
_atom_site_fract_y
_atom_site_fract_z
Si Si1 0.000000 0.000000 0.000000
Si Si2 0.202404 0.864629 0.129009
Si Si3 0.000000 0.500000 0.782476
Si Si4 0.848776 0.146992 0.742570
Si Si5 0.500000 0.000000 0.500000
Si Si6 0.116606 0.104934 0.426660
O O1 0.131355 0.071777 0.944553
O O2 0.250000 0.750000 0.111120
O O3 0.403136 0.915005 0.164407
O O4 0.029447 0.874197 0.196587
O O5 0.184638 0.556338 0.738681
O O6 0.750000 0.250000 0.770000
O O7 0.912991 0.162776 0.653247
O O8 0.652768 0.928453 0.450522
O O9 0.000000 0.153841 0.500000
O O10 0.000000 0.000000 0.414516
#
# Coordination Sequence:
#
# PCOD9325725 Si02
#       6
#     2   8   4   8   2   8
#     4  12  28  50  76 106 144 172 228 298 352 422
#     4  12  27  48  73 109 139 183 232 281 357 427
#     4  12  23  45  78 100 144 182 228 295 341 413
#     4  12  24  44  71 106 141 190 239 286 348 420
#     4   8  16  36  60  92 124 190 232 286 352 386
#     4   9  19  37  62  94 139 180 234 291 340 399
#
# _framework density 21.295293000000001
#
# number of rings (size 3 to 8) (size 9 to 14) (size 15 to 20)
#    0.000    1.250    5.000    2.250    0.000    5.500 
#    2.250    0.000    0.000    0.000    0.000    0.000 
#    0.000    0.000    0.000    0.000    0.000    0.000 
#
# Total GULP energy -89376.991508 kJ/mol
# GULP energy per Si atom -5586.061969 kJ/mol
# Density = 2.124682 g / cm^3
# Si number density = 21.295293 Si / 1000 Ang^3
#
#
#
# Elastic Constant Matrix: (Units=GPa)
#
#
# Indices 1 2 3 4 5 6 
#
# 1 94.4706 26.7332 49.1359 0.0000 0.0000 0.0000
# 2 26.7332 111.4979 29.8211 0.0000 0.0000 0.0000
# 3 49.1359 29.8211 145.8358 0.0000 0.0000 0.0000
# 4 0.0000 0.0000 0.0000 -23.0303 0.0000 0.0000
# 5 0.0000 0.0000 0.0000 0.0000 -1.0652 0.0000
# 6 0.0000 0.0000 0.0000 0.0000 0.0000 40.9712
#
#
#
# Elastic Compliance Matrix: (Units=1/GPa)
#
#
# Indices 1 2 3 4 5 6 
#
# 1 0.013285 -0.002103 -0.004046 0.000000 0.000000 0.000000
# 2 -0.002103 0.009821 -0.001300 0.000000 0.000000 0.000000
# 3 -0.004046 -0.001300 0.008486 0.000000 0.000000 0.000000
# 4 0.000000 0.000000 0.000000 -0.043421 0.000000 0.000000
# 5 0.000000 0.000000 0.000000 0.000000 -0.938763 0.000000
# 6 0.000000 0.000000 0.000000 0.000000 0.000000 0.024407
#
#
# Mechanical properties :
#
#
# Convention : Reuss Voigt Hill
#
# Bulk Modulus (GPa) = 59.90127 62.57609 61.23868
# Shear Modulus (GPa) = -5.52045 19.78274 7.13115
#
# Velocity S-wave (km/s) = -1.61182 3.05121 1.83193
# Velocity P-wave (km/s) = 4.97252 6.47008 5.77009
#
# Compressibility (1/GPa) = 0.01669414
#
# Stress axis : x y z
#
# Youngs Moduli (GPa) = 75.27389 101.82665 117.84177
#
# Poissons Ratio (x) = 0.21415 0.47678
# Poissons Ratio (y) = 0.15831 0.15314
# Poissons Ratio (z) = 0.30455 0.13233
#
# Static dielectric constant tensor:
#      x y z
#    x 1.877310 0.000000 0.000000 
#    y 0.000000 1.784140 0.000000 
#    z 0.000000 0.000000 1.790070 
# 
# From -- ./inp_files/34543.got.cif
#   From: 2010.05.17/outbox.cif.g08.bks.cpg/sg21_18_cif.got.tgz:34543.got - 2010.06.03 23:14:55.
