data_PCOD9325457
_publ_section_title
;
Structure prediction by ZEFSAII (Michael W. Deem and Ramdas Pophale) SiO2 
 PCOD9325457
Probable space group: C 2 2 2
;
_chemical_formula_sum "Si O2"
_cell_formula_units_Z 40
_cell_length_a 5.129320
_cell_length_b 25.037070
_cell_length_c 12.833568
_cell_angle_alpha 90.000000
_cell_angle_beta 90.000000
_cell_angle_gamma 90.000000
_cell_volume 1648.127150
_symmetry_space_group_name_H-M "C 2 2 2"
_symmetry_group_IT_number 21
_symmetry_cell_setting 'orthorhombic'
loop_
_space_group_symop_operation_xyz
x,y,z
-x,-y,z
x,-y,-z
-x,y,-z
1/2+x,1/2+y,z
1/2-x,1/2-y,z
1/2+x,1/2-y,-z
1/2-x,1/2+y,-z
loop_
_atom_site_type_symbol
_atom_site_label
_atom_site_fract_x
_atom_site_fract_y
_atom_site_fract_z
Si Si1 0.317557 0.352825 0.808515
Si Si2 0.091711 0.197210 0.380925
Si Si3 0.840058 0.418248 0.605232
Si Si4 0.672954 0.919942 0.172939
Si Si5 0.000000 0.783025 0.000000
Si Si6 0.000000 0.500000 0.000000
Si Si7 0.500000 0.500000 0.500000
O O1 0.362585 0.320765 0.699541
O O2 0.530359 0.401149 0.808025
O O3 0.416733 0.316767 0.901390
O O4 0.028381 0.370798 0.842411
O O5 0.250000 0.250000 0.346742
O O6 0.270832 0.144080 0.385289
O O7 0.000000 0.206361 0.500000
O O8 0.946769 0.437879 0.715439
O O9 0.603568 0.456685 0.582281
O O10 0.000000 0.426264 0.500000
O O11 0.656242 0.961208 0.078604
O O12 0.250000 0.750000 0.967289
#
# Coordination Sequence:
#
# PCOD9325457 Si02
#       7
#     8   8   8   8   4   2   2
#     4  11  25  48  69 103 143 191 237 309 369 445
#     4  11  23  42  70 106 150 193 248 308 378 448
#     4  11  25  45  71 107 143 201 251 311 372 458
#     4  11  27  45  74  99 148 184 248 303 375 442
#     4  12  24  41  72 101 136 183 244 291 356 438
#     4  12  28  48  74 114 140 202 248 322 384 456
#     4  12  26  44  76 104 152 184 266 298 376 452
#
# _framework density 24.269971999999999
#
# number of rings (size 3 to 8) (size 9 to 14) (size 15 to 20)
#    0.000    0.800    1.000    5.100    5.600    5.600 
#    0.000    0.000    0.000    0.000    0.000    0.000 
#    0.000    0.000    0.000    0.000    0.000    0.000 
#
# Total GULP energy -111696.631148 kJ/mol
# GULP energy per Si atom -5584.831557 kJ/mol
# Density = 2.421473 g / cm^3
# Si number density = 24.269972 Si / 1000 Ang^3
#
#
#
# Elastic Constant Matrix: (Units=GPa)
#
#
# Indices 1 2 3 4 5 6 
#
# 1 49.7007 10.1584 -2.1549 0.0000 0.0000 0.0000
# 2 10.1584 112.3599 32.1295 0.0000 0.0000 0.0000
# 3 -2.1549 32.1295 144.1532 0.0000 0.0000 0.0000
# 4 0.0000 0.0000 0.0000 39.6099 0.0000 0.0000
# 5 0.0000 0.0000 0.0000 0.0000 -587.7731 0.0000
# 6 0.0000 0.0000 0.0000 0.0000 0.0000 41.3046
#
#
#
# Elastic Compliance Matrix: (Units=1/GPa)
#
#
# Indices 1 2 3 4 5 6 
#
# 1 0.020579 -0.002081 0.000771 0.000000 0.000000 0.000000
# 2 -0.002081 0.009716 -0.002197 0.000000 0.000000 0.000000
# 3 0.000771 -0.002197 0.007438 0.000000 0.000000 0.000000
# 4 0.000000 0.000000 0.000000 0.025246 0.000000 0.000000
# 5 0.000000 0.000000 0.000000 0.000000 -0.001701 0.000000
# 6 0.000000 0.000000 0.000000 0.000000 0.000000 0.024210
#
#
# Mechanical properties :
#
#
# Convention : Reuss Voigt Hill
#
# Bulk Modulus (GPa) = 32.55104 42.94219 37.74661
# Shear Modulus (GPa) = 48.66552 -83.63301 -17.48375
#
# Velocity S-wave (km/s) = 4.48277 -5.87659 -2.68691
# Velocity P-wave (km/s) = 6.34310 5.32106 2.44143
#
# Compressibility (1/GPa) = 0.03072098
#
# Stress axis : x y z
#
# Youngs Moduli (GPa) = 48.59258 102.91995 134.44086
#
# Poissons Ratio (x) = 0.21419 -0.10372
# Poissons Ratio (y) = 0.10113 0.29533
# Poissons Ratio (z) = -0.03749 0.22609
#
# Static dielectric constant tensor:
#      x y z
#    x 1.998700 0.000000 0.000000 
#    y 0.000000 2.339940 0.000000 
#    z 0.000000 0.000000 1.946180 
# 
# From -- ./inp_files/21266.got.cif
#   From: 2010.05.17/outbox.cif.g08.bks.cpg/sg21_11_cif.got.tgz:21266.got - 2010.06.03 23:14:55.
