data_PCOD9325846
_publ_section_title
;
Structure prediction by ZEFSAII (Michael W. Deem and Ramdas Pophale) SiO2 
 PCOD9325846
Probable space group: C 2 2 2
;
_chemical_formula_sum "Si O2"
_cell_formula_units_Z 20
_cell_length_a 15.000000
_cell_length_b 9.000000
_cell_length_c 15.000000
_cell_angle_alpha 90.000000
_cell_angle_beta 90.000000
_cell_angle_gamma 90.000000
_cell_volume 2025.000000
_symmetry_space_group_name_H-M "C 2 2 2"
_symmetry_group_IT_number 21
_symmetry_cell_setting 'orthorhombic'
loop_
_space_group_symop_operation_xyz
x,y,z
-x,-y,z
x,-y,-z
-x,y,-z
1/2+x,1/2+y,z
1/2-x,1/2-y,z
1/2+x,1/2-y,-z
1/2-x,1/2+y,-z
loop_
_atom_site_type_symbol
_atom_site_label
_atom_site_fract_x
_atom_site_fract_y
_atom_site_fract_z
Si Si1 0.083004 0.884543 0.247145
Si Si2 0.347652 0.191060 0.918414
Si Si3 0.348716 0.308907 0.269832
Si Si4 0.493393 0.178758 0.392947
Si Si5 0.587227 0.891944 0.110040
O O1 0.107012 0.791935 0.158272
O O2 0.062509 0.771862 0.329428
O O3 0.155190 0.011922 0.268131
O O4 0.000000 0.000000 0.235718
O O5 0.250000 0.250000 0.938368
O O6 0.338498 0.021109 0.884512
O O7 0.401129 0.180565 0.012206
O O8 0.250000 0.250000 0.266398
O O9 0.400712 0.245794 0.355924
O O10 0.400590 0.230538 0.186037
O O11 0.500000 0.202644 0.500000
O O12 0.500000 0.000000 0.376540
O O13 0.500000 0.000000 0.118637
#
# Coordination Sequence:
#
# PCOD9325846 Si02
#       5
#     8   8   8   8   8
#     4  10  22  38  61  87 117 158 198 248 305 366
#     4  11  22  37  56  84 117 156 201 249 298 353
#     4  11  22  39  63  94 124 156 202 262 313 364
#     4  10  22  43  66  87 119 162 204 247 310 386
#     4  11  23  40  60  81 119 169 207 246 305 374
#
# _framework density 9.8765429999999999
#
# number of rings (size 3 to 8) (size 9 to 14) (size 15 to 20)
#    0.000    1.400    0.000    7.200    0.000    6.800 
#    0.000    8.000    0.000    0.000    0.000    0.000 
#    0.000    0.000    0.000    0.000    0.000    0.000 
#
# Total GULP energy -111554.086920 kJ/mol
# GULP energy per Si atom -5577.704346 kJ/mol
# Density = 0.985406 g / cm^3
# Si number density = 9.876543 Si / 1000 Ang^3
#
#
#
# Elastic Constant Matrix: (Units=GPa)
#
#
# Indices 1 2 3 4 5 6 
#
# 1 95.1554 38.9028 45.6552 0.0000 0.0000 0.0000
# 2 38.9028 171.6564 92.7435 0.0000 0.0000 0.0000
# 3 45.6552 92.7435 180.3327 0.0000 0.0000 0.0000
# 4 0.0000 0.0000 0.0000 40.9430 0.0000 0.0000
# 5 0.0000 0.0000 0.0000 0.0000 22.8868 0.0000
# 6 0.0000 0.0000 0.0000 0.0000 0.0000 32.9322
#
#
#
# Elastic Compliance Matrix: (Units=1/GPa)
#
#
# Indices 1 2 3 4 5 6 
#
# 1 0.012243 -0.001523 -0.002316 0.000000 0.000000 0.000000
# 2 -0.001523 0.008257 -0.003861 0.000000 0.000000 0.000000
# 3 -0.002316 -0.003861 0.008117 0.000000 0.000000 0.000000
# 4 0.000000 0.000000 0.000000 0.024424 0.000000 0.000000
# 5 0.000000 0.000000 0.000000 0.000000 0.043693 0.000000
# 6 0.000000 0.000000 0.000000 0.000000 0.000000 0.030365
#
#
# Mechanical properties :
#
#
# Convention : Reuss Voigt Hill
#
# Bulk Modulus (GPa) = 75.66167 89.08307 82.37237
# Shear Modulus (GPa) = 34.03538 37.34194 35.68866
#
# Velocity S-wave (km/s) = 4.15546 4.35263 4.25519
# Velocity P-wave (km/s) = 7.83649 8.39385 8.11996
#
# Compressibility (1/GPa) = 0.01321673
#
# Stress axis : x y z
#
# Youngs Moduli (GPa) = 81.67794 121.11390 123.19468
#
# Poissons Ratio (x) = 0.18449 0.28535
# Poissons Ratio (y) = 0.12442 0.47562
# Poissons Ratio (z) = 0.18918 0.46758
#
# Static dielectric constant tensor:
#      x y z
#    x 1.835420 0.000000 0.000000 
#    y 0.000000 1.731870 0.000000 
#    z 0.000000 0.000000 1.674580 
# 
# From -- ./inp_files/32095.got.cif
#   From: 2010.05.17/outbox.ucp.g08.bks.cvg/sg21_17_cif.got.tgz:32095.got - 2010.06.11 15:15:05.
