data_PCOD9325411
_publ_section_title
;
Structure prediction by ZEFSAII (Michael W. Deem and Ramdas Pophale) SiO2 
 PCOD9325411
Probable space group: C 2 2 2
;
_chemical_formula_sum "Si O2"
_cell_formula_units_Z 48
_cell_length_a 16.214045
_cell_length_b 15.085886
_cell_length_c 8.184558
_cell_angle_alpha 90.000000
_cell_angle_beta 90.000000
_cell_angle_gamma 90.000000
_cell_volume 2001.969359
_symmetry_space_group_name_H-M "C 2 2 2"
_symmetry_group_IT_number 21
_symmetry_cell_setting 'orthorhombic'
loop_
_space_group_symop_operation_xyz
x,y,z
-x,-y,z
x,-y,-z
-x,y,-z
1/2+x,1/2+y,z
1/2-x,1/2-y,z
1/2+x,1/2-y,-z
1/2-x,1/2+y,-z
loop_
_atom_site_type_symbol
_atom_site_label
_atom_site_fract_x
_atom_site_fract_y
_atom_site_fract_z
Si Si1 0.120058 0.525761 0.751596
Si Si2 0.608233 0.254572 0.184992
Si Si3 0.512784 0.395850 0.694938
Si Si4 0.592322 0.141449 0.460277
Si Si5 0.000000 0.621698 0.000000
Si Si6 0.320197 0.684049 0.856043
Si Si7 0.251714 0.500000 0.000000
O O1 0.136096 0.604675 0.623165
O O2 0.079868 0.447375 0.647909
O O3 0.066496 0.432503 0.103871
O O4 0.196452 0.479186 0.840661
O O5 0.562820 0.345939 0.219326
O O6 0.641515 0.213100 0.353153
O O7 0.538615 0.184867 0.134471
O O8 0.657943 0.260562 0.018975
O O9 0.500000 0.500000 0.737733
O O10 0.500000 0.388963 0.500000
O O11 0.598276 0.345855 0.750735
O O12 0.500000 0.175636 0.500000
O O13 0.250000 0.750000 0.778266
O O14 0.293340 0.589401 0.934287
#
# Coordination Sequence:
#
# PCOD9325411 Si02
#       7
#     8   8   8   8   4   8   4
#     4  11  24  39  62 106 149 196 235 295 376 462
#     4  12  24  42  74 103 137 193 255 318 377 455
#     4  11  26  50  80 109 142 199 269 333 390 470
#     4  11  23  38  63 104 148 181 234 310 374 440
#     4  12  22  37  67 106 138 188 247 308 350 453
#     4  12  26  49  73 113 152 200 264 332 397 466
#     4  12  28  43  73  98 156 204 246 304 396 472
#
# _framework density 23.976392000000001
#
# number of rings (size 3 to 8) (size 9 to 14) (size 15 to 20)
#    0.000    0.500    3.333    5.500    2.333    1.333 
#    0.000    9.167    0.000    6.000    0.000    0.000 
#    0.000    0.000    0.000    0.000    0.000    0.000 
#
# Total GULP energy -133958.991910 kJ/mol
# GULP energy per Si atom -5581.624663 kJ/mol
# Density = 2.392182 g / cm^3
# Si number density = 23.976392 Si / 1000 Ang^3
#
#
#
# Elastic Constant Matrix: (Units=GPa)
#
#
# Indices 1 2 3 4 5 6 
#
# 1 52.5276 35.3613 24.3281 0.0000 0.0000 0.0000
# 2 35.3613 130.1278 45.6077 0.0000 0.0000 0.0000
# 3 24.3281 45.6077 117.0811 0.0000 0.0000 0.0000
# 4 0.0000 0.0000 0.0000 49.5659 0.0000 0.0000
# 5 0.0000 0.0000 0.0000 0.0000 19.2110 0.0000
# 6 0.0000 0.0000 0.0000 0.0000 0.0000 35.8572
#
#
#
# Elastic Compliance Matrix: (Units=1/GPa)
#
#
# Indices 1 2 3 4 5 6 
#
# 1 0.024091 -0.005550 -0.002844 0.000000 0.000000 0.000000
# 2 -0.005550 0.010178 -0.002812 0.000000 0.000000 0.000000
# 3 -0.002844 -0.002812 0.010227 0.000000 0.000000 0.000000
# 4 0.000000 0.000000 0.000000 0.020175 0.000000 0.000000
# 5 0.000000 0.000000 0.000000 0.000000 0.052054 0.000000
# 6 0.000000 0.000000 0.000000 0.000000 0.000000 0.027888
#
#
# Mechanical properties :
#
#
# Convention : Reuss Voigt Hill
#
# Bulk Modulus (GPa) = 45.27821 56.70343 50.99082
# Shear Modulus (GPa) = 28.67198 33.88944 31.28071
#
# Velocity S-wave (km/s) = 3.46185 3.76367 3.61591
# Velocity P-wave (km/s) = 5.90802 6.52594 6.22465
#
# Compressibility (1/GPa) = 0.02208568
#
# Stress axis : x y z
#
# Youngs Moduli (GPa) = 41.50949 98.24816 97.77766
#
# Poissons Ratio (x) = 0.54525 0.27808
# Poissons Ratio (y) = 0.23037 0.27492
# Poissons Ratio (z) = 0.11805 0.27624
#
# Static dielectric constant tensor:
#      x y z
#    x 2.056920 0.000000 0.000000 
#    y 0.000000 2.052220 0.000000 
#    z 0.000000 0.000000 2.097600 
# 
# From -- ./inp_files/16457.got.cif
#   From: 2010.05.17/outbox.cif.g08.bks.cpg/sg21_9_cif.got.tgz:16457.got - 2010.06.03 23:14:55.
