data_PCOD9325278
_publ_section_title
;
Structure prediction by ZEFSAII (Michael W. Deem and Ramdas Pophale) SiO2 
 PCOD9325278
Probable space group: C 2 2 2
;
_chemical_formula_sum "Si O2"
_cell_formula_units_Z 58
_cell_length_a 14.345933
_cell_length_b 23.748805
_cell_length_c 7.742948
_cell_angle_alpha 90.000000
_cell_angle_beta 90.000000
_cell_angle_gamma 90.000000
_cell_volume 2638.012824
_symmetry_space_group_name_H-M "C 2 2 2"
_symmetry_group_IT_number 21
_symmetry_cell_setting 'orthorhombic'
loop_
_space_group_symop_operation_xyz
x,y,z
-x,-y,z
x,-y,-z
-x,y,-z
1/2+x,1/2+y,z
1/2-x,1/2-y,z
1/2+x,1/2-y,-z
1/2-x,1/2+y,-z
loop_
_atom_site_type_symbol
_atom_site_label
_atom_site_fract_x
_atom_site_fract_y
_atom_site_fract_z
Si Si1 0.799292 0.887898 0.187580
Si Si2 0.478040 0.201340 0.705520
Si Si3 0.107938 0.396390 0.321162
Si Si4 0.606322 0.500524 0.788991
Si Si5 0.957634 0.180858 0.693480
Si Si6 0.783687 0.310376 0.415917
Si Si7 0.500000 0.000000 0.500000
Si Si8 0.864233 0.877865 0.797434
O O1 0.689797 0.899597 0.182849
O O2 0.851070 0.838837 0.295429
O O3 0.841791 0.944859 0.265902
O O4 0.832817 0.876361 0.994446
O O5 0.500000 0.204341 0.500000
O O6 0.524873 0.142410 0.753051
O O7 0.527184 0.257405 0.774548
O O8 0.367258 0.203763 0.719790
O O9 0.165035 0.357684 0.463801
O O10 0.065506 0.455029 0.393603
O O11 0.500000 0.500000 0.731524
O O12 0.650762 0.558777 0.731606
O O13 0.606944 0.500000 0.000000
O O14 0.026585 0.137386 0.788464
O O15 0.000000 0.180744 0.500000
O O16 0.750000 0.250000 0.492053
O O17 0.696987 0.336482 0.316204
#
# Coordination Sequence:
#
# PCOD9325278 Si02
#       8
#     8   8   8   8   8   8   2   8
#     4  11  24  39  61  96 127 172 217 263 338 402
#     4   9  20  40  60  86 125 169 211 259 334 384
#     4  11  25  43  68  96 127 175 225 283 339 391
#     4   9  18  36  57  78 123 168 196 247 328 392
#     4  11  21  38  63  94 128 171 213 262 322 400
#     4  11  21  41  67  93 126 173 215 269 336 406
#     4  12  24  48  72  94 138 168 244 308 324 388
#     4  11  22  39  61  92 134 168 212 268 326 402
#
# _framework density 21.986245
#
# number of rings (size 3 to 8) (size 9 to 14) (size 15 to 20)
#    0.000    1.517    4.828    1.241    5.793    0.000 
#    2.483    1.379    0.000    0.828    0.000    0.000 
#    0.000    0.000    0.000    0.000    0.000    0.000 
#
# Total GULP energy -161742.665674 kJ/mol
# GULP energy per Si atom -5577.333299 kJ/mol
# Density = 2.193620 g / cm^3
# Si number density = 21.986245 Si / 1000 Ang^3
#
#
#
# Elastic Constant Matrix: (Units=GPa)
#
#
# Indices 1 2 3 4 5 6 
#
# 1 99.0133 27.4743 7.7174 0.0000 0.0000 0.0000
# 2 27.4743 144.2040 14.2191 0.0000 0.0000 0.0000
# 3 7.7174 14.2191 45.3385 0.0000 0.0000 0.0000
# 4 0.0000 0.0000 0.0000 7.7631 0.0000 0.0000
# 5 0.0000 0.0000 0.0000 0.0000 24.6150 0.0000
# 6 0.0000 0.0000 0.0000 0.0000 0.0000 38.7496
#
#
#
# Elastic Compliance Matrix: (Units=1/GPa)
#
#
# Indices 1 2 3 4 5 6 
#
# 1 0.010729 -0.001923 -0.001223 0.000000 0.000000 0.000000
# 2 -0.001923 0.007501 -0.002025 0.000000 0.000000 0.000000
# 3 -0.001223 -0.002025 0.022900 0.000000 0.000000 0.000000
# 4 0.000000 0.000000 0.000000 0.128815 0.000000 0.000000
# 5 0.000000 0.000000 0.000000 0.000000 0.040626 0.000000
# 6 0.000000 0.000000 0.000000 0.000000 0.000000 0.025807
#
#
# Mechanical properties :
#
#
# Convention : Reuss Voigt Hill
#
# Bulk Modulus (GPa) = 32.48215 43.04194 37.76205
# Shear Modulus (GPa) = 19.45668 30.16854 24.81261
#
# Velocity S-wave (km/s) = 2.97803 3.70828 3.36304
# Velocity P-wave (km/s) = 5.16051 6.16071 5.68266
#
# Compressibility (1/GPa) = 0.03078614
#
# Stress axis : x y z
#
# Youngs Moduli (GPa) = 93.20787 133.31977 43.66895
#
# Poissons Ratio (x) = 0.25644 0.05341
# Poissons Ratio (y) = 0.17928 0.08843
# Poissons Ratio (z) = 0.11399 0.26997
#
# Static dielectric constant tensor:
#      x y z
#    x 1.874080 0.000000 0.000000 
#    y 0.000000 1.872030 0.000000 
#    z 0.000000 0.000000 1.867170 
# 
# From -- ./inp_files/15443.got.cif
#   From: 2010.05.17/outbox.cif.g08.bks.cpg/sg21_8_cif.got.tgz:15443.got - 2010.06.03 23:14:55.
