data_PCOD9325473
_publ_section_title
;
Structure prediction by ZEFSAII (Michael W. Deem and Ramdas Pophale) SiO2 
 PCOD9325473
Probable space group: C 2 2 2
;
_chemical_formula_sum "Si O2"
_cell_formula_units_Z 52
_cell_length_a 29.193253
_cell_length_b 7.435294
_cell_length_c 9.868675
_cell_angle_alpha 90.000000
_cell_angle_beta 90.000000
_cell_angle_gamma 90.000000
_cell_volume 2142.098729
_symmetry_space_group_name_H-M "C 2 2 2"
_symmetry_group_IT_number 21
_symmetry_cell_setting 'orthorhombic'
loop_
_space_group_symop_operation_xyz
x,y,z
-x,-y,z
x,-y,-z
-x,y,-z
1/2+x,1/2+y,z
1/2-x,1/2-y,z
1/2+x,1/2-y,-z
1/2-x,1/2+y,-z
loop_
_atom_site_type_symbol
_atom_site_label
_atom_site_fract_x
_atom_site_fract_y
_atom_site_fract_z
Si Si1 0.593845 0.740014 0.782402
Si Si2 0.406105 0.600864 0.634594
Si Si3 0.854045 0.581367 0.306146
Si Si4 0.747605 0.960958 0.350616
Si Si5 0.250000 0.750000 0.134682
Si Si6 0.841242 0.215604 0.980389
Si Si7 0.997442 0.287641 0.663815
O O1 0.615554 0.555319 0.725534
O O2 0.613430 0.763178 0.932607
O O3 0.540471 0.712802 0.747747
O O4 0.610104 0.920621 0.707815
O O5 0.421473 0.500000 0.500000
O O6 0.371917 0.761376 0.596664
O O7 0.449412 0.697963 0.703772
O O8 0.806420 0.496820 0.349952
O O9 0.847182 0.692335 0.165714
O O10 0.750000 0.750000 0.320653
O O11 0.767025 0.000000 0.500000
O O12 0.765730 0.087381 0.232570
O O13 0.205474 0.705440 0.045842
O O14 0.836426 0.000000 0.000000
O O15 0.000000 0.500000 0.687252
O O16 0.000000 0.262314 0.500000
#
# Coordination Sequence:
#
# PCOD9325473 Si02
#       7
#     8   8   8   8   4   8   8
#     4  12  25  45  73 105 149 192 245 311 372 440
#     4  12  26  44  74 112 149 194 248 308 376 457
#     4  12  28  48  73 109 149 199 252 311 379 450
#     4  12  28  48  74 109 155 192 245 312 388 455
#     4  12  28  50  80 110 144 202 256 312 380 452
#     4  12  27  50  77 107 145 195 264 312 372 454
#     4  11  23  43  73 107 148 191 244 302 373 451
#
# _framework density 24.275258000000001
#
# number of rings (size 3 to 8) (size 9 to 14) (size 15 to 20)
#    0.000    0.154    6.923    1.846    5.385    0.615 
#    0.000    0.769    0.000    0.000    0.000    0.000 
#    0.000    0.000    0.000    0.000    0.000    0.000 
#
# Total GULP energy -145525.136712 kJ/mol
# GULP energy per Si atom -5597.120643 kJ/mol
# Density = 2.422001 g / cm^3
# Si number density = 24.275258 Si / 1000 Ang^3
#
#
#
# Elastic Constant Matrix: (Units=GPa)
#
#
# Indices 1 2 3 4 5 6 
#
# 1 91.0757 -3.5489 23.8398 0.0000 0.0000 0.0000
# 2 -3.5489 139.0447 28.9603 0.0000 0.0000 0.0000
# 3 23.8398 28.9603 94.3877 0.0000 0.0000 0.0000
# 4 0.0000 0.0000 0.0000 35.1235 0.0000 0.0000
# 5 0.0000 0.0000 0.0000 0.0000 14.4116 0.0000
# 6 0.0000 0.0000 0.0000 0.0000 0.0000 36.4599
#
#
#
# Elastic Compliance Matrix: (Units=1/GPa)
#
#
# Indices 1 2 3 4 5 6 
#
# 1 0.011884 0.000992 -0.003306 0.000000 0.000000 0.000000
# 2 0.000992 0.007766 -0.002633 0.000000 0.000000 0.000000
# 3 -0.003306 -0.002633 0.012237 0.000000 0.000000 0.000000
# 4 0.000000 0.000000 0.000000 0.028471 0.000000 0.000000
# 5 0.000000 0.000000 0.000000 0.000000 0.069388 0.000000
# 6 0.000000 0.000000 0.000000 0.000000 0.000000 0.027427
#
#
# Mechanical properties :
#
#
# Convention : Reuss Voigt Hill
#
# Bulk Modulus (GPa) = 45.46978 47.00117 46.23548
# Shear Modulus (GPa) = 28.66988 35.54947 32.10968
#
# Velocity S-wave (km/s) = 3.44034 3.83094 3.64088
# Velocity P-wave (km/s) = 5.87817 6.24275 6.06320
#
# Compressibility (1/GPa) = 0.02199263
#
# Stress axis : x y z
#
# Youngs Moduli (GPa) = 84.14768 128.77157 81.71605
#
# Poissons Ratio (x) = -0.12772 0.27014
# Poissons Ratio (y) = -0.08346 0.21517
# Poissons Ratio (z) = 0.27818 0.33908
#
# Static dielectric constant tensor:
#      x y z
#    x 1.958110 0.000000 0.000000 
#    y 0.000000 1.955810 0.000000 
#    z 0.000000 0.000000 1.956130 
# 
# From -- ./inp_files/27778.got.cif
#   From: 2010.05.17/outbox.cif.g08.bks.cpg/sg21_14_cif.got.tgz:27778.got - 2010.06.03 23:14:55.
