data_PCOD9325909
_publ_section_title
;
Structure prediction by ZEFSAII (Michael W. Deem and Ramdas Pophale) SiO2 
 PCOD9325909
Probable space group: F 2 2 2
;
_chemical_formula_sum "Si O2"
_cell_formula_units_Z 96
_cell_length_a 15.147483
_cell_length_b 13.433568
_cell_length_c 22.353516
_cell_angle_alpha 90.000000
_cell_angle_beta 90.000000
_cell_angle_gamma 90.000000
_cell_volume 4548.599456
_symmetry_space_group_name_H-M "F 2 2 2"
_symmetry_group_IT_number 22
_symmetry_cell_setting 'orthorhombic'
loop_
_space_group_symop_operation_xyz
x,y,z
-x,-y,z
x,-y,-z
-x,y,-z
x,1/2+y,1/2+z
-x,1/2-y,1/2+z
x,1/2-y,1/2-z
-x,1/2+y,1/2-z
1/2+x,y,1/2+z
1/2-x,-y,1/2+z
1/2+x,-y,1/2-z
1/2-x,y,1/2-z
1/2+x,1/2+y,z
1/2-x,1/2-y,z
1/2+x,1/2-y,-z
1/2-x,1/2+y,-z
loop_
_atom_site_type_symbol
_atom_site_label
_atom_site_fract_x
_atom_site_fract_y
_atom_site_fract_z
Si Si1 0.228457 0.133916 0.878597
Si Si2 0.889071 0.624379 0.962010
Si Si3 0.331102 0.678611 0.913562
Si Si4 0.771729 0.942999 0.317624
Si Si5 0.405891 0.863978 0.473009
Si Si6 0.071426 0.875926 0.596938
O O1 0.250000 0.250000 0.865505
O O2 0.296786 0.106282 0.931234
O O3 0.132743 0.111610 0.908061
O O4 0.251393 0.059558 0.825671
O O5 0.900467 0.743420 0.971209
O O6 0.967452 0.602146 0.913643
O O7 0.895206 0.588120 0.030898
O O8 0.250000 0.750000 0.929976
O O9 0.298651 0.616577 0.857747
O O10 0.410713 0.755868 0.900062
O O11 0.345887 0.608905 0.970175
O O12 0.750000 0.913078 0.250000
O O13 0.867329 0.918139 0.349112
O O14 0.500000 0.892281 0.500000
#
# Coordination Sequence:
#
# PCOD9325909 Si02
#       6
#    16  16  16  16  16  16
#     4  10  22  37  60  82 115 158 206 256 313 358
#     4   9  16  34  62  96 122 146 187 248 325 375
#     4   9  17  32  57  88 121 147 181 240 312 364
#     4  11  24  39  56  81 121 169 219 250 286 361
#     4  10  16  32  62  91 121 149 180 242 317 385
#     4   9  17  33  63  92 123 149 183 254 315 371
#
# _framework density 21.105398000000001
#
# number of rings (size 3 to 8) (size 9 to 14) (size 15 to 20)
#    0.000    2.333    3.333    3.500    0.000    6.667 
#    0.000    3.333    7.333    2.000    0.000    0.000 
#    0.000    0.000    0.000    0.000    0.000    0.000 
#
# Total GULP energy -133656.799756 kJ/mol
# GULP energy per Si atom -5569.033323 kJ/mol
# Density = 2.105736 g / cm^3
# Si number density = 21.105398 Si / 1000 Ang^3
#
#
#
# Elastic Constant Matrix: (Units=GPa)
#
#
# Indices 1 2 3 4 5 6 
#
# 1 68.0018 6.9533 30.6096 0.0000 0.0000 0.0000
# 2 6.9533 63.2236 19.8961 0.0000 0.0000 0.0000
# 3 30.6096 19.8961 111.8418 0.0000 0.0000 0.0000
# 4 0.0000 0.0000 0.0000 21.9976 0.0000 0.0000
# 5 0.0000 0.0000 0.0000 0.0000 22.8809 0.0000
# 6 0.0000 0.0000 0.0000 0.0000 0.0000 15.5146
#
#
#
# Elastic Compliance Matrix: (Units=1/GPa)
#
#
# Indices 1 2 3 4 5 6 
#
# 1 0.016782 -0.000424 -0.004518 0.000000 0.000000 0.000000
# 2 -0.000424 0.016766 -0.002866 0.000000 0.000000 0.000000
# 3 -0.004518 -0.002866 0.010688 0.000000 0.000000 0.000000
# 4 0.000000 0.000000 0.000000 0.045460 0.000000 0.000000
# 5 0.000000 0.000000 0.000000 0.000000 0.043705 0.000000
# 6 0.000000 0.000000 0.000000 0.000000 0.000000 0.064455
#
#
# Mechanical properties :
#
#
# Convention : Reuss Voigt Hill
#
# Bulk Modulus (GPa) = 34.94163 39.77616 37.35889
# Shear Modulus (GPa) = 22.42040 24.45249 23.43645
#
# Velocity S-wave (km/s) = 3.26284 3.40750 3.33595
# Velocity P-wave (km/s) = 5.54856 5.86249 5.70768
#
# Compressibility (1/GPa) = 0.02861916
#
# Stress axis : x y z
#
# Youngs Moduli (GPa) = 59.58629 59.64603 93.56673
#
# Poissons Ratio (x) = 0.02529 0.42270
# Poissons Ratio (y) = 0.02527 0.26821
# Poissons Ratio (z) = 0.26919 0.17097
#
# Static dielectric constant tensor:
#      x y z
#    x 1.880710 0.000000 0.000000 
#    y 0.000000 1.924540 0.000000 
#    z 0.000000 0.000000 1.727300 
# 
# From -- ./inp_files/43472.got.cif
#   From: 2010.05.17/outbox.cif.g08.bks.cpg/sg22_22_cif.got.tgz:43472.got - 2010.06.03 23:40:54.
