data_PCOD9325424
_publ_section_title
;
Structure prediction by ZEFSAII (Michael W. Deem and Ramdas Pophale) SiO2 
 PCOD9325424
Probable space group: C 2 2 2
;
_chemical_formula_sum "Si O2"
_cell_formula_units_Z 28
_cell_length_a 9.271146
_cell_length_b 12.965481
_cell_length_c 11.040757
_cell_angle_alpha 90.000000
_cell_angle_beta 90.000000
_cell_angle_gamma 90.000000
_cell_volume 1327.152730
_symmetry_space_group_name_H-M "C 2 2 2"
_symmetry_group_IT_number 21
_symmetry_cell_setting 'orthorhombic'
loop_
_space_group_symop_operation_xyz
x,y,z
-x,-y,z
x,-y,-z
-x,y,-z
1/2+x,1/2+y,z
1/2-x,1/2-y,z
1/2+x,1/2-y,-z
1/2-x,1/2+y,-z
loop_
_atom_site_type_symbol
_atom_site_label
_atom_site_fract_x
_atom_site_fract_y
_atom_site_fract_z
Si Si1 0.530362 0.236147 0.139207
Si Si2 0.750000 0.750000 0.299410
Si Si3 0.663653 0.459223 0.623425
Si Si4 0.723983 0.434942 0.129768
O O1 0.385900 0.220492 0.215338
O O2 0.589549 0.354576 0.144983
O O3 0.646228 0.145282 0.157203
O O4 0.500000 0.223178 0.000000
O O5 0.682980 0.661976 0.382010
O O6 0.500000 0.500000 0.623212
O O7 0.734968 0.500000 0.500000
O O8 0.722471 0.489794 0.755517
O O9 0.726389 0.500000 0.000000
#
# Coordination Sequence:
#
# PCOD9325424 Si02
#       4
#     8   4   8   8
#     4  11  23  40  66 104 139 183 230 290 349 423
#     4  12  24  44  72 102 136 184 244 280 354 432
#     4  11  25  47  70 100 139 185 228 291 361 412
#     4  11  24  43  69 100 141 180 233 287 354 414
#
# _framework density 21.097799999999999
#
# number of rings (size 3 to 8) (size 9 to 14) (size 15 to 20)
#    0.000    0.857    2.857    5.143    0.000    6.286 
#    0.000    2.857    0.000    0.000    0.000    0.000 
#    0.000    0.000    0.000    0.000    0.000    0.000 
#
# Total GULP energy -77993.650277 kJ/mol
# GULP energy per Si atom -5570.975020 kJ/mol
# Density = 2.104978 g / cm^3
# Si number density = 21.097800 Si / 1000 Ang^3
#
#
#
# Elastic Constant Matrix: (Units=GPa)
#
#
# Indices 1 2 3 4 5 6 
#
# 1 85.7423 41.3034 13.7386 0.0000 0.0000 0.0000
# 2 41.3034 126.2338 38.6460 0.0000 0.0000 0.0000
# 3 13.7386 38.6460 131.4187 0.0000 0.0000 0.0000
# 4 0.0000 0.0000 0.0000 -251.9354 0.0000 0.0000
# 5 0.0000 0.0000 0.0000 0.0000 46.4874 0.0000
# 6 0.0000 0.0000 0.0000 0.0000 0.0000 30.9896
#
#
#
# Elastic Compliance Matrix: (Units=1/GPa)
#
#
# Indices 1 2 3 4 5 6 
#
# 1 0.013847 -0.004492 -0.000127 0.000000 0.000000 0.000000
# 2 -0.004492 0.010163 -0.002519 0.000000 0.000000 0.000000
# 3 -0.000127 -0.002519 0.008363 0.000000 0.000000 0.000000
# 4 0.000000 0.000000 0.000000 -0.003969 0.000000 0.000000
# 5 0.000000 0.000000 0.000000 0.000000 0.021511 0.000000
# 6 0.000000 0.000000 0.000000 0.000000 0.000000 0.032269
#
#
# Mechanical properties :
#
#
# Convention : Reuss Voigt Hill
#
# Bulk Modulus (GPa) = 55.25494 58.97453 57.11473
# Shear Modulus (GPa) = 48.78456 -18.24456 15.27000
#
# Velocity S-wave (km/s) = 4.81386 -2.94387 2.69322
# Velocity P-wave (km/s) = 7.55939 4.05690 6.06642
#
# Compressibility (1/GPa) = 0.01809793
#
# Stress axis : x y z
#
# Youngs Moduli (GPa) = 72.21787 98.39876 119.57083
#
# Poissons Ratio (x) = 0.44200 0.01514
# Poissons Ratio (y) = 0.32440 0.30119
# Poissons Ratio (z) = 0.00915 0.24786
#
# Static dielectric constant tensor:
#      x y z
#    x 1.810290 0.000000 0.000000 
#    y 0.000000 1.664820 0.000000 
#    z 0.000000 0.000000 1.767720 
# 
# From -- ./inp_files/23359.got.cif
#   From: 2010.05.17/outbox.cif.g08.bks.cpg/sg21_12_cif.got.tgz:23359.got - 2010.06.03 23:14:55.
