data_PCOD9325314
_publ_section_title
;
Structure prediction by ZEFSAII (Michael W. Deem and Ramdas Pophale) SiO2 
 PCOD9325314
Probable space group: C 2 2 2
;
_chemical_formula_sum "Si O2"
_cell_formula_units_Z 48
_cell_length_a 9.752753
_cell_length_b 28.203271
_cell_length_c 8.310882
_cell_angle_alpha 90.000000
_cell_angle_beta 90.000000
_cell_angle_gamma 90.000000
_cell_volume 2285.987345
_symmetry_space_group_name_H-M "C 2 2 2"
_symmetry_group_IT_number 21
_symmetry_cell_setting 'orthorhombic'
loop_
_space_group_symop_operation_xyz
x,y,z
-x,-y,z
x,-y,-z
-x,y,-z
1/2+x,1/2+y,z
1/2-x,1/2-y,z
1/2+x,1/2-y,-z
1/2-x,1/2+y,-z
loop_
_atom_site_type_symbol
_atom_site_label
_atom_site_fract_x
_atom_site_fract_y
_atom_site_fract_z
Si Si1 0.211920 0.891035 0.324507
Si Si2 0.342442 0.496290 0.695545
Si Si3 0.792069 0.405719 0.696664
Si Si4 0.049195 0.846889 0.820699
Si Si5 0.087026 0.251003 0.340005
Si Si6 0.472801 0.152116 0.810800
O O1 0.256106 0.895046 0.510509
O O2 0.314459 0.855838 0.233032
O O3 0.058095 0.871992 0.300322
O O4 0.214856 0.944896 0.259140
O O5 0.500000 0.500000 0.752401
O O6 0.347085 0.500000 0.500000
O O7 0.252263 0.541322 0.743572
O O8 0.696968 0.369879 0.795844
O O9 0.947370 0.392605 0.734092
O O10 0.056544 0.791434 0.782835
O O11 0.000000 0.855880 0.000000
O O12 0.250000 0.250000 0.373640
O O13 0.035807 0.301028 0.270509
O O14 0.000000 0.241488 0.500000
O O15 0.500000 0.153796 0.000000
#
# Coordination Sequence:
#
# PCOD9325314 Si02
#       6
#     8   8   8   8   8   8
#     4  11  23  41  71  98 129 177 225 273 323 385
#     4   9  18  36  66 100 129 168 225 279 319 377
#     4  11  21  43  68  97 132 173 228 272 320 393
#     4  12  25  42  66  98 135 173 213 269 337 391
#     4  12  27  47  72 100 128 171 226 274 323 398
#     4  12  27  46  65  96 140 174 213 275 341 395
#
# _framework density 20.997492999999999
#
# number of rings (size 3 to 8) (size 9 to 14) (size 15 to 20)
#    0.000    0.833    3.333    4.500    2.333    0.667 
#    0.000    7.500    0.000    0.000    0.000    0.000 
#    0.000    0.000    0.000    0.000    0.000    0.000 
#
# Total GULP energy -134280.376330 kJ/mol
# GULP energy per Si atom -5595.015680 kJ/mol
# Density = 2.094970 g / cm^3
# Si number density = 20.997493 Si / 1000 Ang^3
#
#
#
# Elastic Constant Matrix: (Units=GPa)
#
#
# Indices 1 2 3 4 5 6 
#
# 1 48.4101 3.3081 -3.5184 0.0000 0.0000 0.0000
# 2 3.3081 109.3295 -11.9285 0.0000 0.0000 0.0000
# 3 -3.5184 -11.9285 61.6020 0.0000 0.0000 0.0000
# 4 0.0000 0.0000 0.0000 -21.5435 0.0000 0.0000
# 5 0.0000 0.0000 0.0000 0.0000 27.7442 0.0000
# 6 0.0000 0.0000 0.0000 0.0000 0.0000 38.0513
#
#
#
# Elastic Compliance Matrix: (Units=1/GPa)
#
#
# Indices 1 2 3 4 5 6 
#
# 1 0.020771 -0.000510 0.001088 0.000000 0.000000 0.000000
# 2 -0.000510 0.009357 0.001783 0.000000 0.000000 0.000000
# 3 0.001088 0.001783 0.016641 0.000000 0.000000 0.000000
# 4 0.000000 0.000000 0.000000 -0.046418 0.000000 0.000000
# 5 0.000000 0.000000 0.000000 0.000000 0.036044 0.000000
# 6 0.000000 0.000000 0.000000 0.000000 0.000000 0.026280
#
#
# Mechanical properties :
#
#
# Convention : Reuss Voigt Hill
#
# Bulk Modulus (GPa) = 19.42170 21.67378 20.54774
# Shear Modulus (GPa) = 66.56355 24.28241 45.42298
#
# Velocity S-wave (km/s) = 5.63645 3.40434 4.65613
# Velocity P-wave (km/s) = 7.18533 5.07909 6.22198
#
# Compressibility (1/GPa) = 0.05148879
#
# Stress axis : x y z
#
# Youngs Moduli (GPa) = 48.14464 106.87654 60.09420
#
# Poissons Ratio (x) = 0.05449 -0.06536
# Poissons Ratio (y) = 0.02454 -0.10713
# Poissons Ratio (z) = -0.05236 -0.19053
#
# Static dielectric constant tensor:
#      x y z
#    x 1.712200 0.000000 0.000000 
#    y 0.000000 1.740350 0.000000 
#    z 0.000000 0.000000 1.737130 
# 
# From -- ./inp_files/11534.got.cif
#   From: 2010.05.17/outbox.cif.g08.bks.cpg/sg21_6_cif.got.tgz:11534.got - 2010.06.03 23:14:55.
