data_PCOD9325998
_publ_section_title
;
Structure prediction by ZEFSAII (Michael W. Deem and Ramdas Pophale) SiO2 
 PCOD9325998
Probable space group: F 2 2 2
;
_chemical_formula_sum "Si O2"
_cell_formula_units_Z 96
_cell_length_a 16.422740
_cell_length_b 10.780502
_cell_length_c 23.571135
_cell_angle_alpha 90.000000
_cell_angle_beta 90.000000
_cell_angle_gamma 90.000000
_cell_volume 4173.160586
_symmetry_space_group_name_H-M "F 2 2 2"
_symmetry_group_IT_number 22
_symmetry_cell_setting 'orthorhombic'
loop_
_space_group_symop_operation_xyz
x,y,z
-x,-y,z
x,-y,-z
-x,y,-z
x,1/2+y,1/2+z
-x,1/2-y,1/2+z
x,1/2-y,1/2-z
-x,1/2+y,1/2-z
1/2+x,y,1/2+z
1/2-x,-y,1/2+z
1/2+x,-y,1/2-z
1/2-x,y,1/2-z
1/2+x,1/2+y,z
1/2-x,1/2-y,z
1/2+x,1/2-y,-z
1/2-x,1/2+y,-z
loop_
_atom_site_type_symbol
_atom_site_label
_atom_site_fract_x
_atom_site_fract_y
_atom_site_fract_z
Si Si1 0.163289 0.523867 0.621266
Si Si2 0.067202 0.295985 0.619196
Si Si3 0.583641 0.453449 0.226476
Si Si4 0.935807 0.108082 0.584420
Si Si5 0.335805 0.067711 0.841166
Si Si6 0.266010 0.372500 0.471792
O O1 0.103259 0.422375 0.591833
O O2 0.117655 0.553796 0.680414
O O3 0.242655 0.449868 0.643042
O O4 0.203553 0.628826 0.582209
O O5 0.060923 0.340224 0.684735
O O6 0.129691 0.182195 0.622763
O O7 0.985291 0.234834 0.595085
O O8 0.500000 0.500000 0.253472
O O9 0.647071 0.418847 0.274733
O O10 0.861525 0.122713 0.541441
O O11 0.888101 0.052441 0.638985
O O12 0.000000 0.000000 0.568314
O O13 0.243999 0.500000 0.500000
O O14 0.250000 0.250000 0.506984
#
# Coordination Sequence:
#
# PCOD9325998 Si02
#       6
#    16  16  16  16  16  16
#     4   9  22  36  60  86 124 163 208 268 325 383
#     4   9  19  31  59  86 124 165 212 257 321 369
#     4  10  20  30  54  86 132 169 220 250 321 370
#     4   9  20  38  63  89 129 170 213 266 327 396
#     4  10  17  34  52  90 129 175 213 260 298 384
#     4  11  26  46  71  93 124 164 220 280 352 412
#
# _framework density 23.004147
#
# number of rings (size 3 to 8) (size 9 to 14) (size 15 to 20)
#    1.000    1.333    0.000    3.000    2.333    4.333 
#    3.000    0.000    0.000    4.500    0.000    0.000 
#    0.000    0.000    0.000    0.000    0.000    0.000 
#
# Total GULP energy -133757.784879 kJ/mol
# GULP energy per Si atom -5573.241037 kJ/mol
# Density = 2.295179 g / cm^3
# Si number density = 23.004147 Si / 1000 Ang^3
#
#
#
# Elastic Constant Matrix: (Units=GPa)
#
#
# Indices 1 2 3 4 5 6 
#
# 1 94.5631 26.8864 21.3502 0.0000 0.0000 0.0000
# 2 26.8864 82.6998 11.9874 0.0000 0.0000 0.0000
# 3 21.3502 11.9874 30.6326 0.0000 0.0000 0.0000
# 4 0.0000 0.0000 0.0000 14.3441 0.0000 0.0000
# 5 0.0000 0.0000 0.0000 0.0000 23.6614 0.0000
# 6 0.0000 0.0000 0.0000 0.0000 0.0000 37.9425
#
#
#
# Elastic Compliance Matrix: (Units=1/GPa)
#
#
# Indices 1 2 3 4 5 6 
#
# 1 0.013284 -0.003156 -0.008024 0.000000 0.000000 0.000000
# 2 -0.003156 0.013569 -0.003110 0.000000 0.000000 0.000000
# 3 -0.008024 -0.003110 0.039454 0.000000 0.000000 0.000000
# 4 0.000000 0.000000 0.000000 0.069715 0.000000 0.000000
# 5 0.000000 0.000000 0.000000 0.000000 0.042263 0.000000
# 6 0.000000 0.000000 0.000000 0.000000 0.000000 0.026356
#
#
# Mechanical properties :
#
#
# Convention : Reuss Voigt Hill
#
# Bulk Modulus (GPa) = 26.50581 36.48262 31.49421
# Shear Modulus (GPa) = 20.34209 25.03434 22.68822
#
# Velocity S-wave (km/s) = 2.97691 3.30245 3.14389
# Velocity P-wave (km/s) = 4.83355 5.51680 5.18644
#
# Compressibility (1/GPa) = 0.03772758
#
# Stress axis : x y z
#
# Youngs Moduli (GPa) = 75.28025 73.69897 25.34573
#
# Poissons Ratio (x) = 0.23257 0.20336
# Poissons Ratio (y) = 0.23756 0.07884
# Poissons Ratio (z) = 0.60401 0.22924
#
# Static dielectric constant tensor:
#      x y z
#    x 1.852540 0.000000 0.000000 
#    y 0.000000 1.949080 0.000000 
#    z 0.000000 0.000000 1.895520 
# 
# From -- ./inp_files/53557.got.cif
#   From: 2010.05.17/outbox.cif.g08.bks.cpg/sg22_27_cif.got.tgz:53557.got - 2010.06.03 23:40:54.
