data_PCOD9325285
_publ_section_title
;
Structure prediction by ZEFSAII (Michael W. Deem and Ramdas Pophale) SiO2 
 PCOD9325285
Probable space group: C 2 2 2
;
_chemical_formula_sum "Si O2"
_cell_formula_units_Z 64
_cell_length_a 9.734057
_cell_length_b 15.452122
_cell_length_c 22.973203
_cell_angle_alpha 90.000000
_cell_angle_beta 90.000000
_cell_angle_gamma 90.000000
_cell_volume 3455.441649
_symmetry_space_group_name_H-M "C 2 2 2"
_symmetry_group_IT_number 21
_symmetry_cell_setting 'orthorhombic'
loop_
_space_group_symop_operation_xyz
x,y,z
-x,-y,z
x,-y,-z
-x,y,-z
1/2+x,1/2+y,z
1/2-x,1/2-y,z
1/2+x,1/2-y,-z
1/2-x,1/2+y,-z
loop_
_atom_site_type_symbol
_atom_site_label
_atom_site_fract_x
_atom_site_fract_y
_atom_site_fract_z
Si Si1 0.667434 0.502034 0.779041
Si Si2 0.786836 0.846446 0.137104
Si Si3 0.163143 0.163806 0.567799
Si Si4 0.333434 0.499656 0.643855
Si Si5 0.467963 0.102434 0.065335
Si Si6 0.280815 0.848906 0.138100
Si Si7 0.163046 0.836155 0.568515
Si Si8 0.465167 0.397839 0.934910
O O1 0.500000 0.500000 0.783769
O O2 0.720757 0.416838 0.812043
O O3 0.705909 0.501973 0.711320
O O4 0.732035 0.584592 0.812097
O O5 0.750000 0.750000 0.155578
O O6 0.686424 0.877410 0.085066
O O7 0.939119 0.849016 0.110786
O O8 0.250000 0.250000 0.578587
O O9 0.209864 0.085594 0.608823
O O10 0.179691 0.139683 0.499645
O O11 0.000166 0.179416 0.577441
O O12 0.500000 0.500000 0.642020
O O13 0.290316 0.585859 0.609809
O O14 0.564613 0.141664 0.115537
O O15 0.500000 0.000000 0.065451
O O16 0.500000 0.134821 0.000000
O O17 0.250000 0.750000 0.153645
O O18 0.189739 0.877984 0.082338
O O19 0.250000 0.750000 0.579288
O O20 0.500000 0.500000 0.929467
O O21 0.500000 0.371066 0.000000
#
# Coordination Sequence:
#
# PCOD9325285 Si02
#       8
#     8   8   8   8   8   8   8   8
#     4  11  22  42  58  79 109 149 198 235 269 321
#     4  12  23  38  60  82 109 143 182 229 278 338
#     4   9  17  32  57  89 120 149 185 230 279 327
#     4   9  19  34  59  80 110 152 197 234 266 324
#     4  11  23  39  59  84 115 141 170 225 294 346
#     4  12  23  38  60  82 109 143 182 229 278 338
#     4   9  17  32  57  89 120 149 185 230 279 327
#     4  11  21  39  63  84 109 141 178 225 278 338
#
# _framework density 18.521509999999999
#
# number of rings (size 3 to 8) (size 9 to 14) (size 15 to 20)
#    0.000    1.500    3.750    1.875    0.000    7.500 
#    0.000    0.625    5.500    3.000    0.000    0.000 
#    0.000    0.000    0.000    0.000    0.000    0.000 
#
# Total GULP energy -178725.499274 kJ/mol
# GULP energy per Si atom -5585.171852 kJ/mol
# Density = 1.847935 g / cm^3
# Si number density = 18.521510 Si / 1000 Ang^3
#
#
#
# Elastic Constant Matrix: (Units=GPa)
#
#
# Indices 1 2 3 4 5 6 
#
# 1 29.6153 8.1845 16.2109 0.0000 0.0000 0.0000
# 2 8.1845 139.1750 78.5518 0.0000 0.0000 0.0000
# 3 16.2109 78.5518 133.0773 0.0000 0.0000 0.0000
# 4 0.0000 0.0000 0.0000 -3.0827 0.0000 0.0000
# 5 0.0000 0.0000 0.0000 0.0000 18.2906 0.0000
# 6 0.0000 0.0000 0.0000 0.0000 0.0000 27.2657
#
#
#
# Elastic Compliance Matrix: (Units=1/GPa)
#
#
# Indices 1 2 3 4 5 6 
#
# 1 0.036206 0.000540 -0.004729 0.000000 0.000000 0.000000
# 2 0.000540 0.010783 -0.006431 0.000000 0.000000 0.000000
# 3 -0.004729 -0.006431 0.011886 0.000000 0.000000 0.000000
# 4 0.000000 0.000000 0.000000 -0.324387 0.000000 0.000000
# 5 0.000000 0.000000 0.000000 0.000000 0.054673 0.000000
# 6 0.000000 0.000000 0.000000 0.000000 0.000000 0.036676
#
#
# Mechanical properties :
#
#
# Convention : Reuss Voigt Hill
#
# Bulk Modulus (GPa) = 26.57069 56.41799 41.49434
# Shear Modulus (GPa) = -35.61813 21.75606 -6.93103
#
# Velocity S-wave (km/s) = -4.39004 3.43102 -1.93656
# Velocity P-wave (km/s) = 3.36446 6.79873 4.17751
#
# Compressibility (1/GPa) = 0.03763545
#
# Stress axis : x y z
#
# Youngs Moduli (GPa) = 27.61992 92.73867 84.12995
#
# Poissons Ratio (x) = -0.05008 0.39787
# Poissons Ratio (y) = -0.01492 0.54101
# Poissons Ratio (z) = 0.13062 0.59637
#
# Static dielectric constant tensor:
#      x y z
#    x 1.621610 0.000000 0.000000 
#    y 0.000000 1.646440 0.000000 
#    z 0.000000 0.000000 1.622400 
# 
# From -- ./inp_files/38534.got.cif
#   From: 2010.05.17/outbox.cif.g08.bks.cpg/sg21_20_cif.got.tgz:38534.got - 2010.06.03 23:14:55.
