data_PCOD9325199
_publ_section_title
;
Structure prediction by ZEFSAII (Michael W. Deem and Ramdas Pophale) SiO2 
 PCOD9325199
Probable space group: C 2 2 2
;
_chemical_formula_sum "Si O2"
_cell_formula_units_Z 52
_cell_length_a 11.246606
_cell_length_b 27.390775
_cell_length_c 9.339911
_cell_angle_alpha 90.000000
_cell_angle_beta 90.000000
_cell_angle_gamma 90.000000
_cell_volume 2877.189980
_symmetry_space_group_name_H-M "C 2 2 2"
_symmetry_group_IT_number 21
_symmetry_cell_setting 'orthorhombic'
loop_
_space_group_symop_operation_xyz
x,y,z
-x,-y,z
x,-y,-z
-x,y,-z
1/2+x,1/2+y,z
1/2-x,1/2-y,z
1/2+x,1/2-y,-z
1/2-x,1/2+y,-z
loop_
_atom_site_type_symbol
_atom_site_label
_atom_site_fract_x
_atom_site_fract_y
_atom_site_fract_z
Si Si1 0.800716 0.819493 0.385053
Si Si2 0.532373 0.586818 0.341080
Si Si3 0.684384 0.801414 0.689397
Si Si4 0.367508 0.451308 0.066689
Si Si5 0.335444 0.367153 0.866125
Si Si6 0.416339 0.225703 0.264760
Si Si7 0.500000 0.715611 0.000000
O O1 0.885204 0.865282 0.360871
O O2 0.740051 0.818744 0.539637
O O3 0.691099 0.812701 0.275008
O O4 0.878477 0.770510 0.367556
O O5 0.500000 0.568660 0.500000
O O6 0.607527 0.551319 0.235961
O O7 0.414395 0.603874 0.253220
O O8 0.750000 0.750000 0.724659
O O9 0.719067 0.843191 0.801013
O O10 0.543921 0.793716 0.687982
O O11 0.311076 0.500000 0.000000
O O12 0.500000 0.449584 0.000000
O O13 0.311642 0.402570 0.000068
O O14 0.415473 0.321317 0.914479
O O15 0.429764 0.250189 0.109628
#
# Coordination Sequence:
#
# PCOD9325199 Si02
#       7
#     8   8   8   8   8   8   4
#     4  11  22  34  52  71 112 151 191 230 275 320
#     4  11  19  34  58  81 106 142 186 226 279 336
#     4  12  21  32  52  75 109 151 193 229 271 326
#     4   9  19  37  57  81 113 143 171 223 297 348
#     4  11  20  34  54  76 109 149 180 228 284 335
#     4  11  24  32  47  75 106 157 198 229 266 317
#     4  12  20  34  47  70 108 150 195 226 272 332
#
# _framework density 18.07319
#
# number of rings (size 3 to 8) (size 9 to 14) (size 15 to 20)
#    0.000    1.077    8.462    0.462    0.000    3.692 
#    0.000    6.154    0.000    0.000    0.000    2.154 
#    0.000    2.462    0.000    0.000    0.000    0.000 
#
# Total GULP energy -145103.002640 kJ/mol
# GULP energy per Si atom -5580.884717 kJ/mol
# Density = 1.803205 g / cm^3
# Si number density = 18.073190 Si / 1000 Ang^3
#
#
#
# Elastic Constant Matrix: (Units=GPa)
#
#
# Indices 1 2 3 4 5 6 
#
# 1 82.2593 14.3139 14.5695 0.0000 0.0000 0.0000
# 2 14.3139 50.9179 29.3051 0.0000 0.0000 0.0000
# 3 14.5695 29.3051 110.3080 0.0000 0.0000 0.0000
# 4 0.0000 0.0000 0.0000 17.3674 0.0000 0.0000
# 5 0.0000 0.0000 0.0000 0.0000 8.6313 0.0000
# 6 0.0000 0.0000 0.0000 0.0000 0.0000 12.0802
#
#
#
# Elastic Compliance Matrix: (Units=1/GPa)
#
#
# Indices 1 2 3 4 5 6 
#
# 1 0.012852 -0.003112 -0.000871 0.000000 0.000000 0.000000
# 2 -0.003112 0.023938 -0.005948 0.000000 0.000000 0.000000
# 3 -0.000871 -0.005948 0.010761 0.000000 0.000000 0.000000
# 4 0.000000 0.000000 0.000000 0.057579 0.000000 0.000000
# 5 0.000000 0.000000 0.000000 0.000000 0.115858 0.000000
# 6 0.000000 0.000000 0.000000 0.000000 0.000000 0.082780
#
#
# Mechanical properties :
#
#
# Convention : Reuss Voigt Hill
#
# Bulk Modulus (GPa) = 36.11568 39.98470 38.05019
# Shear Modulus (GPa) = 15.02135 19.96889 17.49512
#
# Velocity S-wave (km/s) = 2.88608 3.32759 3.11467
# Velocity P-wave (km/s) = 5.57963 6.07747 5.83386
#
# Compressibility (1/GPa) = 0.02768880
#
# Stress axis : x y z
#
# Youngs Moduli (GPa) = 77.80636 41.77488 92.92943
#
# Poissons Ratio (x) = 0.13000 0.08093
# Poissons Ratio (y) = 0.24212 0.55279
# Poissons Ratio (z) = 0.06776 0.24850
#
# Static dielectric constant tensor:
#      x y z
#    x 1.609490 0.000000 0.000000 
#    y 0.000000 1.662500 0.000000 
#    z 0.000000 0.000000 1.723150 
# 
# From -- ./inp_files/13521.got.cif
#   From: 2010.05.17/outbox.cif.g08.bks.cpg/sg21_7_cif.got.tgz:13521.got - 2010.06.03 23:14:55.
