data_PCOD9325888
_publ_section_title
;
Structure prediction by ZEFSAII (Michael W. Deem and Ramdas Pophale) SiO2 
 PCOD9325888
Probable space group: F 2 2 2
;
_chemical_formula_sum "Si O2"
_cell_formula_units_Z 112
_cell_length_a 21.705513
_cell_length_b 16.654285
_cell_length_c 16.993469
_cell_angle_alpha 90.000000
_cell_angle_beta 90.000000
_cell_angle_gamma 90.000000
_cell_volume 6142.965703
_symmetry_space_group_name_H-M "F 2 2 2"
_symmetry_group_IT_number 22
_symmetry_cell_setting 'orthorhombic'
loop_
_space_group_symop_operation_xyz
x,y,z
-x,-y,z
x,-y,-z
-x,y,-z
x,1/2+y,1/2+z
-x,1/2-y,1/2+z
x,1/2-y,1/2-z
-x,1/2+y,1/2-z
1/2+x,y,1/2+z
1/2-x,-y,1/2+z
1/2+x,-y,1/2-z
1/2-x,y,1/2-z
1/2+x,1/2+y,z
1/2-x,1/2-y,z
1/2+x,1/2-y,-z
1/2-x,1/2+y,-z
loop_
_atom_site_type_symbol
_atom_site_label
_atom_site_fract_x
_atom_site_fract_y
_atom_site_fract_z
Si Si1 0.448637 0.816864 0.389820
Si Si2 0.741059 0.129476 0.419880
Si Si3 0.780009 0.165452 0.901202
Si Si4 0.795303 0.508762 0.314010
Si Si5 0.338172 0.729774 0.341666
Si Si6 0.931834 0.510682 0.676513
Si Si7 0.577230 0.857226 0.428555
O O1 0.409836 0.740615 0.361897
O O2 0.428271 0.895087 0.341243
O O3 0.522271 0.809868 0.385023
O O4 0.433299 0.841916 0.479468
O O5 0.745756 0.138033 0.513394
O O6 0.694924 0.199001 0.390277
O O7 0.804812 0.150574 0.374661
O O8 0.711125 0.046736 0.391304
O O9 0.750000 0.250000 0.880810
O O10 0.770443 0.095587 0.838300
O O11 0.854102 0.170252 0.909221
O O12 0.750000 0.472045 0.250000
O O13 0.866084 0.511445 0.285476
O O14 0.327684 0.750000 0.250000
O O15 0.931813 0.449924 0.600431
O O16 0.000000 0.500000 0.713747
#
# Coordination Sequence:
#
# PCOD9325888 Si02
#       7
#    16  16  16  16  16  16  16
#     4  10  16  28  48  76 108 133 165 207 273 325
#     4  11  19  34  53  80 108 140 175 218 272 332
#     4  11  20  36  56  76 106 143 188 226 261 310
#     4  11  22  34  54  80 110 143 179 222 272 327
#     4  11  20  30  50  79 114 140 162 216 284 334
#     4   9  17  29  49  74 105 133 167 212 267 327
#     4   9  17  28  49  76  99 135 173 216 257 316
#
# _framework density 18.232236
#
# number of rings (size 3 to 8) (size 9 to 14) (size 15 to 20)
#    0.000    1.714    4.286    2.571    0.000    4.286 
#    0.000    0.000    9.429    0.000    0.000    0.000 
#    0.000    5.714    0.000    0.000    0.000    0.000 
#
# Total GULP energy -155980.607893 kJ/mol
# GULP energy per Si atom -5570.735996 kJ/mol
# Density = 1.819074 g / cm^3
# Si number density = 18.232236 Si / 1000 Ang^3
#
#
#
# Elastic Constant Matrix: (Units=GPa)
#
#
# Indices 1 2 3 4 5 6 
#
# 1 100.1130 23.4744 17.9127 0.0000 0.0000 0.0000
# 2 23.4744 53.6107 -5.3236 0.0000 0.0000 0.0000
# 3 17.9127 -5.3236 38.9988 0.0000 0.0000 0.0000
# 4 0.0000 0.0000 0.0000 13.9855 0.0000 0.0000
# 5 0.0000 0.0000 0.0000 0.0000 13.0366 0.0000
# 6 0.0000 0.0000 0.0000 0.0000 0.0000 30.3042
#
#
#
# Elastic Compliance Matrix: (Units=1/GPa)
#
#
# Indices 1 2 3 4 5 6 
#
# 1 0.012629 -0.006190 -0.006646 0.000000 0.000000 0.000000
# 2 -0.006190 0.021943 0.005838 0.000000 0.000000 0.000000
# 3 -0.006646 0.005838 0.029491 0.000000 0.000000 0.000000
# 4 0.000000 0.000000 0.000000 0.071503 0.000000 0.000000
# 5 0.000000 0.000000 0.000000 0.000000 0.076707 0.000000
# 6 0.000000 0.000000 0.000000 0.000000 0.000000 0.032999
#
#
# Mechanical properties :
#
#
# Convention : Reuss Voigt Hill
#
# Bulk Modulus (GPa) = 19.97228 29.42772 24.70000
# Shear Modulus (GPa) = 18.11881 21.90918 20.01399
#
# Velocity S-wave (km/s) = 3.15585 3.47028 3.31679
# Velocity P-wave (km/s) = 4.92517 5.67738 5.31460
#
# Compressibility (1/GPa) = 0.05006940
#
# Stress axis : x y z
#
# Youngs Moduli (GPa) = 79.18157 45.57239 33.90830
#
# Poissons Ratio (x) = 0.28209 0.22535
# Poissons Ratio (y) = 0.49012 -0.19797
# Poissons Ratio (z) = 0.52622 -0.26607
#
# Static dielectric constant tensor:
#      x y z
#    x 1.699450 0.000000 0.000000 
#    y 0.000000 1.624660 0.000000 
#    z 0.000000 0.000000 1.623200 
# 
# From -- ./inp_files/38335.got.cif
#   From: 2010.05.17/outbox.cif.g08.bks.cpg/sg22_20_cif.got.tgz:38335.got - 2010.06.03 23:40:54.
