data_PCOD9325543
_publ_section_title
;
Structure prediction by ZEFSAII (Michael W. Deem and Ramdas Pophale) SiO2 
 PCOD9325543
Probable space group: C 2 2 2
;
_chemical_formula_sum "Si O2"
_cell_formula_units_Z 34
_cell_length_a 17.709505
_cell_length_b 9.395971
_cell_length_c 10.523988
_cell_angle_alpha 90.000000
_cell_angle_beta 90.000000
_cell_angle_gamma 90.000000
_cell_volume 1751.170507
_symmetry_space_group_name_H-M "C 2 2 2"
_symmetry_group_IT_number 21
_symmetry_cell_setting 'orthorhombic'
loop_
_space_group_symop_operation_xyz
x,y,z
-x,-y,z
x,-y,-z
-x,y,-z
1/2+x,1/2+y,z
1/2-x,1/2-y,z
1/2+x,1/2-y,-z
1/2-x,1/2+y,-z
loop_
_atom_site_type_symbol
_atom_site_label
_atom_site_fract_x
_atom_site_fract_y
_atom_site_fract_z
Si Si1 0.873475 0.846947 0.673509
Si Si2 0.207291 0.456114 0.644923
Si Si3 0.913330 0.153638 0.034399
Si Si4 0.188377 0.375072 0.101529
Si Si5 0.000000 0.000000 0.500000
O O1 0.837137 0.692872 0.648243
O O2 0.798089 0.944749 0.667205
O O3 0.902829 0.835644 0.816106
O O4 0.941739 0.904709 0.585139
O O5 0.197261 0.500000 0.500000
O O6 0.177744 0.555734 0.759486
O O7 0.880385 0.287249 0.958896
O O8 0.000000 0.147150 0.000000
O O9 0.878075 0.000000 0.000000
O O10 0.250000 0.250000 0.110298
O O11 0.206696 0.500000 0.000000
#
# Coordination Sequence:
#
# PCOD9325543 Si02
#       5
#     8   8   8   8   2
#     4  11  24  45  69 103 142 184 242 289 348 432
#     4  11  25  44  69 103 143 186 236 294 348 423
#     4  11  24  44  69 101 140 182 234 292 354 419
#     4  12  24  42  71 102 136 183 236 291 349 413
#     4  12  24  44  76 100 140 198 228 296 368 416
#
# _framework density 19.415586999999999
#
# number of rings (size 3 to 8) (size 9 to 14) (size 15 to 20)
#    0.000    0.706    3.529    4.941    3.294    4.235 
#    0.000    2.941    0.000    0.000    0.000    0.000 
#    0.000    0.000    0.000    0.000    0.000    0.000 
#
# Total GULP energy -94826.793673 kJ/mol
# GULP energy per Si atom -5578.046687 kJ/mol
# Density = 1.937140 g / cm^3
# Si number density = 19.415587 Si / 1000 Ang^3
#
#
#
# Elastic Constant Matrix: (Units=GPa)
#
#
# Indices 1 2 3 4 5 6 
#
# 1 124.0891 55.0666 70.5056 0.0000 0.0000 0.0000
# 2 55.0666 115.6646 72.7063 0.0000 0.0000 0.0000
# 3 70.5056 72.7063 206.3981 0.0000 0.0000 0.0000
# 4 0.0000 0.0000 0.0000 49.7406 0.0000 0.0000
# 5 0.0000 0.0000 0.0000 0.0000 33.6388 0.0000
# 6 0.0000 0.0000 0.0000 0.0000 0.0000 10.4620
#
#
#
# Elastic Compliance Matrix: (Units=1/GPa)
#
#
# Indices 1 2 3 4 5 6 
#
# 1 0.011129 -0.003736 -0.002486 0.000000 0.000000 0.000000
# 2 -0.003736 0.012359 -0.003077 0.000000 0.000000 0.000000
# 3 -0.002486 -0.003077 0.006778 0.000000 0.000000 0.000000
# 4 0.000000 0.000000 0.000000 0.020104 0.000000 0.000000
# 5 0.000000 0.000000 0.000000 0.000000 0.029728 0.000000
# 6 0.000000 0.000000 0.000000 0.000000 0.000000 0.095584
#
#
# Mechanical properties :
#
#
# Convention : Reuss Voigt Hill
#
# Bulk Modulus (GPa) = 85.70416 93.63429 89.66923
# Shear Modulus (GPa) = 25.23105 35.29316 30.26210
#
# Velocity S-wave (km/s) = 3.60880 4.26816 3.95226
# Velocity P-wave (km/s) = 7.84872 8.52178 8.19216
#
# Compressibility (1/GPa) = 0.01166804
#
# Stress axis : x y z
#
# Youngs Moduli (GPa) = 89.85638 80.91466 147.53352
#
# Poissons Ratio (x) = 0.30229 0.36671
# Poissons Ratio (y) = 0.33569 0.45401
# Poissons Ratio (z) = 0.22335 0.24900
#
# Static dielectric constant tensor:
#      x y z
#    x 1.681760 0.000000 0.000000 
#    y 0.000000 1.724590 0.000000 
#    z 0.000000 0.000000 1.675250 
# 
# From -- ./inp_files/17191.got.cif
#   From: 2010.05.17/outbox.cif.g08.bks.cpg/sg21_9_cif.got.tgz:17191.got - 2010.06.03 23:14:55.
