data_PCOD9325467
_publ_section_title
;
Structure prediction by ZEFSAII (Michael W. Deem and Ramdas Pophale) SiO2 
 PCOD9325467
Probable space group: C 2 2 2
;
_chemical_formula_sum "Si O2"
_cell_formula_units_Z 48
_cell_length_a 9.609341
_cell_length_b 17.690619
_cell_length_c 15.034620
_cell_angle_alpha 90.000000
_cell_angle_beta 90.000000
_cell_angle_gamma 90.000000
_cell_volume 2555.813091
_symmetry_space_group_name_H-M "C 2 2 2"
_symmetry_group_IT_number 21
_symmetry_cell_setting 'orthorhombic'
loop_
_space_group_symop_operation_xyz
x,y,z
-x,-y,z
x,-y,-z
-x,y,-z
1/2+x,1/2+y,z
1/2-x,1/2-y,z
1/2+x,1/2-y,-z
1/2-x,1/2+y,-z
loop_
_atom_site_type_symbol
_atom_site_label
_atom_site_fract_x
_atom_site_fract_y
_atom_site_fract_z
Si Si1 0.142991 0.043949 0.245919
Si Si2 0.154528 0.528064 0.101279
Si Si3 0.406819 0.278674 0.224792
Si Si4 0.390947 0.204328 0.918984
Si Si5 0.597662 0.781686 0.420487
Si Si6 0.359003 0.040049 0.405714
O O1 0.106565 0.131152 0.226913
O O2 0.236691 0.036331 0.334217
O O3 0.232498 0.008840 0.165582
O O4 0.000000 0.000000 0.256757
O O5 0.152271 0.618853 0.105703
O O6 0.000000 0.500000 0.126687
O O7 0.178412 0.500000 0.000000
O O8 0.250000 0.250000 0.202698
O O9 0.522229 0.246431 0.158236
O O10 0.443146 0.248348 0.323300
O O11 0.250000 0.250000 0.940805
O O12 0.500000 0.199264 0.000000
O O13 0.500000 0.755978 0.500000
O O14 0.750000 0.750000 0.437622
O O15 0.605973 0.872167 0.419468
O O16 0.500000 0.000000 0.371897
O O17 0.325078 0.000000 0.500000
#
# Coordination Sequence:
#
# PCOD9325467 Si02
#       6
#     8   8   8   8   8   8
#     4  12  26  44  67 102 136 173 216 279 336 384
#     4  11  24  44  69  98 130 175 230 267 321 398
#     4  11  24  45  69  95 136 176 216 272 337 388
#     4  12  26  43  67 100 132 176 221 272 331 391
#     4  11  23  43  68  99 132 172 221 274 328 385
#     4  11  23  43  69  96 128 178 227 262 323 398
#
# _framework density 18.780716000000002
#
# number of rings (size 3 to 8) (size 9 to 14) (size 15 to 20)
#    0.000    0.667    6.667    3.000    4.667    2.667 
#    0.000    0.000    0.000    0.000    0.000    0.000 
#    0.000    0.000    0.000    0.000    0.000    0.000 
#
# Total GULP energy -134178.129799 kJ/mol
# GULP energy per Si atom -5590.755408 kJ/mol
# Density = 1.873797 g / cm^3
# Si number density = 18.780716 Si / 1000 Ang^3
#
#
#
# Elastic Constant Matrix: (Units=GPa)
#
#
# Indices 1 2 3 4 5 6 
#
# 1 71.2775 49.5145 63.6111 0.0000 0.0000 0.0000
# 2 49.5145 188.4028 51.1909 0.0000 0.0000 0.0000
# 3 63.6111 51.1909 127.2724 0.0000 0.0000 0.0000
# 4 0.0000 0.0000 0.0000 12.4204 0.0000 0.0000
# 5 0.0000 0.0000 0.0000 0.0000 19.8450 0.0000
# 6 0.0000 0.0000 0.0000 0.0000 0.0000 23.5903
#
#
#
# Elastic Compliance Matrix: (Units=1/GPa)
#
#
# Indices 1 2 3 4 5 6 
#
# 1 0.027722 -0.003953 -0.012266 0.000000 0.000000 0.000000
# 2 -0.003953 0.006523 -0.000648 0.000000 0.000000 0.000000
# 3 -0.012266 -0.000648 0.014248 0.000000 0.000000 0.000000
# 4 0.000000 0.000000 0.000000 0.080513 0.000000 0.000000
# 5 0.000000 0.000000 0.000000 0.000000 0.050391 0.000000
# 6 0.000000 0.000000 0.000000 0.000000 0.000000 0.042390
#
#
# Mechanical properties :
#
#
# Convention : Reuss Voigt Hill
#
# Bulk Modulus (GPa) = 67.75051 79.50952 73.63001
# Shear Modulus (GPa) = 19.19834 26.01356 22.60595
#
# Velocity S-wave (km/s) = 3.20071 3.72576 3.47317
# Velocity P-wave (km/s) = 7.05778 7.80615 7.44138
#
# Compressibility (1/GPa) = 0.01476004
#
# Stress axis : x y z
#
# Youngs Moduli (GPa) = 36.07232 153.31104 70.18477
#
# Poissons Ratio (x) = 0.60604 0.86086
# Poissons Ratio (y) = 0.14259 0.04547
# Poissons Ratio (z) = 0.44245 0.09932
#
# Static dielectric constant tensor:
#      x y z
#    x 1.613610 0.000000 0.000000 
#    y 0.000000 1.609600 0.000000 
#    z 0.000000 0.000000 1.663580 
# 
# From -- ./inp_files/30473.got.cif
#   From: 2010.05.17/outbox.cif.g08.bks.cpg/sg21_16_cif.got.tgz:30473.got - 2010.06.03 23:14:55.
