data_PCOD9325673
_publ_section_title
;
Structure prediction by ZEFSAII (Michael W. Deem and Ramdas Pophale) SiO2 
 PCOD9325673
Probable space group: C 2 2 2
;
_chemical_formula_sum "Si O2"
_cell_formula_units_Z 48
_cell_length_a 17.344185
_cell_length_b 21.128992
_cell_length_c 7.514745
_cell_angle_alpha 90.000000
_cell_angle_beta 90.000000
_cell_angle_gamma 90.000000
_cell_volume 2753.892124
_symmetry_space_group_name_H-M "C 2 2 2"
_symmetry_group_IT_number 21
_symmetry_cell_setting 'orthorhombic'
loop_
_space_group_symop_operation_xyz
x,y,z
-x,-y,z
x,-y,-z
-x,y,-z
1/2+x,1/2+y,z
1/2-x,1/2-y,z
1/2+x,1/2-y,-z
1/2-x,1/2+y,-z
loop_
_atom_site_type_symbol
_atom_site_label
_atom_site_fract_x
_atom_site_fract_y
_atom_site_fract_z
Si Si1 0.074068 0.262693 0.739698
Si Si2 0.924895 0.888643 0.743845
Si Si3 0.305627 0.190880 0.012250
Si Si4 0.399107 0.611275 0.671140
Si Si5 0.896161 0.262384 0.668241
Si Si6 0.201358 0.069112 0.020765
O O1 0.080357 0.187224 0.777097
O O2 0.108029 0.273613 0.542372
O O3 0.983365 0.277636 0.729808
O O4 0.120992 0.301130 0.884677
O O5 0.899326 0.900631 0.539841
O O6 0.015700 0.904877 0.746589
O O7 0.870160 0.922700 0.883716
O O8 0.250000 0.250000 0.969333
O O9 0.335169 0.200659 0.213493
O O10 0.260177 0.126109 0.987819
O O11 0.387412 0.686823 0.697495
O O12 0.334659 0.576589 0.783339
O O13 0.236413 0.000000 0.000000
#
# Coordination Sequence:
#
# PCOD9325673 Si02
#       6
#     8   8   8   8   8   8
#     4   9  18  34  58  84 105 129 171 224 266 305
#     4   9  18  34  55  78 105 139 177 212 251 307
#     4  12  21  33  55  81 105 142 176 210 260 315
#     4   9  18  34  55  78 105 139 177 212 251 307
#     4   9  18  34  58  84 105 129 171 224 266 305
#     4  12  25  36  47  74 113 146 176 213 257 305
#
# _framework density 17.429877000000001
#
# number of rings (size 3 to 8) (size 9 to 14) (size 15 to 20)
#    0.000    2.000    3.333    3.000    0.000    6.667 
#    0.000    1.667    0.000    2.000    0.000    2.333 
#    0.000    0.000    0.000    0.000    0.000    0.000 
#
# Total GULP energy -134032.316531 kJ/mol
# GULP energy per Si atom -5584.679855 kJ/mol
# Density = 1.739021 g / cm^3
# Si number density = 17.429877 Si / 1000 Ang^3
#
#
#
# Elastic Constant Matrix: (Units=GPa)
#
#
# Indices 1 2 3 4 5 6 
#
# 1 13.3894 15.9983 9.7719 0.0000 0.0000 0.0000
# 2 15.9983 70.2055 16.9253 0.0000 0.0000 0.0000
# 3 9.7719 16.9253 32.9314 0.0000 0.0000 0.0000
# 4 0.0000 0.0000 0.0000 6.8231 0.0000 0.0000
# 5 0.0000 0.0000 0.0000 0.0000 16.8533 0.0000
# 6 0.0000 0.0000 0.0000 0.0000 0.0000 10.9778
#
#
#
# Elastic Compliance Matrix: (Units=1/GPa)
#
#
# Indices 1 2 3 4 5 6 
#
# 1 0.117219 -0.020918 -0.024032 0.000000 0.000000 0.000000
# 2 -0.020918 0.019991 -0.004068 0.000000 0.000000 0.000000
# 3 -0.024032 -0.004068 0.039588 0.000000 0.000000 0.000000
# 4 0.000000 0.000000 0.000000 0.146561 0.000000 0.000000
# 5 0.000000 0.000000 0.000000 0.000000 0.059336 0.000000
# 6 0.000000 0.000000 0.000000 0.000000 0.000000 0.091093
#
#
# Mechanical properties :
#
#
# Convention : Reuss Voigt Hill
#
# Bulk Modulus (GPa) = 12.69636 22.43526 17.56581
# Shear Modulus (GPa) = 8.36013 11.85289 10.10651
#
# Velocity S-wave (km/s) = 2.19245 2.61057 2.41060
# Velocity P-wave (km/s) = 3.70259 4.68897 4.22467
#
# Compressibility (1/GPa) = 0.07876271
#
# Stress axis : x y z
#
# Youngs Moduli (GPa) = 8.53105 50.02194 25.26019
#
# Poissons Ratio (x) = 1.04635 0.60706
# Poissons Ratio (y) = 0.17845 0.10275
# Poissons Ratio (z) = 0.20502 0.20346
#
# Static dielectric constant tensor:
#      x y z
#    x 1.589140 0.000000 0.000000 
#    y 0.000000 1.580400 0.000000 
#    z 0.000000 0.000000 1.618060 
# 
# From -- ./inp_files/14941.got.cif
#   From: 2010.05.17/outbox.cif.g08.bks.cpg/sg21_8_cif.got.tgz:14941.got - 2010.06.03 23:14:55.
