data_PCOD9325681
_publ_section_title
;
Structure prediction by ZEFSAII (Michael W. Deem and Ramdas Pophale) SiO2 
 PCOD9325681
Probable space group: C 2 2 2
;
_chemical_formula_sum "Si O2"
_cell_formula_units_Z 24
_cell_length_a 11.758938
_cell_length_b 14.669255
_cell_length_c 6.525731
_cell_angle_alpha 90.000000
_cell_angle_beta 90.000000
_cell_angle_gamma 90.000000
_cell_volume 1125.655056
_symmetry_space_group_name_H-M "C 2 2 2"
_symmetry_group_IT_number 21
_symmetry_cell_setting 'orthorhombic'
loop_
_space_group_symop_operation_xyz
x,y,z
-x,-y,z
x,-y,-z
-x,y,-z
1/2+x,1/2+y,z
1/2-x,1/2-y,z
1/2+x,1/2-y,-z
1/2-x,1/2+y,-z
loop_
_atom_site_type_symbol
_atom_site_label
_atom_site_fract_x
_atom_site_fract_y
_atom_site_fract_z
Si Si1 0.422583 0.197574 0.837220
Si Si2 0.750000 0.250000 0.850074
Si Si3 0.000000 0.827093 0.500000
Si Si4 0.246881 0.606060 0.492068
O O1 0.500591 0.258059 0.690246
O O2 0.332374 0.147957 0.687761
O O3 0.500000 0.141499 0.000000
O O4 0.351633 0.262711 0.988122
O O5 0.771833 0.335790 0.700418
O O6 0.883410 0.881854 0.533158
O O7 0.219116 0.500000 0.500000
#
# Coordination Sequence:
#
# PCOD9325681 Si02
#       4
#     8   4   4   8
#     4  12  23  45  78 101 146 204 237 292 373 437
#     4  12  22  46  74 100 150 188 236 296 370 434
#     4  12  21  46  75 106 142 192 243 312 361 430
#     4  12  26  45  74 111 149 185 249 310 361 435
#
# _framework density 21.320920000000001
#
# number of rings (size 3 to 8) (size 9 to 14) (size 15 to 20)
#    0.000    0.000   10.000    0.500    0.000    1.333 
#    0.000   12.500    0.000    0.000    0.000    0.000 
#    0.000    0.000    0.000    0.000    0.000    0.000 
#
# Total GULP energy -66843.999219 kJ/mol
# GULP energy per Si atom -5570.333268 kJ/mol
# Density = 2.127239 g / cm^3
# Si number density = 21.320920 Si / 1000 Ang^3
#
#
#
# Elastic Constant Matrix: (Units=GPa)
#
#
# Indices 1 2 3 4 5 6 
#
# 1 99.3637 16.6091 64.3093 0.0000 0.0000 0.0000
# 2 16.6091 120.0149 66.9404 0.0000 0.0000 0.0000
# 3 64.3093 66.9404 183.0508 0.0000 0.0000 0.0000
# 4 0.0000 0.0000 0.0000 0.4868 0.0000 0.0000
# 5 0.0000 0.0000 0.0000 0.0000 73.3379 0.0000
# 6 0.0000 0.0000 0.0000 0.0000 0.0000 20.8058
#
#
#
# Elastic Compliance Matrix: (Units=1/GPa)
#
#
# Indices 1 2 3 4 5 6 
#
# 1 0.013111 0.000948 -0.004953 0.000000 0.000000 0.000000
# 2 0.000948 0.010536 -0.004186 0.000000 0.000000 0.000000
# 3 -0.004953 -0.004186 0.008734 0.000000 0.000000 0.000000
# 4 0.000000 0.000000 0.000000 2.054381 0.000000 0.000000
# 5 0.000000 0.000000 0.000000 0.000000 0.013636 0.000000
# 6 0.000000 0.000000 0.000000 0.000000 0.000000 0.048064
#
#
# Mechanical properties :
#
#
# Convention : Reuss Voigt Hill
#
# Bulk Modulus (GPa) = 62.50300 77.57189 70.03745
# Shear Modulus (GPa) = 2.30396 35.89746 19.10071
#
# Velocity S-wave (km/s) = 1.04065 4.10771 2.99635
# Velocity P-wave (km/s) = 5.55184 7.67852 6.70010
#
# Compressibility (1/GPa) = 0.01599923
#
# Stress axis : x y z
#
# Youngs Moduli (GPa) = 76.27102 94.91357 114.49759
#
# Poissons Ratio (x) = -0.08999 0.56710
# Poissons Ratio (y) = -0.07231 0.47929
# Poissons Ratio (z) = 0.37776 0.39731
#
# Static dielectric constant tensor:
#      x y z
#    x 1.948230 0.000000 0.000000 
#    y 0.000000 1.728890 0.000000 
#    z 0.000000 0.000000 1.768490 
# 
# From -- ./inp_files/3203.got.cif
#   From: 2010.05.17/outbox.cif.g08.bks.cpg/sg21_2_cif.got.tgz:3203.got - 2010.06.03 23:14:55.
