data_PCOD9325142
_publ_section_title
;
Structure prediction by ZEFSAII (Michael W. Deem and Ramdas Pophale) SiO2 
 PCOD9325142
Probable space group: C 2 2 2
;
_chemical_formula_sum "Si O2"
_cell_formula_units_Z 30
_cell_length_a 25.917697
_cell_length_b 5.173637
_cell_length_c 8.770753
_cell_angle_alpha 90.000000
_cell_angle_beta 90.000000
_cell_angle_gamma 90.000000
_cell_volume 1176.059360
_symmetry_space_group_name_H-M "C 2 2 2"
_symmetry_group_IT_number 21
_symmetry_cell_setting 'orthorhombic'
loop_
_space_group_symop_operation_xyz
x,y,z
-x,-y,z
x,-y,-z
-x,y,-z
1/2+x,1/2+y,z
1/2-x,1/2-y,z
1/2+x,1/2-y,-z
1/2-x,1/2+y,-z
loop_
_atom_site_type_symbol
_atom_site_label
_atom_site_fract_x
_atom_site_fract_y
_atom_site_fract_z
Si Si1 0.786739 0.000000 0.000000
Si Si2 0.500000 0.500000 0.000000
Si Si3 0.952091 0.321099 0.254894
Si Si4 0.838767 0.394700 0.174829
Si Si5 0.098481 0.000000 0.500000
Si Si6 0.170528 0.500000 0.500000
O O1 0.750000 0.250000 0.968763
O O2 0.822493 0.904122 0.860366
O O3 0.465995 0.311102 0.901731
O O4 0.896991 0.453861 0.227606
O O5 0.000000 0.500000 0.304049
O O6 0.939173 0.085384 0.365884
O O7 0.805557 0.472328 0.327145
O O8 0.837151 0.500000 0.000000
O O9 0.135896 0.243614 0.483580
#
# Coordination Sequence:
#
# PCOD9325142 Si02
#       6
#     4   2   8   8   4   4
#     4  12  27  50  88 123 153 214 274 329 426 492
#     4  12  24  38  64  94 152 190 278 314 370 450
#     4  11  26  45  69 111 150 213 269 318 391 470
#     4  11  25  48  84 110 165 205 260 339 402 470
#     4  10  26  47  68 103 160 209 269 332 377 464
#     4  10  26  46  79 119 146 215 271 312 416 482
#
# _framework density 25.508914000000001
#
# number of rings (size 3 to 8) (size 9 to 14) (size 15 to 20)
#    0.000    1.067    1.333    2.800   18.667    0.533 
#    9.600    0.000    5.867    0.000    0.000    0.000 
#    0.000    0.000    0.000    0.000    0.000    0.000 
#
# Total GULP energy -83590.418658 kJ/mol
# GULP energy per Si atom -5572.694577 kJ/mol
# Density = 2.545085 g / cm^3
# Si number density = 25.508914 Si / 1000 Ang^3
#
#
#
# Elastic Constant Matrix: (Units=GPa)
#
#
# Indices 1 2 3 4 5 6 
#
# 1 80.3620 26.3498 -1.2889 0.0000 0.0000 0.0000
# 2 26.3498 144.5868 42.0776 0.0000 0.0000 0.0000
# 3 -1.2889 42.0776 194.0205 0.0000 0.0000 0.0000
# 4 0.0000 0.0000 0.0000 61.5519 0.0000 0.0000
# 5 0.0000 0.0000 0.0000 0.0000 -3.6747 0.0000
# 6 0.0000 0.0000 0.0000 0.0000 0.0000 51.2780
#
#
#
# Elastic Compliance Matrix: (Units=1/GPa)
#
#
# Indices 1 2 3 4 5 6 
#
# 1 0.013312 -0.002617 0.000656 0.000000 0.000000 0.000000
# 2 -0.002617 0.007897 -0.001730 0.000000 0.000000 0.000000
# 3 0.000656 -0.001730 0.005534 0.000000 0.000000 0.000000
# 4 0.000000 0.000000 0.000000 0.016246 0.000000 0.000000
# 5 0.000000 0.000000 0.000000 0.000000 -0.272132 0.000000
# 6 0.000000 0.000000 0.000000 0.000000 0.000000 0.019502
#
#
# Mechanical properties :
#
#
# Convention : Reuss Voigt Hill
#
# Bulk Modulus (GPa) = 51.65102 61.47179 56.56140
# Shear Modulus (GPa) = -25.53553 45.28643 9.87545
#
# Velocity S-wave (km/s) = -3.16736 4.21802 1.96971
# Velocity P-wave (km/s) = 2.62982 6.91901 5.23396
#
# Compressibility (1/GPa) = 0.01936070
#
# Stress axis : x y z
#
# Youngs Moduli (GPa) = 75.11858 126.63632 180.71330
#
# Poissons Ratio (x) = 0.33140 -0.11854
# Poissons Ratio (y) = 0.19658 0.31262
# Poissons Ratio (z) = -0.04928 0.21907
#
# Static dielectric constant tensor:
#      x y z
#    x 2.051480 0.000000 0.000000 
#    y 0.000000 2.084490 0.000000 
#    z 0.000000 0.000000 2.052640 
# 
# From -- ./inp_files/19378.got.cif
#   From: 2010.05.17/outbox.cif.g08.bks.cpg/sg21_10_cif.got.tgz:19378.got - 2010.06.03 23:14:55.
