data_PCOD9325081
_publ_section_title
;
Structure prediction by ZEFSAII (Michael W. Deem and Ramdas Pophale) SiO2 
 PCOD9325081
Probable space group: C 2 2 2
;
_chemical_formula_sum "Si O2"
_cell_formula_units_Z 40
_cell_length_a 17.234941
_cell_length_b 18.801771
_cell_length_c 5.713929
_cell_angle_alpha 90.000000
_cell_angle_beta 90.000000
_cell_angle_gamma 90.000000
_cell_volume 1851.583916
_symmetry_space_group_name_H-M "C 2 2 2"
_symmetry_group_IT_number 21
_symmetry_cell_setting 'orthorhombic'
loop_
_space_group_symop_operation_xyz
x,y,z
-x,-y,z
x,-y,-z
-x,y,-z
1/2+x,1/2+y,z
1/2-x,1/2-y,z
1/2+x,1/2-y,-z
1/2-x,1/2+y,-z
loop_
_atom_site_type_symbol
_atom_site_label
_atom_site_fract_x
_atom_site_fract_y
_atom_site_fract_z
Si Si1 0.201029 0.925795 0.870138
Si Si2 0.356335 0.921266 0.556357
Si Si3 0.715280 0.180766 0.179792
Si Si4 0.074552 0.297998 0.160625
Si Si5 0.457048 0.361445 0.259658
O O1 0.277908 0.930025 0.710559
O O2 0.122288 0.905618 0.742931
O O3 0.217061 0.862540 0.053283
O O4 0.192552 0.000000 0.000000
O O5 0.329226 0.876709 0.333064
O O6 0.414804 0.868339 0.685456
O O7 0.385861 0.000000 0.500000
O O8 0.750000 0.250000 0.308340
O O9 0.653336 0.207855 0.990120
O O10 0.062658 0.222584 0.285696
O O11 0.000000 0.307874 0.000000
O O12 0.500000 0.382266 0.500000
O O13 0.500000 0.369497 0.000000
#
# Coordination Sequence:
#
# PCOD9325081 Si02
#       5
#     8   8   8   8   8
#     4  11  24  45  69 103 145 186 235 311 367 439
#     4  11  25  41  71 100 136 187 242 305 367 438
#     4  11  23  42  71 104 135 183 247 296 362 438
#     4  10  25  43  68  99 145 184 238 304 360 436
#     4  11  27  46  74 109 145 194 247 297 367 444
#
# _framework density 21.603124999999999
#
# number of rings (size 3 to 8) (size 9 to 14) (size 15 to 20)
#    0.000    1.200    4.000    0.000   11.200    0.400 
#    0.000    4.000    0.000    0.000    0.000    0.000 
#    0.000    0.000    0.000    0.000    0.000    0.000 
#
# Total GULP energy -111786.758377 kJ/mol
# GULP energy per Si atom -5589.337919 kJ/mol
# Density = 2.155396 g / cm^3
# Si number density = 21.603125 Si / 1000 Ang^3
#
#
#
# Elastic Constant Matrix: (Units=GPa)
#
#
# Indices 1 2 3 4 5 6 
#
# 1 78.4988 17.9452 16.4711 0.0000 0.0000 0.0000
# 2 17.9452 46.7613 16.0895 0.0000 0.0000 0.0000
# 3 16.4711 16.0895 57.3340 0.0000 0.0000 0.0000
# 4 0.0000 0.0000 0.0000 31.5557 0.0000 0.0000
# 5 0.0000 0.0000 0.0000 0.0000 34.9583 0.0000
# 6 0.0000 0.0000 0.0000 0.0000 0.0000 14.4566
#
#
#
# Elastic Compliance Matrix: (Units=1/GPa)
#
#
# Indices 1 2 3 4 5 6 
#
# 1 0.014375 -0.004533 -0.002858 0.000000 0.000000 0.000000
# 2 -0.004533 0.025100 -0.005742 0.000000 0.000000 0.000000
# 3 -0.002858 -0.005742 0.019874 0.000000 0.000000 0.000000
# 4 0.000000 0.000000 0.000000 0.031690 0.000000 0.000000
# 5 0.000000 0.000000 0.000000 0.000000 0.028606 0.000000
# 6 0.000000 0.000000 0.000000 0.000000 0.000000 0.069173
#
#
# Mechanical properties :
#
#
# Convention : Reuss Voigt Hill
#
# Bulk Modulus (GPa) = 30.22569 31.51177 30.86873
# Shear Modulus (GPa) = 22.11310 24.99999 23.55655
#
# Velocity S-wave (km/s) = 3.20286 3.40551 3.30574
# Velocity P-wave (km/s) = 5.26303 5.48468 5.37499
#
# Compressibility (1/GPa) = 0.03308444
#
# Stress axis : x y z
#
# Youngs Moduli (GPa) = 69.56533 39.83986 50.31752
#
# Poissons Ratio (x) = 0.18061 0.14378
# Poissons Ratio (y) = 0.31537 0.28890
# Poissons Ratio (z) = 0.19878 0.22874
#
# Static dielectric constant tensor:
#      x y z
#    x 1.753050 0.000000 0.000000 
#    y 0.000000 1.765150 0.000000 
#    z 0.000000 0.000000 1.847270 
# 
# From -- ./inp_files/4796.got.cif
#   From: 2010.05.17/outbox.cif.g08.bks.cpg/sg21_3_cif.got.tgz:4796.got - 2010.06.03 23:14:55.
