data_PCOD9325384
_publ_section_title
;
Structure prediction by ZEFSAII (Michael W. Deem and Ramdas Pophale) SiO2 
 PCOD9325384
Probable space group: C 2 2 2
;
_chemical_formula_sum "Si O2"
_cell_formula_units_Z 28
_cell_length_a 11.118191
_cell_length_b 20.639181
_cell_length_c 5.106395
_cell_angle_alpha 90.000000
_cell_angle_beta 90.000000
_cell_angle_gamma 90.000000
_cell_volume 1171.766281
_symmetry_space_group_name_H-M "C 2 2 2"
_symmetry_group_IT_number 21
_symmetry_cell_setting 'orthorhombic'
loop_
_space_group_symop_operation_xyz
x,y,z
-x,-y,z
x,-y,-z
-x,y,-z
1/2+x,1/2+y,z
1/2-x,1/2-y,z
1/2+x,1/2-y,-z
1/2-x,1/2+y,-z
loop_
_atom_site_type_symbol
_atom_site_label
_atom_site_fract_x
_atom_site_fract_y
_atom_site_fract_z
Si Si1 0.173494 0.000000 0.000000
Si Si2 0.581087 0.634491 0.242836
Si Si3 0.812880 0.500000 0.500000
Si Si4 0.000000 0.308661 0.000000
Si Si5 0.250000 0.750000 0.810100
Si Si6 0.500000 0.105686 0.500000
O O1 0.114496 0.062138 0.143394
O O2 0.243919 0.972208 0.249805
O O3 0.500000 0.630018 0.500000
O O4 0.692507 0.682989 0.309560
O O5 0.500000 0.659669 0.000000
O O6 0.895511 0.441851 0.598265
O O7 0.871565 0.274485 0.948167
O O8 0.029564 0.350156 0.743798
#
# Coordination Sequence:
#
# PCOD9325384 Si02
#       6
#     4   8   4   4   4   4
#     4  12  25  47  76 116 164 217 276 343 412 505
#     4  12  28  50  80 119 163 221 277 340 418 499
#     4  11  22  42  73 114 158 211 268 331 416 497
#     4  12  28  47  78 111 160 216 274 348 408 492
#     4  12  28  54  80 122 164 220 286 342 422 500
#     4  11  24  44  72 114 158 211 268 338 418 489
#
# _framework density 23.895548999999999
#
# number of rings (size 3 to 8) (size 9 to 14) (size 15 to 20)
#    0.000    0.286    1.429    7.286    2.000    8.000 
#    0.000    0.000    0.000    0.000    0.000    0.000 
#    0.000    0.000    0.000    0.000    0.000    0.000 
#
# Total GULP energy -78084.433019 kJ/mol
# GULP energy per Si atom -5577.459501 kJ/mol
# Density = 2.384116 g / cm^3
# Si number density = 23.895549 Si / 1000 Ang^3
#
#
#
# Elastic Constant Matrix: (Units=GPa)
#
#
# Indices 1 2 3 4 5 6 
#
# 1 138.8725 83.9573 47.1078 0.0000 0.0000 0.0000
# 2 83.9573 159.5512 40.3861 0.0000 0.0000 0.0000
# 3 47.1078 40.3861 142.1050 0.0000 0.0000 0.0000
# 4 0.0000 0.0000 0.0000 439.7471 0.0000 0.0000
# 5 0.0000 0.0000 0.0000 0.0000 36.5888 0.0000
# 6 0.0000 0.0000 0.0000 0.0000 0.0000 94.8101
#
#
#
# Elastic Compliance Matrix: (Units=1/GPa)
#
#
# Indices 1 2 3 4 5 6 
#
# 1 0.011158 -0.005318 -0.002188 0.000000 0.000000 0.000000
# 2 -0.005318 0.009288 -0.000877 0.000000 0.000000 0.000000
# 3 -0.002188 -0.000877 0.008011 0.000000 0.000000 0.000000
# 4 0.000000 0.000000 0.000000 0.002274 0.000000 0.000000
# 5 0.000000 0.000000 0.000000 0.000000 0.027331 0.000000
# 6 0.000000 0.000000 0.000000 0.000000 0.000000 0.010547
#
#
# Mechanical properties :
#
#
# Convention : Reuss Voigt Hill
#
# Bulk Modulus (GPa) = 85.52112 87.04791 86.28451
# Shear Modulus (GPa) = 56.00961 132.16771 94.08866
#
# Velocity S-wave (km/s) = 4.84667 7.44518 6.28176
# Velocity P-wave (km/s) = 8.19680 10.50786 9.42345
#
# Compressibility (1/GPa) = 0.01169302
#
# Stress axis : x y z
#
# Youngs Moduli (GPa) = 89.62405 107.66964 124.82223
#
# Poissons Ratio (x) = 0.57254 0.27305
# Poissons Ratio (y) = 0.47658 0.10944
# Poissons Ratio (z) = 0.19606 0.09440
#
# Static dielectric constant tensor:
#      x y z
#    x 2.016030 0.000000 0.000000 
#    y 0.000000 1.963980 0.000000 
#    z 0.000000 0.000000 1.806130 
# 
# From -- ./inp_files/2380.got.cif
#   From: 2010.05.17/outbox.cif.g08.bks.cpg/sg21_2_cif.got.tgz:2380.got - 2010.06.03 23:14:55.
