data_PCOD9325746
_publ_section_title
;
Structure prediction by ZEFSAII (Michael W. Deem and Ramdas Pophale) SiO2 
 PCOD9325746
Probable space group: C 2 2 2
;
_chemical_formula_sum "Si O2"
_cell_formula_units_Z 48
_cell_length_a 16.378308
_cell_length_b 15.344578
_cell_length_c 8.356369
_cell_angle_alpha 90.000000
_cell_angle_beta 90.000000
_cell_angle_gamma 90.000000
_cell_volume 2100.107821
_symmetry_space_group_name_H-M "C 2 2 2"
_symmetry_group_IT_number 21
_symmetry_cell_setting 'orthorhombic'
loop_
_space_group_symop_operation_xyz
x,y,z
-x,-y,z
x,-y,-z
-x,y,-z
1/2+x,1/2+y,z
1/2-x,1/2-y,z
1/2+x,1/2-y,-z
1/2-x,1/2+y,-z
loop_
_atom_site_type_symbol
_atom_site_label
_atom_site_fract_x
_atom_site_fract_y
_atom_site_fract_z
Si Si1 0.753784 0.605206 0.627956
Si Si2 0.386555 0.649373 0.619965
Si Si3 0.500000 0.000000 0.000000
Si Si4 0.750000 0.250000 0.101404
Si Si5 0.415705 0.148271 0.421422
Si Si6 0.369498 0.129615 0.052451
Si Si7 0.798305 0.047674 0.854429
Si Si8 0.000000 0.000000 0.500000
O O1 0.684520 0.635965 0.507817
O O2 0.745234 0.669077 0.778005
O O3 0.839759 0.615788 0.532685
O O4 0.728516 0.512516 0.704184
O O5 0.418070 0.746025 0.588957
O O6 0.345310 0.631020 0.789036
O O7 0.447576 0.568111 0.601952
O O8 0.567838 0.926518 0.942842
O O9 0.665536 0.222855 0.008885
O O10 0.500000 0.116803 0.500000
O O11 0.405095 0.124852 0.233698
O O12 0.284626 0.080573 0.069248
O O13 0.844024 0.000000 0.000000
#
# Coordination Sequence:
#
# PCOD9325746 Si02
#       8
#     8   8   2   4   8   8   8   2
#     4  12  24  43  73 105 138 190 246 297 360 448
#     4  12  24  47  71 100 139 186 242 303 362 432
#     4  12  28  52  70 112 164 188 238 324 392 424
#     4  12  24  44  76 104 142 196 252 292 362 448
#     4  12  28  44  72 109 146 188 249 302 372 443
#     4  12  27  46  73 105 151 196 243 303 376 444
#     4  12  24  44  72 103 140 192 245 295 361 448
#     4  12  24  44  70  96 138 178 226 320 364 404
#
# _framework density 22.855969999999999
#
# number of rings (size 3 to 8) (size 9 to 14) (size 15 to 20)
#    0.000    0.000    8.333    1.000    4.667    0.000 
#    0.000    0.417    0.000    0.000    0.000    0.000 
#    0.000    0.000    0.000    0.000    0.000    0.000 
#
# Total GULP energy -133744.510328 kJ/mol
# GULP energy per Si atom -5572.687930 kJ/mol
# Density = 2.280395 g / cm^3
# Si number density = 22.855970 Si / 1000 Ang^3
#
#
#
# Elastic Constant Matrix: (Units=GPa)
#
#
# Indices 1 2 3 4 5 6 
#
# 1 100.2312 20.5551 31.0069 0.0000 0.0000 0.0000
# 2 20.5551 87.3433 32.2914 0.0000 0.0000 0.0000
# 3 31.0069 32.2914 122.3805 0.0000 0.0000 0.0000
# 4 0.0000 0.0000 0.0000 19.7522 0.0000 0.0000
# 5 0.0000 0.0000 0.0000 0.0000 24.1236 0.0000
# 6 0.0000 0.0000 0.0000 0.0000 0.0000 44.7841
#
#
#
# Elastic Compliance Matrix: (Units=1/GPa)
#
#
# Indices 1 2 3 4 5 6 
#
# 1 0.011058 -0.001736 -0.002344 0.000000 0.000000 0.000000
# 2 -0.001736 0.012959 -0.002980 0.000000 0.000000 0.000000
# 3 -0.002344 -0.002980 0.009551 0.000000 0.000000 0.000000
# 4 0.000000 0.000000 0.000000 0.050627 0.000000 0.000000
# 5 0.000000 0.000000 0.000000 0.000000 0.041453 0.000000
# 6 0.000000 0.000000 0.000000 0.000000 0.000000 0.022329
#
#
# Mechanical properties :
#
#
# Convention : Reuss Voigt Hill
#
# Bulk Modulus (GPa) = 51.41371 53.07354 52.24362
# Shear Modulus (GPa) = 29.65956 32.80542 31.23249
#
# Velocity S-wave (km/s) = 3.60623 3.79266 3.70062
# Velocity P-wave (km/s) = 6.31533 6.51539 6.41614
#
# Compressibility (1/GPa) = 0.01945007
#
# Stress axis : x y z
#
# Youngs Moduli (GPa) = 90.43275 77.16542 104.69844
#
# Poissons Ratio (x) = 0.13395 0.24538
# Poissons Ratio (y) = 0.15698 0.31196
# Poissons Ratio (z) = 0.21194 0.22992
#
# Static dielectric constant tensor:
#      x y z
#    x 1.906100 0.000000 0.000000 
#    y 0.000000 1.685940 0.000000 
#    z 0.000000 0.000000 1.951060 
# 
# From -- ./inp_files/16489.got.cif
#   From: 2010.05.17/outbox.cif.g08.bks.cpg/sg21_9_cif.got.tgz:16489.got - 2010.06.03 23:14:55.
