data_PCOD9325151
_publ_section_title
;
Structure prediction by ZEFSAII (Michael W. Deem and Ramdas Pophale) SiO2 
 PCOD9325151
Probable space group: C 2 2 2
;
_chemical_formula_sum "Si O2"
_cell_formula_units_Z 32
_cell_length_a 8.371943
_cell_length_b 28.968967
_cell_length_c 5.365164
_cell_angle_alpha 90.000000
_cell_angle_beta 90.000000
_cell_angle_gamma 90.000000
_cell_volume 1301.194664
_symmetry_space_group_name_H-M "C 2 2 2"
_symmetry_group_IT_number 21
_symmetry_cell_setting 'orthorhombic'
loop_
_space_group_symop_operation_xyz
x,y,z
-x,-y,z
x,-y,-z
-x,y,-z
1/2+x,1/2+y,z
1/2-x,1/2-y,z
1/2+x,1/2-y,-z
1/2-x,1/2+y,-z
loop_
_atom_site_type_symbol
_atom_site_label
_atom_site_fract_x
_atom_site_fract_y
_atom_site_fract_z
Si Si1 0.099493 0.342243 0.246177
Si Si2 0.174223 0.205849 0.895528
Si Si3 0.677741 0.389676 0.417420
Si Si4 0.684380 0.980587 0.752339
O O1 0.217804 0.382155 0.334995
O O2 0.000000 0.331326 0.500000
O O3 0.211693 0.302754 0.133700
O O4 0.000000 0.354842 0.000000
O O5 0.250000 0.250000 0.758747
O O6 0.167630 0.159366 0.728862
O O7 0.000000 0.215297 0.000000
O O8 0.500000 0.403350 0.500000
O O9 0.780138 0.426489 0.262014
O O10 0.500000 0.000000 0.751961
O O11 0.757923 0.000000 0.500000
O O12 0.760673 0.000000 0.000000
#
# Coordination Sequence:
#
# PCOD9325151 Si02
#       4
#     8   8   8   8
#     4  12  27  48  82 123 163 228 286 352 433 506
#     4  12  28  53  82 128 174 231 298 362 429 524
#     4  12  28  53  88 122 178 231 286 369 441 519
#     4  10  26  48  82 123 160 208 282 349 430 515
#
# _framework density 24.592787000000001
#
# number of rings (size 3 to 8) (size 9 to 14) (size 15 to 20)
#    0.000    0.500    5.000    0.750    7.000    3.500 
#    4.500    1.250    0.000    0.000    0.000    0.000 
#    0.000    0.000    0.000    0.000    0.000    0.000 
#
# Total GULP energy -89443.430489 kJ/mol
# GULP energy per Si atom -5590.214406 kJ/mol
# Density = 2.453681 g / cm^3
# Si number density = 24.592787 Si / 1000 Ang^3
#
#
#
# Elastic Constant Matrix: (Units=GPa)
#
#
# Indices 1 2 3 4 5 6 
#
# 1 177.6533 56.6757 56.3322 0.0000 0.0000 0.0000
# 2 56.6757 163.3587 49.1774 0.0000 0.0000 0.0000
# 3 56.3322 49.1774 185.8808 0.0000 0.0000 0.0000
# 4 0.0000 0.0000 0.0000 46.2309 0.0000 0.0000
# 5 0.0000 0.0000 0.0000 0.0000 16.4184 0.0000
# 6 0.0000 0.0000 0.0000 0.0000 0.0000 40.9756
#
#
#
# Elastic Compliance Matrix: (Units=1/GPa)
#
#
# Indices 1 2 3 4 5 6 
#
# 1 0.006713 -0.001865 -0.001541 0.000000 0.000000 0.000000
# 2 -0.001865 0.007169 -0.001332 0.000000 0.000000 0.000000
# 3 -0.001541 -0.001332 0.006199 0.000000 0.000000 0.000000
# 4 0.000000 0.000000 0.000000 0.021631 0.000000 0.000000
# 5 0.000000 0.000000 0.000000 0.000000 0.060907 0.000000
# 6 0.000000 0.000000 0.000000 0.000000 0.000000 0.024405
#
#
# Mechanical properties :
#
#
# Convention : Reuss Voigt Hill
#
# Bulk Modulus (GPa) = 94.28512 94.58481 94.43497
# Shear Modulus (GPa) = 35.70568 45.03882 40.37225
#
# Velocity S-wave (km/s) = 3.81448 4.28411 4.05610
# Velocity P-wave (km/s) = 7.60409 7.93822 7.77295
#
# Compressibility (1/GPa) = 0.01060613
#
# Stress axis : x y z
#
# Youngs Moduli (GPa) = 148.97563 139.48190 161.31521
#
# Poissons Ratio (x) = 0.26013 0.24856
# Poissons Ratio (y) = 0.27784 0.21480
# Poissons Ratio (z) = 0.22955 0.18573
#
# Static dielectric constant tensor:
#      x y z
#    x 1.932800 0.000000 0.000000 
#    y 0.000000 2.091280 0.000000 
#    z 0.000000 0.000000 2.011010 
# 
# From -- ./inp_files/1471.got.cif
#   From: 2010.05.17/outbox.cif.g08.bks.cpg/sg21_1_cif.got.tgz:1471.got - 2010.06.03 23:14:55.
