data_PCOD9325948
_publ_section_title
;
Structure prediction by ZEFSAII (Michael W. Deem and Ramdas Pophale) SiO2 
 PCOD9325948
Probable space group: F 2 2 2
;
_chemical_formula_sum "Si O2"
_cell_formula_units_Z 72
_cell_length_a 26.006238
_cell_length_b 13.958266
_cell_length_c 7.661958
_cell_angle_alpha 90.000000
_cell_angle_beta 90.000000
_cell_angle_gamma 90.000000
_cell_volume 2781.305983
_symmetry_space_group_name_H-M "F 2 2 2"
_symmetry_group_IT_number 22
_symmetry_cell_setting 'orthorhombic'
loop_
_space_group_symop_operation_xyz
x,y,z
-x,-y,z
x,-y,-z
-x,y,-z
x,1/2+y,1/2+z
-x,1/2-y,1/2+z
x,1/2-y,1/2-z
-x,1/2+y,1/2-z
1/2+x,y,1/2+z
1/2-x,-y,1/2+z
1/2+x,-y,1/2-z
1/2-x,y,1/2-z
1/2+x,1/2+y,z
1/2-x,1/2-y,z
1/2+x,1/2-y,-z
1/2-x,1/2+y,-z
loop_
_atom_site_type_symbol
_atom_site_label
_atom_site_fract_x
_atom_site_fract_y
_atom_site_fract_z
Si Si1 0.448530 0.340195 0.563357
Si Si2 0.820152 0.500000 0.000000
Si Si3 0.917205 0.980717 0.259409
Si Si4 0.376509 0.314357 0.069140
Si Si5 0.262585 0.359809 0.049039
O O1 0.500000 0.285636 0.500000
O O2 0.445165 0.414630 0.402942
O O3 0.441724 0.413378 0.725564
O O4 0.402240 0.264959 0.553401
O O5 0.859221 0.485651 0.839453
O O6 0.780648 0.417149 0.052803
O O7 0.912747 0.906564 0.101171
O O8 0.368118 0.250000 0.250000
O O9 0.322895 0.361973 0.011867
O O10 0.250000 0.387811 0.250000
O O11 0.250000 0.250000 0.031079
#
# Coordination Sequence:
#
# PCOD9325948 Si02
#       5
#    16   8  16  16  16
#     4   9  17  29  49  76 105 138 184 237 276 322
#     4  10  18  28  49  82 111 142 174 234 278 338
#     4   9  16  28  47  79 109 137 181 231 277 337
#     4  10  17  29  50  79 106 141 187 228 273 344
#     4  11  17  29  51  78 109 138 180 224 275 336
#
# _framework density 25.887119999999999
#
# number of rings (size 3 to 8) (size 9 to 14) (size 15 to 20)
#    0.000    2.444    4.444    4.000    0.000    0.000 
#    0.000    0.000    0.000   14.000    0.000    0.000 
#    0.000    0.000    0.000    0.000    0.000    0.000 
#
# Total GULP energy -100383.537138 kJ/mol
# GULP energy per Si atom -5576.863174 kJ/mol
# Density = 2.582820 g / cm^3
# Si number density = 25.887120 Si / 1000 Ang^3
#
#
#
# Elastic Constant Matrix: (Units=GPa)
#
#
# Indices 1 2 3 4 5 6 
#
# 1 121.8360 27.2736 20.5670 0.0000 0.0000 0.0000
# 2 27.2736 84.7127 34.7791 0.0000 0.0000 0.0000
# 3 20.5670 34.7791 60.1553 0.0000 0.0000 0.0000
# 4 0.0000 0.0000 0.0000 28.6401 0.0000 0.0000
# 5 0.0000 0.0000 0.0000 0.0000 -4.7871 0.0000
# 6 0.0000 0.0000 0.0000 0.0000 0.0000 48.8820
#
#
#
# Elastic Compliance Matrix: (Units=1/GPa)
#
#
# Indices 1 2 3 4 5 6 
#
# 1 0.008998 -0.002142 -0.001838 0.000000 0.000000 0.000000
# 2 -0.002142 0.015989 -0.008512 0.000000 0.000000 0.000000
# 3 -0.001838 -0.008512 0.022173 0.000000 0.000000 0.000000
# 4 0.000000 0.000000 0.000000 0.034916 0.000000 0.000000
# 5 0.000000 0.000000 0.000000 0.000000 -0.208894 0.000000
# 6 0.000000 0.000000 0.000000 0.000000 0.000000 0.020457
#
#
# Mechanical properties :
#
#
# Convention : Reuss Voigt Hill
#
# Bulk Modulus (GPa) = 45.09337 47.99370 46.54354
# Shear Modulus (GPa) = -67.58040 26.81928 -20.38056
#
# Velocity S-wave (km/s) = -5.11493 3.22220 -2.80891
# Velocity P-wave (km/s) = 4.17448 5.69415 2.73834
#
# Compressibility (1/GPa) = 0.02217621
#
# Stress axis : x y z
#
# Youngs Moduli (GPa) = 111.14149 62.54378 45.10005
#
# Poissons Ratio (x) = 0.13399 0.08288
# Poissons Ratio (y) = 0.23810 0.38387
# Poissons Ratio (z) = 0.20424 0.53234
#
# Static dielectric constant tensor:
#      x y z
#    x 2.194870 0.000000 0.000000 
#    y 0.000000 1.964210 0.000000 
#    z 0.000000 0.000000 2.100410 
# 
# From -- ./inp_files/23481.got.cif
#   From: 2010.05.17/outbox.cif.g08.bks.cpg/sg22_12_cif.got.tgz:23481.got - 2010.06.03 23:40:54.
