data_PCOD9325857
_publ_section_title
;
Structure prediction by ZEFSAII (Michael W. Deem and Ramdas Pophale) SiO2 
 PCOD9325857
Probable space group: C 2 2 2
;
_chemical_formula_sum "Si O2"
_cell_formula_units_Z 20
_cell_length_a 9.000000
_cell_length_b 18.000000
_cell_length_c 12.000000
_cell_angle_alpha 90.000000
_cell_angle_beta 90.000000
_cell_angle_gamma 90.000000
_cell_volume 1944.000000
_symmetry_space_group_name_H-M "C 2 2 2"
_symmetry_group_IT_number 21
_symmetry_cell_setting 'orthorhombic'
loop_
_space_group_symop_operation_xyz
x,y,z
-x,-y,z
x,-y,-z
-x,y,-z
1/2+x,1/2+y,z
1/2-x,1/2-y,z
1/2+x,1/2-y,-z
1/2-x,1/2+y,-z
loop_
_atom_site_type_symbol
_atom_site_label
_atom_site_fract_x
_atom_site_fract_y
_atom_site_fract_z
Si Si1 0.867824 0.314320 0.418345
Si Si2 0.887577 0.614396 0.828288
Si Si3 0.343873 0.418898 0.448858
Si Si4 0.666856 0.468195 0.806487
Si Si5 0.708318 0.163196 0.937808
O O1 0.750000 0.250000 0.394114
O O2 0.897296 0.352786 0.297576
O O3 0.787362 0.372089 0.499660
O O4 0.000000 0.286783 0.500000
O O5 0.798334 0.533032 0.819083
O O6 0.054722 0.630543 0.879727
O O7 0.798280 0.656326 0.927504
O O8 0.331571 0.500000 0.500000
O O9 0.500000 0.389620 0.500000
O O10 0.330467 0.430398 0.316672
O O11 0.500000 0.500000 0.817365
O O12 0.681824 0.400408 0.893105
O O13 0.750000 0.250000 0.909320
#
# Coordination Sequence:
#
# PCOD9325857 Si02
#       5
#     8   8   8   8   8
#     4  12  26  42  68 102 136 177 224 283 350 420
#     4  11  25  48  70  98 139 186 231 288 348 418
#     4  11  21  43  67  98 135 176 220 279 343 411
#     4  12  24  43  75 105 137 182 236 289 345 422
#     4  11  27  47  70 100 139 184 236 290 350 415
#
# _framework density 10.288066000000001
#
# number of rings (size 3 to 8) (size 9 to 14) (size 15 to 20)
#    0.000    0.600    4.000    3.600    0.000   13.200 
#    0.000    0.000    0.000    0.000    0.000    0.000 
#    0.000    0.000    0.000    0.000    0.000    0.000 
#
# Total GULP energy -111412.004723 kJ/mol
# GULP energy per Si atom -5570.600236 kJ/mol
# Density = 1.026465 g / cm^3
# Si number density = 10.288066 Si / 1000 Ang^3
#
#
#
# Elastic Constant Matrix: (Units=GPa)
#
#
# Indices 1 2 3 4 5 6 
#
# 1 74.0199 35.2895 39.1516 0.0000 0.0000 0.0000
# 2 35.2895 114.4404 52.1566 0.0000 0.0000 0.0000
# 3 39.1516 52.1566 140.8574 0.0000 0.0000 0.0000
# 4 0.0000 0.0000 0.0000 -2.2604 0.0000 0.0000
# 5 0.0000 0.0000 0.0000 0.0000 47.7390 0.0000
# 6 0.0000 0.0000 0.0000 0.0000 0.0000 -12.4879
#
#
#
# Elastic Compliance Matrix: (Units=1/GPa)
#
#
# Indices 1 2 3 4 5 6 
#
# 1 0.017067 -0.003730 -0.003362 0.000000 0.000000 0.000000
# 2 -0.003730 0.011328 -0.003157 0.000000 0.000000 0.000000
# 3 -0.003362 -0.003157 0.009203 0.000000 0.000000 0.000000
# 4 0.000000 0.000000 0.000000 -0.442393 0.000000 0.000000
# 5 0.000000 0.000000 0.000000 0.000000 0.020947 0.000000
# 6 0.000000 0.000000 0.000000 0.000000 0.000000 -0.080078
#
#
# Mechanical properties :
#
#
# Convention : Reuss Voigt Hill
#
# Bulk Modulus (GPa) = 58.49029 64.72367 61.60698
# Shear Modulus (GPa) = -11.42267 20.11281 4.34507
#
# Velocity S-wave (km/s) = -2.35870 3.12986 1.45475
# Velocity P-wave (km/s) = 4.59021 6.67723 5.72955
#
# Compressibility (1/GPa) = 0.01709685
#
# Stress axis : x y z
#
# Youngs Moduli (GPa) = 58.59295 88.28051 108.65860
#
# Poissons Ratio (x) = 0.32932 0.36536
# Poissons Ratio (y) = 0.21857 0.34309
# Poissons Ratio (z) = 0.19702 0.27874
#
# Static dielectric constant tensor:
#      x y z
#    x 2.133150 0.000000 0.000000 
#    y 0.000000 1.690870 0.000000 
#    z 0.000000 0.000000 2.977410 
# 
# From -- ./inp_files/22259.got.cif
#   From: 2010.05.17/outbox.ucp.g08.bks.cvg/sg21_12_cif.got.tgz:22259.got - 2010.06.11 15:15:05.
