data_PCOD9325615
_publ_section_title
;
Structure prediction by ZEFSAII (Michael W. Deem and Ramdas Pophale) SiO2 
 PCOD9325615
Probable space group: C 2 2 2
;
_chemical_formula_sum "Si O2"
_cell_formula_units_Z 32
_cell_length_a 9.566500
_cell_length_b 24.877643
_cell_length_c 5.586922
_cell_angle_alpha 90.000000
_cell_angle_beta 90.000000
_cell_angle_gamma 90.000000
_cell_volume 1329.642583
_symmetry_space_group_name_H-M "C 2 2 2"
_symmetry_group_IT_number 21
_symmetry_cell_setting 'orthorhombic'
loop_
_space_group_symop_operation_xyz
x,y,z
-x,-y,z
x,-y,-z
-x,y,-z
1/2+x,1/2+y,z
1/2-x,1/2-y,z
1/2+x,1/2-y,-z
1/2-x,1/2+y,-z
loop_
_atom_site_type_symbol
_atom_site_label
_atom_site_fract_x
_atom_site_fract_y
_atom_site_fract_z
Si Si1 0.917491 0.584246 0.247538
Si Si2 0.000000 0.919978 0.500000
Si Si3 0.819813 0.833129 0.290771
Si Si4 0.500000 0.748730 0.000000
Si Si5 0.750000 0.750000 0.693842
Si Si6 0.731827 0.500000 0.500000
O O1 0.822696 0.637582 0.222220
O O2 0.823752 0.531397 0.306252
O O3 0.000000 0.590245 0.500000
O O4 0.000000 0.577314 0.000000
O O5 0.069777 0.881025 0.690165
O O6 0.875099 0.955861 0.605292
O O7 0.882739 0.789123 0.117997
O O8 0.803873 0.800293 0.536724
O O9 0.393941 0.774554 0.189057
#
# Coordination Sequence:
#
# PCOD9325615 Si02
#       6
#     8   4   8   4   4   4
#     4  11  27  48  75 114 161 203 259 323 404 478
#     4   9  18  46  76 108 144 194 256 321 388 462
#     4  11  25  47  73 107 154 198 261 329 390 475
#     4  12  26  46  76 105 148 212 263 338 398 476
#     4  12  26  48  72 110 154 200 274 332 400 476
#     4   9  21  42  80 108 149 201 256 326 386 464
#
# _framework density 24.066617000000001
#
# number of rings (size 3 to 8) (size 9 to 14) (size 15 to 20)
#    0.000    1.250    2.500    1.125    3.500    6.000 
#    2.250    2.500    2.750    7.500    0.000    0.000 
#    0.000    0.000    0.000    0.000    0.000    0.000 
#
# Total GULP energy -89353.653510 kJ/mol
# GULP energy per Si atom -5584.603344 kJ/mol
# Density = 2.401184 g / cm^3
# Si number density = 24.066617 Si / 1000 Ang^3
#
#
#
# Elastic Constant Matrix: (Units=GPa)
#
#
# Indices 1 2 3 4 5 6 
#
# 1 144.7042 39.7626 64.8104 0.0000 0.0000 0.0000
# 2 39.7626 57.3977 24.9891 0.0000 0.0000 0.0000
# 3 64.8104 24.9891 94.5308 0.0000 0.0000 0.0000
# 4 0.0000 0.0000 0.0000 23.8283 0.0000 0.0000
# 5 0.0000 0.0000 0.0000 0.0000 29.2743 0.0000
# 6 0.0000 0.0000 0.0000 0.0000 0.0000 46.6272
#
#
#
# Elastic Compliance Matrix: (Units=1/GPa)
#
#
# Indices 1 2 3 4 5 6 
#
# 1 0.011088 -0.004940 -0.006296 0.000000 0.000000 0.000000
# 2 -0.004940 0.021889 -0.002399 0.000000 0.000000 0.000000
# 3 -0.006296 -0.002399 0.015529 0.000000 0.000000 0.000000
# 4 0.000000 0.000000 0.000000 0.041967 0.000000 0.000000
# 5 0.000000 0.000000 0.000000 0.000000 0.034160 0.000000
# 6 0.000000 0.000000 0.000000 0.000000 0.000000 0.021447
#
#
# Mechanical properties :
#
#
# Convention : Reuss Voigt Hill
#
# Bulk Modulus (GPa) = 47.09107 61.75075 54.42091
# Shear Modulus (GPa) = 27.71163 31.08400 29.39781
#
# Velocity S-wave (km/s) = 3.39699 3.59776 3.49881
# Velocity P-wave (km/s) = 5.91570 6.55534 6.24371
#
# Compressibility (1/GPa) = 0.02123545
#
# Stress axis : x y z
#
# Youngs Moduli (GPa) = 90.18752 45.68445 64.39400
#
# Poissons Ratio (x) = 0.22569 0.40543
# Poissons Ratio (y) = 0.44554 0.15451
# Poissons Ratio (z) = 0.56782 0.10962
#
# Static dielectric constant tensor:
#      x y z
#    x 1.955050 0.000000 0.000000 
#    y 0.000000 1.956640 0.000000 
#    z 0.000000 0.000000 2.020090 
# 
# From -- ./inp_files/1647.got.cif
#   From: 2010.05.17/outbox.cif.g08.bks.cpg/sg21_1_cif.got.tgz:1647.got - 2010.06.03 23:14:55.
