data_PCOD9325154
_publ_section_title
;
Structure prediction by ZEFSAII (Michael W. Deem and Ramdas Pophale) SiO2 
 PCOD9325154
Probable space group: C 2 2 2
;
_chemical_formula_sum "Si O2"
_cell_formula_units_Z 48
_cell_length_a 23.437268
_cell_length_b 17.613943
_cell_length_c 5.799455
_cell_angle_alpha 90.000000
_cell_angle_beta 90.000000
_cell_angle_gamma 90.000000
_cell_volume 2394.146687
_symmetry_space_group_name_H-M "C 2 2 2"
_symmetry_group_IT_number 21
_symmetry_cell_setting 'orthorhombic'
loop_
_space_group_symop_operation_xyz
x,y,z
-x,-y,z
x,-y,-z
-x,y,-z
1/2+x,1/2+y,z
1/2-x,1/2-y,z
1/2+x,1/2-y,-z
1/2-x,1/2+y,-z
loop_
_atom_site_type_symbol
_atom_site_label
_atom_site_fract_x
_atom_site_fract_y
_atom_site_fract_z
Si Si1 0.398362 0.214119 0.735465
Si Si2 0.735885 0.559061 0.796262
Si Si3 0.095069 0.842102 0.658685
Si Si4 0.000000 0.213111 0.000000
Si Si5 0.631299 0.500000 0.500000
Si Si6 0.697279 0.705825 0.038352
Si Si7 0.365752 0.040544 0.736445
O O1 0.400577 0.269033 0.510560
O O2 0.456798 0.235516 0.859116
O O3 0.393445 0.123932 0.725829
O O4 0.344941 0.241343 0.891634
O O5 0.677249 0.531863 0.682280
O O6 0.798219 0.554648 0.684944
O O7 0.742812 0.500000 0.000000
O O8 0.726054 0.644786 0.872741
O O9 0.041220 0.833095 0.828087
O O10 0.093710 0.925916 0.551969
O O11 0.155517 0.838867 0.791785
O O12 0.750000 0.750000 0.153997
O O13 0.387352 0.000000 0.500000
O O14 0.372132 0.000000 0.000000
#
# Coordination Sequence:
#
# PCOD9325154 Si02
#       7
#     8   8   8   4   4   8   8
#     4  11  24  45  72  95 134 182 241 293 361 423
#     4  11  21  37  59  99 150 183 216 279 347 435
#     4  11  25  42  72  96 138 186 238 297 356 428
#     4  10  26  50  70  94 128 184 242 316 355 409
#     4  12  22  38  65 102 140 186 221 284 358 434
#     4  11  22  37  64 104 138 183 232 275 347 434
#     4  11  26  43  71 109 149 189 230 294 366 442
#
# _framework density 20.048898000000001
#
# number of rings (size 3 to 8) (size 9 to 14) (size 15 to 20)
#    0.000    1.000    5.833    0.500    4.667    2.000 
#    0.000    2.917    0.000    0.000    0.000    0.000 
#    0.000    0.000    0.000    0.000    0.000    0.000 
#
# Total GULP energy -133632.860972 kJ/mol
# GULP energy per Si atom -5568.035874 kJ/mol
# Density = 2.000327 g / cm^3
# Si number density = 20.048898 Si / 1000 Ang^3
#
#
#
# Elastic Constant Matrix: (Units=GPa)
#
#
# Indices 1 2 3 4 5 6 
#
# 1 97.4674 23.8350 18.4770 0.0000 0.0000 0.0000
# 2 23.8350 127.2426 33.1978 0.0000 0.0000 0.0000
# 3 18.4770 33.1978 55.7397 0.0000 0.0000 0.0000
# 4 0.0000 0.0000 0.0000 7.3295 0.0000 0.0000
# 5 0.0000 0.0000 0.0000 0.0000 44.0333 0.0000
# 6 0.0000 0.0000 0.0000 0.0000 0.0000 10.8629
#
#
#
# Elastic Compliance Matrix: (Units=1/GPa)
#
#
# Indices 1 2 3 4 5 6 
#
# 1 0.011135 -0.001329 -0.002899 0.000000 0.000000 0.000000
# 2 -0.001329 0.009464 -0.005196 0.000000 0.000000 0.000000
# 3 -0.002899 -0.005196 0.021996 0.000000 0.000000 0.000000
# 4 0.000000 0.000000 0.000000 0.136434 0.000000 0.000000
# 5 0.000000 0.000000 0.000000 0.000000 0.022710 0.000000
# 6 0.000000 0.000000 0.000000 0.000000 0.000000 0.092056
#
#
# Mechanical properties :
#
#
# Convention : Reuss Voigt Hill
#
# Bulk Modulus (GPa) = 42.11293 47.94102 45.02697
# Shear Modulus (GPa) = 15.59779 26.10781 20.85280
#
# Velocity S-wave (km/s) = 2.79227 3.61252 3.22855
# Velocity P-wave (km/s) = 5.60771 6.43152 6.03369
#
# Compressibility (1/GPa) = 0.02374568
#
# Stress axis : x y z
#
# Youngs Moduli (GPa) = 89.81077 105.66823 45.46257
#
# Poissons Ratio (x) = 0.14046 0.13181
# Poissons Ratio (y) = 0.11939 0.23621
# Poissons Ratio (z) = 0.26038 0.54902
#
# Static dielectric constant tensor:
#      x y z
#    x 1.733280 0.000000 0.000000 
#    y 0.000000 1.680250 0.000000 
#    z 0.000000 0.000000 1.782340 
# 
# From -- ./inp_files/7356.got.cif
#   From: 2010.05.17/outbox.cif.g08.bks.cpg/sg21_4_cif.got.tgz:7356.got - 2010.06.03 23:14:55.
