data_PCOD9325319
_publ_section_title
;
Structure prediction by ZEFSAII (Michael W. Deem and Ramdas Pophale) SiO2 
 PCOD9325319
Probable space group: C 2 2 2
;
_chemical_formula_sum "Si O2"
_cell_formula_units_Z 24
_cell_length_a 8.459713
_cell_length_b 13.917557
_cell_length_c 8.056004
_cell_angle_alpha 90.000000
_cell_angle_beta 90.000000
_cell_angle_gamma 90.000000
_cell_volume 948.502132
_symmetry_space_group_name_H-M "C 2 2 2"
_symmetry_group_IT_number 21
_symmetry_cell_setting 'orthorhombic'
loop_
_space_group_symop_operation_xyz
x,y,z
-x,-y,z
x,-y,-z
-x,y,-z
1/2+x,1/2+y,z
1/2-x,1/2-y,z
1/2+x,1/2-y,-z
1/2-x,1/2+y,-z
loop_
_atom_site_type_symbol
_atom_site_label
_atom_site_fract_x
_atom_site_fract_y
_atom_site_fract_z
Si Si1 0.621307 0.170253 0.359931
Si Si2 0.392357 0.302886 0.141741
Si Si3 0.312168 0.495031 0.196875
O O1 0.500000 0.137313 0.500000
O O2 0.750000 0.250000 0.416543
O O3 0.508654 0.231262 0.235116
O O4 0.713415 0.078342 0.284911
O O5 0.250000 0.250000 0.050480
O O6 0.297388 0.382709 0.247001
O O7 0.500000 0.350269 0.000000
O O8 0.500000 0.500000 0.231641
O O9 0.271858 0.500000 0.000000
#
# Coordination Sequence:
#
# PCOD9325319 Si02
#       3
#     8   8   8
#     4  12  26  49  77 120 165 214 268 325 412 494
#     4  12  24  45  79 118 159 207 269 339 400 477
#     4  11  21  45  84 117 151 206 273 338 402 466
#
# _framework density 25.303049999999999
#
# number of rings (size 3 to 8) (size 9 to 14) (size 15 to 20)
#    0.000    0.333    6.667    4.000    0.000    1.333 
#    0.000   16.667    0.000    0.000    0.000    0.000 
#    0.000    0.000    0.000    0.000    0.000    0.000 
#
# Total GULP energy -67012.579205 kJ/mol
# GULP energy per Si atom -5584.381600 kJ/mol
# Density = 2.524546 g / cm^3
# Si number density = 25.303050 Si / 1000 Ang^3
#
#
#
# Elastic Constant Matrix: (Units=GPa)
#
#
# Indices 1 2 3 4 5 6 
#
# 1 173.4454 123.0044 83.9199 0.0000 0.0000 0.0000
# 2 123.0044 203.1277 73.0085 0.0000 0.0000 0.0000
# 3 83.9199 73.0085 94.3815 0.0000 0.0000 0.0000
# 4 0.0000 0.0000 0.0000 39.2147 0.0000 0.0000
# 5 0.0000 0.0000 0.0000 0.0000 37.6222 0.0000
# 6 0.0000 0.0000 0.0000 0.0000 0.0000 26.4610
#
#
#
# Elastic Compliance Matrix: (Units=1/GPa)
#
#
# Indices 1 2 3 4 5 6 
#
# 1 0.013189 -0.005224 -0.007686 0.000000 0.000000 0.000000
# 2 -0.005224 0.008888 -0.002230 0.000000 0.000000 0.000000
# 3 -0.007686 -0.002230 0.019155 0.000000 0.000000 0.000000
# 4 0.000000 0.000000 0.000000 0.025501 0.000000 0.000000
# 5 0.000000 0.000000 0.000000 0.000000 0.026580 0.000000
# 6 0.000000 0.000000 0.000000 0.000000 0.000000 0.037792
#
#
# Mechanical properties :
#
#
# Convention : Reuss Voigt Hill
#
# Bulk Modulus (GPa) = 91.31693 114.53559 102.92626
# Shear Modulus (GPa) = 30.29642 33.39436 31.84539
#
# Velocity S-wave (km/s) = 3.46402 3.63681 3.55147
# Velocity P-wave (km/s) = 7.22266 7.93719 7.58834
#
# Compressibility (1/GPa) = 0.01095087
#
# Stress axis : x y z
#
# Youngs Moduli (GPa) = 75.81886 112.50926 52.20650
#
# Poissons Ratio (x) = 0.58778 0.40127
# Poissons Ratio (y) = 0.39610 0.11643
# Poissons Ratio (z) = 0.58276 0.25092
#
# Static dielectric constant tensor:
#      x y z
#    x 2.007140 0.000000 0.000000 
#    y 0.000000 2.309410 0.000000 
#    z 0.000000 0.000000 2.045220 
# 
# From -- ./inp_files/9777.got.cif
#   From: 2010.05.17/outbox.cif.g08.bks.cpg/sg21_5_cif.got.tgz:9777.got - 2010.06.03 23:14:55.
