data_PCOD9325938
_publ_section_title
;
Structure prediction by ZEFSAII (Michael W. Deem and Ramdas Pophale) SiO2 
 PCOD9325938
Probable space group: F 2 2 2
;
_chemical_formula_sum "Si O2"
_cell_formula_units_Z 60
_cell_length_a 15.117873
_cell_length_b 15.338968
_cell_length_c 12.387428
_cell_angle_alpha 90.000000
_cell_angle_beta 90.000000
_cell_angle_gamma 90.000000
_cell_volume 2872.552517
_symmetry_space_group_name_H-M "F 2 2 2"
_symmetry_group_IT_number 22
_symmetry_cell_setting 'orthorhombic'
loop_
_space_group_symop_operation_xyz
x,y,z
-x,-y,z
x,-y,-z
-x,y,-z
x,1/2+y,1/2+z
-x,1/2-y,1/2+z
x,1/2-y,1/2-z
-x,1/2+y,1/2-z
1/2+x,y,1/2+z
1/2-x,-y,1/2+z
1/2+x,-y,1/2-z
1/2-x,y,1/2-z
1/2+x,1/2+y,z
1/2-x,1/2-y,z
1/2+x,1/2-y,-z
1/2-x,1/2+y,-z
loop_
_atom_site_type_symbol
_atom_site_label
_atom_site_fract_x
_atom_site_fract_y
_atom_site_fract_z
Si Si1 0.667950 0.656080 0.310297
Si Si2 0.027730 0.875844 0.322473
Si Si3 0.000000 0.000000 0.500000
Si Si4 0.250000 0.250000 0.505585
Si Si5 0.930591 0.181454 0.095915
O O1 0.654192 0.750000 0.250000
O O2 0.750000 0.612224 0.250000
O O3 0.576599 0.607201 0.307260
O O4 0.698623 0.682220 0.428847
O O5 0.055913 0.938186 0.419905
O O6 0.067137 0.878769 0.202573
O O7 0.036579 0.777172 0.365803
O O8 0.171428 0.301994 0.564085
O O9 0.000000 0.155301 0.000000
#
# Coordination Sequence:
#
# PCOD9325938 Si02
#       5
#    16  16   4   8  16
#     4   9  15  30  57  89 113 154 202 247 290 346
#     4  11  21  36  59  82 123 159 199 244 294 370
#     4  12  24  40  58  80 120 174 198 230 324 368
#     4  10  17  27  56  92 122 138 197 269 286 328
#     4  11  19  36  61  96 115 154 207 253 292 344
#
# _framework density 20.887345
#
# number of rings (size 3 to 8) (size 9 to 14) (size 15 to 20)
#    0.000    1.867    6.667    1.600    0.000    2.133 
#    0.000    0.667   11.733    0.000    0.000    0.000 
#    0.000    0.000    0.000    0.000    0.000    0.000 
#
# Total GULP energy -83582.391066 kJ/mol
# GULP energy per Si atom -5572.159404 kJ/mol
# Density = 2.083980 g / cm^3
# Si number density = 20.887345 Si / 1000 Ang^3
#
#
#
# Elastic Constant Matrix: (Units=GPa)
#
#
# Indices 1 2 3 4 5 6 
#
# 1 144.3017 0.4038 69.3637 0.0000 0.0000 0.0000
# 2 0.4038 37.0245 35.5481 0.0000 0.0000 0.0000
# 3 69.3637 35.5481 176.5608 0.0000 0.0000 0.0000
# 4 0.0000 0.0000 0.0000 33.1287 0.0000 0.0000
# 5 0.0000 0.0000 0.0000 0.0000 1.8413 0.0000
# 6 0.0000 0.0000 0.0000 0.0000 0.0000 0.7981
#
#
#
# Elastic Compliance Matrix: (Units=1/GPa)
#
#
# Indices 1 2 3 4 5 6 
#
# 1 0.009018 0.004095 -0.004367 0.000000 0.000000 0.000000
# 2 0.004095 0.035341 -0.008724 0.000000 0.000000 0.000000
# 3 -0.004367 -0.008724 0.009136 0.000000 0.000000 0.000000
# 4 0.000000 0.000000 0.000000 0.030185 0.000000 0.000000
# 5 0.000000 0.000000 0.000000 0.000000 0.543093 0.000000
# 6 0.000000 0.000000 0.000000 0.000000 0.000000 1.252935
#
#
# Mechanical properties :
#
#
# Convention : Reuss Voigt Hill
#
# Bulk Modulus (GPa) = 28.16804 63.16870 45.66837
# Shear Modulus (GPa) = 2.61844 23.99171 13.30508
#
# Velocity S-wave (km/s) = 1.12086 3.39281 2.52661
# Velocity P-wave (km/s) = 3.89744 6.75696 5.51573
#
# Compressibility (1/GPa) = 0.03550123
#
# Stress axis : x y z
#
# Youngs Moduli (GPa) = 110.89361 28.29610 109.45876
#
# Poissons Ratio (x) = -0.11586 0.47801
# Poissons Ratio (y) = -0.45406 0.95491
# Poissons Ratio (z) = 0.48428 0.24685
#
# Static dielectric constant tensor:
#      x y z
#    x 1.834040 0.000000 0.000000 
#    y 0.000000 1.793970 0.000000 
#    z 0.000000 0.000000 1.834750 
# 
# From -- ./inp_files/19295.got.cif
#   From: 2010.05.17/outbox.cif.g08.bks.cpg/sg22_10_cif.got.tgz:19295.got - 2010.06.03 23:40:54.
