data_PCOD9325036
_publ_section_title
;
Structure prediction by ZEFSAII (Michael W. Deem and Ramdas Pophale) SiO2 
 PCOD9325036
Probable space group: C 2 2 2
;
_chemical_formula_sum "Si O2"
_cell_formula_units_Z 40
_cell_length_a 8.558069
_cell_length_b 17.352890
_cell_length_c 11.458929
_cell_angle_alpha 90.000000
_cell_angle_beta 90.000000
_cell_angle_gamma 90.000000
_cell_volume 1701.733804
_symmetry_space_group_name_H-M "C 2 2 2"
_symmetry_group_IT_number 21
_symmetry_cell_setting 'orthorhombic'
loop_
_space_group_symop_operation_xyz
x,y,z
-x,-y,z
x,-y,-z
-x,y,-z
1/2+x,1/2+y,z
1/2-x,1/2-y,z
1/2+x,1/2-y,-z
1/2-x,1/2+y,-z
loop_
_atom_site_type_symbol
_atom_site_label
_atom_site_fract_x
_atom_site_fract_y
_atom_site_fract_z
Si Si1 0.816021 0.666561 0.993431
Si Si2 0.102670 0.932752 0.325022
Si Si3 0.823986 0.476170 0.135986
Si Si4 0.191256 0.840356 0.754896
Si Si5 0.186535 0.661764 0.506418
O O1 0.750000 0.750000 0.975961
O O2 0.746918 0.633522 0.115882
O O3 0.796359 0.615250 0.880159
O O4 0.000000 0.672176 0.000000
O O5 0.192721 0.987437 0.230967
O O6 0.223761 0.890534 0.411494
O O7 0.988216 0.866368 0.268674
O O8 0.000000 0.000000 0.382757
O O9 0.000000 0.500000 0.170603
O O10 0.808338 0.500000 0.000000
O O11 0.250000 0.750000 0.759679
O O12 0.274940 0.867276 0.636894
O O13 0.250000 0.750000 0.494920
O O14 0.000000 0.662171 0.500000
#
# Coordination Sequence:
#
# PCOD9325036 Si02
#       5
#     8   8   8   8   8
#     4  11  25  42  74 111 151 189 251 313 363 440
#     4  12  28  46  75 108 149 197 255 308 373 441
#     4  11  25  48  71 101 149 201 245 301 381 447
#     4  10  24  47  71 106 152 190 241 306 372 445
#     4  11  25  48  79 109 146 194 246 307 381 453
#
# _framework density 23.505438999999999
#
# number of rings (size 3 to 8) (size 9 to 14) (size 15 to 20)
#    0.000    1.000    2.000    4.200    8.400    4.400 
#    0.000    1.000    0.000    0.000    0.000    0.000 
#    0.000    0.000    0.000    0.000    0.000    0.000 
#
# Total GULP energy -111527.531390 kJ/mol
# GULP energy per Si atom -5576.376569 kJ/mol
# Density = 2.345194 g / cm^3
# Si number density = 23.505439 Si / 1000 Ang^3
#
#
#
# Elastic Constant Matrix: (Units=GPa)
#
#
# Indices 1 2 3 4 5 6 
#
# 1 189.4016 58.7210 83.0741 0.0000 0.0000 0.0000
# 2 58.7210 85.0683 46.7724 0.0000 0.0000 0.0000
# 3 83.0741 46.7724 59.8946 0.0000 0.0000 0.0000
# 4 0.0000 0.0000 0.0000 58.1523 0.0000 0.0000
# 5 0.0000 0.0000 0.0000 0.0000 42.4452 0.0000
# 6 0.0000 0.0000 0.0000 0.0000 0.0000 36.1532
#
#
#
# Elastic Compliance Matrix: (Units=1/GPa)
#
#
# Indices 1 2 3 4 5 6 
#
# 1 0.013624 0.001727 -0.020246 0.000000 0.000000 0.000000
# 2 0.001727 0.020819 -0.018653 0.000000 0.000000 0.000000
# 3 -0.020246 -0.018653 0.059343 0.000000 0.000000 0.000000
# 4 0.000000 0.000000 0.000000 0.017196 0.000000 0.000000
# 5 0.000000 0.000000 0.000000 0.000000 0.023560 0.000000
# 6 0.000000 0.000000 0.000000 0.000000 0.000000 0.027660
#
#
# Mechanical properties :
#
#
# Convention : Reuss Voigt Hill
#
# Bulk Modulus (GPa) = 51.43226 79.05550 65.24388
# Shear Modulus (GPa) = 20.57385 37.06995 28.82190
#
# Velocity S-wave (km/s) = 2.96172 3.97555 3.50548
# Velocity P-wave (km/s) = 5.79864 7.40130 6.64844
#
# Compressibility (1/GPa) = 0.01944305
#
# Stress axis : x y z
#
# Youngs Moduli (GPa) = 73.39770 48.03290 16.85119
#
# Poissons Ratio (x) = -0.08294 0.34116
# Poissons Ratio (y) = -0.12674 0.31432
# Poissons Ratio (z) = 1.48598 0.89595
#
# Static dielectric constant tensor:
#      x y z
#    x 2.077460 0.000000 0.000000 
#    y 0.000000 2.078000 0.000000 
#    z 0.000000 0.000000 1.920430 
# 
# From -- ./inp_files/22288.got.cif
#   From: 2010.05.17/outbox.cif.g08.bks.cpg/sg21_12_cif.got.tgz:22288.got - 2010.06.03 23:14:55.
