data_PCOD9325599
_publ_section_title
;
Structure prediction by ZEFSAII (Michael W. Deem and Ramdas Pophale) SiO2 
 PCOD9325599
Probable space group: C 2 2 2
;
_chemical_formula_sum "Si O2"
_cell_formula_units_Z 40
_cell_length_a 20.953379
_cell_length_b 10.551660
_cell_length_c 8.128708
_cell_angle_alpha 90.000000
_cell_angle_beta 90.000000
_cell_angle_gamma 90.000000
_cell_volume 1797.199877
_symmetry_space_group_name_H-M "C 2 2 2"
_symmetry_group_IT_number 21
_symmetry_cell_setting 'orthorhombic'
loop_
_space_group_symop_operation_xyz
x,y,z
-x,-y,z
x,-y,-z
-x,y,-z
1/2+x,1/2+y,z
1/2-x,1/2-y,z
1/2+x,1/2-y,-z
1/2-x,1/2+y,-z
loop_
_atom_site_type_symbol
_atom_site_label
_atom_site_fract_x
_atom_site_fract_y
_atom_site_fract_z
Si Si1 0.281995 0.576852 0.703023
Si Si2 0.750000 0.250000 0.420581
Si Si3 0.372487 0.256096 0.116826
Si Si4 0.362803 0.653011 0.224858
Si Si5 0.688227 0.000000 0.000000
Si Si6 0.497561 0.350540 0.302338
O O1 0.251633 0.624934 0.533027
O O2 0.315733 0.707660 0.760943
O O3 0.342976 0.481143 0.695043
O O4 0.235169 0.512924 0.839103
O O5 0.688543 0.253821 0.304489
O O6 0.439248 0.280713 0.210127
O O7 0.360233 0.354910 0.970132
O O8 0.357397 0.121427 0.031702
O O9 0.433668 0.701459 0.253630
O O10 0.500000 0.500000 0.254823
O O11 0.500000 0.343776 0.500000
#
# Coordination Sequence:
#
# PCOD9325599 Si02
#       6
#     8   4   8   8   4   8
#     4  12  23  42  71 105 153 194 248 313 379 460
#     4  12  26  40  68 110 164 196 242 314 404 448
#     4  12  24  45  71 108 149 199 250 308 386 460
#     4  12  25  43  70 108 146 188 249 312 374 457
#     4  12  24  42  71 105 150 192 248 308 382 460
#     4  11  25  44  73 108 145 189 249 320 381 446
#
# _framework density 22.256848000000002
#
# number of rings (size 3 to 8) (size 9 to 14) (size 15 to 20)
#    0.000    0.200    6.000    3.600    2.800    0.800 
#    0.000    2.000    0.000    1.200    0.000    0.000 
#    0.000    0.000    0.000    0.000    0.000    0.000 
#
# Total GULP energy -111607.959794 kJ/mol
# GULP energy per Si atom -5580.397990 kJ/mol
# Density = 2.220619 g / cm^3
# Si number density = 22.256848 Si / 1000 Ang^3
#
#
#
# Elastic Constant Matrix: (Units=GPa)
#
#
# Indices 1 2 3 4 5 6 
#
# 1 202.2148 59.7666 72.8609 0.0000 0.0000 0.0000
# 2 59.7666 127.9368 28.6719 0.0000 0.0000 0.0000
# 3 72.8609 28.6719 106.0912 0.0000 0.0000 0.0000
# 4 0.0000 0.0000 0.0000 25.6735 0.0000 0.0000
# 5 0.0000 0.0000 0.0000 0.0000 88.3098 0.0000
# 6 0.0000 0.0000 0.0000 0.0000 0.0000 -12.7958
#
#
#
# Elastic Compliance Matrix: (Units=1/GPa)
#
#
# Indices 1 2 3 4 5 6 
#
# 1 0.007204 -0.002402 -0.004298 0.000000 0.000000 0.000000
# 2 -0.002402 0.009121 -0.000815 0.000000 0.000000 0.000000
# 3 -0.004298 -0.000815 0.012598 0.000000 0.000000 0.000000
# 4 0.000000 0.000000 0.000000 0.038951 0.000000 0.000000
# 5 0.000000 0.000000 0.000000 0.000000 0.011324 0.000000
# 6 0.000000 0.000000 0.000000 0.000000 0.000000 -0.078150
#
#
# Mechanical properties :
#
#
# Convention : Reuss Voigt Hill
#
# Bulk Modulus (GPa) = 71.98485 84.31572 78.15029
# Shear Modulus (GPa) = 241.43391 38.56704 140.00048
#
# Velocity S-wave (km/s) = 10.42649 4.16723 7.93970
# Velocity P-wave (km/s) = 13.31773 7.81791 10.91974
#
# Compressibility (1/GPa) = 0.01389181
#
# Stress axis : x y z
#
# Youngs Moduli (GPa) = 138.81294 109.63415 79.37642
#
# Poissons Ratio (x) = 0.26335 0.34118
# Poissons Ratio (y) = 0.33344 0.06472
# Poissons Ratio (z) = 0.59666 0.08940
#
# Static dielectric constant tensor:
#      x y z
#    x 2.255320 0.000000 0.000000 
#    y 0.000000 1.720510 0.000000 
#    z 0.000000 0.000000 4.268400 
# 
# From -- ./inp_files/17461.got.cif
#   From: 2010.05.17/outbox.cif.g08.bks.cpg/sg21_9_cif.got.tgz:17461.got - 2010.06.03 23:14:55.
