data_PCOD9325774
_publ_section_title
;
Structure prediction by ZEFSAII (Michael W. Deem and Ramdas Pophale) SiO2 
 PCOD9325774
Probable space group: C 2 2 2
;
_chemical_formula_sum "Si O2"
_cell_formula_units_Z 30
_cell_length_a 27.112726
_cell_length_b 5.043679
_cell_length_c 8.694961
_cell_angle_alpha 90.000000
_cell_angle_beta 90.000000
_cell_angle_gamma 90.000000
_cell_volume 1189.017542
_symmetry_space_group_name_H-M "C 2 2 2"
_symmetry_group_IT_number 21
_symmetry_cell_setting 'orthorhombic'
loop_
_space_group_symop_operation_xyz
x,y,z
-x,-y,z
x,-y,-z
-x,y,-z
1/2+x,1/2+y,z
1/2-x,1/2-y,z
1/2+x,1/2-y,-z
1/2-x,1/2+y,-z
loop_
_atom_site_type_symbol
_atom_site_label
_atom_site_fract_x
_atom_site_fract_y
_atom_site_fract_z
Si Si1 0.450719 0.848744 0.746728
Si Si2 0.392209 0.500000 0.500000
Si Si3 0.000000 0.000000 0.000000
Si Si4 0.690027 0.500000 0.000000
Si Si5 0.825127 0.500000 0.500000
Si Si6 0.750000 0.250000 0.741194
Si Si7 0.619055 0.000000 0.000000
O O1 0.426269 0.653382 0.623643
O O2 0.500000 0.000000 0.689454
O O3 0.467920 0.675145 0.889560
O O4 0.411917 0.028754 0.840339
O O5 0.357833 0.253578 0.552692
O O6 0.724445 0.464762 0.851671
O O7 0.654369 0.749506 0.007332
O O8 0.790696 0.388543 0.634802
#
# Coordination Sequence:
#
# PCOD9325774 Si02
#       7
#     8   4   2   4   4   4   4
#     4  12  28  53  83 124 166 231 275 352 413 503
#     4  12  33  55  84 125 174 219 292 344 424 498
#     4  12  24  50  88 112 160 224 278 334 424 474
#     4  12  30  50  89 129 158 221 279 360 395 519
#     4  12  31  58  83 125 174 231 267 358 423 520
#     4  12  30  56  88 122 174 216 284 336 450 496
#     4  12  26  50  86 126 168 209 291 338 422 486
#
# _framework density 25.230912
#
# number of rings (size 3 to 8) (size 9 to 14) (size 15 to 20)
#    0.000    0.000    2.667    4.000    3.733   20.800 
#    0.000    0.000    0.000    0.000    0.000    0.000 
#    0.000    0.000    0.000    0.000    0.000    0.000 
#
# Total GULP energy -84159.350112 kJ/mol
# GULP energy per Si atom -5610.623341 kJ/mol
# Density = 2.517349 g / cm^3
# Si number density = 25.230912 Si / 1000 Ang^3
#
#
#
# Elastic Constant Matrix: (Units=GPa)
#
#
# Indices 1 2 3 4 5 6 
#
# 1 175.7807 91.1897 108.5061 0.0000 0.0000 0.0000
# 2 91.1897 166.6441 63.4887 0.0000 0.0000 0.0000
# 3 108.5061 63.4887 185.6637 0.0000 0.0000 0.0000
# 4 0.0000 0.0000 0.0000 62.2444 0.0000 0.0000
# 5 0.0000 0.0000 0.0000 0.0000 110.0201 0.0000
# 6 0.0000 0.0000 0.0000 0.0000 0.0000 59.7887
#
#
#
# Elastic Compliance Matrix: (Units=1/GPa)
#
#
# Indices 1 2 3 4 5 6 
#
# 1 0.010848 -0.004048 -0.004955 0.000000 0.000000 0.000000
# 2 -0.004048 0.008410 -0.000510 0.000000 0.000000 0.000000
# 3 -0.004955 -0.000510 0.008457 0.000000 0.000000 0.000000
# 4 0.000000 0.000000 0.000000 0.016066 0.000000 0.000000
# 5 0.000000 0.000000 0.000000 0.000000 0.009089 0.000000
# 6 0.000000 0.000000 0.000000 0.000000 0.000000 0.016726
#
#
# Mechanical properties :
#
#
# Convention : Reuss Voigt Hill
#
# Bulk Modulus (GPa) = 115.10976 117.16193 116.13584
# Shear Modulus (GPa) = 54.63369 64.07091 59.35230
#
# Velocity S-wave (km/s) = 4.65838 5.04469 4.85538
# Velocity P-wave (km/s) = 8.64034 8.97043 8.80693
#
# Compressibility (1/GPa) = 0.00868736
#
# Stress axis : x y z
#
# Youngs Moduli (GPa) = 92.18404 118.90100 118.25069
#
# Poissons Ratio (x) = 0.48133 0.58599
# Poissons Ratio (y) = 0.37317 0.06032
# Poissons Ratio (z) = 0.45681 0.06066
#
# Static dielectric constant tensor:
#      x y z
#    x 2.411580 0.000000 0.000000 
#    y 0.000000 1.872190 0.000000 
#    z 0.000000 0.000000 1.937850 
# 
# From -- ./inp_files/19392.got.cif
#   From: 2010.05.17/outbox.cif.g08.bks.cpg/sg21_10_cif.got.tgz:19392.got - 2010.06.03 23:14:55.
