data_PCOD9325815
_publ_section_title
;
Structure prediction by ZEFSAII (Michael W. Deem and Ramdas Pophale) SiO2 
 PCOD9325815
Probable space group: C 2 2 2
;
_chemical_formula_sum "Si O2"
_cell_formula_units_Z 24
_cell_length_a 7.585652
_cell_length_b 24.267204
_cell_length_c 5.450997
_cell_angle_alpha 90.000000
_cell_angle_beta 90.000000
_cell_angle_gamma 90.000000
_cell_volume 1003.433507
_symmetry_space_group_name_H-M "C 2 2 2"
_symmetry_group_IT_number 21
_symmetry_cell_setting 'orthorhombic'
loop_
_space_group_symop_operation_xyz
x,y,z
-x,-y,z
x,-y,-z
-x,y,-z
1/2+x,1/2+y,z
1/2-x,1/2-y,z
1/2+x,1/2-y,-z
1/2-x,1/2+y,-z
loop_
_atom_site_type_symbol
_atom_site_label
_atom_site_fract_x
_atom_site_fract_y
_atom_site_fract_z
Si Si1 0.232069 0.965099 0.248493
Si Si2 0.500000 0.890565 0.000000
Si Si3 0.000000 0.116413 0.500000
Si Si4 0.680281 0.810438 0.342756
O O1 0.406934 0.928456 0.202571
O O2 0.063583 0.925453 0.287898
O O3 0.248442 0.000000 0.500000
O O4 0.217502 0.000000 0.000000
O O5 0.641796 0.849543 0.113427
O O6 0.165777 0.156393 0.475672
O O7 0.500000 0.806134 0.500000
O O8 0.750000 0.750000 0.277686
#
# Coordination Sequence:
#
# PCOD9325815 Si02
#       4
#     8   4   4   8
#     4  12  29  51  82 125 169 224 278 339 415 498
#     4  12  29  48  82 122 168 214 281 346 414 494
#     4  12  27  50  84 116 164 212 281 332 414 496
#     4  12  27  52  82 119 158 215 275 349 417 493
#
# _framework density 23.917877000000001
#
# number of rings (size 3 to 8) (size 9 to 14) (size 15 to 20)
#    0.000    0.000    5.000    3.000    0.000   17.333 
#    0.000    0.000    0.000    0.000    0.000    0.000 
#    0.000    0.000    0.000    0.000    0.000    0.000 
#
# Total GULP energy -67212.516424 kJ/mol
# GULP energy per Si atom -5601.043035 kJ/mol
# Density = 2.386344 g / cm^3
# Si number density = 23.917877 Si / 1000 Ang^3
#
#
#
# Elastic Constant Matrix: (Units=GPa)
#
#
# Indices 1 2 3 4 5 6 
#
# 1 144.1961 73.9486 47.4617 0.0000 0.0000 0.0000
# 2 73.9486 193.9339 84.5902 0.0000 0.0000 0.0000
# 3 47.4617 84.5902 110.2404 0.0000 0.0000 0.0000
# 4 0.0000 0.0000 0.0000 43.0718 0.0000 0.0000
# 5 0.0000 0.0000 0.0000 0.0000 41.9115 0.0000
# 6 0.0000 0.0000 0.0000 0.0000 0.0000 74.7071
#
#
#
# Elastic Compliance Matrix: (Units=1/GPa)
#
#
# Indices 1 2 3 4 5 6 
#
# 1 0.008862 -0.002578 -0.001837 0.000000 0.000000 0.000000
# 2 -0.002578 0.008500 -0.005413 0.000000 0.000000 0.000000
# 3 -0.001837 -0.005413 0.014015 0.000000 0.000000 0.000000
# 4 0.000000 0.000000 0.000000 0.023217 0.000000 0.000000
# 5 0.000000 0.000000 0.000000 0.000000 0.023860 0.000000
# 6 0.000000 0.000000 0.000000 0.000000 0.000000 0.013386
#
#
# Mechanical properties :
#
#
# Convention : Reuss Voigt Hill
#
# Bulk Modulus (GPa) = 85.30971 95.59680 90.45326
# Shear Modulus (GPa) = 43.32679 48.09609 45.71144
#
# Velocity S-wave (km/s) = 4.26077 4.48915 4.37645
# Velocity P-wave (km/s) = 7.74278 8.18080 7.96481
#
# Compressibility (1/GPa) = 0.01172200
#
# Stress axis : x y z
#
# Youngs Moduli (GPa) = 112.84604 117.64506 71.35030
#
# Poissons Ratio (x) = 0.30324 0.13109
# Poissons Ratio (y) = 0.29087 0.38619
# Poissons Ratio (z) = 0.20733 0.63677
#
# Static dielectric constant tensor:
#      x y z
#    x 1.900480 0.000000 0.000000 
#    y 0.000000 1.896860 0.000000 
#    z 0.000000 0.000000 1.900220 
# 
# From -- ./inp_files/1142.got.cif
#   From: 2010.05.17/outbox.cif.g08.bks.cpg/sg21_1_cif.got.tgz:1142.got - 2010.06.03 23:14:55.
