data_PCOD9325023
_publ_section_title
;
Structure prediction by ZEFSAII (Michael W. Deem and Ramdas Pophale) SiO2 
 PCOD9325023
Probable space group: C 2 2 2
;
_chemical_formula_sum "Si O2"
_cell_formula_units_Z 18
_cell_length_a 5.213772
_cell_length_b 27.515546
_cell_length_c 5.202308
_cell_angle_alpha 90.000000
_cell_angle_beta 90.000000
_cell_angle_gamma 90.000000
_cell_volume 746.321978
_symmetry_space_group_name_H-M "C 2 2 2"
_symmetry_group_IT_number 21
_symmetry_cell_setting 'orthorhombic'
loop_
_space_group_symop_operation_xyz
x,y,z
-x,-y,z
x,-y,-z
-x,y,-z
1/2+x,1/2+y,z
1/2-x,1/2-y,z
1/2+x,1/2-y,-z
1/2-x,1/2+y,-z
loop_
_atom_site_type_symbol
_atom_site_label
_atom_site_fract_x
_atom_site_fract_y
_atom_site_fract_z
Si Si1 0.500000 0.661939 0.000000
Si Si2 0.754405 0.583223 0.328067
Si Si3 0.250000 0.250000 0.855349
Si Si4 0.000000 0.500000 0.000000
O O1 0.298406 0.626549 0.869975
O O2 0.615838 0.698831 0.781318
O O3 0.500000 0.577336 0.500000
O O4 0.000000 0.594717 0.500000
O O5 0.824278 0.534512 0.174380
O O6 0.500000 0.229219 0.000000
#
# Coordination Sequence:
#
# PCOD9325023 Si02
#       4
#     4   8   4   2
#     4  10  24  46  74 102 154 182 232 304 342 416
#     4  12  29  46  76 109 138 192 246 287 362 428
#     4   8  20  38  76 100 138 198 224 276 376 402
#     4  12  30  52  72 100 156 184 230 318 352 418
#
# _framework density 24.118274
#
# number of rings (size 3 to 8) (size 9 to 14) (size 15 to 20)
#    1.333    0.000    0.000    3.333    9.333   13.333 
#    0.000    4.444    0.000    0.000    0.000    0.000 
#    0.000    0.000    0.000    0.000    0.000    0.000 
#
# Total GULP energy -50119.346337 kJ/mol
# GULP energy per Si atom -5568.816260 kJ/mol
# Density = 2.406338 g / cm^3
# Si number density = 24.118274 Si / 1000 Ang^3
#
#
#
# Elastic Constant Matrix: (Units=GPa)
#
#
# Indices 1 2 3 4 5 6 
#
# 1 178.7615 65.8711 64.8996 0.0000 0.0000 0.0000
# 2 65.8711 221.8385 68.4792 0.0000 0.0000 0.0000
# 3 64.8996 68.4792 94.5364 0.0000 0.0000 0.0000
# 4 0.0000 0.0000 0.0000 1.7170 0.0000 0.0000
# 5 0.0000 0.0000 0.0000 0.0000 31.4685 0.0000
# 6 0.0000 0.0000 0.0000 0.0000 0.0000 93.8094
#
#
#
# Elastic Compliance Matrix: (Units=1/GPa)
#
#
# Indices 1 2 3 4 5 6 
#
# 1 0.007568 -0.000829 -0.004595 0.000000 0.000000 0.000000
# 2 -0.000829 0.005897 -0.003703 0.000000 0.000000 0.000000
# 3 -0.004595 -0.003703 0.016414 0.000000 0.000000 0.000000
# 4 0.000000 0.000000 0.000000 0.582395 0.000000 0.000000
# 5 0.000000 0.000000 0.000000 0.000000 0.031778 0.000000
# 6 0.000000 0.000000 0.000000 0.000000 0.000000 0.010660
#
#
# Mechanical properties :
#
#
# Convention : Reuss Voigt Hill
#
# Bulk Modulus (GPa) = 86.01068 99.29292 92.65180
# Shear Modulus (GPa) = 7.38728 45.12477 26.25602
#
# Velocity S-wave (km/s) = 1.75202 4.33017 3.30303
# Velocity P-wave (km/s) = 6.31128 8.13997 7.28324
#
# Compressibility (1/GPa) = 0.01162646
#
# Stress axis : x y z
#
# Youngs Moduli (GPa) = 132.14247 169.58404 60.92219
#
# Poissons Ratio (x) = 0.14053 0.27993
# Poissons Ratio (y) = 0.10950 0.22557
# Poissons Ratio (z) = 0.60718 0.62790
#
# Static dielectric constant tensor:
#      x y z
#    x 1.840910 0.000000 0.000000 
#    y 0.000000 1.899790 0.000000 
#    z 0.000000 0.000000 2.052560 
# 
# From -- ./inp_files/500.got.cif
#   From: 2010.05.17/outbox.cif.g08.bks.cpg/sg21_1_cif.got.tgz:500.got - 2010.06.03 23:14:55.
