data_PCOD9325778
_publ_section_title
;
Structure prediction by ZEFSAII (Michael W. Deem and Ramdas Pophale) SiO2 
 PCOD9325778
Probable space group: C 2 2 2
;
_chemical_formula_sum "Si O2"
_cell_formula_units_Z 20
_cell_length_a 8.346851
_cell_length_b 19.886620
_cell_length_c 4.700931
_cell_angle_alpha 90.000000
_cell_angle_beta 90.000000
_cell_angle_gamma 90.000000
_cell_volume 780.310611
_symmetry_space_group_name_H-M "C 2 2 2"
_symmetry_group_IT_number 21
_symmetry_cell_setting 'orthorhombic'
loop_
_space_group_symop_operation_xyz
x,y,z
-x,-y,z
x,-y,-z
-x,y,-z
1/2+x,1/2+y,z
1/2-x,1/2-y,z
1/2+x,1/2-y,-z
1/2-x,1/2+y,-z
loop_
_atom_site_type_symbol
_atom_site_label
_atom_site_fract_x
_atom_site_fract_y
_atom_site_fract_z
Si Si1 0.187288 0.320904 0.096968
Si Si2 0.729205 0.593409 0.632773
Si Si3 0.500000 0.000000 0.500000
Si Si4 0.000000 0.000000 0.000000
O O1 0.250000 0.250000 0.209249
O O2 0.241405 0.380897 0.310970
O O3 0.277985 0.338071 0.806995
O O4 0.000000 0.319699 0.000000
O O5 0.886745 0.548137 0.682744
O O6 0.595678 0.547199 0.777922
#
# Coordination Sequence:
#
# PCOD9325778 Si02
#       4
#     8   8   2   2
#     4  12  27  53  81 118 165 224 283 349 414 502
#     4  12  28  51  83 118 170 219 279 350 426 503
#     4  12  24  52  84 110 164 224 280 332 428 516
#     4  12  32  52  84 138 172 220 276 364 420 516
#
# _framework density 25.63082
#
# number of rings (size 3 to 8) (size 9 to 14) (size 15 to 20)
#    0.000    0.000    4.000    3.600    2.800    8.800 
#    0.000    0.000    0.000    0.000    0.000    0.000 
#    0.000    0.000    0.000    0.000    0.000    0.000 
#
# Total GULP energy -55839.650850 kJ/mol
# GULP energy per Si atom -5583.965085 kJ/mol
# Density = 2.557248 g / cm^3
# Si number density = 25.630820 Si / 1000 Ang^3
#
#
#
# Elastic Constant Matrix: (Units=GPa)
#
#
# Indices 1 2 3 4 5 6 
#
# 1 151.3083 69.8335 57.6133 0.0000 0.0000 0.0000
# 2 69.8335 144.2387 43.2177 0.0000 0.0000 0.0000
# 3 57.6133 43.2177 150.4352 0.0000 0.0000 0.0000
# 4 0.0000 0.0000 0.0000 41.2325 0.0000 0.0000
# 5 0.0000 0.0000 0.0000 0.0000 38.5909 0.0000
# 6 0.0000 0.0000 0.0000 0.0000 0.0000 33.5739
#
#
#
# Elastic Compliance Matrix: (Units=1/GPa)
#
#
# Indices 1 2 3 4 5 6 
#
# 1 0.009284 -0.003753 -0.002478 0.000000 0.000000 0.000000
# 2 -0.003753 0.009103 -0.001178 0.000000 0.000000 0.000000
# 3 -0.002478 -0.001178 0.007935 0.000000 0.000000 0.000000
# 4 0.000000 0.000000 0.000000 0.024253 0.000000 0.000000
# 5 0.000000 0.000000 0.000000 0.000000 0.025913 0.000000
# 6 0.000000 0.000000 0.000000 0.000000 0.000000 0.029785
#
#
# Mechanical properties :
#
#
# Convention : Reuss Voigt Hill
#
# Bulk Modulus (GPa) = 86.91581 87.47902 87.19742
# Shear Modulus (GPa) = 40.02437 41.03400 40.52918
#
# Velocity S-wave (km/s) = 3.95596 4.00554 3.98083
# Velocity P-wave (km/s) = 7.40611 7.45634 7.43127
#
# Compressibility (1/GPa) = 0.01150539
#
# Stress axis : x y z
#
# Youngs Moduli (GPa) = 107.70743 109.85683 126.02964
#
# Poissons Ratio (x) = 0.41226 0.31225
# Poissons Ratio (y) = 0.40419 0.14845
# Poissons Ratio (z) = 0.26686 0.12940
#
# Static dielectric constant tensor:
#      x y z
#    x 2.080030 0.000000 0.000000 
#    y 0.000000 1.955920 0.000000 
#    z 0.000000 0.000000 0.388440 
# 
# From -- ./inp_files/1017.got.cif
#   From: 2010.05.17/outbox.cif.g08.bks.cpg/sg21_1_cif.got.tgz:1017.got - 2010.06.03 23:14:55.
