data_PCOD9325379
_publ_section_title
;
Structure prediction by ZEFSAII (Michael W. Deem and Ramdas Pophale) SiO2 
 PCOD9325379
Probable space group: C 2 2 2
;
_chemical_formula_sum "Si O2"
_cell_formula_units_Z 58
_cell_length_a 25.513174
_cell_length_b 9.347464
_cell_length_c 11.848750
_cell_angle_alpha 90.000000
_cell_angle_beta 90.000000
_cell_angle_gamma 90.000000
_cell_volume 2825.731080
_symmetry_space_group_name_H-M "C 2 2 2"
_symmetry_group_IT_number 21
_symmetry_cell_setting 'orthorhombic'
loop_
_space_group_symop_operation_xyz
x,y,z
-x,-y,z
x,-y,-z
-x,y,-z
1/2+x,1/2+y,z
1/2-x,1/2-y,z
1/2+x,1/2-y,-z
1/2-x,1/2+y,-z
loop_
_atom_site_type_symbol
_atom_site_label
_atom_site_fract_x
_atom_site_fract_y
_atom_site_fract_z
Si Si1 0.839635 0.006609 0.711438
Si Si2 0.127223 0.299884 0.653280
Si Si3 0.500000 0.500000 0.000000
Si Si4 0.350894 0.078793 0.209315
Si Si5 0.492604 0.171152 0.634148
Si Si6 0.567355 0.679739 0.182215
Si Si7 0.254743 0.582227 0.895053
Si Si8 0.812013 0.255492 0.568479
O O1 0.892682 0.061747 0.769559
O O2 0.790515 0.050458 0.788014
O O3 0.832529 0.096697 0.596942
O O4 0.842049 0.837912 0.697390
O O5 0.128563 0.436311 0.733449
O O6 0.153879 0.325431 0.531137
O O7 0.065837 0.269476 0.648183
O O8 0.534700 0.604805 0.081427
O O9 0.394356 0.183939 0.155390
O O10 0.304427 0.034234 0.127070
O O11 0.323687 0.163188 0.314086
O O12 0.500000 0.185344 0.500000
O O13 0.530781 0.259716 0.716541
O O14 0.500000 0.000000 0.659396
O O15 0.250000 0.750000 0.916073
O O16 0.278718 0.500000 0.000000
O O17 0.750000 0.250000 0.543160
#
# Coordination Sequence:
#
# PCOD9325379 Si02
#       8
#     8   8   2   8   8   8   8   8
#     4  11  24  45  69 101 141 180 227 289 342 420
#     4  12  26  37  70 109 137 182 232 273 346 425
#     4  12  28  48  80 104 132 192 246 302 364 410
#     4  11  23  46  67 101 143 179 225 291 344 416
#     4  11  23  44  71 103 140 185 232 289 352 420
#     4  11  24  49  75  97 143 185 235 295 355 414
#     4  12  26  47  70  96 134 181 230 289 353 413
#     4  11  22  42  66 100 147 188 218 276 350 416
#
# _framework density 20.525662000000001
#
# number of rings (size 3 to 8) (size 9 to 14) (size 15 to 20)
#    0.000    0.690    5.517    3.310    6.759    1.103 
#    2.483    2.759    0.000    0.000    0.000    0.000 
#    0.000    0.000    0.000    0.000    0.000    0.000 
#
# Total GULP energy -161941.093744 kJ/mol
# GULP energy per Si atom -5584.175646 kJ/mol
# Density = 2.047894 g / cm^3
# Si number density = 20.525662 Si / 1000 Ang^3
#
#
#
# Elastic Constant Matrix: (Units=GPa)
#
#
# Indices 1 2 3 4 5 6 
#
# 1 113.3459 17.2427 31.8443 0.0000 0.0000 0.0000
# 2 17.2427 97.8669 41.2306 0.0000 0.0000 0.0000
# 3 31.8443 41.2306 77.5715 0.0000 0.0000 0.0000
# 4 0.0000 0.0000 0.0000 33.7085 0.0000 0.0000
# 5 0.0000 0.0000 0.0000 0.0000 -61.0212 0.0000
# 6 0.0000 0.0000 0.0000 0.0000 0.0000 1.8620
#
#
#
# Elastic Compliance Matrix: (Units=1/GPa)
#
#
# Indices 1 2 3 4 5 6 
#
# 1 0.009973 -0.000042 -0.004072 0.000000 0.000000 0.000000
# 2 -0.000042 0.013166 -0.006981 0.000000 0.000000 0.000000
# 3 -0.004072 -0.006981 0.018273 0.000000 0.000000 0.000000
# 4 0.000000 0.000000 0.000000 0.029666 0.000000 0.000000
# 5 0.000000 0.000000 0.000000 0.000000 -0.016388 0.000000
# 6 0.000000 0.000000 0.000000 0.000000 0.000000 0.537048
#
#
# Mechanical properties :
#
#
# Convention : Reuss Voigt Hill
#
# Bulk Modulus (GPa) = 52.01956 52.15774 52.08865
# Shear Modulus (GPa) = 8.06015 8.14097 8.10056
#
# Velocity S-wave (km/s) = 1.98378 1.99370 1.98875
# Velocity P-wave (km/s) = 5.53587 5.54671 5.54129
#
# Compressibility (1/GPa) = 0.01922354
#
# Stress axis : x y z
#
# Youngs Moduli (GPa) = 100.27205 75.95107 54.72416
#
# Poissons Ratio (x) = 0.00316 0.22283
# Poissons Ratio (y) = 0.00417 0.38203
# Poissons Ratio (z) = 0.40830 0.53022
#
# Static dielectric constant tensor:
#      x y z
#    x 1.691040 0.000000 0.000000 
#    y 0.000000 1.759460 0.000000 
#    z 0.000000 0.000000 1.754210 
# 
# From -- ./inp_files/27788.got.cif
#   From: 2010.05.17/outbox.cif.g08.bks.cpg/sg21_14_cif.got.tgz:27788.got - 2010.06.03 23:14:55.
