data_PCOD9325324
_publ_section_title
;
Structure prediction by ZEFSAII (Michael W. Deem and Ramdas Pophale) SiO2 
 PCOD9325324
Probable space group: C 2 2 2
;
_chemical_formula_sum "Si O2"
_cell_formula_units_Z 64
_cell_length_a 15.709247
_cell_length_b 25.360098
_cell_length_c 8.906960
_cell_angle_alpha 90.000000
_cell_angle_beta 90.000000
_cell_angle_gamma 90.000000
_cell_volume 3548.426367
_symmetry_space_group_name_H-M "C 2 2 2"
_symmetry_group_IT_number 21
_symmetry_cell_setting 'orthorhombic'
loop_
_space_group_symop_operation_xyz
x,y,z
-x,-y,z
x,-y,-z
-x,y,-z
1/2+x,1/2+y,z
1/2-x,1/2-y,z
1/2+x,1/2-y,-z
1/2-x,1/2+y,-z
loop_
_atom_site_type_symbol
_atom_site_label
_atom_site_fract_x
_atom_site_fract_y
_atom_site_fract_z
Si Si1 0.304336 0.195468 0.825932
Si Si2 0.828923 0.891966 0.807666
Si Si3 0.841840 0.696849 0.181273
Si Si4 0.932921 0.822302 0.600456
Si Si5 0.397301 0.499848 0.673131
Si Si6 0.666540 0.315749 0.696364
Si Si7 0.484499 0.204581 0.669562
Si Si8 0.086850 0.097368 0.106040
O O1 0.250000 0.250000 0.797389
O O2 0.253769 0.142989 0.778212
O O3 0.392608 0.194021 0.737921
O O4 0.323609 0.194096 0.004336
O O5 0.902077 0.854439 0.740687
O O6 0.850171 0.948823 0.740473
O O7 0.839901 0.896393 0.983756
O O8 0.764678 0.668078 0.270276
O O9 0.838642 0.757771 0.233537
O O10 0.938261 0.683238 0.228992
O O11 0.856758 0.812969 0.480266
O O12 0.978703 0.768645 0.651557
O O13 0.000000 0.854711 0.500000
O O14 0.500000 0.500000 0.666643
O O15 0.368189 0.500000 0.500000
O O16 0.388455 0.548566 0.787541
O O17 0.599475 0.352188 0.786201
O O18 0.500000 0.185166 0.500000
O O19 0.000000 0.091505 0.000000
#
# Coordination Sequence:
#
# PCOD9325324 Si02
#       8
#     8   8   8   8   8   8   8   8
#     4  12  23  40  58  90 125 161 210 260 309 377
#     4  12  24  38  63  88 123 165 211 254 310 360
#     4  11  22  39  56  85 121 167 207 257 309 371
#     4  11  22  36  53  89 119 169 209 251 299 368
#     4  11  25  42  60  88 126 164 206 253 306 372
#     4  11  22  36  58  84 125 161 213 250 313 366
#     4  11  24  38  58  83 121 165 208 252 309 368
#     4  12  23  39  62  88 121 166 207 254 302 366
#
# _framework density 18.036163999999999
#
# number of rings (size 3 to 8) (size 9 to 14) (size 15 to 20)
#    0.000    0.625    7.500    2.250    3.500    0.000 
#    0.000    0.000    0.000    0.000    0.000    0.875 
#    0.000    0.000    0.000    0.000    0.000    0.000 
#
# Total GULP energy -178259.668254 kJ/mol
# GULP energy per Si atom -5570.614633 kJ/mol
# Density = 1.799511 g / cm^3
# Si number density = 18.036164 Si / 1000 Ang^3
#
#
#
# Elastic Constant Matrix: (Units=GPa)
#
#
# Indices 1 2 3 4 5 6 
#
# 1 130.5997 29.8440 38.3983 0.0000 0.0000 0.0000
# 2 29.8440 72.8737 32.0178 0.0000 0.0000 0.0000
# 3 38.3983 32.0178 97.3199 0.0000 0.0000 0.0000
# 4 0.0000 0.0000 0.0000 -274.7674 0.0000 0.0000
# 5 0.0000 0.0000 0.0000 0.0000 35.3383 0.0000
# 6 0.0000 0.0000 0.0000 0.0000 0.0000 16.7643
#
#
#
# Elastic Compliance Matrix: (Units=1/GPa)
#
#
# Indices 1 2 3 4 5 6 
#
# 1 0.009034 -0.002494 -0.002744 0.000000 0.000000 0.000000
# 2 -0.002494 0.016730 -0.004520 0.000000 0.000000 0.000000
# 3 -0.002744 -0.004520 0.012845 0.000000 0.000000 0.000000
# 4 0.000000 0.000000 0.000000 -0.003639 0.000000 0.000000
# 5 0.000000 0.000000 0.000000 0.000000 0.028298 0.000000
# 6 0.000000 0.000000 0.000000 0.000000 0.000000 0.059650
#
#
# Mechanical properties :
#
#
# Convention : Reuss Voigt Hill
#
# Bulk Modulus (GPa) = 52.37581 55.70153 54.03867
# Shear Modulus (GPa) = 33.60284 -31.16408 1.21938
#
# Velocity S-wave (km/s) = 4.32103 -4.16127 0.82313
# Velocity P-wave (km/s) = 7.34829 2.80394 5.56145
#
# Compressibility (1/GPa) = 0.01909278
#
# Stress axis : x y z
#
# Youngs Moduli (GPa) = 110.69761 59.77418 77.85132
#
# Poissons Ratio (x) = 0.14908 0.21361
# Poissons Ratio (y) = 0.27608 0.35188
# Poissons Ratio (z) = 0.30373 0.27018
#
# Static dielectric constant tensor:
#      x y z
#    x 2.452640 0.000000 0.000000 
#    y 0.000000 1.664380 0.000000 
#    z 0.000000 0.000000 1.666090 
# 
# From -- ./inp_files/15500.got.cif
#   From: 2010.05.17/outbox.cif.g08.bks.cpg/sg21_8_cif.got.tgz:15500.got - 2010.06.03 23:14:55.
