data_PCOD9325812
_publ_section_title
;
Structure prediction by ZEFSAII (Michael W. Deem and Ramdas Pophale) SiO2 
 PCOD9325812
Probable space group: C 2 2 2
;
_chemical_formula_sum "Si O2"
_cell_formula_units_Z 20
_cell_length_a 11.547908
_cell_length_b 14.441285
_cell_length_c 4.846288
_cell_angle_alpha 90.000000
_cell_angle_beta 90.000000
_cell_angle_gamma 90.000000
_cell_volume 808.199121
_symmetry_space_group_name_H-M "C 2 2 2"
_symmetry_group_IT_number 21
_symmetry_cell_setting 'orthorhombic'
loop_
_space_group_symop_operation_xyz
x,y,z
-x,-y,z
x,-y,-z
-x,y,-z
1/2+x,1/2+y,z
1/2-x,1/2-y,z
1/2+x,1/2-y,-z
1/2-x,1/2+y,-z
loop_
_atom_site_type_symbol
_atom_site_label
_atom_site_fract_x
_atom_site_fract_y
_atom_site_fract_z
Si Si1 0.387197 0.828954 0.465790
Si Si2 0.742405 0.390504 0.976277
Si Si3 0.000000 0.806333 0.000000
O O1 0.500000 0.894240 0.500000
O O2 0.325447 0.835538 0.763929
O O3 0.452178 0.753162 0.261430
O O4 0.279686 0.856236 0.276350
O O5 0.761852 0.500000 0.000000
O O6 0.609604 0.367559 0.909135
#
# Coordination Sequence:
#
# PCOD9325812 Si02
#       3
#     8   8   4
#     4  12  27  48  78 112 153 209 263 317 388 482
#     4  12  29  50  78 114 159 203 262 329 399 457
#     4  12  29  48  85 112 162 204 276 318 395 478
#
# _framework density 24.746376000000001
#
# number of rings (size 3 to 8) (size 9 to 14) (size 15 to 20)
#    0.000    0.000    4.000    3.000   11.200    4.800 
#    0.000    4.000    0.000    0.000    0.000    0.000 
#    0.000    0.000    0.000    0.000    0.000    0.000 
#
# Total GULP energy -55685.994065 kJ/mol
# GULP energy per Si atom -5568.599407 kJ/mol
# Density = 2.469005 g / cm^3
# Si number density = 24.746376 Si / 1000 Ang^3
#
#
#
# Elastic Constant Matrix: (Units=GPa)
#
#
# Indices 1 2 3 4 5 6 
#
# 1 192.7765 11.2426 3.4116 0.0000 0.0000 0.0000
# 2 11.2426 92.6706 12.6557 0.0000 0.0000 0.0000
# 3 3.4116 12.6557 155.4857 0.0000 0.0000 0.0000
# 4 0.0000 0.0000 0.0000 -21.1359 0.0000 0.0000
# 5 0.0000 0.0000 0.0000 0.0000 32.9936 0.0000
# 6 0.0000 0.0000 0.0000 0.0000 0.0000 5.4329
#
#
#
# Elastic Compliance Matrix: (Units=1/GPa)
#
#
# Indices 1 2 3 4 5 6 
#
# 1 0.005225 -0.000625 -0.000064 0.000000 0.000000 0.000000
# 2 -0.000625 0.010987 -0.000881 0.000000 0.000000 0.000000
# 3 -0.000064 -0.000881 0.006505 0.000000 0.000000 0.000000
# 4 0.000000 0.000000 0.000000 -0.047313 0.000000 0.000000
# 5 0.000000 0.000000 0.000000 0.000000 0.030309 0.000000
# 6 0.000000 0.000000 0.000000 0.000000 0.000000 0.184065
#
#
# Mechanical properties :
#
#
# Convention : Reuss Voigt Hill
#
# Bulk Modulus (GPa) = 51.07908 55.06142 53.07025
# Shear Modulus (GPa) = 25.06996 31.03297 28.05146
#
# Velocity S-wave (km/s) = 3.18634 3.54509 3.37049
# Velocity P-wave (km/s) = 5.85003 6.24944 6.05303
#
# Compressibility (1/GPa) = 0.01957749
#
# Stress axis : x y z
#
# Youngs Moduli (GPa) = 191.38967 91.01655 153.73899
#
# Poissons Ratio (x) = 0.05690 0.00980
# Poissons Ratio (y) = 0.11965 0.13538
# Poissons Ratio (z) = 0.01220 0.08015
#
# Static dielectric constant tensor:
#      x y z
#    x 2.106610 0.000000 0.000000 
#    y 0.000000 2.064360 0.000000 
#    z 0.000000 0.000000 2.001510 
# 
# From -- ./inp_files/1852.got.cif
#   From: 2010.05.17/outbox.cif.g08.bks.cpg/sg21_1_cif.got.tgz:1852.got - 2010.06.03 23:14:55.
