data_PCOD9325598
_publ_section_title
;
Structure prediction by ZEFSAII (Michael W. Deem and Ramdas Pophale) SiO2 
 PCOD9325598
Probable space group: C 2 2 2
;
_chemical_formula_sum "Si O2"
_cell_formula_units_Z 40
_cell_length_a 18.148887
_cell_length_b 8.928872
_cell_length_c 10.040305
_cell_angle_alpha 90.000000
_cell_angle_beta 90.000000
_cell_angle_gamma 90.000000
_cell_volume 1627.022278
_symmetry_space_group_name_H-M "C 2 2 2"
_symmetry_group_IT_number 21
_symmetry_cell_setting 'orthorhombic'
loop_
_space_group_symop_operation_xyz
x,y,z
-x,-y,z
x,-y,-z
-x,y,-z
1/2+x,1/2+y,z
1/2-x,1/2-y,z
1/2+x,1/2-y,-z
1/2-x,1/2+y,-z
loop_
_atom_site_type_symbol
_atom_site_label
_atom_site_fract_x
_atom_site_fract_y
_atom_site_fract_z
Si Si1 0.462274 0.858928 0.855619
Si Si2 0.833465 0.199419 0.230175
Si Si3 0.587408 0.832442 0.527319
Si Si4 0.692366 0.849937 0.050090
Si Si5 0.924147 0.916553 0.318414
O O1 0.456376 0.698627 0.790020
O O2 0.500000 0.000000 0.784564
O O3 0.500000 0.846301 0.000000
O O4 0.377440 0.904316 0.870951
O O5 0.750000 0.250000 0.269787
O O6 0.888227 0.290792 0.324899
O O7 0.835813 0.251790 0.075909
O O8 0.863557 0.030963 0.257712
O O9 0.500000 0.835364 0.500000
O O10 0.610479 0.692160 0.431931
O O11 0.616208 0.000000 0.500000
O O12 0.750000 0.750000 0.128174
O O13 0.731221 0.000000 0.000000
O O14 0.000000 0.000000 0.361755
#
# Coordination Sequence:
#
# PCOD9325598 Si02
#       5
#     8   8   8   8   8
#     4  11  25  44  72 109 150 194 254 321 376 454
#     4  11  27  49  71 107 150 194 256 319 382 459
#     4  11  26  44  73 103 142 193 253 311 380 458
#     4  11  26  46  74 102 153 200 251 314 390 461
#     4  12  26  44  75 106 148 195 258 317 389 452
#
# _framework density 24.584789000000001
#
# number of rings (size 3 to 8) (size 9 to 14) (size 15 to 20)
#    0.000    0.800    4.000    1.800   11.200    3.600 
#    0.000    1.000    0.000    0.000    0.000    0.000 
#    0.000    0.000    0.000    0.000    0.000    0.000 
#
# Total GULP energy -111802.048432 kJ/mol
# GULP energy per Si atom -5590.102422 kJ/mol
# Density = 2.452883 g / cm^3
# Si number density = 24.584789 Si / 1000 Ang^3
#
#
#
# Elastic Constant Matrix: (Units=GPa)
#
#
# Indices 1 2 3 4 5 6 
#
# 1 138.3580 61.7727 11.8367 0.0000 0.0000 0.0000
# 2 61.7727 212.4564 41.8866 0.0000 0.0000 0.0000
# 3 11.8367 41.8866 71.0705 0.0000 0.0000 0.0000
# 4 0.0000 0.0000 0.0000 47.4309 0.0000 0.0000
# 5 0.0000 0.0000 0.0000 0.0000 18.8376 0.0000
# 6 0.0000 0.0000 0.0000 0.0000 0.0000 57.4504
#
#
#
# Elastic Compliance Matrix: (Units=1/GPa)
#
#
# Indices 1 2 3 4 5 6 
#
# 1 0.008306 -0.002424 0.000045 0.000000 0.000000 0.000000
# 2 -0.002424 0.006033 -0.003152 0.000000 0.000000 0.000000
# 3 0.000045 -0.003152 0.015921 0.000000 0.000000 0.000000
# 4 0.000000 0.000000 0.000000 0.021083 0.000000 0.000000
# 5 0.000000 0.000000 0.000000 0.000000 0.053085 0.000000
# 6 0.000000 0.000000 0.000000 0.000000 0.000000 0.017406
#
#
# Mechanical properties :
#
#
# Convention : Reuss Voigt Hill
#
# Bulk Modulus (GPa) = 52.08783 72.54188 62.31486
# Shear Modulus (GPa) = 35.89494 45.16971 40.53233
#
# Velocity S-wave (km/s) = 3.82520 4.29103 4.06479
# Velocity P-wave (km/s) = 6.38299 7.35673 6.88709
#
# Compressibility (1/GPa) = 0.01919834
#
# Stress axis : x y z
#
# Youngs Moduli (GPa) = 120.39547 165.75410 62.81147
#
# Poissons Ratio (x) = 0.40177 -0.00284
# Poissons Ratio (y) = 0.29183 0.19798
# Poissons Ratio (z) = -0.00544 0.52245
#
# Static dielectric constant tensor:
#      x y z
#    x 2.011540 0.000000 0.000000 
#    y 0.000000 2.026660 0.000000 
#    z 0.000000 0.000000 2.025410 
# 
# From -- ./inp_files/25830.got.cif
#   From: 2010.05.17/outbox.cif.g08.bks.cpg/sg21_13_cif.got.tgz:25830.got - 2010.06.03 23:14:55.
