data_PCOD9325091
_publ_section_title
;
Structure prediction by ZEFSAII (Michael W. Deem and Ramdas Pophale) SiO2 
 PCOD9325091
Probable space group: C 2 2 2
;
_chemical_formula_sum "Si O2"
_cell_formula_units_Z 40
_cell_length_a 24.310458
_cell_length_b 5.240349
_cell_length_c 13.861327
_cell_angle_alpha 90.000000
_cell_angle_beta 90.000000
_cell_angle_gamma 90.000000
_cell_volume 1765.867694
_symmetry_space_group_name_H-M "C 2 2 2"
_symmetry_group_IT_number 21
_symmetry_cell_setting 'orthorhombic'
loop_
_space_group_symop_operation_xyz
x,y,z
-x,-y,z
x,-y,-z
-x,y,-z
1/2+x,1/2+y,z
1/2-x,1/2-y,z
1/2+x,1/2-y,-z
1/2-x,1/2+y,-z
loop_
_atom_site_type_symbol
_atom_site_label
_atom_site_fract_x
_atom_site_fract_y
_atom_site_fract_z
Si Si1 0.626916 0.914679 0.755075
Si Si2 0.033355 0.245387 0.216569
Si Si3 0.814585 0.247049 0.063794
Si Si4 0.187578 0.665673 0.593820
Si Si5 0.917989 0.992672 0.610457
O O1 0.647709 0.744384 0.841976
O O2 0.588661 0.758765 0.678205
O O3 0.595528 0.156660 0.803261
O O4 0.677966 0.005663 0.690726
O O5 0.000000 0.500000 0.195534
O O6 0.042753 0.179816 0.329334
O O7 0.000000 0.000000 0.175747
O O8 0.750000 0.250000 0.091961
O O9 0.824406 0.500000 0.000000
O O10 0.824584 0.000000 0.000000
O O11 0.171648 0.500000 0.500000
O O12 0.250000 0.750000 0.582508
O O13 0.144021 0.893508 0.604964
O O14 0.936057 0.000000 0.500000
#
# Coordination Sequence:
#
# PCOD9325091 Si02
#       5
#     8   8   8   8   8
#     4  11  25  43  70  98 138 187 228 294 348 414
#     4  11  24  45  66  99 134 181 233 289 346 407
#     4  10  25  45  71 106 142 178 230 283 346 425
#     4  11  24  36  59  95 144 191 232 278 335 420
#     4  11  23  42  62  96 138 179 238 279 336 414
#
# _framework density 22.651751000000001
#
# number of rings (size 3 to 8) (size 9 to 14) (size 15 to 20)
#    0.000    1.200    4.000    0.600    8.400    1.200 
#    3.600    0.000    0.000    0.600    5.200    0.000 
#    0.000    0.000    0.000    0.000    0.000    0.000 
#
# Total GULP energy -111605.153864 kJ/mol
# GULP energy per Si atom -5580.257693 kJ/mol
# Density = 2.260019 g / cm^3
# Si number density = 22.651751 Si / 1000 Ang^3
#
#
#
# Elastic Constant Matrix: (Units=GPa)
#
#
# Indices 1 2 3 4 5 6 
#
# 1 73.0186 36.0095 27.7487 0.0000 0.0000 0.0000
# 2 36.0095 150.0312 34.4796 0.0000 0.0000 0.0000
# 3 27.7487 34.4796 73.0541 0.0000 0.0000 0.0000
# 4 0.0000 0.0000 0.0000 16.7951 0.0000 0.0000
# 5 0.0000 0.0000 0.0000 0.0000 -5.6147 0.0000
# 6 0.0000 0.0000 0.0000 0.0000 0.0000 39.8360
#
#
#
# Elastic Compliance Matrix: (Units=1/GPa)
#
#
# Indices 1 2 3 4 5 6 
#
# 1 0.017078 -0.002926 -0.005106 0.000000 0.000000 0.000000
# 2 -0.002926 0.007977 -0.002654 0.000000 0.000000 0.000000
# 3 -0.005106 -0.002654 0.016881 0.000000 0.000000 0.000000
# 4 0.000000 0.000000 0.000000 0.059541 0.000000 0.000000
# 5 0.000000 0.000000 0.000000 0.000000 -0.178103 0.000000
# 6 0.000000 0.000000 0.000000 0.000000 0.000000 0.025103
#
#
# Mechanical properties :
#
#
# Convention : Reuss Voigt Hill
#
# Bulk Modulus (GPa) = 48.62625 54.73105 51.67865
# Shear Modulus (GPa) = -214.62587 23.39433 -95.61577
#
# Velocity S-wave (km/s) = -9.74453 3.21718 -6.50406
# Velocity P-wave (km/s) = 10.25156 6.16561 5.79136
#
# Compressibility (1/GPa) = 0.02056502
#
# Stress axis : x y z
#
# Youngs Moduli (GPa) = 58.55361 125.35483 59.23969
#
# Poissons Ratio (x) = 0.36673 0.30249
# Poissons Ratio (y) = 0.17130 0.15721
# Poissons Ratio (z) = 0.29899 0.33268
#
# Static dielectric constant tensor:
#      x y z
#    x 1.922620 0.000000 0.000000 
#    y 0.000000 1.947370 0.000000 
#    z 0.000000 0.000000 1.794040 
# 
# From -- ./inp_files/27632.got.cif
#   From: 2010.05.17/outbox.cif.g08.bks.cpg/sg21_14_cif.got.tgz:27632.got - 2010.06.03 23:14:55.
