data_PCOD9325042
_publ_section_title
;
Structure prediction by ZEFSAII (Michael W. Deem and Ramdas Pophale) SiO2 
 PCOD9325042
Probable space group: C 2 2 2
;
_chemical_formula_sum "Si O2"
_cell_formula_units_Z 40
_cell_length_a 17.325402
_cell_length_b 9.189740
_cell_length_c 11.086304
_cell_angle_alpha 90.000000
_cell_angle_beta 90.000000
_cell_angle_gamma 90.000000
_cell_volume 1765.116310
_symmetry_space_group_name_H-M "C 2 2 2"
_symmetry_group_IT_number 21
_symmetry_cell_setting 'orthorhombic'
loop_
_space_group_symop_operation_xyz
x,y,z
-x,-y,z
x,-y,-z
-x,y,-z
1/2+x,1/2+y,z
1/2-x,1/2-y,z
1/2+x,1/2-y,-z
1/2-x,1/2+y,-z
loop_
_atom_site_type_symbol
_atom_site_label
_atom_site_fract_x
_atom_site_fract_y
_atom_site_fract_z
Si Si1 0.611280 0.241867 0.500914
Si Si2 0.313267 0.082252 0.888266
Si Si3 0.338416 0.196262 0.235983
Si Si4 0.750000 0.250000 0.321530
Si Si5 0.911575 0.170361 0.975655
Si Si6 0.500000 0.500000 0.500000
Si Si7 0.000000 0.500000 0.500000
O O1 0.648145 0.179291 0.622665
O O2 0.677027 0.279563 0.405748
O O3 0.561692 0.379859 0.546384
O O4 0.557391 0.117526 0.439961
O O5 0.262542 0.120470 0.772894
O O6 0.363488 0.952359 0.832321
O O7 0.356504 0.223383 0.942880
O O8 0.272674 0.000000 0.000000
O O9 0.250000 0.250000 0.216267
O O10 0.390455 0.310360 0.164613
O O11 0.000000 0.213407 0.000000
O O12 0.903719 0.000000 0.000000
#
# Coordination Sequence:
#
# PCOD9325042 Si02
#       7
#     8   8   8   4   8   2   2
#     4  11  25  47  73 108 146 195 252 308 396 454
#     4  10  26  43  70 108 144 189 246 312 379 455
#     4  11  25  43  71 106 149 189 251 319 376 465
#     4  12  26  44  80 108 142 196 254 316 374 474
#     4  10  25  46  72 105 147 198 248 310 387 461
#     4  10  28  44  68 106 150 188 244 318 372 458
#     4  10  24  48  68 102 154 192 240 306 372 486
#
# _framework density 22.661396
#
# number of rings (size 3 to 8) (size 9 to 14) (size 15 to 20)
#    0.000    1.400    1.000    1.200   11.200   10.800 
#    0.000    0.000    0.000    0.000    0.000    0.000 
#    0.000    0.000    0.000    0.000    0.000    0.000 
#
# Total GULP energy -111385.991768 kJ/mol
# GULP energy per Si atom -5569.299588 kJ/mol
# Density = 2.260982 g / cm^3
# Si number density = 22.661396 Si / 1000 Ang^3
#
#
#
# Elastic Constant Matrix: (Units=GPa)
#
#
# Indices 1 2 3 4 5 6 
#
# 1 114.6141 20.0718 44.9535 0.0000 0.0000 0.0000
# 2 20.0718 115.5563 28.7246 0.0000 0.0000 0.0000
# 3 44.9535 28.7246 153.0619 0.0000 0.0000 0.0000
# 4 0.0000 0.0000 0.0000 25.6675 0.0000 0.0000
# 5 0.0000 0.0000 0.0000 0.0000 -25.8840 0.0000
# 6 0.0000 0.0000 0.0000 0.0000 0.0000 6.3823
#
#
#
# Elastic Compliance Matrix: (Units=1/GPa)
#
#
# Indices 1 2 3 4 5 6 
#
# 1 0.009982 -0.001054 -0.002734 0.000000 0.000000 0.000000
# 2 -0.001054 0.009189 -0.001415 0.000000 0.000000 0.000000
# 3 -0.002734 -0.001415 0.007602 0.000000 0.000000 0.000000
# 4 0.000000 0.000000 0.000000 0.038960 0.000000 0.000000
# 5 0.000000 0.000000 0.000000 0.000000 -0.038634 0.000000
# 6 0.000000 0.000000 0.000000 0.000000 0.000000 0.156682
#
#
# Mechanical properties :
#
#
# Convention : Reuss Voigt Hill
#
# Bulk Modulus (GPa) = 61.10032 63.41467 62.25749
# Shear Modulus (GPa) = 25.04495 20.53201 22.78848
#
# Velocity S-wave (km/s) = 3.32803 3.01331 3.17457
# Velocity P-wave (km/s) = 6.46441 6.33648 6.40076
#
# Compressibility (1/GPa) = 0.01636653
#
# Stress axis : x y z
#
# Youngs Moduli (GPa) = 100.18260 108.83059 131.54962
#
# Poissons Ratio (x) = 0.11474 0.35962
# Poissons Ratio (y) = 0.10562 0.18611
# Poissons Ratio (z) = 0.27387 0.15397
#
# Static dielectric constant tensor:
#      x y z
#    x 1.881410 0.000000 0.000000 
#    y 0.000000 2.007590 0.000000 
#    z 0.000000 0.000000 1.815940 
# 
# From -- ./inp_files/25885.got.cif
#   From: 2010.05.17/outbox.cif.g08.bks.cpg/sg21_13_cif.got.tgz:25885.got - 2010.06.03 23:14:55.
