data_PCOD9325509
_publ_section_title
;
Structure prediction by ZEFSAII (Michael W. Deem and Ramdas Pophale) SiO2 
 PCOD9325509
Probable space group: C 2 2 2
;
_chemical_formula_sum "Si O2"
_cell_formula_units_Z 32
_cell_length_a 11.086165
_cell_length_b 4.969056
_cell_length_c 25.417109
_cell_angle_alpha 90.000000
_cell_angle_beta 90.000000
_cell_angle_gamma 90.000000
_cell_volume 1400.171974
_symmetry_space_group_name_H-M "C 2 2 2"
_symmetry_group_IT_number 21
_symmetry_cell_setting 'orthorhombic'
loop_
_space_group_symop_operation_xyz
x,y,z
-x,-y,z
x,-y,-z
-x,y,-z
1/2+x,1/2+y,z
1/2-x,1/2-y,z
1/2+x,1/2-y,-z
1/2-x,1/2+y,-z
loop_
_atom_site_type_symbol
_atom_site_label
_atom_site_fract_x
_atom_site_fract_y
_atom_site_fract_z
Si Si1 0.000000 0.500000 0.660261
Si Si2 0.824508 0.000000 0.500000
Si Si3 0.250000 0.750000 0.713416
Si Si4 0.750000 0.250000 0.035494
Si Si5 0.750000 0.750000 0.783340
Si Si6 0.500000 0.500000 0.590363
Si Si7 0.925419 0.749849 0.873799
O O1 0.124997 0.625040 0.686835
O O2 0.956362 0.753369 0.625614
O O3 0.750000 0.250000 0.479558
O O4 0.900617 0.893284 0.450617
O O5 0.293587 0.496654 0.748080
O O6 0.849663 0.145882 0.076571
O O7 0.789568 0.500000 0.000000
O O8 0.849387 0.643627 0.824342
O O9 0.000000 0.500000 0.894111
O O10 0.000000 0.000000 0.853479
#
# Coordination Sequence:
#
# PCOD9325509 Si02
#       7
#     4   4   4   4   4   4   8
#     4  12  28  47  74 106 150 190 241 302 378 436
#     4  11  24  43  76 102 140 193 240 297 362 430
#     4  12  28  47  74 105 143 196 239 302 374 434
#     4  11  24  41  62  98 138 170 225 280 349 434
#     4  11  26  46  70  99 137 176 244 296 347 440
#     4  11  26  46  70 108 144 188 244 298 361 446
#     4  11  24  42  69  96 130 181 226 290 351 415
#
# _framework density 22.854337999999998
#
# number of rings (size 3 to 8) (size 9 to 14) (size 15 to 20)
#    0.000    0.750    0.000    6.000   10.500    9.000 
#    0.000    0.000    0.000    0.000    0.000    0.000 
#    0.000    0.000    0.000    0.000    0.000    0.000 
#
# Total GULP energy -89231.023544 kJ/mol
# GULP energy per Si atom -5576.938972 kJ/mol
# Density = 2.280232 g / cm^3
# Si number density = 22.854338 Si / 1000 Ang^3
#
#
#
# Elastic Constant Matrix: (Units=GPa)
#
#
# Indices 1 2 3 4 5 6 
#
# 1 78.9624 8.9143 42.3455 0.0000 0.0000 0.0000
# 2 8.9143 108.0535 40.5512 0.0000 0.0000 0.0000
# 3 42.3455 40.5512 113.3465 0.0000 0.0000 0.0000
# 4 0.0000 0.0000 0.0000 52.7224 0.0000 0.0000
# 5 0.0000 0.0000 0.0000 0.0000 -3.8490 0.0000
# 6 0.0000 0.0000 0.0000 0.0000 0.0000 37.8046
#
#
#
# Elastic Compliance Matrix: (Units=1/GPa)
#
#
# Indices 1 2 3 4 5 6 
#
# 1 0.015942 0.001063 -0.006336 0.000000 0.000000 0.000000
# 2 0.001063 0.010761 -0.004247 0.000000 0.000000 0.000000
# 3 -0.006336 -0.004247 0.012709 0.000000 0.000000 0.000000
# 4 0.000000 0.000000 0.000000 0.018967 0.000000 0.000000
# 5 0.000000 0.000000 0.000000 0.000000 -0.259807 0.000000
# 6 0.000000 0.000000 0.000000 0.000000 0.000000 0.026452
#
#
# Mechanical properties :
#
#
# Convention : Reuss Voigt Hill
#
# Bulk Modulus (GPa) = 49.08829 53.77604 51.43217
# Shear Modulus (GPa) = -33.52448 31.23903 -1.14273
#
# Velocity S-wave (km/s) = -3.83414 3.70114 -0.70788
# Velocity P-wave (km/s) = 1.38729 6.46881 4.67815
#
# Compressibility (1/GPa) = 0.02037146
#
# Stress axis : x y z
#
# Youngs Moduli (GPa) = 62.72673 92.93005 78.68460
#
# Poissons Ratio (x) = -0.09875 0.49855
# Poissons Ratio (y) = -0.06666 0.33416
# Poissons Ratio (z) = 0.39744 0.39466
#
# Static dielectric constant tensor:
#      x y z
#    x 2.066930 0.000000 0.000000 
#    y 0.000000 1.762900 0.000000 
#    z 0.000000 0.000000 1.794900 
# 
# From -- ./inp_files/38565.got.cif
#   From: 2010.05.17/outbox.cif.g08.bks.cpg/sg21_20_cif.got.tgz:38565.got - 2010.06.03 23:14:55.
