data_PCOD9325587
_publ_section_title
;
Structure prediction by ZEFSAII (Michael W. Deem and Ramdas Pophale) SiO2 
 PCOD9325587
Probable space group: C 2 2 2
;
_chemical_formula_sum "Si O2"
_cell_formula_units_Z 24
_cell_length_a 6.898815
_cell_length_b 17.776336
_cell_length_c 10.109758
_cell_angle_alpha 90.000000
_cell_angle_beta 90.000000
_cell_angle_gamma 90.000000
_cell_volume 1239.816778
_symmetry_space_group_name_H-M "C 2 2 2"
_symmetry_group_IT_number 21
_symmetry_cell_setting 'orthorhombic'
loop_
_space_group_symop_operation_xyz
x,y,z
-x,-y,z
x,-y,-z
-x,y,-z
1/2+x,1/2+y,z
1/2-x,1/2-y,z
1/2+x,1/2-y,-z
1/2-x,1/2+y,-z
loop_
_atom_site_type_symbol
_atom_site_label
_atom_site_fract_x
_atom_site_fract_y
_atom_site_fract_z
Si Si1 0.000000 0.370165 0.000000
Si Si2 0.622490 0.576679 0.123453
Si Si3 0.582730 0.686484 0.356085
Si Si4 0.250000 0.250000 0.830774
O O1 0.133523 0.312913 0.914123
O O2 0.843292 0.421857 0.926185
O O3 0.500000 0.500000 0.140968
O O4 0.642997 0.616701 0.264924
O O5 0.500000 0.614692 0.000000
O O6 0.500000 0.667459 0.500000
O O7 0.750000 0.750000 0.366739
O O8 0.410106 0.717130 0.266256
#
# Coordination Sequence:
#
# PCOD9325587 Si02
#       4
#     4   8   8   4
#     4  12  22  41  72 102 141 176 238 294 354 405
#     4  11  25  43  66 101 138 186 228 285 348 420
#     4  12  24  42  68 102 139 179 235 290 351 411
#     4  12  22  38  68 104 132 178 230 306 346 398
#
# _framework density 19.357697999999999
#
# number of rings (size 3 to 8) (size 9 to 14) (size 15 to 20)
#    0.000    0.333    8.333    2.000    0.000    3.333 
#    0.000    0.000    0.000    0.000    0.000    0.000 
#    0.000    0.000    0.000    0.000    0.000    0.000 
#
# Total GULP energy -66836.802545 kJ/mol
# GULP energy per Si atom -5569.733545 kJ/mol
# Density = 1.931364 g / cm^3
# Si number density = 19.357698 Si / 1000 Ang^3
#
#
#
# Elastic Constant Matrix: (Units=GPa)
#
#
# Indices 1 2 3 4 5 6 
#
# 1 173.2821 63.2671 74.8534 0.0000 0.0000 0.0000
# 2 63.2671 90.0174 74.4779 0.0000 0.0000 0.0000
# 3 74.8534 74.4779 173.7158 0.0000 0.0000 0.0000
# 4 0.0000 0.0000 0.0000 -895.2557 0.0000 0.0000
# 5 0.0000 0.0000 0.0000 0.0000 61.7124 0.0000
# 6 0.0000 0.0000 0.0000 0.0000 0.0000 40.0152
#
#
#
# Elastic Compliance Matrix: (Units=1/GPa)
#
#
# Indices 1 2 3 4 5 6 
#
# 1 0.008045 -0.004318 -0.001615 0.000000 0.000000 0.000000
# 2 -0.004318 0.019533 -0.006514 0.000000 0.000000 0.000000
# 3 -0.001615 -0.006514 0.009245 0.000000 0.000000 0.000000
# 4 0.000000 0.000000 0.000000 -0.001117 0.000000 0.000000
# 5 0.000000 0.000000 0.000000 0.000000 0.016204 0.000000
# 6 0.000000 0.000000 0.000000 0.000000 0.000000 0.024991
#
#
# Mechanical properties :
#
#
# Convention : Reuss Voigt Hill
#
# Bulk Modulus (GPa) = 83.82788 95.80135 89.81462
# Shear Modulus (GPa) = 47.27118 -143.74450 -48.23666
#
# Velocity S-wave (km/s) = 4.94700 -8.62660 -4.99727
# Velocity P-wave (km/s) = 8.71947 7.04463 3.63334
#
# Compressibility (1/GPa) = 0.01192921
#
# Stress axis : x y z
#
# Youngs Moduli (GPa) = 124.29656 51.19484 108.16198
#
# Poissons Ratio (x) = 0.22105 0.17473
# Poissons Ratio (y) = 0.53670 0.70457
# Poissons Ratio (z) = 0.20079 0.33348
#
# Static dielectric constant tensor:
#      x y z
#    x 1.661680 0.000000 0.000000 
#    y 0.000000 1.802350 0.000000 
#    z 0.000000 0.000000 1.666730 
# 
# From -- ./inp_files/20405.got.cif
#   From: 2010.05.17/outbox.cif.g08.bks.cpg/sg21_11_cif.got.tgz:20405.got - 2010.06.03 23:14:55.
