data_PCOD9325557
_publ_section_title
;
Structure prediction by ZEFSAII (Michael W. Deem and Ramdas Pophale) SiO2 
 PCOD9325557
Probable space group: C 2 2 2
;
_chemical_formula_sum "Si O2"
_cell_formula_units_Z 32
_cell_length_a 9.705526
_cell_length_b 12.229307
_cell_length_c 8.915695
_cell_angle_alpha 90.000000
_cell_angle_beta 90.000000
_cell_angle_gamma 90.000000
_cell_volume 1058.220396
_symmetry_space_group_name_H-M "C 2 2 2"
_symmetry_group_IT_number 21
_symmetry_cell_setting 'orthorhombic'
loop_
_space_group_symop_operation_xyz
x,y,z
-x,-y,z
x,-y,-z
-x,y,-z
1/2+x,1/2+y,z
1/2-x,1/2-y,z
1/2+x,1/2-y,-z
1/2-x,1/2+y,-z
loop_
_atom_site_type_symbol
_atom_site_label
_atom_site_fract_x
_atom_site_fract_y
_atom_site_fract_z
Si Si1 0.189170 0.361358 0.560657
Si Si2 0.572596 0.104340 0.759457
Si Si3 0.677782 0.343376 0.885966
Si Si4 0.628754 0.451766 0.201251
O O1 0.250000 0.250000 0.492316
O O2 0.130433 0.414566 0.410936
O O3 0.175952 0.088217 0.638106
O O4 0.075695 0.338982 0.689912
O O5 0.644150 0.213740 0.850105
O O6 0.500000 0.000000 0.832673
O O7 0.758601 0.452990 0.826308
O O8 0.544139 0.417264 0.812323
O O9 0.665625 0.369493 0.061587
#
# Coordination Sequence:
#
# PCOD9325557 Si02
#       4
#     8   8   8   8
#     4  11  24  45  73 107 144 189 236 295 357 425
#     4  11  24  48  72 103 148 184 246 298 341 430
#     4  11  24  45  73 105 141 191 237 293 362 421
#     4  11  26  49  68 105 152 186 234 299 362 428
#
# _framework density 30.239446999999998
#
# number of rings (size 3 to 8) (size 9 to 14) (size 15 to 20)
#    0.000    1.000    2.500    4.500    3.500    1.000 
#    4.500    2.500    0.000    0.000    0.000    0.000 
#    0.000    0.000    0.000    0.000    0.000    0.000 
#
# Total GULP energy -89165.856563 kJ/mol
# GULP energy per Si atom -5572.866035 kJ/mol
# Density = 3.017062 g / cm^3
# Si number density = 30.239447 Si / 1000 Ang^3
#
#
#
# Elastic Constant Matrix: (Units=GPa)
#
#
# Indices 1 2 3 4 5 6 
#
# 1 297.5358 85.7411 87.5760 0.0000 0.0000 0.0000
# 2 85.7411 253.6406 83.8669 0.0000 0.0000 0.0000
# 3 87.5760 83.8669 187.4027 0.0000 0.0000 0.0000
# 4 0.0000 0.0000 0.0000 35.6346 0.0000 0.0000
# 5 0.0000 0.0000 0.0000 0.0000 66.1599 0.0000
# 6 0.0000 0.0000 0.0000 0.0000 0.0000 68.0202
#
#
#
# Elastic Compliance Matrix: (Units=1/GPa)
#
#
# Indices 1 2 3 4 5 6 
#
# 1 0.004055 -0.000874 -0.001504 0.000000 0.000000 0.000000
# 2 -0.000874 0.004815 -0.001747 0.000000 0.000000 0.000000
# 3 -0.001504 -0.001747 0.006821 0.000000 0.000000 0.000000
# 4 0.000000 0.000000 0.000000 0.028063 0.000000 0.000000
# 5 0.000000 0.000000 0.000000 0.000000 0.015115 0.000000
# 6 0.000000 0.000000 0.000000 0.000000 0.000000 0.014702
#
#
# Mechanical properties :
#
#
# Convention : Reuss Voigt Hill
#
# Bulk Modulus (GPa) = 134.36299 139.21632 136.78965
# Shear Modulus (GPa) = 59.31152 66.05595 62.68374
#
# Velocity S-wave (km/s) = 4.43357 4.67886 4.55786
# Velocity P-wave (km/s) = 8.41060 8.67911 8.54591
#
# Compressibility (1/GPa) = 0.00744253
#
# Stress axis : x y z
#
# Youngs Moduli (GPa) = 246.58381 207.66435 146.61050
#
# Poissons Ratio (x) = 0.18140 0.22054
# Poissons Ratio (y) = 0.21540 0.25610
# Poissons Ratio (z) = 0.37092 0.36275
#
# Static dielectric constant tensor:
#      x y z
#    x 3.067640 0.000000 0.000000 
#    y 0.000000 2.427990 0.000000 
#    z 0.000000 0.000000 1.944330 
# 
# From -- ./inp_files/14018.got.cif
#   From: 2010.05.17/outbox.cif.g08.bks.cpg/sg21_8_cif.got.tgz:14018.got - 2010.06.03 23:14:55.
