data_PCOD9325391
_publ_section_title
;
Structure prediction by ZEFSAII (Michael W. Deem and Ramdas Pophale) SiO2 
 PCOD9325391
Probable space group: C 2 2 2
;
_chemical_formula_sum "Si O2"
_cell_formula_units_Z 56
_cell_length_a 9.278405
_cell_length_b 19.541365
_cell_length_c 14.972342
_cell_angle_alpha 90.000000
_cell_angle_beta 90.000000
_cell_angle_gamma 90.000000
_cell_volume 2714.675734
_symmetry_space_group_name_H-M "C 2 2 2"
_symmetry_group_IT_number 21
_symmetry_cell_setting 'orthorhombic'
loop_
_space_group_symop_operation_xyz
x,y,z
-x,-y,z
x,-y,-z
-x,y,-z
1/2+x,1/2+y,z
1/2-x,1/2-y,z
1/2+x,1/2-y,-z
1/2-x,1/2+y,-z
loop_
_atom_site_type_symbol
_atom_site_label
_atom_site_fract_x
_atom_site_fract_y
_atom_site_fract_z
Si Si1 0.747921 0.171109 0.664024
Si Si2 0.161545 0.468545 0.410086
Si Si3 0.819076 0.963459 0.094764
Si Si4 0.203500 0.442449 0.757036
Si Si5 0.514299 0.630583 0.775547
Si Si6 0.928331 0.372148 0.833801
Si Si7 0.080414 0.246504 0.913670
O O1 0.750000 0.250000 0.632397
O O2 0.678163 0.113351 0.599113
O O3 0.904726 0.143941 0.694526
O O4 0.660991 0.167829 0.757863
O O5 0.230073 0.500000 0.500000
O O6 0.221440 0.500903 0.319248
O O7 0.000000 0.500000 0.410541
O O8 0.943660 0.925109 0.154103
O O9 0.684984 0.910089 0.101356
O O10 0.754911 0.024923 0.151712
O O11 0.850476 0.000000 0.000000
O O12 0.326900 0.387110 0.739219
O O13 0.041319 0.417684 0.776119
O O14 0.536392 0.698773 0.832201
O O15 0.022529 0.321356 0.891952
O O16 0.250000 0.250000 0.927657
O O17 0.000000 0.218020 0.000000
#
# Coordination Sequence:
#
# PCOD9325391 Si02
#       7
#     8   8   8   8   8   8   8
#     4  11  22  43  71  99 134 176 226 276 348 408
#     4  11  23  44  77 107 134 179 227 286 347 421
#     4  11  26  39  62  94 130 171 224 283 336 391
#     4  12  22  42  63  99 133 172 228 277 338 397
#     4  11  25  40  65  93 133 179 219 282 342 399
#     4  11  23  41  66  91 128 180 228 275 328 401
#     4  12  28  43  59  91 134 182 232 281 336 408
#
# _framework density 20.628613999999999
#
# number of rings (size 3 to 8) (size 9 to 14) (size 15 to 20)
#    0.000    0.714    7.143    0.857    8.000    1.143 
#    0.000    1.429    9.429    0.000    0.000    0.000 
#    0.000    0.000    0.000    0.000    0.000    0.000 
#
# Total GULP energy -156205.751300 kJ/mol
# GULP energy per Si atom -5578.776832 kJ/mol
# Density = 2.058166 g / cm^3
# Si number density = 20.628614 Si / 1000 Ang^3
#
#
#
# Elastic Constant Matrix: (Units=GPa)
#
#
# Indices 1 2 3 4 5 6 
#
# 1 95.5249 32.0752 3.8463 0.0000 0.0000 0.0000
# 2 32.0752 115.7508 19.8409 0.0000 0.0000 0.0000
# 3 3.8463 19.8409 56.4931 0.0000 0.0000 0.0000
# 4 0.0000 0.0000 0.0000 12.8693 0.0000 0.0000
# 5 0.0000 0.0000 0.0000 0.0000 -13.1463 0.0000
# 6 0.0000 0.0000 0.0000 0.0000 0.0000 20.5379
#
#
#
# Elastic Compliance Matrix: (Units=1/GPa)
#
#
# Indices 1 2 3 4 5 6 
#
# 1 0.011549 -0.003262 0.000359 0.000000 0.000000 0.000000
# 2 -0.003262 0.010114 -0.003330 0.000000 0.000000 0.000000
# 3 0.000359 -0.003330 0.018846 0.000000 0.000000 0.000000
# 4 0.000000 0.000000 0.000000 0.077704 0.000000 0.000000
# 5 0.000000 0.000000 0.000000 0.000000 -0.076067 0.000000
# 6 0.000000 0.000000 0.000000 0.000000 0.000000 0.048690
#
#
# Mechanical properties :
#
#
# Convention : Reuss Voigt Hill
#
# Bulk Modulus (GPa) = 35.65794 42.14373 38.90084
# Shear Modulus (GPa) = 44.38502 18.18594 31.28548
#
# Velocity S-wave (km/s) = 4.64359 2.97238 3.89859
# Velocity P-wave (km/s) = 6.78777 5.67927 6.25811
#
# Compressibility (1/GPa) = 0.02804424
#
# Stress axis : x y z
#
# Youngs Moduli (GPa) = 86.58523 98.87327 53.06064
#
# Poissons Ratio (x) = 0.32252 -0.01906
# Poissons Ratio (y) = 0.28244 0.17669
# Poissons Ratio (z) = -0.03111 0.32925
#
# Static dielectric constant tensor:
#      x y z
#    x 1.908330 0.000000 0.000000 
#    y 0.000000 1.796050 0.000000 
#    z 0.000000 0.000000 1.761240 
# 
# From -- ./inp_files/30781.got.cif
#   From: 2010.05.17/outbox.cif.g08.bks.cpg/sg21_16_cif.got.tgz:30781.got - 2010.06.03 23:14:55.
