data_PCOD9325979
_publ_section_title
;
Structure prediction by ZEFSAII (Michael W. Deem and Ramdas Pophale) SiO2 
 PCOD9325979
Probable space group: F 2 2 2
;
_chemical_formula_sum "Si O2"
_cell_formula_units_Z 64
_cell_length_a 5.279152
_cell_length_b 27.176031
_cell_length_c 24.063283
_cell_angle_alpha 90.000000
_cell_angle_beta 90.000000
_cell_angle_gamma 90.000000
_cell_volume 3452.272546
_symmetry_space_group_name_H-M "F 2 2 2"
_symmetry_group_IT_number 22
_symmetry_cell_setting 'orthorhombic'
loop_
_space_group_symop_operation_xyz
x,y,z
-x,-y,z
x,-y,-z
-x,y,-z
x,1/2+y,1/2+z
-x,1/2-y,1/2+z
x,1/2-y,1/2-z
-x,1/2+y,1/2-z
1/2+x,y,1/2+z
1/2-x,-y,1/2+z
1/2+x,-y,1/2-z
1/2-x,y,1/2-z
1/2+x,1/2+y,z
1/2-x,1/2-y,z
1/2+x,1/2-y,-z
1/2-x,1/2+y,-z
loop_
_atom_site_type_symbol
_atom_site_label
_atom_site_fract_x
_atom_site_fract_y
_atom_site_fract_z
Si Si1 0.071801 0.445813 0.919576
Si Si2 0.144145 0.552196 0.309511
Si Si3 0.065309 0.607250 0.592521
Si Si4 0.499625 0.220588 0.432790
O O1 0.126115 0.451410 0.853464
O O2 0.340471 0.423254 0.938253
O O3 0.000000 0.500000 0.939795
O O4 0.839599 0.409113 0.928735
O O5 0.250000 0.567145 0.250000
O O6 0.000000 0.500000 0.304933
O O7 0.962662 0.589551 0.343217
O O8 0.012225 0.664570 0.587115
O O9 0.500000 0.218930 0.500000
O O10 0.750000 0.250000 0.415009
O O11 0.250000 0.250000 0.414937
#
# Coordination Sequence:
#
# PCOD9325979 Si02
#       4
#    16  16  16  16
#     4  10  17  32  48  76 110 145 176 213 257 314
#     4  10  20  29  52  79 115 145 189 214 253 305
#     4  10  20  32  53  80 108 142 177 224 275 319
#     4  10  21  39  62  84 102 131 184 241 285 326
#
# _framework density 18.538512999999998
#
# number of rings (size 3 to 8) (size 9 to 14) (size 15 to 20)
#    1.500    0.500    2.500    3.000    0.000    0.000 
#    0.000    0.000    0.000    9.000    0.000    0.000 
#    0.000    0.000    0.000    0.000    0.000    0.000 
#
# Total GULP energy -89136.556739 kJ/mol
# GULP energy per Si atom -5571.034796 kJ/mol
# Density = 1.849632 g / cm^3
# Si number density = 18.538513 Si / 1000 Ang^3
#
#
#
# Elastic Constant Matrix: (Units=GPa)
#
#
# Indices 1 2 3 4 5 6 
#
# 1 123.6534 29.2607 4.7324 0.0000 0.0000 0.0000
# 2 29.2607 100.1293 -9.5098 0.0000 0.0000 0.0000
# 3 4.7324 -9.5098 59.0172 0.0000 0.0000 0.0000
# 4 0.0000 0.0000 0.0000 11.2843 0.0000 0.0000
# 5 0.0000 0.0000 0.0000 0.0000 2.7067 0.0000
# 6 0.0000 0.0000 0.0000 0.0000 0.0000 35.7486
#
#
#
# Elastic Compliance Matrix: (Units=1/GPa)
#
#
# Indices 1 2 3 4 5 6 
#
# 1 0.008762 -0.002668 -0.001132 0.000000 0.000000 0.000000
# 2 -0.002668 0.010955 0.001979 0.000000 0.000000 0.000000
# 3 -0.001132 0.001979 0.017354 0.000000 0.000000 0.000000
# 4 0.000000 0.000000 0.000000 0.088618 0.000000 0.000000
# 5 0.000000 0.000000 0.000000 0.000000 0.369450 0.000000
# 6 0.000000 0.000000 0.000000 0.000000 0.000000 0.027973
#
#
# Mechanical properties :
#
#
# Convention : Reuss Voigt Hill
#
# Bulk Modulus (GPa) = 29.91527 36.86293 33.38910
# Shear Modulus (GPa) = 9.29545 27.16905 18.23225
#
# Velocity S-wave (km/s) = 2.24165 3.83240 3.13945
# Velocity P-wave (km/s) = 4.78245 6.28576 5.58492
#
# Compressibility (1/GPa) = 0.03342775
#
# Stress axis : x y z
#
# Youngs Moduli (GPa) = 114.13178 91.28486 57.62378
#
# Poissons Ratio (x) = 0.24355 0.06526
# Poissons Ratio (y) = 0.30450 -0.11405
# Poissons Ratio (z) = 0.12925 -0.18067
#
# Static dielectric constant tensor:
#      x y z
#    x 1.666470 0.000000 0.000000 
#    y 0.000000 1.603200 0.000000 
#    z 0.000000 0.000000 1.660110 
# 
# From -- ./inp_files/5475.got.cif
#   From: 2010.05.17/outbox.cif.g08.bks.cpg/sg22_3_cif.got.tgz:5475.got - 2010.06.03 23:40:54.
