data_PCOD9325245
_publ_section_title
;
Structure prediction by ZEFSAII (Michael W. Deem and Ramdas Pophale) SiO2 
 PCOD9325245
Probable space group: C 2 2 2
;
_chemical_formula_sum "Si O2"
_cell_formula_units_Z 40
_cell_length_a 17.032668
_cell_length_b 11.960184
_cell_length_c 9.156887
_cell_angle_alpha 90.000000
_cell_angle_beta 90.000000
_cell_angle_gamma 90.000000
_cell_volume 1865.384643
_symmetry_space_group_name_H-M "C 2 2 2"
_symmetry_group_IT_number 21
_symmetry_cell_setting 'orthorhombic'
loop_
_space_group_symop_operation_xyz
x,y,z
-x,-y,z
x,-y,-z
-x,y,-z
1/2+x,1/2+y,z
1/2-x,1/2-y,z
1/2+x,1/2-y,-z
1/2-x,1/2+y,-z
loop_
_atom_site_type_symbol
_atom_site_label
_atom_site_fract_x
_atom_site_fract_y
_atom_site_fract_z
Si Si1 0.376096 0.450199 0.160469
Si Si2 0.162167 0.706062 0.254987
Si Si3 0.804545 0.464293 0.828991
Si Si4 0.418807 0.397530 0.586986
Si Si5 0.416001 0.782684 0.940341
O O1 0.285062 0.432263 0.210200
O O2 0.419105 0.542115 0.257009
O O3 0.420902 0.333214 0.146770
O O4 0.371801 0.500000 0.000000
O O5 0.250000 0.750000 0.262274
O O6 0.165796 0.571621 0.261298
O O7 0.116837 0.776465 0.378323
O O8 0.131962 0.734351 0.091204
O O9 0.868214 0.366273 0.836136
O O10 0.800947 0.500000 0.000000
O O11 0.375436 0.500000 0.500000
O O12 0.500000 0.383684 0.500000
O O13 0.500000 0.823800 0.000000
#
# Coordination Sequence:
#
# PCOD9325245 Si02
#       5
#     8   8   8   8   8
#     4  11  20  41  73 103 135 183 241 298 365 426
#     4  11  20  44  72  95 138 193 234 295 365 431
#     4   9  19  37  69 105 138 175 235 289 357 444
#     4  11  26  42  68 101 142 181 242 307 355 428
#     4  11  23  34  68 114 150 174 227 301 371 431
#
# _framework density 21.443299
#
# number of rings (size 3 to 8) (size 9 to 14) (size 15 to 20)
#    0.000    1.400    4.000    3.000    5.600    4.000 
#    0.000    2.000    0.000    1.200    0.000    0.000 
#    0.000    0.000    0.000    0.000    0.000    0.000 
#
# Total GULP energy -111543.849330 kJ/mol
# GULP energy per Si atom -5577.192467 kJ/mol
# Density = 2.139449 g / cm^3
# Si number density = 21.443299 Si / 1000 Ang^3
#
#
#
# Elastic Constant Matrix: (Units=GPa)
#
#
# Indices 1 2 3 4 5 6 
#
# 1 133.7175 54.6219 45.1607 0.0000 0.0000 0.0000
# 2 54.6219 108.4640 39.3301 0.0000 0.0000 0.0000
# 3 45.1607 39.3301 61.8577 0.0000 0.0000 0.0000
# 4 0.0000 0.0000 0.0000 -21.3701 0.0000 0.0000
# 5 0.0000 0.0000 0.0000 0.0000 16.6585 0.0000
# 6 0.0000 0.0000 0.0000 0.0000 0.0000 37.9500
#
#
#
# Elastic Compliance Matrix: (Units=1/GPa)
#
#
# Indices 1 2 3 4 5 6 
#
# 1 0.010787 -0.003349 -0.005746 0.000000 0.000000 0.000000
# 2 -0.003349 0.013022 -0.005835 0.000000 0.000000 0.000000
# 3 -0.005746 -0.005835 0.024071 0.000000 0.000000 0.000000
# 4 0.000000 0.000000 0.000000 -0.046794 0.000000 0.000000
# 5 0.000000 0.000000 0.000000 0.000000 0.060030 0.000000
# 6 0.000000 0.000000 0.000000 0.000000 0.000000 0.026350
#
#
# Mechanical properties :
#
#
# Convention : Reuss Voigt Hill
#
# Bulk Modulus (GPa) = 55.49145 64.69607 60.09376
# Shear Modulus (GPa) = 40.54122 17.64278 29.09200
#
# Velocity S-wave (km/s) = 4.35285 2.87150 3.68733
# Velocity P-wave (km/s) = 7.15524 6.42108 6.79808
#
# Compressibility (1/GPa) = 0.01802079
#
# Stress axis : x y z
#
# Youngs Moduli (GPa) = 92.70409 76.79483 41.54366
#
# Poissons Ratio (x) = 0.25716 0.23872
# Poissons Ratio (y) = 0.31043 0.24239
# Poissons Ratio (z) = 0.53270 0.44807
#
# Static dielectric constant tensor:
#      x y z
#    x 1.841570 0.000000 0.000000 
#    y 0.000000 1.833840 0.000000 
#    z 0.000000 0.000000 1.754210 
# 
# From -- ./inp_files/16121.got.cif
#   From: 2010.05.17/outbox.cif.g08.bks.cpg/sg21_9_cif.got.tgz:16121.got - 2010.06.03 23:14:55.
