data_PCOD9325295
_publ_section_title
;
Structure prediction by ZEFSAII (Michael W. Deem and Ramdas Pophale) SiO2 
 PCOD9325295
Probable space group: C 2 2 2
;
_chemical_formula_sum "Si O2"
_cell_formula_units_Z 40
_cell_length_a 8.903404
_cell_length_b 18.853530
_cell_length_c 11.935554
_cell_angle_alpha 90.000000
_cell_angle_beta 90.000000
_cell_angle_gamma 90.000000
_cell_volume 2003.509189
_symmetry_space_group_name_H-M "C 2 2 2"
_symmetry_group_IT_number 21
_symmetry_cell_setting 'orthorhombic'
loop_
_space_group_symop_operation_xyz
x,y,z
-x,-y,z
x,-y,-z
-x,y,-z
1/2+x,1/2+y,z
1/2-x,1/2-y,z
1/2+x,1/2-y,-z
1/2-x,1/2+y,-z
loop_
_atom_site_type_symbol
_atom_site_label
_atom_site_fract_x
_atom_site_fract_y
_atom_site_fract_z
Si Si1 0.174653 0.585270 0.001643
Si Si2 0.833261 0.323691 0.544497
Si Si3 0.342291 0.562685 0.433039
Si Si4 0.576218 0.426835 0.185090
Si Si5 0.713982 0.665214 0.217630
O O1 0.292832 0.601134 0.102588
O O2 0.174296 0.500000 0.000000
O O3 0.232844 0.621694 0.889522
O O4 0.000000 0.607781 0.000000
O O5 0.750000 0.250000 0.554631
O O6 0.749038 0.367219 0.449922
O O7 0.801401 0.356708 0.667939
O O8 0.000000 0.315281 0.500000
O O9 0.261411 0.500000 0.500000
O O10 0.500000 0.571530 0.500000
O O11 0.359618 0.546418 0.303715
O O12 0.500000 0.500000 0.137152
O O13 0.459298 0.363629 0.220147
O O14 0.750000 0.750000 0.202251
#
# Coordination Sequence:
#
# PCOD9325295 Si02
#       5
#     8   8   8   8   8
#     4  11  26  44  67  99 137 183 243 296 354 430
#     4  11  25  43  68  98 143 185 228 288 362 435
#     4  11  21  40  67 107 138 173 234 288 342 431
#     4  12  22  43  75 100 137 194 241 291 366 435
#     4  11  25  44  68 104 139 180 244 294 352 431
#
# _framework density 19.964969
#
# number of rings (size 3 to 8) (size 9 to 14) (size 15 to 20)
#    0.000    0.800    6.000    1.200    5.600    2.000 
#    0.000    1.000    0.000    0.000    0.000    0.000 
#    0.000    0.000    0.000    0.000    0.000    0.000 
#
# Total GULP energy -111396.360639 kJ/mol
# GULP energy per Si atom -5569.818032 kJ/mol
# Density = 1.991953 g / cm^3
# Si number density = 19.964969 Si / 1000 Ang^3
#
#
#
# Elastic Constant Matrix: (Units=GPa)
#
#
# Indices 1 2 3 4 5 6 
#
# 1 115.9015 17.3043 64.8388 0.0000 0.0000 0.0000
# 2 17.3043 65.3068 12.5825 0.0000 0.0000 0.0000
# 3 64.8388 12.5825 138.5210 0.0000 0.0000 0.0000
# 4 0.0000 0.0000 0.0000 26.6881 0.0000 0.0000
# 5 0.0000 0.0000 0.0000 0.0000 15.8539 0.0000
# 6 0.0000 0.0000 0.0000 0.0000 0.0000 28.4223
#
#
#
# Elastic Compliance Matrix: (Units=1/GPa)
#
#
# Indices 1 2 3 4 5 6 
#
# 1 0.011973 -0.002130 -0.005411 0.000000 0.000000 0.000000
# 2 -0.002130 0.015964 -0.000453 0.000000 0.000000 0.000000
# 3 -0.005411 -0.000453 0.009793 0.000000 0.000000 0.000000
# 4 0.000000 0.000000 0.000000 0.037470 0.000000 0.000000
# 5 0.000000 0.000000 0.000000 0.000000 0.063076 0.000000
# 6 0.000000 0.000000 0.000000 0.000000 0.000000 0.035184
#
#
# Mechanical properties :
#
#
# Convention : Reuss Voigt Hill
#
# Bulk Modulus (GPa) = 45.99353 56.57560 51.28457
# Shear Modulus (GPa) = 25.42008 29.19310 27.30659
#
# Velocity S-wave (km/s) = 3.57211 3.82804 3.70229
# Velocity P-wave (km/s) = 6.33249 6.92369 6.63468
#
# Compressibility (1/GPa) = 0.02174219
#
# Stress axis : x y z
#
# Youngs Moduli (GPa) = 83.52120 62.64087 102.11398
#
# Poissons Ratio (x) = 0.13342 0.55252
# Poissons Ratio (y) = 0.17790 0.04627
# Poissons Ratio (z) = 0.45192 0.02838
#
# Static dielectric constant tensor:
#      x y z
#    x 1.874350 0.000000 0.000000 
#    y 0.000000 1.734100 0.000000 
#    z 0.000000 0.000000 1.839350 
# 
# From -- ./inp_files/22244.got.cif
#   From: 2010.05.17/outbox.cif.g08.bks.cpg/sg21_12_cif.got.tgz:22244.got - 2010.06.03 23:14:55.
