data_PCOD9325933
_publ_section_title
;
Structure prediction by ZEFSAII (Michael W. Deem and Ramdas Pophale) SiO2 
 PCOD9325933
Probable space group: F 2 2 2
;
_chemical_formula_sum "Si O2"
_cell_formula_units_Z 120
_cell_length_a 21.172750
_cell_length_b 26.769947
_cell_length_c 13.195943
_cell_angle_alpha 90.000000
_cell_angle_beta 90.000000
_cell_angle_gamma 90.000000
_cell_volume 7479.373338
_symmetry_space_group_name_H-M "F 2 2 2"
_symmetry_group_IT_number 22
_symmetry_cell_setting 'orthorhombic'
loop_
_space_group_symop_operation_xyz
x,y,z
-x,-y,z
x,-y,-z
-x,y,-z
x,1/2+y,1/2+z
-x,1/2-y,1/2+z
x,1/2-y,1/2-z
-x,1/2+y,1/2-z
1/2+x,y,1/2+z
1/2-x,-y,1/2+z
1/2+x,-y,1/2-z
1/2-x,y,1/2-z
1/2+x,1/2+y,z
1/2-x,1/2-y,z
1/2+x,1/2-y,-z
1/2-x,1/2+y,-z
loop_
_atom_site_type_symbol
_atom_site_label
_atom_site_fract_x
_atom_site_fract_y
_atom_site_fract_z
Si Si1 0.000000 0.000000 0.789394
Si Si2 0.896293 0.928977 0.254837
Si Si3 0.981769 0.166185 0.787278
Si Si4 0.169679 0.056404 0.039413
Si Si5 0.946864 0.092592 0.086448
Si Si6 0.956545 0.765254 0.404030
Si Si7 0.217522 0.606697 0.858634
Si Si8 0.187123 0.776090 0.637787
O O1 0.965217 0.959725 0.860665
O O2 0.049536 0.968817 0.724717
O O3 0.928127 0.875795 0.227957
O O4 0.862972 0.945891 0.150305
O O5 0.848426 0.921941 0.346884
O O6 0.982162 0.197580 0.683544
O O7 0.964565 0.208049 0.869034
O O8 0.042249 0.135822 0.829826
O O9 0.234926 0.086211 0.056924
O O10 0.120668 0.085596 0.966454
O O11 0.179141 0.000000 0.000000
O O12 0.000000 0.101504 0.000000
O O13 0.880976 0.771899 0.415125
O O14 0.000000 0.774273 0.500000
O O15 0.250000 0.597424 0.750000
O O16 0.203850 0.665554 0.859560
O O17 0.178928 0.750000 0.750000
O O18 0.250000 0.750000 0.593295
#
# Coordination Sequence:
#
# PCOD9325933 Si02
#       8
#     8  16  16  16  16  16  16  16
#     4  10  17  26  52  76 109 134 167 230 278 330
#     4  10  18  31  51  78 108 136 178 225 284 325
#     4  10  20  32  52  82 109 140 180 223 273 339
#     4  11  20  31  50  79 114 142 176 227 289 333
#     4  11  17  28  49  80 111 133 171 226 280 329
#     4  11  22  35  53  78 119 150 178 223 281 333
#     4  10  20  31  51  75 109 147 174 227 282 335
#     4  11  19  33  56  83 115 136 182 230 279 336
#
# _framework density 16.044125000000001
#
# number of rings (size 3 to 8) (size 9 to 14) (size 15 to 20)
#    0.000    1.467    8.000    0.600    1.867    0.000 
#    0.000    0.000    5.867    0.000    0.000    9.800 
#    0.000    0.000    0.000    0.000    0.000    0.000 
#
# Total GULP energy -167076.575498 kJ/mol
# GULP energy per Si atom -5569.219183 kJ/mol
# Density = 1.600761 g / cm^3
# Si number density = 16.044125 Si / 1000 Ang^3
#
#
#
# Elastic Constant Matrix: (Units=GPa)
#
#
# Indices 1 2 3 4 5 6 
#
# 1 134.3206 61.8790 55.1429 0.0000 0.0000 0.0000
# 2 61.8790 114.0233 32.5503 0.0000 0.0000 0.0000
# 3 55.1429 32.5503 42.3612 0.0000 0.0000 0.0000
# 4 0.0000 0.0000 0.0000 11.4971 0.0000 0.0000
# 5 0.0000 0.0000 0.0000 0.0000 26.1631 0.0000
# 6 0.0000 0.0000 0.0000 0.0000 0.0000 20.1712
#
#
#
# Elastic Compliance Matrix: (Units=1/GPa)
#
#
# Indices 1 2 3 4 5 6 
#
# 1 0.017163 -0.003761 -0.019452 0.000000 0.000000 0.000000
# 2 -0.003761 0.012059 -0.004370 0.000000 0.000000 0.000000
# 3 -0.019452 -0.004370 0.052285 0.000000 0.000000 0.000000
# 4 0.000000 0.000000 0.000000 0.086979 0.000000 0.000000
# 5 0.000000 0.000000 0.000000 0.000000 0.038222 0.000000
# 6 0.000000 0.000000 0.000000 0.000000 0.000000 0.049576
#
#
# Mechanical properties :
#
#
# Convention : Reuss Voigt Hill
#
# Bulk Modulus (GPa) = 37.96273 65.53884 51.75078
# Shear Modulus (GPa) = 15.61383 20.97513 18.29448
#
# Velocity S-wave (km/s) = 3.12297 3.61964 3.38044
# Velocity P-wave (km/s) = 6.05943 7.64244 6.89651
#
# Compressibility (1/GPa) = 0.02634162
#
# Stress axis : x y z
#
# Youngs Moduli (GPa) = 58.26424 82.92696 19.12594
#
# Poissons Ratio (x) = 0.31192 0.37203
# Poissons Ratio (y) = 0.21915 0.08357
# Poissons Ratio (z) = 1.13333 0.36236
#
# Static dielectric constant tensor:
#      x y z
#    x 1.581270 0.000000 0.000000 
#    y 0.000000 1.546940 0.000000 
#    z 0.000000 0.000000 1.531180 
# 
# From -- ./inp_files/31932.got.cif
#   From: 2010.05.17/outbox.cif.g08.bks.cpg/sg22_16_cif.got.tgz:31932.got - 2010.06.03 23:40:54.
