data_PCOD9325787
_publ_section_title
;
Structure prediction by ZEFSAII (Michael W. Deem and Ramdas Pophale) SiO2 
 PCOD9325787
Probable space group: C 2 2 2
;
_chemical_formula_sum "Si O2"
_cell_formula_units_Z 30
_cell_length_a 23.248792
_cell_length_b 5.403582
_cell_length_c 10.970852
_cell_angle_alpha 90.000000
_cell_angle_beta 90.000000
_cell_angle_gamma 90.000000
_cell_volume 1378.232525
_symmetry_space_group_name_H-M "C 2 2 2"
_symmetry_group_IT_number 21
_symmetry_cell_setting 'orthorhombic'
loop_
_space_group_symop_operation_xyz
x,y,z
-x,-y,z
x,-y,-z
-x,y,-z
1/2+x,1/2+y,z
1/2-x,1/2-y,z
1/2+x,1/2-y,-z
1/2-x,1/2+y,-z
loop_
_atom_site_type_symbol
_atom_site_label
_atom_site_fract_x
_atom_site_fract_y
_atom_site_fract_z
Si Si1 0.649464 0.500000 0.000000
Si Si2 0.750000 0.750000 0.114158
Si Si3 0.250000 0.750000 0.275900
Si Si4 0.558414 0.650395 0.809547
Si Si5 0.500000 0.000000 0.000000
Si Si6 0.369226 0.249347 0.578212
O O1 0.693808 0.279097 0.970631
O O2 0.609242 0.508747 0.880874
O O3 0.752022 0.503366 0.197094
O O4 0.306746 0.741012 0.358837
O O5 0.500000 0.500000 0.785611
O O6 0.584044 0.755787 0.686089
O O7 0.539979 0.846044 0.910940
O O8 0.377221 0.500000 0.500000
O O9 0.373548 0.000000 0.500000
#
# Coordination Sequence:
#
# PCOD9325787 Si02
#       6
#     4   4   4   8   2   8
#     4  12  25  49  74 122 160 198 258 330 408 478
#     4  12  27  43  78 120 158 199 249 328 392 478
#     4  12  25  49  78 112 158 201 263 320 402 460
#     4  12  28  50  78 114 156 209 258 327 402 471
#     4  12  26  46  86 110 150 208 258 330 404 484
#     4  12  29  52  79 110 155 205 265 323 382 470
#
# _framework density 21.767011
#
# number of rings (size 3 to 8) (size 9 to 14) (size 15 to 20)
#    0.000    0.000    5.333    3.200    7.467    0.533 
#    0.000    0.000    0.000    0.000    0.000    0.000 
#    0.000    0.000    0.000    0.000    0.000    0.000 
#
# Total GULP energy -83951.918798 kJ/mol
# GULP energy per Si atom -5596.794587 kJ/mol
# Density = 2.171747 g / cm^3
# Si number density = 21.767011 Si / 1000 Ang^3
#
#
#
# Elastic Constant Matrix: (Units=GPa)
#
#
# Indices 1 2 3 4 5 6 
#
# 1 178.3067 63.3520 87.4157 0.0000 0.0000 0.0000
# 2 63.3520 168.5520 97.7064 0.0000 0.0000 0.0000
# 3 87.4157 97.7064 168.3445 0.0000 0.0000 0.0000
# 4 0.0000 0.0000 0.0000 116.4416 0.0000 0.0000
# 5 0.0000 0.0000 0.0000 0.0000 -22.1153 0.0000
# 6 0.0000 0.0000 0.0000 0.0000 0.0000 71.5813
#
#
#
# Elastic Compliance Matrix: (Units=1/GPa)
#
#
# Indices 1 2 3 4 5 6 
#
# 1 0.007605 -0.000858 -0.003451 0.000000 0.000000 0.000000
# 2 -0.000858 0.009038 -0.004800 0.000000 0.000000 0.000000
# 3 -0.003451 -0.004800 0.010518 0.000000 0.000000 0.000000
# 4 0.000000 0.000000 0.000000 0.008588 0.000000 0.000000
# 5 0.000000 0.000000 0.000000 0.000000 -0.045218 0.000000
# 6 0.000000 0.000000 0.000000 0.000000 0.000000 0.013970
#
#
# Mechanical properties :
#
#
# Convention : Reuss Voigt Hill
#
# Bulk Modulus (GPa) = 111.82011 112.46128 112.14069
# Shear Modulus (GPa) = 194.54744 50.96347 122.75545
#
# Velocity S-wave (km/s) = 9.46421 4.84396 7.51782
# Velocity P-wave (km/s) = 13.07330 9.11391 11.26886
#
# Compressibility (1/GPa) = 0.00894294
#
# Stress axis : x y z
#
# Youngs Moduli (GPa) = 131.49149 110.64608 95.07329
#
# Poissons Ratio (x) = 0.09492 0.32811
# Poissons Ratio (y) = 0.11280 0.45636
# Poissons Ratio (z) = 0.45380 0.53111
#
# Static dielectric constant tensor:
#      x y z
#    x 1.261150 0.000000 0.000000 
#    y 0.000000 1.826230 0.000000 
#    z 0.000000 0.000000 1.777040 
# 
# From -- ./inp_files/20610.got.cif
#   From: 2010.05.17/outbox.cif.g08.bks.cpg/sg21_11_cif.got.tgz:20610.got - 2010.06.03 23:14:55.
