data_PCOD9325447
_publ_section_title
;
Structure prediction by ZEFSAII (Michael W. Deem and Ramdas Pophale) SiO2 
 PCOD9325447
Probable space group: C 2 2 2
;
_chemical_formula_sum "Si O2"
_cell_formula_units_Z 40
_cell_length_a 10.946043
_cell_length_b 10.275834
_cell_length_c 16.850781
_cell_angle_alpha 90.000000
_cell_angle_beta 90.000000
_cell_angle_gamma 90.000000
_cell_volume 1895.371143
_symmetry_space_group_name_H-M "C 2 2 2"
_symmetry_group_IT_number 21
_symmetry_cell_setting 'orthorhombic'
loop_
_space_group_symop_operation_xyz
x,y,z
-x,-y,z
x,-y,-z
-x,y,-z
1/2+x,1/2+y,z
1/2-x,1/2-y,z
1/2+x,1/2-y,-z
1/2-x,1/2+y,-z
loop_
_atom_site_type_symbol
_atom_site_label
_atom_site_fract_x
_atom_site_fract_y
_atom_site_fract_z
Si Si1 0.311024 0.038275 0.187765
Si Si2 0.881170 0.090686 0.293693
Si Si3 0.535965 0.796668 0.836153
Si Si4 0.140877 0.848251 0.474371
Si Si5 0.904239 0.909170 0.078197
O O1 0.232814 0.994426 0.262988
O O2 0.368061 0.910005 0.146325
O O3 0.421172 0.134274 0.206025
O O4 0.219159 0.101793 0.125353
O O5 0.857786 0.152330 0.378887
O O6 0.904133 0.199023 0.226341
O O7 0.000000 0.000000 0.302133
O O8 0.478753 0.725285 0.913393
O O9 0.250000 0.750000 0.502390
O O10 0.000000 0.814791 0.500000
O O11 0.162105 0.000000 0.500000
O O12 0.000000 0.000000 0.125452
O O13 0.883071 0.000000 0.000000
#
# Coordination Sequence:
#
# PCOD9325447 Si02
#       5
#     8   8   8   8   8
#     4  11  23  42  66  96 125 165 211 271 327 384
#     4  12  22  43  71  97 131 172 215 270 327 385
#     4  11  23  42  67  95 126 164 216 266 328 389
#     4  11  25  46  70 102 142 184 228 276 336 405
#     4  11  23  42  60  88 122 167 210 259 320 383
#
# _framework density 21.104044999999999
#
# number of rings (size 3 to 8) (size 9 to 14) (size 15 to 20)
#    0.000    0.800    6.000    2.400    0.000    2.000 
#   14.400    1.000    0.000    0.000    0.000    0.000 
#    0.000    0.000    0.000    0.000    0.000    0.000 
#
# Total GULP energy -111470.662966 kJ/mol
# GULP energy per Si atom -5573.533148 kJ/mol
# Density = 2.105601 g / cm^3
# Si number density = 21.104045 Si / 1000 Ang^3
#
#
#
# Elastic Constant Matrix: (Units=GPa)
#
#
# Indices 1 2 3 4 5 6 
#
# 1 127.0150 51.2209 20.9776 0.0000 0.0000 0.0000
# 2 51.2209 90.2782 16.2194 0.0000 0.0000 0.0000
# 3 20.9776 16.2194 98.8480 0.0000 0.0000 0.0000
# 4 0.0000 0.0000 0.0000 6.9978 0.0000 0.0000
# 5 0.0000 0.0000 0.0000 0.0000 50.6594 0.0000
# 6 0.0000 0.0000 0.0000 0.0000 0.0000 51.9637
#
#
#
# Elastic Compliance Matrix: (Units=1/GPa)
#
#
# Indices 1 2 3 4 5 6 
#
# 1 0.010362 -0.005650 -0.001272 0.000000 0.000000 0.000000
# 2 -0.005650 0.014495 -0.001179 0.000000 0.000000 0.000000
# 3 -0.001272 -0.001179 0.010580 0.000000 0.000000 0.000000
# 4 0.000000 0.000000 0.000000 0.142903 0.000000 0.000000
# 5 0.000000 0.000000 0.000000 0.000000 0.019740 0.000000
# 6 0.000000 0.000000 0.000000 0.000000 0.000000 0.019244
#
#
# Mechanical properties :
#
#
# Convention : Reuss Voigt Hill
#
# Bulk Modulus (GPa) = 51.99296 54.77523 53.38409
# Shear Modulus (GPa) = 20.83879 37.10572 28.97226
#
# Velocity S-wave (km/s) = 3.14575 4.19767 3.70919
# Velocity P-wave (km/s) = 6.15502 7.03599 6.61020
#
# Compressibility (1/GPa) = 0.01923337
#
# Stress axis : x y z
#
# Youngs Moduli (GPa) = 96.50863 68.99122 94.51850
#
# Poissons Ratio (x) = 0.38983 0.12021
# Poissons Ratio (y) = 0.54531 0.11146
# Poissons Ratio (z) = 0.12274 0.08135
#
# Static dielectric constant tensor:
#      x y z
#    x 1.802520 0.000000 0.000000 
#    y 0.000000 1.812810 0.000000 
#    z 0.000000 0.000000 1.774040 
# 
# From -- ./inp_files/36042.got.cif
#   From: 2010.05.17/outbox.cif.g08.bks.cpg/sg21_19_cif.got.tgz:36042.got - 2010.06.03 23:14:55.
