data_PCOD9325923
_publ_section_title
;
Structure prediction by ZEFSAII (Michael W. Deem and Ramdas Pophale) SiO2 
 PCOD9325923
Probable space group: F 2 2 2
;
_chemical_formula_sum "Si O2"
_cell_formula_units_Z 108
_cell_length_a 26.869085
_cell_length_b 12.133632
_cell_length_c 14.379990
_cell_angle_alpha 90.000000
_cell_angle_beta 90.000000
_cell_angle_gamma 90.000000
_cell_volume 4688.158438
_symmetry_space_group_name_H-M "F 2 2 2"
_symmetry_group_IT_number 22
_symmetry_cell_setting 'orthorhombic'
loop_
_space_group_symop_operation_xyz
x,y,z
-x,-y,z
x,-y,-z
-x,y,-z
x,1/2+y,1/2+z
-x,1/2-y,1/2+z
x,1/2-y,1/2-z
-x,1/2+y,1/2-z
1/2+x,y,1/2+z
1/2-x,-y,1/2+z
1/2+x,-y,1/2-z
1/2-x,y,1/2-z
1/2+x,1/2+y,z
1/2-x,1/2-y,z
1/2+x,1/2-y,-z
1/2-x,1/2+y,-z
loop_
_atom_site_type_symbol
_atom_site_label
_atom_site_fract_x
_atom_site_fract_y
_atom_site_fract_z
Si Si1 0.055085 0.702574 0.648564
Si Si2 0.439955 0.628076 0.497952
Si Si3 0.056802 0.304415 0.651519
Si Si4 0.782439 0.406955 0.395243
Si Si5 0.750000 0.250000 0.250000
Si Si6 0.871481 0.509017 0.305695
Si Si7 0.250000 0.750000 0.556378
Si Si8 0.816673 0.955482 0.393261
O O1 0.048968 0.750000 0.750000
O O2 0.075444 0.802983 0.587272
O O3 0.095057 0.608227 0.657879
O O4 0.999394 0.664117 0.617034
O O5 0.427521 0.500000 0.500000
O O6 0.500000 0.629185 0.500000
O O7 0.423169 0.706181 0.414013
O O8 0.049573 0.250000 0.750000
O O9 0.093947 0.403514 0.671646
O O10 0.786615 0.317185 0.315241
O O11 0.824696 0.494068 0.373837
O O12 0.778572 0.338226 0.490006
O O13 0.730063 0.464802 0.375883
O O14 0.853109 0.526178 0.197202
O O15 0.208212 0.830942 0.604262
O O16 0.830560 0.000000 0.500000
#
# Coordination Sequence:
#
# PCOD9325923 Si02
#       8
#    16  16  16  16   4  16   8  16
#     4  10  24  46  68 103 151 193 237 299 358 416
#     4   9  20  45  78 101 134 190 243 296 367 432
#     4  10  24  43  70 107 145 195 243 292 355 424
#     4  10  21  40  71 100 132 177 230 290 361 427
#     4  10  16  36  68  94 130 160 214 294 340 422
#     4  12  24  42  70 108 146 192 242 296 359 437
#     4   9  22  43  71 100 145 180 228 299 362 434
#     4  10  22  45  69 104 142 188 236 293 368 435
#
# _framework density 23.036763000000001
#
# number of rings (size 3 to 8) (size 9 to 14) (size 15 to 20)
#    0.000    1.926    1.481    0.444    3.111    1.778 
#   13.333    2.963    0.000    0.889    0.000    0.000 
#    0.000    0.000    0.000    0.000    0.000    0.000 
#
# Total GULP energy -150524.151692 kJ/mol
# GULP energy per Si atom -5574.968581 kJ/mol
# Density = 2.298433 g / cm^3
# Si number density = 23.036763 Si / 1000 Ang^3
#
#
#
# Elastic Constant Matrix: (Units=GPa)
#
#
# Indices 1 2 3 4 5 6 
#
# 1 118.2173 77.9560 47.0597 0.0000 0.0000 0.0000
# 2 77.9560 182.6797 96.1101 0.0000 0.0000 0.0000
# 3 47.0597 96.1101 143.8259 0.0000 0.0000 0.0000
# 4 0.0000 0.0000 0.0000 42.9506 0.0000 0.0000
# 5 0.0000 0.0000 0.0000 0.0000 26.9265 0.0000
# 6 0.0000 0.0000 0.0000 0.0000 0.0000 39.1562
#
#
#
# Elastic Compliance Matrix: (Units=1/GPa)
#
#
# Indices 1 2 3 4 5 6 
#
# 1 0.011826 -0.004643 -0.000767 0.000000 0.000000 0.000000
# 2 -0.004643 0.010265 -0.005340 0.000000 0.000000 0.000000
# 3 -0.000767 -0.005340 0.010772 0.000000 0.000000 0.000000
# 4 0.000000 0.000000 0.000000 0.023283 0.000000 0.000000
# 5 0.000000 0.000000 0.000000 0.000000 0.037138 0.000000
# 6 0.000000 0.000000 0.000000 0.000000 0.000000 0.025539
#
#
# Mechanical properties :
#
#
# Convention : Reuss Voigt Hill
#
# Bulk Modulus (GPa) = 88.00447 98.55273 93.27860
# Shear Modulus (GPa) = 34.69547 36.71313 35.70430
#
# Velocity S-wave (km/s) = 3.88505 3.99642 3.94113
# Velocity P-wave (km/s) = 7.64261 8.01053 7.82873
#
# Compressibility (1/GPa) = 0.01136306
#
# Stress axis : x y z
#
# Youngs Moduli (GPa) = 84.55875 97.41757 92.83080
#
# Poissons Ratio (x) = 0.45234 0.07117
# Poissons Ratio (y) = 0.39263 0.49574
# Poissons Ratio (z) = 0.06483 0.52024
#
# Static dielectric constant tensor:
#      x y z
#    x 2.021540 0.000000 0.000000 
#    y 0.000000 -1.315230 0.000000 
#    z 0.000000 0.000000 1.876860 
# 
# From -- ./inp_files/33546.got.cif
#   From: 2010.05.17/outbox.cif.g08.bks.cpg/sg22_17_cif.got.tgz:33546.got - 2010.06.03 23:40:54.
