data_PCOD9325529
_publ_section_title
;
Structure prediction by ZEFSAII (Michael W. Deem and Ramdas Pophale) SiO2 
 PCOD9325529
Probable space group: C 2 2 2
;
_chemical_formula_sum "Si O2"
_cell_formula_units_Z 32
_cell_length_a 35.160564
_cell_length_b 8.388894
_cell_length_c 4.942577
_cell_angle_alpha 90.000000
_cell_angle_beta 90.000000
_cell_angle_gamma 90.000000
_cell_volume 1457.853835
_symmetry_space_group_name_H-M "C 2 2 2"
_symmetry_group_IT_number 21
_symmetry_cell_setting 'orthorhombic'
loop_
_space_group_symop_operation_xyz
x,y,z
-x,-y,z
x,-y,-z
-x,y,-z
1/2+x,1/2+y,z
1/2-x,1/2-y,z
1/2+x,1/2-y,-z
1/2-x,1/2+y,-z
loop_
_atom_site_type_symbol
_atom_site_label
_atom_site_fract_x
_atom_site_fract_y
_atom_site_fract_z
Si Si1 0.667084 0.685032 0.427371
Si Si2 0.707735 0.814888 0.926581
Si Si3 0.583749 0.813822 0.567594
Si Si4 0.456865 0.686684 0.931758
O O1 0.670969 0.500000 0.500000
O O2 0.678602 0.720296 0.120000
O O3 0.624799 0.742977 0.495767
O O4 0.695636 0.783320 0.619140
O O5 0.750000 0.750000 0.974040
O O6 0.705628 0.000000 0.000000
O O7 0.553475 0.723859 0.376321
O O8 0.583175 0.000000 0.500000
O O9 0.572054 0.781749 0.875652
O O10 0.452622 0.500000 0.000000
O O11 0.500000 0.733951 0.000000
#
# Coordination Sequence:
#
# PCOD9325529 Si02
#       4
#     8   8   8   8
#     4  12  25  44  67  94 128 169 213 260 315 374
#     4  12  25  44  67  96 130 167 211 260 315 374
#     4  12  25  42  65  95 129 166 210 262 317 374
#     4  11  24  43  66  93 127 168 212 259 314 377
#
# _framework density 21.950077
#
# number of rings (size 3 to 8) (size 9 to 14) (size 15 to 20)
#    0.000    0.250    0.000   10.500    0.000    5.000 
#    0.000    0.000    0.000    0.000    0.000    0.000 
#    0.000    0.000    0.000    0.000    0.000    0.000 
#
# Total GULP energy -89718.929384 kJ/mol
# GULP energy per Si atom -5607.433086 kJ/mol
# Density = 2.190012 g / cm^3
# Si number density = 21.950077 Si / 1000 Ang^3
#
#
#
# Elastic Constant Matrix: (Units=GPa)
#
#
# Indices 1 2 3 4 5 6 
#
# 1 93.4995 2.7963 -16.1226 0.0000 0.0000 0.0000
# 2 2.7963 99.1175 -16.4668 0.0000 0.0000 0.0000
# 3 -16.1226 -16.4668 57.9567 0.0000 0.0000 0.0000
# 4 0.0000 0.0000 0.0000 38.4601 0.0000 0.0000
# 5 0.0000 0.0000 0.0000 0.0000 37.5755 0.0000
# 6 0.0000 0.0000 0.0000 0.0000 0.0000 17.3318
#
#
#
# Elastic Compliance Matrix: (Units=1/GPa)
#
#
# Indices 1 2 3 4 5 6 
#
# 1 0.011238 0.000212 0.003187 0.000000 0.000000 0.000000
# 2 0.000212 0.010593 0.003069 0.000000 0.000000 0.000000
# 3 0.003187 0.003069 0.019013 0.000000 0.000000 0.000000
# 4 0.000000 0.000000 0.000000 0.026001 0.000000 0.000000
# 5 0.000000 0.000000 0.000000 0.000000 0.026613 0.000000
# 6 0.000000 0.000000 0.000000 0.000000 0.000000 0.057697
#
#
# Mechanical properties :
#
#
# Convention : Reuss Voigt Hill
#
# Bulk Modulus (GPa) = 18.59449 21.22085 19.90767
# Shear Modulus (GPa) = 32.02127 37.36460 34.69293
#
# Velocity S-wave (km/s) = 3.82360 4.13031 3.97991
# Velocity P-wave (km/s) = 5.28988 5.69515 5.49625
#
# Compressibility (1/GPa) = 0.05377939
#
# Stress axis : x y z
#
# Youngs Moduli (GPa) = 88.98074 94.40318 52.59663
#
# Poissons Ratio (x) = -0.02005 -0.16761
# Poissons Ratio (y) = -0.01890 -0.16141
# Poissons Ratio (z) = -0.28355 -0.28970
#
# Static dielectric constant tensor:
#      x y z
#    x 1.761980 0.000000 0.000000 
#    y 0.000000 1.760010 0.000000 
#    z 0.000000 0.000000 1.736080 
# 
# From -- ./inp_files/7775.got.cif
#   From: 2010.05.17/outbox.cif.g08.bks.cpg/sg21_4_cif.got.tgz:7775.got - 2010.06.03 23:14:55.
