data_PCOD9325756
_publ_section_title
;
Structure prediction by ZEFSAII (Michael W. Deem and Ramdas Pophale) SiO2 
 PCOD9325756
Probable space group: C 2 2 2
;
_chemical_formula_sum "Si O2"
_cell_formula_units_Z 30
_cell_length_a 7.393181
_cell_length_b 30.358702
_cell_length_c 6.947056
_cell_angle_alpha 90.000000
_cell_angle_beta 90.000000
_cell_angle_gamma 90.000000
_cell_volume 1559.248510
_symmetry_space_group_name_H-M "C 2 2 2"
_symmetry_group_IT_number 21
_symmetry_cell_setting 'orthorhombic'
loop_
_space_group_symop_operation_xyz
x,y,z
-x,-y,z
x,-y,-z
-x,y,-z
1/2+x,1/2+y,z
1/2-x,1/2-y,z
1/2+x,1/2-y,-z
1/2-x,1/2+y,-z
loop_
_atom_site_type_symbol
_atom_site_label
_atom_site_fract_x
_atom_site_fract_y
_atom_site_fract_z
Si Si1 0.181836 0.040583 0.625187
Si Si2 0.000000 0.000000 0.000000
Si Si3 0.000000 0.681844 0.000000
Si Si4 0.250000 0.250000 0.220305
Si Si5 0.164292 0.636300 0.359000
Si Si6 0.500000 0.694099 0.500000
O O1 0.298330 0.084418 0.629281
O O2 0.000000 0.050424 0.500000
O O3 0.263220 0.000000 0.500000
O O4 0.122548 0.026920 0.843591
O O5 0.899649 0.651265 0.848639
O O6 0.147657 0.713442 0.903259
O O7 0.400175 0.274523 0.348156
O O8 0.344444 0.663144 0.412317
O O9 0.000000 0.648575 0.500000
#
# Coordination Sequence:
#
# PCOD9325756 Si02
#       6
#     8   2   4   4   8   4
#     4   9  20  40  68  96 134 178 220 277 336 403
#     4   8  18  36  66 100 120 176 224 270 336 388
#     4  12  26  42  69 105 134 174 237 283 336 414
#     4  12  24  46  68 102 134 180 228 284 356 398
#     4  12  25  45  66 103 136 179 229 277 341 406
#     4  12  24  46  73  92 140 182 223 282 346 410
#
# _framework density 19.240037000000001
#
# number of rings (size 3 to 8) (size 9 to 14) (size 15 to 20)
#    0.000    1.333    4.000    3.200    0.000    6.933 
#    0.000    0.000    0.000    0.000    0.000    0.000 
#    0.000    0.000    0.000    0.000    0.000    0.000 
#
# Total GULP energy -83773.201036 kJ/mol
# GULP energy per Si atom -5584.880069 kJ/mol
# Density = 1.919625 g / cm^3
# Si number density = 19.240037 Si / 1000 Ang^3
#
#
#
# Elastic Constant Matrix: (Units=GPa)
#
#
# Indices 1 2 3 4 5 6 
#
# 1 126.0402 64.9649 70.4666 0.0000 0.0000 0.0000
# 2 64.9649 148.6931 74.7702 0.0000 0.0000 0.0000
# 3 70.4666 74.7702 154.5722 0.0000 0.0000 0.0000
# 4 0.0000 0.0000 0.0000 37.4937 0.0000 0.0000
# 5 0.0000 0.0000 0.0000 0.0000 33.6174 0.0000
# 6 0.0000 0.0000 0.0000 0.0000 0.0000 30.5179
#
#
#
# Elastic Compliance Matrix: (Units=1/GPa)
#
#
# Indices 1 2 3 4 5 6 
#
# 1 0.011704 -0.003212 -0.003782 0.000000 0.000000 0.000000
# 2 -0.003212 0.009768 -0.003261 0.000000 0.000000 0.000000
# 3 -0.003782 -0.003261 0.009771 0.000000 0.000000 0.000000
# 4 0.000000 0.000000 0.000000 0.026671 0.000000 0.000000
# 5 0.000000 0.000000 0.000000 0.000000 0.029746 0.000000
# 6 0.000000 0.000000 0.000000 0.000000 0.000000 0.032768
#
#
# Mechanical properties :
#
#
# Convention : Reuss Voigt Hill
#
# Bulk Modulus (GPa) = 93.16393 94.41209 93.78801
# Shear Modulus (GPa) = 34.59834 34.93272 34.76553
#
# Velocity S-wave (km/s) = 4.24517 4.26564 4.25542
# Velocity P-wave (km/s) = 8.51796 8.56960 8.54382
#
# Compressibility (1/GPa) = 0.01073377
#
# Stress axis : x y z
#
# Youngs Moduli (GPa) = 85.44229 102.37246 102.34352
#
# Poissons Ratio (x) = 0.32879 0.38706
# Poissons Ratio (y) = 0.27442 0.33374
# Poissons Ratio (z) = 0.32314 0.33383
#
# Static dielectric constant tensor:
#      x y z
#    x 1.639820 0.000000 0.000000 
#    y 0.000000 1.664590 0.000000 
#    z 0.000000 0.000000 1.667200 
# 
# From -- ./inp_files/1542.got.cif
#   From: 2010.05.17/outbox.cif.g08.bks.cpg/sg21_1_cif.got.tgz:1542.got - 2010.06.03 23:14:55.
