data_PCOD9325247
_publ_section_title
;
Structure prediction by ZEFSAII (Michael W. Deem and Ramdas Pophale) SiO2 
 PCOD9325247
Probable space group: C 2 2 2
;
_chemical_formula_sum "Si O2"
_cell_formula_units_Z 48
_cell_length_a 30.779510
_cell_length_b 8.163455
_cell_length_c 8.648779
_cell_angle_alpha 90.000000
_cell_angle_beta 90.000000
_cell_angle_gamma 90.000000
_cell_volume 2173.154005
_symmetry_space_group_name_H-M "C 2 2 2"
_symmetry_group_IT_number 21
_symmetry_cell_setting 'orthorhombic'
loop_
_space_group_symop_operation_xyz
x,y,z
-x,-y,z
x,-y,-z
-x,y,-z
1/2+x,1/2+y,z
1/2-x,1/2-y,z
1/2+x,1/2-y,-z
1/2-x,1/2+y,-z
loop_
_atom_site_type_symbol
_atom_site_label
_atom_site_fract_x
_atom_site_fract_y
_atom_site_fract_z
Si Si1 0.746173 0.448508 0.822130
Si Si2 0.333113 0.607753 0.631388
Si Si3 0.084204 0.703631 0.678812
Si Si4 0.591768 0.171442 0.310772
Si Si5 0.815876 0.356567 0.385819
Si Si6 0.503513 0.192938 0.183016
O O1 0.750000 0.250000 0.814186
O O2 0.699154 0.480387 0.747297
O O3 0.780214 0.556346 0.720993
O O4 0.749518 0.500000 0.000000
O O5 0.356112 0.500000 0.500000
O O6 0.371350 0.702487 0.716947
O O7 0.303707 0.722305 0.516024
O O8 0.082228 0.690831 0.493097
O O9 0.089445 0.518722 0.739621
O O10 0.039018 0.773944 0.741859
O O11 0.642669 0.211103 0.291313
O O12 0.551149 0.256681 0.228963
O O13 0.833507 0.500000 0.500000
O O14 0.500000 0.000000 0.234423
O O15 0.500000 0.197583 0.000000
#
# Coordination Sequence:
#
# PCOD9325247 Si02
#       6
#     8   8   8   8   8   8
#     4  12  27  44  64  98 140 177 218 282 349 409
#     4  11  24  41  69  93 126 176 231 280 330 393
#     4   9  16  33  55  84 117 150 206 265 316 373
#     4   9  15  31  56  85 115 153 203 266 320 372
#     4  11  20  43  67  92 122 171 228 276 323 388
#     4   9  17  28  49  87 126 160 196 254 331 401
#
# _framework density 22.087713999999998
#
# number of rings (size 3 to 8) (size 9 to 14) (size 15 to 20)
#    0.000    1.833    5.000    1.000    2.333    2.000 
#    9.000    0.000    0.000    8.000    0.000    4.667 
#    0.000    0.000    0.000    0.000    0.000    0.000 
#
# Total GULP energy -133749.386795 kJ/mol
# GULP energy per Si atom -5572.891116 kJ/mol
# Density = 2.203744 g / cm^3
# Si number density = 22.087714 Si / 1000 Ang^3
#
#
#
# Elastic Constant Matrix: (Units=GPa)
#
#
# Indices 1 2 3 4 5 6 
#
# 1 209.2696 27.5836 69.4079 0.0000 0.0000 0.0000
# 2 27.5836 35.8386 15.2220 0.0000 0.0000 0.0000
# 3 69.4079 15.2220 62.6592 0.0000 0.0000 0.0000
# 4 0.0000 0.0000 0.0000 21.1782 0.0000 0.0000
# 5 0.0000 0.0000 0.0000 0.0000 2.6295 0.0000
# 6 0.0000 0.0000 0.0000 0.0000 0.0000 10.0174
#
#
#
# Elastic Compliance Matrix: (Units=1/GPa)
#
#
# Indices 1 2 3 4 5 6 
#
# 1 0.007763 -0.002590 -0.007970 0.000000 0.000000 0.000000
# 2 -0.002590 0.031977 -0.004900 0.000000 0.000000 0.000000
# 3 -0.007970 -0.004900 0.025979 0.000000 0.000000 0.000000
# 4 0.000000 0.000000 0.000000 0.047218 0.000000 0.000000
# 5 0.000000 0.000000 0.000000 0.000000 0.380295 0.000000
# 6 0.000000 0.000000 0.000000 0.000000 0.000000 0.099827
#
#
# Mechanical properties :
#
#
# Convention : Reuss Voigt Hill
#
# Bulk Modulus (GPa) = 28.73605 59.13272 43.93439
# Shear Modulus (GPa) = 7.86685 19.80194 13.83439
#
# Velocity S-wave (km/s) = 1.88928 2.99743 2.50539
# Velocity P-wave (km/s) = 4.21869 6.22972 5.32009
#
# Compressibility (1/GPa) = 0.03479950
#
# Stress axis : x y z
#
# Youngs Moduli (GPa) = 128.80914 31.27225 38.49336
#
# Poissons Ratio (x) = 0.08099 0.30681
# Poissons Ratio (y) = 0.33360 0.18860
# Poissons Ratio (z) = 1.02666 0.15322
#
# Static dielectric constant tensor:
#      x y z
#    x 1.861080 0.000000 0.000000 
#    y 0.000000 1.970590 0.000000 
#    z 0.000000 0.000000 1.750650 
# 
# From -- ./inp_files/19651.got.cif
#   From: 2010.05.17/outbox.cif.g08.bks.cpg/sg21_10_cif.got.tgz:19651.got - 2010.06.03 23:14:55.
