data_PCOD9325390
_publ_section_title
;
Structure prediction by ZEFSAII (Michael W. Deem and Ramdas Pophale) SiO2 
 PCOD9325390
Probable space group: C 2 2 2
;
_chemical_formula_sum "Si O2"
_cell_formula_units_Z 32
_cell_length_a 12.997212
_cell_length_b 9.554746
_cell_length_c 10.755038
_cell_angle_alpha 90.000000
_cell_angle_beta 90.000000
_cell_angle_gamma 90.000000
_cell_volume 1335.615033
_symmetry_space_group_name_H-M "C 2 2 2"
_symmetry_group_IT_number 21
_symmetry_cell_setting 'orthorhombic'
loop_
_space_group_symop_operation_xyz
x,y,z
-x,-y,z
x,-y,-z
-x,y,-z
1/2+x,1/2+y,z
1/2-x,1/2-y,z
1/2+x,1/2-y,-z
1/2-x,1/2+y,-z
loop_
_atom_site_type_symbol
_atom_site_label
_atom_site_fract_x
_atom_site_fract_y
_atom_site_fract_z
Si Si1 0.865692 0.286569 0.942321
Si Si2 0.872228 0.572338 0.799190
Si Si3 0.170773 0.988562 0.644776
Si Si4 0.991151 0.801413 0.265716
O O1 0.750000 0.250000 0.904746
O O2 0.895531 0.432691 0.877174
O O3 0.946437 0.183576 0.875921
O O4 0.860496 0.312905 0.089437
O O5 0.770356 0.531382 0.723874
O O6 0.957086 0.649525 0.715097
O O7 0.080951 0.094102 0.691528
O O8 0.193652 0.000000 0.500000
O O9 0.114092 0.838128 0.661735
#
# Coordination Sequence:
#
# PCOD9325390 Si02
#       4
#     8   8   8   8
#     4  11  22  43  71 108 153 182 244 318 385 457
#     4  11  24  44  72 109 144 195 246 309 385 450
#     4  11  25  49  70 106 152 201 255 306 370 467
#     4  11  22  43  71 106 142 194 247 308 377 438
#
# _framework density 23.959
#
# number of rings (size 3 to 8) (size 9 to 14) (size 15 to 20)
#    0.000    1.000    2.500    5.250    0.000    2.000 
#   13.500    2.500    0.000    0.000    0.000    0.000 
#    0.000    0.000    0.000    0.000    0.000    0.000 
#
# Total GULP energy -89200.797398 kJ/mol
# GULP energy per Si atom -5575.049837 kJ/mol
# Density = 2.390447 g / cm^3
# Si number density = 23.959000 Si / 1000 Ang^3
#
#
#
# Elastic Constant Matrix: (Units=GPa)
#
#
# Indices 1 2 3 4 5 6 
#
# 1 159.4112 32.1442 55.8151 0.0000 0.0000 0.0000
# 2 32.1442 65.2660 15.4906 0.0000 0.0000 0.0000
# 3 55.8151 15.4906 140.3892 0.0000 0.0000 0.0000
# 4 0.0000 0.0000 0.0000 -2.9234 0.0000 0.0000
# 5 0.0000 0.0000 0.0000 0.0000 15.6205 0.0000
# 6 0.0000 0.0000 0.0000 0.0000 0.0000 46.3056
#
#
#
# Elastic Compliance Matrix: (Units=1/GPa)
#
#
# Indices 1 2 3 4 5 6 
#
# 1 0.007899 -0.003230 -0.002784 0.000000 0.000000 0.000000
# 2 -0.003230 0.017054 -0.000598 0.000000 0.000000 0.000000
# 3 -0.002784 -0.000598 0.008296 0.000000 0.000000 0.000000
# 4 0.000000 0.000000 0.000000 -0.342069 0.000000 0.000000
# 5 0.000000 0.000000 0.000000 0.000000 0.064019 0.000000
# 6 0.000000 0.000000 0.000000 0.000000 0.000000 0.021596
#
#
# Mechanical properties :
#
#
# Convention : Reuss Voigt Hill
#
# Bulk Modulus (GPa) = 49.93403 63.55178 56.74291
# Shear Modulus (GPa) = -24.59338 29.24164 2.32413
#
# Velocity S-wave (km/s) = -3.20734 3.49734 0.98598
# Velocity P-wave (km/s) = 2.67780 6.54914 5.00309
#
# Compressibility (1/GPa) = 0.02002642
#
# Stress axis : x y z
#
# Youngs Moduli (GPa) = 126.59624 58.63585 120.54132
#
# Poissons Ratio (x) = 0.18937 0.33560
# Poissons Ratio (y) = 0.40886 0.07206
# Poissons Ratio (z) = 0.35246 0.03505
#
# Static dielectric constant tensor:
#      x y z
#    x 1.952770 0.000000 0.000000 
#    y 0.000000 2.094950 0.000000 
#    z 0.000000 0.000000 1.957360 
# 
# From -- ./inp_files/14119.got.cif
#   From: 2010.05.17/outbox.cif.g08.bks.cpg/sg21_8_cif.got.tgz:14119.got - 2010.06.03 23:14:55.
