data_PCOD9325180
_publ_section_title
;
Structure prediction by ZEFSAII (Michael W. Deem and Ramdas Pophale) SiO2 
 PCOD9325180
Probable space group: C 2 2 2
;
_chemical_formula_sum "Si O2"
_cell_formula_units_Z 40
_cell_length_a 27.065058
_cell_length_b 7.786833
_cell_length_c 8.232203
_cell_angle_alpha 90.000000
_cell_angle_beta 90.000000
_cell_angle_gamma 90.000000
_cell_volume 1734.945729
_symmetry_space_group_name_H-M "C 2 2 2"
_symmetry_group_IT_number 21
_symmetry_cell_setting 'orthorhombic'
loop_
_space_group_symop_operation_xyz
x,y,z
-x,-y,z
x,-y,-z
-x,y,-z
1/2+x,1/2+y,z
1/2-x,1/2-y,z
1/2+x,1/2-y,-z
1/2-x,1/2+y,-z
loop_
_atom_site_type_symbol
_atom_site_label
_atom_site_fract_x
_atom_site_fract_y
_atom_site_fract_z
Si Si1 0.178293 0.500000 0.000000
Si Si2 0.250000 0.750000 0.202943
Si Si3 0.889565 0.000000 0.000000
Si Si4 0.500000 0.000000 0.000000
Si Si5 0.912914 0.683617 0.161332
Si Si6 0.155734 0.892263 0.336798
Si Si7 0.000000 0.000000 0.500000
Si Si8 0.571738 0.798329 0.527750
O O1 0.214043 0.367673 0.907074
O O2 0.139975 0.599599 0.881306
O O3 0.213004 0.853512 0.316710
O O4 0.858619 0.023046 0.164537
O O5 0.920943 0.832357 0.029620
O O6 0.459514 0.934116 0.870146
O O7 0.915763 0.752608 0.342631
O O8 0.120520 0.725158 0.362492
O O9 0.147899 0.000000 0.500000
O O10 0.034860 0.855394 0.411970
O O11 0.557780 0.000000 0.500000
#
# Coordination Sequence:
#
# PCOD9325180 Si02
#       8
#     4   4   4   2   8   8   2   8
#     4  11  25  45  74 115 151 205 260 316 400 458
#     4  12  26  44  78 112 154 204 258 320 388 474
#     4  12  23  49  81 101 161 205 250 328 384 456
#     4  10  28  42  68 120 148 196 266 294 388 462
#     4  11  25  48  76 108 159 204 252 329 382 469
#     4  12  26  51  73 116 156 207 262 321 390 460
#     4  12  26  48  72 116 160 216 256 316 412 454
#     4  12  27  47  79 113 161 209 265 328 385 472
#
# _framework density 23.055478000000001
#
# number of rings (size 3 to 8) (size 9 to 14) (size 15 to 20)
#    0.000    0.400    5.000    2.100    5.600    4.400 
#    0.000    0.000    0.000    0.000    0.000    0.000 
#    0.000    0.000    0.000    0.000    0.000    0.000 
#
# Total GULP energy -111525.938943 kJ/mol
# GULP energy per Si atom -5576.296947 kJ/mol
# Density = 2.300300 g / cm^3
# Si number density = 23.055478 Si / 1000 Ang^3
#
#
#
# Elastic Constant Matrix: (Units=GPa)
#
#
# Indices 1 2 3 4 5 6 
#
# 1 139.4408 34.6077 27.5245 0.0000 0.0000 0.0000
# 2 34.6077 103.1493 20.5870 0.0000 0.0000 0.0000
# 3 27.5245 20.5870 129.6333 0.0000 0.0000 0.0000
# 4 0.0000 0.0000 0.0000 133.7828 0.0000 0.0000
# 5 0.0000 0.0000 0.0000 0.0000 1.2830 0.0000
# 6 0.0000 0.0000 0.0000 0.0000 0.0000 -31.9659
#
#
#
# Elastic Compliance Matrix: (Units=1/GPa)
#
#
# Indices 1 2 3 4 5 6 
#
# 1 0.008036 -0.002433 -0.001320 0.000000 0.000000 0.000000
# 2 -0.002433 0.010748 -0.001190 0.000000 0.000000 0.000000
# 3 -0.001320 -0.001190 0.008183 0.000000 0.000000 0.000000
# 4 0.000000 0.000000 0.000000 0.007475 0.000000 0.000000
# 5 0.000000 0.000000 0.000000 0.000000 0.779425 0.000000
# 6 0.000000 0.000000 0.000000 0.000000 0.000000 -0.031283
#
#
# Mechanical properties :
#
#
# Convention : Reuss Voigt Hill
#
# Bulk Modulus (GPa) = 58.54233 59.74020 59.14127
# Shear Modulus (GPa) = 6.26438 39.92026 23.09232
#
# Velocity S-wave (km/s) = 1.65015 4.16563 3.16824
# Velocity P-wave (km/s) = 5.39238 7.00745 6.25228
#
# Compressibility (1/GPa) = 0.01708166
#
# Stress axis : x y z
#
# Youngs Moduli (GPa) = 124.44319 93.03650 122.19916
#
# Poissons Ratio (x) = 0.22633 0.16129
# Poissons Ratio (y) = 0.30273 0.14547
# Poissons Ratio (z) = 0.16425 0.11075
#
# Static dielectric constant tensor:
#      x y z
#    x 1.748560 0.000000 0.000000 
#    y 0.000000 2.023440 0.000000 
#    z 0.000000 0.000000 1.961910 
# 
# From -- ./inp_files/18326.got.cif
#   From: 2010.05.17/outbox.cif.g08.bks.cpg/sg21_10_cif.got.tgz:18326.got - 2010.06.03 23:14:55.
