data_PCOD9325769
_publ_section_title
;
Structure prediction by ZEFSAII (Michael W. Deem and Ramdas Pophale) SiO2 
 PCOD9325769
Probable space group: C 2 2 2
;
_chemical_formula_sum "Si O2"
_cell_formula_units_Z 34
_cell_length_a 4.706409
_cell_length_b 16.334178
_cell_length_c 17.775906
_cell_angle_alpha 90.000000
_cell_angle_beta 90.000000
_cell_angle_gamma 90.000000
_cell_volume 1366.528504
_symmetry_space_group_name_H-M "C 2 2 2"
_symmetry_group_IT_number 21
_symmetry_cell_setting 'orthorhombic'
loop_
_space_group_symop_operation_xyz
x,y,z
-x,-y,z
x,-y,-z
-x,y,-z
1/2+x,1/2+y,z
1/2-x,1/2-y,z
1/2+x,1/2-y,-z
1/2-x,1/2+y,-z
loop_
_atom_site_type_symbol
_atom_site_label
_atom_site_fract_x
_atom_site_fract_y
_atom_site_fract_z
Si Si1 0.902648 0.587213 0.623244
Si Si2 0.500000 0.500000 0.500000
Si Si3 0.500000 0.308115 0.000000
Si Si4 0.522196 0.405201 0.146270
Si Si5 0.942830 0.666083 0.229937
Si Si6 0.000000 0.307083 0.500000
O O1 0.679477 0.555782 0.559477
O O2 0.000000 0.500000 0.655354
O O3 0.885996 0.649146 0.693077
O O4 0.110881 0.638025 0.568607
O O5 0.250000 0.250000 0.974674
O O6 0.592492 0.359488 0.927667
O O7 0.500000 0.500000 0.126701
O O8 0.311482 0.397449 0.217087
O O9 0.818223 0.360284 0.168530
O O10 0.750000 0.750000 0.225139
O O11 0.750000 0.250000 0.470294
#
# Coordination Sequence:
#
# PCOD9325769 Si02
#       6
#     8   2   4   8   8   4
#     4  12  26  47  72 105 141 201 254 327 401 485
#     4  12  24  48  80 104 148 196 274 330 402 494
#     4  12  25  46  79 112 162 212 256 324 395 468
#     4  12  26  49  76 117 154 212 267 327 390 485
#     4  12  28  48  76 112 159 203 265 334 412 481
#     4  12  26  44  67  99 138 182 242 308 386 466
#
# _framework density 24.880565000000001
#
# number of rings (size 3 to 8) (size 9 to 14) (size 15 to 20)
#    0.000    0.000    2.353    8.118    4.941    1.882 
#    0.000    3.529    0.000    0.000    0.000    0.000 
#    0.000    0.000    0.000    0.000    0.000    0.000 
#
# Total GULP energy -94691.358279 kJ/mol
# GULP energy per Si atom -5570.079899 kJ/mol
# Density = 2.482394 g / cm^3
# Si number density = 24.880565 Si / 1000 Ang^3
#
#
#
# Elastic Constant Matrix: (Units=GPa)
#
#
# Indices 1 2 3 4 5 6 
#
# 1 111.3767 30.2658 34.0239 0.0000 0.0000 0.0000
# 2 30.2658 141.3488 55.9454 0.0000 0.0000 0.0000
# 3 34.0239 55.9454 118.7797 0.0000 0.0000 0.0000
# 4 0.0000 0.0000 0.0000 31.7361 0.0000 0.0000
# 5 0.0000 0.0000 0.0000 0.0000 23.4600 0.0000
# 6 0.0000 0.0000 0.0000 0.0000 0.0000 14.7126
#
#
#
# Elastic Compliance Matrix: (Units=1/GPa)
#
#
# Indices 1 2 3 4 5 6 
#
# 1 0.010013 -0.001240 -0.002284 0.000000 0.000000 0.000000
# 2 -0.001240 0.008849 -0.003813 0.000000 0.000000 0.000000
# 3 -0.002284 -0.003813 0.010869 0.000000 0.000000 0.000000
# 4 0.000000 0.000000 0.000000 0.031510 0.000000 0.000000
# 5 0.000000 0.000000 0.000000 0.000000 0.042626 0.000000
# 6 0.000000 0.000000 0.000000 0.000000 0.000000 0.067969
#
#
# Mechanical properties :
#
#
# Convention : Reuss Voigt Hill
#
# Bulk Modulus (GPa) = 66.41160 67.99725 67.20443
# Shear Modulus (GPa) = 26.10564 30.73308 28.41936
#
# Velocity S-wave (km/s) = 3.24271 3.51839 3.38336
# Velocity P-wave (km/s) = 6.38516 6.62527 6.50632
#
# Compressibility (1/GPa) = 0.01505761
#
# Stress axis : x y z
#
# Youngs Moduli (GPa) = 99.86726 113.00313 92.00377
#
# Poissons Ratio (x) = 0.14012 0.21016
# Poissons Ratio (y) = 0.12383 0.35080
# Poissons Ratio (z) = 0.22812 0.43086
#
# Static dielectric constant tensor:
#      x y z
#    x 2.038470 0.000000 0.000000 
#    y 0.000000 2.096390 0.000000 
#    z 0.000000 0.000000 1.897310 
# 
# From -- ./inp_files/34533.got.cif
#   From: 2010.05.17/outbox.cif.g08.bks.cpg/sg21_18_cif.got.tgz:34533.got - 2010.06.03 23:14:55.
