data_PCOD9325740
_publ_section_title
;
Structure prediction by ZEFSAII (Michael W. Deem and Ramdas Pophale) SiO2 
 PCOD9325740
Probable space group: C 2 2 2
;
_chemical_formula_sum "Si O2"
_cell_formula_units_Z 30
_cell_length_a 6.193432
_cell_length_b 7.543570
_cell_length_c 27.869877
_cell_angle_alpha 90.000000
_cell_angle_beta 90.000000
_cell_angle_gamma 90.000000
_cell_volume 1302.097036
_symmetry_space_group_name_H-M "C 2 2 2"
_symmetry_group_IT_number 21
_symmetry_cell_setting 'orthorhombic'
loop_
_space_group_symop_operation_xyz
x,y,z
-x,-y,z
x,-y,-z
-x,y,-z
1/2+x,1/2+y,z
1/2-x,1/2-y,z
1/2+x,1/2-y,-z
1/2-x,1/2+y,-z
loop_
_atom_site_type_symbol
_atom_site_label
_atom_site_fract_x
_atom_site_fract_y
_atom_site_fract_z
Si Si1 0.750000 0.250000 0.477340
Si Si2 0.750000 0.250000 0.927880
Si Si3 0.000000 0.000000 0.585021
Si Si4 0.250000 0.250000 0.787948
Si Si5 0.500000 0.500000 0.142658
Si Si6 0.500000 0.000000 0.719257
Si Si7 0.250000 0.250000 0.348641
Si Si8 0.500000 0.000000 0.000000
O O1 0.500000 0.231042 0.500000
O O2 0.799584 0.071766 0.446418
O O3 0.589395 0.350071 0.892426
O O4 0.859435 0.385664 0.963882
O O5 0.068427 0.833262 0.617359
O O6 0.331005 0.406675 0.822268
O O7 0.422859 0.159973 0.753094
O O8 0.676226 0.087469 0.684727
#
# Coordination Sequence:
#
# PCOD9325740 Si02
#       8
#     4   4   4   4   4   4   4   2
#     4  12  29  51  78 112 151 197 248 306 369 439
#     4  12  24  42  64  92 127 167 216 270 330 398
#     4  12  27  47  74 106 145 189 240 296 359 427
#     4  12  24  42  66  96 131 173 220 274 338 406
#     4  12  24  42  64  94 129 169 216 272 334 400
#     4  12  24  43  68  98 135 177 226 280 341 412
#     4  12  25  45  70 102 139 183 232 288 349 417
#     4  12  24  42  64  92 124 168 216 268 330 396
#
# _framework density 23.039759
#
# number of rings (size 3 to 8) (size 9 to 14) (size 15 to 20)
#    0.000    0.000    0.000   10.800    0.000    6.400 
#    0.000    0.000    0.000    0.000    0.000    0.000 
#    0.000    0.000    0.000    0.000    0.000    0.000 
#
# Total GULP energy -83870.947144 kJ/mol
# GULP energy per Si atom -5591.396476 kJ/mol
# Density = 2.298732 g / cm^3
# Si number density = 23.039759 Si / 1000 Ang^3
#
#
#
# Elastic Constant Matrix: (Units=GPa)
#
#
# Indices 1 2 3 4 5 6 
#
# 1 87.0815 17.5417 54.6962 0.0000 0.0000 0.0000
# 2 17.5417 61.4183 24.3396 0.0000 0.0000 0.0000
# 3 54.6962 24.3396 127.8583 0.0000 0.0000 0.0000
# 4 0.0000 0.0000 0.0000 -135.7075 0.0000 0.0000
# 5 0.0000 0.0000 0.0000 0.0000 43.5435 0.0000
# 6 0.0000 0.0000 0.0000 0.0000 0.0000 63.1907
#
#
#
# Elastic Compliance Matrix: (Units=1/GPa)
#
#
# Indices 1 2 3 4 5 6 
#
# 1 0.015927 -0.002000 -0.006433 0.000000 0.000000 0.000000
# 2 -0.002000 0.017861 -0.002545 0.000000 0.000000 0.000000
# 3 -0.006433 -0.002545 0.011057 0.000000 0.000000 0.000000
# 4 0.000000 0.000000 0.000000 -0.007369 0.000000 0.000000
# 5 0.000000 0.000000 0.000000 0.000000 0.022966 0.000000
# 6 0.000000 0.000000 0.000000 0.000000 0.000000 0.015825
#
#
# Mechanical properties :
#
#
# Convention : Reuss Voigt Hill
#
# Bulk Modulus (GPa) = 43.68436 52.16814 47.92625
# Shear Modulus (GPa) = 47.23596 6.19070 26.71333
#
# Velocity S-wave (km/s) = 4.53282 1.64097 3.40876
# Velocity P-wave (km/s) = 6.81152 5.12662 6.02823
#
# Compressibility (1/GPa) = 0.02289149
#
# Stress axis : x y z
#
# Youngs Moduli (GPa) = 62.78800 55.98673 90.43756
#
# Poissons Ratio (x) = 0.11195 0.58174
# Poissons Ratio (y) = 0.12555 0.23014
# Poissons Ratio (z) = 0.40389 0.14247
#
# Static dielectric constant tensor:
#      x y z
#    x 1.875030 0.000000 0.000000 
#    y 0.000000 1.825910 0.000000 
#    z 0.000000 0.000000 2.171130 
# 
# From -- ./inp_files/39439.got.cif
#   From: 2010.05.17/outbox.cif.g08.bks.cpg/sg21_20_cif.got.tgz:39439.got - 2010.06.03 23:14:55.
