data_PCOD9325194
_publ_section_title
;
Structure prediction by ZEFSAII (Michael W. Deem and Ramdas Pophale) SiO2 
 PCOD9325194
Probable space group: C 2 2 2
;
_chemical_formula_sum "Si O2"
_cell_formula_units_Z 58
_cell_length_a 27.521611
_cell_length_b 11.899497
_cell_length_c 7.145750
_cell_angle_alpha 90.000000
_cell_angle_beta 90.000000
_cell_angle_gamma 90.000000
_cell_volume 2340.185445
_symmetry_space_group_name_H-M "C 2 2 2"
_symmetry_group_IT_number 21
_symmetry_cell_setting 'orthorhombic'
loop_
_space_group_symop_operation_xyz
x,y,z
-x,-y,z
x,-y,-z
-x,y,-z
1/2+x,1/2+y,z
1/2-x,1/2-y,z
1/2+x,1/2-y,-z
1/2-x,1/2+y,-z
loop_
_atom_site_type_symbol
_atom_site_label
_atom_site_fract_x
_atom_site_fract_y
_atom_site_fract_z
Si Si1 0.351683 0.861251 0.638103
Si Si2 0.052833 0.688599 0.761152
Si Si3 0.177947 0.410922 0.775134
Si Si4 0.883560 0.793316 0.909325
Si Si5 0.517751 0.379246 0.217440
Si Si6 0.791642 0.161292 0.647310
Si Si7 0.787221 0.911647 0.786202
Si Si8 0.000000 0.500000 0.000000
O O1 0.409313 0.859984 0.610716
O O2 0.322423 0.887290 0.448936
O O3 0.338069 0.735332 0.691765
O O4 0.336194 0.957522 0.785223
O O5 0.010962 0.773284 0.698956
O O6 0.031098 0.583173 0.871248
O O7 0.084933 0.760807 0.909274
O O8 0.136740 0.327527 0.844861
O O9 0.231995 0.384341 0.849814
O O10 0.924365 0.855920 0.781260
O O11 0.833965 0.866982 0.898570
O O12 0.500000 0.500000 0.291564
O O13 0.500000 0.380283 0.000000
O O14 0.750000 0.250000 0.694357
O O15 0.791912 0.135986 0.425477
O O16 0.787706 0.045509 0.756236
#
# Coordination Sequence:
#
# PCOD9325194 Si02
#       8
#     8   8   8   8   8   8   8   2
#     4  11  22  37  64  94 124 167 214 264 319 384
#     4  11  24  41  69  90 128 164 218 269 330 399
#     4  11  21  39  65  92 129 168 214 261 317 392
#     4  11  21  40  66  93 120 172 210 266 324 392
#     4   9  20  41  63  86 117 161 211 258 315 379
#     4  11  18  37  58  91 125 170 213 253 314 381
#     4  11  21  35  68  90 127 174 217 259 313 399
#     4  12  20  48  66  94 120 176 212 264 348 392
#
# _framework density 24.784361000000001
#
# number of rings (size 3 to 8) (size 9 to 14) (size 15 to 20)
#    0.000    1.241    6.207    2.069    1.931    0.000 
#    0.000    2.069    3.034    0.828    0.000    0.000 
#    0.000    0.000    0.000    0.000    0.000    0.000 
#
# Total GULP energy -162124.175455 kJ/mol
# GULP energy per Si atom -5590.488809 kJ/mol
# Density = 2.472795 g / cm^3
# Si number density = 24.784361 Si / 1000 Ang^3
#
#
#
# Elastic Constant Matrix: (Units=GPa)
#
#
# Indices 1 2 3 4 5 6 
#
# 1 176.6928 65.5306 34.5107 0.0000 0.0000 0.0000
# 2 65.5306 168.1966 25.9967 0.0000 0.0000 0.0000
# 3 34.5107 25.9967 61.7500 0.0000 0.0000 0.0000
# 4 0.0000 0.0000 0.0000 -42.4509 0.0000 0.0000
# 5 0.0000 0.0000 0.0000 0.0000 8.3193 0.0000
# 6 0.0000 0.0000 0.0000 0.0000 0.0000 20.1755
#
#
#
# Elastic Compliance Matrix: (Units=1/GPa)
#
#
# Indices 1 2 3 4 5 6 
#
# 1 0.007099 -0.002302 -0.002998 0.000000 0.000000 0.000000
# 2 -0.002302 0.007106 -0.001705 0.000000 0.000000 0.000000
# 3 -0.002998 -0.001705 0.018588 0.000000 0.000000 0.000000
# 4 0.000000 0.000000 0.000000 -0.023557 0.000000 0.000000
# 5 0.000000 0.000000 0.000000 0.000000 0.120203 0.000000
# 6 0.000000 0.000000 0.000000 0.000000 0.000000 0.049565
#
#
# Mechanical properties :
#
#
# Convention : Reuss Voigt Hill
#
# Bulk Modulus (GPa) = 53.24303 73.19061 63.21682
# Shear Modulus (GPa) = 25.09092 15.91553 20.50323
#
# Velocity S-wave (km/s) = 3.18523 2.53684 2.87934
# Velocity P-wave (km/s) = 5.92087 6.17866 6.05114
#
# Compressibility (1/GPa) = 0.01878180
#
# Stress axis : x y z
#
# Youngs Moduli (GPa) = 140.86412 140.72679 53.79913
#
# Poissons Ratio (x) = 0.32401 0.16130
# Poissons Ratio (y) = 0.32433 0.09172
# Poissons Ratio (z) = 0.42233 0.23992
#
# Static dielectric constant tensor:
#      x y z
#    x 2.004300 0.000000 0.000000 
#    y 0.000000 2.019950 0.000000 
#    z 0.000000 0.000000 2.056690 
# 
# From -- ./inp_files/19165.got.cif
#   From: 2010.05.17/outbox.cif.g08.bks.cpg/sg21_10_cif.got.tgz:19165.got - 2010.06.03 23:14:55.
