data_PCOD9325613
_publ_section_title
;
Structure prediction by ZEFSAII (Michael W. Deem and Ramdas Pophale) SiO2 
 PCOD9325613
Probable space group: C 2 2 2
;
_chemical_formula_sum "Si O2"
_cell_formula_units_Z 56
_cell_length_a 10.900811
_cell_length_b 13.893327
_cell_length_c 16.217592
_cell_angle_alpha 90.000000
_cell_angle_beta 90.000000
_cell_angle_gamma 90.000000
_cell_volume 2456.130498
_symmetry_space_group_name_H-M "C 2 2 2"
_symmetry_group_IT_number 21
_symmetry_cell_setting 'orthorhombic'
loop_
_space_group_symop_operation_xyz
x,y,z
-x,-y,z
x,-y,-z
-x,y,-z
1/2+x,1/2+y,z
1/2-x,1/2-y,z
1/2+x,1/2-y,-z
1/2-x,1/2+y,-z
loop_
_atom_site_type_symbol
_atom_site_label
_atom_site_fract_x
_atom_site_fract_y
_atom_site_fract_z
Si Si1 0.864537 0.977586 0.097047
Si Si2 0.917607 0.220763 0.619462
Si Si3 0.881742 0.764357 0.058764
Si Si4 0.698809 0.887691 0.474017
Si Si5 0.938556 0.656674 0.223183
Si Si6 0.310607 0.660773 0.356721
Si Si7 0.808560 0.457886 0.230406
O O1 0.856349 0.863688 0.106033
O O2 0.760708 0.036107 0.143702
O O3 0.000000 0.000000 0.128920
O O4 0.859525 0.000000 0.000000
O O5 0.816953 0.146089 0.582529
O O6 0.904694 0.322345 0.569641
O O7 0.908234 0.256194 0.714516
O O8 0.051642 0.175414 0.614325
O O9 0.750000 0.750000 0.014234
O O10 0.912510 0.686633 0.129025
O O11 0.000000 0.774037 0.000000
O O12 0.725550 0.847047 0.563992
O O13 0.679598 0.000000 0.500000
O O14 0.858476 0.564323 0.247618
O O15 0.077251 0.615666 0.230531
O O16 0.250000 0.750000 0.308269
O O17 0.289884 0.570078 0.299099
#
# Coordination Sequence:
#
# PCOD9325613 Si02
#       7
#     8   8   8   8   8   8   8
#     4  11  25  47  71 108 154 196 251 316 394 473
#     4  11  25  46  75 107 153 193 262 319 391 465
#     4  12  27  48  76 111 155 202 259 320 403 474
#     4  11  26  47  76 106 148 200 257 320 399 458
#     4  11  26  46  75 107 147 204 255 325 381 473
#     4  12  24  45  70 108 146 197 246 318 379 468
#     4  11  26  47  72 109 151 196 262 313 394 460
#
# _framework density 22.800093
#
# number of rings (size 3 to 8) (size 9 to 14) (size 15 to 20)
#    0.000    0.714    5.714    1.286    6.000    2.286 
#    0.000    2.143    0.000    0.000    0.000    0.000 
#    0.000    0.000    0.000    0.000    0.000    0.000 
#
# Total GULP energy -156350.347720 kJ/mol
# GULP energy per Si atom -5583.940990 kJ/mol
# Density = 2.274820 g / cm^3
# Si number density = 22.800093 Si / 1000 Ang^3
#
#
#
# Elastic Constant Matrix: (Units=GPa)
#
#
# Indices 1 2 3 4 5 6 
#
# 1 139.9765 38.9592 44.4145 0.0000 0.0000 0.0000
# 2 38.9592 98.1413 25.8311 0.0000 0.0000 0.0000
# 3 44.4145 25.8311 95.4914 0.0000 0.0000 0.0000
# 4 0.0000 0.0000 0.0000 59.3746 0.0000 0.0000
# 5 0.0000 0.0000 0.0000 0.0000 30.5383 0.0000
# 6 0.0000 0.0000 0.0000 0.0000 0.0000 20.2268
#
#
#
# Elastic Compliance Matrix: (Units=1/GPa)
#
#
# Indices 1 2 3 4 5 6 
#
# 1 0.008980 -0.002655 -0.003459 0.000000 0.000000 0.000000
# 2 -0.002655 0.011755 -0.001945 0.000000 0.000000 0.000000
# 3 -0.003459 -0.001945 0.012607 0.000000 0.000000 0.000000
# 4 0.000000 0.000000 0.000000 0.016842 0.000000 0.000000
# 5 0.000000 0.000000 0.000000 0.000000 0.032746 0.000000
# 6 0.000000 0.000000 0.000000 0.000000 0.000000 0.049439
#
#
# Mechanical properties :
#
#
# Convention : Reuss Voigt Hill
#
# Bulk Modulus (GPa) = 58.05358 61.33544 59.69451
# Shear Modulus (GPa) = 32.41933 36.98823 34.70378
#
# Velocity S-wave (km/s) = 3.77489 4.03213 3.90563
# Velocity P-wave (km/s) = 6.67211 6.97404 6.82474
#
# Compressibility (1/GPa) = 0.01722547
#
# Stress axis : x y z
#
# Youngs Moduli (GPa) = 111.35389 85.06912 79.32044
#
# Poissons Ratio (x) = 0.22582 0.27436
# Poissons Ratio (y) = 0.29560 0.15429
# Poissons Ratio (z) = 0.38515 0.16547
#
# Static dielectric constant tensor:
#      x y z
#    x 1.843290 0.000000 0.000000 
#    y 0.000000 2.019400 0.000000 
#    z 0.000000 0.000000 1.863230 
# 
# From -- ./inp_files/31570.got.cif
#   From: 2010.05.17/outbox.cif.g08.bks.cpg/sg21_16_cif.got.tgz:31570.got - 2010.06.03 23:14:55.
