data_PCOD9325227
_publ_section_title
;
Structure prediction by ZEFSAII (Michael W. Deem and Ramdas Pophale) SiO2 
 PCOD9325227
Probable space group: C 2 2 2
;
_chemical_formula_sum "Si O2"
_cell_formula_units_Z 30
_cell_length_a 4.977760
_cell_length_b 17.421724
_cell_length_c 16.153413
_cell_angle_alpha 90.000000
_cell_angle_beta 90.000000
_cell_angle_gamma 90.000000
_cell_volume 1400.842727
_symmetry_space_group_name_H-M "C 2 2 2"
_symmetry_group_IT_number 21
_symmetry_cell_setting 'orthorhombic'
loop_
_space_group_symop_operation_xyz
x,y,z
-x,-y,z
x,-y,-z
-x,y,-z
1/2+x,1/2+y,z
1/2-x,1/2-y,z
1/2+x,1/2-y,-z
1/2-x,1/2+y,-z
loop_
_atom_site_type_symbol
_atom_site_label
_atom_site_fract_x
_atom_site_fract_y
_atom_site_fract_z
Si Si1 0.250000 0.250000 0.957425
Si Si2 0.817008 0.610307 0.859645
Si Si3 0.497196 0.307302 0.410804
Si Si4 0.202307 0.156475 0.238489
Si Si5 0.500000 0.000000 0.000000
O O1 0.091168 0.311730 0.904651
O O2 0.500000 0.292308 0.000000
O O3 0.524064 0.627154 0.824544
O O4 0.031155 0.608113 0.784455
O O5 0.830500 0.549305 0.933465
O O6 0.500000 0.349049 0.500000
O O7 0.250000 0.250000 0.422336
O O8 0.422191 0.355556 0.329909
O O9 0.750000 0.250000 0.394517
O O10 0.250000 0.250000 0.234179
#
# Coordination Sequence:
#
# PCOD9325227 Si02
#       5
#     4   8   8   8   2
#     4  12  22  40  62  86 108 154 214 260 316 366
#     4  12  25  40  60  84 120 161 211 259 308 375
#     4   9  17  30  52  89 130 156 185 245 320 376
#     4  11  20  37  62  90 117 158 207 253 304 372
#     4  12  32  46  60  90 130 172 216 270 336 366
#
# _framework density 21.415682
#
# number of rings (size 3 to 8) (size 9 to 14) (size 15 to 20)
#    0.000    1.067    4.000    4.800    0.000    2.133 
#    0.000    0.000    0.000    0.000    0.000    5.600 
#    0.000    0.000    0.000    0.000    0.000    0.000 
#
# Total GULP energy -83525.710472 kJ/mol
# GULP energy per Si atom -5568.380698 kJ/mol
# Density = 2.136694 g / cm^3
# Si number density = 21.415682 Si / 1000 Ang^3
#
#
#
# Elastic Constant Matrix: (Units=GPa)
#
#
# Indices 1 2 3 4 5 6 
#
# 1 118.6958 2.9379 19.7562 0.0000 0.0000 0.0000
# 2 2.9379 43.9545 35.8666 0.0000 0.0000 0.0000
# 3 19.7562 35.8666 151.1156 0.0000 0.0000 0.0000
# 4 0.0000 0.0000 0.0000 35.0135 0.0000 0.0000
# 5 0.0000 0.0000 0.0000 0.0000 29.9790 0.0000
# 6 0.0000 0.0000 0.0000 0.0000 0.0000 13.8539
#
#
#
# Elastic Compliance Matrix: (Units=1/GPa)
#
#
# Indices 1 2 3 4 5 6 
#
# 1 0.008619 0.000426 -0.001228 0.000000 0.000000 0.000000
# 2 0.000426 0.028236 -0.006757 0.000000 0.000000 0.000000
# 3 -0.001228 -0.006757 0.008382 0.000000 0.000000 0.000000
# 4 0.000000 0.000000 0.000000 0.028560 0.000000 0.000000
# 5 0.000000 0.000000 0.000000 0.000000 0.033357 0.000000
# 6 0.000000 0.000000 0.000000 0.000000 0.000000 0.072182
#
#
# Mechanical properties :
#
#
# Convention : Reuss Voigt Hill
#
# Bulk Modulus (GPa) = 33.20273 47.87638 40.53956
# Shear Modulus (GPa) = 24.45057 32.78297 28.61677
#
# Velocity S-wave (km/s) = 3.38259 3.91678 3.65945
# Velocity P-wave (km/s) = 5.54919 6.54669 6.06847
#
# Compressibility (1/GPa) = 0.03011801
#
# Stress axis : x y z
#
# Youngs Moduli (GPa) = 116.02649 35.41531 119.30581
#
# Poissons Ratio (x) = -0.01508 0.14649
# Poissons Ratio (y) = -0.04941 0.80620
# Poissons Ratio (z) = 0.14246 0.23932
#
# Static dielectric constant tensor:
#      x y z
#    x 1.679860 0.000000 0.000000 
#    y 0.000000 1.801920 0.000000 
#    z 0.000000 0.000000 1.970950 
# 
# From -- ./inp_files/28639.got.cif
#   From: 2010.05.17/outbox.cif.g08.bks.cpg/sg21_15_cif.got.tgz:28639.got - 2010.06.03 23:14:55.
