data_PCOD9325980
_publ_section_title
;
Structure prediction by ZEFSAII (Michael W. Deem and Ramdas Pophale) SiO2 
 PCOD9325980
Probable space group: F 2 2 2
;
_chemical_formula_sum "Si O2"
_cell_formula_units_Z 116
_cell_length_a 33.283419
_cell_length_b 8.000103
_cell_length_c 19.792669
_cell_angle_alpha 90.000000
_cell_angle_beta 90.000000
_cell_angle_gamma 90.000000
_cell_volume 5270.209417
_symmetry_space_group_name_H-M "F 2 2 2"
_symmetry_group_IT_number 22
_symmetry_cell_setting 'orthorhombic'
loop_
_space_group_symop_operation_xyz
x,y,z
-x,-y,z
x,-y,-z
-x,y,-z
x,1/2+y,1/2+z
-x,1/2-y,1/2+z
x,1/2-y,1/2-z
-x,1/2+y,1/2-z
1/2+x,y,1/2+z
1/2-x,-y,1/2+z
1/2+x,-y,1/2-z
1/2-x,y,1/2-z
1/2+x,1/2+y,z
1/2-x,1/2-y,z
1/2+x,1/2-y,-z
1/2-x,1/2+y,-z
loop_
_atom_site_type_symbol
_atom_site_label
_atom_site_fract_x
_atom_site_fract_y
_atom_site_fract_z
Si Si1 0.146751 0.253593 0.432743
Si Si2 0.704232 0.444147 0.099681
Si Si3 0.796460 0.053495 0.403579
Si Si4 0.500000 0.000000 0.500000
Si Si5 0.936510 0.248764 0.509496
Si Si6 0.178767 0.443326 0.750851
Si Si7 0.455537 0.049119 0.887113
Si Si8 0.602905 0.126773 0.799244
O O1 0.175058 0.414737 0.429235
O O2 0.111116 0.277042 0.486955
O O3 0.121954 0.224442 0.362984
O O4 0.174306 0.086015 0.435485
O O5 0.750095 0.469608 0.077058
O O6 0.692842 0.249788 0.084635
O O7 0.702362 0.468965 0.181306
O O8 0.798750 0.028829 0.321948
O O9 0.467410 0.885326 0.538091
O O10 0.950397 0.213937 0.432489
O O11 0.944409 0.091172 0.557246
O O12 0.166480 0.250000 0.750000
O O13 0.139661 0.556323 0.755900
O O14 0.500000 0.000000 0.864593
O O15 0.423500 0.023536 0.828476
O O16 0.579025 0.250000 0.750000
#
# Coordination Sequence:
#
# PCOD9325980 Si02
#       8
#    16  16  16   4  16  16  16  16
#     4  10  20  35  55  87 128 162 205 272 327 384
#     4  10  17  32  52  85 129 166 215 265 311 386
#     4   9  19  30  52  85 125 171 215 257 324 387
#     4  12  20  42  68 100 120 138 220 296 328 404
#     4  10  21  39  64  93 121 153 210 281 332 391
#     4   9  17  31  47  79 122 164 210 263 306 372
#     4  10  19  41  64  83 121 165 202 256 329 396
#     4  10  19  34  57  84 123 159 207 255 316 392
#
# _framework density 22.010511000000001
#
# number of rings (size 3 to 8) (size 9 to 14) (size 15 to 20)
#    0.000    2.207    2.759    1.241    0.000    1.655 
#   12.414    2.069    6.069    0.000    0.000   19.310 
#    0.000    0.000    0.000    0.000    0.000    0.000 
#
# Total GULP energy -161798.972664 kJ/mol
# GULP energy per Si atom -5579.274919 kJ/mol
# Density = 2.196041 g / cm^3
# Si number density = 22.010511 Si / 1000 Ang^3
#
#
#
# Elastic Constant Matrix: (Units=GPa)
#
#
# Indices 1 2 3 4 5 6 
#
# 1 150.3149 70.3105 29.3027 0.0000 0.0000 0.0000
# 2 70.3105 94.5217 30.1286 0.0000 0.0000 0.0000
# 3 29.3027 30.1286 72.5335 0.0000 0.0000 0.0000
# 4 0.0000 0.0000 0.0000 18.1440 0.0000 0.0000
# 5 0.0000 0.0000 0.0000 0.0000 30.6057 0.0001
# 6 0.0000 0.0000 0.0000 0.0000 0.0001 22.6799
#
#
#
# Elastic Compliance Matrix: (Units=1/GPa)
#
#
# Indices 1 2 3 4 5 6 
#
# 1 0.010282 -0.007289 -0.001126 0.000000 0.000000 0.000000
# 2 -0.007289 0.017362 -0.004267 0.000000 0.000000 0.000000
# 3 -0.001126 -0.004267 0.016014 0.000000 0.000000 0.000000
# 4 0.000000 0.000000 0.000000 0.055115 0.000000 0.000000
# 5 0.000000 0.000000 0.000000 0.000000 0.032674 0.000000
# 6 0.000000 0.000000 0.000000 0.000000 0.000000 0.044092
#
#
# Mechanical properties :
#
#
# Convention : Reuss Voigt Hill
#
# Bulk Modulus (GPa) = 54.66465 64.09488 59.37977
# Shear Modulus (GPa) = 24.15462 26.79447 25.47455
#
# Velocity S-wave (km/s) = 3.31632 3.49284 3.40572
# Velocity P-wave (km/s) = 6.28916 6.74165 6.51933
#
# Compressibility (1/GPa) = 0.01829336
#
# Stress axis : x y z
#
# Youngs Moduli (GPa) = 97.25936 57.59769 62.44557
#
# Poissons Ratio (x) = 0.41985 0.07031
# Poissons Ratio (y) = 0.70895 0.26645
# Poissons Ratio (z) = 0.10951 0.24576
#
# Static dielectric constant tensor:
#      x y z
#    x 1.792480 0.000000 0.000000 
#    y 0.000000 1.832190 0.000000 
#    z 0.000000 0.000000 1.866300 
# 
# From -- ./inp_files/50766.got.cif
#   From: 2010.05.17/outbox.cif.g08.bks.cpg/sg22_26_cif.got.tgz:50766.got - 2010.06.03 23:40:54.
