data_PCOD9325105
_publ_section_title
;
Structure prediction by ZEFSAII (Michael W. Deem and Ramdas Pophale) SiO2 
 PCOD9325105
Probable space group: C 2 2 2
;
_chemical_formula_sum "Si O2"
_cell_formula_units_Z 22
_cell_length_a 31.929870
_cell_length_b 5.271894
_cell_length_c 5.278821
_cell_angle_alpha 90.000000
_cell_angle_beta 90.000000
_cell_angle_gamma 90.000000
_cell_volume 888.588637
_symmetry_space_group_name_H-M "C 2 2 2"
_symmetry_group_IT_number 21
_symmetry_cell_setting 'orthorhombic'
loop_
_space_group_symop_operation_xyz
x,y,z
-x,-y,z
x,-y,-z
-x,y,-z
1/2+x,1/2+y,z
1/2-x,1/2-y,z
1/2+x,1/2-y,-z
1/2-x,1/2+y,-z
loop_
_atom_site_type_symbol
_atom_site_label
_atom_site_fract_x
_atom_site_fract_y
_atom_site_fract_z
Si Si1 0.361624 0.000000 0.000000
Si Si2 0.080616 0.846521 0.738035
Si Si3 0.702440 0.252064 0.327209
Si Si4 0.000000 0.000000 0.500000
O O1 0.392848 0.097482 0.215752
O O2 0.331164 0.783456 0.106235
O O3 0.098636 0.000000 0.500000
O O4 0.031594 0.828630 0.664826
O O5 0.082815 0.000000 0.000000
O O6 0.697383 0.500000 0.500000
O O7 0.750000 0.250000 0.223942
O O8 0.698343 0.000000 0.500000
#
# Coordination Sequence:
#
# PCOD9325105 Si02
#       4
#     4   8   8   2
#     4  12  28  44  83 116 160 214 282 335 404 496
#     4  10  25  47  79 115 159 212 270 339 411 490
#     4  10  26  49  76 114 164 221 274 337 412 486
#     4   8  22  52  80 108 172 208 260 344 416 488
#
# _framework density 24.758365000000001
#
# number of rings (size 3 to 8) (size 9 to 14) (size 15 to 20)
#    1.091    0.727    0.000    0.545   10.182    4.364 
#    0.000    5.455    8.000    0.000    0.000    0.000 
#    0.000    0.000    0.000    0.000    0.000    0.000 
#
# Total GULP energy -61591.117221 kJ/mol
# GULP energy per Si atom -5599.192475 kJ/mol
# Density = 2.470201 g / cm^3
# Si number density = 24.758365 Si / 1000 Ang^3
#
#
#
# Elastic Constant Matrix: (Units=GPa)
#
#
# Indices 1 2 3 4 5 6 
#
# 1 228.4039 60.5136 62.9081 0.0000 0.0000 0.0000
# 2 60.5136 137.3360 52.3616 0.0000 0.0000 0.0000
# 3 62.9081 52.3616 138.9588 0.0000 0.0000 0.0000
# 4 0.0000 0.0000 0.0000 47.6094 0.0000 0.0000
# 5 0.0000 0.0000 0.0000 0.000058934.6860 0.0000
# 6 0.0000 0.0000 0.0000 0.0000 0.0000 47.0252
#
#
#
# Elastic Compliance Matrix: (Units=1/GPa)
#
#
# Indices 1 2 3 4 5 6 
#
# 1 0.005308 -0.001661 -0.001777 0.000000 0.000000 0.000000
# 2 -0.001661 0.009023 -0.002648 0.000000 0.000000 0.000000
# 3 -0.001777 -0.002648 0.008999 0.000000 0.000000 0.000000
# 4 0.000000 0.000000 0.000000 0.021004 0.000000 0.000000
# 5 0.000000 0.000000 0.000000 0.000000 0.000017 0.000000
# 6 0.000000 0.000000 0.000000 0.000000 0.000000 0.021265
#
#
# Mechanical properties :
#
#
# Convention : Reuss Voigt Hill
#
# Bulk Modulus (GPa) = 89.62852 95.14059 92.38456
# Shear Modulus (GPa) = 61.34455 11827.79182 5944.56819
#
# Velocity S-wave (km/s) = 4.98308 69.19294 49.05351
# Velocity P-wave (km/s) = 8.32995 80.13776 56.97126
#
# Compressibility (1/GPa) = 0.01115716
#
# Stress axis : x y z
#
# Youngs Moduli (GPa) = 188.40408 110.82837 111.12883
#
# Poissons Ratio (x) = 0.18411 0.19746
# Poissons Ratio (y) = 0.31299 0.29426
# Poissons Ratio (z) = 0.33477 0.29346
#
# Static dielectric constant tensor:
#      x y z
#    x 1.938810 0.000000 0.000000 
#    y 0.000000 -33.752850 0.000000 
#    z 0.000000 0.000000 1.957440 
# 
# From -- ./inp_files/7633.got.cif
#   From: 2010.05.17/outbox.cif.g08.bks.cpg/sg21_4_cif.got.tgz:7633.got - 2010.06.03 23:14:55.
