data_PCOD9325240
_publ_section_title
;
Structure prediction by ZEFSAII (Michael W. Deem and Ramdas Pophale) SiO2 
 PCOD9325240
Probable space group: C 2 2 2
;
_chemical_formula_sum "Si O2"
_cell_formula_units_Z 48
_cell_length_a 8.665987
_cell_length_b 27.125637
_cell_length_c 9.048563
_cell_angle_alpha 90.000000
_cell_angle_beta 90.000000
_cell_angle_gamma 90.000000
_cell_volume 2127.049483
_symmetry_space_group_name_H-M "C 2 2 2"
_symmetry_group_IT_number 21
_symmetry_cell_setting 'orthorhombic'
loop_
_space_group_symop_operation_xyz
x,y,z
-x,-y,z
x,-y,-z
-x,y,-z
1/2+x,1/2+y,z
1/2-x,1/2-y,z
1/2+x,1/2-y,-z
1/2-x,1/2+y,-z
loop_
_atom_site_type_symbol
_atom_site_label
_atom_site_fract_x
_atom_site_fract_y
_atom_site_fract_z
Si Si1 0.632753 0.396067 0.111301
Si Si2 0.000000 0.781002 0.500000
Si Si3 0.000000 0.500000 0.251002
Si Si4 0.065634 0.393623 0.323478
Si Si5 0.238475 0.864868 0.411605
Si Si6 0.750000 0.250000 0.723126
Si Si7 0.750465 0.500000 0.000000
Si Si8 0.153390 0.668275 0.940302
O O1 0.641892 0.396920 0.290364
O O2 0.664875 0.450175 0.045652
O O3 0.500000 0.377997 0.000000
O O4 0.758901 0.354282 0.077647
O O5 0.866373 0.816562 0.567249
O O6 0.903398 0.750869 0.378141
O O7 0.004322 0.551468 0.336080
O O8 0.856040 0.507690 0.143056
O O9 0.217200 0.387096 0.426065
O O10 0.107920 0.379249 0.157600
O O11 0.917504 0.359291 0.360676
O O12 0.754114 0.297000 0.829961
O O13 0.000000 0.694380 0.000000
#
# Coordination Sequence:
#
# PCOD9325240 Si02
#       8
#     8   4   4   8   8   4   4   8
#     4  12  25  43  72 105 149 191 241 303 371 446
#     4  12  28  48  72 103 144 189 244 314 374 460
#     4  11  20  39  74 106 141 187 250 300 355 445
#     4  11  23  45  74 106 142 190 244 301 363 437
#     4  11  25  44  72  99 140 191 238 299 372 428
#     4  12  30  46  76 108 140 194 246 308 388 450
#     4  11  21  40  66 108 140 196 240 298 368 442
#     4  12  24  48  73 105 144 182 245 306 365 451
#
# _framework density 22.566469000000001
#
# number of rings (size 3 to 8) (size 9 to 14) (size 15 to 20)
#    0.000    0.500    6.667    1.250    2.333    3.333 
#    0.000    0.000    0.000    0.000    0.000    0.000 
#    0.000    0.000    0.000    0.000    0.000    0.000 
#
# Total GULP energy -133732.167448 kJ/mol
# GULP energy per Si atom -5572.173644 kJ/mol
# Density = 2.251511 g / cm^3
# Si number density = 22.566469 Si / 1000 Ang^3
#
#
#
# Elastic Constant Matrix: (Units=GPa)
#
#
# Indices 1 2 3 4 5 6 
#
# 1 71.5399 13.9460 24.2440 0.0000 0.0000 0.0000
# 2 13.9460 85.5181 12.6336 0.0000 0.0000 0.0000
# 3 24.2440 12.6336 102.6164 0.0000 0.0000 0.0000
# 4 0.0000 0.0000 0.0000 106.7419 0.0000 0.0000
# 5 0.0000 0.0000 0.0000 0.0000 37.3810 0.0000
# 6 0.0000 0.0000 0.0000 0.0000 0.0000 29.6376
#
#
#
# Elastic Compliance Matrix: (Units=1/GPa)
#
#
# Indices 1 2 3 4 5 6 
#
# 1 0.015533 -0.002028 -0.003420 0.000000 0.000000 0.000000
# 2 -0.002028 0.012175 -0.001020 0.000000 0.000000 0.000000
# 3 -0.003420 -0.001020 0.010679 0.000000 0.000000 0.000000
# 4 0.000000 0.000000 0.000000 0.009368 0.000000 0.000000
# 5 0.000000 0.000000 0.000000 0.000000 0.026752 0.000000
# 6 0.000000 0.000000 0.000000 0.000000 0.000000 0.033741
#
#
# Mechanical properties :
#
#
# Convention : Reuss Voigt Hill
#
# Bulk Modulus (GPa) = 39.29170 40.14683 39.71926
# Shear Modulus (GPa) = 38.56076 48.67549 43.61813
#
# Velocity S-wave (km/s) = 4.13820 4.64937 4.40122
# Velocity P-wave (km/s) = 6.34684 6.83018 6.59294
#
# Compressibility (1/GPa) = 0.02545067
#
# Stress axis : x y z
#
# Youngs Moduli (GPa) = 64.38109 82.13705 93.64521
#
# Poissons Ratio (x) = 0.16655 0.32027
# Poissons Ratio (y) = 0.13055 0.09550
# Poissons Ratio (z) = 0.22019 0.08377
#
# Static dielectric constant tensor:
#      x y z
#    x 1.453770 0.000000 0.000000 
#    y 0.000000 1.867080 0.000000 
#    z 0.000000 0.000000 1.951250 
# 
# From -- ./inp_files/11624.got.cif
#   From: 2010.05.17/outbox.cif.g08.bks.cpg/sg21_6_cif.got.tgz:11624.got - 2010.06.03 23:14:55.
