data_PCOD9325639
_publ_section_title
;
Structure prediction by ZEFSAII (Michael W. Deem and Ramdas Pophale) SiO2 
 PCOD9325639
Probable space group: C 2 2 2
;
_chemical_formula_sum "Si O2"
_cell_formula_units_Z 28
_cell_length_a 6.945318
_cell_length_b 22.305393
_cell_length_c 6.816590
_cell_angle_alpha 90.000000
_cell_angle_beta 90.000000
_cell_angle_gamma 90.000000
_cell_volume 1056.012813
_symmetry_space_group_name_H-M "C 2 2 2"
_symmetry_group_IT_number 21
_symmetry_cell_setting 'orthorhombic'
loop_
_space_group_symop_operation_xyz
x,y,z
-x,-y,z
x,-y,-z
-x,y,-z
1/2+x,1/2+y,z
1/2-x,1/2-y,z
1/2+x,1/2-y,-z
1/2-x,1/2+y,-z
loop_
_atom_site_type_symbol
_atom_site_label
_atom_site_fract_x
_atom_site_fract_y
_atom_site_fract_z
Si Si1 0.500000 0.091407 0.500000
Si Si2 0.363386 0.313258 0.872303
Si Si3 0.694260 0.944727 0.880806
Si Si4 0.337469 0.316272 0.381623
O O1 0.374304 0.052596 0.654397
O O2 0.340617 0.134287 0.388991
O O3 0.250000 0.250000 0.854518
O O4 0.295278 0.381803 0.894330
O O5 0.409366 0.323027 0.624681
O O6 0.392954 0.308739 0.129883
O O7 0.500000 0.937501 0.000000
O O8 0.789441 0.000000 0.000000
O O9 0.250000 0.250000 0.401957
#
# Coordination Sequence:
#
# PCOD9325639 Si02
#       4
#     4   8   8   8
#     4  12  24  47  78 110 156 204 266 327 402 461
#     4  12  24  44  73 116 162 207 255 325 400 477
#     4  11  26  48  75 110 156 210 265 332 394 474
#     4  12  22  40  72 117 158 198 250 318 398 484
#
# _framework density 26.51483
#
# number of rings (size 3 to 8) (size 9 to 14) (size 15 to 20)
#    0.000    0.286    4.286    6.000    0.000    2.857 
#    0.000    1.429    0.000    0.000    0.000    0.000 
#    0.000    0.000    0.000    0.000    0.000    0.000 
#
# Total GULP energy -78006.462555 kJ/mol
# GULP energy per Si atom -5571.890182 kJ/mol
# Density = 2.645448 g / cm^3
# Si number density = 26.514830 Si / 1000 Ang^3
#
#
#
# Elastic Constant Matrix: (Units=GPa)
#
#
# Indices 1 2 3 4 5 6 
#
# 1 129.6640 97.3126 69.5255 0.0000 0.0000 0.0000
# 2 97.3126 263.4133 93.1063 0.0000 0.0000 0.0000
# 3 69.5255 93.1063 266.8713 0.0000 0.0000 0.0000
# 4 0.0000 0.0000 0.0000 59.8187 0.0000 0.0000
# 5 0.0000 0.0000 0.0000 0.0000 83.6067 0.0000
# 6 0.0000 0.0000 0.0000 0.0000 0.0000 -22.9515
#
#
#
# Elastic Compliance Matrix: (Units=1/GPa)
#
#
# Indices 1 2 3 4 5 6 
#
# 1 0.011307 -0.003577 -0.001698 0.000000 0.000000 0.000000
# 2 -0.003577 0.005462 -0.000974 0.000000 0.000000 0.000000
# 3 -0.001698 -0.000974 0.004529 0.000000 0.000000 0.000000
# 4 0.000000 0.000000 0.000000 0.016717 0.000000 0.000000
# 5 0.000000 0.000000 0.000000 0.000000 0.011961 0.000000
# 6 0.000000 0.000000 0.000000 0.000000 0.000000 -0.043570
#
#
# Mechanical properties :
#
#
# Convention : Reuss Voigt Hill
#
# Bulk Modulus (GPa) = 113.62107 131.09306 122.35707
# Shear Modulus (GPa) = 228.96943 50.76171 139.86557
#
# Velocity S-wave (km/s) = 9.30283 4.38021 7.27079
# Velocity P-wave (km/s) = 12.58313 8.66778 10.80429
#
# Compressibility (1/GPa) = 0.00880118
#
# Stress axis : x y z
#
# Youngs Moduli (GPa) = 88.43916 183.08450 220.79341
#
# Poissons Ratio (x) = 0.65492 0.37486
# Poissons Ratio (y) = 0.31636 0.21498
# Poissons Ratio (z) = 0.15015 0.17826
#
# Static dielectric constant tensor:
#      x y z
#    x 2.253390 0.000000 0.000000 
#    y 0.000000 1.960210 0.000000 
#    z 0.000000 0.000000 2.704920 
# 
# From -- ./inp_files/2279.got.cif
#   From: 2010.05.17/outbox.cif.g08.bks.cpg/sg21_2_cif.got.tgz:2279.got - 2010.06.03 23:14:55.
