data_PCOD9325220
_publ_section_title
;
Structure prediction by ZEFSAII (Michael W. Deem and Ramdas Pophale) SiO2 
 PCOD9325220
Probable space group: C 2 2 2
;
_chemical_formula_sum "Si O2"
_cell_formula_units_Z 48
_cell_length_a 19.429695
_cell_length_b 26.087291
_cell_length_c 5.073119
_cell_angle_alpha 90.000000
_cell_angle_beta 90.000000
_cell_angle_gamma 90.000000
_cell_volume 2571.402227
_symmetry_space_group_name_H-M "C 2 2 2"
_symmetry_group_IT_number 21
_symmetry_cell_setting 'orthorhombic'
loop_
_space_group_symop_operation_xyz
x,y,z
-x,-y,z
x,-y,-z
-x,y,-z
1/2+x,1/2+y,z
1/2-x,1/2-y,z
1/2+x,1/2-y,-z
1/2-x,1/2+y,-z
loop_
_atom_site_type_symbol
_atom_site_label
_atom_site_fract_x
_atom_site_fract_y
_atom_site_fract_z
Si Si1 0.191184 0.708173 0.885858
Si Si2 0.733842 0.966323 0.762451
Si Si3 0.274296 0.855441 0.400279
Si Si4 0.924443 0.789485 0.115115
Si Si5 0.395909 0.534136 0.240198
Si Si6 0.612092 0.645950 0.619888
O O1 0.250000 0.750000 0.815621
O O2 0.193570 0.663038 0.672915
O O3 0.119424 0.737919 0.863361
O O4 0.208636 0.685946 0.173959
O O5 0.702628 0.910870 0.704870
O O6 0.814925 0.956947 0.826618
O O7 0.731805 0.000000 0.500000
O O8 0.704367 0.000000 0.000000
O O9 0.192310 0.859950 0.457008
O O10 0.923053 0.821692 0.386419
O O11 0.887536 0.823318 0.891940
O O12 0.000000 0.780466 0.000000
O O13 0.401228 0.500000 0.500000
O O14 0.421871 0.590923 0.312749
O O15 0.423996 0.500000 0.000000
#
# Coordination Sequence:
#
# PCOD9325220 Si02
#       6
#     8   8   8   8   8   8
#     4  12  21  36  56  80 111 142 190 237 274 328
#     4   9  17  29  46  76 115 140 164 213 277 329
#     4  11  20  33  57  84 107 145 187 227 277 332
#     4  12  25  38  54  77 109 149 186 231 281 334
#     4   9  17  29  49  76 101 133 175 225 275 316
#     4  11  20  36  56  77 107 143 186 231 278 333
#
# _framework density 18.666858999999999
#
# number of rings (size 3 to 8) (size 9 to 14) (size 15 to 20)
#    0.000    1.333    3.333    4.000    0.000    5.333 
#    0.000    0.000    0.000    7.500    0.000    0.000 
#    0.000   10.000    0.000    0.000    0.000    0.000 
#
# Total GULP energy -134031.204909 kJ/mol
# GULP energy per Si atom -5584.633538 kJ/mol
# Density = 1.862437 g / cm^3
# Si number density = 18.666859 Si / 1000 Ang^3
#
#
#
# Elastic Constant Matrix: (Units=GPa)
#
#
# Indices 1 2 3 4 5 6 
#
# 1 41.6088 26.4383 10.0969 0.0000 0.0000 0.0000
# 2 26.4383 73.1825 4.3738 0.0000 0.0000 0.0000
# 3 10.0969 4.3738 76.5835 0.0000 0.0000 0.0000
# 4 0.0000 0.0000 0.0000 13.1219 0.0000 0.0000
# 5 0.0000 0.0000 0.0000 0.0000 15.4637 0.0000
# 6 0.0000 0.0000 0.0000 0.0000 0.0000 -0.8569
#
#
#
# Elastic Compliance Matrix: (Units=1/GPa)
#
#
# Indices 1 2 3 4 5 6 
#
# 1 0.032147 -0.011399 -0.003587 0.000000 0.000000 0.000000
# 2 -0.011399 0.017753 0.000489 0.000000 0.000000 0.000000
# 3 -0.003587 0.000489 0.013503 0.000000 0.000000 0.000000
# 4 0.000000 0.000000 0.000000 0.076208 0.000000 0.000000
# 5 0.000000 0.000000 0.000000 0.000000 0.064668 0.000000
# 6 0.000000 0.000000 0.000000 0.000000 0.000000 -1.166938
#
#
# Mechanical properties :
#
#
# Convention : Reuss Voigt Hill
#
# Bulk Modulus (GPa) = 29.06302 30.35476 29.70889
# Shear Modulus (GPa) = -5.42185 15.57678 5.07746
#
# Velocity S-wave (km/s) = -1.70612 2.89184 1.65104
# Velocity P-wave (km/s) = 3.42374 5.23898 4.42543
#
# Compressibility (1/GPa) = 0.03440799
#
# Stress axis : x y z
#
# Youngs Moduli (GPa) = 31.10711 56.32726 74.05937
#
# Poissons Ratio (x) = 0.64209 0.26567
# Poissons Ratio (y) = 0.35460 -0.03621
# Poissons Ratio (z) = 0.11159 -0.02754
#
# Static dielectric constant tensor:
#      x y z
#    x 1.669930 0.000000 0.000000 
#    y 0.000000 1.674450 0.000000 
#    z 0.000000 0.000000 1.671820 
# 
# From -- ./inp_files/5940.got.cif
#   From: 2010.05.17/outbox.cif.g08.bks.cpg/sg21_3_cif.got.tgz:5940.got - 2010.06.03 23:14:55.
