data_PCOD9325185
_publ_section_title
;
Structure prediction by ZEFSAII (Michael W. Deem and Ramdas Pophale) SiO2 
 PCOD9325185
Probable space group: C 2 2 2
;
_chemical_formula_sum "Si O2"
_cell_formula_units_Z 50
_cell_length_a 19.513040
_cell_length_b 13.671369
_cell_length_c 8.671584
_cell_angle_alpha 90.000000
_cell_angle_beta 90.000000
_cell_angle_gamma 90.000000
_cell_volume 2313.318205
_symmetry_space_group_name_H-M "C 2 2 2"
_symmetry_group_IT_number 21
_symmetry_cell_setting 'orthorhombic'
loop_
_space_group_symop_operation_xyz
x,y,z
-x,-y,z
x,-y,-z
-x,y,-z
1/2+x,1/2+y,z
1/2-x,1/2-y,z
1/2+x,1/2-y,-z
1/2-x,1/2+y,-z
loop_
_atom_site_type_symbol
_atom_site_label
_atom_site_fract_x
_atom_site_fract_y
_atom_site_fract_z
Si Si1 0.714344 0.500000 0.000000
Si Si2 0.891491 0.103877 0.779970
Si Si3 0.205143 0.334751 0.557729
Si Si4 0.698217 0.170211 0.093555
Si Si5 0.933892 0.608280 0.072359
Si Si6 0.184431 0.000000 0.500000
Si Si7 0.434117 0.809144 0.613354
Si Si8 0.500000 0.500000 0.000000
O O1 0.669828 0.422680 0.901424
O O2 0.764397 0.565961 0.898352
O O3 0.912598 0.208701 0.704923
O O4 0.954791 0.064935 0.882537
O O5 0.865125 0.040807 0.633435
O O6 0.250000 0.250000 0.478668
O O7 0.183161 0.302240 0.730023
O O8 0.261461 0.419661 0.560489
O O9 0.133716 0.347680 0.472646
O O10 0.750000 0.250000 0.030853
O O11 0.633703 0.162365 0.983578
O O12 0.946576 0.611346 0.253223
O O13 0.928925 0.500000 0.000000
O O14 0.000000 0.659043 0.000000
O O15 0.500000 0.796113 0.500000
#
# Coordination Sequence:
#
# PCOD9325185 Si02
#       8
#     4   8   8   8   8   4   8   2
#     4  11  22  45  67 112 143 190 248 304 371 454
#     4  11  26  46  76 111 149 199 247 310 380 458
#     4  11  25  44  69 109 146 191 249 312 379 453
#     4  11  23  42  73 104 145 191 248 308 375 449
#     4  11  26  48  72 102 140 194 250 308 375 447
#     4  12  24  45  77 108 156 192 252 316 382 450
#     4  12  28  49  75 107 152 200 259 317 387 452
#     4  10  28  46  76 112 160 198 246 304 390 474
#
# _framework density 21.613973000000001
#
# number of rings (size 3 to 8) (size 9 to 14) (size 15 to 20)
#    0.000    0.800    4.000    1.920    7.840    0.640 
#    2.880    0.000    0.000    0.000    0.000    0.000 
#    0.000    0.000    0.000    0.000    0.000    0.000 
#
# Total GULP energy -139399.544294 kJ/mol
# GULP energy per Si atom -5575.981772 kJ/mol
# Density = 2.156478 g / cm^3
# Si number density = 21.613973 Si / 1000 Ang^3
#
#
#
# Elastic Constant Matrix: (Units=GPa)
#
#
# Indices 1 2 3 4 5 6 
#
# 1 139.5121 34.1705 67.5155 0.0000 0.0000 0.0000
# 2 34.1705 81.1900 28.3548 0.0000 0.0000 0.0000
# 3 67.5155 28.3548 132.9602 0.0000 0.0000 0.0000
# 4 0.0000 0.0000 0.0000 29.5596 0.0000 0.0000
# 5 0.0000 0.0000 0.0000 0.0000 158.0443 0.0000
# 6 0.0000 0.0000 0.0000 0.0000 0.0000 16.3906
#
#
#
# Elastic Compliance Matrix: (Units=1/GPa)
#
#
# Indices 1 2 3 4 5 6 
#
# 1 0.009997 -0.002631 -0.004516 0.000000 0.000000 0.000000
# 2 -0.002631 0.014000 -0.001650 0.000000 0.000000 0.000000
# 3 -0.004516 -0.001650 0.010166 0.000000 0.000000 0.000000
# 4 0.000000 0.000000 0.000000 0.033830 0.000000 0.000000
# 5 0.000000 0.000000 0.000000 0.000000 0.006327 0.000000
# 6 0.000000 0.000000 0.000000 0.000000 0.000000 0.061011
#
#
# Mechanical properties :
#
#
# Convention : Reuss Voigt Hill
#
# Bulk Modulus (GPa) = 60.34514 68.19378 64.26946
# Shear Modulus (GPa) = 31.55628 55.70701 43.63165
#
# Velocity S-wave (km/s) = 3.82513 5.08228 4.49784
# Velocity P-wave (km/s) = 6.89122 8.12765 7.53484
#
# Compressibility (1/GPa) = 0.01657134
#
# Stress axis : x y z
#
# Youngs Moduli (GPa) = 100.02594 71.42793 98.36866
#
# Poissons Ratio (x) = 0.18790 0.44419
# Poissons Ratio (y) = 0.26313 0.16229
# Poissons Ratio (z) = 0.45167 0.11785
#
# Static dielectric constant tensor:
#      x y z
#    x 1.789060 0.000000 0.000000 
#    y 0.000000 1.719340 0.000000 
#    z 0.000000 0.000000 1.825950 
# 
# From -- ./inp_files/16490.got.cif
#   From: 2010.05.17/outbox.cif.g08.bks.cpg/sg21_9_cif.got.tgz:16490.got - 2010.06.03 23:14:55.
