data_PCOD9325290
_publ_section_title
;
Structure prediction by ZEFSAII (Michael W. Deem and Ramdas Pophale) SiO2 
 PCOD9325290
Probable space group: C 2 2 2
;
_chemical_formula_sum "Si O2"
_cell_formula_units_Z 34
_cell_length_a 9.030929
_cell_length_b 20.140876
_cell_length_c 9.458672
_cell_angle_alpha 90.000000
_cell_angle_beta 90.000000
_cell_angle_gamma 90.000000
_cell_volume 1720.445617
_symmetry_space_group_name_H-M "C 2 2 2"
_symmetry_group_IT_number 21
_symmetry_cell_setting 'orthorhombic'
loop_
_space_group_symop_operation_xyz
x,y,z
-x,-y,z
x,-y,-z
-x,y,-z
1/2+x,1/2+y,z
1/2-x,1/2-y,z
1/2+x,1/2-y,-z
1/2-x,1/2+y,-z
loop_
_atom_site_type_symbol
_atom_site_label
_atom_site_fract_x
_atom_site_fract_y
_atom_site_fract_z
Si Si1 0.926120 0.740629 0.848737
Si Si2 0.036072 0.592800 0.260882
Si Si3 0.605946 0.295651 0.619134
Si Si4 0.737836 0.071759 0.533148
Si Si5 0.000000 0.500000 0.000000
O O1 0.750000 0.750000 0.851253
O O2 0.969515 0.669772 0.781318
O O3 0.005491 0.796931 0.756929
O O4 0.000000 0.742249 0.000000
O O5 0.153354 0.587827 0.387209
O O6 0.883654 0.568981 0.338503
O O7 0.070441 0.550896 0.117323
O O8 0.500000 0.264575 0.500000
O O9 0.750000 0.250000 0.638913
O O10 0.656124 0.368026 0.571020
O O11 0.805899 0.000000 0.500000
#
# Coordination Sequence:
#
# PCOD9325290 Si02
#       5
#     8   8   8   8   2
#     4  12  26  43  67 102 142 183 231 296 363 426
#     4  11  21  40  64 100 135 183 236 292 342 434
#     4  12  24  42  67  98 135 181 234 295 354 418
#     4  11  22  40  67  95 139 180 241 290 352 420
#     4  12  20  34  68  96 134 178 236 294 350 406
#
# _framework density 19.762322000000001
#
# number of rings (size 3 to 8) (size 9 to 14) (size 15 to 20)
#    0.000    0.471    5.882    4.941    0.000    0.471 
#    0.000    0.000    0.000    0.000    0.000    0.000 
#    0.000    0.000    0.000    0.000    0.000    0.000 
#
# Total GULP energy -94881.268103 kJ/mol
# GULP energy per Si atom -5581.251065 kJ/mol
# Density = 1.971734 g / cm^3
# Si number density = 19.762322 Si / 1000 Ang^3
#
#
#
# Elastic Constant Matrix: (Units=GPa)
#
#
# Indices 1 2 3 4 5 6 
#
# 1 125.8462 50.2441 53.7058 0.0000 0.0000 0.0000
# 2 50.2441 109.4203 43.9203 0.0000 0.0000 0.0000
# 3 53.7058 43.9203 150.3030 0.0000 0.0000 0.0000
# 4 0.0000 0.0000 0.0000 8.1417 0.0000 0.0000
# 5 0.0000 0.0000 0.0000 0.0000 27.1728 0.0000
# 6 0.0000 0.0000 0.0000 0.0000 0.0000 36.3255
#
#
#
# Elastic Compliance Matrix: (Units=1/GPa)
#
#
# Indices 1 2 3 4 5 6 
#
# 1 0.010605 -0.003794 -0.002681 0.000000 0.000000 0.000000
# 2 -0.003794 0.011710 -0.002066 0.000000 0.000000 0.000000
# 3 -0.002681 -0.002066 0.008215 0.000000 0.000000 0.000000
# 4 0.000000 0.000000 0.000000 0.122825 0.000000 0.000000
# 5 0.000000 0.000000 0.000000 0.000000 0.036802 0.000000
# 6 0.000000 0.000000 0.000000 0.000000 0.000000 0.027529
#
#
# Mechanical properties :
#
#
# Convention : Reuss Voigt Hill
#
# Bulk Modulus (GPa) = 74.35640 75.70111 75.02876
# Shear Modulus (GPa) = 20.89863 30.17461 25.53662
#
# Velocity S-wave (km/s) = 3.25545 3.91176 3.59860
# Velocity P-wave (km/s) = 7.19983 7.66756 7.43737
#
# Compressibility (1/GPa) = 0.01344874
#
# Stress axis : x y z
#
# Youngs Moduli (GPa) = 94.29685 85.39382 121.72931
#
# Poissons Ratio (x) = 0.32394 0.32633
# Poissons Ratio (y) = 0.35772 0.25155
# Poissons Ratio (z) = 0.25279 0.17646
#
# Static dielectric constant tensor:
#      x y z
#    x 1.697910 0.000000 0.000000 
#    y 0.000000 1.741270 0.000000 
#    z 0.000000 0.000000 1.610270 
# 
# From -- ./inp_files/10561.got.cif
#   From: 2010.05.17/outbox.cif.g08.bks.cpg/sg21_6_cif.got.tgz:10561.got - 2010.06.03 23:14:55.
