data_PCOD9325041
_publ_section_title
;
Structure prediction by ZEFSAII (Michael W. Deem and Ramdas Pophale) SiO2 
 PCOD9325041
Probable space group: C 2 2 2
;
_chemical_formula_sum "Si O2"
_cell_formula_units_Z 32
_cell_length_a 12.776276
_cell_length_b 8.554927
_cell_length_c 12.742265
_cell_angle_alpha 90.000000
_cell_angle_beta 90.000000
_cell_angle_gamma 90.000000
_cell_volume 1392.730947
_symmetry_space_group_name_H-M "C 2 2 2"
_symmetry_group_IT_number 21
_symmetry_cell_setting 'orthorhombic'
loop_
_space_group_symop_operation_xyz
x,y,z
-x,-y,z
x,-y,-z
-x,y,-z
1/2+x,1/2+y,z
1/2-x,1/2-y,z
1/2+x,1/2-y,-z
1/2-x,1/2+y,-z
loop_
_atom_site_type_symbol
_atom_site_label
_atom_site_fract_x
_atom_site_fract_y
_atom_site_fract_z
Si Si1 0.325057 0.500000 0.500000
Si Si2 0.000000 0.500000 0.673000
Si Si3 0.183048 0.000000 0.000000
Si Si4 0.000000 0.755214 0.500000
Si Si5 0.361028 0.091326 0.833470
Si Si6 0.750000 0.250000 0.337443
Si Si7 0.000000 0.241425 0.000000
O O1 0.404317 0.363902 0.463268
O O2 0.262855 0.595715 0.410279
O O3 0.025221 0.358348 0.595528
O O4 0.904606 0.462423 0.752393
O O5 0.101006 0.136398 0.031533
O O6 0.261411 0.954700 0.095425
O O7 0.340302 0.229844 0.749647
O O8 0.450027 0.152875 0.910488
#
# Coordination Sequence:
#
# PCOD9325041 Si02
#       7
#     4   4   4   4   8   4   4
#     4  11  26  46  72 105 152 198 262 331 374 487
#     4  11  24  43  76 106 146 205 254 323 400 466
#     4  11  24  45  72 106 156 207 262 315 382 478
#     4  10  24  48  68 102 150 194 258 322 396 472
#     4  12  24  46  73 110 152 202 262 324 391 464
#     4  12  26  46  76 106 158 200 262 320 402 450
#     4  11  24  45  72 108 158 202 260 316 384 476
#
# _framework density 22.976441000000001
#
# number of rings (size 3 to 8) (size 9 to 14) (size 15 to 20)
#    0.000    0.750    5.000    1.500    3.500    2.000 
#    0.000    2.500    0.000    0.000    0.000    0.000 
#    0.000    0.000    0.000    0.000    0.000    0.000 
#
# Total GULP energy -89119.595509 kJ/mol
# GULP energy per Si atom -5569.974719 kJ/mol
# Density = 2.292415 g / cm^3
# Si number density = 22.976441 Si / 1000 Ang^3
#
#
#
# Elastic Constant Matrix: (Units=GPa)
#
#
# Indices 1 2 3 4 5 6 
#
# 1 150.7504 62.3945 108.2811 0.0000 0.0000 0.0000
# 2 62.3945 120.0696 83.2718 0.0000 0.0000 0.0000
# 3 108.2811 83.2718 187.3416 0.0000 0.0000 0.0000
# 4 0.0000 0.0000 0.0000********** 0.0000 0.0000
# 5 0.0000 0.0000 0.0000 0.0000 24.0326 0.0000
# 6 0.0000 0.0000 0.0000 0.0000 0.0000 37.1223
#
#
#
# Elastic Compliance Matrix: (Units=1/GPa)
#
#
# Indices 1 2 3 4 5 6 
#
# 1 0.011666 -0.002004 -0.005852 0.000000 0.000000 0.000000
# 2 -0.002004 0.012384 -0.004347 0.000000 0.000000 0.000000
# 3 -0.005852 -0.004347 0.010653 0.000000 0.000000 0.000000
# 4 0.000000 0.000000 0.000000 -0.000068 0.000000 0.000000
# 5 0.000000 0.000000 0.000000 0.000000 0.041610 0.000000
# 6 0.000000 0.000000 0.000000 0.000000 0.000000 0.026938
#
#
# Mechanical properties :
#
#
# Convention : Reuss Voigt Hill
#
# Bulk Modulus (GPa) = 97.10838 107.33960 102.22399
# Shear Modulus (GPa) = 38.16162 -2930.21824 -1446.02831
#
# Velocity S-wave (km/s) = 4.07984 -35.75028 -25.11412
# Velocity P-wave (km/s) = 8.03427 40.70985 28.22005
#
# Compressibility (1/GPa) = 0.01029777
#
# Stress axis : x y z
#
# Youngs Moduli (GPa) = 85.71552 80.74804 93.87449
#
# Poissons Ratio (x) = 0.16179 0.54940
# Poissons Ratio (y) = 0.17174 0.40803
# Poissons Ratio (z) = 0.50165 0.35098
#
# Static dielectric constant tensor:
#      x y z
#    x 53.126980 0.000000 0.000000 
#    y 0.000000 1.936720 0.000000 
#    z 0.000000 0.000000 1.816230 
# 
# From -- ./inp_files/24844.got.cif
#   From: 2010.05.17/outbox.cif.g08.bks.cpg/sg21_13_cif.got.tgz:24844.got - 2010.06.03 23:14:55.
