data_PCOD9325956
_publ_section_title
;
Structure prediction by ZEFSAII (Michael W. Deem and Ramdas Pophale) SiO2 
 PCOD9325956
Probable space group: F 2 2 2
;
_chemical_formula_sum "Si O2"
_cell_formula_units_Z 88
_cell_length_a 19.486293
_cell_length_b 15.918356
_cell_length_c 14.357631
_cell_angle_alpha 90.000000
_cell_angle_beta 90.000000
_cell_angle_gamma 90.000000
_cell_volume 4453.589957
_symmetry_space_group_name_H-M "F 2 2 2"
_symmetry_group_IT_number 22
_symmetry_cell_setting 'orthorhombic'
loop_
_space_group_symop_operation_xyz
x,y,z
-x,-y,z
x,-y,-z
-x,y,-z
x,1/2+y,1/2+z
-x,1/2-y,1/2+z
x,1/2-y,1/2-z
-x,1/2+y,1/2-z
1/2+x,y,1/2+z
1/2-x,-y,1/2+z
1/2+x,-y,1/2-z
1/2-x,y,1/2-z
1/2+x,1/2+y,z
1/2-x,1/2-y,z
1/2+x,1/2-y,-z
1/2-x,1/2+y,-z
loop_
_atom_site_type_symbol
_atom_site_label
_atom_site_fract_x
_atom_site_fract_y
_atom_site_fract_z
Si Si1 0.602070 0.862759 0.279882
Si Si2 0.070938 0.238245 0.038092
Si Si3 0.000000 0.500000 0.723769
Si Si4 0.780310 0.020187 0.852619
Si Si5 0.603330 0.928354 0.574628
Si Si6 0.805338 0.673891 0.104321
O O1 0.568069 0.799559 0.355350
O O2 0.653223 0.919971 0.340810
O O3 0.654852 0.828896 0.203134
O O4 0.547161 0.926324 0.232422
O O5 0.134320 0.301880 0.034278
O O6 0.087310 0.159712 0.971902
O O7 0.000000 0.274553 0.000000
O O8 0.946523 0.553191 0.661016
O O9 0.750000 0.001834 0.750000
O O10 0.727871 0.081791 0.905393
O O11 0.816151 0.940351 0.899825
O O12 0.585630 0.000000 0.500000
O O13 0.750000 0.750000 0.104445
#
# Coordination Sequence:
#
# PCOD9325956 Si02
#       6
#    16  16   8  16  16  16
#     4  10  19  29  53  81 111 142 179 237 276 333
#     4  12  21  30  52  86 116 141 181 240 285 338
#     4  10  17  30  48  78 115 136 168 228 293 320
#     4   9  19  30  50  80 107 138 179 235 279 328
#     4  11  16  29  48  78 108 139 180 230 279 323
#     4  11  21  35  55  85 113 146 188 238 290 329
#
# _framework density 19.759340999999999
#
# number of rings (size 3 to 8) (size 9 to 14) (size 15 to 20)
#    0.000    1.455    7.273    0.818    5.091    0.000 
#    0.000    0.000    0.000   15.273    0.000    0.000 
#    0.000    0.000    0.000    0.000    0.000    0.000 
#
# Total GULP energy -122520.840338 kJ/mol
# GULP energy per Si atom -5569.129106 kJ/mol
# Density = 1.971437 g / cm^3
# Si number density = 19.759341 Si / 1000 Ang^3
#
#
#
# Elastic Constant Matrix: (Units=GPa)
#
#
# Indices 1 2 3 4 5 6 
#
# 1 132.6852 30.0581 21.6258 0.0000 0.0000 0.0000
# 2 30.0581 31.3545 -5.0847 0.0000 0.0000 0.0000
# 3 21.6258 -5.0847 22.7450 0.0000 0.0000 0.0000
# 4 0.0000 0.0000 0.0000 9.9087 0.0000 0.0000
# 5 0.0000 0.0000 0.0000 0.0000 40.6044 0.0000
# 6 0.0000 0.0000 0.0000 0.0000 0.0000 34.3246
#
#
#
# Elastic Compliance Matrix: (Units=1/GPa)
#
#
# Indices 1 2 3 4 5 6 
#
# 1 0.013921 -0.016075 -0.016830 0.000000 0.000000 0.000000
# 2 -0.016075 0.051655 0.026831 0.000000 0.000000 0.000000
# 3 -0.016830 0.026831 0.065965 0.000000 0.000000 0.000000
# 4 0.000000 0.000000 0.000000 0.100921 0.000000 0.000000
# 5 0.000000 0.000000 0.000000 0.000000 0.024628 0.000000
# 6 0.000000 0.000000 0.000000 0.000000 0.000000 0.029134
#
#
# Mechanical properties :
#
#
# Convention : Reuss Voigt Hill
#
# Bulk Modulus (GPa) = 8.37554 31.10923 19.74239
# Shear Modulus (GPa) = 14.78552 26.31326 20.54939
#
# Velocity S-wave (km/s) = 2.73844 3.65319 3.22838
# Velocity P-wave (km/s) = 3.77448 5.79419 4.88975
#
# Compressibility (1/GPa) = 0.11939523
#
# Stress axis : x y z
#
# Youngs Moduli (GPa) = 71.83293 19.35926 15.15945
#
# Poissons Ratio (x) = 0.31120 0.25513
# Poissons Ratio (y) = 1.15471 -0.40675
# Poissons Ratio (z) = 1.20893 -0.51944
#
# Static dielectric constant tensor:
#      x y z
#    x 1.762090 0.000000 0.000000 
#    y 0.000000 1.798100 0.000000 
#    z 0.000000 0.000000 1.755290 
# 
# From -- ./inp_files/30616.got.cif
#   From: 2010.05.17/outbox.cif.g08.bks.cpg/sg22_16_cif.got.tgz:30616.got - 2010.06.03 23:40:54.
