data_PCOD9325238
_publ_section_title
;
Structure prediction by ZEFSAII (Michael W. Deem and Ramdas Pophale) SiO2 
 PCOD9325238
Probable space group: C 2 2 2
;
_chemical_formula_sum "Si O2"
_cell_formula_units_Z 64
_cell_length_a 26.928537
_cell_length_b 12.938578
_cell_length_c 7.651191
_cell_angle_alpha 90.000000
_cell_angle_beta 90.000000
_cell_angle_gamma 90.000000
_cell_volume 2665.804834
_symmetry_space_group_name_H-M "C 2 2 2"
_symmetry_group_IT_number 21
_symmetry_cell_setting 'orthorhombic'
loop_
_space_group_symop_operation_xyz
x,y,z
-x,-y,z
x,-y,-z
-x,y,-z
1/2+x,1/2+y,z
1/2-x,1/2-y,z
1/2+x,1/2-y,-z
1/2-x,1/2+y,-z
loop_
_atom_site_type_symbol
_atom_site_label
_atom_site_fract_x
_atom_site_fract_y
_atom_site_fract_z
Si Si1 0.338677 0.479845 0.204479
Si Si2 0.054930 0.971021 0.294860
Si Si3 0.446843 0.038973 0.800209
Si Si4 0.792129 0.819522 0.660273
Si Si5 0.944334 0.768647 0.919601
Si Si6 0.696947 0.861911 0.863523
Si Si7 0.152572 0.454718 0.329301
Si Si8 0.151452 0.246706 0.178545
O O1 0.398378 0.472051 0.212640
O O2 0.322572 0.571685 0.340234
O O3 0.324431 0.360589 0.241769
O O4 0.325901 0.500000 0.000000
O O5 0.063273 0.855757 0.226069
O O6 0.056199 0.000000 0.500000
O O7 0.000000 0.000000 0.231486
O O8 0.444045 0.160457 0.819861
O O9 0.500000 0.000000 0.739999
O O10 0.403491 0.993020 0.686926
O O11 0.439872 0.000000 0.000000
O O12 0.750000 0.750000 0.550457
O O13 0.754328 0.856448 0.814318
O O14 0.826105 0.726493 0.733098
O O15 0.900482 0.766129 0.068181
O O16 0.000000 0.780080 0.000000
O O17 0.678091 0.975794 0.821439
O O18 0.685865 0.812315 0.047834
O O19 0.178645 0.500000 0.500000
O O20 0.148122 0.331620 0.329903
#
# Coordination Sequence:
#
# PCOD9325238 Si02
#       8
#     8   8   8   8   8   8   8   8
#     4  12  21  40  68 103 135 172 241 286 348 418
#     4  11  27  45  63  99 146 190 228 283 360 429
#     4  11  20  39  66  96 127 169 235 288 346 406
#     4   8  20  40  71 101 128 166 223 295 354 396
#     4  12  21  37  73  99 128 182 240 294 339 416
#     4   9  19  42  68  89 127 169 221 277 351 413
#     4  12  25  40  62  94 139 181 221 279 355 428
#     4  12  22  39  66 102 128 178 233 286 346 418
#
# _framework density 24.007760000000001
#
# number of rings (size 3 to 8) (size 9 to 14) (size 15 to 20)
#    0.750    0.250    6.250    1.125    0.000    2.250 
#    0.000    1.875    2.750    0.000    0.000    0.000 
#    0.000    0.000    0.000    0.000    0.000    0.000 
#
# Total GULP energy -178174.542134 kJ/mol
# GULP energy per Si atom -5567.954442 kJ/mol
# Density = 2.395312 g / cm^3
# Si number density = 24.007760 Si / 1000 Ang^3
#
#
#
# Elastic Constant Matrix: (Units=GPa)
#
#
# Indices 1 2 3 4 5 6 
#
# 1 74.7974 3.1454 2.7235 0.0000 0.0000 0.0000
# 2 3.1454 213.5588 31.8845 0.0000 0.0000 0.0000
# 3 2.7235 31.8845 59.0965 0.0000 0.0000 0.0000
# 4 0.0000 0.0000 0.0000 39.8357 0.0000 0.0000
# 5 0.0000 0.0000 0.0000 0.0000 4.6218 0.0000
# 6 0.0000 0.0000 0.0000 0.0000 0.0000 31.2572
#
#
#
# Elastic Compliance Matrix: (Units=1/GPa)
#
#
# Indices 1 2 3 4 5 6 
#
# 1 0.013394 -0.000114 -0.000556 0.000000 0.000000 0.000000
# 2 -0.000114 0.005094 -0.002743 0.000000 0.000000 0.000000
# 3 -0.000556 -0.002743 0.018427 0.000000 0.000000 0.000000
# 4 0.000000 0.000000 0.000000 0.025103 0.000000 0.000000
# 5 0.000000 0.000000 0.000000 0.000000 0.216366 0.000000
# 6 0.000000 0.000000 0.000000 0.000000 0.000000 0.031993
#
#
# Mechanical properties :
#
#
# Convention : Reuss Voigt Hill
#
# Bulk Modulus (GPa) = 33.23428 46.99550 40.11489
# Shear Modulus (GPa) = 15.27967 35.78956 25.53461
#
# Velocity S-wave (km/s) = 2.52553 3.86521 3.26482
# Velocity P-wave (km/s) = 4.73049 6.28788 5.56395
#
# Compressibility (1/GPa) = 0.03008942
#
# Stress axis : x y z
#
# Youngs Moduli (GPa) = 74.65754 196.31854 54.26820
#
# Poissons Ratio (x) = 0.02244 0.03015
# Poissons Ratio (y) = 0.00854 0.14886
# Poissons Ratio (z) = 0.04148 0.53850
#
# Static dielectric constant tensor:
#      x y z
#    x 1.934380 0.000000 0.000000 
#    y 0.000000 2.159350 0.000000 
#    z 0.000000 0.000000 2.089740 
# 
# From -- ./inp_files/19833.got.cif
#   From: 2010.05.17/outbox.cif.g08.bks.cpg/sg21_10_cif.got.tgz:19833.got - 2010.06.03 23:14:55.
