data_PCOD9325008
_publ_section_title
;
Structure prediction by ZEFSAII (Michael W. Deem and Ramdas Pophale) SiO2 
 PCOD9325008
Probable space group: C 2 2 2
;
_chemical_formula_sum "Si O2"
_cell_formula_units_Z 32
_cell_length_a 18.164079
_cell_length_b 5.634687
_cell_length_c 13.749822
_cell_angle_alpha 90.000000
_cell_angle_beta 90.000000
_cell_angle_gamma 90.000000
_cell_volume 1407.279154
_symmetry_space_group_name_H-M "C 2 2 2"
_symmetry_group_IT_number 21
_symmetry_cell_setting 'orthorhombic'
loop_
_space_group_symop_operation_xyz
x,y,z
-x,-y,z
x,-y,-z
-x,y,-z
1/2+x,1/2+y,z
1/2-x,1/2-y,z
1/2+x,1/2-y,-z
1/2-x,1/2+y,-z
loop_
_atom_site_type_symbol
_atom_site_label
_atom_site_fract_x
_atom_site_fract_y
_atom_site_fract_z
Si Si1 0.500000 0.000000 0.500000
Si Si2 0.775041 0.496257 0.887660
Si Si3 0.796530 0.000000 0.500000
Si Si4 0.422303 0.637190 0.360156
Si Si5 0.071479 0.344977 0.847252
Si Si6 0.000000 0.000000 0.000000
O O1 0.554310 0.150667 0.431917
O O2 0.750000 0.750000 0.845442
O O3 0.862749 0.494213 0.884948
O O4 0.750000 0.250000 0.840965
O O5 0.747682 0.500000 0.000000
O O6 0.750000 0.250000 0.498970
O O7 0.853350 0.004183 0.408464
O O8 0.500000 0.500000 0.354187
O O9 0.404689 0.720883 0.252148
O O10 0.000000 0.500000 0.825393
O O11 0.049816 0.159444 0.929995
#
# Coordination Sequence:
#
# PCOD9325008 Si02
#       6
#     2   8   4   8   8   2
#     4  12  20  48  80 106 144 194 254 322 370 476
#     4  10  24  45  72  97 144 205 248 300 376 449
#     4  12  28  50  83 117 160 200 254 334 406 466
#     4  12  25  47  80 112 148 206 261 313 393 483
#     4  12  27  45  75 114 149 202 265 328 387 458
#     4  12  26  44  76 116 160 196 264 348 382 430
#
# _framework density 22.738914000000001
#
# number of rings (size 3 to 8) (size 9 to 14) (size 15 to 20)
#    0.000    0.500    5.000    2.625    8.750    1.000 
#    0.000    5.000    0.000    0.000    0.000    0.000 
#    0.000    0.000    0.000    0.000    0.000    0.000 
#
# Total GULP energy -89498.402091 kJ/mol
# GULP energy per Si atom -5593.650131 kJ/mol
# Density = 2.268716 g / cm^3
# Si number density = 22.738914 Si / 1000 Ang^3
#
#
#
# Elastic Constant Matrix: (Units=GPa)
#
#
# Indices 1 2 3 4 5 6 
#
# 1 125.0253 55.0935 18.3077 0.0000 0.0000 0.0000
# 2 55.0935 136.6895 32.6489 0.0000 0.0000 0.0000
# 3 18.3077 32.6489 129.4993 0.0000 0.0000 0.0000
# 4 0.0000 0.0000 0.0000 33.5024 0.0000 0.0000
# 5 0.0000 0.0000 0.0000 0.0000 27.8702 0.0000
# 6 0.0000 0.0000 0.0000 0.0000 0.0000 57.6614
#
#
#
# Elastic Compliance Matrix: (Units=1/GPa)
#
#
# Indices 1 2 3 4 5 6 
#
# 1 0.009746 -0.003830 -0.000412 0.000000 0.000000 0.000000
# 2 -0.003830 0.009290 -0.001801 0.000000 0.000000 0.000000
# 3 -0.000412 -0.001801 0.008234 0.000000 0.000000 0.000000
# 4 0.000000 0.000000 0.000000 0.029849 0.000000 0.000000
# 5 0.000000 0.000000 0.000000 0.000000 0.035881 0.000000
# 6 0.000000 0.000000 0.000000 0.000000 0.000000 0.017343
#
#
# Mechanical properties :
#
#
# Convention : Reuss Voigt Hill
#
# Bulk Modulus (GPa) = 65.85566 67.03492 66.44529
# Shear Modulus (GPa) = 39.21898 42.81774 41.01836
#
# Velocity S-wave (km/s) = 4.15752 4.34408 4.25182
# Velocity P-wave (km/s) = 7.21603 7.39633 7.30674
#
# Compressibility (1/GPa) = 0.01518472
#
# Stress axis : x y z
#
# Youngs Moduli (GPa) = 102.60179 107.64735 121.44319
#
# Poissons Ratio (x) = 0.41228 0.05007
# Poissons Ratio (y) = 0.39295 0.21867
# Poissons Ratio (z) = 0.04230 0.19383
#
# Static dielectric constant tensor:
#      x y z
#    x 1.836060 0.000000 0.000000 
#    y 0.000000 1.915230 0.000000 
#    z 0.000000 0.000000 1.804600 
# 
# From -- ./inp_files/28764.got.cif
#   From: 2010.05.17/outbox.cif.g08.bks.cpg/sg21_15_cif.got.tgz:28764.got - 2010.06.03 23:14:55.
