data_PCOD9325281
_publ_section_title
;
Structure prediction by ZEFSAII (Michael W. Deem and Ramdas Pophale) SiO2 
 PCOD9325281
Probable space group: C 2 2 2
;
_chemical_formula_sum "Si O2"
_cell_formula_units_Z 24
_cell_length_a 9.055033
_cell_length_b 12.920023
_cell_length_c 10.293410
_cell_angle_alpha 90.000000
_cell_angle_beta 90.000000
_cell_angle_gamma 90.000000
_cell_volume 1204.238744
_symmetry_space_group_name_H-M "C 2 2 2"
_symmetry_group_IT_number 21
_symmetry_cell_setting 'orthorhombic'
loop_
_space_group_symop_operation_xyz
x,y,z
-x,-y,z
x,-y,-z
-x,y,-z
1/2+x,1/2+y,z
1/2-x,1/2-y,z
1/2+x,1/2-y,-z
1/2-x,1/2+y,-z
loop_
_atom_site_type_symbol
_atom_site_label
_atom_site_fract_x
_atom_site_fract_y
_atom_site_fract_z
Si Si1 0.757688 0.500000 0.500000
Si Si2 0.095776 0.808547 0.615123
Si Si3 0.418055 0.788627 0.863803
Si Si4 0.500000 0.000000 0.287134
O O1 0.649463 0.419114 0.568106
O O2 0.867685 0.464005 0.383977
O O3 0.250000 0.750000 0.625366
O O4 0.021183 0.791603 0.754220
O O5 0.000000 0.761398 0.500000
O O6 0.250000 0.750000 0.887558
O O7 0.440456 0.902906 0.798399
O O8 0.500000 0.786592 0.000000
#
# Coordination Sequence:
#
# PCOD9325281 Si02
#       4
#     4   8   8   4
#     4  11  21  38  74 104 136 170 244 306 348 418
#     4  11  22  41  65 103 135 178 237 295 356 413
#     4  11  24  43  67 102 145 187 241 283 358 434
#     4  11  21  42  72 106 134 188 236 300 364 418
#
# _framework density 19.929603
#
# number of rings (size 3 to 8) (size 9 to 14) (size 15 to 20)
#    0.000    1.000    6.667    3.000    0.000    4.000 
#    0.000    0.000    0.000    0.000    0.000    0.000 
#    0.000    0.000    0.000    0.000    0.000    0.000 
#
# Total GULP energy -66843.465665 kJ/mol
# GULP energy per Si atom -5570.288805 kJ/mol
# Density = 1.988424 g / cm^3
# Si number density = 19.929603 Si / 1000 Ang^3
#
#
#
# Elastic Constant Matrix: (Units=GPa)
#
#
# Indices 1 2 3 4 5 6 
#
# 1 80.3974 32.6632 68.4711 0.0000 0.0000 0.0000
# 2 32.6632 131.5358 65.1870 0.0000 0.0000 0.0000
# 3 68.4711 65.1870 211.4851 0.0000 0.0000 0.0000
# 4 0.0000 0.0000 0.0000 9.8117 0.0000 0.0000
# 5 0.0000 0.0000 0.0000 0.0000 111.2017 0.0000
# 6 0.0000 0.0000 0.0000 0.0000 0.0000 33.0328
#
#
#
# Elastic Compliance Matrix: (Units=1/GPa)
#
#
# Indices 1 2 3 4 5 6 
#
# 1 0.017535 -0.001819 -0.005117 0.000000 0.000000 0.000000
# 2 -0.001819 0.009162 -0.002235 0.000000 0.000000 0.000000
# 3 -0.005117 -0.002235 0.007074 0.000000 0.000000 0.000000
# 4 0.000000 0.000000 0.000000 0.101919 0.000000 0.000000
# 5 0.000000 0.000000 0.000000 0.000000 0.008993 0.000000
# 6 0.000000 0.000000 0.000000 0.000000 0.000000 0.030273
#
#
# Mechanical properties :
#
#
# Convention : Reuss Voigt Hill
#
# Bulk Modulus (GPa) = 64.80963 84.00678 74.40821
# Shear Modulus (GPa) = 25.19664 47.94903 36.57284
#
# Velocity S-wave (km/s) = 3.55953 4.91034 4.28846
# Velocity P-wave (km/s) = 7.03446 8.62507 7.87005
#
# Compressibility (1/GPa) = 0.01542981
#
# Stress axis : x y z
#
# Youngs Moduli (GPa) = 57.03023 109.14874 141.36334
#
# Poissons Ratio (x) = 0.19849 0.72329
# Poissons Ratio (y) = 0.10371 0.31598
# Poissons Ratio (z) = 0.29180 0.24397
#
# Static dielectric constant tensor:
#      x y z
#    x 1.753670 0.000000 0.000000 
#    y 0.000000 1.396840 0.000000 
#    z 0.000000 0.000000 1.777150 
# 
# From -- ./inp_files/11874.got.cif
#   From: 2010.05.17/outbox.cif.g08.bks.cpg/sg21_6_cif.got.tgz:11874.got - 2010.06.03 23:14:55.
