data_PCOD9325475
_publ_section_title
;
Structure prediction by ZEFSAII (Michael W. Deem and Ramdas Pophale) SiO2 
 PCOD9325475
Probable space group: C 2 2 2
;
_chemical_formula_sum "Si O2"
_cell_formula_units_Z 56
_cell_length_a 21.744157
_cell_length_b 15.134399
_cell_length_c 7.621278
_cell_angle_alpha 90.000000
_cell_angle_beta 90.000000
_cell_angle_gamma 90.000000
_cell_volume 2508.046350
_symmetry_space_group_name_H-M "C 2 2 2"
_symmetry_group_IT_number 21
_symmetry_cell_setting 'orthorhombic'
loop_
_space_group_symop_operation_xyz
x,y,z
-x,-y,z
x,-y,-z
-x,y,-z
1/2+x,1/2+y,z
1/2-x,1/2-y,z
1/2+x,1/2-y,-z
1/2-x,1/2+y,-z
loop_
_atom_site_type_symbol
_atom_site_label
_atom_site_fract_x
_atom_site_fract_y
_atom_site_fract_z
Si Si1 0.347517 0.382985 0.658259
Si Si2 0.047682 0.750131 0.254618
Si Si3 0.300950 0.151843 0.140600
Si Si4 0.250000 0.250000 0.812506
Si Si5 0.169402 0.078918 0.250956
Si Si6 0.088669 0.227693 0.144134
Si Si7 0.063532 0.445052 0.658052
Si Si8 0.874221 0.500000 0.000000
O O1 0.412433 0.334224 0.686563
O O2 0.294987 0.311713 0.703773
O O3 0.344359 0.406076 0.454734
O O4 0.332959 0.472542 0.769134
O O5 0.059163 0.660529 0.366674
O O6 0.974530 0.767012 0.251033
O O7 0.070186 0.740224 0.050958
O O8 0.233990 0.130112 0.216938
O O9 0.354492 0.213927 0.219964
O O10 0.332131 0.058951 0.120500
O O11 0.289450 0.190872 0.946598
O O12 0.117443 0.129752 0.139874
O O13 0.096879 0.500000 0.500000
O O14 0.000000 0.500000 0.669573
O O15 0.087220 0.449523 0.856235
#
# Coordination Sequence:
#
# PCOD9325475 Si02
#       8
#     8   8   8   4   8   8   8   4
#     4  11  26  46  71 106 149 189 242 313 382 444
#     4  11  24  47  71 105 146 193 248 307 378 448
#     4  12  22  43  68 105 135 187 245 300 373 445
#     4  12  22  42  68  98 134 182 228 304 362 438
#     4  11  26  46  71 106 144 194 248 311 371 460
#     4  11  23  43  75 103 141 196 250 302 376 454
#     4  11  25  44  66 107 149 193 244 301 376 454
#     4  12  23  40  70  96 140 187 240 304 360 442
#
# _framework density 22.328137000000002
#
# number of rings (size 3 to 8) (size 9 to 14) (size 15 to 20)
#    0.000    0.714    4.286    1.929    4.000    6.286 
#    5.143    2.857    3.143    0.000    0.000    0.000 
#    0.000    0.000    0.000    0.000    0.000    0.000 
#
# Total GULP energy -156258.032068 kJ/mol
# GULP energy per Si atom -5580.644002 kJ/mol
# Density = 2.227732 g / cm^3
# Si number density = 22.328137 Si / 1000 Ang^3
#
#
#
# Elastic Constant Matrix: (Units=GPa)
#
#
# Indices 1 2 3 4 5 6 
#
# 1 134.6085 73.0606 41.0889 0.0000 0.0000 0.0000
# 2 73.0606 149.2486 30.4358 0.0000 0.0000 0.0000
# 3 41.0889 30.4358 60.5696 0.0000 0.0000 0.0000
# 4 0.0000 0.0000 0.0000 54.7249 0.0000 0.0000
# 5 0.0000 0.0000 0.0000 0.0000 180.8604 0.0000
# 6 0.0000 0.0000 0.0000 0.0000 0.0000 12.5227
#
#
#
# Elastic Compliance Matrix: (Units=1/GPa)
#
#
# Indices 1 2 3 4 5 6 
#
# 1 0.011597 -0.004538 -0.005587 0.000000 0.000000 0.000000
# 2 -0.004538 0.009241 -0.001565 0.000000 0.000000 0.000000
# 3 -0.005587 -0.001565 0.021087 0.000000 0.000000 0.000000
# 4 0.000000 0.000000 0.000000 0.018273 0.000000 0.000000
# 5 0.000000 0.000000 0.000000 0.000000 0.005529 0.000000
# 6 0.000000 0.000000 0.000000 0.000000 0.000000 0.079855
#
#
# Mechanical properties :
#
#
# Convention : Reuss Voigt Hill
#
# Bulk Modulus (GPa) = 53.92402 70.39971 62.16186
# Shear Modulus (GPa) = 28.54804 62.94438 45.74621
#
# Velocity S-wave (km/s) = 3.57959 5.31524 4.53129
# Velocity P-wave (km/s) = 6.42555 8.32269 7.43488
#
# Compressibility (1/GPa) = 0.01854461
#
# Stress axis : x y z
#
# Youngs Moduli (GPa) = 86.22641 108.21628 47.42357
#
# Poissons Ratio (x) = 0.49107 0.26496
# Poissons Ratio (y) = 0.39128 0.07422
# Poissons Ratio (z) = 0.48176 0.16937
#
# Static dielectric constant tensor:
#      x y z
#    x 1.781240 0.000000 0.000000 
#    y 0.000000 1.594510 0.000000 
#    z 0.000000 0.000000 1.861310 
# 
# From -- ./inp_files/17751.got.cif
#   From: 2010.05.17/outbox.cif.g08.bks.cpg/sg21_9_cif.got.tgz:17751.got - 2010.06.03 23:14:55.
