data_PCOD9325270
_publ_section_title
;
Structure prediction by ZEFSAII (Michael W. Deem and Ramdas Pophale) SiO2 
 PCOD9325270
Probable space group: C 2 2 2
;
_chemical_formula_sum "Si O2"
_cell_formula_units_Z 40
_cell_length_a 14.669343
_cell_length_b 13.953089
_cell_length_c 8.129998
_cell_angle_alpha 90.000000
_cell_angle_beta 90.000000
_cell_angle_gamma 90.000000
_cell_volume 1664.069523
_symmetry_space_group_name_H-M "C 2 2 2"
_symmetry_group_IT_number 21
_symmetry_cell_setting 'orthorhombic'
loop_
_space_group_symop_operation_xyz
x,y,z
-x,-y,z
x,-y,-z
-x,y,-z
1/2+x,1/2+y,z
1/2-x,1/2-y,z
1/2+x,1/2-y,-z
1/2-x,1/2+y,-z
loop_
_atom_site_type_symbol
_atom_site_label
_atom_site_fract_x
_atom_site_fract_y
_atom_site_fract_z
Si Si1 0.304890 0.851683 0.373181
Si Si2 0.701280 0.596573 0.939803
Si Si3 0.245736 0.364599 0.280141
Si Si4 0.059507 0.262506 0.862785
Si Si5 0.956094 0.099077 0.678878
O O1 0.250000 0.750000 0.385893
O O2 0.313676 0.889179 0.558913
O O3 0.397311 0.827348 0.278213
O O4 0.245850 0.911803 0.240452
O O5 0.773027 0.606264 0.090961
O O6 0.650592 0.500000 0.000000
O O7 0.640168 0.692351 0.931243
O O8 0.250000 0.250000 0.271810
O O9 0.347565 0.400358 0.326676
O O10 0.989698 0.186686 0.786151
O O11 0.000000 0.314976 0.000000
O O12 0.000000 0.113381 0.500000
O O13 0.000000 0.000000 0.738201
#
# Coordination Sequence:
#
# PCOD9325270 Si02
#       5
#     8   8   8   8   8
#     4   9  21  39  56  81 123 166 218 253 299 395
#     4  11  22  36  59  88 123 164 208 253 322 393
#     4  11  21  38  60  82 126 179 213 243 312 398
#     4  11  21  37  58  89 128 161 209 270 321 374
#     4  11  22  34  55  93 133 163 203 265 329 381
#
# _framework density 24.037458000000001
#
# number of rings (size 3 to 8) (size 9 to 14) (size 15 to 20)
#    0.000    1.400    2.000    6.600    0.000    2.400 
#    0.000    0.000    0.000    0.600    0.000    0.000 
#   18.000    0.000    0.000    0.000    0.000    0.000 
#
# Total GULP energy -111738.938789 kJ/mol
# GULP energy per Si atom -5586.946939 kJ/mol
# Density = 2.398275 g / cm^3
# Si number density = 24.037458 Si / 1000 Ang^3
#
#
#
# Elastic Constant Matrix: (Units=GPa)
#
#
# Indices 1 2 3 4 5 6 
#
# 1 60.6658 8.2261 24.8683 0.0000 0.0000 0.0000
# 2 8.2261 42.8471 9.0268 0.0000 0.0000 0.0000
# 3 24.8683 9.0268 182.8778 0.0000 0.0000 0.0000
# 4 0.0000 0.0000 0.0000 69.8478 0.0000 0.0000
# 5 0.0000 0.0000 0.0000 0.0000 42.0476 0.0000
# 6 0.0000 0.0000 0.0000 0.0000 0.0000 22.8761
#
#
#
# Elastic Compliance Matrix: (Units=1/GPa)
#
#
# Indices 1 2 3 4 5 6 
#
# 1 0.017816 -0.002941 -0.002278 0.000000 0.000000 0.000000
# 2 -0.002941 0.024069 -0.000788 0.000000 0.000000 0.000000
# 3 -0.002278 -0.000788 0.005817 0.000000 0.000000 0.000000
# 4 0.000000 0.000000 0.000000 0.014317 0.000000 0.000000
# 5 0.000000 0.000000 0.000000 0.000000 0.023783 0.000000
# 6 0.000000 0.000000 0.000000 0.000000 0.000000 0.043714
#
#
# Mechanical properties :
#
#
# Convention : Reuss Voigt Hill
#
# Bulk Modulus (GPa) = 28.01944 41.18145 34.60045
# Shear Modulus (GPa) = 32.58929 43.23894 37.91412
#
# Velocity S-wave (km/s) = 3.68607 4.24585 3.97582
# Velocity P-wave (km/s) = 5.45876 6.41916 5.95834
#
# Compressibility (1/GPa) = 0.03568951
#
# Stress axis : x y z
#
# Youngs Moduli (GPa) = 56.12900 41.54653 171.91755
#
# Poissons Ratio (x) = 0.12217 0.39155
# Poissons Ratio (y) = 0.16506 0.13550
# Poissons Ratio (z) = 0.12784 0.03275
#
# Static dielectric constant tensor:
#      x y z
#    x 1.909190 0.000000 0.000000 
#    y 0.000000 1.993360 0.000000 
#    z 0.000000 0.000000 2.011110 
# 
# From -- ./inp_files/14747.got.cif
#   From: 2010.05.17/outbox.cif.g08.bks.cpg/sg21_8_cif.got.tgz:14747.got - 2010.06.03 23:14:55.
