data_PCOD9325127
_publ_section_title
;
Structure prediction by ZEFSAII (Michael W. Deem and Ramdas Pophale) SiO2 
 PCOD9325127
Probable space group: C 2 2 2
;
_chemical_formula_sum "Si O2"
_cell_formula_units_Z 16
_cell_length_a 13.010218
_cell_length_b 9.795006
_cell_length_c 4.766054
_cell_angle_alpha 90.000000
_cell_angle_beta 90.000000
_cell_angle_gamma 90.000000
_cell_volume 607.362870
_symmetry_space_group_name_H-M "C 2 2 2"
_symmetry_group_IT_number 21
_symmetry_cell_setting 'orthorhombic'
loop_
_space_group_symop_operation_xyz
x,y,z
-x,-y,z
x,-y,-z
-x,y,-z
1/2+x,1/2+y,z
1/2-x,1/2-y,z
1/2+x,1/2-y,-z
1/2-x,1/2+y,-z
loop_
_atom_site_type_symbol
_atom_site_label
_atom_site_fract_x
_atom_site_fract_y
_atom_site_fract_z
Si Si1 0.500000 0.810322 0.500000
Si Si2 0.169704 0.859137 0.382394
Si Si3 0.500000 0.000000 0.000000
Si Si4 0.000000 0.000000 0.000000
O O1 0.399838 0.726367 0.603370
O O2 0.543885 0.896587 0.763789
O O3 0.250000 0.750000 0.267445
O O4 0.217730 0.000000 0.500000
O O5 0.078533 0.912159 0.185168
#
# Coordination Sequence:
#
# PCOD9325127 Si02
#       4
#     4   8   2   2
#     4  11  23  52  76 118 174 218 280 360 424 500
#     4  12  28  50  82 118 169 226 285 348 439 508
#     4  10  26  40  82 114 158 220 274 344 426 502
#     4  12  24  58  80 118 170 230 276 378 406 516
#
# _framework density 26.343397
#
# number of rings (size 3 to 8) (size 9 to 14) (size 15 to 20)
#    0.000    0.500    5.000    1.500    7.000    4.000 
#    0.000    0.000    0.000    0.000    0.000    0.000 
#    0.000    0.000    0.000    0.000    0.000    0.000 
#
# Total GULP energy -44554.582450 kJ/mol
# GULP energy per Si atom -5569.322806 kJ/mol
# Density = 2.628344 g / cm^3
# Si number density = 26.343397 Si / 1000 Ang^3
#
#
#
# Elastic Constant Matrix: (Units=GPa)
#
#
# Indices 1 2 3 4 5 6 
#
# 1 146.5620 89.4438 36.1669 0.0000 0.0000 0.0000
# 2 89.4438 194.5646 46.0432 0.0000 0.0000 0.0000
# 3 36.1669 46.0432 118.0415 0.0000 0.0000 0.0000
# 4 0.0000 0.0000 0.0000 41.8667 0.0000 0.0000
# 5 0.0000 0.0000 0.0000 0.0000 14.8284 0.0000
# 6 0.0000 0.0000 0.0000 0.0000 0.0000 29.6657
#
#
#
# Elastic Compliance Matrix: (Units=1/GPa)
#
#
# Indices 1 2 3 4 5 6 
#
# 1 0.009676 -0.004128 -0.001355 0.000000 0.000000 0.000000
# 2 -0.004128 0.007423 -0.001631 0.000000 0.000000 0.000000
# 3 -0.001355 -0.001631 0.009523 0.000000 0.000000 0.000000
# 4 0.000000 0.000000 0.000000 0.023885 0.000000 0.000000
# 5 0.000000 0.000000 0.000000 0.000000 0.067438 0.000000
# 6 0.000000 0.000000 0.000000 0.000000 0.000000 0.033709
#
#
# Mechanical properties :
#
#
# Convention : Reuss Voigt Hill
#
# Bulk Modulus (GPa) = 80.67191 89.16399 84.91795
# Shear Modulus (GPa) = 29.40948 36.43978 32.92463
#
# Velocity S-wave (km/s) = 3.34487 3.72326 3.53912
# Velocity P-wave (km/s) = 6.75331 7.23905 7.00039
#
# Compressibility (1/GPa) = 0.01239589
#
# Stress axis : x y z
#
# Youngs Moduli (GPa) = 103.34357 134.71280 105.01162
#
# Poissons Ratio (x) = 0.55607 0.14226
# Poissons Ratio (y) = 0.42658 0.17125
# Poissons Ratio (z) = 0.14000 0.21969
#
# Static dielectric constant tensor:
#      x y z
#    x 2.010340 0.000000 0.000000 
#    y 0.000000 2.576420 0.000000 
#    z 0.000000 0.000000 2.115540 
# 
# From -- ./inp_files/1732.got.cif
#   From: 2010.05.17/outbox.cif.g08.bks.cpg/sg21_1_cif.got.tgz:1732.got - 2010.06.03 23:14:55.
