data_PCOD9325329
_publ_section_title
;
Structure prediction by ZEFSAII (Michael W. Deem and Ramdas Pophale) SiO2 
 PCOD9325329
Probable space group: C 2 2 2
;
_chemical_formula_sum "Si O2"
_cell_formula_units_Z 24
_cell_length_a 6.983124
_cell_length_b 28.071413
_cell_length_c 4.992861
_cell_angle_alpha 90.000000
_cell_angle_beta 90.000000
_cell_angle_gamma 90.000000
_cell_volume 978.731358
_symmetry_space_group_name_H-M "C 2 2 2"
_symmetry_group_IT_number 21
_symmetry_cell_setting 'orthorhombic'
loop_
_space_group_symop_operation_xyz
x,y,z
-x,-y,z
x,-y,-z
-x,y,-z
1/2+x,1/2+y,z
1/2-x,1/2-y,z
1/2+x,1/2-y,-z
1/2-x,1/2+y,-z
loop_
_atom_site_type_symbol
_atom_site_label
_atom_site_fract_x
_atom_site_fract_y
_atom_site_fract_z
Si Si1 0.866119 0.295765 0.251274
Si Si2 0.267674 0.113100 0.013563
Si Si3 0.767942 0.554637 0.521589
O O1 0.750000 0.250000 0.348208
O O2 0.726518 0.336026 0.123542
O O3 0.000000 0.313282 0.500000
O O4 0.000000 0.281449 0.000000
O O5 0.207704 0.072441 0.810331
O O6 0.500000 0.114317 0.000000
O O7 0.209146 0.094614 0.304053
O O8 0.707963 0.500000 0.500000
O O9 0.000000 0.554015 0.500000
#
# Coordination Sequence:
#
# PCOD9325329 Si02
#       3
#     8   8   8
#     4  11  22  37  56  79 110 149 190 232 279 330
#     4   9  16  27  42  64  96 133 167 208 263 316
#     4   9  15  23  38  62  94 131 164 200 256 325
#
# _framework density 24.521539000000001
#
# number of rings (size 3 to 8) (size 9 to 14) (size 15 to 20)
#    0.000    2.333    0.000    7.000    0.000    4.000 
#    0.000    0.000    0.000    0.000    0.000    0.000 
#    0.000   20.000    0.000   11.333    0.000    3.333 
#
# Total GULP energy -66986.789249 kJ/mol
# GULP energy per Si atom -5582.232437 kJ/mol
# Density = 2.446573 g / cm^3
# Si number density = 24.521539 Si / 1000 Ang^3
#
#
#
# Elastic Constant Matrix: (Units=GPa)
#
#
# Indices 1 2 3 4 5 6 
#
# 1 87.7338 -7.5679 -11.8757 0.0000 0.0000 0.0000
# 2 -7.5679 155.5537 14.6167 0.0000 0.0000 0.0000
# 3 -11.8757 14.6167 123.9728 0.0000 0.0000 0.0000
# 4 0.0000 0.0000 0.0000 38.5975 0.0000 0.0000
# 5 0.0000 0.0000 0.0000 0.0000 -3.5372 0.0000
# 6 0.0000 0.0000 0.0000 0.0000 0.0000 -30.4690
#
#
#
# Elastic Compliance Matrix: (Units=1/GPa)
#
#
# Indices 1 2 3 4 5 6 
#
# 1 0.011581 0.000464 0.001055 0.000000 0.000000 0.000000
# 2 0.000464 0.006519 -0.000724 0.000000 0.000000 0.000000
# 3 0.001055 -0.000724 0.008253 0.000000 0.000000 0.000000
# 4 0.000000 0.000000 0.000000 0.025908 0.000000 0.000000
# 5 0.000000 0.000000 0.000000 0.000000 -0.282712 0.000000
# 6 0.000000 0.000000 0.000000 0.000000 0.000000 -0.032820
#
#
# Mechanical properties :
#
#
# Convention : Reuss Voigt Hill
#
# Bulk Modulus (GPa) = 35.78781 39.73407 37.76094
# Shear Modulus (GPa) = -19.56591 25.72407 3.07908
#
# Velocity S-wave (km/s) = -2.82779 3.24240 1.12178
# Velocity P-wave (km/s) = 1.99105 5.50059 4.13647
#
# Compressibility (1/GPa) = 0.02794248
#
# Stress axis : x y z
#
# Youngs Moduli (GPa) = 86.34887 153.39112 121.17264
#
# Poissons Ratio (x) = -0.07122 -0.12779
# Poissons Ratio (y) = -0.04009 0.08775
# Poissons Ratio (z) = -0.09107 0.11108
#
# Static dielectric constant tensor:
#      x y z
#    x 2.049950 0.000000 0.000000 
#    y 0.000000 1.958500 0.000000 
#    z 0.000000 0.000000 1.880110 
# 
# From -- ./inp_files/1106.got.cif
#   From: 2010.05.17/outbox.cif.g08.bks.cpg/sg21_1_cif.got.tgz:1106.got - 2010.06.03 23:14:55.
