data_PCOD9325164
_publ_section_title
;
Structure prediction by ZEFSAII (Michael W. Deem and Ramdas Pophale) SiO2 
 PCOD9325164
Probable space group: C 2 2 2
;
_chemical_formula_sum "Si O2"
_cell_formula_units_Z 26
_cell_length_a 13.984250
_cell_length_b 5.206761
_cell_length_c 15.672800
_cell_angle_alpha 90.000000
_cell_angle_beta 90.000000
_cell_angle_gamma 90.000000
_cell_volume 1141.178062
_symmetry_space_group_name_H-M "C 2 2 2"
_symmetry_group_IT_number 21
_symmetry_cell_setting 'orthorhombic'
loop_
_space_group_symop_operation_xyz
x,y,z
-x,-y,z
x,-y,-z
-x,y,-z
1/2+x,1/2+y,z
1/2-x,1/2-y,z
1/2+x,1/2-y,-z
1/2-x,1/2+y,-z
loop_
_atom_site_type_symbol
_atom_site_label
_atom_site_fract_x
_atom_site_fract_y
_atom_site_fract_z
Si Si1 0.000000 0.000000 0.323846
Si Si2 0.500000 0.000000 0.118613
Si Si3 0.500000 0.500000 0.000000
Si Si4 0.651502 0.134880 0.760264
Si Si5 0.851676 0.356623 0.417639
O O1 0.068348 0.835433 0.384261
O O2 0.928916 0.840077 0.264716
O O3 0.404980 0.948457 0.175458
O O4 0.472072 0.266099 0.068276
O O5 0.750000 0.250000 0.795217
O O6 0.673772 0.012020 0.668361
O O7 0.890182 0.500000 0.500000
O O8 0.750000 0.250000 0.447170
#
# Coordination Sequence:
#
# PCOD9325164 Si02
#       5
#     4   4   2   8   8
#     4  12  25  47  69  97 148 200 260 316 380 435
#     4  11  24  50  81 118 158 198 247 320 392 475
#     4  10  26  50  82 118 158 196 244 312 404 484
#     4  12  25  45  77 110 145 199 254 312 380 453
#     4  12  27  46  67 104 152 204 261 322 376 438
#
# _framework density 22.783473999999998
#
# number of rings (size 3 to 8) (size 9 to 14) (size 15 to 20)
#    0.000    0.308    6.154    1.846    0.000    3.692 
#    0.000    3.077    0.000    0.000    0.000    0.000 
#    0.000    0.000    0.000    0.000    0.000    0.000 
#
# Total GULP energy -72436.311073 kJ/mol
# GULP energy per Si atom -5572.023929 kJ/mol
# Density = 2.273162 g / cm^3
# Si number density = 22.783474 Si / 1000 Ang^3
#
#
#
# Elastic Constant Matrix: (Units=GPa)
#
#
# Indices 1 2 3 4 5 6 
#
# 1 161.7370 29.4300 7.4838 0.0000 0.0000 0.0000
# 2 29.4300 80.6421 5.9563 0.0000 0.0000 0.0000
# 3 7.4838 5.9563 81.3574 0.0000 0.0000 0.0000
# 4 0.0000 0.0000 0.0000 46.8767 0.0000 0.0000
# 5 0.0000 0.0000 0.0000 0.0000 -9.5140 0.0000
# 6 0.0000 0.0000 0.0000 0.0000 0.0000 40.2293
#
#
#
# Elastic Compliance Matrix: (Units=1/GPa)
#
#
# Indices 1 2 3 4 5 6 
#
# 1 0.006638 -0.002390 -0.000436 0.000000 0.000000 0.000000
# 2 -0.002390 0.013329 -0.000756 0.000000 0.000000 0.000000
# 3 -0.000436 -0.000756 0.012387 0.000000 0.000000 0.000000
# 4 0.000000 0.000000 0.000000 0.021333 0.000000 0.000000
# 5 0.000000 0.000000 0.000000 0.000000 -0.105108 0.000000
# 6 0.000000 0.000000 0.000000 0.000000 0.000000 0.024858
#
#
# Mechanical properties :
#
#
# Convention : Reuss Voigt Hill
#
# Bulk Modulus (GPa) = 39.69869 45.49741 42.59805
# Shear Modulus (GPa) = -454.37711 34.24283 -210.06714
#
# Velocity S-wave (km/s) = -14.13739 3.88102 -9.61258
# Velocity P-wave (km/s) = 15.78054 6.33213 10.22080
#
# Compressibility (1/GPa) = 0.02518975
#
# Stress axis : x y z
#
# Youngs Moduli (GPa) = 150.64823 75.02634 80.73075
#
# Poissons Ratio (x) = 0.17934 0.03517
# Poissons Ratio (y) = 0.36010 0.06103
# Poissons Ratio (z) = 0.06562 0.05671
#
# Static dielectric constant tensor:
#      x y z
#    x 1.771820 0.000000 0.000000 
#    y 0.000000 1.974110 0.000000 
#    z 0.000000 0.000000 1.915530 
# 
# From -- ./inp_files/36324.got.cif
#   From: 2010.05.17/outbox.cif.g08.bks.cpg/sg21_19_cif.got.tgz:36324.got - 2010.06.03 23:14:55.
