data_PCOD9325729
_publ_section_title
;
Structure prediction by ZEFSAII (Michael W. Deem and Ramdas Pophale) SiO2 
 PCOD9325729
Probable space group: C 2 2 2
;
_chemical_formula_sum "Si O2"
_cell_formula_units_Z 32
_cell_length_a 8.331054
_cell_length_b 12.769511
_cell_length_c 13.209071
_cell_angle_alpha 90.000000
_cell_angle_beta 90.000000
_cell_angle_gamma 90.000000
_cell_volume 1405.227016
_symmetry_space_group_name_H-M "C 2 2 2"
_symmetry_group_IT_number 21
_symmetry_cell_setting 'orthorhombic'
loop_
_space_group_symop_operation_xyz
x,y,z
-x,-y,z
x,-y,-z
-x,y,-z
1/2+x,1/2+y,z
1/2-x,1/2-y,z
1/2+x,1/2-y,-z
1/2-x,1/2+y,-z
loop_
_atom_site_type_symbol
_atom_site_label
_atom_site_fract_x
_atom_site_fract_y
_atom_site_fract_z
Si Si1 0.099584 0.309638 0.086996
Si Si2 0.107485 0.173643 0.769103
Si Si3 0.314497 0.028993 0.261961
Si Si4 0.366993 0.346369 0.416140
O O1 0.250000 0.250000 0.040780
O O2 0.170361 0.380404 0.177250
O O3 0.978809 0.223920 0.134304
O O4 0.000000 0.368499 0.000000
O O5 0.250000 0.250000 0.737283
O O6 0.973241 0.178223 0.682820
O O7 0.193910 0.061151 0.778036
O O8 0.245812 0.063144 0.371066
O O9 0.500000 0.000000 0.275659
O O10 0.500000 0.371499 0.500000
O O11 0.250000 0.250000 0.445121
#
# Coordination Sequence:
#
# PCOD9325729 Si02
#       4
#     8   8   8   8
#     4  12  26  49  75 113 155 205 262 319 389 456
#     4  12  23  47  74 107 157 200 249 327 378 452
#     4  12  25  47  78 107 158 204 254 320 387 458
#     4  12  25  48  78 115 150 197 252 315 389 466
#
# _framework density 22.772122
#
# number of rings (size 3 to 8) (size 9 to 14) (size 15 to 20)
#    0.000    0.000    7.500    2.250    0.000    2.500 
#    0.000    2.500    0.000    0.000    0.000    0.000 
#    0.000    0.000    0.000    0.000    0.000    0.000 
#
# Total GULP energy -89440.649952 kJ/mol
# GULP energy per Si atom -5590.040622 kJ/mol
# Density = 2.272029 g / cm^3
# Si number density = 22.772122 Si / 1000 Ang^3
#
#
#
# Elastic Constant Matrix: (Units=GPa)
#
#
# Indices 1 2 3 4 5 6 
#
# 1 135.7717 44.9487 49.0923 0.0000 0.0000 0.0000
# 2 44.9487 109.9341 31.1945 0.0000 0.0000 0.0000
# 3 49.0923 31.1945 110.8682 0.0000 0.0000 0.0000
# 4 0.0000 0.0000 0.0000 -6.3525 0.0000 0.0000
# 5 0.0000 0.0000 0.0000 0.0000 38.7387 0.0000
# 6 0.0000 0.0000 0.0000 0.0000 0.0000 45.4242
#
#
#
# Elastic Compliance Matrix: (Units=1/GPa)
#
#
# Indices 1 2 3 4 5 6 
#
# 1 0.009574 -0.002947 -0.003410 0.000000 0.000000 0.000000
# 2 -0.002947 0.010793 -0.001732 0.000000 0.000000 0.000000
# 3 -0.003410 -0.001732 0.011017 0.000000 0.000000 0.000000
# 4 0.000000 0.000000 0.000000 -0.157417 0.000000 0.000000
# 5 0.000000 0.000000 0.000000 0.000000 0.025814 0.000000
# 6 0.000000 0.000000 0.000000 0.000000 0.000000 0.022015
#
#
# Mechanical properties :
#
#
# Convention : Reuss Voigt Hill
#
# Bulk Modulus (GPa) = 65.76391 67.44946 66.60668
# Shear Modulus (GPa) = -87.78310 30.98463 -28.39923
#
# Velocity S-wave (km/s) = -6.21548 3.69269 -3.53527
# Velocity P-wave (km/s) = 4.75055 6.91844 3.55648
#
# Compressibility (1/GPa) = 0.01520591
#
# Stress axis : x y z
#
# Youngs Moduli (GPa) = 104.45016 92.65571 90.76865
#
# Poissons Ratio (x) = 0.27304 0.30954
# Poissons Ratio (y) = 0.30780 0.15720
# Poissons Ratio (z) = 0.35620 0.16046
#
# Static dielectric constant tensor:
#      x y z
#    x 2.058340 0.000000 0.000000 
#    y 0.000000 1.912840 0.000000 
#    z 0.000000 0.000000 1.820000 
# 
# From -- ./inp_files/29937.got.cif
#   From: 2010.05.17/outbox.cif.g08.bks.cpg/sg21_15_cif.got.tgz:29937.got - 2010.06.03 23:14:55.
