data_PCOD9325286
_publ_section_title
;
Structure prediction by ZEFSAII (Michael W. Deem and Ramdas Pophale) SiO2 
 PCOD9325286
Probable space group: C 2 2 2
;
_chemical_formula_sum "Si O2"
_cell_formula_units_Z 40
_cell_length_a 11.077704
_cell_length_b 9.226797
_cell_length_c 17.762116
_cell_angle_alpha 90.000000
_cell_angle_beta 90.000000
_cell_angle_gamma 90.000000
_cell_volume 1815.496534
_symmetry_space_group_name_H-M "C 2 2 2"
_symmetry_group_IT_number 21
_symmetry_cell_setting 'orthorhombic'
loop_
_space_group_symop_operation_xyz
x,y,z
-x,-y,z
x,-y,-z
-x,y,-z
1/2+x,1/2+y,z
1/2-x,1/2-y,z
1/2+x,1/2-y,-z
1/2-x,1/2+y,-z
loop_
_atom_site_type_symbol
_atom_site_label
_atom_site_fract_x
_atom_site_fract_y
_atom_site_fract_z
Si Si1 0.844417 0.883323 0.065412
Si Si2 0.005565 0.730554 0.819267
Si Si3 0.296601 0.977117 0.202035
Si Si4 0.889984 0.086515 0.683237
Si Si5 0.866124 0.169014 0.522633
O O1 0.750000 0.750000 0.048166
O O2 0.962071 0.804209 0.100848
O O3 0.791122 0.979581 0.133972
O O4 0.860097 0.000000 0.000000
O O5 0.100551 0.600514 0.806115
O O6 0.043356 0.836798 0.752770
O O7 0.871142 0.670306 0.809631
O O8 0.221467 0.000272 0.278974
O O9 0.856310 0.183822 0.612968
O O10 0.000000 0.000000 0.647295
O O11 0.750000 0.250000 0.488124
O O12 0.000000 0.222257 0.500000
O O13 0.855572 0.000000 0.500000
#
# Coordination Sequence:
#
# PCOD9325286 Si02
#       5
#     8   8   8   8   8
#     4   9  18  37  63  87 128 173 219 277 337 397
#     4   9  19  38  64  94 124 165 223 275 331 391
#     4   9  19  38  65  91 124 167 218 278 329 394
#     4  11  21  39  64  94 132 172 217 276 328 388
#     4  11  24  45  68 100 143 183 224 275 335 405
#
# _framework density 22.032539
#
# number of rings (size 3 to 8) (size 9 to 14) (size 15 to 20)
#    0.000    2.200    2.000    3.000    0.000    2.800 
#    7.200    8.000   17.600    0.000    0.000    0.000 
#    0.000    0.000    0.000    0.000    0.000    0.000 
#
# Total GULP energy -111554.639936 kJ/mol
# GULP energy per Si atom -5577.731997 kJ/mol
# Density = 2.198239 g / cm^3
# Si number density = 22.032539 Si / 1000 Ang^3
#
#
#
# Elastic Constant Matrix: (Units=GPa)
#
#
# Indices 1 2 3 4 5 6 
#
# 1 182.8105 62.4373 46.3379 0.0000 0.0000 0.0000
# 2 62.4373 72.7005 32.3021 0.0000 0.0000 0.0000
# 3 46.3379 32.3021 99.0018 0.0000 0.0000 0.0000
# 4 0.0000 0.0000 0.0000 -20.0931 0.0000 0.0000
# 5 0.0000 0.0000 0.0000 0.0000 26.1140 0.0000
# 6 0.0000 0.0000 0.0000 0.0000 0.0000 50.1239
#
#
#
# Elastic Compliance Matrix: (Units=1/GPa)
#
#
# Indices 1 2 3 4 5 6 
#
# 1 0.007993 -0.006085 -0.001756 0.000000 0.000000 0.000000
# 2 -0.006085 0.020719 -0.003912 0.000000 0.000000 0.000000
# 3 -0.001756 -0.003912 0.012199 0.000000 0.000000 0.000000
# 4 0.000000 0.000000 0.000000 -0.049768 0.000000 0.000000
# 5 0.000000 0.000000 0.000000 0.000000 0.038294 0.000000
# 6 0.000000 0.000000 0.000000 0.000000 0.000000 0.019951
#
#
# Mechanical properties :
#
#
# Convention : Reuss Voigt Hill
#
# Bulk Modulus (GPa) = 57.45221 70.74083 64.09652
# Shear Modulus (GPa) = 63.53600 25.45799 44.49700
#
# Velocity S-wave (km/s) = 5.37587 3.40291 4.49888
# Velocity P-wave (km/s) = 8.04151 6.90050 7.49276
#
# Compressibility (1/GPa) = 0.01740577
#
# Stress axis : x y z
#
# Youngs Moduli (GPa) = 125.10225 48.26457 81.97264
#
# Poissons Ratio (x) = 0.29368 0.14395
# Poissons Ratio (y) = 0.76122 0.32069
# Poissons Ratio (z) = 0.21968 0.18882
#
# Static dielectric constant tensor:
#      x y z
#    x 2.084460 0.000000 0.000000 
#    y 0.000000 1.730140 0.000000 
#    z 0.000000 0.000000 1.871570 
# 
# From -- ./inp_files/36040.got.cif
#   From: 2010.05.17/outbox.cif.g08.bks.cpg/sg21_19_cif.got.tgz:36040.got - 2010.06.03 23:14:55.
