data_PCOD9325583
_publ_section_title
;
Structure prediction by ZEFSAII (Michael W. Deem and Ramdas Pophale) SiO2 
 PCOD9325583
Probable space group: C 2 2 2
;
_chemical_formula_sum "Si O2"
_cell_formula_units_Z 64
_cell_length_a 27.888852
_cell_length_b 11.735298
_cell_length_c 9.542561
_cell_angle_alpha 90.000000
_cell_angle_beta 90.000000
_cell_angle_gamma 90.000000
_cell_volume 3123.127430
_symmetry_space_group_name_H-M "C 2 2 2"
_symmetry_group_IT_number 21
_symmetry_cell_setting 'orthorhombic'
loop_
_space_group_symop_operation_xyz
x,y,z
-x,-y,z
x,-y,-z
-x,y,-z
1/2+x,1/2+y,z
1/2-x,1/2-y,z
1/2+x,1/2-y,-z
1/2-x,1/2+y,-z
loop_
_atom_site_type_symbol
_atom_site_label
_atom_site_fract_x
_atom_site_fract_y
_atom_site_fract_z
Si Si1 0.789267 0.495478 0.837442
Si Si2 0.053965 0.314923 0.005580
Si Si3 0.445583 0.005704 0.235802
Si Si4 0.646139 0.091186 0.387584
Si Si5 0.811275 0.969608 0.700443
Si Si6 0.869919 0.877881 0.961005
Si Si7 0.696611 0.245105 0.832654
Si Si8 0.672238 0.316673 0.538882
O O1 0.819746 0.588919 0.751456
O O2 0.738809 0.481001 0.757295
O O3 0.822457 0.383160 0.845131
O O4 0.775688 0.500000 0.000000
O O5 0.062551 0.372278 0.158620
O O6 0.055230 0.415507 0.891753
O O7 0.091244 0.220613 0.957082
O O8 0.000000 0.268128 0.000000
O O9 0.404497 0.963162 0.340149
O O10 0.500000 0.000000 0.294011
O O11 0.642797 0.215909 0.460535
O O12 0.667139 0.000000 0.500000
O O13 0.839645 0.903068 0.821293
O O14 0.797931 0.877088 0.582576
O O15 0.843964 0.068596 0.627054
O O16 0.834348 0.835729 0.083742
O O17 0.891697 0.000000 0.000000
O O18 0.750000 0.250000 0.893280
O O19 0.698320 0.257062 0.666311
#
# Coordination Sequence:
#
# PCOD9325583 Si02
#       8
#     8   8   8   8   8   8   8   8
#     4  12  27  41  61  95 128 170 227 277 329 386
#     4   9  20  39  69 100 130 167 210 277 345 401
#     4   9  20  42  67  97 134 166 210 275 350 406
#     4  12  26  40  64  98 129 173 222 271 335 399
#     4  11  25  43  62  87 129 184 224 267 325 390
#     4  12  23  41  64  93 130 172 225 271 328 387
#     4  12  23  41  62  86 132 174 219 275 320 389
#     4  11  25  41  61  87 130 175 222 262 323 391
#
# _framework density 20.492279
#
# number of rings (size 3 to 8) (size 9 to 14) (size 15 to 20)
#    0.000    1.000    3.750    3.375    8.750    0.500 
#    0.000    0.000    0.000    0.000    0.000    0.000 
#    0.000    0.000    0.000    0.000    0.000    0.000 
#
# Total GULP energy -178233.103213 kJ/mol
# GULP energy per Si atom -5569.784475 kJ/mol
# Density = 2.044564 g / cm^3
# Si number density = 20.492279 Si / 1000 Ang^3
#
#
#
# Elastic Constant Matrix: (Units=GPa)
#
#
# Indices 1 2 3 4 5 6 
#
# 1 97.3151 39.0544 27.1790 0.0000 0.0000 0.0000
# 2 39.0544 105.2075 33.6435 0.0000 0.0000 0.0000
# 3 27.1790 33.6435 106.1856 0.0000 0.0000 0.0000
# 4 0.0000 0.0000 0.0000 32.3734 0.0000 0.0000
# 5 0.0000 0.0000 0.0000 0.0000 12.9048 0.0000
# 6 0.0000 0.0000 0.0000 0.0000 0.0000 21.1937
#
#
#
# Elastic Compliance Matrix: (Units=1/GPa)
#
#
# Indices 1 2 3 4 5 6 
#
# 1 0.012414 -0.003997 -0.001911 0.000000 0.000000 0.000000
# 2 -0.003997 0.011864 -0.002736 0.000000 0.000000 0.000000
# 3 -0.001911 -0.002736 0.010773 0.000000 0.000000 0.000000
# 4 0.000000 0.000000 0.000000 0.030890 0.000000 0.000000
# 5 0.000000 0.000000 0.000000 0.000000 0.077490 0.000000
# 6 0.000000 0.000000 0.000000 0.000000 0.000000 0.047184
#
#
# Mechanical properties :
#
#
# Convention : Reuss Voigt Hill
#
# Bulk Modulus (GPa) = 56.29623 56.49578 56.39600
# Shear Modulus (GPa) = 23.38382 27.21646 25.30014
#
# Velocity S-wave (km/s) = 3.38169 3.64831 3.51753
# Velocity P-wave (km/s) = 6.54059 6.73617 6.63910
#
# Compressibility (1/GPa) = 0.01776318
#
# Stress axis : x y z
#
# Youngs Moduli (GPa) = 80.55613 84.29129 92.82127
#
# Poissons Ratio (x) = 0.33692 0.17738
# Poissons Ratio (y) = 0.32199 0.25394
# Poissons Ratio (z) = 0.15394 0.23060
#
# Static dielectric constant tensor:
#      x y z
#    x 1.716700 0.000000 0.000000 
#    y 0.000000 1.851290 0.000000 
#    z 0.000000 0.000000 1.801500 
# 
# From -- ./inp_files/19824.got.cif
#   From: 2010.05.17/outbox.cif.g08.bks.cpg/sg21_10_cif.got.tgz:19824.got - 2010.06.03 23:14:55.
