data_PCOD9325880
_publ_section_title
;
Structure prediction by ZEFSAII (Michael W. Deem and Ramdas Pophale) SiO2 
 PCOD9325880
Probable space group: F 2 2 2
;
_chemical_formula_sum "Si O2"
_cell_formula_units_Z 48
_cell_length_a 29.579820
_cell_length_b 4.832378
_cell_length_c 13.564590
_cell_angle_alpha 90.000000
_cell_angle_beta 90.000000
_cell_angle_gamma 90.000000
_cell_volume 1938.934315
_symmetry_space_group_name_H-M "F 2 2 2"
_symmetry_group_IT_number 22
_symmetry_cell_setting 'orthorhombic'
loop_
_space_group_symop_operation_xyz
x,y,z
-x,-y,z
x,-y,-z
-x,y,-z
x,1/2+y,1/2+z
-x,1/2-y,1/2+z
x,1/2-y,1/2-z
-x,1/2+y,1/2-z
1/2+x,y,1/2+z
1/2-x,-y,1/2+z
1/2+x,-y,1/2-z
1/2-x,y,1/2-z
1/2+x,1/2+y,z
1/2-x,1/2-y,z
1/2+x,1/2-y,-z
1/2-x,1/2+y,-z
loop_
_atom_site_type_symbol
_atom_site_label
_atom_site_fract_x
_atom_site_fract_y
_atom_site_fract_z
Si Si1 0.162281 0.979780 0.619000
Si Si2 0.250000 0.750000 0.425365
Si Si3 0.969548 0.250000 0.750000
Si Si4 0.105712 0.479644 0.617930
O O1 0.210658 0.112556 0.640167
O O2 0.119952 0.171656 0.647276
O O3 0.162957 0.000000 0.500000
O O4 0.149230 0.669572 0.645230
O O5 0.234126 0.500000 0.500000
O O6 0.937793 0.395694 0.669553
O O7 0.000000 0.500000 0.791889
O O8 0.100106 0.500000 0.500000
#
# Coordination Sequence:
#
# PCOD9325880 Si02
#       4
#    16   8   8  16
#     4   9  17  31  55  86 120 160 200 244 296 355
#     4  10  16  26  50  87 124 157 204 250 286 351
#     4  12  26  44  66  91 120 159 208 268 332 386
#     4  10  21  39  61  86 119 159 202 249 310 375
#
# _framework density 24.755868
#
# number of rings (size 3 to 8) (size 9 to 14) (size 15 to 20)
#    0.000    2.000    0.000    7.000    0.000    0.667 
#    0.000    1.667    0.000    6.000    0.000    0.000 
#    0.000    0.000    0.000    0.000    0.000    0.000 
#
# Total GULP energy -67127.047837 kJ/mol
# GULP energy per Si atom -5593.920653 kJ/mol
# Density = 2.469952 g / cm^3
# Si number density = 24.755868 Si / 1000 Ang^3
#
#
#
# Elastic Constant Matrix: (Units=GPa)
#
#
# Indices 1 2 3 4 5 6 
#
# 1 134.9229 36.4018 11.2741 0.0005 -0.0007 -0.0009
# 2 36.4018 125.9640 -22.0621 0.0026 -0.0008 -0.0014
# 3 11.2741 -22.0621 83.5813 0.0008 -0.0002 -0.0003
# 4 0.0005 0.0026 0.0008 27.0472 -0.0006 -0.0008
# 5 -0.0007 -0.0008 -0.0002 -0.0006 18.2747 0.0010
# 6 -0.0009 -0.0014 -0.0003 -0.0008 0.0010 49.6192
#
#
#
# Elastic Compliance Matrix: (Units=1/GPa)
#
#
# Indices 1 2 3 4 5 6 
#
# 1 0.008299 -0.002720 -0.001837 0.000000 0.000000 0.000000
# 2 -0.002720 0.009215 0.002799 -0.000001 0.000000 0.000000
# 3 -0.001837 0.002799 0.012951 -0.000001 0.000000 0.000000
# 4 0.000000 -0.000001 -0.000001 0.036972 0.000001 0.000001
# 5 0.000000 0.000000 0.000000 0.000001 0.054721 -0.000001
# 6 0.000000 0.000000 0.000000 0.000001 -0.000001 0.020153
#
#
# Mechanical properties :
#
#
# Convention : Reuss Voigt Hill
#
# Bulk Modulus (GPa) = 37.10725 43.96618 40.53672
# Shear Modulus (GPa) = 32.29740 40.24518 36.27129
#
# Velocity S-wave (km/s) = 3.61589 4.03635 3.83189
# Velocity P-wave (km/s) = 5.69690 6.28660 5.99900
#
# Compressibility (1/GPa) = 0.02694891
#
# Stress axis : x y z
#
# Youngs Moduli (GPa) = 120.49556 108.51701 77.21310
#
# Poissons Ratio (x) = 0.29518 0.14188
# Poissons Ratio (y) = 0.32776 -0.21615
# Poissons Ratio (z) = 0.22140 -0.30378
#
# Static dielectric constant tensor:
#      x y z
#    x 2.008190 0.000000 0.000000 
#    y 0.000000 1.946240 0.000000 
#    z 0.000000 0.000000 1.990200 
# 
# From -- ./inp_files/5111.got.cif
#   From: 2010.05.17/outbox.cif.g08.bks.cpg/sg22_3_cif.got.tgz:5111.got - 2010.06.03 23:40:54.
