data_PCOD9325250
_publ_section_title
;
Structure prediction by ZEFSAII (Michael W. Deem and Ramdas Pophale) SiO2 
 PCOD9325250
Probable space group: C 2 2 2
;
_chemical_formula_sum "Si O2"
_cell_formula_units_Z 32
_cell_length_a 6.030666
_cell_length_b 18.348130
_cell_length_c 12.382928
_cell_angle_alpha 90.000000
_cell_angle_beta 90.000000
_cell_angle_gamma 90.000000
_cell_volume 1370.188861
_symmetry_space_group_name_H-M "C 2 2 2"
_symmetry_group_IT_number 21
_symmetry_cell_setting 'orthorhombic'
loop_
_space_group_symop_operation_xyz
x,y,z
-x,-y,z
x,-y,-z
-x,y,-z
1/2+x,1/2+y,z
1/2-x,1/2-y,z
1/2+x,1/2-y,-z
1/2-x,1/2+y,-z
loop_
_atom_site_type_symbol
_atom_site_label
_atom_site_fract_x
_atom_site_fract_y
_atom_site_fract_z
Si Si1 0.504580 0.913870 0.210945
Si Si2 0.321285 0.674768 0.077470
Si Si3 0.714091 0.837484 0.582452
Si Si4 0.396379 0.321527 0.286102
O O1 0.380048 0.876152 0.111367
O O2 0.379906 0.883585 0.316961
O O3 0.747764 0.882719 0.230246
O O4 0.500000 0.000000 0.203698
O O5 0.250000 0.750000 0.020890
O O6 0.437454 0.699612 0.189725
O O7 0.500000 0.637752 0.000000
O O8 0.500000 0.846647 0.500000
O O9 0.750000 0.750000 0.590287
O O10 0.980760 0.853735 0.608664
O O11 0.250000 0.250000 0.313643
#
# Coordination Sequence:
#
# PCOD9325250 Si02
#       4
#     8   8   8   8
#     4  11  25  46  71 103 150 199 238 310 392 455
#     4  11  23  40  73 109 139 188 252 311 372 448
#     4  11  25  41  71 110 140 190 257 315 370 443
#     4  11  20  44  72 101 144 188 248 307 373 443
#
# _framework density 23.354444000000001
#
# number of rings (size 3 to 8) (size 9 to 14) (size 15 to 20)
#    0.000    1.000    5.000    2.250    3.500    4.500 
#    0.000    3.750    5.500    0.000    0.000    0.000 
#    0.000    0.000    0.000    0.000    0.000    0.000 
#
# Total GULP energy -89108.388549 kJ/mol
# GULP energy per Si atom -5569.274284 kJ/mol
# Density = 2.330129 g / cm^3
# Si number density = 23.354444 Si / 1000 Ang^3
#
#
#
# Elastic Constant Matrix: (Units=GPa)
#
#
# Indices 1 2 3 4 5 6 
#
# 1 160.0374 58.6660 62.1514 0.0000 0.0000 0.0000
# 2 58.6660 139.3010 32.4090 0.0000 0.0000 0.0000
# 3 62.1514 32.4090 132.6650 0.0000 0.0000 0.0000
# 4 0.0000 0.0000 0.0000 -7.3121 0.0000 0.0000
# 5 0.0000 0.0000 0.0000 0.0000 42.6736 0.0000
# 6 0.0000 0.0000 0.0000 0.0000 0.0000 23.2973
#
#
#
# Elastic Compliance Matrix: (Units=1/GPa)
#
#
# Indices 1 2 3 4 5 6 
#
# 1 0.008582 -0.002840 -0.003326 0.000000 0.000000 0.000000
# 2 -0.002840 0.008551 -0.000758 0.000000 0.000000 0.000000
# 3 -0.003326 -0.000758 0.009281 0.000000 0.000000 0.000000
# 4 0.000000 0.000000 0.000000 -0.136760 0.000000 0.000000
# 5 0.000000 0.000000 0.000000 0.000000 0.023434 0.000000
# 6 0.000000 0.000000 0.000000 0.000000 0.000000 0.042923
#
#
# Mechanical properties :
#
#
# Convention : Reuss Voigt Hill
#
# Bulk Modulus (GPa) = 79.59176 82.05069 80.82122
# Shear Modulus (GPa) = -192.67195 30.31690 -81.17753
#
# Velocity S-wave (km/s) = -9.09275 3.60685 -5.90207
# Velocity P-wave (km/s) = 8.72259 7.24948 3.42992
#
# Compressibility (1/GPa) = 0.01256412
#
# Stress axis : x y z
#
# Youngs Moduli (GPa) = 116.52934 116.94169 107.74162
#
# Poissons Ratio (x) = 0.33213 0.35840
# Poissons Ratio (y) = 0.33096 0.08172
# Poissons Ratio (z) = 0.38763 0.08869
#
# Static dielectric constant tensor:
#      x y z
#    x 2.974810 0.000000 0.000000 
#    y 0.000000 1.771790 0.000000 
#    z 0.000000 0.000000 1.969810 
# 
# From -- ./inp_files/28718.got.cif
#   From: 2010.05.17/outbox.cif.g08.bks.cpg/sg21_15_cif.got.tgz:28718.got - 2010.06.03 23:14:55.
