data_PCOD9325803
_publ_section_title
;
Structure prediction by ZEFSAII (Michael W. Deem and Ramdas Pophale) SiO2 
 PCOD9325803
Probable space group: C 2 2 2
;
_chemical_formula_sum "Si O2"
_cell_formula_units_Z 34
_cell_length_a 17.132428
_cell_length_b 15.047623
_cell_length_c 5.547316
_cell_angle_alpha 90.000000
_cell_angle_beta 90.000000
_cell_angle_gamma 90.000000
_cell_volume 1430.110921
_symmetry_space_group_name_H-M "C 2 2 2"
_symmetry_group_IT_number 21
_symmetry_cell_setting 'orthorhombic'
loop_
_space_group_symop_operation_xyz
x,y,z
-x,-y,z
x,-y,-z
-x,y,-z
1/2+x,1/2+y,z
1/2-x,1/2-y,z
1/2+x,1/2-y,-z
1/2-x,1/2+y,-z
loop_
_atom_site_type_symbol
_atom_site_label
_atom_site_fract_x
_atom_site_fract_y
_atom_site_fract_z
Si Si1 0.156566 0.904854 0.128631
Si Si2 0.261481 0.500000 0.500000
Si Si3 0.500000 0.694967 0.000000
Si Si4 0.000000 0.694886 0.500000
Si Si5 0.500000 0.000000 0.000000
Si Si6 0.629615 0.888181 0.292815
Si Si7 0.750000 0.750000 0.107215
O O1 0.181071 0.924614 0.402353
O O2 0.072906 0.866656 0.065208
O O3 0.216318 0.830442 0.045918
O O4 0.164597 0.000000 0.000000
O O5 0.199611 0.458196 0.315697
O O6 0.489229 0.750791 0.750217
O O7 0.921595 0.636006 0.529257
O O8 0.561236 0.066249 0.865085
O O9 0.676564 0.796977 0.237158
#
# Coordination Sequence:
#
# PCOD9325803 Si02
#       7
#     8   4   4   4   2   8   4
#     4  12  28  53  77 118 163 219 283 353 439 520
#     4  12  28  47  85 120 160 220 290 372 440 520
#     4  12  30  50  81 115 168 224 281 345 429 528
#     4  12  28  51  81 122 162 222 282 352 428 532
#     4  12  26  54  82 122 182 236 292 368 450 546
#     4  12  26  48  82 122 163 225 289 361 444 525
#     4  12  26  48  82 116 166 216 284 360 436 520
#
# _framework density 23.774381999999999
#
# number of rings (size 3 to 8) (size 9 to 14) (size 15 to 20)
#    0.000    0.000    4.706    3.882    9.882    0.000 
#    0.000    0.000    0.000    0.000    0.000    0.000 
#    0.000    0.000    0.000    0.000    0.000    0.000 
#
# Total GULP energy -94859.477110 kJ/mol
# GULP energy per Si atom -5579.969242 kJ/mol
# Density = 2.372027 g / cm^3
# Si number density = 23.774382 Si / 1000 Ang^3
#
#
#
# Elastic Constant Matrix: (Units=GPa)
#
#
# Indices 1 2 3 4 5 6 
#
# 1 193.6949 61.3773 71.1264 0.0000 0.0000 0.0000
# 2 61.3773 119.3985 28.6691 0.0000 0.0000 0.0000
# 3 71.1264 28.6691 73.8947 0.0000 0.0000 0.0000
# 4 0.0000 0.0000 0.0000 39.4041 0.0000 0.0000
# 5 0.0000 0.0000 0.0000 0.0000 38.2920 0.0000
# 6 0.0000 0.0000 0.0000 0.0000 0.0000 56.3149
#
#
#
# Elastic Compliance Matrix: (Units=1/GPa)
#
#
# Indices 1 2 3 4 5 6 
#
# 1 0.008719 -0.002720 -0.007337 0.000000 0.000000 0.000000
# 2 -0.002720 0.010084 -0.001294 0.000000 0.000000 0.000000
# 3 -0.007337 -0.001294 0.021097 0.000000 0.000000 0.000000
# 4 0.000000 0.000000 0.000000 0.025378 0.000000 0.000000
# 5 0.000000 0.000000 0.000000 0.000000 0.026115 0.000000
# 6 0.000000 0.000000 0.000000 0.000000 0.000000 0.017757
#
#
# Mechanical properties :
#
#
# Convention : Reuss Voigt Hill
#
# Bulk Modulus (GPa) = 58.14741 78.81486 68.48114
# Shear Modulus (GPa) = 36.34095 41.85655 39.09875
#
# Velocity S-wave (km/s) = 3.91394 4.20047 4.05974
# Velocity P-wave (km/s) = 6.70346 7.53315 7.13039
#
# Compressibility (1/GPa) = 0.01719767
#
# Stress axis : x y z
#
# Youngs Moduli (GPa) = 114.69299 99.16276 47.40041
#
# Poissons Ratio (x) = 0.26975 0.34777
# Poissons Ratio (y) = 0.31200 0.06134
# Poissons Ratio (z) = 0.84149 0.12832
#
# Static dielectric constant tensor:
#      x y z
#    x 1.929850 0.000000 0.000000 
#    y 0.000000 1.967240 0.000000 
#    z 0.000000 0.000000 2.122170 
# 
# From -- ./inp_files/3578.got.cif
#   From: 2010.05.17/outbox.cif.g08.bks.cpg/sg21_2_cif.got.tgz:3578.got - 2010.06.03 23:14:55.
