data_PCOD9325442
_publ_section_title
;
Structure prediction by ZEFSAII (Michael W. Deem and Ramdas Pophale) SiO2 
 PCOD9325442
Probable space group: C 2 2 2
;
_chemical_formula_sum "Si O2"
_cell_formula_units_Z 36
_cell_length_a 9.429177
_cell_length_b 22.319152
_cell_length_c 7.524009
_cell_angle_alpha 90.000000
_cell_angle_beta 90.000000
_cell_angle_gamma 90.000000
_cell_volume 1583.436984
_symmetry_space_group_name_H-M "C 2 2 2"
_symmetry_group_IT_number 21
_symmetry_cell_setting 'orthorhombic'
loop_
_space_group_symop_operation_xyz
x,y,z
-x,-y,z
x,-y,-z
-x,y,-z
1/2+x,1/2+y,z
1/2-x,1/2-y,z
1/2+x,1/2-y,-z
1/2-x,1/2+y,-z
loop_
_atom_site_type_symbol
_atom_site_label
_atom_site_fract_x
_atom_site_fract_y
_atom_site_fract_z
Si Si1 0.500000 0.743144 0.500000
Si Si2 0.332593 0.851786 0.367012
Si Si3 0.956152 0.852746 0.796583
Si Si4 0.444766 0.938189 0.799635
Si Si5 0.664427 0.441146 0.624369
O O1 0.374592 0.788703 0.450266
O O2 0.482530 0.700122 0.670471
O O3 0.475153 0.884169 0.299319
O O4 0.247463 0.892215 0.506583
O O5 0.214040 0.847433 0.214139
O O6 0.020862 0.913179 0.705798
O O7 0.000000 0.848759 0.000000
O O8 0.276047 0.945699 0.786761
O O9 0.500000 0.000000 0.715178
O O10 0.500000 0.935228 0.000000
O O11 0.655162 0.500000 0.500000
#
# Coordination Sequence:
#
# PCOD9325442 Si02
#       5
#     4   8   8   8   8
#     4  12  26  50  78 106 150 206 258 312 386 460
#     4  12  24  47  75 106 149 201 250 313 384 455
#     4  12  29  52  76 115 154 201 263 322 393 462
#     4  11  23  41  70 111 150 196 253 308 377 460
#     4  12  24  48  78 109 150 201 249 316 389 463
#
# _framework density 22.735351999999999
#
# number of rings (size 3 to 8) (size 9 to 14) (size 15 to 20)
#    0.000    0.222    6.667    2.000    0.000    2.667 
#    8.000    1.111    0.000    0.000    0.000    0.000 
#    0.000    0.000    0.000    0.000    0.000    0.000 
#
# Total GULP energy -100592.448348 kJ/mol
# GULP energy per Si atom -5588.469353 kJ/mol
# Density = 2.268361 g / cm^3
# Si number density = 22.735352 Si / 1000 Ang^3
#
#
#
# Elastic Constant Matrix: (Units=GPa)
#
#
# Indices 1 2 3 4 5 6 
#
# 1 158.6247 55.7463 34.7362 0.0000 0.0000 0.0000
# 2 55.7463 147.4666 61.4833 0.0000 0.0000 0.0000
# 3 34.7362 61.4833 154.2817 0.0000 0.0000 0.0000
# 4 0.0000 0.0000 0.0000 19.2137 0.0000 0.0000
# 5 0.0000 0.0000 0.0000 0.0000 38.6263 0.0000
# 6 0.0000 0.0000 0.0000 0.0000 0.0000 16.4038
#
#
#
# Elastic Compliance Matrix: (Units=1/GPa)
#
#
# Indices 1 2 3 4 5 6 
#
# 1 0.007325 -0.002496 -0.000654 0.000000 0.000000 0.000000
# 2 -0.002496 0.008983 -0.003018 0.000000 0.000000 0.000000
# 3 -0.000654 -0.003018 0.007832 0.000000 0.000000 0.000000
# 4 0.000000 0.000000 0.000000 0.052046 0.000000 0.000000
# 5 0.000000 0.000000 0.000000 0.000000 0.025889 0.000000
# 6 0.000000 0.000000 0.000000 0.000000 0.000000 0.060961
#
#
# Mechanical properties :
#
#
# Convention : Reuss Voigt Hill
#
# Bulk Modulus (GPa) = 84.72679 84.92272 84.82476
# Shear Modulus (GPa) = 27.88510 35.40923 31.64716
#
# Velocity S-wave (km/s) = 3.50595 3.95074 3.73497
# Velocity P-wave (km/s) = 7.33051 7.63184 7.48269
#
# Compressibility (1/GPa) = 0.01180264
#
# Stress axis : x y z
#
# Youngs Moduli (GPa) = 136.52423 111.32107 127.68699
#
# Poissons Ratio (x) = 0.27787 0.08356
# Poissons Ratio (y) = 0.34078 0.38534
# Poissons Ratio (z) = 0.08934 0.33595
#
# Static dielectric constant tensor:
#      x y z
#    x 2.002600 0.000000 0.000000 
#    y 0.000000 1.879950 0.000000 
#    z 0.000000 0.000000 1.905490 
# 
# From -- ./inp_files/10578.got.cif
#   From: 2010.05.17/outbox.cif.g08.bks.cpg/sg21_6_cif.got.tgz:10578.got - 2010.06.03 23:14:55.
