data_PCOD9325414
_publ_section_title
;
Structure prediction by ZEFSAII (Michael W. Deem and Ramdas Pophale) SiO2 
 PCOD9325414
Probable space group: C 2 2 2
;
_chemical_formula_sum "Si O2"
_cell_formula_units_Z 44
_cell_length_a 7.122261
_cell_length_b 14.446104
_cell_length_c 19.075651
_cell_angle_alpha 90.000000
_cell_angle_beta 90.000000
_cell_angle_gamma 90.000000
_cell_volume 1962.673189
_symmetry_space_group_name_H-M "C 2 2 2"
_symmetry_group_IT_number 21
_symmetry_cell_setting 'orthorhombic'
loop_
_space_group_symop_operation_xyz
x,y,z
-x,-y,z
x,-y,-z
-x,y,-z
1/2+x,1/2+y,z
1/2-x,1/2-y,z
1/2+x,1/2-y,-z
1/2-x,1/2+y,-z
loop_
_atom_site_type_symbol
_atom_site_label
_atom_site_fract_x
_atom_site_fract_y
_atom_site_fract_z
Si Si1 0.271481 0.996358 0.884147
Si Si2 0.702504 0.858058 0.396944
Si Si3 0.225218 0.484508 0.274936
Si Si4 0.500000 0.383825 0.500000
Si Si5 0.278442 0.858793 0.003657
Si Si6 0.265453 0.151132 0.625488
O O1 0.207180 0.986151 0.804490
O O2 0.213106 0.088595 0.926303
O O3 0.500000 0.000000 0.880851
O O4 0.209513 0.912107 0.934387
O O5 0.750000 0.750000 0.409464
O O6 0.477387 0.869218 0.401561
O O7 0.829558 0.920397 0.449760
O O8 0.755471 0.890894 0.318809
O O9 0.295406 0.569022 0.323127
O O10 0.000000 0.500000 0.272553
O O11 0.373489 0.337572 0.559861
O O12 0.250000 0.750000 0.003987
O O13 0.500000 0.874305 0.000000
O O14 0.250000 0.250000 0.663673
#
# Coordination Sequence:
#
# PCOD9325414 Si02
#       6
#     8   8   8   4   8   8
#     4   8  16  35  57  80 117 161 186 229 277 345
#     4  11  23  39  61  86 113 154 197 247 300 356
#     4   9  21  39  57  82 119 154 196 235 292 352
#     4  12  24  41  64  83 120 146 200 251 308 337
#     4   9  17  31  60  90 114 149 199 225 278 338
#     4  11  23  39  61  86 113 154 197 247 300 356
#
# _framework density 22.418405
#
# number of rings (size 3 to 8) (size 9 to 14) (size 15 to 20)
#    0.000    2.182    1.818    2.182    0.000    3.636 
#    0.000    4.545    8.000    0.000    0.000    0.000 
#    0.000    0.000    0.000    0.000    0.000    0.000 
#
# Total GULP energy -122677.715707 kJ/mol
# GULP energy per Si atom -5576.259805 kJ/mol
# Density = 2.236738 g / cm^3
# Si number density = 22.418405 Si / 1000 Ang^3
#
#
#
# Elastic Constant Matrix: (Units=GPa)
#
#
# Indices 1 2 3 4 5 6 
#
# 1 142.9693 -0.7125 25.5026 0.0000 0.0000 0.0000
# 2 -0.7125 126.8165 72.2662 0.0000 0.0000 0.0000
# 3 25.5026 72.2662 186.7624 0.0000 0.0000 0.0000
# 4 0.0000 0.0000 0.0000 14.3001 0.0000 0.0000
# 5 0.0000 0.0000 0.0000 0.0000 -10.2861 0.0000
# 6 0.0000 0.0000 0.0000 0.0000 0.0000 16.1893
#
#
#
# Elastic Compliance Matrix: (Units=1/GPa)
#
#
# Indices 1 2 3 4 5 6 
#
# 1 0.007228 0.000774 -0.001286 0.000000 0.000000 0.000000
# 2 0.000774 0.010199 -0.004052 0.000000 0.000000 0.000000
# 3 -0.001286 -0.004052 0.007098 0.000000 0.000000 0.000000
# 4 0.000000 0.000000 0.000000 0.069930 0.000000 0.000000
# 5 0.000000 0.000000 0.000000 0.000000 -0.097219 0.000000
# 6 0.000000 0.000000 0.000000 0.000000 0.000000 0.061769
#
#
# Mechanical properties :
#
#
# Convention : Reuss Voigt Hill
#
# Bulk Modulus (GPa) = 64.95547 72.29565 68.62556
# Shear Modulus (GPa) = 68.24487 28.00679 48.12583
#
# Velocity S-wave (km/s) = 5.52336 3.53835 4.63829
# Velocity P-wave (km/s) = 8.34948 7.00082 7.70472
#
# Compressibility (1/GPa) = 0.01539516
#
# Stress axis : x y z
#
# Youngs Moduli (GPa) = 138.35444 98.05111 140.88634
#
# Poissons Ratio (x) = -0.07585 0.18122
# Poissons Ratio (y) = -0.10703 0.57087
# Poissons Ratio (z) = 0.17797 0.39730
#
# Static dielectric constant tensor:
#      x y z
#    x 1.905480 0.000000 0.000000 
#    y 0.000000 1.939560 0.000000 
#    z 0.000000 0.000000 1.788600 
# 
# From -- ./inp_files/35586.got.cif
#   From: 2010.05.17/outbox.cif.g08.bks.cpg/sg21_18_cif.got.tgz:35586.got - 2010.06.03 23:14:55.
