data_PCOD9325502
_publ_section_title
;
Structure prediction by ZEFSAII (Michael W. Deem and Ramdas Pophale) SiO2 
 PCOD9325502
Probable space group: C 2 2 2
;
_chemical_formula_sum "Si O2"
_cell_formula_units_Z 40
_cell_length_a 10.727213
_cell_length_b 11.646995
_cell_length_c 13.849209
_cell_angle_alpha 90.000000
_cell_angle_beta 90.000000
_cell_angle_gamma 90.000000
_cell_volume 1730.317350
_symmetry_space_group_name_H-M "C 2 2 2"
_symmetry_group_IT_number 21
_symmetry_cell_setting 'orthorhombic'
loop_
_space_group_symop_operation_xyz
x,y,z
-x,-y,z
x,-y,-z
-x,y,-z
1/2+x,1/2+y,z
1/2-x,1/2-y,z
1/2+x,1/2-y,-z
1/2-x,1/2+y,-z
loop_
_atom_site_type_symbol
_atom_site_label
_atom_site_fract_x
_atom_site_fract_y
_atom_site_fract_z
Si Si1 0.952050 0.160811 0.891219
Si Si2 0.703905 0.561595 0.396346
Si Si3 0.048894 0.715567 0.606474
Si Si4 0.451920 0.871092 0.201133
Si Si5 0.308903 0.542407 0.190932
O O1 0.952883 0.293752 0.861373
O O2 0.067635 0.113319 0.829484
O O3 0.835353 0.080337 0.862717
O O4 0.000000 0.146315 0.000000
O O5 0.702100 0.500000 0.500000
O O6 0.829048 0.636409 0.383359
O O7 0.591263 0.652326 0.387607
O O8 0.701012 0.478876 0.304888
O O9 0.000000 0.693357 0.500000
O O10 0.955106 0.681667 0.691257
O O11 0.312990 0.886804 0.159386
O O12 0.500000 0.000000 0.208636
#
# Coordination Sequence:
#
# PCOD9325502 Si02
#       5
#     8   8   8   8   8
#     4  11  27  52  73 106 145 185 248 317 378 447
#     4  11  24  42  69 104 145 199 243 296 366 443
#     4  11  25  43  65 105 153 190 244 303 359 441
#     4  12  25  46  75 106 145 194 240 300 371 441
#     4  11  23  47  77 103 143 194 239 298 379 436
#
# _framework density 23.117146000000002
#
# number of rings (size 3 to 8) (size 9 to 14) (size 15 to 20)
#    0.000    0.800    4.000    3.000    2.800    1.600 
#   10.800    0.000    0.000    0.000    0.000    0.000 
#    0.000    0.000    0.000    0.000    0.000    0.000 
#
# Total GULP energy -111925.062192 kJ/mol
# GULP energy per Si atom -5596.253110 kJ/mol
# Density = 2.306453 g / cm^3
# Si number density = 23.117146 Si / 1000 Ang^3
#
#
#
# Elastic Constant Matrix: (Units=GPa)
#
#
# Indices 1 2 3 4 5 6 
#
# 1 82.2838 19.1777 4.4328 0.0000 0.0000 0.0000
# 2 19.1777 110.9807 25.2002 0.0000 0.0000 0.0000
# 3 4.4328 25.2002 109.2591 0.0000 0.0000 0.0000
# 4 0.0000 0.0000 0.0000 10.5838 0.0000 0.0000
# 5 0.0000 0.0000 0.0000 0.0000 -5.6831 0.0000
# 6 0.0000 0.0000 0.0000 0.0000 0.0000 26.2830
#
#
#
# Elastic Compliance Matrix: (Units=1/GPa)
#
#
# Indices 1 2 3 4 5 6 
#
# 1 0.012663 -0.002186 -0.000010 0.000000 0.000000 0.000000
# 2 -0.002186 0.009886 -0.002191 0.000000 0.000000 0.000000
# 3 -0.000010 -0.002191 0.009658 0.000000 0.000000 0.000000
# 4 0.000000 0.000000 0.000000 0.094484 0.000000 0.000000
# 5 0.000000 0.000000 0.000000 0.000000 -0.175961 0.000000
# 6 0.000000 0.000000 0.000000 0.000000 0.000000 0.038047
#
#
# Mechanical properties :
#
#
# Convention : Reuss Voigt Hill
#
# Bulk Modulus (GPa) = 42.67432 44.46054 43.56743
# Shear Modulus (GPa) = 932.28953 23.15095 477.72024
#
# Velocity S-wave (km/s) = 20.10385 3.16802 14.39099
# Velocity P-wave (km/s) = 23.60903 5.71457 17.17618
#
# Compressibility (1/GPa) = 0.02343329
#
# Stress axis : x y z
#
# Youngs Moduli (GPa) = 78.96977 101.15376 103.53691
#
# Poissons Ratio (x) = 0.22113 0.00099
# Poissons Ratio (y) = 0.17263 0.22690
# Poissons Ratio (z) = 0.00076 0.22167
#
# Static dielectric constant tensor:
#      x y z
#    x 1.891220 0.000000 0.000000 
#    y 0.000000 1.964410 0.000000 
#    z 0.000000 0.000000 1.849370 
# 
# From -- ./inp_files/31379.got.cif
#   From: 2010.05.17/outbox.cif.g08.bks.cpg/sg21_16_cif.got.tgz:31379.got - 2010.06.03 23:14:55.
