data_PCOD9325404
_publ_section_title
;
Structure prediction by ZEFSAII (Michael W. Deem and Ramdas Pophale) SiO2 
 PCOD9325404
Probable space group: C 2 2 2
;
_chemical_formula_sum "Si O2"
_cell_formula_units_Z 40
_cell_length_a 9.180546
_cell_length_b 18.875318
_cell_length_c 10.698101
_cell_angle_alpha 90.000000
_cell_angle_beta 90.000000
_cell_angle_gamma 90.000000
_cell_volume 1853.828190
_symmetry_space_group_name_H-M "C 2 2 2"
_symmetry_group_IT_number 21
_symmetry_cell_setting 'orthorhombic'
loop_
_space_group_symop_operation_xyz
x,y,z
-x,-y,z
x,-y,-z
-x,y,-z
1/2+x,1/2+y,z
1/2-x,1/2-y,z
1/2+x,1/2-y,-z
1/2-x,1/2+y,-z
loop_
_atom_site_type_symbol
_atom_site_label
_atom_site_fract_x
_atom_site_fract_y
_atom_site_fract_z
Si Si1 0.053160 0.128864 0.310838
Si Si2 0.274549 0.671076 0.458593
Si Si3 0.073529 0.745166 0.865667
Si Si4 0.730741 0.010239 0.652777
Si Si5 0.039276 0.386951 0.696936
O O1 0.167347 0.171094 0.400857
O O2 0.029870 0.178872 0.192957
O O3 0.126683 0.052050 0.299072
O O4 0.901647 0.129400 0.385634
O O5 0.250000 0.750000 0.411551
O O6 0.120027 0.639581 0.426894
O O7 0.250000 0.750000 0.872752
O O8 0.011100 0.679605 0.781390
O O9 0.000000 0.736553 0.000000
O O10 0.600268 0.065994 0.670946
O O11 0.746537 0.000000 0.500000
O O12 0.668457 0.943687 0.733714
#
# Coordination Sequence:
#
# PCOD9325404 Si02
#       5
#     8   8   8   8   8
#     4  11  24  41  66 107 148 185 241 303 377 451
#     4  11  23  36  67 106 145 184 227 300 377 450
#     4  12  27  47  74 102 145 195 262 315 360 431
#     4  11  23  40  69 107 150 188 224 302 391 470
#     4  11  23  42  68 103 140 190 242 297 378 461
#
# _framework density 21.576974
#
# number of rings (size 3 to 8) (size 9 to 14) (size 15 to 20)
#    0.000    0.800    6.000    1.800    2.800    0.800 
#    0.000    2.000    0.000    0.000    0.000    0.000 
#    0.000    0.000    0.000    0.000    0.000    0.000 
#
# Total GULP energy -111429.185733 kJ/mol
# GULP energy per Si atom -5571.459287 kJ/mol
# Density = 2.152786 g / cm^3
# Si number density = 21.576974 Si / 1000 Ang^3
#
#
#
# Elastic Constant Matrix: (Units=GPa)
#
#
# Indices 1 2 3 4 5 6 
#
# 1 135.5233 73.5063 45.0219 0.0000 0.0000 0.0000
# 2 73.5063 121.0959 27.2079 0.0000 0.0000 0.0000
# 3 45.0219 27.2079 77.2398 0.0000 0.0000 0.0000
# 4 0.0000 0.0000 0.0000 3.9448 0.0000 0.0000
# 5 0.0000 0.0000 0.0000 0.0000 21.5461 0.0000
# 6 0.0000 0.0000 0.0000 0.0000 0.0000 49.9751
#
#
#
# Elastic Compliance Matrix: (Units=1/GPa)
#
#
# Indices 1 2 3 4 5 6 
#
# 1 0.012582 -0.006504 -0.005043 0.000000 0.000000 0.000000
# 2 -0.006504 0.012330 -0.000552 0.000000 0.000000 0.000000
# 3 -0.005043 -0.000552 0.016080 0.000000 0.000000 0.000000
# 4 0.000000 0.000000 0.000000 0.253501 0.000000 0.000000
# 5 0.000000 0.000000 0.000000 0.000000 0.046412 0.000000
# 6 0.000000 0.000000 0.000000 0.000000 0.000000 0.020010
#
#
# Mechanical properties :
#
#
# Convention : Reuss Voigt Hill
#
# Bulk Modulus (GPa) = 59.54350 69.48123 64.51236
# Shear Modulus (GPa) = 12.79718 27.63474 20.21596
#
# Velocity S-wave (km/s) = 2.43799 3.58264 3.06424
# Velocity P-wave (km/s) = 5.96497 7.02746 6.51790
#
# Compressibility (1/GPa) = 0.01679445
#
# Stress axis : x y z
#
# Youngs Moduli (GPa) = 79.47936 81.10208 62.18749
#
# Poissons Ratio (x) = 0.52752 0.31359
# Poissons Ratio (y) = 0.51696 0.03433
# Poissons Ratio (z) = 0.40078 0.04477
#
# Static dielectric constant tensor:
#      x y z
#    x 1.823510 0.000000 0.000000 
#    y 0.000000 1.981080 0.000000 
#    z 0.000000 0.000000 1.729380 
# 
# From -- ./inp_files/22568.got.cif
#   From: 2010.05.17/outbox.cif.g08.bks.cpg/sg21_12_cif.got.tgz:22568.got - 2010.06.03 23:14:55.
