data_PCOD9325358
_publ_section_title
;
Structure prediction by ZEFSAII (Michael W. Deem and Ramdas Pophale) SiO2 
 PCOD9325358
Probable space group: C 2 2 2
;
_chemical_formula_sum "Si O2"
_cell_formula_units_Z 32
_cell_length_a 10.779376
_cell_length_b 15.291045
_cell_length_c 7.598564
_cell_angle_alpha 90.000000
_cell_angle_beta 90.000000
_cell_angle_gamma 90.000000
_cell_volume 1252.455526
_symmetry_space_group_name_H-M "C 2 2 2"
_symmetry_group_IT_number 21
_symmetry_cell_setting 'orthorhombic'
loop_
_space_group_symop_operation_xyz
x,y,z
-x,-y,z
x,-y,-z
-x,y,-z
1/2+x,1/2+y,z
1/2-x,1/2-y,z
1/2+x,1/2-y,-z
1/2-x,1/2+y,-z
loop_
_atom_site_type_symbol
_atom_site_label
_atom_site_fract_x
_atom_site_fract_y
_atom_site_fract_z
Si Si1 0.743082 0.474843 0.807312
Si Si2 0.752953 0.847163 0.660835
Si Si3 0.358899 0.691823 0.725824
Si Si4 0.514635 0.862402 0.212618
O O1 0.686331 0.562659 0.725503
O O2 0.638045 0.400576 0.817082
O O3 0.866263 0.422238 0.734431
O O4 0.785307 0.500000 0.000000
O O5 0.750000 0.750000 0.749235
O O6 0.815327 0.827979 0.472956
O O7 0.611129 0.882220 0.682870
O O8 0.250000 0.750000 0.813470
O O9 0.467424 0.760390 0.736907
O O10 0.500000 0.868353 0.000000
#
# Coordination Sequence:
#
# PCOD9325358 Si02
#       4
#     8   8   8   8
#     4  11  22  39  70 104 138 175 238 291 358 411
#     4  11  24  41  69 100 140 185 227 296 353 422
#     4   9  23  42  63  98 140 179 228 288 358 414
#     4  11  23  42  73 104 136 182 237 295 348 427
#
# _framework density 25.549810999999998
#
# number of rings (size 3 to 8) (size 9 to 14) (size 15 to 20)
#    0.000    1.500    2.500    1.500    3.500    9.000 
#    0.000    8.750    0.000    9.000    0.000    0.000 
#    0.000    0.000    0.000    0.000    0.000    0.000 
#
# Total GULP energy -89172.650122 kJ/mol
# GULP energy per Si atom -5573.290633 kJ/mol
# Density = 2.549166 g / cm^3
# Si number density = 25.549811 Si / 1000 Ang^3
#
#
#
# Elastic Constant Matrix: (Units=GPa)
#
#
# Indices 1 2 3 4 5 6 
#
# 1 50.9141 5.1364 14.5094 0.0000 0.0000 0.0000
# 2 5.1364 263.5584 33.7953 0.0000 0.0000 0.0000
# 3 14.5094 33.7953 101.9459 0.0000 0.0000 0.0000
# 4 0.0000 0.0000 0.0000 121.6433 0.0000 0.0000
# 5 0.0000 0.0000 0.0000 0.0000 19.0860 0.0000
# 6 0.0000 0.0000 0.0000 0.0000 0.0000 35.1508
#
#
#
# Elastic Compliance Matrix: (Units=1/GPa)
#
#
# Indices 1 2 3 4 5 6 
#
# 1 0.020471 -0.000026 -0.002905 0.000000 0.000000 0.000000
# 2 -0.000026 0.003963 -0.001310 0.000000 0.000000 0.000000
# 3 -0.002905 -0.001310 0.010657 0.000000 0.000000 0.000000
# 4 0.000000 0.000000 0.000000 0.008221 0.000000 0.000000
# 5 0.000000 0.000000 0.000000 0.000000 0.052395 0.000000
# 6 0.000000 0.000000 0.000000 0.000000 0.000000 0.028449
#
#
# Mechanical properties :
#
#
# Convention : Reuss Voigt Hill
#
# Bulk Modulus (GPa) = 37.58193 58.14454 47.86323
# Shear Modulus (GPa) = 35.33399 59.37451 47.35425
#
# Velocity S-wave (km/s) = 3.72283 4.82589 4.30979
# Velocity P-wave (km/s) = 5.76372 7.33887 6.59846
#
# Compressibility (1/GPa) = 0.02660853
#
# Stress axis : x y z
#
# Youngs Moduli (GPa) = 48.84865 252.35297 93.83700
#
# Poissons Ratio (x) = 0.00668 0.27258
# Poissons Ratio (y) = 0.00129 0.12291
# Poissons Ratio (z) = 0.14190 0.33055
#
# Static dielectric constant tensor:
#      x y z
#    x 1.635130 0.000000 0.000000 
#    y 0.000000 2.191520 0.000000 
#    z 0.000000 0.000000 2.026940 
# 
# From -- ./inp_files/12154.got.cif
#   From: 2010.05.17/outbox.cif.g08.bks.cpg/sg21_7_cif.got.tgz:12154.got - 2010.06.03 23:14:55.
