data_PCOD9325542
_publ_section_title
;
Structure prediction by ZEFSAII (Michael W. Deem and Ramdas Pophale) SiO2 
 PCOD9325542
Probable space group: C 2 2 2
;
_chemical_formula_sum "Si O2"
_cell_formula_units_Z 22
_cell_length_a 7.791660
_cell_length_b 7.128232
_cell_length_c 18.255516
_cell_angle_alpha 90.000000
_cell_angle_beta 90.000000
_cell_angle_gamma 90.000000
_cell_volume 1013.925235
_symmetry_space_group_name_H-M "C 2 2 2"
_symmetry_group_IT_number 21
_symmetry_cell_setting 'orthorhombic'
loop_
_space_group_symop_operation_xyz
x,y,z
-x,-y,z
x,-y,-z
-x,y,-z
1/2+x,1/2+y,z
1/2-x,1/2-y,z
1/2+x,1/2-y,-z
1/2-x,1/2+y,-z
loop_
_atom_site_type_symbol
_atom_site_label
_atom_site_fract_x
_atom_site_fract_y
_atom_site_fract_z
Si Si1 0.000000 0.000000 0.500000
Si Si2 0.750000 0.250000 0.209578
Si Si3 0.250000 0.250000 0.400240
Si Si4 0.500000 0.000000 0.302928
Si Si5 0.799741 0.959949 0.080678
O O1 0.881456 0.867149 0.450119
O O2 0.907079 0.327700 0.258954
O O3 0.742206 0.419019 0.151232
O O4 0.145442 0.398430 0.351007
O O5 0.750000 0.750000 0.097797
O O6 0.000000 0.000000 0.072171
O O7 0.719184 0.000000 0.000000
#
# Coordination Sequence:
#
# PCOD9325542 Si02
#       5
#     2   4   4   4   8
#     4  12  24  48  84 104 148 180 242 276 354 398
#     4  12  26  45  69 102 144 206 228 314 366 430
#     4  12  26  49  75 116 140 192 226 294 336 444
#     4  12  28  45  73 106 158 182 242 278 378 434
#     4  11  24  44  68  98 135 189 257 316 361 419
#
# _framework density 21.697852000000001
#
# number of rings (size 3 to 8) (size 9 to 14) (size 15 to 20)
#    0.000    0.364    1.818    6.545    7.636    0.000 
#    0.000    0.000    0.000    0.000    0.000    0.000 
#    0.000    0.000    0.000    0.000    0.000    0.000 
#
# Total GULP energy -61407.235650 kJ/mol
# GULP energy per Si atom -5582.475968 kJ/mol
# Density = 2.164847 g / cm^3
# Si number density = 21.697852 Si / 1000 Ang^3
#
#
#
# Elastic Constant Matrix: (Units=GPa)
#
#
# Indices 1 2 3 4 5 6 
#
# 1 116.2532 67.4187 79.2877 0.0000 0.0000 0.0000
# 2 67.4187 199.9623 79.3291 0.0000 0.0000 0.0000
# 3 79.2877 79.3291 150.1576 0.0000 0.0000 0.0000
# 4 0.0000 0.0000 0.0000 163.0739 0.0000 0.0000
# 5 0.0000 0.0000 0.0000 0.0000 42.2324 0.0000
# 6 0.0000 0.0000 0.0000 0.0000 0.0000 60.0526
#
#
#
# Elastic Compliance Matrix: (Units=1/GPa)
#
#
# Indices 1 2 3 4 5 6 
#
# 1 0.014232 -0.002299 -0.006300 0.000000 0.000000 0.000000
# 2 -0.002299 0.006698 -0.002325 0.000000 0.000000 0.000000
# 3 -0.006300 -0.002325 0.011215 0.000000 0.000000 0.000000
# 4 0.000000 0.000000 0.000000 0.006132 0.000000 0.000000
# 5 0.000000 0.000000 0.000000 0.000000 0.023678 0.000000
# 6 0.000000 0.000000 0.000000 0.000000 0.000000 0.016652
#
#
# Mechanical properties :
#
#
# Convention : Reuss Voigt Hill
#
# Bulk Modulus (GPa) = 97.11826 102.04937 99.58381
# Shear Modulus (GPa) = 48.12828 69.09431 58.61129
#
# Velocity S-wave (km/s) = 4.71479 5.64916 5.20299
# Velocity P-wave (km/s) = 8.63108 9.47020 9.06036
#
# Compressibility (1/GPa) = 0.01029673
#
# Stress axis : x y z
#
# Youngs Moduli (GPa) = 70.26294 149.28988 89.16821
#
# Poissons Ratio (x) = 0.34321 0.56180
# Poissons Ratio (y) = 0.16153 0.20730
# Poissons Ratio (z) = 0.44269 0.34708
#
# Static dielectric constant tensor:
#      x y z
#    x 1.695550 0.000000 0.000000 
#    y 0.000000 1.753370 0.000000 
#    z 0.000000 0.000000 1.889320 
# 
# From -- ./inp_files/29737.got.cif
#   From: 2010.05.17/outbox.cif.g08.bks.cpg/sg21_15_cif.got.tgz:29737.got - 2010.06.03 23:14:55.
