data_PCOD9325641
_publ_section_title
;
Structure prediction by ZEFSAII (Michael W. Deem and Ramdas Pophale) SiO2 
 PCOD9325641
Probable space group: C 2 2 2
;
_chemical_formula_sum "Si O2"
_cell_formula_units_Z 44
_cell_length_a 7.219512
_cell_length_b 33.355563
_cell_length_c 6.832232
_cell_angle_alpha 90.000000
_cell_angle_beta 90.000000
_cell_angle_gamma 90.000000
_cell_volume 1645.275850
_symmetry_space_group_name_H-M "C 2 2 2"
_symmetry_group_IT_number 21
_symmetry_cell_setting 'orthorhombic'
loop_
_space_group_symop_operation_xyz
x,y,z
-x,-y,z
x,-y,-z
-x,y,-z
1/2+x,1/2+y,z
1/2-x,1/2-y,z
1/2+x,1/2-y,-z
1/2-x,1/2+y,-z
loop_
_atom_site_type_symbol
_atom_site_label
_atom_site_fract_x
_atom_site_fract_y
_atom_site_fract_z
Si Si1 0.343428 0.123200 0.380974
Si Si2 0.132671 0.377235 0.872650
Si Si3 0.185516 0.037082 0.879138
Si Si4 0.644946 0.708097 0.375805
Si Si5 0.855880 0.793124 0.874361
Si Si6 0.000000 0.935825 0.500000
O O1 0.409573 0.118555 0.622632
O O2 0.270789 0.168707 0.386938
O O3 0.158888 0.092686 0.394743
O O4 0.398679 0.124397 0.131012
O O5 0.204729 0.422455 0.889157
O O6 0.246132 0.335635 0.865002
O O7 0.114468 0.036976 0.654685
O O8 0.000000 0.043231 0.000000
O O9 0.275060 0.000000 0.000000
O O10 0.750000 0.750000 0.370268
O O11 0.590848 0.708260 0.626369
O O12 0.594885 0.705368 0.123998
O O13 0.750000 0.750000 0.879269
#
# Coordination Sequence:
#
# PCOD9325641 Si02
#       6
#     8   8   8   8   8   4
#     4  12  23  43  73 109 147 206 260 316 396 478
#     4  12  24  44  72 110 152 203 263 327 392 475
#     4  11  26  49  80 117 156 204 259 327 405 482
#     4  12  23  39  61  99 149 201 260 327 383 455
#     4  12  24  42  65 103 152 211 266 328 396 463
#     4  12  24  51  82 114 158 208 256 322 404 482
#
# _framework density 26.743238000000002
#
# number of rings (size 3 to 8) (size 9 to 14) (size 15 to 20)
#    0.000    0.182    2.727    8.182    0.000    1.818 
#    0.000    0.909    0.000    0.000    0.000    0.000 
#    0.000    0.000    0.000    0.000    0.000    0.000 
#
# Total GULP energy -122783.654140 kJ/mol
# GULP energy per Si atom -5581.075188 kJ/mol
# Density = 2.668237 g / cm^3
# Si number density = 26.743238 Si / 1000 Ang^3
#
#
#
# Elastic Constant Matrix: (Units=GPa)
#
#
# Indices 1 2 3 4 5 6 
#
# 1 135.7304 123.5057 91.1480 0.0000 0.0000 0.0000
# 2 123.5057 291.8806 104.4196 0.0000 0.0000 0.0000
# 3 91.1480 104.4196 310.6696 0.0000 0.0000 0.0000
# 4 0.0000 0.0000 0.0000 60.4234 0.0000 0.0000
# 5 0.0000 0.0000 0.0000 0.0000 111.8031 0.0000
# 6 0.0000 0.0000 0.0000 0.0000 0.0000 32.6298
#
#
#
# Elastic Compliance Matrix: (Units=1/GPa)
#
#
# Indices 1 2 3 4 5 6 
#
# 1 0.013263 -0.004797 -0.002279 0.000000 0.000000 0.000000
# 2 -0.004797 0.005629 -0.000485 0.000000 0.000000 0.000000
# 3 -0.002279 -0.000485 0.004050 0.000000 0.000000 0.000000
# 4 0.000000 0.000000 0.000000 0.016550 0.000000 0.000000
# 5 0.000000 0.000000 0.000000 0.000000 0.008944 0.000000
# 6 0.000000 0.000000 0.000000 0.000000 0.000000 0.030647
#
#
# Mechanical properties :
#
#
# Convention : Reuss Voigt Hill
#
# Bulk Modulus (GPa) = 127.85239 152.93635 140.39437
# Shear Modulus (GPa) = 51.64723 68.91842 60.28282
#
# Velocity S-wave (km/s) = 4.39934 5.08196 4.75292
# Velocity P-wave (km/s) = 8.58584 9.57842 9.09568
#
# Compressibility (1/GPa) = 0.00782152
#
# Stress axis : x y z
#
# Youngs Moduli (GPa) = 75.40052 177.64887 246.88971
#
# Poissons Ratio (x) = 0.85211 0.56264
# Poissons Ratio (y) = 0.36167 0.11967
# Poissons Ratio (z) = 0.17183 0.08611
#
# Static dielectric constant tensor:
#      x y z
#    x 2.198010 0.000000 0.000000 
#    y 0.000000 1.853070 0.000000 
#    z 0.000000 0.000000 2.362010 
# 
# From -- ./inp_files/4015.got.cif
#   From: 2010.05.17/outbox.cif.g08.bks.cpg/sg21_3_cif.got.tgz:4015.got - 2010.06.03 23:14:55.
