data_PCOD9325532
_publ_section_title
;
Structure prediction by ZEFSAII (Michael W. Deem and Ramdas Pophale) SiO2 
 PCOD9325532
Probable space group: C 2 2 2
;
_chemical_formula_sum "Si O2"
_cell_formula_units_Z 24
_cell_length_a 12.294546
_cell_length_b 17.200812
_cell_length_c 4.900121
_cell_angle_alpha 90.000000
_cell_angle_beta 90.000000
_cell_angle_gamma 90.000000
_cell_volume 1036.258843
_symmetry_space_group_name_H-M "C 2 2 2"
_symmetry_group_IT_number 21
_symmetry_cell_setting 'orthorhombic'
loop_
_space_group_symop_operation_xyz
x,y,z
-x,-y,z
x,-y,-z
-x,y,-z
1/2+x,1/2+y,z
1/2-x,1/2-y,z
1/2+x,1/2-y,-z
1/2-x,1/2+y,-z
loop_
_atom_site_type_symbol
_atom_site_label
_atom_site_fract_x
_atom_site_fract_y
_atom_site_fract_z
Si Si1 0.231769 0.083105 0.489115
Si Si2 0.127858 0.621659 0.979887
Si Si3 0.574182 0.286677 0.752820
O O1 0.323509 0.070434 0.260775
O O2 0.152728 0.149428 0.375119
O O3 0.172682 0.000000 0.500000
O O4 0.295192 0.110496 0.758869
O O5 0.131708 0.711593 0.881681
O O6 0.000000 0.604582 0.000000
O O7 0.500000 0.258169 0.500000
O O8 0.500000 0.319316 0.000000
#
# Coordination Sequence:
#
# PCOD9325532 Si02
#       3
#     8   8   8
#     4  12  26  44  69 102 139 177 219 279 346 403
#     4  11  24  43  68  99 134 178 228 276 331 401
#     4  11  24  45  72  99 132 179 233 283 330 396
#
# _framework density 23.160239000000001
#
# number of rings (size 3 to 8) (size 9 to 14) (size 15 to 20)
#    0.000    0.667    0.000    9.000    0.000   10.000 
#    0.000    1.667    0.000    0.000    0.000    0.000 
#    0.000    0.000    0.000    0.000    0.000    0.000 
#
# Total GULP energy -67177.175226 kJ/mol
# GULP energy per Si atom -5598.097936 kJ/mol
# Density = 2.310752 g / cm^3
# Si number density = 23.160239 Si / 1000 Ang^3
#
#
#
# Elastic Constant Matrix: (Units=GPa)
#
#
# Indices 1 2 3 4 5 6 
#
# 1 56.0279 48.2293 44.8086 0.0000 0.0000 0.0000
# 2 48.2293 138.8475 49.1755 0.0000 0.0000 0.0000
# 3 44.8086 49.1755 189.6383 0.0000 0.0000 0.0000
# 4 0.0000 0.0000 0.0000 13.7541 0.0000 0.0000
# 5 0.0000 0.0000 0.0000 0.0000 40.7475 0.0000
# 6 0.0000 0.0000 0.0000 0.0000 0.0000 11.4382
#
#
#
# Elastic Compliance Matrix: (Units=1/GPa)
#
#
# Indices 1 2 3 4 5 6 
#
# 1 0.028726 -0.008340 -0.004625 0.000000 0.000000 0.000000
# 2 -0.008340 0.010352 -0.000714 0.000000 0.000000 0.000000
# 3 -0.004625 -0.000714 0.006551 0.000000 0.000000 0.000000
# 4 0.000000 0.000000 0.000000 0.072705 0.000000 0.000000
# 5 0.000000 0.000000 0.000000 0.000000 0.024541 0.000000
# 6 0.000000 0.000000 0.000000 0.000000 0.000000 0.087426
#
#
# Mechanical properties :
#
#
# Convention : Reuss Voigt Hill
#
# Bulk Modulus (GPa) = 54.72942 74.32675 64.52808
# Shear Modulus (GPa) = 18.95731 29.34133 24.14932
#
# Velocity S-wave (km/s) = 2.86410 3.56319 3.23260
# Velocity P-wave (km/s) = 5.88383 7.00646 6.46954
#
# Compressibility (1/GPa) = 0.01827171
#
# Stress axis : x y z
#
# Youngs Moduli (GPa) = 34.81120 96.60017 152.64713
#
# Poissons Ratio (x) = 0.80567 0.70597
# Poissons Ratio (y) = 0.29033 0.10895
# Poissons Ratio (z) = 0.16100 0.06894
#
# Static dielectric constant tensor:
#      x y z
#    x 1.906290 0.000000 0.000000 
#    y 0.000000 1.911280 0.000000 
#    z 0.000000 0.000000 1.871610 
# 
# From -- ./inp_files/2072.got.cif
#   From: 2010.05.17/outbox.cif.g08.bks.cpg/sg21_2_cif.got.tgz:2072.got - 2010.06.03 23:14:55.
