data_PCOD9325695
_publ_section_title
;
Structure prediction by ZEFSAII (Michael W. Deem and Ramdas Pophale) SiO2 
 PCOD9325695
Probable space group: C 2 2 2
;
_chemical_formula_sum "Si O2"
_cell_formula_units_Z 32
_cell_length_a 4.834483
_cell_length_b 21.936631
_cell_length_c 13.293951
_cell_angle_alpha 90.000000
_cell_angle_beta 90.000000
_cell_angle_gamma 90.000000
_cell_volume 1409.853676
_symmetry_space_group_name_H-M "C 2 2 2"
_symmetry_group_IT_number 21
_symmetry_cell_setting 'orthorhombic'
loop_
_space_group_symop_operation_xyz
x,y,z
-x,-y,z
x,-y,-z
-x,y,-z
1/2+x,1/2+y,z
1/2-x,1/2-y,z
1/2+x,1/2-y,-z
1/2-x,1/2+y,-z
loop_
_atom_site_type_symbol
_atom_site_label
_atom_site_fract_x
_atom_site_fract_y
_atom_site_fract_z
Si Si1 0.623341 0.432545 0.223498
Si Si2 0.257723 0.129850 0.569364
Si Si3 0.750000 0.750000 0.182998
Si Si4 0.750000 0.750000 0.678892
Si Si5 0.622744 0.880026 0.108842
O O1 0.500000 0.500000 0.223175
O O2 0.638345 0.409402 0.338360
O O3 0.431352 0.398178 0.141266
O O4 0.931532 0.417872 0.185530
O O5 0.500000 0.102019 0.500000
O O6 0.365021 0.193396 0.616117
O O7 0.000000 0.145661 0.500000
O O8 0.500970 0.726199 0.252868
O O9 0.620876 0.806832 0.123568
O O10 0.500000 0.894833 0.000000
#
# Coordination Sequence:
#
# PCOD9325695 Si02
#       5
#     8   8   4   4   8
#     4  12  27  49  71 102 147 194 248 307 359 437
#     4  12  24  43  72 106 140 188 240 300 375 443
#     4  12  22  44  72 104 148 182 232 300 382 436
#     4  12  22  42  72 102 148 186 224 308 374 446
#     4  12  26  46  75 106 144 192 241 304 374 446
#
# _framework density 22.697393000000002
#
# number of rings (size 3 to 8) (size 9 to 14) (size 15 to 20)
#    0.000    0.000    5.000    5.250    0.000    6.500 
#    0.000    1.250    0.000    0.000    0.000    0.000 
#    0.000    0.000    0.000    0.000    0.000    0.000 
#
# Total GULP energy -89436.413571 kJ/mol
# GULP energy per Si atom -5589.775848 kJ/mol
# Density = 2.264573 g / cm^3
# Si number density = 22.697393 Si / 1000 Ang^3
#
#
#
# Elastic Constant Matrix: (Units=GPa)
#
#
# Indices 1 2 3 4 5 6 
#
# 1 91.8428 -14.8983 5.9852 0.0000 0.0000 0.0000
# 2 -14.8983 109.8537 24.5787 0.0000 0.0000 0.0000
# 3 5.9852 24.5787 105.7518 0.0000 0.0000 0.0000
# 4 0.0000 0.0000 0.0000 5.0528 0.0000 0.0000
# 5 0.0000 0.0000 0.0000 0.0000 35.7008 0.0000
# 6 0.0000 0.0000 0.0000 0.0000 0.0000 30.7291
#
#
#
# Elastic Compliance Matrix: (Units=1/GPa)
#
#
# Indices 1 2 3 4 5 6 
#
# 1 0.011241 0.001758 -0.001045 0.000000 0.000000 0.000000
# 2 0.001758 0.009877 -0.002395 0.000000 0.000000 0.000000
# 3 -0.001045 -0.002395 0.010072 0.000000 0.000000 0.000000
# 4 0.000000 0.000000 0.000000 0.197909 0.000000 0.000000
# 5 0.000000 0.000000 0.000000 0.000000 0.028011 0.000000
# 6 0.000000 0.000000 0.000000 0.000000 0.000000 0.032542
#
#
# Mechanical properties :
#
#
# Convention : Reuss Voigt Hill
#
# Bulk Modulus (GPa) = 35.93593 37.64216 36.78904
# Shear Modulus (GPa) = 16.54032 33.74873 25.14453
#
# Velocity S-wave (km/s) = 2.70243 3.86022 3.33200
# Velocity P-wave (km/s) = 5.06009 6.04059 5.57195
#
# Compressibility (1/GPa) = 0.02782730
#
# Stress axis : x y z
#
# Youngs Moduli (GPa) = 88.95617 101.24132 99.28584
#
# Poissons Ratio (x) = -0.17802 0.10374
# Poissons Ratio (y) = -0.15642 0.23781
# Poissons Ratio (z) = 0.09295 0.24249
#
# Static dielectric constant tensor:
#      x y z
#    x 1.817030 0.000000 0.000000 
#    y 0.000000 1.934010 0.000000 
#    z 0.000000 0.000000 1.869160 
# 
# From -- ./inp_files/20694.got.cif
#   From: 2010.05.17/outbox.cif.g08.bks.cpg/sg21_11_cif.got.tgz:20694.got - 2010.06.03 23:14:55.
