data_PCOD9325671
_publ_section_title
;
Structure prediction by ZEFSAII (Michael W. Deem and Ramdas Pophale) SiO2 
 PCOD9325671
Probable space group: C 2 2 2
;
_chemical_formula_sum "Si O2"
_cell_formula_units_Z 38
_cell_length_a 8.463169
_cell_length_b 21.771224
_cell_length_c 9.339131
_cell_angle_alpha 90.000000
_cell_angle_beta 90.000000
_cell_angle_gamma 90.000000
_cell_volume 1720.768022
_symmetry_space_group_name_H-M "C 2 2 2"
_symmetry_group_IT_number 21
_symmetry_cell_setting 'orthorhombic'
loop_
_space_group_symop_operation_xyz
x,y,z
-x,-y,z
x,-y,-z
-x,y,-z
1/2+x,1/2+y,z
1/2-x,1/2-y,z
1/2+x,1/2-y,-z
1/2-x,1/2+y,-z
loop_
_atom_site_type_symbol
_atom_site_label
_atom_site_fract_x
_atom_site_fract_y
_atom_site_fract_z
Si Si1 0.949015 0.141559 0.663850
Si Si2 0.750000 0.250000 0.663545
Si Si3 0.500000 0.100555 0.000000
Si Si4 0.000000 0.665127 0.500000
Si Si5 0.000000 0.000000 0.000000
Si Si6 0.753448 0.540680 0.212550
Si Si7 0.795907 0.396186 0.252084
O O1 0.862572 0.199683 0.736791
O O2 0.819291 0.086150 0.668502
O O3 0.000000 0.155303 0.500000
O O4 0.116009 0.125513 0.733530
O O5 0.632557 0.208127 0.570707
O O6 0.401270 0.063879 0.120618
O O7 0.630826 0.129713 0.103432
O O8 0.909765 0.626018 0.620535
O O9 0.111904 0.039623 0.098574
O O10 0.784953 0.470619 0.256105
#
# Coordination Sequence:
#
# PCOD9325671 Si02
#       7
#     8   4   4   4   2   8   8
#     4  12  25  46  73 106 141 187 240 302 354 426
#     4  12  24  48  72 100 136 192 244 298 364 412
#     4  12  25  44  68 109 153 196 226 274 363 448
#     4  12  24  46  73 102 137 188 242 310 344 424
#     4  12  20  42  70 102 146 194 216 286 362 446
#     4  12  23  44  71 108 149 184 231 287 366 434
#     4  12  24  43  71 108 147 183 236 295 362 432
#
# _framework density 22.083162999999999
#
# number of rings (size 3 to 8) (size 9 to 14) (size 15 to 20)
#    0.000    0.000    7.368    2.526    0.000    1.684 
#    3.789    0.000    0.000   30.316    0.000    0.000 
#    0.000    0.000    0.000    0.000    0.000    0.000 
#
# Total GULP energy -106104.936364 kJ/mol
# GULP energy per Si atom -5584.470335 kJ/mol
# Density = 2.203290 g / cm^3
# Si number density = 22.083163 Si / 1000 Ang^3
#
#
#
# Elastic Constant Matrix: (Units=GPa)
#
#
# Indices 1 2 3 4 5 6 
#
# 1 172.4988 53.6817 47.3443 0.0000 0.0000 0.0000
# 2 53.6817 83.4483 39.2235 0.0000 0.0000 0.0000
# 3 47.3443 39.2235 55.1181 0.0000 0.0000 0.0000
# 4 0.0000 0.0000 0.0000 -18.7806 0.0000 0.0000
# 5 0.0000 0.0000 0.0000 0.0000 53.3714 0.0000
# 6 0.0000 0.0000 0.0000 0.0000 0.0000 33.1288
#
#
#
# Elastic Compliance Matrix: (Units=1/GPa)
#
#
# Indices 1 2 3 4 5 6 
#
# 1 0.008023 -0.002888 -0.004837 0.000000 0.000000 0.000000
# 2 -0.002888 0.019046 -0.011073 0.000000 0.000000 0.000000
# 3 -0.004837 -0.011073 0.030177 0.000000 0.000000 0.000000
# 4 0.000000 0.000000 0.000000 -0.053247 0.000000 0.000000
# 5 0.000000 0.000000 0.000000 0.000000 0.018737 0.000000
# 6 0.000000 0.000000 0.000000 0.000000 0.000000 0.030185
#
#
# Mechanical properties :
#
#
# Convention : Reuss Voigt Hill
#
# Bulk Modulus (GPa) = 50.88697 65.72935 58.30816
# Shear Modulus (GPa) = 51.51076 24.93164 38.22120
#
# Velocity S-wave (km/s) = 4.83492 3.36369 4.16478
# Velocity P-wave (km/s) = 7.36627 6.70186 7.04191
#
# Compressibility (1/GPa) = 0.01965140
#
# Stress axis : x y z
#
# Youngs Moduli (GPa) = 124.63633 52.50466 33.13774
#
# Poissons Ratio (x) = 0.15163 0.16027
# Poissons Ratio (y) = 0.35995 0.36693
# Poissons Ratio (z) = 0.60281 0.58138
#
# Static dielectric constant tensor:
#      x y z
#    x 1.746160 0.000000 0.000000 
#    y 0.000000 1.866840 0.000000 
#    z 0.000000 0.000000 1.853220 
# 
# From -- ./inp_files/11016.got.cif
#   From: 2010.05.17/outbox.cif.g08.bks.cpg/sg21_6_cif.got.tgz:11016.got - 2010.06.03 23:14:55.
