data_PCOD9325047
_publ_section_title
;
Structure prediction by ZEFSAII (Michael W. Deem and Ramdas Pophale) SiO2 
 PCOD9325047
Probable space group: C 2 2 2
;
_chemical_formula_sum "Si O2"
_cell_formula_units_Z 24
_cell_length_a 12.960994
_cell_length_b 14.775884
_cell_length_c 5.143167
_cell_angle_alpha 90.000000
_cell_angle_beta 90.000000
_cell_angle_gamma 90.000000
_cell_volume 984.968652
_symmetry_space_group_name_H-M "C 2 2 2"
_symmetry_group_IT_number 21
_symmetry_cell_setting 'orthorhombic'
loop_
_space_group_symop_operation_xyz
x,y,z
-x,-y,z
x,-y,-z
-x,y,-z
1/2+x,1/2+y,z
1/2-x,1/2-y,z
1/2+x,1/2-y,-z
1/2-x,1/2+y,-z
loop_
_atom_site_type_symbol
_atom_site_label
_atom_site_fract_x
_atom_site_fract_y
_atom_site_fract_z
Si Si1 0.381155 0.901872 0.088881
Si Si2 0.622488 0.698894 0.048971
Si Si3 0.216616 0.103849 0.547225
O O1 0.350675 0.805245 0.967667
O O2 0.340688 0.892179 0.387985
O O3 0.500000 0.907658 0.000000
O O4 0.336030 0.000000 0.000000
O O5 0.669578 0.641429 0.813302
O O6 0.500000 0.692828 0.000000
O O7 0.663802 0.659960 0.319000
O O8 0.190573 0.000000 0.500000
#
# Coordination Sequence:
#
# PCOD9325047 Si02
#       3
#     8   8   8
#     4  10  24  48  74 107 147 192 245 304 367 435
#     4  11  26  48  75 107 146 192 243 303 366 434
#     4  12  26  46  74 108 146 193 244 299 365 436
#
# _framework density 24.366257999999998
#
# number of rings (size 3 to 8) (size 9 to 14) (size 15 to 20)
#    0.000    1.000    0.000    5.000    0.000   14.667 
#    0.000   25.000    0.000    0.000    0.000    0.000 
#    0.000    0.000    0.000    0.000    0.000    0.000 
#
# Total GULP energy -67036.260871 kJ/mol
# GULP energy per Si atom -5586.355073 kJ/mol
# Density = 2.431080 g / cm^3
# Si number density = 24.366258 Si / 1000 Ang^3
#
#
#
# Elastic Constant Matrix: (Units=GPa)
#
#
# Indices 1 2 3 4 5 6 
#
# 1 144.0417 52.5789 66.7383 0.0000 0.0000 0.0000
# 2 52.5789 255.2808 78.3954 0.0000 0.0000 0.0000
# 3 66.7383 78.3954 172.8145 0.0000 0.0000 0.0000
# 4 0.0000 0.0000 0.0000 34.4716 0.0000 0.0000
# 5 0.0000 0.0000 0.0000 0.0000 48.2817 0.0000
# 6 0.0000 0.0000 0.0000 0.0000 0.0000 30.5749
#
#
#
# Elastic Compliance Matrix: (Units=1/GPa)
#
#
# Indices 1 2 3 4 5 6 
#
# 1 0.008620 -0.000875 -0.002932 0.000000 0.000000 0.000000
# 2 -0.000875 0.004640 -0.001767 0.000000 0.000000 0.000000
# 3 -0.002932 -0.001767 0.007720 0.000000 0.000000 0.000000
# 4 0.000000 0.000000 0.000000 0.029009 0.000000 0.000000
# 5 0.000000 0.000000 0.000000 0.000000 0.020712 0.000000
# 6 0.000000 0.000000 0.000000 0.000000 0.000000 0.032707
#
#
# Mechanical properties :
#
#
# Convention : Reuss Voigt Hill
#
# Bulk Modulus (GPa) = 101.70213 107.50692 104.60453
# Shear Modulus (GPa) = 42.43237 47.62726 45.02981
#
# Velocity S-wave (km/s) = 4.17758 4.42593 4.30355
# Velocity P-wave (km/s) = 8.06840 8.38662 8.22905
#
# Compressibility (1/GPa) = 0.00983264
#
# Stress axis : x y z
#
# Youngs Moduli (GPa) = 116.00432 215.51142 129.52586
#
# Poissons Ratio (x) = 0.18859 0.37978
# Poissons Ratio (y) = 0.10151 0.22887
# Poissons Ratio (z) = 0.34014 0.38081
#
# Static dielectric constant tensor:
#      x y z
#    x 2.164150 0.000000 0.000000 
#    y 0.000000 1.888700 0.000000 
#    z 0.000000 0.000000 1.971100 
# 
# From -- ./inp_files/3176.got.cif
#   From: 2010.05.17/outbox.cif.g08.bks.cpg/sg21_2_cif.got.tgz:3176.got - 2010.06.03 23:14:55.
