data_PCOD9325224
_publ_section_title
;
Structure prediction by ZEFSAII (Michael W. Deem and Ramdas Pophale) SiO2 
 PCOD9325224
Probable space group: C 2 2 2
;
_chemical_formula_sum "Si O2"
_cell_formula_units_Z 56
_cell_length_a 20.353141
_cell_length_b 9.425939
_cell_length_c 14.837060
_cell_angle_alpha 90.000000
_cell_angle_beta 90.000000
_cell_angle_gamma 90.000000
_cell_volume 2846.452357
_symmetry_space_group_name_H-M "C 2 2 2"
_symmetry_group_IT_number 21
_symmetry_cell_setting 'orthorhombic'
loop_
_space_group_symop_operation_xyz
x,y,z
-x,-y,z
x,-y,-z
-x,y,-z
1/2+x,1/2+y,z
1/2-x,1/2-y,z
1/2+x,1/2-y,-z
1/2-x,1/2+y,-z
loop_
_atom_site_type_symbol
_atom_site_label
_atom_site_fract_x
_atom_site_fract_y
_atom_site_fract_z
Si Si1 0.496280 0.328669 0.606467
Si Si2 0.924489 0.980199 0.142512
Si Si3 0.782037 0.906077 0.084092
Si Si4 0.872371 0.785464 0.724520
Si Si5 0.612600 0.733308 0.293078
Si Si6 0.205648 0.010328 0.392145
Si Si7 0.804953 0.509034 0.250450
O O1 0.500000 0.500000 0.628971
O O2 0.500000 0.326860 0.500000
O O3 0.433093 0.268688 0.656672
O O4 0.556392 0.230816 0.637414
O O5 0.898217 0.123860 0.190100
O O6 0.861950 0.918812 0.085963
O O7 0.925710 0.867111 0.223355
O O8 0.000000 0.000000 0.108280
O O9 0.750000 0.750000 0.076461
O O10 0.753529 0.969220 0.178141
O O11 0.759069 0.000000 0.000000
O O12 0.822071 0.874488 0.662016
O O13 0.839429 0.641584 0.757863
O O14 0.664756 0.640769 0.349827
O O15 0.645941 0.859899 0.240040
O O16 0.199867 0.000000 0.500000
O O17 0.278364 0.024737 0.352646
#
# Coordination Sequence:
#
# PCOD9325224 Si02
#       7
#     8   8   8   8   8   8   8
#     4  11  20  36  60  88 123 177 236 274 317 391
#     4  11  21  43  71  96 125 171 226 263 320 405
#     4  12  27  47  75 105 135 172 217 280 350 415
#     4  11  22  36  61  94 124 170 223 272 322 388
#     4  11  20  39  61  87 127 171 218 270 327 386
#     4  11  22  37  59  85 122 172 221 267 326 396
#     4  12  25  40  61  94 135 166 214 278 342 397
#
# _framework density 19.673611999999999
#
# number of rings (size 3 to 8) (size 9 to 14) (size 15 to 20)
#    0.000    0.714    8.571    1.714    2.000    4.286 
#    0.000    0.714    0.000    0.000    0.000    0.000 
#    0.000    0.000    0.000    0.000    0.000    0.000 
#
# Total GULP energy -156103.093225 kJ/mol
# GULP energy per Si atom -5575.110472 kJ/mol
# Density = 1.962883 g / cm^3
# Si number density = 19.673612 Si / 1000 Ang^3
#
#
#
# Elastic Constant Matrix: (Units=GPa)
#
#
# Indices 1 2 3 4 5 6 
#
# 1 107.8891 45.6764 21.3907 0.0000 0.0000 0.0000
# 2 45.6764 94.0887 32.7133 0.0000 0.0000 0.0000
# 3 21.3907 32.7133 83.5884 0.0000 0.0000 0.0000
# 4 0.0000 0.0000 0.0000 16.1863 0.0000 0.0000
# 5 0.0000 0.0000 0.0000 0.0000 11.6872 0.0000
# 6 0.0000 0.0000 0.0000 0.0000 0.0000 -0.1419
#
#
#
# Elastic Compliance Matrix: (Units=1/GPa)
#
#
# Indices 1 2 3 4 5 6 
#
# 1 0.011724 -0.005381 -0.000894 0.000000 0.000000 0.000000
# 2 -0.005381 0.014772 -0.004404 0.000000 0.000000 0.000000
# 3 -0.000894 -0.004404 0.013916 0.000000 0.000000 0.000000
# 4 0.000000 0.000000 0.000000 0.061781 0.000000 0.000000
# 5 0.000000 0.000000 0.000000 0.000000 0.085563 0.000000
# 6 0.000000 0.000000 0.000000 0.000000 0.000000 -7.046925
#
#
# Mechanical properties :
#
#
# Convention : Reuss Voigt Hill
#
# Bulk Modulus (GPa) = 52.48469 53.90298 53.19384
# Shear Modulus (GPa) = -0.73191 17.93206 8.60008
#
# Velocity S-wave (km/s) = -0.61060 3.02234 2.09305
# Velocity P-wave (km/s) = 5.12235 6.29583 5.73917
#
# Compressibility (1/GPa) = 0.01905317
#
# Stress axis : x y z
#
# Youngs Moduli (GPa) = 85.29467 67.69764 71.86027
#
# Poissons Ratio (x) = 0.36425 0.06428
# Poissons Ratio (y) = 0.45893 0.31648
# Poissons Ratio (z) = 0.07630 0.29815
#
# Static dielectric constant tensor:
#      x y z
#    x 1.670480 0.000000 0.000000 
#    y 0.000000 1.694760 0.000000 
#    z 0.000000 0.000000 1.714910 
# 
# From -- ./inp_files/33309.got.cif
#   From: 2010.05.17/outbox.cif.g08.bks.cpg/sg21_17_cif.got.tgz:33309.got - 2010.06.03 23:14:55.
