data_PCOD9325966
_publ_section_title
;
Structure prediction by ZEFSAII (Michael W. Deem and Ramdas Pophale) SiO2 
 PCOD9325966
Probable space group: F 2 2 2
;
_chemical_formula_sum "Si O2"
_cell_formula_units_Z 72
_cell_length_a 28.116386
_cell_length_b 5.529395
_cell_length_c 19.016166
_cell_angle_alpha 90.000000
_cell_angle_beta 90.000000
_cell_angle_gamma 90.000000
_cell_volume 2956.378752
_symmetry_space_group_name_H-M "F 2 2 2"
_symmetry_group_IT_number 22
_symmetry_cell_setting 'orthorhombic'
loop_
_space_group_symop_operation_xyz
x,y,z
-x,-y,z
x,-y,-z
-x,y,-z
x,1/2+y,1/2+z
-x,1/2-y,1/2+z
x,1/2-y,1/2-z
-x,1/2+y,1/2-z
1/2+x,y,1/2+z
1/2-x,-y,1/2+z
1/2+x,-y,1/2-z
1/2-x,y,1/2-z
1/2+x,1/2+y,z
1/2-x,1/2-y,z
1/2+x,1/2-y,-z
1/2-x,1/2+y,-z
loop_
_atom_site_type_symbol
_atom_site_label
_atom_site_fract_x
_atom_site_fract_y
_atom_site_fract_z
Si Si1 0.369145 0.217555 0.640407
Si Si2 0.658844 0.791437 0.122815
Si Si3 0.774740 0.500000 0.000000
Si Si4 0.918430 0.749582 0.491813
Si Si5 0.980163 0.747059 0.668958
O O1 0.346561 0.466815 0.668267
O O2 0.377919 0.239112 0.554504
O O3 0.423336 0.219853 0.667039
O O4 0.338137 0.977524 0.653855
O O5 0.696634 0.872000 0.063973
O O6 0.608424 0.762499 0.081924
O O7 0.750000 0.750000 0.970569
O O8 0.944580 0.500000 0.500000
O O9 0.944447 0.000000 0.500000
O O10 0.996839 0.750000 0.750000
O O11 0.000000 0.500000 0.636857
O O12 0.000000 0.000000 0.639228
#
# Coordination Sequence:
#
# PCOD9325966 Si02
#       5
#    16  16   8  16  16
#     4  10  17  30  54  66  94 140 177 198 254 302
#     4  10  18  32  47  73  99 140 173 201 243 298
#     4  12  22  30  48  78 115 142 167 208 268 300
#     4   8  14  24  44  61  86 119 167 189 233 268
#     4  10  21  36  52  76 105 128 164 228 290 313
#
# _framework density 24.354120000000002
#
# number of rings (size 3 to 8) (size 9 to 14) (size 15 to 20)
#    0.000    2.222    3.333    2.667    1.556    0.000 
#    0.000    0.000    0.000   36.000    0.000    0.000 
#    0.000   13.333    0.000    0.000    0.000    0.000 
#
# Total GULP energy -100237.056414 kJ/mol
# GULP energy per Si atom -5568.725356 kJ/mol
# Density = 2.429869 g / cm^3
# Si number density = 24.354120 Si / 1000 Ang^3
#
#
#
# Elastic Constant Matrix: (Units=GPa)
#
#
# Indices 1 2 3 4 5 6 
#
# 1 53.9184 52.0361 -0.1683 -0.0003 0.0001 -0.0007
# 2 52.0361 350.6650 9.4244 -0.0028 0.0011 -0.0042
# 3 -0.1683 9.4244 48.7484 -0.0009 0.0004 0.0004
# 4 -0.0003 -0.0028 -0.0009 -7.8341 0.0007 -0.0013
# 5 0.0001 0.0011 0.0004 0.0007 8.3854 -0.0013
# 6 -0.0007 -0.0042 0.0004 -0.0013 -0.0013 -84.6269
#
#
#
# Elastic Compliance Matrix: (Units=1/GPa)
#
#
# Indices 1 2 3 4 5 6 
#
# 1 0.021670 -0.003235 0.000700 0.000000 0.000000 0.000000
# 2 -0.003235 0.003349 -0.000659 -0.000001 0.000000 0.000000
# 3 0.000700 -0.000659 0.020643 -0.000002 -0.000001 0.000000
# 4 0.000000 -0.000001 -0.000002 -0.127648 0.000011 0.000002
# 5 0.000000 0.000000 -0.000001 0.000011 0.119255 -0.000002
# 6 0.000000 0.000000 0.000000 0.000002 -0.000002 -0.011817
#
#
# Mechanical properties :
#
#
# Convention : Reuss Voigt Hill
#
# Bulk Modulus (GPa) = 25.46034 63.99069 44.72552
# Shear Modulus (GPa) = 111.27775 9.32085 60.29930
#
# Velocity S-wave (km/s) = 6.76689 1.95845 4.98128
# Velocity P-wave (km/s) = 8.45761 5.60769 7.17556
#
# Compressibility (1/GPa) = 0.03927677
#
# Stress axis : x y z
#
# Youngs Moduli (GPa) = 46.14604 298.56016 48.44198
#
# Poissons Ratio (x) = 0.96570 -0.03392
# Poissons Ratio (y) = 0.14926 0.03191
# Poissons Ratio (z) = -0.03231 0.19666
#
# Static dielectric constant tensor:
#      x y z
#    x 1.922380 0.000000 0.000000 
#    y 0.000000 2.133170 0.000000 
#    z 0.000000 0.000000 1.974670 
# 
# From -- ./inp_files/50580.got.cif
#   From: 2010.05.17/outbox.cif.g08.bks.cpg/sg22_26_cif.got.tgz:50580.got - 2010.06.03 23:40:54.
