data_PCOD9325409
_publ_section_title
;
Structure prediction by ZEFSAII (Michael W. Deem and Ramdas Pophale) SiO2 
 PCOD9325409
Probable space group: C 2 2 2
;
_chemical_formula_sum "Si O2"
_cell_formula_units_Z 40
_cell_length_a 16.013673
_cell_length_b 8.376483
_cell_length_c 13.741052
_cell_angle_alpha 90.000000
_cell_angle_beta 90.000000
_cell_angle_gamma 90.000000
_cell_volume 1843.200801
_symmetry_space_group_name_H-M "C 2 2 2"
_symmetry_group_IT_number 21
_symmetry_cell_setting 'orthorhombic'
loop_
_space_group_symop_operation_xyz
x,y,z
-x,-y,z
x,-y,-z
-x,y,-z
1/2+x,1/2+y,z
1/2-x,1/2-y,z
1/2+x,1/2-y,-z
1/2-x,1/2+y,-z
loop_
_atom_site_type_symbol
_atom_site_label
_atom_site_fract_x
_atom_site_fract_y
_atom_site_fract_z
Si Si1 0.576046 0.119482 0.209561
Si Si2 0.317134 0.629240 0.576887
Si Si3 0.008124 0.191838 0.385382
Si Si4 0.250852 0.440234 0.224146
Si Si5 0.088372 0.064394 0.890759
O O1 0.552046 0.215303 0.310616
O O2 0.580851 0.247400 0.123130
O O3 0.500000 0.000000 0.195196
O O4 0.663135 0.025972 0.207850
O O5 0.348734 0.500000 0.500000
O O6 0.250000 0.750000 0.532020
O O7 0.392983 0.722261 0.629366
O O8 0.270836 0.537531 0.662307
O O9 0.000000 0.235072 0.500000
O O10 0.000000 0.000000 0.373912
O O11 0.250000 0.250000 0.204868
O O12 0.328937 0.511266 0.165702
O O13 0.000000 0.000000 0.849514
O O14 0.094357 0.000000 0.000000
#
# Coordination Sequence:
#
# PCOD9325409 Si02
#       5
#     8   8   8   8   8
#     4  12  25  45  73 105 148 195 245 304 376 436
#     4  11  23  38  60  91 136 185 240 294 353 426
#     4  11  23  42  65  98 141 198 249 304 363 434
#     4  11  25  45  69 103 144 190 239 308 365 439
#     4  11  25  47  76 106 141 187 242 303 373 447
#
# _framework density 21.701378999999999
#
# number of rings (size 3 to 8) (size 9 to 14) (size 15 to 20)
#    0.000    0.800    2.000    7.200    2.800    2.000 
#    0.000    6.000    0.000    0.000    0.000    0.000 
#    0.000    0.000    0.000    0.000    0.000    0.000 
#
# Total GULP energy -111753.492779 kJ/mol
# GULP energy per Si atom -5587.674639 kJ/mol
# Density = 2.165199 g / cm^3
# Si number density = 21.701379 Si / 1000 Ang^3
#
#
#
# Elastic Constant Matrix: (Units=GPa)
#
#
# Indices 1 2 3 4 5 6 
#
# 1 199.9892 79.1561 37.8580 0.0000 0.0000 0.0000
# 2 79.1561 130.4119 63.3632 0.0000 0.0000 0.0000
# 3 37.8580 63.3632 93.4408 0.0000 0.0000 0.0000
# 4 0.0000 0.0000 0.0000 17.7616 0.0000 0.0000
# 5 0.0000 0.0000 0.0000 0.0000 22.1488 0.0000
# 6 0.0000 0.0000 0.0000 0.0000 0.0000 41.9730
#
#
#
# Elastic Compliance Matrix: (Units=1/GPa)
#
#
# Indices 1 2 3 4 5 6 
#
# 1 0.006582 -0.004026 0.000063 0.000000 0.000000 0.000000
# 2 -0.004026 0.013898 -0.007793 0.000000 0.000000 0.000000
# 3 0.000063 -0.007793 0.015961 0.000000 0.000000 0.000000
# 4 0.000000 0.000000 0.000000 0.056301 0.000000 0.000000
# 5 0.000000 0.000000 0.000000 0.000000 0.045149 0.000000
# 6 0.000000 0.000000 0.000000 0.000000 0.000000 0.023825
#
#
# Mechanical properties :
#
#
# Convention : Reuss Voigt Hill
#
# Bulk Modulus (GPa) = 77.34406 87.17738 82.26072
# Shear Modulus (GPa) = 26.38006 32.60767 29.49387
#
# Velocity S-wave (km/s) = 3.49032 3.88050 3.69057
# Velocity P-wave (km/s) = 7.20837 7.76764 7.49323
#
# Compressibility (1/GPa) = 0.01292924
#
# Stress axis : x y z
#
# Youngs Moduli (GPa) = 151.93806 71.95294 62.65217
#
# Poissons Ratio (x) = 0.28965 -0.00396
# Poissons Ratio (y) = 0.61164 0.48827
# Poissons Ratio (z) = -0.00960 0.56076
#
# Static dielectric constant tensor:
#      x y z
#    x 1.863300 0.000000 0.000000 
#    y 0.000000 1.797210 0.000000 
#    z 0.000000 0.000000 1.806970 
# 
# From -- ./inp_files/30191.got.cif
#   From: 2010.05.17/outbox.cif.g08.bks.cpg/sg21_16_cif.got.tgz:30191.got - 2010.06.03 23:14:55.
