data_PCOD9325666
_publ_section_title
;
Structure prediction by ZEFSAII (Michael W. Deem and Ramdas Pophale) SiO2 
 PCOD9325666
Probable space group: C 2 2 2
;
_chemical_formula_sum "Si O2"
_cell_formula_units_Z 34
_cell_length_a 27.605669
_cell_length_b 14.057096
_cell_length_c 5.379812
_cell_angle_alpha 90.000000
_cell_angle_beta 90.000000
_cell_angle_gamma 90.000000
_cell_volume 2087.665847
_symmetry_space_group_name_H-M "C 2 2 2"
_symmetry_group_IT_number 21
_symmetry_cell_setting 'orthorhombic'
loop_
_space_group_symop_operation_xyz
x,y,z
-x,-y,z
x,-y,-z
-x,y,-z
1/2+x,1/2+y,z
1/2-x,1/2-y,z
1/2+x,1/2-y,-z
1/2-x,1/2+y,-z
loop_
_atom_site_type_symbol
_atom_site_label
_atom_site_fract_x
_atom_site_fract_y
_atom_site_fract_z
Si Si1 0.948220 0.893995 0.608543
Si Si2 0.194540 0.288015 0.029540
Si Si3 0.210453 0.000000 0.500000
Si Si4 0.774723 0.500000 0.000000
Si Si5 0.652489 0.303181 0.475241
Si Si6 0.000000 0.000000 0.000000
O O1 0.904295 0.824683 0.560027
O O2 0.000000 0.861772 0.500000
O O3 0.938010 0.000000 0.500000
O O4 0.962065 0.924543 0.884560
O O5 0.250000 0.250000 0.053613
O O6 0.173001 0.245645 0.774429
O O7 0.195899 0.401949 0.011638
O O8 0.165977 0.254166 0.275286
O O9 0.242309 0.997482 0.249661
O O10 0.178315 0.094558 0.497754
#
# Coordination Sequence:
#
# PCOD9325666 Si02
#       6
#     8   8   4   4   8   2
#     4   9  20  34  54  85 118 153 184 237 282 346
#     4  12  24  39  56  84 112 155 198 237 278 342
#     4  12  20  34  59  82 116 152 187 234 270 344
#     4  12  24  39  56  76 120 150 192 247 276 312
#     4  12  23  36  59  87 115 157 194 220 291 348
#     4   8  18  34  56  78 124 150 186 222 294 336
#
# _framework density 16.28613
#
# number of rings (size 3 to 8) (size 9 to 14) (size 15 to 20)
#    0.000    1.176    5.882    2.118    6.588    0.941 
#    0.000    0.000    0.000    0.000    0.000    4.941 
#    0.000    0.000    0.000    0.000    0.000    0.000 
#
# Total GULP energy -94729.556723 kJ/mol
# GULP energy per Si atom -5572.326866 kJ/mol
# Density = 1.624906 g / cm^3
# Si number density = 16.286130 Si / 1000 Ang^3
#
#
#
# Elastic Constant Matrix: (Units=GPa)
#
#
# Indices 1 2 3 4 5 6 
#
# 1 126.8464 62.6211 64.4301 0.0000 0.0000 0.0000
# 2 62.6211 135.2863 53.4345 0.0000 0.0000 0.0000
# 3 64.4301 53.4345 128.3509 0.0000 0.0000 0.0000
# 4 0.0000 0.0000 0.0000 42.2822 0.0000 0.0000
# 5 0.0000 0.0000 0.0000 0.0000 52.3782 0.0000
# 6 0.0000 0.0000 0.0000 0.0000 0.0000 30.0955
#
#
#
# Elastic Compliance Matrix: (Units=1/GPa)
#
#
# Indices 1 2 3 4 5 6 
#
# 1 0.012024 -0.003808 -0.004451 0.000000 0.000000 0.000000
# 2 -0.003808 0.010052 -0.002273 0.000000 0.000000 0.000000
# 3 -0.004451 -0.002273 0.010972 0.000000 0.000000 0.000000
# 4 0.000000 0.000000 0.000000 0.023651 0.000000 0.000000
# 5 0.000000 0.000000 0.000000 0.000000 0.019092 0.000000
# 6 0.000000 0.000000 0.000000 0.000000 0.000000 0.033228
#
#
# Mechanical properties :
#
#
# Convention : Reuss Voigt Hill
#
# Bulk Modulus (GPa) = 83.44262 83.49497 83.46879
# Shear Modulus (GPa) = 37.29215 38.95105 38.12160
#
# Velocity S-wave (km/s) = 4.79039 4.89578 4.84337
# Velocity P-wave (km/s) = 9.05228 9.12891 9.09067
#
# Compressibility (1/GPa) = 0.01198428
#
# Stress axis : x y z
#
# Youngs Moduli (GPa) = 83.16701 99.48049 91.14313
#
# Poissons Ratio (x) = 0.37880 0.40564
# Poissons Ratio (y) = 0.31668 0.20721
# Poissons Ratio (z) = 0.37014 0.22616
#
# Static dielectric constant tensor:
#      x y z
#    x 1.530810 0.000000 0.000000 
#    y 0.000000 1.522530 0.000000 
#    z 0.000000 0.000000 1.603150 
# 
# From -- ./inp_files/2703.got.cif
#   From: 2010.05.17/outbox.cif.g08.bks.cpg/sg21_2_cif.got.tgz:2703.got - 2010.06.03 23:14:55.
