data_PCOD9325747
_publ_section_title
;
Structure prediction by ZEFSAII (Michael W. Deem and Ramdas Pophale) SiO2 
 PCOD9325747
Probable space group: C 2 2 2
;
_chemical_formula_sum "Si O2"
_cell_formula_units_Z 34
_cell_length_a 13.899459
_cell_length_b 5.950533
_cell_length_c 17.620925
_cell_angle_alpha 90.000000
_cell_angle_beta 90.000000
_cell_angle_gamma 90.000000
_cell_volume 1457.412424
_symmetry_space_group_name_H-M "C 2 2 2"
_symmetry_group_IT_number 21
_symmetry_cell_setting 'orthorhombic'
loop_
_space_group_symop_operation_xyz
x,y,z
-x,-y,z
x,-y,-z
-x,y,-z
1/2+x,1/2+y,z
1/2-x,1/2-y,z
1/2+x,1/2-y,-z
1/2-x,1/2+y,-z
loop_
_atom_site_type_symbol
_atom_site_label
_atom_site_fract_x
_atom_site_fract_y
_atom_site_fract_z
Si Si1 0.000000 0.000000 0.500000
Si Si2 0.895787 0.614424 0.574962
Si Si3 0.250000 0.750000 0.741505
Si Si4 0.607453 0.396150 0.290075
Si Si5 0.389755 0.932010 0.163188
Si Si6 0.697488 0.000000 0.000000
O O1 0.072981 0.859032 0.451144
O O2 0.847458 0.500000 0.500000
O O3 0.864469 0.675849 0.659537
O O4 0.000000 0.500000 0.583204
O O5 0.319326 0.594716 0.691818
O O6 0.180712 0.603711 0.794549
O O7 0.500000 0.500000 0.297685
O O8 0.622098 0.310765 0.203570
O O9 0.364056 0.947027 0.075161
O O10 0.500000 0.000000 0.177185
O O11 0.750000 0.250000 0.987299
#
# Coordination Sequence:
#
# PCOD9325747 Si02
#       6
#     2   8   4   8   8   4
#     4   8  14  32  56 102 136 176 250 292 376 466
#     4   9  19  34  64 110 140 192 254 311 391 469
#     4  12  26  46  72 114 152 198 258 324 390 472
#     4  12  24  43  76 115 153 200 264 325 399 481
#     4  12  26  49  76 117 155 210 259 326 399 477
#     4  12  27  50  81 118 170 214 273 342 403 484
#
# _framework density 23.329018999999999
#
# number of rings (size 3 to 8) (size 9 to 14) (size 15 to 20)
#    0.000    1.176    4.706    3.176    0.000    0.000 
#    0.000    1.176    0.000    0.000   45.882    0.000 
#    0.000    0.000    0.000    0.000    0.000    0.000 
#
# Total GULP energy -94771.327633 kJ/mol
# GULP energy per Si atom -5574.783978 kJ/mol
# Density = 2.327592 g / cm^3
# Si number density = 23.329019 Si / 1000 Ang^3
#
#
#
# Elastic Constant Matrix: (Units=GPa)
#
#
# Indices 1 2 3 4 5 6 
#
# 1 136.9642 50.6619 24.1647 0.0000 0.0000 0.0000
# 2 50.6619 101.3185 37.5217 0.0000 0.0000 0.0000
# 3 24.1647 37.5217 139.3117 0.0000 0.0000 0.0000
# 4 0.0000 0.0000 0.0000 49.2661 0.0000 0.0000
# 5 0.0000 0.0000 0.0000 0.0000 -25.4035 0.0000
# 6 0.0000 0.0000 0.0000 0.0000 0.0000 24.1286
#
#
#
# Elastic Compliance Matrix: (Units=1/GPa)
#
#
# Indices 1 2 3 4 5 6 
#
# 1 0.008977 -0.004345 -0.000387 0.000000 0.000000 0.000000
# 2 -0.004345 0.013067 -0.002766 0.000000 0.000000 0.000000
# 3 -0.000387 -0.002766 0.007990 0.000000 0.000000 0.000000
# 4 0.000000 0.000000 0.000000 0.020298 0.000000 0.000000
# 5 0.000000 0.000000 0.000000 0.000000 -0.039365 0.000000
# 6 0.000000 0.000000 0.000000 0.000000 0.000000 0.041445
#
#
# Mechanical properties :
#
#
# Convention : Reuss Voigt Hill
#
# Bulk Modulus (GPa) = 66.49714 66.92122 66.70918
# Shear Modulus (GPa) = 69.04181 27.28130 48.16156
#
# Velocity S-wave (km/s) = 5.44601 3.42338 4.54855
# Velocity P-wave (km/s) = 8.25296 6.66139 7.49952
#
# Compressibility (1/GPa) = 0.01503824
#
# Stress axis : x y z
#
# Youngs Moduli (GPa) = 111.39915 76.52932 125.15467
#
# Poissons Ratio (x) = 0.33255 0.04840
# Poissons Ratio (y) = 0.48407 0.34613
# Poissons Ratio (z) = 0.04308 0.21165
#
# Static dielectric constant tensor:
#      x y z
#    x 1.871180 0.000000 0.000000 
#    y 0.000000 1.857350 0.000000 
#    z 0.000000 0.000000 2.036920 
# 
# From -- ./inp_files/36483.got.cif
#   From: 2010.05.17/outbox.cif.g08.bks.cpg/sg21_19_cif.got.tgz:36483.got - 2010.06.03 23:14:55.
