data_PCOD9325168
_publ_section_title
;
Structure prediction by ZEFSAII (Michael W. Deem and Ramdas Pophale) SiO2 
 PCOD9325168
Probable space group: C 2 2 2
;
_chemical_formula_sum "Si O2"
_cell_formula_units_Z 18
_cell_length_a 26.866814
_cell_length_b 5.436868
_cell_length_c 5.312205
_cell_angle_alpha 90.000000
_cell_angle_beta 90.000000
_cell_angle_gamma 90.000000
_cell_volume 775.960803
_symmetry_space_group_name_H-M "C 2 2 2"
_symmetry_group_IT_number 21
_symmetry_cell_setting 'orthorhombic'
loop_
_space_group_symop_operation_xyz
x,y,z
-x,-y,z
x,-y,-z
-x,y,-z
1/2+x,1/2+y,z
1/2-x,1/2-y,z
1/2+x,1/2-y,-z
1/2-x,1/2+y,-z
loop_
_atom_site_type_symbol
_atom_site_label
_atom_site_fract_x
_atom_site_fract_y
_atom_site_fract_z
Si Si1 0.425783 0.350521 0.740771
Si Si2 0.000000 0.500000 0.000000
Si Si3 0.750000 0.250000 0.844435
Si Si4 0.830794 0.000000 0.500000
O O1 0.445215 0.500000 0.500000
O O2 0.367900 0.325428 0.662369
O O3 0.426300 0.500000 0.000000
O O4 0.461772 0.131672 0.810094
O O5 0.703667 0.331823 0.672866
O O6 0.761472 0.500000 0.000000
#
# Coordination Sequence:
#
# PCOD9325168 Si02
#       4
#     8   2   4   4
#     4  10  26  52  77 123 166 215 283 345 408 510
#     4  12  26  54  88 112 172 230 274 342 434 480
#     4  12  26  54  88 122 178 226 276 360 432 522
#     4  10  26  56  77 128 174 209 290 346 432 504
#
# _framework density 23.197050000000001
#
# number of rings (size 3 to 8) (size 9 to 14) (size 15 to 20)
#    1.333    0.000    0.000    3.333    0.000    7.111 
#   40.000    4.444    0.000    0.000    0.000    0.000 
#    0.000    0.000    0.000    0.000    0.000    0.000 
#
# Total GULP energy -50231.346657 kJ/mol
# GULP energy per Si atom -5581.260740 kJ/mol
# Density = 2.314425 g / cm^3
# Si number density = 23.197050 Si / 1000 Ang^3
#
#
#
# Elastic Constant Matrix: (Units=GPa)
#
#
# Indices 1 2 3 4 5 6 
#
# 1 216.1285 103.7807 89.0039 0.0000 0.0000 0.0000
# 2 103.7807 140.6784 93.2832 0.0000 0.0000 0.0000
# 3 89.0039 93.2832 190.0684 0.0000 0.0000 0.0000
# 4 0.0000 0.0000 0.0000 42.8004 0.0000 0.0000
# 5 0.0000 0.0000 0.0000 0.0000 -117.9222 0.0000
# 6 0.0000 0.0000 0.0000 0.0000 0.0000 71.3230
#
#
#
# Elastic Compliance Matrix: (Units=1/GPa)
#
#
# Indices 1 2 3 4 5 6 
#
# 1 0.007332 -0.004643 -0.001154 0.000000 0.000000 0.000000
# 2 -0.004643 0.013479 -0.004441 0.000000 0.000000 0.000000
# 3 -0.001154 -0.004441 0.007981 0.000000 0.000000 0.000000
# 4 0.000000 0.000000 0.000000 0.023364 0.000000 0.000000
# 5 0.000000 0.000000 0.000000 0.000000 -0.008480 0.000000
# 6 0.000000 0.000000 0.000000 0.000000 0.000000 0.014021
#
#
# Mechanical properties :
#
#
# Convention : Reuss Voigt Hill
#
# Bulk Modulus (GPa) = 120.26905 124.33455 122.30180
# Shear Modulus (GPa) = 61.77010 16.62741 39.19876
#
# Velocity S-wave (km/s) = 5.16587 2.68020 4.11520
# Velocity P-wave (km/s) = 9.35633 7.95573 8.68431
#
# Compressibility (1/GPa) = 0.00831469
#
# Stress axis : x y z
#
# Youngs Moduli (GPa) = 136.38928 74.19195 125.29279
#
# Poissons Ratio (x) = 0.34450 0.14464
# Poissons Ratio (y) = 0.63331 0.55639
# Poissons Ratio (z) = 0.15745 0.32947
#
# Static dielectric constant tensor:
#      x y z
#    x 1.896870 0.000000 0.000000 
#    y 0.000000 1.915000 0.000000 
#    z 0.000000 0.000000 1.838050 
# 
# From -- ./inp_files/531.got.cif
#   From: 2010.05.17/outbox.cif.g08.bks.cpg/sg21_1_cif.got.tgz:531.got - 2010.06.03 23:14:55.
