data_PCOD9325298
_publ_section_title
;
Structure prediction by ZEFSAII (Michael W. Deem and Ramdas Pophale) SiO2 
 PCOD9325298
Probable space group: C 2 2 2
;
_chemical_formula_sum "Si O2"
_cell_formula_units_Z 22
_cell_length_a 7.677730
_cell_length_b 14.199575
_cell_length_c 9.067211
_cell_angle_alpha 90.000000
_cell_angle_beta 90.000000
_cell_angle_gamma 90.000000
_cell_volume 988.511904
_symmetry_space_group_name_H-M "C 2 2 2"
_symmetry_group_IT_number 21
_symmetry_cell_setting 'orthorhombic'
loop_
_space_group_symop_operation_xyz
x,y,z
-x,-y,z
x,-y,-z
-x,y,-z
1/2+x,1/2+y,z
1/2-x,1/2-y,z
1/2+x,1/2-y,-z
1/2-x,1/2+y,-z
loop_
_atom_site_type_symbol
_atom_site_label
_atom_site_fract_x
_atom_site_fract_y
_atom_site_fract_z
Si Si1 0.750000 0.750000 0.250974
Si Si2 0.382383 0.825291 0.183411
Si Si3 0.000000 0.500000 0.000000
Si Si4 0.210463 0.891453 0.491119
O O1 0.565652 0.769244 0.175100
O O2 0.741447 0.838809 0.360472
O O3 0.250000 0.750000 0.116981
O O4 0.306589 0.847390 0.348560
O O5 0.394069 0.926080 0.101726
O O6 0.000000 0.884043 0.500000
O O7 0.259528 0.000000 0.500000
#
# Coordination Sequence:
#
# PCOD9325298 Si02
#       4
#     4   8   2   8
#     4  12  22  44  78 114 146 192 252 334 396 436
#     4  12  26  50  74 112 156 204 261 312 376 467
#     4  12  32  52  76 110 160 230 252 294 382 474
#     4  11  21  40  74 115 148 186 246 324 400 444
#
# _framework density 22.255676000000001
#
# number of rings (size 3 to 8) (size 9 to 14) (size 15 to 20)
#    0.000    0.364    5.455    3.273    2.545    1.455 
#    0.000    1.818    0.000    0.000    0.000    0.000 
#    0.000    0.000    0.000    0.000    0.000    0.000 
#
# Total GULP energy -61380.397340 kJ/mol
# GULP energy per Si atom -5580.036122 kJ/mol
# Density = 2.220502 g / cm^3
# Si number density = 22.255676 Si / 1000 Ang^3
#
#
#
# Elastic Constant Matrix: (Units=GPa)
#
#
# Indices 1 2 3 4 5 6 
#
# 1 176.6835 93.4846 82.2808 0.0000 0.0000 0.0000
# 2 93.4846 162.0279 48.4478 0.0000 0.0000 0.0000
# 3 82.2808 48.4478 89.7627 0.0000 0.0000 0.0000
# 4 0.0000 0.0000 0.0000 56.2936 0.0000 0.0000
# 5 0.0000 0.0000 0.0000 0.0000 34.3803 0.0000
# 6 0.0000 0.0000 0.0000 0.0000 0.0000 35.7372
#
#
#
# Elastic Compliance Matrix: (Units=1/GPa)
#
#
# Indices 1 2 3 4 5 6 
#
# 1 0.011971 -0.004323 -0.008639 0.000000 0.000000 0.000000
# 2 -0.004323 0.008921 -0.000852 0.000000 0.000000 0.000000
# 3 -0.008639 -0.000852 0.019520 0.000000 0.000000 0.000000
# 4 0.000000 0.000000 0.000000 0.017764 0.000000 0.000000
# 5 0.000000 0.000000 0.000000 0.000000 0.029086 0.000000
# 6 0.000000 0.000000 0.000000 0.000000 0.000000 0.027982
#
#
# Mechanical properties :
#
#
# Convention : Reuss Voigt Hill
#
# Bulk Modulus (GPa) = 78.23625 97.43340 87.83483
# Shear Modulus (GPa) = 33.98262 38.89961 36.44112
#
# Velocity S-wave (km/s) = 3.91182 4.18527 4.05085
# Velocity P-wave (km/s) = 7.45874 8.19936 7.83780
#
# Compressibility (1/GPa) = 0.01278180
#
# Stress axis : x y z
#
# Youngs Moduli (GPa) = 83.53676 112.09540 51.23052
#
# Poissons Ratio (x) = 0.48464 0.44260
# Poissons Ratio (y) = 0.36117 0.04364
# Poissons Ratio (z) = 0.72171 0.09549
#
# Static dielectric constant tensor:
#      x y z
#    x 1.957670 0.000000 0.000000 
#    y 0.000000 1.766340 0.000000 
#    z 0.000000 0.000000 2.108930 
# 
# From -- ./inp_files/9669.got.cif
#   From: 2010.05.17/outbox.cif.g08.bks.cpg/sg21_5_cif.got.tgz:9669.got - 2010.06.03 23:14:55.
