data_PCOD9325655
_publ_section_title
;
Structure prediction by ZEFSAII (Michael W. Deem and Ramdas Pophale) SiO2 
 PCOD9325655
Probable space group: C 2 2 2
;
_chemical_formula_sum "Si O2"
_cell_formula_units_Z 26
_cell_length_a 11.209805
_cell_length_b 15.186160
_cell_length_c 6.688769
_cell_angle_alpha 90.000000
_cell_angle_beta 90.000000
_cell_angle_gamma 90.000000
_cell_volume 1138.655182
_symmetry_space_group_name_H-M "C 2 2 2"
_symmetry_group_IT_number 21
_symmetry_cell_setting 'orthorhombic'
loop_
_space_group_symop_operation_xyz
x,y,z
-x,-y,z
x,-y,-z
-x,y,-z
1/2+x,1/2+y,z
1/2-x,1/2-y,z
1/2+x,1/2-y,-z
1/2-x,1/2+y,-z
loop_
_atom_site_type_symbol
_atom_site_label
_atom_site_fract_x
_atom_site_fract_y
_atom_site_fract_z
Si Si1 0.500000 0.000000 0.500000
Si Si2 0.372467 0.585255 0.394489
Si Si3 0.807623 0.000000 0.000000
Si Si4 0.750000 0.750000 0.420427
Si Si5 0.604293 0.872711 0.166654
O O1 0.563726 0.934818 0.346675
O O2 0.314844 0.500000 0.500000
O O3 0.500000 0.598414 0.500000
O O4 0.294110 0.670374 0.440316
O O5 0.381141 0.551774 0.168585
O O6 0.718890 0.076748 0.921792
O O7 0.645411 0.782759 0.272196
O O8 0.500000 0.864504 0.000000
#
# Coordination Sequence:
#
# PCOD9325655 Si02
#       5
#     2   8   4   4   8
#     4  12  22  48  76 106 156 196 254 320 376 438
#     4  11  27  50  76 111 153 205 250 315 380 454
#     4  12  23  51  80 108 156 208 254 302 398 454
#     4  12  28  48  76 118 154 198 254 320 388 444
#     4  12  26  45  77 118 152 200 258 317 379 460
#
# _framework density 22.833953000000001
#
# number of rings (size 3 to 8) (size 9 to 14) (size 15 to 20)
#    0.000    0.308    6.154    1.846    2.154    6.154 
#    0.000    0.000    0.000    0.000    0.000    0.000 
#    0.000    0.000    0.000    0.000    0.000    0.000 
#
# Total GULP energy -72693.995855 kJ/mol
# GULP energy per Si atom -5591.845835 kJ/mol
# Density = 2.278198 g / cm^3
# Si number density = 22.833953 Si / 1000 Ang^3
#
#
#
# Elastic Constant Matrix: (Units=GPa)
#
#
# Indices 1 2 3 4 5 6 
#
# 1 108.7953 51.5040 86.1564 0.0000 0.0000 0.0000
# 2 51.5040 156.4907 62.3606 0.0000 0.0000 0.0000
# 3 86.1564 62.3606 182.3994 0.0000 0.0000 0.0000
# 4 0.0000 0.0000 0.0000 41.4427 0.0000 0.0000
# 5 0.0000 0.0000 0.0000 0.0000 -130.9669 0.0000
# 6 0.0000 0.0000 0.0000 0.0000 0.0000 34.7681
#
#
#
# Elastic Compliance Matrix: (Units=1/GPa)
#
#
# Indices 1 2 3 4 5 6 
#
# 1 0.015503 -0.002529 -0.006458 0.000000 0.000000 0.000000
# 2 -0.002529 0.007811 -0.001476 0.000000 0.000000 0.000000
# 3 -0.006458 -0.001476 0.009038 0.000000 0.000000 0.000000
# 4 0.000000 0.000000 0.000000 0.024130 0.000000 0.000000
# 5 0.000000 0.000000 0.000000 0.000000 -0.007636 0.000000
# 6 0.000000 0.000000 0.000000 0.000000 0.000000 0.028762
#
#
# Mechanical properties :
#
#
# Convention : Reuss Voigt Hill
#
# Bulk Modulus (GPa) = 87.52463 94.19195 90.85829
# Shear Modulus (GPa) = 48.85577 5.55974 27.20776
#
# Velocity S-wave (km/s) = 4.63061 1.56210 3.45563
# Velocity P-wave (km/s) = 8.18561 6.67787 7.46988
#
# Compressibility (1/GPa) = 0.01142536
#
# Stress axis : x y z
#
# Youngs Moduli (GPa) = 64.50296 128.03192 110.64784
#
# Poissons Ratio (x) = 0.32376 0.71460
# Poissons Ratio (y) = 0.16311 0.16330
# Poissons Ratio (z) = 0.41658 0.18896
#
# Static dielectric constant tensor:
#      x y z
#    x 1.896890 0.000000 0.000000 
#    y 0.000000 1.855310 0.000000 
#    z 0.000000 0.000000 1.895700 
# 
# From -- ./inp_files/2126.got.cif
#   From: 2010.05.17/outbox.cif.g08.bks.cpg/sg21_2_cif.got.tgz:2126.got - 2010.06.03 23:14:55.
