data_PCOD9325773
_publ_section_title
;
Structure prediction by ZEFSAII (Michael W. Deem and Ramdas Pophale) SiO2 
 PCOD9325773
Probable space group: C 2 2 2
;
_chemical_formula_sum "Si O2"
_cell_formula_units_Z 34
_cell_length_a 14.270327
_cell_length_b 5.712715
_cell_length_c 17.774448
_cell_angle_alpha 90.000000
_cell_angle_beta 90.000000
_cell_angle_gamma 90.000000
_cell_volume 1449.014080
_symmetry_space_group_name_H-M "C 2 2 2"
_symmetry_group_IT_number 21
_symmetry_cell_setting 'orthorhombic'
loop_
_space_group_symop_operation_xyz
x,y,z
-x,-y,z
x,-y,-z
-x,y,-z
1/2+x,1/2+y,z
1/2-x,1/2-y,z
1/2+x,1/2-y,-z
1/2-x,1/2+y,-z
loop_
_atom_site_type_symbol
_atom_site_label
_atom_site_fract_x
_atom_site_fract_y
_atom_site_fract_z
Si Si1 0.000000 0.000000 0.500000
Si Si2 0.856036 0.668995 0.571262
Si Si3 0.250000 0.750000 0.740307
Si Si4 0.602977 0.387129 0.288471
Si Si5 0.391137 0.941037 0.161924
Si Si6 0.694839 0.000000 0.000000
O O1 0.069151 0.865324 0.446736
O O2 0.871865 0.500000 0.500000
O O3 0.750000 0.750000 0.564539
O O4 0.881115 0.652185 0.659999
O O5 0.315620 0.574611 0.691683
O O6 0.177458 0.615586 0.794012
O O7 0.500000 0.500000 0.293091
O O8 0.622604 0.308899 0.202786
O O9 0.365352 0.953155 0.074880
O O10 0.500000 0.000000 0.174017
O O11 0.750000 0.250000 0.988859
#
# Coordination Sequence:
#
# PCOD9325773 Si02
#       6
#     2   8   4   8   8   4
#     4  12  26  48  76 104 148 196 256 316 404 472
#     4  12  27  51  77 109 152 205 257 330 405 481
#     4  12  24  50  80 114 152 208 260 332 404 480
#     4  12  27  51  83 115 157 207 270 335 410 489
#     4  12  26  48  80 120 159 213 268 333 406 487
#     4  12  27  50  81 122 176 222 277 348 415 494
#
# _framework density 23.464230000000001
#
# number of rings (size 3 to 8) (size 9 to 14) (size 15 to 20)
#    0.000    0.000    5.882    4.235    0.000    5.647 
#    6.353    1.176    0.000    0.000    0.000    0.000 
#    0.000    0.000    0.000    0.000    0.000    0.000 
#
# Total GULP energy -94942.578588 kJ/mol
# GULP energy per Si atom -5584.857564 kJ/mol
# Density = 2.341082 g / cm^3
# Si number density = 23.464230 Si / 1000 Ang^3
#
#
#
# Elastic Constant Matrix: (Units=GPa)
#
#
# Indices 1 2 3 4 5 6 
#
# 1 198.2546 64.7566 44.0707 0.0000 0.0000 0.0000
# 2 64.7566 91.0585 44.3660 0.0000 0.0000 0.0000
# 3 44.0707 44.3660 159.1928 0.0000 0.0000 0.0000
# 4 0.0000 0.0000 0.0000 40.1933 0.0000 0.0000
# 5 0.0000 0.0000 0.0000 0.0000 -42.3804 0.0000
# 6 0.0000 0.0000 0.0000 0.0000 0.0000 9.4074
#
#
#
# Elastic Compliance Matrix: (Units=1/GPa)
#
#
# Indices 1 2 3 4 5 6 
#
# 1 0.006620 -0.004414 -0.000602 0.000000 0.000000 0.000000
# 2 -0.004414 0.015651 -0.003140 0.000000 0.000000 0.000000
# 3 -0.000602 -0.003140 0.007323 0.000000 0.000000 0.000000
# 4 0.000000 0.000000 0.000000 0.024880 0.000000 0.000000
# 5 0.000000 0.000000 0.000000 0.000000 -0.023596 0.000000
# 6 0.000000 0.000000 0.000000 0.000000 0.000000 0.106299
#
#
# Mechanical properties :
#
#
# Convention : Reuss Voigt Hill
#
# Bulk Modulus (GPa) = 75.29311 83.87695 79.58503
# Shear Modulus (GPa) = 31.66227 21.13158 26.39692
#
# Velocity S-wave (km/s) = 3.67738 3.00423 3.35772
# Velocity P-wave (km/s) = 7.08442 6.91796 7.00169
#
# Compressibility (1/GPa) = 0.01328143
#
# Stress axis : x y z
#
# Youngs Moduli (GPa) = 151.06344 63.89421 136.54674
#
# Poissons Ratio (x) = 0.28204 0.08226
# Poissons Ratio (y) = 0.66682 0.42873
# Poissons Ratio (z) = 0.09100 0.20061
#
# Static dielectric constant tensor:
#      x y z
#    x 1.815270 0.000000 0.000000 
#    y 0.000000 2.011140 0.000000 
#    z 0.000000 0.000000 2.097580 
# 
# From -- ./inp_files/36482.got.cif
#   From: 2010.05.17/outbox.cif.g08.bks.cpg/sg21_19_cif.got.tgz:36482.got - 2010.06.03 23:14:55.
