data_PCOD9325930
_publ_section_title
;
Structure prediction by ZEFSAII (Michael W. Deem and Ramdas Pophale) SiO2 
 PCOD9325930
Probable space group: F 2 2 2
;
_chemical_formula_sum "Si O2"
_cell_formula_units_Z 104
_cell_length_a 23.258524
_cell_length_b 9.230957
_cell_length_c 28.711910
_cell_angle_alpha 90.000000
_cell_angle_beta 90.000000
_cell_angle_gamma 90.000000
_cell_volume 6164.402141
_symmetry_space_group_name_H-M "F 2 2 2"
_symmetry_group_IT_number 22
_symmetry_cell_setting 'orthorhombic'
loop_
_space_group_symop_operation_xyz
x,y,z
-x,-y,z
x,-y,-z
-x,y,-z
x,1/2+y,1/2+z
-x,1/2-y,1/2+z
x,1/2-y,1/2-z
-x,1/2+y,1/2-z
1/2+x,y,1/2+z
1/2-x,-y,1/2+z
1/2+x,-y,1/2-z
1/2-x,y,1/2-z
1/2+x,1/2+y,z
1/2-x,1/2-y,z
1/2+x,1/2-y,-z
1/2-x,1/2+y,-z
loop_
_atom_site_type_symbol
_atom_site_label
_atom_site_fract_x
_atom_site_fract_y
_atom_site_fract_z
Si Si1 0.902869 0.913641 0.681704
Si Si2 0.990979 0.250000 0.250000
Si Si3 0.500000 0.500000 0.620654
Si Si4 0.003160 0.262520 0.448389
Si Si5 0.379212 0.603693 0.147832
Si Si6 0.597932 0.497519 0.947725
Si Si7 0.315500 0.574140 0.243097
Si Si8 0.000000 0.000000 0.814183
O O1 0.948616 0.838265 0.716329
O O2 0.942349 0.016668 0.651012
O O3 0.877411 0.779216 0.651653
O O4 0.855503 0.983123 0.715131
O O5 0.021968 0.131347 0.218564
O O6 0.493325 0.357634 0.589933
O O7 0.063238 0.347187 0.441236
O O8 0.000000 0.196355 0.500000
O O9 0.952510 0.381226 0.448380
O O10 0.364306 0.539467 0.097217
O O11 0.341989 0.548305 0.191913
O O12 0.445740 0.557018 0.157053
O O13 0.624033 0.500000 0.000000
O O14 0.317508 0.750000 0.250000
O O15 0.250000 0.527725 0.250000
#
# Coordination Sequence:
#
# PCOD9325930 Si02
#       8
#    16   8   8  16  16  16  16   8
#     4  10  18  28  43  67  98 125 157 195 232 291
#     4  10  18  30  37  64  97 122 150 190 220 280
#     4  12  20  26  44  73 101 122 157 195 246 286
#     4   9  18  30  43  64  99 134 161 188 232 288
#     4  10  17  29  45  67  94 128 158 194 233 277
#     4   9  17  31  46  64  93 131 164 193 226 282
#     4   9  17  31  47  66  95 127 160 202 246 280
#     4  10  17  26  45  61  97 124 149 187 234 276
#
# _framework density 16.87106
#
# number of rings (size 3 to 8) (size 9 to 14) (size 15 to 20)
#    0.000    2.308    5.385    2.538    2.154    0.000 
#    0.000    0.000    0.000    0.000    0.000    7.000 
#    0.000    0.000    0.000    0.000    0.000    0.000 
#
# Total GULP energy -144828.856805 kJ/mol
# GULP energy per Si atom -5570.340646 kJ/mol
# Density = 1.683266 g / cm^3
# Si number density = 16.871060 Si / 1000 Ang^3
#
#
#
# Elastic Constant Matrix: (Units=GPa)
#
#
# Indices 1 2 3 4 5 6 
#
# 1 60.8716 5.5019 41.6479 0.0000 0.0000 0.0000
# 2 5.5019 26.2021 21.2992 0.0000 0.0000 0.0000
# 3 41.6479 21.2992 136.4133 0.0000 0.0000 0.0000
# 4 0.0000 0.0000 0.0000 24.3442 0.0000 0.0000
# 5 0.0000 0.0000 0.0000 0.0000 7.9350 0.0000
# 6 0.0000 0.0000 0.0000 0.0000 0.0000 8.1403
#
#
#
# Elastic Compliance Matrix: (Units=1/GPa)
#
#
# Indices 1 2 3 4 5 6 
#
# 1 0.020785 0.000909 -0.006488 0.000000 0.000000 0.000000
# 2 0.000909 0.043753 -0.007109 0.000000 0.000000 0.000000
# 3 -0.006488 -0.007109 0.010421 0.000000 0.000000 0.000000
# 4 0.000000 0.000000 0.000000 0.041078 0.000000 0.000000
# 5 0.000000 0.000000 0.000000 0.000000 0.126024 0.000000
# 6 0.000000 0.000000 0.000000 0.000000 0.000000 0.122846
#
#
# Mechanical properties :
#
#
# Convention : Reuss Voigt Hill
#
# Bulk Modulus (GPa) = 20.16779 40.04278 30.10529
# Shear Modulus (GPa) = 12.29077 18.41976 15.35527
#
# Velocity S-wave (km/s) = 2.70202 3.30782 3.02015
# Velocity P-wave (km/s) = 4.65989 6.19476 5.48131
#
# Compressibility (1/GPa) = 0.04958402
#
# Stress axis : x y z
#
# Youngs Moduli (GPa) = 48.11246 22.85571 95.95653
#
# Poissons Ratio (x) = -0.02078 0.62253
# Poissons Ratio (y) = -0.04375 0.68216
# Poissons Ratio (z) = 0.31214 0.16248
#
# Static dielectric constant tensor:
#      x y z
#    x 1.549310 0.000000 0.000000 
#    y 0.000000 1.590210 0.000000 
#    z 0.000000 0.000000 1.648780 
# 
# From -- ./inp_files/57168.got.cif
#   From: 2010.05.17/outbox.cif.g08.bks.cpg/sg22_29_cif.got.tgz:57168.got - 2010.06.03 23:40:54.
