data_PCOD9325228
_publ_section_title
;
Structure prediction by ZEFSAII (Michael W. Deem and Ramdas Pophale) SiO2 
 PCOD9325228
Probable space group: C 2 2 2
;
_chemical_formula_sum "Si O2"
_cell_formula_units_Z 34
_cell_length_a 17.138290
_cell_length_b 12.863707
_cell_length_c 7.943059
_cell_angle_alpha 90.000000
_cell_angle_beta 90.000000
_cell_angle_gamma 90.000000
_cell_volume 1751.142205
_symmetry_space_group_name_H-M "C 2 2 2"
_symmetry_group_IT_number 21
_symmetry_cell_setting 'orthorhombic'
loop_
_space_group_symop_operation_xyz
x,y,z
-x,-y,z
x,-y,-z
-x,y,-z
1/2+x,1/2+y,z
1/2-x,1/2-y,z
1/2+x,1/2-y,-z
1/2-x,1/2+y,-z
loop_
_atom_site_type_symbol
_atom_site_label
_atom_site_fract_x
_atom_site_fract_y
_atom_site_fract_z
Si Si1 0.657862 0.249982 0.324203
Si Si2 0.478541 0.388968 0.695878
Si Si3 0.905813 0.380397 0.019917
Si Si4 0.500000 0.000000 0.500000
Si Si5 0.412821 0.809422 0.681578
O O1 0.750000 0.250000 0.306167
O O2 0.611488 0.356618 0.282294
O O3 0.622902 0.165967 0.194764
O O4 0.634579 0.224204 0.516630
O O5 0.500000 0.500000 0.777061
O O6 0.500000 0.399920 0.500000
O O7 0.527938 0.284306 0.731455
O O8 0.886744 0.500000 0.000000
O O9 0.868303 0.326998 0.855523
O O10 0.000000 0.370325 0.000000
O O11 0.546593 0.081636 0.620567
#
# Coordination Sequence:
#
# PCOD9325228 Si02
#       5
#     8   8   8   2   8
#     4  11  23  40  60  94 131 163 217 277 323 378
#     4   9  18  38  62  83 117 169 219 251 308 397
#     4  11  21  37  65  95 123 161 212 265 320 388
#     4  12  16  36  68  96 112 154 222 270 314 384
#     4  11  20  37  64  90 121 165 214 261 324 390
#
# _framework density 19.415897000000001
#
# number of rings (size 3 to 8) (size 9 to 14) (size 15 to 20)
#    0.000    1.412    5.882    2.824    0.000    0.941 
#    0.000   18.824    0.000    0.000    0.000    0.000 
#    0.000    0.000    0.000    0.000    0.000    0.000 
#
# Total GULP energy -94651.897449 kJ/mol
# GULP energy per Si atom -5567.758673 kJ/mol
# Density = 1.937171 g / cm^3
# Si number density = 19.415897 Si / 1000 Ang^3
#
#
#
# Elastic Constant Matrix: (Units=GPa)
#
#
# Indices 1 2 3 4 5 6 
#
# 1 119.8635 54.5207 19.8559 0.0000 0.0000 0.0000
# 2 54.5207 140.6621 21.2797 0.0000 0.0000 0.0000
# 3 19.8559 21.2797 95.0072 0.0000 0.0000 0.0000
# 4 0.0000 0.0000 0.0000 14.0846 0.0000 0.0000
# 5 0.0000 0.0000 0.0000 0.0000 6.6708 0.0000
# 6 0.0000 0.0000 0.0000 0.0000 0.0000 5.0220
#
#
#
# Elastic Compliance Matrix: (Units=1/GPa)
#
#
# Indices 1 2 3 4 5 6 
#
# 1 0.010281 -0.003788 -0.001300 0.000000 0.000000 0.000000
# 2 -0.003788 0.008754 -0.001169 0.000000 0.000000 0.000000
# 3 -0.001300 -0.001169 0.011059 0.000000 0.000000 0.000000
# 4 0.000000 0.000000 0.000000 0.071000 0.000000 0.000000
# 5 0.000000 0.000000 0.000000 0.000000 0.149907 0.000000
# 6 0.000000 0.000000 0.000000 0.000000 0.000000 0.199123
#
#
# Mechanical properties :
#
#
# Convention : Reuss Voigt Hill
#
# Bulk Modulus (GPa) = 56.88409 60.76062 58.82235
# Shear Modulus (GPa) = 10.67238 22.48058 16.57648
#
# Velocity S-wave (km/s) = 2.34705 3.40640 2.92508
# Velocity P-wave (km/s) = 6.05856 6.84351 6.46296
#
# Compressibility (1/GPa) = 0.01757961
#
# Stress axis : x y z
#
# Youngs Moduli (GPa) = 97.26328 114.22742 90.42317
#
# Poissons Ratio (x) = 0.43273 0.11757
# Poissons Ratio (y) = 0.36847 0.10571
# Poissons Ratio (z) = 0.12646 0.13354
#
# Static dielectric constant tensor:
#      x y z
#    x 1.713750 0.000000 0.000000 
#    y 0.000000 1.786000 0.000000 
#    z 0.000000 0.000000 1.724180 
# 
# From -- ./inp_files/16058.got.cif
#   From: 2010.05.17/outbox.cif.g08.bks.cpg/sg21_9_cif.got.tgz:16058.got - 2010.06.03 23:14:55.
