data_PCOD9325059
_publ_section_title
;
Structure prediction by ZEFSAII (Michael W. Deem and Ramdas Pophale) SiO2 
 PCOD9325059
Probable space group: C 2 2 2
;
_chemical_formula_sum "Si O2"
_cell_formula_units_Z 14
_cell_length_a 22.094164
_cell_length_b 4.828181
_cell_length_c 5.448241
_cell_angle_alpha 90.000000
_cell_angle_beta 90.000000
_cell_angle_gamma 90.000000
_cell_volume 581.189054
_symmetry_space_group_name_H-M "C 2 2 2"
_symmetry_group_IT_number 21
_symmetry_cell_setting 'orthorhombic'
loop_
_space_group_symop_operation_xyz
x,y,z
-x,-y,z
x,-y,-z
-x,y,-z
1/2+x,1/2+y,z
1/2-x,1/2-y,z
1/2+x,1/2-y,-z
1/2-x,1/2+y,-z
loop_
_atom_site_type_symbol
_atom_site_label
_atom_site_fract_x
_atom_site_fract_y
_atom_site_fract_z
Si Si1 0.000000 0.000000 0.500000
Si Si2 0.819593 0.836796 0.241844
Si Si3 0.586814 0.000000 0.500000
O O1 0.952619 0.236404 0.404382
O O2 0.750000 0.750000 0.207200
O O3 0.868379 0.598793 0.286810
O O4 0.820132 0.000000 0.500000
O O5 0.837090 0.000000 0.000000
#
# Coordination Sequence:
#
# PCOD9325059 Si02
#       3
#     2   8   4
#     4  10  24  48  82 108 162 214 278 316 394 454
#     4  12  26  46  80 121 163 205 258 332 411 478
#     4  11  24  49  80 115 160 213 268 330 388 479
#
# _framework density 24.088546999999998
#
# number of rings (size 3 to 8) (size 9 to 14) (size 15 to 20)
#    0.000    0.571    5.714    1.714    0.000    0.000 
#    0.000    1.429   12.571    0.000    0.000    0.000 
#    0.000    0.000    0.000    0.000    0.000    0.000 
#
# Total GULP energy -39045.377864 kJ/mol
# GULP energy per Si atom -5577.911123 kJ/mol
# Density = 2.403372 g / cm^3
# Si number density = 24.088547 Si / 1000 Ang^3
#
#
#
# Elastic Constant Matrix: (Units=GPa)
#
#
# Indices 1 2 3 4 5 6 
#
# 1 195.5474 100.1625 47.3929 0.0000 0.0000 0.0000
# 2 100.1625 196.2928 86.4216 0.0000 0.0000 0.0000
# 3 47.3929 86.4216 173.6857 0.0000 0.0000 0.0000
# 4 0.0000 0.0000 0.0000 59.9511 0.0000 0.0000
# 5 0.0000 0.0000 0.0000 0.0000 -7.1852 0.0000
# 6 0.0000 0.0000 0.0000 0.0000 0.0000 73.5817
#
#
#
# Elastic Compliance Matrix: (Units=1/GPa)
#
#
# Indices 1 2 3 4 5 6 
#
# 1 0.006927 -0.003461 -0.000168 0.000000 0.000000 0.000000
# 2 -0.003461 0.008252 -0.003162 0.000000 0.000000 0.000000
# 3 -0.000168 -0.003162 0.007377 0.000000 0.000000 0.000000
# 4 0.000000 0.000000 0.000000 0.016680 0.000000 0.000000
# 5 0.000000 0.000000 0.000000 0.000000 -0.139175 0.000000
# 6 0.000000 0.000000 0.000000 0.000000 0.000000 0.013590
#
#
# Mechanical properties :
#
#
# Convention : Reuss Voigt Hill
#
# Bulk Modulus (GPa) = 111.42436 114.83109 113.12773
# Shear Modulus (GPa) = -71.65882 47.37279 -12.14301
#
# Velocity S-wave (km/s) = -5.46010 4.43946 -2.24765
# Velocity P-wave (km/s) = 2.57028 8.60536 6.35054
#
# Compressibility (1/GPa) = 0.00897470
#
# Stress axis : x y z
#
# Youngs Moduli (GPa) = 144.35732 121.17688 135.56188
#
# Poissons Ratio (x) = 0.41936 0.02281
# Poissons Ratio (y) = 0.49958 0.42863
# Poissons Ratio (z) = 0.02429 0.38315
#
# Static dielectric constant tensor:
#      x y z
#    x 1.975670 0.000000 0.000000 
#    y 0.000000 2.012960 0.000000 
#    z 0.000000 0.000000 1.864710 
# 
# From -- ./inp_files/324.got.cif
#   From: 2010.05.17/outbox.cif.g08.bks.cpg/sg21_1_cif.got.tgz:324.got - 2010.06.03 23:14:55.
