data_PCOD9325608
_publ_section_title
;
Structure prediction by ZEFSAII (Michael W. Deem and Ramdas Pophale) SiO2 
 PCOD9325608
Probable space group: C 2 2 2
;
_chemical_formula_sum "Si O2"
_cell_formula_units_Z 56
_cell_length_a 8.977396
_cell_length_b 21.810459
_cell_length_c 13.483304
_cell_angle_alpha 90.000000
_cell_angle_beta 90.000000
_cell_angle_gamma 90.000000
_cell_volume 2640.046124
_symmetry_space_group_name_H-M "C 2 2 2"
_symmetry_group_IT_number 21
_symmetry_cell_setting 'orthorhombic'
loop_
_space_group_symop_operation_xyz
x,y,z
-x,-y,z
x,-y,-z
-x,y,-z
1/2+x,1/2+y,z
1/2-x,1/2-y,z
1/2+x,1/2-y,-z
1/2-x,1/2+y,-z
loop_
_atom_site_type_symbol
_atom_site_label
_atom_site_fract_x
_atom_site_fract_y
_atom_site_fract_z
Si Si1 0.761490 0.680020 0.392797
Si Si2 0.835686 0.558443 0.951012
Si Si3 0.823114 0.069275 0.472594
Si Si4 0.529749 0.331757 0.780407
Si Si5 0.757969 0.906734 0.754793
Si Si6 0.485531 0.195267 0.775293
Si Si7 0.778664 0.317739 0.947893
O O1 0.750000 0.750000 0.434511
O O2 0.762304 0.625002 0.471614
O O3 0.619085 0.666052 0.322953
O O4 0.897609 0.682963 0.314399
O O5 0.823831 0.549335 0.833220
O O6 0.756963 0.500000 0.000000
O O7 0.774180 0.625458 0.978330
O O8 0.000000 0.559828 0.000000
O O9 0.787638 0.073325 0.356510
O O10 0.000000 0.075604 0.500000
O O11 0.778522 0.000000 0.500000
O O12 0.420074 0.387719 0.794018
O O13 0.447095 0.266651 0.777373
O O14 0.648739 0.327046 0.867658
O O15 0.652668 0.847604 0.756607
O O16 0.571523 0.182161 0.879746
O O17 0.750000 0.250000 0.992202
#
# Coordination Sequence:
#
# PCOD9325608 Si02
#       7
#     8   8   8   8   8   8   8
#     4   9  19  41  65  92 137 180 216 278 343 391
#     4  11  25  46  66  98 137 180 223 281 345 397
#     4  11  25  46  66  98 137 180 223 281 345 397
#     4   9  19  36  65 100 133 173 224 277 333 402
#     4  12  23  40  66  98 125 180 228 274 332 406
#     4   9  19  36  65 100 133 173 224 277 333 402
#     4   9  19  41  65  92 137 180 216 278 343 391
#
# _framework density 21.211749999999999
#
# number of rings (size 3 to 8) (size 9 to 14) (size 15 to 20)
#    0.000    2.000    2.857    2.143    0.000    5.714 
#    0.000    1.429    0.000    0.000    0.000    0.000 
#    0.000    0.000    0.000    0.000    0.000    0.000 
#
# Total GULP energy -156268.591935 kJ/mol
# GULP energy per Si atom -5581.021141 kJ/mol
# Density = 2.116347 g / cm^3
# Si number density = 21.211750 Si / 1000 Ang^3
#
#
#
# Elastic Constant Matrix: (Units=GPa)
#
#
# Indices 1 2 3 4 5 6 
#
# 1 48.2300 16.7486 18.7184 0.0000 0.0000 0.0000
# 2 16.7486 110.1847 59.8259 0.0000 0.0000 0.0000
# 3 18.7184 59.8259 136.4278 0.0000 0.0000 0.0000
# 4 0.0000 0.0000 0.0000 -13.8405 0.0000 0.0000
# 5 0.0000 0.0000 0.0000 0.0000 15.2283 0.0000
# 6 0.0000 0.0000 0.0000 0.0000 0.0000 18.4001
#
#
#
# Elastic Compliance Matrix: (Units=1/GPa)
#
#
# Indices 1 2 3 4 5 6 
#
# 1 0.022325 -0.002271 -0.002067 0.000000 0.000000 0.000000
# 2 -0.002271 0.012143 -0.005013 0.000000 0.000000 0.000000
# 3 -0.002067 -0.005013 0.009812 0.000000 0.000000 0.000000
# 4 0.000000 0.000000 0.000000 -0.072251 0.000000 0.000000
# 5 0.000000 0.000000 0.000000 0.000000 0.065667 0.000000
# 6 0.000000 0.000000 0.000000 0.000000 0.000000 0.054347
#
#
# Mechanical properties :
#
#
# Convention : Reuss Voigt Hill
#
# Bulk Modulus (GPa) = 39.09808 53.93648 46.51728
# Shear Modulus (GPa) = 41.92110 17.26087 29.59099
#
# Velocity S-wave (km/s) = 4.45040 2.85571 3.73906
# Velocity P-wave (km/s) = 6.69928 6.02962 6.37325
#
# Compressibility (1/GPa) = 0.02557670
#
# Stress axis : x y z
#
# Youngs Moduli (GPa) = 44.79292 82.35270 101.91708
#
# Poissons Ratio (x) = 0.18703 0.21068
# Poissons Ratio (y) = 0.10173 0.51094
# Poissons Ratio (z) = 0.09259 0.41285
#
# Static dielectric constant tensor:
#      x y z
#    x 1.795740 0.000000 0.000000 
#    y 0.000000 1.767290 0.000000 
#    z 0.000000 0.000000 1.789380 
# 
# From -- ./inp_files/30778.got.cif
#   From: 2010.05.17/outbox.cif.g08.bks.cpg/sg21_16_cif.got.tgz:30778.got - 2010.06.03 23:14:55.
