data_PCOD9325860
_publ_section_title
;
Structure prediction by ZEFSAII (Michael W. Deem and Ramdas Pophale) SiO2 
 PCOD9325860
Probable space group: C 2 2 2
;
_chemical_formula_sum "Si O2"
_cell_formula_units_Z 18
_cell_length_a 9.000000
_cell_length_b 21.000000
_cell_length_c 9.000000
_cell_angle_alpha 90.000000
_cell_angle_beta 90.000000
_cell_angle_gamma 90.000000
_cell_volume 1701.000000
_symmetry_space_group_name_H-M "C 2 2 2"
_symmetry_group_IT_number 21
_symmetry_cell_setting 'orthorhombic'
loop_
_space_group_symop_operation_xyz
x,y,z
-x,-y,z
x,-y,-z
-x,y,-z
1/2+x,1/2+y,z
1/2-x,1/2-y,z
1/2+x,1/2-y,-z
1/2-x,1/2+y,-z
loop_
_atom_site_type_symbol
_atom_site_label
_atom_site_fract_x
_atom_site_fract_y
_atom_site_fract_z
Si Si1 0.901042 0.664546 0.635419
Si Si2 0.357235 0.366651 0.089536
Si Si3 0.062546 0.429086 0.149682
Si Si4 0.656667 0.315638 0.576754
Si Si5 0.750000 0.750000 0.877750
O O1 0.753034 0.644435 0.545958
O O2 0.864714 0.716805 0.761793
O O3 0.000000 0.687390 0.500000
O O4 0.996315 0.609977 0.714228
O O5 0.236320 0.421681 0.119527
O O6 0.372295 0.339988 0.256647
O O7 0.500000 0.391010 0.000000
O O8 0.304986 0.307234 0.984210
O O9 0.000000 0.500000 0.159065
O O10 0.000000 0.397396 0.000000
O O11 0.500000 0.311832 0.500000
O O12 0.750000 0.250000 0.590455
#
# Coordination Sequence:
#
# PCOD9325860 Si02
#       5
#     8   8   8   8   4
#     4  12  25  43  71 106 145 193 247 306 374 453
#     4  12  27  43  72 108 150 196 247 313 378 454
#     4  11  26  51  77 105 140 201 264 308 368 453
#     4  12  26  42  65 105 155 198 241 306 385 464
#     4  12  26  38  68 106 154 188 234 294 382 454
#
# _framework density 10.582011
#
# number of rings (size 3 to 8) (size 9 to 14) (size 15 to 20)
#    0.000    0.222    6.667    2.000    6.222    0.444 
#    0.000    2.222    0.000    1.333    0.000    0.000 
#    0.000    0.000    0.000    0.000    0.000    0.000 
#
# Total GULP energy -100304.945475 kJ/mol
# GULP energy per Si atom -5572.496971 kJ/mol
# Density = 1.055793 g / cm^3
# Si number density = 10.582011 Si / 1000 Ang^3
#
#
#
# Elastic Constant Matrix: (Units=GPa)
#
#
# Indices 1 2 3 4 5 6 
#
# 1 186.0951 67.1818 80.2848 0.0000 0.0000 0.0000
# 2 67.1818 79.6961 44.6839 0.0000 0.0000 0.0000
# 3 80.2848 44.6839 172.8675 0.0000 0.0000 0.0000
# 4 0.0000 0.0000 0.0000-1020.8644 0.0000 0.0000
# 5 0.0000 0.0000 0.0000 0.0000 50.2934 0.0000
# 6 0.0000 0.0000 0.0000 0.0000 0.0000 7.3980
#
#
#
# Elastic Compliance Matrix: (Units=1/GPa)
#
#
# Indices 1 2 3 4 5 6 
#
# 1 0.008534 -0.005815 -0.002461 0.000000 0.000000 0.000000
# 2 -0.005815 0.018636 -0.002117 0.000000 0.000000 0.000000
# 3 -0.002461 -0.002117 0.007475 0.000000 0.000000 0.000000
# 4 0.000000 0.000000 0.000000 -0.000980 0.000000 0.000000
# 5 0.000000 0.000000 0.000000 0.000000 0.019883 0.000000
# 6 0.000000 0.000000 0.000000 0.000000 0.000000 0.135172
#
#
# Mechanical properties :
#
#
# Convention : Reuss Voigt Hill
#
# Bulk Modulus (GPa) = 72.14357 91.43996 81.79176
# Shear Modulus (GPa) = 23.35092 -176.20071 -76.42490
#
# Velocity S-wave (km/s) = 3.32525 -9.13431 -6.01574
# Velocity P-wave (km/s) = 6.99320 8.24307 3.08573
#
# Compressibility (1/GPa) = 0.01386125
#
# Stress axis : x y z
#
# Youngs Moduli (GPa) = 117.17514 53.65965 133.78511
#
# Poissons Ratio (x) = 0.31201 0.32919
# Poissons Ratio (y) = 0.68132 0.28318
# Poissons Ratio (z) = 0.28832 0.11358
#
# Static dielectric constant tensor:
#      x y z
#    x 5.028020 0.000000 0.000000 
#    y 0.000000 1.769700 0.000000 
#    z 0.000000 0.000000 1.772530 
# 
# From -- ./inp_files/10589.got.cif
#   From: 2010.05.17/outbox.ucp.g08.bks.cvg/sg21_6_cif.got.tgz:10589.got - 2010.06.11 15:15:05.
