data_PCOD9325232
_publ_section_title
;
Structure prediction by ZEFSAII (Michael W. Deem and Ramdas Pophale) SiO2 
 PCOD9325232
Probable space group: C 2 2 2
;
_chemical_formula_sum "Si O2"
_cell_formula_units_Z 64
_cell_length_a 17.359428
_cell_length_b 20.289465
_cell_length_c 9.688230
_cell_angle_alpha 90.000000
_cell_angle_beta 90.000000
_cell_angle_gamma 90.000000
_cell_volume 3412.325463
_symmetry_space_group_name_H-M "C 2 2 2"
_symmetry_group_IT_number 21
_symmetry_cell_setting 'orthorhombic'
loop_
_space_group_symop_operation_xyz
x,y,z
-x,-y,z
x,-y,-z
-x,y,-z
1/2+x,1/2+y,z
1/2-x,1/2-y,z
1/2+x,1/2-y,-z
1/2-x,1/2+y,-z
loop_
_atom_site_type_symbol
_atom_site_label
_atom_site_fract_x
_atom_site_fract_y
_atom_site_fract_z
Si Si1 0.552424 0.756352 0.876161
Si Si2 0.307194 0.925212 0.233932
Si Si3 0.089772 0.397104 0.002461
Si Si4 0.691082 0.929863 0.270233
Si Si5 0.199034 0.815901 0.102443
Si Si6 0.303789 0.685218 0.774964
Si Si7 0.908879 0.614841 0.506296
Si Si8 0.054760 0.752658 0.620715
O O1 0.616981 0.704327 0.834924
O O2 0.499890 0.773949 0.745132
O O3 0.500000 0.728994 0.000000
O O4 0.590782 0.821338 0.945686
O O5 0.243633 0.874208 0.179126
O O6 0.361429 0.894637 0.353041
O O7 0.274041 0.997262 0.262578
O O8 0.366034 0.939076 0.109710
O O9 0.137462 0.405026 0.142597
O O10 0.000000 0.414448 0.000000
O O11 0.757228 0.875767 0.287423
O O12 0.633536 0.930935 0.397703
O O13 0.250000 0.750000 0.112868
O O14 0.186297 0.828830 0.938892
O O15 0.250000 0.750000 0.765747
O O16 0.382452 0.701325 0.694158
O O17 0.904095 0.690074 0.450793
O O18 0.000000 0.600013 0.500000
O O19 0.000000 0.781596 0.500000
#
# Coordination Sequence:
#
# PCOD9325232 Si02
#       8
#     8   8   8   8   8   8   8   8
#     4  11  20  38  64  91 125 163 213 267 323 371
#     4  12  25  40  59  92 128 171 213 258 313 378
#     4  11  21  35  58  88 124 165 215 256 301 376
#     4  12  24  40  62  88 128 175 213 251 318 381
#     4  11  22  38  65  93 126 163 211 274 316 366
#     4  11  21  41  65  93 124 167 208 268 325 365
#     4  11  24  42  59  86 135 176 208 250 310 384
#     4  11  23  39  64  97 129 165 210 269 323 381
#
# _framework density 18.755538000000001
#
# number of rings (size 3 to 8) (size 9 to 14) (size 15 to 20)
#    0.000    0.750    5.000    5.250    0.000    4.000 
#    0.000    0.000    0.000    0.750    0.000    0.875 
#    0.000    0.000    0.000    0.000    0.000    0.000 
#
# Total GULP energy -178685.205241 kJ/mol
# GULP energy per Si atom -5583.912664 kJ/mol
# Density = 1.871285 g / cm^3
# Si number density = 18.755538 Si / 1000 Ang^3
#
#
#
# Elastic Constant Matrix: (Units=GPa)
#
#
# Indices 1 2 3 4 5 6 
#
# 1 77.2489 58.2139 42.6121 0.0000 0.0000 0.0000
# 2 58.2139 113.9123 29.6024 0.0000 0.0000 0.0000
# 3 42.6121 29.6024 111.8488 0.0000 0.0000 0.0000
# 4 0.0000 0.0000 0.0000 18.1101 0.0000 0.0000
# 5 0.0000 0.0000 0.0000 0.0000 32.0210 0.0000
# 6 0.0000 0.0000 0.0000 0.0000 0.0000 3.4148
#
#
#
# Elastic Compliance Matrix: (Units=1/GPa)
#
#
# Indices 1 2 3 4 5 6 
#
# 1 0.024847 -0.010994 -0.006556 0.000000 0.000000 0.000000
# 2 -0.010994 0.014291 0.000406 0.000000 0.000000 0.000000
# 3 -0.006556 0.000406 0.011331 0.000000 0.000000 0.000000
# 4 0.000000 0.000000 0.000000 0.055218 0.000000 0.000000
# 5 0.000000 0.000000 0.000000 0.000000 0.031230 0.000000
# 6 0.000000 0.000000 0.000000 0.000000 0.000000 0.292841
#
#
# Mechanical properties :
#
#
# Convention : Reuss Voigt Hill
#
# Bulk Modulus (GPa) = 61.80211 62.65186 62.22699
# Shear Modulus (GPa) = 10.65100 22.21462 16.43281
#
# Velocity S-wave (km/s) = 2.38562 3.44529 2.96321
# Velocity P-wave (km/s) = 6.37269 7.02166 6.70503
#
# Compressibility (1/GPa) = 0.01618068
#
# Stress axis : x y z
#
# Youngs Moduli (GPa) = 40.24689 69.97175 88.25316
#
# Poissons Ratio (x) = 0.76926 0.57862
# Poissons Ratio (y) = 0.44247 -0.03583
# Poissons Ratio (z) = 0.26387 -0.02841
#
# Static dielectric constant tensor:
#      x y z
#    x 1.683910 0.000000 0.000000 
#    y 0.000000 1.675560 0.000000 
#    z 0.000000 0.000000 1.719970 
# 
# From -- ./inp_files/16872.got.cif
#   From: 2010.05.17/outbox.cif.g08.bks.cpg/sg21_9_cif.got.tgz:16872.got - 2010.06.03 23:14:55.
