data_PCOD9325500
_publ_section_title
;
Structure prediction by ZEFSAII (Michael W. Deem and Ramdas Pophale) SiO2 
 PCOD9325500
Probable space group: C 2 2 2
;
_chemical_formula_sum "Si O2"
_cell_formula_units_Z 34
_cell_length_a 9.795041
_cell_length_b 20.552976
_cell_length_c 7.450979
_cell_angle_alpha 90.000000
_cell_angle_beta 90.000000
_cell_angle_gamma 90.000000
_cell_volume 1500.010547
_symmetry_space_group_name_H-M "C 2 2 2"
_symmetry_group_IT_number 21
_symmetry_cell_setting 'orthorhombic'
loop_
_space_group_symop_operation_xyz
x,y,z
-x,-y,z
x,-y,-z
-x,y,-z
1/2+x,1/2+y,z
1/2-x,1/2-y,z
1/2+x,1/2-y,-z
1/2-x,1/2+y,-z
loop_
_atom_site_type_symbol
_atom_site_label
_atom_site_fract_x
_atom_site_fract_y
_atom_site_fract_z
Si Si1 0.500000 0.500000 0.000000
Si Si2 0.687019 0.844275 0.154661
Si Si3 0.151978 0.576003 0.527448
Si Si4 0.461581 0.274099 0.289625
Si Si5 0.671636 0.615175 0.807335
O O1 0.591220 0.449422 0.120741
O O2 0.680349 0.910087 0.266423
O O3 0.562841 0.795610 0.196834
O O4 0.818909 0.810133 0.246910
O O5 0.716197 0.863022 0.952003
O O6 0.150809 0.500000 0.500000
O O7 0.259335 0.604430 0.385825
O O8 0.000000 0.603022 0.500000
O O9 0.500000 0.266869 0.500000
O O10 0.572275 0.322666 0.206225
#
# Coordination Sequence:
#
# PCOD9325500 Si02
#       5
#     2   8   8   8   8
#     4  12  24  44  78 114 140 194 256 324 378 452
#     4  11  24  48  69 109 147 189 246 309 376 452
#     4  11  26  49  74 105 148 201 249 308 387 451
#     4  11  23  47  71 105 149 191 248 305 374 453
#     4  12  25  48  74 111 147 193 254 314 384 460
#
# _framework density 22.666509000000001
#
# number of rings (size 3 to 8) (size 9 to 14) (size 15 to 20)
#    0.000    0.706    4.706    2.118    0.000    0.941 
#   29.647    2.353    0.000    0.000    0.000    0.000 
#    0.000    0.000    0.000    0.000    0.000    0.000 
#
# Total GULP energy -95016.524209 kJ/mol
# GULP energy per Si atom -5589.207306 kJ/mol
# Density = 2.261492 g / cm^3
# Si number density = 22.666509 Si / 1000 Ang^3
#
#
#
# Elastic Constant Matrix: (Units=GPa)
#
#
# Indices 1 2 3 4 5 6 
#
# 1 76.5350 31.8127 27.2726 0.0000 0.0000 0.0000
# 2 31.8127 133.0079 35.1596 0.0000 0.0000 0.0000
# 3 27.2726 35.1596 103.3022 0.0000 0.0000 0.0000
# 4 0.0000 0.0000 0.0000 261.9704 0.0000 0.0000
# 5 0.0000 0.0000 0.0000 0.0000 17.6110 0.0000
# 6 0.0000 0.0000 0.0000 0.0000 0.0000 30.3546
#
#
#
# Elastic Compliance Matrix: (Units=1/GPa)
#
#
# Indices 1 2 3 4 5 6 
#
# 1 0.015351 -0.002857 -0.003080 0.000000 0.000000 0.000000
# 2 -0.002857 0.008794 -0.002239 0.000000 0.000000 0.000000
# 3 -0.003080 -0.002239 0.011255 0.000000 0.000000 0.000000
# 4 0.000000 0.000000 0.000000 0.003817 0.000000 0.000000
# 5 0.000000 0.000000 0.000000 0.000000 0.056783 0.000000
# 6 0.000000 0.000000 0.000000 0.000000 0.000000 0.032944
#
#
# Mechanical properties :
#
#
# Convention : Reuss Voigt Hill
#
# Bulk Modulus (GPa) = 52.49986 55.70388 54.10187
# Shear Modulus (GPa) = 32.97154 76.56056 54.76605
#
# Velocity S-wave (km/s) = 3.81811 5.81810 4.92078
# Velocity P-wave (km/s) = 6.53065 8.35239 7.49706
#
# Compressibility (1/GPa) = 0.01904767
#
# Stress axis : x y z
#
# Youngs Moduli (GPa) = 65.14112 113.71990 88.84567
#
# Poissons Ratio (x) = 0.32495 0.27367
# Poissons Ratio (y) = 0.18614 0.19889
# Poissons Ratio (z) = 0.20066 0.25457
#
# Static dielectric constant tensor:
#      x y z
#    x 1.876800 0.000000 0.000000 
#    y 0.000000 1.819920 0.000000 
#    z 0.000000 0.000000 1.867110 
# 
# From -- ./inp_files/10598.got.cif
#   From: 2010.05.17/outbox.cif.g08.bks.cpg/sg21_6_cif.got.tgz:10598.got - 2010.06.03 23:14:55.
