data_PCOD9325344
_publ_section_title
;
Structure prediction by ZEFSAII (Michael W. Deem and Ramdas Pophale) SiO2 
 PCOD9325344
Probable space group: C 2 2 2
;
_chemical_formula_sum "Si O2"
_cell_formula_units_Z 58
_cell_length_a 10.173573
_cell_length_b 14.741099
_cell_length_c 22.943702
_cell_angle_alpha 90.000000
_cell_angle_beta 90.000000
_cell_angle_gamma 90.000000
_cell_volume 3440.858885
_symmetry_space_group_name_H-M "C 2 2 2"
_symmetry_group_IT_number 21
_symmetry_cell_setting 'orthorhombic'
loop_
_space_group_symop_operation_xyz
x,y,z
-x,-y,z
x,-y,-z
-x,y,-z
1/2+x,1/2+y,z
1/2-x,1/2-y,z
1/2+x,1/2-y,-z
1/2-x,1/2+y,-z
loop_
_atom_site_type_symbol
_atom_site_label
_atom_site_fract_x
_atom_site_fract_y
_atom_site_fract_z
Si Si1 0.264298 0.644000 0.657912
Si Si2 0.593627 0.242784 0.824593
Si Si3 0.841825 0.000741 0.567113
Si Si4 0.885041 0.310177 0.957984
Si Si5 0.008066 0.399886 0.270530
Si Si6 0.499030 0.393752 0.747742
Si Si7 0.242400 0.854482 0.337853
Si Si8 0.000000 0.500000 0.000000
O O1 0.250000 0.750000 0.648148
O O2 0.294536 0.591042 0.599217
O O3 0.132749 0.606417 0.687102
O O4 0.382014 0.627417 0.703369
O O5 0.750000 0.250000 0.812249
O O6 0.580907 0.211125 0.890876
O O7 0.530318 0.171545 0.780364
O O8 0.525305 0.336716 0.806059
O O9 0.799227 0.000000 0.500000
O O10 0.791312 0.918631 0.607637
O O11 0.000000 0.000000 0.568831
O O12 0.750000 0.250000 0.969043
O O13 0.903355 0.422223 0.968462
O O14 0.000000 0.273586 0.000000
O O15 0.000000 0.500000 0.244919
O O16 0.879448 0.380184 0.308104
O O17 0.500000 0.500000 0.759711
O O18 0.368652 0.367151 0.712016
O O19 0.250000 0.750000 0.355996
#
# Coordination Sequence:
#
# PCOD9325344 Si02
#       8
#     8   8   8   8   8   8   8   2
#     4  12  20  39  62  81 113 158 195 242 315 374
#     4  11  22  39  63  97 127 165 216 259 311 386
#     4  11  24  42  62  82 111 159 209 247 302 389
#     4   9  21  44  69  96 137 182 228 278 328 395
#     4  12  22  33  57  92 118 154 188 252 317 368
#     4  12  20  38  60  87 123 165 200 247 311 378
#     4  12  22  37  58  87 120 149 196 256 312 360
#     4   8  20  44  70  94 132 192 218 272 354 362
#
# _framework density 16.856255999999998
#
# number of rings (size 3 to 8) (size 9 to 14) (size 15 to 20)
#    0.414    0.414    8.276    0.000    0.966    0.552 
#    2.483    4.483    0.000    0.000    0.000    0.000 
#    0.000    0.000    0.000    0.000    0.000    0.000 
#
# Total GULP energy -161592.782632 kJ/mol
# GULP energy per Si atom -5572.164918 kJ/mol
# Density = 1.681789 g / cm^3
# Si number density = 16.856256 Si / 1000 Ang^3
#
#
#
# Elastic Constant Matrix: (Units=GPa)
#
#
# Indices 1 2 3 4 5 6 
#
# 1 130.6778 44.0238 62.8932 0.0000 0.0000 0.0000
# 2 44.0238 179.2261 68.0161 0.0000 0.0000 0.0000
# 3 62.8932 68.0161 125.8657 0.0000 0.0000 0.0000
# 4 0.0000 0.0000 0.0000 18.8239 0.0000 0.0000
# 5 0.0000 0.0000 0.0000 0.0000 21.7237 0.0000
# 6 0.0000 0.0000 0.0000 0.0000 0.0000 28.5360
#
#
#
# Elastic Compliance Matrix: (Units=1/GPa)
#
#
# Indices 1 2 3 4 5 6 
#
# 1 0.010148 -0.000715 -0.004684 0.000000 0.000000 0.000000
# 2 -0.000715 0.007069 -0.003463 0.000000 0.000000 0.000000
# 3 -0.004684 -0.003463 0.012157 0.000000 0.000000 0.000000
# 4 0.000000 0.000000 0.000000 0.053124 0.000000 0.000000
# 5 0.000000 0.000000 0.000000 0.000000 0.046033 0.000000
# 6 0.000000 0.000000 0.000000 0.000000 0.000000 0.035043
#
#
# Mechanical properties :
#
#
# Convention : Reuss Voigt Hill
#
# Bulk Modulus (GPa) = 85.83925 87.29287 86.56606
# Shear Modulus (GPa) = 27.00048 31.20582 29.10315
#
# Velocity S-wave (km/s) = 4.00660 4.30733 4.15968
# Velocity P-wave (km/s) = 8.51109 8.75423 8.63351
#
# Compressibility (1/GPa) = 0.01164968
#
# Stress axis : x y z
#
# Youngs Moduli (GPa) = 98.54393 141.45604 82.25714
#
# Poissons Ratio (x) = 0.10113 0.38532
# Poissons Ratio (y) = 0.07045 0.28485
# Poissons Ratio (z) = 0.46161 0.48985
#
# Static dielectric constant tensor:
#      x y z
#    x 1.581970 0.000000 0.000000 
#    y 0.000000 1.634330 0.000000 
#    z 0.000000 0.000000 1.542030 
# 
# From -- ./inp_files/38508.got.cif
#   From: 2010.05.17/outbox.cif.g08.bks.cpg/sg21_20_cif.got.tgz:38508.got - 2010.06.03 23:14:55.
