data_PCOD9325699
_publ_section_title
;
Structure prediction by ZEFSAII (Michael W. Deem and Ramdas Pophale) SiO2 
 PCOD9325699
Probable space group: C 2 2 2
;
_chemical_formula_sum "Si O2"
_cell_formula_units_Z 30
_cell_length_a 31.257581
_cell_length_b 8.429461
_cell_length_c 4.946240
_cell_angle_alpha 90.000000
_cell_angle_beta 90.000000
_cell_angle_gamma 90.000000
_cell_volume 1303.257870
_symmetry_space_group_name_H-M "C 2 2 2"
_symmetry_group_IT_number 21
_symmetry_cell_setting 'orthorhombic'
loop_
_space_group_symop_operation_xyz
x,y,z
-x,-y,z
x,-y,-z
-x,y,-z
1/2+x,1/2+y,z
1/2-x,1/2-y,z
1/2+x,1/2-y,-z
1/2-x,1/2+y,-z
loop_
_atom_site_type_symbol
_atom_site_label
_atom_site_fract_x
_atom_site_fract_y
_atom_site_fract_z
Si Si1 0.625062 0.253054 0.223127
Si Si2 0.250000 0.750000 0.780895
Si Si3 0.187632 0.500000 0.500000
Si Si4 0.000000 0.500000 0.000000
Si Si5 0.925329 0.657925 0.319539
Si Si6 0.683890 0.500000 0.000000
O O1 0.587016 0.278234 0.441518
O O2 0.652050 0.414123 0.206797
O O3 0.657580 0.112129 0.314359
O O4 0.605510 0.200870 0.932655
O O5 0.219709 0.625732 0.630758
O O6 0.284334 0.641817 0.929893
O O7 0.029593 0.615028 0.818191
O O8 0.918039 0.500000 0.500000
#
# Coordination Sequence:
#
# PCOD9325699 Si02
#       6
#     8   4   4   2   8   4
#     4  12  26  45  72 108 152 201 252 313 379 455
#     4  12  26  44  70 108 144 204 262 322 390 430
#     4  12  24  44  72 103 146 194 260 325 376 448
#     4  12  22  44  76 130 150 192 242 326 360 468
#     4  12  24  41  75 116 146 190 241 311 371 448
#     4  12  28  46  73 107 156 208 258 327 377 454
#
# _framework density 23.019237
#
# number of rings (size 3 to 8) (size 9 to 14) (size 15 to 20)
#    0.000    0.000    4.000    5.200    3.733    3.200 
#    0.000    0.000    0.000    0.800    6.933    0.000 
#    0.000    0.000    0.000    0.000    0.000    0.000 
#
# Total GULP energy -83658.887076 kJ/mol
# GULP energy per Si atom -5577.259138 kJ/mol
# Density = 2.296684 g / cm^3
# Si number density = 23.019237 Si / 1000 Ang^3
#
#
#
# Elastic Constant Matrix: (Units=GPa)
#
#
# Indices 1 2 3 4 5 6 
#
# 1 137.0755 48.6651 57.6067 0.0000 0.0000 0.0000
# 2 48.6651 115.9024 37.0154 0.0000 0.0000 0.0000
# 3 57.6067 37.0154 135.0254 0.0000 0.0000 0.0000
# 4 0.0000 0.0000 0.0000 44.1229 0.0000 0.0000
# 5 0.0000 0.0000 0.0000 0.0000 44.8771 0.0000
# 6 0.0000 0.0000 0.0000 0.0000 0.0000 26.2857
#
#
#
# Elastic Compliance Matrix: (Units=1/GPa)
#
#
# Indices 1 2 3 4 5 6 
#
# 1 0.009777 -0.003039 -0.003338 0.000000 0.000000 0.000000
# 2 -0.003039 0.010400 -0.001555 0.000000 0.000000 0.000000
# 3 -0.003338 -0.001555 0.009256 0.000000 0.000000 0.000000
# 4 0.000000 0.000000 0.000000 0.022664 0.000000 0.000000
# 5 0.000000 0.000000 0.000000 0.000000 0.022283 0.000000
# 6 0.000000 0.000000 0.000000 0.000000 0.000000 0.038044
#
#
# Mechanical properties :
#
#
# Convention : Reuss Voigt Hill
#
# Bulk Modulus (GPa) = 73.69024 74.95306 74.32165
# Shear Modulus (GPa) = 37.64735 39.37155 38.50945
#
# Velocity S-wave (km/s) = 4.04849 4.14016 4.09458
# Velocity P-wave (km/s) = 7.34409 7.44891 7.39668
#
# Compressibility (1/GPa) = 0.01357032
#
# Stress axis : x y z
#
# Youngs Moduli (GPa) = 102.28017 96.14935 108.03413
#
# Poissons Ratio (x) = 0.29221 0.36063
# Poissons Ratio (y) = 0.31084 0.16795
# Poissons Ratio (z) = 0.34142 0.14947
#
# Static dielectric constant tensor:
#      x y z
#    x 1.908160 0.000000 0.000000 
#    y 0.000000 1.930700 0.000000 
#    z 0.000000 0.000000 1.963990 
# 
# From -- ./inp_files/7741.got.cif
#   From: 2010.05.17/outbox.cif.g08.bks.cpg/sg21_4_cif.got.tgz:7741.got - 2010.06.03 23:14:55.
