data_PCOD9325090
_publ_section_title
;
Structure prediction by ZEFSAII (Michael W. Deem and Ramdas Pophale) SiO2 
 PCOD9325090
Probable space group: C 2 2 2
;
_chemical_formula_sum "Si O2"
_cell_formula_units_Z 28
_cell_length_a 19.999498
_cell_length_b 7.401616
_cell_length_c 7.058120
_cell_angle_alpha 90.000000
_cell_angle_beta 90.000000
_cell_angle_gamma 90.000000
_cell_volume 1044.803653
_symmetry_space_group_name_H-M "C 2 2 2"
_symmetry_group_IT_number 21
_symmetry_cell_setting 'orthorhombic'
loop_
_space_group_symop_operation_xyz
x,y,z
-x,-y,z
x,-y,-z
-x,y,-z
1/2+x,1/2+y,z
1/2-x,1/2-y,z
1/2+x,1/2-y,-z
1/2-x,1/2+y,-z
loop_
_atom_site_type_symbol
_atom_site_label
_atom_site_fract_x
_atom_site_fract_y
_atom_site_fract_z
Si Si1 0.000000 0.000000 0.000000
Si Si2 0.401340 0.399875 0.320508
Si Si3 0.242437 0.965635 0.778173
Si Si4 0.000000 0.500000 0.500000
Si Si5 0.887232 0.487805 0.232017
O O1 0.949305 0.904294 0.140400
O O2 0.431128 0.500000 0.500000
O O3 0.331399 0.507036 0.293709
O O4 0.387704 0.187612 0.322816
O O5 0.250000 0.750000 0.745778
O O6 0.310557 0.070597 0.722569
O O7 0.238695 0.000000 0.000000
O O8 0.950251 0.401789 0.344708
O O9 0.894608 0.500000 0.000000
#
# Coordination Sequence:
#
# PCOD9325090 Si02
#       5
#     2   8   8   2   8
#     4  12  26  40  70  98 148 182 222 302 356 422
#     4  11  25  43  71 102 139 182 240 290 352 420
#     4   9  19  44  67  97 133 185 231 286 348 421
#     4  12  26  40  70 102 136 186 238 294 344 430
#     4  10  25  45  70  98 144 185 234 289 358 420
#
# _framework density 26.799294
#
# number of rings (size 3 to 8) (size 9 to 14) (size 15 to 20)
#    0.000    1.714    1.429    0.857   10.000    0.000 
#    5.143    0.000    0.000    0.000    0.000    0.000 
#    0.000    0.000    0.000    0.000    0.000    0.000 
#
# Total GULP energy -78065.394074 kJ/mol
# GULP energy per Si atom -5576.099577 kJ/mol
# Density = 2.673830 g / cm^3
# Si number density = 26.799294 Si / 1000 Ang^3
#
#
#
# Elastic Constant Matrix: (Units=GPa)
#
#
# Indices 1 2 3 4 5 6 
#
# 1 235.1820 9.0468 79.8287 0.0000 0.0000 0.0000
# 2 9.0468 88.7673 10.8162 0.0000 0.0000 0.0000
# 3 79.8287 10.8162 168.9783 0.0000 0.0000 0.0000
# 4 0.0000 0.0000 0.0000 17.0991 0.0000 0.0000
# 5 0.0000 0.0000 0.0000 0.0000 286.1484 0.0000
# 6 0.0000 0.0000 0.0000 0.0000 0.0000 417.6368
#
#
#
# Elastic Compliance Matrix: (Units=1/GPa)
#
#
# Indices 1 2 3 4 5 6 
#
# 1 0.005069 -0.000227 -0.002380 0.000000 0.000000 0.000000
# 2 -0.000227 0.011364 -0.000620 0.000000 0.000000 0.000000
# 3 -0.002380 -0.000620 0.007082 0.000000 0.000000 0.000000
# 4 0.000000 0.000000 0.000000 0.058483 0.000000 0.000000
# 5 0.000000 0.000000 0.000000 0.000000 0.003495 0.000000
# 6 0.000000 0.000000 0.000000 0.000000 0.000000 0.002394
#
#
# Mechanical properties :
#
#
# Convention : Reuss Voigt Hill
#
# Bulk Modulus (GPa) = 58.61393 76.92343 67.76868
# Shear Modulus (GPa) = 49.98637 170.39259 110.18948
#
# Velocity S-wave (km/s) = 4.32350 7.98242 6.41918
# Velocity P-wave (km/s) = 6.84415 10.66417 8.96010
#
# Compressibility (1/GPa) = 0.01706079
#
# Stress axis : x y z
#
# Youngs Moduli (GPa) = 197.29344 87.99644 141.20325
#
# Poissons Ratio (x) = 0.01994 0.33606
# Poissons Ratio (y) = 0.04470 0.08760
# Poissons Ratio (z) = 0.46956 0.05459
#
# Static dielectric constant tensor:
#      x y z
#    x 2.299300 0.000000 0.000000 
#    y 0.000000 2.191350 0.000000 
#    z 0.000000 0.000000 1.918810 
# 
# From -- ./inp_files/5537.got.cif
#   From: 2010.05.17/outbox.cif.g08.bks.cpg/sg21_3_cif.got.tgz:5537.got - 2010.06.03 23:14:55.
