data_PCOD9325430
_publ_section_title
;
Structure prediction by ZEFSAII (Michael W. Deem and Ramdas Pophale) SiO2 
 PCOD9325430
Probable space group: C 2 2 2
;
_chemical_formula_sum "Si O2"
_cell_formula_units_Z 32
_cell_length_a 4.865257
_cell_length_b 24.034738
_cell_length_c 11.333763
_cell_angle_alpha 90.000000
_cell_angle_beta 90.000000
_cell_angle_gamma 90.000000
_cell_volume 1325.315586
_symmetry_space_group_name_H-M "C 2 2 2"
_symmetry_group_IT_number 21
_symmetry_cell_setting 'orthorhombic'
loop_
_space_group_symop_operation_xyz
x,y,z
-x,-y,z
x,-y,-z
-x,y,-z
1/2+x,1/2+y,z
1/2-x,1/2-y,z
1/2+x,1/2-y,-z
1/2-x,1/2+y,-z
loop_
_atom_site_type_symbol
_atom_site_label
_atom_site_fract_x
_atom_site_fract_y
_atom_site_fract_z
Si Si1 0.897813 0.559356 0.223161
Si Si2 0.267281 0.836287 0.922412
Si Si3 0.518870 0.286846 0.684283
Si Si4 0.103076 0.087649 0.625895
O O1 0.915578 0.608518 0.128474
O O2 0.589489 0.561892 0.272366
O O3 0.000000 0.500000 0.178290
O O4 0.088806 0.573994 0.335921
O O5 0.159967 0.804568 0.807558
O O6 0.500000 0.805802 0.000000
O O7 0.000000 0.849336 0.000000
O O8 0.250000 0.250000 0.702498
O O9 0.437631 0.345757 0.628817
O O10 0.750000 0.250000 0.618160
O O11 0.000000 0.066906 0.500000
#
# Coordination Sequence:
#
# PCOD9325430 Si02
#       4
#     8   8   8   8
#     4  11  24  43  65  93 128 164 207 260 313 372
#     4  11  23  42  64  91 127 165 209 259 311 372
#     4  11  23  41  63  90 124 162 206 256 309 368
#     4  11  24  42  65  94 127 163 208 259 311 374
#
# _framework density 24.145195000000001
#
# number of rings (size 3 to 8) (size 9 to 14) (size 15 to 20)
#    0.000    1.000    0.000    9.000    0.000    6.500 
#    0.000    6.250    0.000    0.000    0.000    0.000 
#    0.000    0.000    0.000    0.000    0.000    0.000 
#
# Total GULP energy -89633.890488 kJ/mol
# GULP energy per Si atom -5602.118155 kJ/mol
# Density = 2.409024 g / cm^3
# Si number density = 24.145195 Si / 1000 Ang^3
#
#
#
# Elastic Constant Matrix: (Units=GPa)
#
#
# Indices 1 2 3 4 5 6 
#
# 1 111.5150 24.7109 -1.7146 0.0000 0.0000 0.0000
# 2 24.7109 142.9358 -5.4706 0.0000 0.0000 0.0000
# 3 -1.7146 -5.4706 69.3421 0.0000 0.0000 0.0000
# 4 0.0000 0.0000 0.0000 -12.1654 0.0000 0.0000
# 5 0.0000 0.0000 0.0000 0.0000 32.3484 0.0000
# 6 0.0000 0.0000 0.0000 0.0000 0.0000 43.7779
#
#
#
# Elastic Compliance Matrix: (Units=1/GPa)
#
#
# Indices 1 2 3 4 5 6 
#
# 1 0.009325 -0.001608 0.000104 0.000000 0.000000 0.000000
# 2 -0.001608 0.007295 0.000536 0.000000 0.000000 0.000000
# 3 0.000104 0.000536 0.014466 0.000000 0.000000 0.000000
# 4 0.000000 0.000000 0.000000 -0.082201 0.000000 0.000000
# 5 0.000000 0.000000 0.000000 0.000000 0.030913 0.000000
# 6 0.000000 0.000000 0.000000 0.000000 0.000000 0.022843
#
#
# Mechanical properties :
#
#
# Convention : Reuss Voigt Hill
#
# Bulk Modulus (GPa) = 34.30698 39.87160 37.08929
# Shear Modulus (GPa) = 349.76288 33.20998 191.48643
#
# Velocity S-wave (km/s) = 12.04876 3.71270 8.91507
# Velocity P-wave (km/s) = 14.41537 5.90999 11.01660
#
# Compressibility (1/GPa) = 0.02914859
#
# Stress axis : x y z
#
# Youngs Moduli (GPa) = 107.23436 137.08617 69.12719
#
# Poissons Ratio (x) = 0.22046 -0.00717
# Poissons Ratio (y) = 0.17246 -0.03703
# Poissons Ratio (z) = -0.01112 -0.07344
#
# Static dielectric constant tensor:
#      x y z
#    x 1.875620 0.000000 0.000000 
#    y 0.000000 1.958910 0.000000 
#    z 0.000000 0.000000 1.909370 
# 
# From -- ./inp_files/20636.got.cif
#   From: 2010.05.17/outbox.cif.g08.bks.cpg/sg21_11_cif.got.tgz:20636.got - 2010.06.03 23:14:55.
