data_PCOD9325305
_publ_section_title
;
Structure prediction by ZEFSAII (Michael W. Deem and Ramdas Pophale) SiO2 
 PCOD9325305
Probable space group: C 2 2 2
;
_chemical_formula_sum "Si O2"
_cell_formula_units_Z 48
_cell_length_a 18.712794
_cell_length_b 14.452297
_cell_length_c 7.943260
_cell_angle_alpha 90.000000
_cell_angle_beta 90.000000
_cell_angle_gamma 90.000000
_cell_volume 2148.197925
_symmetry_space_group_name_H-M "C 2 2 2"
_symmetry_group_IT_number 21
_symmetry_cell_setting 'orthorhombic'
loop_
_space_group_symop_operation_xyz
x,y,z
-x,-y,z
x,-y,-z
-x,y,-z
1/2+x,1/2+y,z
1/2-x,1/2-y,z
1/2+x,1/2-y,-z
1/2-x,1/2+y,-z
loop_
_atom_site_type_symbol
_atom_site_label
_atom_site_fract_x
_atom_site_fract_y
_atom_site_fract_z
Si Si1 0.562511 0.136295 0.134755
Si Si2 0.823279 0.041312 0.188278
Si Si3 0.669818 0.996702 0.203557
Si Si4 0.909601 0.126904 0.675953
Si Si5 0.061090 0.828255 0.288196
Si Si6 0.327835 0.791301 0.859966
O O1 0.596516 0.051178 0.239077
O O2 0.541967 0.221666 0.253198
O O3 0.500000 0.112693 0.000000
O O4 0.626288 0.179460 0.021681
O O5 0.742342 0.048940 0.255653
O O6 0.870786 0.133030 0.188216
O O7 0.865169 0.965726 0.297752
O O8 0.819955 0.000000 0.000000
O O9 0.676193 0.888049 0.245395
O O10 0.670118 0.000000 0.000000
O O11 0.920622 0.152378 0.481760
O O12 0.869004 0.211436 0.762388
O O13 0.988540 0.117244 0.754801
O O14 0.250000 0.750000 0.900420
#
# Coordination Sequence:
#
# PCOD9325305 Si02
#       6
#     8   8   8   8   8   8
#     4  11  23  42  67  96 126 175 226 280 329 393
#     4  11  22  39  66  96 132 166 215 275 332 392
#     4   9  22  38  62  97 127 161 217 279 326 387
#     4  11  23  44  61  92 135 175 216 272 336 402
#     4  11  25  40  63  95 132 174 220 269 335 407
#     4  11  21  41  69  92 129 169 217 274 333 401
#
# _framework density 22.344311000000001
#
# number of rings (size 3 to 8) (size 9 to 14) (size 15 to 20)
#    0.000    1.333    3.333    2.000    4.667    5.000 
#    3.000    0.833    0.000    2.000    0.000    0.000 
#    0.000    0.000    0.000    0.000    0.000    0.000 
#
# Total GULP energy -134054.024196 kJ/mol
# GULP energy per Si atom -5585.584341 kJ/mol
# Density = 2.229345 g / cm^3
# Si number density = 22.344311 Si / 1000 Ang^3
#
#
#
# Elastic Constant Matrix: (Units=GPa)
#
#
# Indices 1 2 3 4 5 6 
#
# 1 115.2294 48.6576 9.4746 0.0000 0.0000 0.0000
# 2 48.6576 112.7022 2.6081 0.0000 0.0000 0.0000
# 3 9.4746 2.6081 29.5423 0.0000 0.0000 0.0000
# 4 0.0000 0.0000 0.0000 16.5104 0.0000 0.0000
# 5 0.0000 0.0000 0.0000 0.0000 7.7524 0.0000
# 6 0.0000 0.0000 0.0000 0.0000 0.0000 41.3003
#
#
#
# Elastic Compliance Matrix: (Units=1/GPa)
#
#
# Indices 1 2 3 4 5 6 
#
# 1 0.010886 -0.004629 -0.003083 0.000000 0.000000 0.000000
# 2 -0.004629 0.010859 0.000526 0.000000 0.000000 0.000000
# 3 -0.003083 0.000526 0.034792 0.000000 0.000000 0.000000
# 4 0.000000 0.000000 0.000000 0.060568 0.000000 0.000000
# 5 0.000000 0.000000 0.000000 0.000000 0.128992 0.000000
# 6 0.000000 0.000000 0.000000 0.000000 0.000000 0.024213
#
#
# Mechanical properties :
#
#
# Convention : Reuss Voigt Hill
#
# Bulk Modulus (GPa) = 23.71566 42.10604 32.91085
# Shear Modulus (GPa) = 16.73715 26.22821 21.48268
#
# Velocity S-wave (km/s) = 2.73986 3.42982 3.10407
# Velocity P-wave (km/s) = 4.54377 5.87963 5.25433
#
# Compressibility (1/GPa) = 0.04216623
#
# Stress axis : x y z
#
# Youngs Moduli (GPa) = 91.85807 92.08826 28.74223
#
# Poissons Ratio (x) = 0.42625 0.08861
# Poissons Ratio (y) = 0.42518 -0.01511
# Poissons Ratio (z) = 0.28318 -0.04842
#
# Static dielectric constant tensor:
#      x y z
#    x 1.916530 0.000000 0.000000 
#    y 0.000000 1.926020 0.000000 
#    z 0.000000 0.000000 1.822980 
# 
# From -- ./inp_files/14976.got.cif
#   From: 2010.05.17/outbox.cif.g08.bks.cpg/sg21_8_cif.got.tgz:14976.got - 2010.06.03 23:14:55.
