data_PCOD9325714
_publ_section_title
;
Structure prediction by ZEFSAII (Michael W. Deem and Ramdas Pophale) SiO2 
 PCOD9325714
Probable space group: C 2 2 2
;
_chemical_formula_sum "Si O2"
_cell_formula_units_Z 28
_cell_length_a 9.117441
_cell_length_b 18.715398
_cell_length_c 8.313936
_cell_angle_alpha 90.000000
_cell_angle_beta 90.000000
_cell_angle_gamma 90.000000
_cell_volume 1418.661248
_symmetry_space_group_name_H-M "C 2 2 2"
_symmetry_group_IT_number 21
_symmetry_cell_setting 'orthorhombic'
loop_
_space_group_symop_operation_xyz
x,y,z
-x,-y,z
x,-y,-z
-x,y,-z
1/2+x,1/2+y,z
1/2-x,1/2-y,z
1/2+x,1/2-y,-z
1/2-x,1/2+y,-z
loop_
_atom_site_type_symbol
_atom_site_label
_atom_site_fract_x
_atom_site_fract_y
_atom_site_fract_z
Si Si1 0.501089 0.420953 0.757320
Si Si2 0.749317 0.578501 0.519023
Si Si3 0.500000 0.804547 0.500000
Si Si4 0.576748 0.734243 0.160685
O O1 0.500000 0.500000 0.830712
O O2 0.338635 0.411140 0.684657
O O3 0.621111 0.424019 0.613900
O O4 0.551265 0.350568 0.846828
O O5 0.820806 0.500000 0.500000
O O6 0.859573 0.643369 0.497479
O O7 0.509880 0.759977 0.333234
O O8 0.750000 0.750000 0.160482
O O9 0.500000 0.766092 0.000000
#
# Coordination Sequence:
#
# PCOD9325714 Si02
#       4
#     8   8   4   8
#     4   9  19  39  64  92 127 172 223 264 322 397
#     4   9  18  35  65  98 127 170 222 268 325 400
#     4  12  23  40  69  94 134 176 212 278 345 378
#     4  12  28  43  66 100 135 173 224 274 332 395
#
# _framework density 19.736916999999998
#
# number of rings (size 3 to 8) (size 9 to 14) (size 15 to 20)
#    0.000    1.714    2.857    3.857    4.000    0.571 
#    0.000    0.000    0.000    3.429    0.000    0.000 
#    0.000    0.000    0.000    0.000    0.000    0.000 
#
# Total GULP energy -78024.210643 kJ/mol
# GULP energy per Si atom -5573.157903 kJ/mol
# Density = 1.969199 g / cm^3
# Si number density = 19.736917 Si / 1000 Ang^3
#
#
#
# Elastic Constant Matrix: (Units=GPa)
#
#
# Indices 1 2 3 4 5 6 
#
# 1 86.8325 49.4317 43.7845 0.0000 0.0000 0.0000
# 2 49.4317 147.2253 46.9896 0.0000 0.0000 0.0000
# 3 43.7845 46.9896 128.7877 0.0000 0.0000 0.0000
# 4 0.0000 0.0000 0.0000 -10.1789 0.0000 0.0000
# 5 0.0000 0.0000 0.0000 0.0000 -35.0746 0.0000
# 6 0.0000 0.0000 0.0000 0.0000 0.0000 31.0400
#
#
#
# Elastic Compliance Matrix: (Units=1/GPa)
#
#
# Indices 1 2 3 4 5 6 
#
# 1 0.015787 -0.004060 -0.003886 0.000000 0.000000 0.000000
# 2 -0.004060 0.008732 -0.001805 0.000000 0.000000 0.000000
# 3 -0.003886 -0.001805 0.009745 0.000000 0.000000 0.000000
# 4 0.000000 0.000000 0.000000 -0.098242 0.000000 0.000000
# 5 0.000000 0.000000 0.000000 0.000000 -0.028511 0.000000
# 6 0.000000 0.000000 0.000000 0.000000 0.000000 0.032217
#
#
# Mechanical properties :
#
#
# Convention : Reuss Voigt Hill
#
# Bulk Modulus (GPa) = 67.74925 71.47299 69.61112
# Shear Modulus (GPa) = -139.47393 11.99994 -63.73700
#
# Velocity S-wave (km/s) = -8.41546 2.46843 -5.68888
# Velocity P-wave (km/s) = 7.74764 6.66451 2.79377
#
# Compressibility (1/GPa) = 0.01476031
#
# Stress axis : x y z
#
# Youngs Moduli (GPa) = 63.34196 114.52285 102.62169
#
# Poissons Ratio (x) = 0.46502 0.39877
# Poissons Ratio (y) = 0.25720 0.18528
# Poissons Ratio (z) = 0.24613 0.20677
#
# Static dielectric constant tensor:
#      x y z
#    x 1.664680 0.000000 0.000000 
#    y 0.000000 1.715090 0.000000 
#    z 0.000000 0.000000 1.762150 
# 
# From -- ./inp_files/10131.got.cif
#   From: 2010.05.17/outbox.cif.g08.bks.cpg/sg21_6_cif.got.tgz:10131.got - 2010.06.03 23:14:55.
