data_PCOD9325230
_publ_section_title
;
Structure prediction by ZEFSAII (Michael W. Deem and Ramdas Pophale) SiO2 
 PCOD9325230
Probable space group: C 2 2 2
;
_chemical_formula_sum "Si O2"
_cell_formula_units_Z 64
_cell_length_a 9.936691
_cell_length_b 22.130835
_cell_length_c 16.499834
_cell_angle_alpha 90.000000
_cell_angle_beta 90.000000
_cell_angle_gamma 90.000000
_cell_volume 3628.433433
_symmetry_space_group_name_H-M "C 2 2 2"
_symmetry_group_IT_number 21
_symmetry_cell_setting 'orthorhombic'
loop_
_space_group_symop_operation_xyz
x,y,z
-x,-y,z
x,-y,-z
-x,y,-z
1/2+x,1/2+y,z
1/2-x,1/2-y,z
1/2+x,1/2-y,-z
1/2-x,1/2+y,-z
loop_
_atom_site_type_symbol
_atom_site_label
_atom_site_fract_x
_atom_site_fract_y
_atom_site_fract_z
Si Si1 0.246292 0.636227 0.833764
Si Si2 0.510228 0.679647 0.252807
Si Si3 0.284770 0.380143 0.852026
Si Si4 0.405888 0.175171 0.573664
Si Si5 0.337472 0.492840 0.096137
Si Si6 0.969210 0.323917 0.239476
Si Si7 0.160237 0.195000 0.002973
Si Si8 0.098844 0.821926 0.429616
O O1 0.337526 0.659090 0.759486
O O2 0.286522 0.569973 0.866034
O O3 0.093458 0.644950 0.806426
O O4 0.289211 0.680010 0.907436
O O5 0.421434 0.641979 0.189918
O O6 0.488411 0.751072 0.236284
O O7 0.458242 0.663879 0.341545
O O8 0.272312 0.451922 0.854143
O O9 0.165417 0.345483 0.806166
O O10 0.303057 0.360298 0.944952
O O11 0.500000 0.153786 0.500000
O O12 0.456862 0.160630 0.664584
O O13 0.251363 0.155488 0.562871
O O14 0.400869 0.248486 0.567931
O O15 0.500000 0.500000 0.102972
O O16 0.305937 0.500000 0.000000
O O17 0.250000 0.250000 0.971147
O O18 0.000000 0.206520 0.000000
O O19 0.000000 0.843488 0.500000
#
# Coordination Sequence:
#
# PCOD9325230 Si02
#       8
#     8   8   8   8   8   8   8   8
#     4  12  25  39  59  87 114 158 204 247 296 345
#     4  11  20  38  59  90 122 158 195 240 297 354
#     4  12  23  39  63  81 114 163 196 242 296 348
#     4   9  18  33  52  82 124 162 185 229 297 356
#     4  11  22  44  63  79 109 153 210 257 289 348
#     4  11  24  38  57  90 129 152 191 247 300 361
#     4  12  24  38  57  85 118 154 194 241 307 366
#     4   9  18  31  54  85 120 158 196 228 283 361
#
# _framework density 17.638466000000001
#
# number of rings (size 3 to 8) (size 9 to 14) (size 15 to 20)
#    0.000    1.125    5.000    2.250    3.500    0.500 
#    0.000    0.625    0.000    0.000    0.000    5.250 
#    0.000    0.000    0.000    0.000    0.000    0.000 
#
# Total GULP energy -178602.086869 kJ/mol
# GULP energy per Si atom -5581.315215 kJ/mol
# Density = 1.759832 g / cm^3
# Si number density = 17.638466 Si / 1000 Ang^3
#
#
#
# Elastic Constant Matrix: (Units=GPa)
#
#
# Indices 1 2 3 4 5 6 
#
# 1 70.2163 6.4578 29.3773 0.0000 0.0000 0.0000
# 2 6.4578 79.3049 11.3838 0.0000 0.0000 0.0000
# 3 29.3773 11.3838 91.3911 0.0000 0.0000 0.0000
# 4 0.0000 0.0000 0.0000 2.1851 0.0000 0.0000
# 5 0.0000 0.0000 0.0000 0.0000 31.3159 0.0000
# 6 0.0000 0.0000 0.0000 0.0000 0.0000 14.8263
#
#
#
# Elastic Compliance Matrix: (Units=1/GPa)
#
#
# Indices 1 2 3 4 5 6 
#
# 1 0.016482 -0.000592 -0.005224 0.000000 0.000000 0.000000
# 2 -0.000592 0.012860 -0.001412 0.000000 0.000000 0.000000
# 3 -0.005224 -0.001412 0.012797 0.000000 0.000000 0.000000
# 4 0.000000 0.000000 0.000000 0.457640 0.000000 0.000000
# 5 0.000000 0.000000 0.000000 0.000000 0.031933 0.000000
# 6 0.000000 0.000000 0.000000 0.000000 0.000000 0.067448
#
#
# Mechanical properties :
#
#
# Convention : Reuss Voigt Hill
#
# Bulk Modulus (GPa) = 36.12274 37.26113 36.69194
# Shear Modulus (GPa) = 8.02769 22.57836 15.30303
#
# Velocity S-wave (km/s) = 2.13568 3.58168 2.94869
# Velocity P-wave (km/s) = 5.15805 6.18671 5.69565
#
# Compressibility (1/GPa) = 0.02768339
#
# Stress axis : x y z
#
# Youngs Moduli (GPa) = 60.67253 77.75808 78.14256
#
# Poissons Ratio (x) = 0.04605 0.40824
# Poissons Ratio (y) = 0.03593 0.11030
# Poissons Ratio (z) = 0.31697 0.10976
#
# Static dielectric constant tensor:
#      x y z
#    x 1.601870 0.000000 0.000000 
#    y 0.000000 1.596070 0.000000 
#    z 0.000000 0.000000 1.613340 
# 
# From -- ./inp_files/35900.got.cif
#   From: 2010.05.17/outbox.cif.g08.bks.cpg/sg21_18_cif.got.tgz:35900.got - 2010.06.03 23:14:55.
