data_PCOD9325775
_publ_section_title
;
Structure prediction by ZEFSAII (Michael W. Deem and Ramdas Pophale) SiO2 
 PCOD9325775
Probable space group: C 2 2 2
;
_chemical_formula_sum "Si O2"
_cell_formula_units_Z 18
_cell_length_a 8.770251
_cell_length_b 15.972276
_cell_length_c 5.150843
_cell_angle_alpha 90.000000
_cell_angle_beta 90.000000
_cell_angle_gamma 90.000000
_cell_volume 721.534566
_symmetry_space_group_name_H-M "C 2 2 2"
_symmetry_group_IT_number 21
_symmetry_cell_setting 'orthorhombic'
loop_
_space_group_symop_operation_xyz
x,y,z
-x,-y,z
x,-y,-z
-x,y,-z
1/2+x,1/2+y,z
1/2-x,1/2-y,z
1/2+x,1/2-y,-z
1/2-x,1/2+y,-z
loop_
_atom_site_type_symbol
_atom_site_label
_atom_site_fract_x
_atom_site_fract_y
_atom_site_fract_z
Si Si1 0.000000 0.000000 0.000000
Si Si2 0.500000 0.174468 0.000000
Si Si3 0.500000 0.293147 0.500000
Si Si4 0.249821 0.917649 0.662646
O O1 0.894209 0.053762 0.823973
O O2 0.478071 0.235612 0.754205
O O3 0.628903 0.115209 0.871854
O O4 0.661068 0.345123 0.504013
O O5 0.302450 0.000000 0.500000
#
# Coordination Sequence:
#
# PCOD9325775 Si02
#       4
#     2   4   4   8
#     4  12  24  50  92 116 172 232 298 346 430 528
#     4  12  33  53  89 133 180 216 298 376 436 504
#     4  12  27  56  87 130 174 234 284 360 453 524
#     4  12  28  55  89 128 170 239 295 359 431 535
#
# _framework density 24.946831
#
# number of rings (size 3 to 8) (size 9 to 14) (size 15 to 20)
#    0.000    0.000    4.444    2.667    6.222    8.000 
#    0.000    0.000    0.000    0.000    0.000    0.000 
#    0.000    0.000    0.000    0.000    0.000    0.000 
#
# Total GULP energy -50312.125204 kJ/mol
# GULP energy per Si atom -5590.236134 kJ/mol
# Density = 2.489005 g / cm^3
# Si number density = 24.946831 Si / 1000 Ang^3
#
#
#
# Elastic Constant Matrix: (Units=GPa)
#
#
# Indices 1 2 3 4 5 6 
#
# 1 168.6883 103.0104 82.8196 0.0000 0.0000 0.0000
# 2 103.0104 166.6338 109.7557 0.0000 0.0000 0.0000
# 3 82.8196 109.7557 207.1660 0.0000 0.0000 0.0000
# 4 0.0000 0.0000 0.0000 57.1782 0.0000 0.0000
# 5 0.0000 0.0000 0.0000 0.0000 52.4889 0.0000
# 6 0.0000 0.0000 0.0000 0.0000 0.0000 10.9074
#
#
#
# Elastic Compliance Matrix: (Units=1/GPa)
#
#
# Indices 1 2 3 4 5 6 
#
# 1 0.009676 -0.005274 -0.001074 0.000000 0.000000 0.000000
# 2 -0.005274 0.012093 -0.004298 0.000000 0.000000 0.000000
# 3 -0.001074 -0.004298 0.007534 0.000000 0.000000 0.000000
# 4 0.000000 0.000000 0.000000 0.017489 0.000000 0.000000
# 5 0.000000 0.000000 0.000000 0.000000 0.019052 0.000000
# 6 0.000000 0.000000 0.000000 0.000000 0.000000 0.091680
#
#
# Mechanical properties :
#
#
# Convention : Reuss Voigt Hill
#
# Bulk Modulus (GPa) = 124.85033 125.96216 125.40625
# Shear Modulus (GPa) = 27.55030 40.57506 34.06268
#
# Velocity S-wave (km/s) = 3.32680 4.03732 3.69916
# Velocity P-wave (km/s) = 8.05680 8.50500 8.28393
#
# Compressibility (1/GPa) = 0.00800959
#
# Stress axis : x y z
#
# Youngs Moduli (GPa) = 103.34730 82.69482 132.73957
#
# Poissons Ratio (x) = 0.43615 0.14256
# Poissons Ratio (y) = 0.54508 0.57053
# Poissons Ratio (z) = 0.11100 0.35543
#
# Static dielectric constant tensor:
#      x y z
#    x 2.131850 0.000000 0.000000 
#    y 0.000000 3.678350 0.000000 
#    z 0.000000 0.000000 1.842170 
# 
# From -- ./inp_files/920.got.cif
#   From: 2010.05.17/outbox.cif.g08.bks.cpg/sg21_1_cif.got.tgz:920.got - 2010.06.03 23:14:55.
