data_PCOD9325912
_publ_section_title
;
Structure prediction by ZEFSAII (Michael W. Deem and Ramdas Pophale) SiO2 
 PCOD9325912
Probable space group: F 2 2 2
;
_chemical_formula_sum "Si O2"
_cell_formula_units_Z 88
_cell_length_a 6.423436
_cell_length_b 31.294396
_cell_length_c 23.275700
_cell_angle_alpha 90.000000
_cell_angle_beta 90.000000
_cell_angle_gamma 90.000000
_cell_volume 4678.824185
_symmetry_space_group_name_H-M "F 2 2 2"
_symmetry_group_IT_number 22
_symmetry_cell_setting 'orthorhombic'
loop_
_space_group_symop_operation_xyz
x,y,z
-x,-y,z
x,-y,-z
-x,y,-z
x,1/2+y,1/2+z
-x,1/2-y,1/2+z
x,1/2-y,1/2-z
-x,1/2+y,1/2-z
1/2+x,y,1/2+z
1/2-x,-y,1/2+z
1/2+x,-y,1/2-z
1/2-x,y,1/2-z
1/2+x,1/2+y,z
1/2-x,1/2-y,z
1/2+x,1/2-y,-z
1/2-x,1/2+y,-z
loop_
_atom_site_type_symbol
_atom_site_label
_atom_site_fract_x
_atom_site_fract_y
_atom_site_fract_z
Si Si1 0.500000 0.500000 0.500000
Si Si2 0.927384 0.324654 0.823280
Si Si3 0.858976 0.904057 0.190511
Si Si4 0.250000 0.250000 0.250000
Si Si5 0.750000 0.880372 0.750000
Si Si6 0.177384 0.925346 0.573280
Si Si7 0.391024 0.154057 0.940511
Si Si8 0.500000 0.630372 0.000000
O O1 0.631188 0.468980 0.541018
O O2 0.721736 0.355317 0.822989
O O3 0.881188 0.281020 0.791018
O O4 0.093352 0.351554 0.786589
O O5 0.021280 0.319988 0.886717
O O6 0.750000 0.917136 0.250000
O O7 0.771280 0.930012 0.136717
O O8 0.103387 0.905206 0.204750
O O9 0.343352 0.898446 0.536589
O O10 0.971736 0.894683 0.572989
O O11 0.500000 0.167136 0.000000
O O12 0.146613 0.155206 0.954750
#
# Coordination Sequence:
#
# PCOD9325912 Si02
#       8
#     4  16  16   4   8  16  16   8
#     4  12  20  38  52  84 122 158 184 262 308 336
#     4  10  20  33  54  83 117 147 192 239 295 351
#     4   9  18  35  56  82 110 150 195 238 279 355
#     4  12  20  38  52  84 122 158 184 262 308 336
#     4  10  16  33  56  84 108 147 200 237 290 342
#     4  10  20  33  54  83 117 147 192 239 295 351
#     4   9  18  35  56  82 110 150 195 238 279 355
#     4  10  16  33  56  84 108 147 200 237 290 342
#
# _framework density 18.808145
#
# number of rings (size 3 to 8) (size 9 to 14) (size 15 to 20)
#    0.000    2.182    5.455    1.091    0.000    0.727 
#    0.000    0.000    0.000    4.364    4.727    0.000 
#    0.000    0.000    0.000    0.000    0.000    1.455 
#
# Total GULP energy -122626.766694 kJ/mol
# GULP energy per Si atom -5573.943941 kJ/mol
# Density = 1.876534 g / cm^3
# Si number density = 18.808145 Si / 1000 Ang^3
#
#
#
# Elastic Constant Matrix: (Units=GPa)
#
#
# Indices 1 2 3 4 5 6 
#
# 1 104.5161 25.8510 44.3910 0.0000 0.0000 0.0000
# 2 25.8510 58.6984 47.9936 0.0000 0.0000 0.0000
# 3 44.3910 47.9936 173.2125 0.0000 0.0000 0.0000
# 4 0.0000 0.0000 0.0000 30.8593 0.0000 0.0000
# 5 0.0000 0.0000 0.0000 0.0000 37.2828 0.0000
# 6 0.0000 0.0000 0.0000 0.0000 0.0000 2.5351
#
#
#
# Elastic Compliance Matrix: (Units=1/GPa)
#
#
# Indices 1 2 3 4 5 6 
#
# 1 0.011224 -0.003350 -0.001948 0.000000 0.000000 0.000000
# 2 -0.003350 0.023026 -0.005522 0.000000 0.000000 0.000000
# 3 -0.001948 -0.005522 0.007802 0.000000 0.000000 0.000000
# 4 0.000000 0.000000 0.000000 0.032405 0.000000 0.000000
# 5 0.000000 0.000000 0.000000 0.000000 0.026822 0.000000
# 6 0.000000 0.000000 0.000000 0.000000 0.000000 0.394465
#
#
# Mechanical properties :
#
#
# Convention : Reuss Voigt Hill
#
# Bulk Modulus (GPa) = 48.98872 63.65535 56.32203
# Shear Modulus (GPa) = 9.53855 28.68155 19.11005
#
# Velocity S-wave (km/s) = 2.25444 3.90930 3.19101
# Velocity P-wave (km/s) = 5.73409 7.36851 6.60207
#
# Compressibility (1/GPa) = 0.02041286
#
# Stress axis : x y z
#
# Youngs Moduli (GPa) = 89.09481 43.42879 128.16495
#
# Poissons Ratio (x) = 0.14549 0.24970
# Poissons Ratio (y) = 0.29848 0.70766
# Poissons Ratio (z) = 0.17358 0.23979
#
# Static dielectric constant tensor:
#      x y z
#    x 1.709500 0.000000 0.000000 
#    y 0.000000 1.634860 0.000000 
#    z 0.000000 0.000000 1.692860 
# 
# From -- ./inp_files/46738.got.cif
#   From: 2010.05.17/outbox.cif.g08.bks.cpg/sg22_24_cif.got.tgz:46738.got - 2010.06.03 23:40:54.
