data_PCOD9325503
_publ_section_title
;
Structure prediction by ZEFSAII (Michael W. Deem and Ramdas Pophale) SiO2 
 PCOD9325503
Probable space group: C 2 2 2
;
_chemical_formula_sum "Si O2"
_cell_formula_units_Z 56
_cell_length_a 20.141431
_cell_length_b 8.407447
_cell_length_c 15.425326
_cell_angle_alpha 90.000000
_cell_angle_beta 90.000000
_cell_angle_gamma 90.000000
_cell_volume 2612.094065
_symmetry_space_group_name_H-M "C 2 2 2"
_symmetry_group_IT_number 21
_symmetry_cell_setting 'orthorhombic'
loop_
_space_group_symop_operation_xyz
x,y,z
-x,-y,z
x,-y,-z
-x,y,-z
1/2+x,1/2+y,z
1/2-x,1/2-y,z
1/2+x,1/2-y,-z
1/2-x,1/2+y,-z
loop_
_atom_site_type_symbol
_atom_site_label
_atom_site_fract_x
_atom_site_fract_y
_atom_site_fract_z
Si Si1 0.505200 0.192905 0.400921
Si Si2 0.727525 0.933716 0.402961
Si Si3 0.567950 0.063690 0.861437
Si Si4 0.807362 0.929945 0.750458
Si Si5 0.058071 0.127220 0.245935
Si Si6 0.376305 0.120118 0.702157
Si Si7 0.277404 0.928980 0.907473
O O1 0.500000 0.244111 0.500000
O O2 0.454744 0.282477 0.337316
O O3 0.578479 0.221571 0.363083
O O4 0.500000 0.000000 0.398171
O O5 0.750000 0.750000 0.402298
O O6 0.722843 0.000000 0.500000
O O7 0.779604 0.028841 0.344410
O O8 0.660328 0.980520 0.351076
O O9 0.555160 0.241388 0.828769
O O10 0.641952 0.061881 0.902371
O O11 0.500000 0.000000 0.904465
O O12 0.577824 0.955100 0.775708
O O13 0.827916 0.746209 0.747494
O O14 0.872441 0.038079 0.760806
O O15 0.757107 0.980831 0.826836
O O16 0.000000 0.000000 0.236100
O O17 0.250000 0.750000 0.901347
O O18 0.256747 0.000000 0.000000
#
# Coordination Sequence:
#
# PCOD9325503 Si02
#       7
#     8   8   8   8   8   8   8
#     4  11  24  39  61 100 139 195 246 300 358 431
#     4  12  27  43  65 100 141 191 248 305 366 440
#     4  12  23  45  77 103 143 191 247 297 369 441
#     4  12  25  45  75 105 143 192 245 303 373 445
#     4  12  22  43  69 104 140 189 246 298 366 437
#     4  12  23  43  70 101 141 195 238 299 367 437
#     4  12  29  50  79 113 148 191 244 311 385 460
#
# _framework density 21.438738000000001
#
# number of rings (size 3 to 8) (size 9 to 14) (size 15 to 20)
#    0.000    0.143    7.143    2.571    4.000    1.714 
#    0.000    0.000    0.000    0.429    0.000    0.000 
#    0.000    0.000    0.000    0.000    0.000    0.000 
#
# Total GULP energy -156565.605022 kJ/mol
# GULP energy per Si atom -5591.628751 kJ/mol
# Density = 2.138994 g / cm^3
# Si number density = 21.438738 Si / 1000 Ang^3
#
#
#
# Elastic Constant Matrix: (Units=GPa)
#
#
# Indices 1 2 3 4 5 6 
#
# 1 152.5135 53.6237 48.8591 0.0000 0.0000 0.0000
# 2 53.6237 127.7958 54.5324 0.0000 0.0000 0.0000
# 3 48.8591 54.5324 117.1770 0.0000 0.0000 0.0000
# 4 0.0000 0.0000 0.0000 27.4956 0.0000 0.0000
# 5 0.0000 0.0000 0.0000 0.0000 13.9490 0.0000
# 6 0.0000 0.0000 0.0000 0.0000 0.0000 42.2236
#
#
#
# Elastic Compliance Matrix: (Units=1/GPa)
#
#
# Indices 1 2 3 4 5 6 
#
# 1 0.008142 -0.002455 -0.002252 0.000000 0.000000 0.000000
# 2 -0.002455 0.010504 -0.003865 0.000000 0.000000 0.000000
# 3 -0.002252 -0.003865 0.011272 0.000000 0.000000 0.000000
# 4 0.000000 0.000000 0.000000 0.036369 0.000000 0.000000
# 5 0.000000 0.000000 0.000000 0.000000 0.071689 0.000000
# 6 0.000000 0.000000 0.000000 0.000000 0.000000 0.023683
#
#
# Mechanical properties :
#
#
# Convention : Reuss Voigt Hill
#
# Bulk Modulus (GPa) = 78.28798 79.05741 78.67270
# Shear Modulus (GPa) = 27.31311 32.76505 30.03908
#
# Velocity S-wave (km/s) = 3.57320 3.91360 3.74727
# Velocity P-wave (km/s) = 7.32257 7.57481 7.44976
#
# Compressibility (1/GPa) = 0.01277335
#
# Stress axis : x y z
#
# Youngs Moduli (GPa) = 122.82690 95.19838 88.71683
#
# Poissons Ratio (x) = 0.23373 0.19980
# Poissons Ratio (y) = 0.30156 0.34288
# Poissons Ratio (z) = 0.27663 0.36793
#
# Static dielectric constant tensor:
#      x y z
#    x 1.850120 0.000000 0.000000 
#    y 0.000000 1.609070 0.000000 
#    z 0.000000 0.000000 1.723890 
# 
# From -- ./inp_files/33290.got.cif
#   From: 2010.05.17/outbox.cif.g08.bks.cpg/sg21_17_cif.got.tgz:33290.got - 2010.06.03 23:14:55.
