data_PCOD9325260
_publ_section_title
;
Structure prediction by ZEFSAII (Michael W. Deem and Ramdas Pophale) SiO2 
 PCOD9325260
Probable space group: C 2 2 2
;
_chemical_formula_sum "Si O2"
_cell_formula_units_Z 56
_cell_length_a 10.105903
_cell_length_b 22.932149
_cell_length_c 13.965958
_cell_angle_alpha 90.000000
_cell_angle_beta 90.000000
_cell_angle_gamma 90.000000
_cell_volume 3236.611791
_symmetry_space_group_name_H-M "C 2 2 2"
_symmetry_group_IT_number 21
_symmetry_cell_setting 'orthorhombic'
loop_
_space_group_symop_operation_xyz
x,y,z
-x,-y,z
x,-y,-z
-x,y,-z
1/2+x,1/2+y,z
1/2-x,1/2-y,z
1/2+x,1/2-y,-z
1/2-x,1/2+y,-z
loop_
_atom_site_type_symbol
_atom_site_label
_atom_site_fract_x
_atom_site_fract_y
_atom_site_fract_z
Si Si1 0.652399 0.004338 0.384128
Si Si2 0.401844 0.820068 0.083852
Si Si3 0.728796 0.371011 0.401337
Si Si4 0.598667 0.321681 0.083090
Si Si5 0.514117 0.676783 0.292125
Si Si6 0.969743 0.685364 0.698750
Si Si7 0.271003 0.122034 0.371626
O O1 0.727692 0.946816 0.349562
O O2 0.500000 0.000000 0.350809
O O3 0.648088 0.000000 0.500000
O O4 0.722636 0.065603 0.364064
O O5 0.398656 0.749212 0.079225
O O6 0.250767 0.840926 0.071799
O O7 0.452626 0.833436 0.190611
O O8 0.500000 0.840310 0.000000
O O9 0.583161 0.354602 0.366956
O O10 0.831769 0.325575 0.355051
O O11 0.740204 0.370193 0.515865
O O12 0.541012 0.337344 0.186698
O O13 0.500000 0.341975 0.000000
O O14 0.505266 0.746465 0.304518
O O15 0.662193 0.655425 0.309833
O O16 0.084290 0.648000 0.649008
#
# Coordination Sequence:
#
# PCOD9325260 Si02
#       7
#     8   8   8   8   8   8   8
#     4   9  18  36  57  75  97 137 196 240 261 295
#     4   9  18  32  52  76 102 140 184 221 260 314
#     4  11  21  37  57  75 109 150 184 224 266 315
#     4   9  18  33  51  73 107 142 175 222 270 313
#     4  11  23  35  50  83 119 143 175 218 275 337
#     4  11  21  35  54  80 115 147 178 216 270 335
#     4  11  23  35  54  81 108 147 188 224 263 314
#
# _framework density 17.302043000000001
#
# number of rings (size 3 to 8) (size 9 to 14) (size 15 to 20)
#    0.000    1.857    2.857    1.714    2.000    4.000 
#    0.000    2.143    0.000    0.000    0.000    6.000 
#    0.000    0.000    0.000    0.000    0.000    0.000 
#
# Total GULP energy -156238.798488 kJ/mol
# GULP energy per Si atom -5579.957089 kJ/mol
# Density = 1.726266 g / cm^3
# Si number density = 17.302043 Si / 1000 Ang^3
#
#
#
# Elastic Constant Matrix: (Units=GPa)
#
#
# Indices 1 2 3 4 5 6 
#
# 1 21.6635 -8.9403 5.0446 0.0000 0.0000 0.0000
# 2 -8.9403 53.2203 3.4795 0.0000 0.0000 0.0000
# 3 5.0446 3.4795 72.0621 0.0000 0.0000 0.0000
# 4 0.0000 0.0000 0.0000 -8.7048 0.0000 0.0000
# 5 0.0000 0.0000 0.0000 0.0000 29.9823 0.0000
# 6 0.0000 0.0000 0.0000 0.0000 0.0000 -3.3773
#
#
#
# Elastic Compliance Matrix: (Units=1/GPa)
#
#
# Indices 1 2 3 4 5 6 
#
# 1 0.050709 0.008778 -0.003974 0.000000 0.000000 0.000000
# 2 0.008778 0.020369 -0.001598 0.000000 0.000000 0.000000
# 3 -0.003974 -0.001598 0.014232 0.000000 0.000000 0.000000
# 4 0.000000 0.000000 0.000000 -0.114880 0.000000 0.000000
# 5 0.000000 0.000000 0.000000 0.000000 0.033353 0.000000
# 6 0.000000 0.000000 0.000000 0.000000 0.000000 -0.296097
#
#
# Mechanical properties :
#
#
# Convention : Reuss Voigt Hill
#
# Bulk Modulus (GPa) = 10.90241 16.23483 13.56862
# Shear Modulus (GPa) = -18.64610 13.40418 -2.62096
#
# Velocity S-wave (km/s) = -3.28637 2.78639 -1.23212
# Velocity P-wave (km/s) = 2.84348 4.44472 2.41559
#
# Compressibility (1/GPa) = 0.09172282
#
# Stress axis : x y z
#
# Youngs Moduli (GPa) = 19.72051 49.09446 70.26300
#
# Poissons Ratio (x) = -0.43096 0.27920
# Poissons Ratio (y) = -0.17311 0.11228
# Poissons Ratio (z) = 0.07836 0.07845
#
# Static dielectric constant tensor:
#      x y z
#    x 1.571700 0.000000 0.000000 
#    y 0.000000 1.580500 0.000000 
#    z 0.000000 0.000000 1.578120 
# 
# From -- ./inp_files/30733.got.cif
#   From: 2010.05.17/outbox.cif.g08.bks.cpg/sg21_16_cif.got.tgz:30733.got - 2010.06.03 23:14:55.
