data_PCOD9325939
_publ_section_title
;
Structure prediction by ZEFSAII (Michael W. Deem and Ramdas Pophale) SiO2 
 PCOD9325939
Probable space group: F 2 2 2
;
_chemical_formula_sum "Si O2"
_cell_formula_units_Z 128
_cell_length_a 24.149239
_cell_length_b 16.115562
_cell_length_c 19.557214
_cell_angle_alpha 90.000000
_cell_angle_beta 90.000000
_cell_angle_gamma 90.000000
_cell_volume 7611.248350
_symmetry_space_group_name_H-M "F 2 2 2"
_symmetry_group_IT_number 22
_symmetry_cell_setting 'orthorhombic'
loop_
_space_group_symop_operation_xyz
x,y,z
-x,-y,z
x,-y,-z
-x,y,-z
x,1/2+y,1/2+z
-x,1/2-y,1/2+z
x,1/2-y,1/2-z
-x,1/2+y,1/2-z
1/2+x,y,1/2+z
1/2-x,-y,1/2+z
1/2+x,-y,1/2-z
1/2-x,y,1/2-z
1/2+x,1/2+y,z
1/2-x,1/2-y,z
1/2+x,1/2-y,-z
1/2-x,1/2+y,-z
loop_
_atom_site_type_symbol
_atom_site_label
_atom_site_fract_x
_atom_site_fract_y
_atom_site_fract_z
Si Si1 0.164675 0.075824 0.229317
Si Si2 0.662690 0.873620 0.725750
Si Si3 0.934911 0.595026 0.357144
Si Si4 0.877469 0.600210 0.499071
Si Si5 0.248625 0.841245 0.993155
Si Si6 0.773514 0.368992 0.143898
Si Si7 0.439025 0.607524 0.137880
Si Si8 0.270845 0.568858 0.640027
O O1 0.106821 0.112478 0.204816
O O2 0.211857 0.095425 0.172937
O O3 0.184516 0.100146 0.304790
O O4 0.163507 0.974806 0.228660
O O5 0.713691 0.847157 0.676784
O O6 0.679491 0.843934 0.801474
O O7 0.603342 0.854926 0.693317
O O8 0.906244 0.622962 0.427696
O O9 0.937504 0.493759 0.359198
O O10 0.996878 0.629163 0.352170
O O11 0.874543 0.500000 0.500000
O O12 0.814783 0.631432 0.504900
O O13 0.914401 0.628088 0.563270
O O14 0.250000 0.750000 0.962358
O O15 0.275297 0.900958 0.937083
O O16 0.278118 0.838279 0.066804
O O17 0.772902 0.469162 0.140198
#
# Coordination Sequence:
#
# PCOD9325939 Si02
#       8
#    16  16  16  16  16  16  16  16
#     4   8  14  25  44  67  89 117 149 181 216 268
#     4   8  14  25  44  67  89 117 149 181 216 268
#     4   9  15  23  41  72 100 119 146 185 226 272
#     4  10  17  28  44  63  97 132 151 177 226 287
#     4  12  22  29  41  66  92 120 155 195 232 266
#     4   9  16  29  47  63  87 123 155 179 222 278
#     4   9  15  23  41  72 100 119 146 185 226 272
#     4   9  16  29  47  63  87 123 155 179 222 278
#
# _framework density 16.817214
#
# number of rings (size 3 to 8) (size 9 to 14) (size 15 to 20)
#    0.000    2.750    2.500    3.000    0.000    1.500 
#    0.000    2.500    0.000    0.000    0.000    6.125 
#    0.000    6.000    0.000    0.000    0.000    0.500 
#
# Total GULP energy -178277.206582 kJ/mol
# GULP energy per Si atom -5571.162706 kJ/mol
# Density = 1.677894 g / cm^3
# Si number density = 16.817214 Si / 1000 Ang^3
#
#
#
# Elastic Constant Matrix: (Units=GPa)
#
#
# Indices 1 2 3 4 5 6 
#
# 1 95.4698 5.2823 47.6293 0.0000 0.0000 0.0000
# 2 5.2823 18.1775 11.7275 0.0000 0.0000 0.0000
# 3 47.6293 11.7275 99.8445 0.0000 0.0000 0.0000
# 4 0.0000 0.0000 0.0000 -4.0868 0.0000 0.0000
# 5 0.0000 0.0000 0.0000 0.0000 18.5539 0.0000
# 6 0.0000 0.0000 0.0000 0.0000 0.0000 1.7624
#
#
#
# Elastic Compliance Matrix: (Units=1/GPa)
#
#
# Indices 1 2 3 4 5 6 
#
# 1 0.013747 0.000255 -0.006588 0.000000 0.000000 0.000000
# 2 0.000255 0.059529 -0.007114 0.000000 0.000000 0.000000
# 3 -0.006588 -0.007114 0.013994 0.000000 0.000000 0.000000
# 4 0.000000 0.000000 0.000000 -0.244689 0.000000 0.000000
# 5 0.000000 0.000000 0.000000 0.000000 0.053897 0.000000
# 6 0.000000 0.000000 0.000000 0.000000 0.000000 0.567413
#
#
# Mechanical properties :
#
#
# Convention : Reuss Voigt Hill
#
# Bulk Modulus (GPa) = 16.56267 38.08556 27.32411
# Shear Modulus (GPa) = 9.78649 13.16941 11.47795
#
# Velocity S-wave (km/s) = 2.41495 2.80141 2.61533
# Velocity P-wave (km/s) = 4.20071 5.75846 5.04013
#
# Compressibility (1/GPa) = 0.06037673
#
# Stress axis : x y z
#
# Youngs Moduli (GPa) = 72.74315 16.79865 71.46043
#
# Poissons Ratio (x) = -0.00429 0.47077
# Poissons Ratio (y) = -0.01858 0.50836
# Poissons Ratio (z) = 0.47922 0.11950
#
# Static dielectric constant tensor:
#      x y z
#    x 1.562540 0.000000 0.000000 
#    y 0.000000 1.572270 0.000000 
#    z 0.000000 0.000000 1.587200 
# 
# From -- ./inp_files/39654.got.cif
#   From: 2010.05.17/outbox.cif.g08.bks.cpg/sg22_20_cif.got.tgz:39654.got - 2010.06.03 23:40:54.
