data_PCOD9325749
_publ_section_title
;
Structure prediction by ZEFSAII (Michael W. Deem and Ramdas Pophale) SiO2 
 PCOD9325749
Probable space group: C 2 2 2
;
_chemical_formula_sum "Si O2"
_cell_formula_units_Z 30
_cell_length_a 14.811990
_cell_length_b 13.837594
_cell_length_c 6.564263
_cell_angle_alpha 90.000000
_cell_angle_beta 90.000000
_cell_angle_gamma 90.000000
_cell_volume 1345.426468
_symmetry_space_group_name_H-M "C 2 2 2"
_symmetry_group_IT_number 21
_symmetry_cell_setting 'orthorhombic'
loop_
_space_group_symop_operation_xyz
x,y,z
-x,-y,z
x,-y,-z
-x,y,-z
1/2+x,1/2+y,z
1/2-x,1/2-y,z
1/2+x,1/2-y,-z
1/2-x,1/2+y,-z
loop_
_atom_site_type_symbol
_atom_site_label
_atom_site_fract_x
_atom_site_fract_y
_atom_site_fract_z
Si Si1 0.750000 0.250000 0.842600
Si Si2 0.132428 0.568026 0.319989
Si Si3 0.500000 0.000000 0.000000
Si Si4 0.608726 0.279043 0.479579
Si Si5 0.810583 0.081139 0.140142
O O1 0.664532 0.273235 0.692618
O O2 0.759232 0.159228 0.996525
O O3 0.099187 0.500000 0.500000
O O4 0.140183 0.677547 0.385923
O O5 0.228663 0.526926 0.252850
O O6 0.062842 0.564508 0.138035
O O7 0.500000 0.279131 0.500000
O O8 0.635382 0.362982 0.317937
O O9 0.858706 0.000000 0.000000
#
# Coordination Sequence:
#
# PCOD9325749 Si02
#       5
#     4   8   2   8   8
#     4  12  24  50  74 106 142 190 248 312 376 436
#     4  12  24  44  71 110 145 189 242 317 390 455
#     4  12  26  36  72 114 142 182 238 308 396 450
#     4  12  27  46  74 108 152 194 250 315 379 450
#     4  12  26  47  76 105 147 205 251 302 381 457
#
# _framework density 22.297761000000001
#
# number of rings (size 3 to 8) (size 9 to 14) (size 15 to 20)
#    0.000    0.000    6.667    3.600    3.733    1.067 
#    0.000    4.000    0.000    0.000    0.000    0.000 
#    0.000    0.000    0.000    0.000    0.000    0.000 
#
# Total GULP energy -83749.882200 kJ/mol
# GULP energy per Si atom -5583.325480 kJ/mol
# Density = 2.224701 g / cm^3
# Si number density = 22.297761 Si / 1000 Ang^3
#
#
#
# Elastic Constant Matrix: (Units=GPa)
#
#
# Indices 1 2 3 4 5 6 
#
# 1 87.1268 -26.5733 26.6321 0.0000 0.0000 0.0000
# 2 -26.5733 59.8337 12.8145 0.0000 0.0000 0.0000
# 3 26.6321 12.8145 112.5935 0.0000 0.0000 0.0000
# 4 0.0000 0.0000 0.0000 36.4841 0.0000 0.0000
# 5 0.0000 0.0000 0.0000 0.0000 48.9456 0.0000
# 6 0.0000 0.0000 0.0000 0.0000 0.0000 26.0958
#
#
#
# Elastic Compliance Matrix: (Units=1/GPa)
#
#
# Indices 1 2 3 4 5 6 
#
# 1 0.015194 0.007706 -0.004471 0.000000 0.000000 0.000000
# 2 0.007706 0.021038 -0.004217 0.000000 0.000000 0.000000
# 3 -0.004471 -0.004217 0.010419 0.000000 0.000000 0.000000
# 4 0.000000 0.000000 0.000000 0.027409 0.000000 0.000000
# 5 0.000000 0.000000 0.000000 0.000000 0.020431 0.000000
# 6 0.000000 0.000000 0.000000 0.000000 0.000000 0.038320
#
#
# Mechanical properties :
#
#
# Convention : Reuss Voigt Hill
#
# Bulk Modulus (GPa) = 22.37788 31.70007 27.03898
# Shear Modulus (GPa) = 33.40625 38.75047 36.07836
#
# Velocity S-wave (km/s) = 3.87484 4.17329 4.02683
# Velocity P-wave (km/s) = 5.48424 6.12122 5.81147
#
# Compressibility (1/GPa) = 0.04468699
#
# Stress axis : x y z
#
# Youngs Moduli (GPa) = 65.81384 47.53213 95.97852
#
# Poissons Ratio (x) = -0.36627 0.42912
# Poissons Ratio (y) = -0.50714 0.40475
# Poissons Ratio (z) = 0.29425 0.20045
#
# Static dielectric constant tensor:
#      x y z
#    x 1.807490 0.000000 0.000000 
#    y 0.000000 1.752620 0.000000 
#    z 0.000000 0.000000 1.918850 
# 
# From -- ./inp_files/4613.got.cif
#   From: 2010.05.17/outbox.cif.g08.bks.cpg/sg21_3_cif.got.tgz:4613.got - 2010.06.03 23:14:55.
