data_PCOD9325726
_publ_section_title
;
Structure prediction by ZEFSAII (Michael W. Deem and Ramdas Pophale) SiO2 
 PCOD9325726
Probable space group: C 2 2 2
;
_chemical_formula_sum "Si O2"
_cell_formula_units_Z 34
_cell_length_a 15.516774
_cell_length_b 19.684674
_cell_length_c 4.950866
_cell_angle_alpha 90.000000
_cell_angle_beta 90.000000
_cell_angle_gamma 90.000000
_cell_volume 1512.205570
_symmetry_space_group_name_H-M "C 2 2 2"
_symmetry_group_IT_number 21
_symmetry_cell_setting 'orthorhombic'
loop_
_space_group_symop_operation_xyz
x,y,z
-x,-y,z
x,-y,-z
-x,y,-z
1/2+x,1/2+y,z
1/2-x,1/2-y,z
1/2+x,1/2-y,-z
1/2-x,1/2+y,-z
loop_
_atom_site_type_symbol
_atom_site_label
_atom_site_fract_x
_atom_site_fract_y
_atom_site_fract_z
Si Si1 0.000000 0.500000 0.500000
Si Si2 0.902718 0.840444 0.987749
Si Si3 0.354326 0.254595 0.475068
Si Si4 0.758388 0.426610 0.859159
Si Si5 0.864615 0.607313 0.661502
O O1 0.939176 0.550906 0.667557
O O2 0.892463 0.777504 0.191568
O O3 0.835393 0.895567 0.097497
O O4 0.877684 0.812077 0.694480
O O5 0.000000 0.865749 0.000000
O O6 0.250000 0.250000 0.458723
O O7 0.390253 0.181542 0.560346
O O8 0.793743 0.420385 0.555847
O O9 0.762309 0.500000 0.000000
O O10 0.822832 0.383326 0.046460
#
# Coordination Sequence:
#
# PCOD9325726 Si02
#       5
#     2   8   8   8   8
#     4  12  28  46  64 110 138 182 218 294 332 438
#     4  12  26  43  69 105 136 170 237 287 335 400
#     4  12  23  46  71  99 132 188 224 284 342 405
#     4  12  23  46  68  94 133 183 219 272 343 408
#     4  12  26  43  69  97 137 179 226 271 343 409
#
# _framework density 22.483716000000001
#
# number of rings (size 3 to 8) (size 9 to 14) (size 15 to 20)
#    0.000    0.000    7.059    2.824    3.294    2.353 
#    0.000    0.000    0.000    5.647    0.000    0.000 
#    0.000    0.000    0.000    0.000    0.000    0.000 
#
# Total GULP energy -95224.245642 kJ/mol
# GULP energy per Si atom -5601.426214 kJ/mol
# Density = 2.243254 g / cm^3
# Si number density = 22.483716 Si / 1000 Ang^3
#
#
#
# Elastic Constant Matrix: (Units=GPa)
#
#
# Indices 1 2 3 4 5 6 
#
# 1 136.7721 -0.3105 16.4866 0.0000 0.0000 0.0000
# 2 -0.3105 61.7223 -12.3167 0.0000 0.0000 0.0000
# 3 16.4866 -12.3167 86.3317 0.0000 0.0000 0.0000
# 4 0.0000 0.0000 0.0000 25.2312 0.0000 0.0000
# 5 0.0000 0.0000 0.0000 0.0000 7.7389 0.0000
# 6 0.0000 0.0000 0.0000 0.0000 0.0000 30.0731
#
#
#
# Elastic Compliance Matrix: (Units=1/GPa)
#
#
# Indices 1 2 3 4 5 6 
#
# 1 0.007488 -0.000255 -0.001466 0.000000 0.000000 0.000000
# 2 -0.000255 0.016685 0.002429 0.000000 0.000000 0.000000
# 3 -0.001466 0.002429 0.012210 0.000000 0.000000 0.000000
# 4 0.000000 0.000000 0.000000 0.039634 0.000000 0.000000
# 5 0.000000 0.000000 0.000000 0.000000 0.129217 0.000000
# 6 0.000000 0.000000 0.000000 0.000000 0.000000 0.033252
#
#
# Mechanical properties :
#
#
# Convention : Reuss Voigt Hill
#
# Bulk Modulus (GPa) = 26.45626 32.50498 29.48062
# Shear Modulus (GPa) = 20.02651 31.33975 25.68313
#
# Velocity S-wave (km/s) = 2.98772 3.73753 3.38346
# Velocity P-wave (km/s) = 4.86768 5.75448 5.32956
#
# Compressibility (1/GPa) = 0.03779824
#
# Stress axis : x y z
#
# Youngs Moduli (GPa) = 133.55414 59.93394 81.90150
#
# Poissons Ratio (x) = 0.01528 0.12009
# Poissons Ratio (y) = 0.03405 -0.19895
# Poissons Ratio (z) = 0.19583 -0.14559
#
# Static dielectric constant tensor:
#      x y z
#    x 1.843440 0.000000 0.000000 
#    y 0.000000 1.853520 0.000000 
#    z 0.000000 0.000000 1.783830 
# 
# From -- ./inp_files/3712.got.cif
#   From: 2010.05.17/outbox.cif.g08.bks.cpg/sg21_2_cif.got.tgz:3712.got - 2010.06.03 23:14:55.
