data_PCOD9325056
_publ_section_title
;
Structure prediction by ZEFSAII (Michael W. Deem and Ramdas Pophale) SiO2 
 PCOD9325056
Probable space group: C 2 2 2
;
_chemical_formula_sum "Si O2"
_cell_formula_units_Z 20
_cell_length_a 5.937900
_cell_length_b 13.024111
_cell_length_c 10.331889
_cell_angle_alpha 90.000000
_cell_angle_beta 90.000000
_cell_angle_gamma 90.000000
_cell_volume 799.025611
_symmetry_space_group_name_H-M "C 2 2 2"
_symmetry_group_IT_number 21
_symmetry_cell_setting 'orthorhombic'
loop_
_space_group_symop_operation_xyz
x,y,z
-x,-y,z
x,-y,-z
-x,y,-z
1/2+x,1/2+y,z
1/2-x,1/2-y,z
1/2+x,1/2-y,-z
1/2-x,1/2+y,-z
loop_
_atom_site_type_symbol
_atom_site_label
_atom_site_fract_x
_atom_site_fract_y
_atom_site_fract_z
Si Si1 0.000000 0.000000 0.763233
Si Si2 0.609495 0.113624 0.128469
Si Si3 0.357813 0.856921 0.620925
O O1 0.129831 0.083939 0.852348
O O2 0.825380 0.061772 0.672959
O O3 0.519929 0.166627 0.257182
O O4 0.500000 0.000000 0.131110
O O5 0.500000 0.162735 0.000000
O O6 0.500000 0.894304 0.500000
O O7 0.250000 0.750000 0.580285
#
# Coordination Sequence:
#
# PCOD9325056 Si02
#       3
#     4   8   8
#     4  10  24  48  78 100 148 192 232 310 360 436
#     4   9  21  43  72 108 134 182 239 292 368 436
#     4  11  27  46  67 107 148 188 248 297 359 432
#
# _framework density 25.030487999999998
#
# number of rings (size 3 to 8) (size 9 to 14) (size 15 to 20)
#    0.000    2.000    0.000    0.000    5.600   21.600 
#    7.200    0.000    0.000    0.000    0.000    0.000 
#    0.000    0.000    0.000    0.000    0.000    0.000 
#
# Total GULP energy -55916.919974 kJ/mol
# GULP energy per Si atom -5591.691997 kJ/mol
# Density = 2.497352 g / cm^3
# Si number density = 25.030488 Si / 1000 Ang^3
#
#
#
# Elastic Constant Matrix: (Units=GPa)
#
#
# Indices 1 2 3 4 5 6 
#
# 1 158.5985 37.5021 104.5977 0.0000 0.0000 0.0000
# 2 37.5021 88.6841 34.5565 0.0000 0.0000 0.0000
# 3 104.5977 34.5565 210.4202 0.0000 0.0000 0.0000
# 4 0.0000 0.0000 0.0000 23.1543 0.0000 0.0000
# 5 0.0000 0.0000 0.0000 0.0000 31.0799 0.0000
# 6 0.0000 0.0000 0.0000 0.0000 0.0000 23.2932
#
#
#
# Elastic Compliance Matrix: (Units=1/GPa)
#
#
# Indices 1 2 3 4 5 6 
#
# 1 0.009840 -0.002409 -0.004496 0.000000 0.000000 0.000000
# 2 -0.002409 0.012637 -0.000878 0.000000 0.000000 0.000000
# 3 -0.004496 -0.000878 0.007131 0.000000 0.000000 0.000000
# 4 0.000000 0.000000 0.000000 0.043189 0.000000 0.000000
# 5 0.000000 0.000000 0.000000 0.000000 0.032175 0.000000
# 6 0.000000 0.000000 0.000000 0.000000 0.000000 0.042931
#
#
# Mechanical properties :
#
#
# Convention : Reuss Voigt Hill
#
# Bulk Modulus (GPa) = 71.21096 90.11284 80.66190
# Shear Modulus (GPa) = 29.73560 34.24190 31.98875
#
# Velocity S-wave (km/s) = 3.45044 3.70267 3.57878
# Velocity P-wave (km/s) = 6.66224 7.37286 7.02654
#
# Compressibility (1/GPa) = 0.01404278
#
# Stress axis : x y z
#
# Youngs Moduli (GPa) = 101.62776 79.13413 140.22770
#
# Poissons Ratio (x) = 0.19065 0.63041
# Poissons Ratio (y) = 0.24485 0.12308
# Poissons Ratio (z) = 0.45688 0.06945
#
# Static dielectric constant tensor:
#      x y z
#    x 2.072620 0.000000 0.000000 
#    y 0.000000 1.991530 0.000000 
#    z 0.000000 0.000000 2.026030 
# 
# From -- ./inp_files/20054.got.cif
#   From: 2010.05.17/outbox.cif.g08.bks.cpg/sg21_11_cif.got.tgz:20054.got - 2010.06.03 23:14:55.
