data_PCOD9325614
_publ_section_title
;
Structure prediction by ZEFSAII (Michael W. Deem and Ramdas Pophale) SiO2 
 PCOD9325614
Probable space group: C 2 2 2
;
_chemical_formula_sum "Si O2"
_cell_formula_units_Z 32
_cell_length_a 5.035747
_cell_length_b 20.942614
_cell_length_c 13.415731
_cell_angle_alpha 90.000000
_cell_angle_beta 90.000000
_cell_angle_gamma 90.000000
_cell_volume 1414.845873
_symmetry_space_group_name_H-M "C 2 2 2"
_symmetry_group_IT_number 21
_symmetry_cell_setting 'orthorhombic'
loop_
_space_group_symop_operation_xyz
x,y,z
-x,-y,z
x,-y,-z
-x,y,-z
1/2+x,1/2+y,z
1/2-x,1/2-y,z
1/2+x,1/2-y,-z
1/2-x,1/2+y,-z
loop_
_atom_site_type_symbol
_atom_site_label
_atom_site_fract_x
_atom_site_fract_y
_atom_site_fract_z
Si Si1 0.552669 0.428104 0.120071
Si Si2 0.350130 0.816766 0.906034
Si Si3 0.373918 0.149245 0.731657
Si Si4 0.139179 0.177569 0.396262
O O1 0.500000 0.500000 0.155856
O O2 0.363101 0.366700 0.134726
O O3 0.806861 0.407010 0.187600
O O4 0.500000 0.433179 0.000000
O O5 0.250000 0.750000 0.948073
O O6 0.518741 0.798807 0.809646
O O7 0.500000 0.847818 0.000000
O O8 0.608020 0.139466 0.649975
O O9 0.109137 0.170878 0.677386
O O10 0.250000 0.250000 0.407903
O O11 0.000000 0.157405 0.500000
#
# Coordination Sequence:
#
# PCOD9325614 Si02
#       4
#     8   8   8   8
#     4  11  25  47  72 108 155 210 261 306 363 459
#     4  12  26  41  69 108 154 196 250 310 387 455
#     4  12  25  44  70 107 147 199 245 312 377 456
#     4  12  26  44  72 109 150 190 251 318 394 456
#
# _framework density 22.617305000000002
#
# number of rings (size 3 to 8) (size 9 to 14) (size 15 to 20)
#    0.000    0.250    5.000    4.500    3.500    1.000 
#    0.000    0.000    0.000    0.750    6.500    0.000 
#    0.000    0.000    0.000    0.000    0.000    0.000 
#
# Total GULP energy -89067.830456 kJ/mol
# GULP energy per Si atom -5566.739403 kJ/mol
# Density = 2.256583 g / cm^3
# Si number density = 22.617305 Si / 1000 Ang^3
#
#
#
# Elastic Constant Matrix: (Units=GPa)
#
#
# Indices 1 2 3 4 5 6 
#
# 1 148.9609 42.7785 69.5844 0.0000 0.0000 0.0000
# 2 42.7785 86.4750 25.3718 0.0000 0.0000 0.0000
# 3 69.5844 25.3718 166.8219 0.0000 0.0000 0.0000
# 4 0.0000 0.0000 0.0000 23.3501 0.0000 0.0000
# 5 0.0000 0.0000 0.0000 0.0000 58.5771 0.0000
# 6 0.0000 0.0000 0.0000 0.0000 0.0000 8.3480
#
#
#
# Elastic Compliance Matrix: (Units=1/GPa)
#
#
# Indices 1 2 3 4 5 6 
#
# 1 0.009312 -0.003629 -0.003332 0.000000 0.000000 0.000000
# 2 -0.003629 0.013518 -0.000542 0.000000 0.000000 0.000000
# 3 -0.003332 -0.000542 0.007467 0.000000 0.000000 0.000000
# 4 0.000000 0.000000 0.000000 0.042826 0.000000 0.000000
# 5 0.000000 0.000000 0.000000 0.000000 0.017072 0.000000
# 6 0.000000 0.000000 0.000000 0.000000 0.000000 0.119790
#
#
# Mechanical properties :
#
#
# Convention : Reuss Voigt Hill
#
# Bulk Modulus (GPa) = 65.40137 75.30302 70.35220
# Shear Modulus (GPa) = 21.73079 35.68989 28.71034
#
# Velocity S-wave (km/s) = 3.10305 3.97670 3.56673
# Velocity P-wave (km/s) = 6.46667 7.37918 6.93794
#
# Compressibility (1/GPa) = 0.01529020
#
# Stress axis : x y z
#
# Youngs Moduli (GPa) = 107.38948 73.97376 133.92536
#
# Poissons Ratio (x) = 0.26844 0.44627
# Poissons Ratio (y) = 0.38970 0.07263
# Poissons Ratio (z) = 0.35785 0.04012
#
# Static dielectric constant tensor:
#      x y z
#    x 2.065510 0.000000 0.000000 
#    y 0.000000 1.978820 0.000000 
#    z 0.000000 0.000000 1.915390 
# 
# From -- ./inp_files/28714.got.cif
#   From: 2010.05.17/outbox.cif.g08.bks.cpg/sg21_15_cif.got.tgz:28714.got - 2010.06.03 23:14:55.
