data_PCOD9326276
_publ_section_title
;
Structure prediction by ZEFSAII (Michael W. Deem and Ramdas Pophale) SiO2 
 PCOD9326276
Probable space group: F 2 2 2
;
_chemical_formula_sum "Si O2"
_cell_formula_units_Z 72
_cell_length_a 22.279573
_cell_length_b 6.620040
_cell_length_c 18.267422
_cell_angle_alpha 90.000000
_cell_angle_beta 90.000000
_cell_angle_gamma 90.000000
_cell_volume 2694.292476
_symmetry_space_group_name_H-M "F 2 2 2"
_symmetry_group_IT_number 22
_symmetry_cell_setting 'orthorhombic'
loop_
_space_group_symop_operation_xyz
x,y,z
-x,-y,z
x,-y,-z
-x,y,-z
x,1/2+y,1/2+z
-x,1/2-y,1/2+z
x,1/2-y,1/2-z
-x,1/2+y,1/2-z
1/2+x,y,1/2+z
1/2-x,-y,1/2+z
1/2+x,-y,1/2-z
1/2-x,y,1/2-z
1/2+x,1/2+y,z
1/2-x,1/2-y,z
1/2+x,1/2-y,-z
1/2-x,1/2+y,-z
loop_
_atom_site_type_symbol
_atom_site_label
_atom_site_fract_x
_atom_site_fract_y
_atom_site_fract_z
Si Si1 0.750000 0.250000 0.528324
Si Si2 0.701280 0.575176 0.646341
Si Si3 0.048720 0.674824 0.603659
Si Si4 0.500000 0.000000 0.778324
Si Si5 0.605349 0.250000 0.250000
Si Si6 0.750000 0.250000 0.750000
Si Si7 0.144651 0.000000 0.000000
Si Si8 0.000000 0.500000 0.000000
O O1 0.722760 0.433609 0.577843
O O2 0.808813 0.319171 0.483977
O O3 0.750000 0.750000 0.657470
O O4 0.640699 0.683870 0.676777
O O5 0.707382 0.398715 0.706408
O O6 0.109301 0.566130 0.573223
O O7 0.000000 0.500000 0.592529
O O8 0.027240 0.816391 0.672157
O O9 0.042618 0.851285 0.543592
O O10 0.558813 0.930829 0.733977
#
# Coordination Sequence:
#
# PCOD9326276 Si02
#       8
#     8  16  16   8   8   4   8   4
#     4  11  30  45  74 120 146 201 254 299 384 446
#     4  11  23  49  76 109 148 201 249 308 377 440
#     4  11  23  49  76 109 148 201 249 308 377 440
#     4  11  30  45  74 120 146 201 254 299 384 446
#     4  12  25  53  74 108 162 194 248 318 366 448
#     4  10  18  42  76 110 138 192 254 290 378 432
#     4  12  25  53  74 108 162 194 248 318 366 448
#     4  10  18  42  76 110 138 192 254 290 378 432
#
# _framework density 26.723154999999998
#
# number of rings (size 3 to 8) (size 9 to 14) (size 15 to 20)
#    0.000    0.889    4.444    1.333    3.111    3.556 
#    0.000    0.000    0.000    0.000    0.000    0.000 
#    0.000    0.000    0.000    0.000    0.000    0.000 
#
# Total GULP energy -100318.492584 kJ/mol
# GULP energy per Si atom -5573.249588 kJ/mol
# Density = 2.666233 g / cm^3
# Si number density = 26.723155 Si / 1000 Ang^3
#
#
#
# Elastic Constant Matrix: (Units=GPa)
#
#
# Indices 1 2 3 4 5 6 
#
# 1 184.5406 78.8693 62.7413 0.0000 0.0000 0.0000
# 2 78.8693 219.4778 50.9003 0.0000 0.0000 0.0000
# 3 62.7413 50.9003 109.2214 0.0000 0.0000 0.0000
# 4 0.0000 0.0000 0.0000 89.9810 0.0000 0.0000
# 5 0.0000 0.0000 0.0000 0.0000 37.4822 0.0000
# 6 0.0000 0.0000 0.0000 0.0000 0.0000 77.1661
#
#
#
# Elastic Compliance Matrix: (Units=1/GPa)
#
#
# Indices 1 2 3 4 5 6 
#
# 1 0.007357 -0.001865 -0.003357 0.000000 0.000000 0.000000
# 2 -0.001865 0.005581 -0.001530 0.000000 0.000000 0.000000
# 3 -0.003357 -0.001530 0.011797 0.000000 0.000000 0.000000
# 4 0.000000 0.000000 0.000000 0.011113 0.000000 0.000000
# 5 0.000000 0.000000 0.000000 0.000000 0.026679 0.000000
# 6 0.000000 0.000000 0.000000 0.000000 0.000000 0.012959
#
#
# Mechanical properties :
#
#
# Convention : Reuss Voigt Hill
#
# Bulk Modulus (GPa) = 89.03309 99.80683 94.41996
# Shear Modulus (GPa) = 53.91682 62.30779 58.11231
#
# Velocity S-wave (km/s) = 4.49665 4.83391 4.66833
# Velocity P-wave (km/s) = 7.76846 8.28161 8.02914
#
# Compressibility (1/GPa) = 0.01123178
#
# Stress axis : x y z
#
# Youngs Moduli (GPa) = 135.91672 179.16992 84.76739
#
# Poissons Ratio (x) = 0.33421 0.28457
# Poissons Ratio (y) = 0.25353 0.12965
# Poissons Ratio (z) = 0.45629 0.27404
#
# Static dielectric constant tensor:
#      x y z
#    x 2.083460 0.000000 0.000000 
#    y 0.000000 2.110020 0.000000 
#    z 0.000000 0.000000 2.315550 
# 
# From -- ./inp_files/54118.got.cif
#   From: 2010.05.17/outbox.cif.g08.bks.cpg/sg22_28_cif.got.tgz:54118.got - 2010.06.03 23:40:54.
