data_PCOD9326986
_publ_section_title
;
Structure prediction by ZEFSAII (Michael W. Deem and Ramdas Pophale) SiO2 
 PCOD9326986
Probable space group: F 2 2 2
;
_chemical_formula_sum "Si O2"
_cell_formula_units_Z 88
_cell_length_a 23.938850
_cell_length_b 7.578368
_cell_length_c 22.375291
_cell_angle_alpha 90.000000
_cell_angle_beta 90.000000
_cell_angle_gamma 90.000000
_cell_volume 4059.267449
_symmetry_space_group_name_H-M "F 2 2 2"
_symmetry_group_IT_number 22
_symmetry_cell_setting 'orthorhombic'
loop_
_space_group_symop_operation_xyz
x,y,z
-x,-y,z
x,-y,-z
-x,y,-z
x,1/2+y,1/2+z
-x,1/2-y,1/2+z
x,1/2-y,1/2-z
-x,1/2+y,1/2-z
1/2+x,y,1/2+z
1/2-x,-y,1/2+z
1/2+x,-y,1/2-z
1/2-x,y,1/2-z
1/2+x,1/2+y,z
1/2-x,1/2-y,z
1/2+x,1/2-y,-z
1/2-x,1/2+y,-z
loop_
_atom_site_type_symbol
_atom_site_label
_atom_site_fract_x
_atom_site_fract_y
_atom_site_fract_z
Si Si1 0.367757 0.500000 0.500000
Si Si2 0.935420 0.039066 0.749920
Si Si3 0.378782 0.567464 0.629586
Si Si4 0.307828 0.830510 0.460374
Si Si5 0.742723 0.961174 0.182622
Si Si6 0.635932 0.990789 0.362957
O O1 0.396855 0.502105 0.564448
O O2 0.329596 0.673298 0.502121
O O3 0.925489 0.250000 0.750000
O O4 0.916424 0.991633 0.683163
O O5 0.898731 0.958832 0.803789
O O6 0.000000 0.000000 0.760082
O O7 0.315857 0.508705 0.649440
O O8 0.377826 0.782963 0.628027
O O9 0.250000 0.750000 0.434330
O O10 0.293246 0.000000 0.500000
O O11 0.362847 0.888543 0.421580
O O12 0.750000 0.031906 0.250000
O O13 0.750000 0.750000 0.187177
O O14 0.798264 0.014327 0.149092
#
# Coordination Sequence:
#
# PCOD9326986 Si02
#       6
#     8  16  16  16  16  16
#     4  12  24  38  61  92 130 180 219 264 320 394
#     4  10  22  41  68  95 126 171 224 287 346 390
#     4  10  20  37  62  94 128 170 218 269 331 401
#     4  12  24  39  60  95 140 181 222 260 321 398
#     4   9  15  28  55  88 121 158 205 257 321 392
#     4  10  20  38  63  91 128 173 220 267 328 400
#
# _framework density 21.678788000000001
#
# number of rings (size 3 to 8) (size 9 to 14) (size 15 to 20)
#    0.000    1.636    4.545    1.091    0.000    1.455 
#    0.000    0.455    0.000    0.545    0.000    0.000 
#    0.000    0.000    0.000    0.000    0.000    0.000 
#
# Total GULP energy -122616.428752 kJ/mol
# GULP energy per Si atom -5573.474034 kJ/mol
# Density = 2.162945 g / cm^3
# Si number density = 21.678788 Si / 1000 Ang^3
#
#
#
# Elastic Constant Matrix: (Units=GPa)
#
#
# Indices 1 2 3 4 5 6 
#
# 1 66.6639 8.0556 41.3191 0.0000 0.0000 0.0000
# 2 8.0556 91.9306 31.7073 0.0000 0.0000 0.0000
# 3 41.3191 31.7073 144.3269 0.0000 0.0000 0.0000
# 4 0.0000 0.0000 0.0000 14.4503 0.0000 0.0000
# 5 0.0000 0.0000 0.0000 0.0000 5.0137 0.0000
# 6 0.0000 0.0000 0.0000 0.0000 0.0000 11.9976
#
#
#
# Elastic Compliance Matrix: (Units=1/GPa)
#
#
# Indices 1 2 3 4 5 6 
#
# 1 0.018241 0.000219 -0.005270 0.000000 0.000000 0.000000
# 2 0.000219 0.011772 -0.002649 0.000000 0.000000 0.000000
# 3 -0.005270 -0.002649 0.009020 0.000000 0.000000 0.000000
# 4 0.000000 0.000000 0.000000 0.069203 0.000000 0.000000
# 5 0.000000 0.000000 0.000000 0.000000 0.199452 0.000000
# 6 0.000000 0.000000 0.000000 0.000000 0.000000 0.083350
#
#
# Mechanical properties :
#
#
# Convention : Reuss Voigt Hill
#
# Bulk Modulus (GPa) = 42.31464 51.67616 46.99540
# Shear Modulus (GPa) = 12.06813 21.08162 16.57488
#
# Velocity S-wave (km/s) = 2.36197 3.12180 2.76808
# Velocity P-wave (km/s) = 5.19613 6.07315 5.65168
#
# Compressibility (1/GPa) = 0.02363248
#
# Stress axis : x y z
#
# Youngs Moduli (GPa) = 54.82239 84.94578 110.87072
#
# Poissons Ratio (x) = -0.01863 0.58432
# Poissons Ratio (y) = -0.01203 0.29370
# Poissons Ratio (z) = 0.28893 0.22503
#
# Static dielectric constant tensor:
#      x y z
#    x 1.747660 0.000000 0.000000 
#    y 0.000000 1.977900 0.000000 
#    z 0.000000 0.000000 2.400800 
# 
# From -- ./inp_files/45220.got.cif
#   From: 2010.05.17/outbox.cif.g08.bks.cpg/sg22_23_cif.got.tgz:45220.got - 2010.06.03 23:40:54.
