data_PCOD9326127
_publ_section_title
;
Structure prediction by ZEFSAII (Michael W. Deem and Ramdas Pophale) SiO2 
 PCOD9326127
Probable space group: F 2 2 2
;
_chemical_formula_sum "Si O2"
_cell_formula_units_Z 88
_cell_length_a 14.148199
_cell_length_b 28.626957
_cell_length_c 9.425853
_cell_angle_alpha 90.000000
_cell_angle_beta 90.000000
_cell_angle_gamma 90.000000
_cell_volume 3817.657892
_symmetry_space_group_name_H-M "F 2 2 2"
_symmetry_group_IT_number 22
_symmetry_cell_setting 'orthorhombic'
loop_
_space_group_symop_operation_xyz
x,y,z
-x,-y,z
x,-y,-z
-x,y,-z
x,1/2+y,1/2+z
-x,1/2-y,1/2+z
x,1/2-y,1/2-z
-x,1/2+y,1/2-z
1/2+x,y,1/2+z
1/2-x,-y,1/2+z
1/2+x,-y,1/2-z
1/2-x,y,1/2-z
1/2+x,1/2+y,z
1/2-x,1/2-y,z
1/2+x,1/2-y,-z
1/2-x,1/2+y,-z
loop_
_atom_site_type_symbol
_atom_site_label
_atom_site_fract_x
_atom_site_fract_y
_atom_site_fract_z
Si Si1 0.742000 0.598189 0.500288
Si Si2 0.401319 0.462562 0.873870
Si Si3 0.588499 0.300573 0.250011
Si Si4 0.046693 0.898953 0.346570
Si Si5 0.750000 0.472337 0.750000
Si Si6 0.743533 0.800095 0.513884
O O1 0.841100 0.580892 0.564902
O O2 0.659207 0.598009 0.617707
O O3 0.723838 0.560205 0.380974
O O4 0.744660 0.650449 0.438469
O O5 0.478018 0.437379 0.773274
O O6 0.336364 0.493329 0.773556
O O7 0.415432 0.500000 0.000000
O O8 0.538341 0.250000 0.250000
O O9 0.529342 0.346601 0.287663
O O10 0.646282 0.305125 0.103324
O O11 0.671253 0.297435 0.369852
O O12 0.000000 0.905645 0.500000
O O13 0.750000 0.750000 0.438260
#
# Coordination Sequence:
#
# PCOD9326127 Si02
#       6
#    16  16  16  16   8  16
#     4  10  18  33  54  81 118 146 203 248 300 356
#     4  10  19  34  58  85 116 157 207 250 304 360
#     4   8  14  26  47  79 113 146 191 236 297 355
#     4  11  20  32  56  91 125 151 199 257 305 366
#     4  10  20  32  55  76 107 156 200 248 300 344
#     4   8  13  24  49  80 109 142 185 251 297 337
#
# _framework density 23.050782000000002
#
# number of rings (size 3 to 8) (size 9 to 14) (size 15 to 20)
#    0.000    2.545    3.636    1.091    0.000    0.000 
#    0.000    2.273    0.000   14.182    0.000    0.000 
#    0.000    0.000    0.000    0.000    0.000    0.000 
#
# Total GULP energy -122671.631503 kJ/mol
# GULP energy per Si atom -5575.983250 kJ/mol
# Density = 2.299832 g / cm^3
# Si number density = 23.050782 Si / 1000 Ang^3
#
#
#
# Elastic Constant Matrix: (Units=GPa)
#
#
# Indices 1 2 3 4 5 6 
#
# 1 29.3939 20.5007 4.0090 0.0000 0.0000 0.0000
# 2 20.5007 228.1302 61.5866 0.0000 0.0000 0.0000
# 3 4.0090 61.5866 72.8169 0.0000 0.0000 0.0000
# 4 0.0000 0.0000 0.0000 -2.4688 0.0000 0.0000
# 5 0.0000 0.0000 0.0000 0.0000 21.4105 0.0000
# 6 0.0000 0.0000 0.0000 0.0000 0.0000 -27.8147
#
#
#
# Elastic Compliance Matrix: (Units=1/GPa)
#
#
# Indices 1 2 3 4 5 6 
#
# 1 0.036350 -0.003533 0.000987 0.000000 0.000000 0.000000
# 2 -0.003533 0.006024 -0.004900 0.000000 0.000000 0.000000
# 3 0.000987 -0.004900 0.017823 0.000000 0.000000 0.000000
# 4 0.000000 0.000000 0.000000 -0.405061 0.000000 0.000000
# 5 0.000000 0.000000 0.000000 0.000000 0.046706 0.000000
# 6 0.000000 0.000000 0.000000 0.000000 0.000000 -0.035952
#
#
# Mechanical properties :
#
#
# Convention : Reuss Voigt Hill
#
# Bulk Modulus (GPa) = 22.07293 55.83704 38.95499
# Shear Modulus (GPa) = -16.44113 14.50839 -0.96637
#
# Velocity S-wave (km/s) = -2.67358 2.51153 -0.64819
# Velocity P-wave (km/s) = 0.25658 5.71720 4.04674
#
# Compressibility (1/GPa) = 0.04530437
#
# Stress axis : x y z
#
# Youngs Moduli (GPa) = 27.51021 166.00696 56.10636
#
# Poissons Ratio (x) = 0.58650 -0.05537
# Poissons Ratio (y) = 0.09719 0.27494
# Poissons Ratio (z) = -0.02715 0.81348
#
# Static dielectric constant tensor:
#      x y z
#    x 1.950880 0.000000 0.000000 
#    y 0.000000 1.888010 0.000000 
#    z 0.000000 0.000000 1.966590 
# 
# From -- ./inp_files/20129.got.cif
#   From: 2010.05.17/outbox.cif.g08.bks.cpg/sg22_11_cif.got.tgz:20129.got - 2010.06.03 23:40:54.
