data_PCOD9326510
_publ_section_title
;
Structure prediction by ZEFSAII (Michael W. Deem and Ramdas Pophale) SiO2 
 PCOD9326510
Probable space group: F 2 2 2
;
_chemical_formula_sum "Si O2"
_cell_formula_units_Z 112
_cell_length_a 24.914810
_cell_length_b 10.553534
_cell_length_c 20.567497
_cell_angle_alpha 90.000000
_cell_angle_beta 90.000000
_cell_angle_gamma 90.000000
_cell_volume 5408.003150
_symmetry_space_group_name_H-M "F 2 2 2"
_symmetry_group_IT_number 22
_symmetry_cell_setting 'orthorhombic'
loop_
_space_group_symop_operation_xyz
x,y,z
-x,-y,z
x,-y,-z
-x,y,-z
x,1/2+y,1/2+z
-x,1/2-y,1/2+z
x,1/2-y,1/2-z
-x,1/2+y,1/2-z
1/2+x,y,1/2+z
1/2-x,-y,1/2+z
1/2+x,-y,1/2-z
1/2-x,y,1/2-z
1/2+x,1/2+y,z
1/2-x,1/2-y,z
1/2+x,1/2-y,-z
1/2-x,1/2+y,-z
loop_
_atom_site_type_symbol
_atom_site_label
_atom_site_fract_x
_atom_site_fract_y
_atom_site_fract_z
Si Si1 0.114011 0.972136 0.883448
Si Si2 0.464260 0.611862 0.616475
Si Si3 0.122340 0.776452 0.526749
Si Si4 0.223060 0.381427 0.589489
Si Si5 0.037078 0.677274 0.436097
Si Si6 0.546786 0.100563 0.738521
Si Si7 0.734678 0.125153 0.947257
O O1 0.165281 0.068430 0.885159
O O2 0.062166 0.048286 0.909609
O O3 0.126305 0.856638 0.932939
O O4 0.094879 0.917516 0.813427
O O5 0.500000 0.500000 0.588739
O O6 0.415343 0.639147 0.570916
O O7 0.501620 0.739035 0.613393
O O8 0.442567 0.566885 0.686151
O O9 0.090013 0.751735 0.460867
O O10 0.177159 0.851998 0.521492
O O11 0.250000 0.250000 0.612802
O O12 0.224924 0.374172 0.509885
O O13 0.261280 0.503086 0.597063
O O14 0.000000 0.660730 0.500000
O O15 0.532857 0.250000 0.750000
O O16 0.500000 0.000000 0.719730
O O17 0.750000 0.250000 0.907648
#
# Coordination Sequence:
#
# PCOD9326510 Si02
#       7
#    16  16  16  16  16  16  16
#     4  12  23  38  63  94 134 175 228 268 329 397
#     4  10  23  41  59  91 132 178 229 270 325 394
#     4  11  22  36  63  94 134 179 212 267 343 414
#     4  10  22  36  58  91 130 166 212 270 329 401
#     4  10  23  36  59  98 140 170 209 274 340 396
#     4  11  23  43  68  94 133 184 236 278 315 383
#     4  10  19  36  58  88 132 178 211 261 330 410
#
# _framework density 20.710049000000001
#
# number of rings (size 3 to 8) (size 9 to 14) (size 15 to 20)
#    0.000    1.429    2.857    3.000    4.000    7.714 
#    0.000    0.000    0.000    0.857    0.000    1.000 
#    0.000    0.000    0.000    0.000    0.000    0.000 
#
# Total GULP energy -155990.434906 kJ/mol
# GULP energy per Si atom -5571.086961 kJ/mol
# Density = 2.066291 g / cm^3
# Si number density = 20.710049 Si / 1000 Ang^3
#
#
#
# Elastic Constant Matrix: (Units=GPa)
#
#
# Indices 1 2 3 4 5 6 
#
# 1 102.5380 50.4840 50.7375 0.0000 0.0000 0.0000
# 2 50.4840 128.6227 18.1256 0.0000 0.0000 0.0000
# 3 50.7375 18.1256 82.7967 0.0000 0.0000 0.0000
# 4 0.0000 0.0000 0.0000 19.2327 0.0000 0.0000
# 5 0.0000 0.0000 0.0000 0.0000 12.4815 0.0000
# 6 0.0000 0.0000 0.0000 0.0000 0.0000 39.0961
#
#
#
# Elastic Compliance Matrix: (Units=1/GPa)
#
#
# Indices 1 2 3 4 5 6 
#
# 1 0.016947 -0.005353 -0.009213 0.000000 0.000000 0.000000
# 2 -0.005353 0.009713 0.001154 0.000000 0.000000 0.000000
# 3 -0.009213 0.001154 0.017471 0.000000 0.000000 0.000000
# 4 0.000000 0.000000 0.000000 0.051995 0.000000 0.000000
# 5 0.000000 0.000000 0.000000 0.000000 0.080118 0.000000
# 6 0.000000 0.000000 0.000000 0.000000 0.000000 0.025578
#
#
# Mechanical properties :
#
#
# Convention : Reuss Voigt Hill
#
# Bulk Modulus (GPa) = 57.78203 61.40574 59.59388
# Shear Modulus (GPa) = 21.32965 27.13609 24.23287
#
# Velocity S-wave (km/s) = 3.21271 3.62371 3.42439
# Velocity P-wave (km/s) = 6.45934 6.87190 6.66881
#
# Compressibility (1/GPa) = 0.01730642
#
# Stress axis : x y z
#
# Youngs Moduli (GPa) = 59.00772 102.95266 57.23813
#
# Poissons Ratio (x) = 0.55114 0.52734
# Poissons Ratio (y) = 0.31589 -0.06606
# Poissons Ratio (z) = 0.54364 -0.11882
#
# Static dielectric constant tensor:
#      x y z
#    x 1.798660 0.000000 0.000000 
#    y 0.000000 1.902670 0.000000 
#    z 0.000000 0.000000 1.745380 
# 
# From -- ./inp_files/45358.got.cif
#   From: 2010.05.17/outbox.cif.g08.bks.cpg/sg22_23_cif.got.tgz:45358.got - 2010.06.03 23:40:54.
