data_PCOD9326495
_publ_section_title
;
Structure prediction by ZEFSAII (Michael W. Deem and Ramdas Pophale) SiO2 
 PCOD9326495
Probable space group: F 2 2 2
;
_chemical_formula_sum "Si O2"
_cell_formula_units_Z 64
_cell_length_a 5.404079
_cell_length_b 29.960969
_cell_length_c 17.653804
_cell_angle_alpha 90.000000
_cell_angle_beta 90.000000
_cell_angle_gamma 90.000000
_cell_volume 2858.352887
_symmetry_space_group_name_H-M "F 2 2 2"
_symmetry_group_IT_number 22
_symmetry_cell_setting 'orthorhombic'
loop_
_space_group_symop_operation_xyz
x,y,z
-x,-y,z
x,-y,-z
-x,y,-z
x,1/2+y,1/2+z
-x,1/2-y,1/2+z
x,1/2-y,1/2-z
-x,1/2+y,1/2-z
1/2+x,y,1/2+z
1/2-x,-y,1/2+z
1/2+x,-y,1/2-z
1/2-x,y,1/2-z
1/2+x,1/2+y,z
1/2-x,1/2-y,z
1/2+x,1/2-y,-z
1/2-x,1/2+y,-z
loop_
_atom_site_type_symbol
_atom_site_label
_atom_site_fract_x
_atom_site_fract_y
_atom_site_fract_z
Si Si1 0.399360 0.364129 0.684543
Si Si2 0.500000 0.500000 0.627816
Si Si3 0.750000 0.939776 0.250000
Si Si4 0.244437 0.582381 0.045968
Si Si5 0.508810 0.731088 0.337316
O O1 0.250000 0.339991 0.750000
O O2 0.533980 0.404501 0.728971
O O3 0.237467 0.385569 0.618435
O O4 0.551037 0.322295 0.655484
O O5 0.700302 0.473567 0.680000
O O6 0.657220 0.534487 0.578280
O O7 0.500000 0.580365 0.000000
O O8 0.000000 0.597787 0.000000
O O9 0.512404 0.750000 0.250000
O O10 0.250000 0.750000 0.368537
O O11 0.750000 0.750000 0.377025
#
# Coordination Sequence:
#
# PCOD9326495 Si02
#       5
#    16   8   8  16  16
#     4  11  24  42  72 102 137 181 232 295 347 414
#     4  10  25  42  70  96 139 186 246 298 359 410
#     4  10  24  40  63 106 130 172 235 314 342 396
#     4  11  28  48  67  97 140 191 234 285 354 423
#     4  10  19  35  63 105 135 164 211 279 340 411
#
# _framework density 22.390516999999999
#
# number of rings (size 3 to 8) (size 9 to 14) (size 15 to 20)
#    0.000    1.500    2.500    1.875   14.000    2.000 
#    0.000    0.000    0.000    3.000    0.000    0.000 
#    0.000    0.000    0.000    0.000    0.000    0.000 
#
# Total GULP energy -89093.849928 kJ/mol
# GULP energy per Si atom -5568.365620 kJ/mol
# Density = 2.233956 g / cm^3
# Si number density = 22.390517 Si / 1000 Ang^3
#
#
#
# Elastic Constant Matrix: (Units=GPa)
#
#
# Indices 1 2 3 4 5 6 
#
# 1 155.3057 29.2156 59.3399 0.0000 0.0000 0.0000
# 2 29.2156 125.3952 44.1128 0.0000 0.0000 0.0000
# 3 59.3399 44.1128 95.3454 0.0000 0.0000 0.0000
# 4 0.0000 0.0000 0.0000 14.4486 0.0000 0.0000
# 5 0.0000 0.0000 0.0000 0.0000 26.6699 0.0000
# 6 0.0000 0.0000 0.0000 0.0000 0.0000 16.9796
#
#
#
# Elastic Compliance Matrix: (Units=1/GPa)
#
#
# Indices 1 2 3 4 5 6 
#
# 1 0.008450 -0.000142 -0.005193 0.000000 0.000000 0.000000
# 2 -0.000142 0.009527 -0.004320 0.000000 0.000000 0.000000
# 3 -0.005193 -0.004320 0.015719 0.000000 0.000000 0.000000
# 4 0.000000 0.000000 0.000000 0.069211 0.000000 0.000000
# 5 0.000000 0.000000 0.000000 0.000000 0.037496 0.000000
# 6 0.000000 0.000000 0.000000 0.000000 0.000000 0.058894
#
#
# Mechanical properties :
#
#
# Convention : Reuss Voigt Hill
#
# Bulk Modulus (GPa) = 69.50945 71.26477 70.38711
# Shear Modulus (GPa) = 22.38116 27.84481 25.11299
#
# Velocity S-wave (km/s) = 3.16505 3.53029 3.35265
# Velocity P-wave (km/s) = 6.66845 6.96524 6.81846
#
# Compressibility (1/GPa) = 0.01438653
#
# Stress axis : x y z
#
# Youngs Moduli (GPa) = 118.34496 104.95962 63.61740
#
# Poissons Ratio (x) = 0.01488 0.33039
# Poissons Ratio (y) = 0.01678 0.27481
# Poissons Ratio (z) = 0.61461 0.45340
#
# Static dielectric constant tensor:
#      x y z
#    x 1.882630 0.000000 0.000000 
#    y 0.000000 1.871360 0.000000 
#    z 0.000000 0.000000 1.833250 
# 
# From -- ./inp_files/2879.got.cif
#   From: 2010.05.17/outbox.cif.g08.bks.cpg/sg22_2_cif.got.tgz:2879.got - 2010.06.03 23:40:54.
