data_PCOD9326937
_publ_section_title
;
Structure prediction by ZEFSAII (Michael W. Deem and Ramdas Pophale) SiO2 
 PCOD9326937
Probable space group: F 2 2 2
;
_chemical_formula_sum "Si O2"
_cell_formula_units_Z 64
_cell_length_a 18.136372
_cell_length_b 8.625592
_cell_length_c 16.986849
_cell_angle_alpha 90.000000
_cell_angle_beta 90.000000
_cell_angle_gamma 90.000000
_cell_volume 2657.370767
_symmetry_space_group_name_H-M "F 2 2 2"
_symmetry_group_IT_number 22
_symmetry_cell_setting 'orthorhombic'
loop_
_space_group_symop_operation_xyz
x,y,z
-x,-y,z
x,-y,-z
-x,y,-z
x,1/2+y,1/2+z
-x,1/2-y,1/2+z
x,1/2-y,1/2-z
-x,1/2+y,1/2-z
1/2+x,y,1/2+z
1/2-x,-y,1/2+z
1/2+x,-y,1/2-z
1/2-x,y,1/2-z
1/2+x,1/2+y,z
1/2-x,1/2-y,z
1/2+x,1/2-y,-z
1/2-x,1/2+y,-z
loop_
_atom_site_type_symbol
_atom_site_label
_atom_site_fract_x
_atom_site_fract_y
_atom_site_fract_z
Si Si1 0.361092 0.829235 0.831992
Si Si2 0.500000 0.000000 0.756500
Si Si3 0.182845 0.864777 0.401022
Si Si4 0.087085 0.825458 0.982850
Si Si5 0.101684 0.750000 0.250000
O O1 0.334444 0.750000 0.750000
O O2 0.436766 0.919231 0.808393
O O3 0.388154 0.703189 0.893629
O O4 0.309220 0.951039 0.881009
O O5 0.546486 0.873494 0.710567
O O6 0.250000 0.750000 0.420328
O O7 0.122487 0.813035 0.465043
O O8 0.153047 0.811985 0.316861
O O9 0.000000 0.820582 0.000000
O O10 0.113729 0.000000 0.000000
#
# Coordination Sequence:
#
# PCOD9326937 Si02
#       5
#    16   8  16  16   8
#     4  11  24  43  75 110 144 193 247 304 371 446
#     4  10  20  36  73 103 148 174 236 300 368 419
#     4  11  26  46  73  99 152 197 244 304 379 449
#     4  11  26  44  73 113 150 192 249 312 373 440
#     4  10  21  38  70 102 139 184 238 300 365 432
#
# _framework density 24.083956000000001
#
# number of rings (size 3 to 8) (size 9 to 14) (size 15 to 20)
#    0.000    1.250    1.250    4.125    7.000    3.000 
#    0.000    0.000    8.250    0.000    0.000    0.000 
#    0.000    0.000    0.000    0.000    0.000    0.000 
#
# Total GULP energy -89296.782700 kJ/mol
# GULP energy per Si atom -5581.048919 kJ/mol
# Density = 2.402914 g / cm^3
# Si number density = 24.083956 Si / 1000 Ang^3
#
#
#
# Elastic Constant Matrix: (Units=GPa)
#
#
# Indices 1 2 3 4 5 6 
#
# 1 68.6633 26.5190 0.5916 0.0000 0.0000 0.0000
# 2 26.5190 130.5158 38.0918 0.0000 0.0000 0.0000
# 3 0.5916 38.0918 116.2464 0.0000 0.0000 0.0000
# 4 0.0000 0.0000 0.0000 52.7628 0.0000 0.0000
# 5 0.0000 0.0000 0.0000 0.0000 7.6636 0.0000
# 6 0.0000 0.0000 0.0000 0.0000 0.0000 11.8168
#
#
#
# Elastic Compliance Matrix: (Units=1/GPa)
#
#
# Indices 1 2 3 4 5 6 
#
# 1 0.015926 -0.003552 0.001083 0.000000 0.000000 0.000000
# 2 -0.003552 0.009264 -0.003018 0.000000 0.000000 0.000000
# 3 0.001083 -0.003018 0.009586 0.000000 0.000000 0.000000
# 4 0.000000 0.000000 0.000000 0.018953 0.000000 0.000000
# 5 0.000000 0.000000 0.000000 0.000000 0.130487 0.000000
# 6 0.000000 0.000000 0.000000 0.000000 0.000000 0.084625
#
#
# Mechanical properties :
#
#
# Convention : Reuss Voigt Hill
#
# Bulk Modulus (GPa) = 42.01191 49.53670 45.77431
# Shear Modulus (GPa) = 17.37624 31.13019 24.25322
#
# Velocity S-wave (km/s) = 2.68896 3.59913 3.17681
# Velocity P-wave (km/s) = 5.20793 6.15505 5.70119
#
# Compressibility (1/GPa) = 0.02380277
#
# Stress axis : x y z
#
# Youngs Moduli (GPa) = 62.78893 107.94041 104.32155
#
# Poissons Ratio (x) = 0.38341 -0.11297
# Poissons Ratio (y) = 0.22303 0.31481
# Poissons Ratio (z) = -0.06799 0.32573
#
# Static dielectric constant tensor:
#      x y z
#    x 1.960510 0.000000 0.000000 
#    y 0.000000 2.126870 0.000000 
#    z 0.000000 0.000000 1.890650 
# 
# From -- ./inp_files/38526.got.cif
#   From: 2010.05.17/outbox.cif.g08.bks.cpg/sg22_20_cif.got.tgz:38526.got - 2010.06.03 23:40:54.
