data_PCOD9326454
_publ_section_title
;
Structure prediction by ZEFSAII (Michael W. Deem and Ramdas Pophale) SiO2 
 PCOD9326454
Probable space group: F 2 2 2
;
_chemical_formula_sum "Si O2"
_cell_formula_units_Z 56
_cell_length_a 25.437879
_cell_length_b 20.674166
_cell_length_c 4.989814
_cell_angle_alpha 90.000000
_cell_angle_beta 90.000000
_cell_angle_gamma 90.000000
_cell_volume 2624.177778
_symmetry_space_group_name_H-M "F 2 2 2"
_symmetry_group_IT_number 22
_symmetry_cell_setting 'orthorhombic'
loop_
_space_group_symop_operation_xyz
x,y,z
-x,-y,z
x,-y,-z
-x,y,-z
x,1/2+y,1/2+z
-x,1/2-y,1/2+z
x,1/2-y,1/2-z
-x,1/2+y,1/2-z
1/2+x,y,1/2+z
1/2-x,-y,1/2+z
1/2+x,-y,1/2-z
1/2-x,y,1/2-z
1/2+x,1/2+y,z
1/2-x,1/2-y,z
1/2+x,1/2-y,-z
1/2-x,1/2+y,-z
loop_
_atom_site_type_symbol
_atom_site_label
_atom_site_fract_x
_atom_site_fract_y
_atom_site_fract_z
Si Si1 0.896447 0.617474 0.825495
Si Si2 0.698408 0.069229 0.876817
Si Si3 0.946789 0.176691 0.848560
Si Si4 0.616641 0.000000 0.500000
O O1 0.904481 0.668014 0.585419
O O2 0.912725 0.547188 0.704814
O O3 0.835610 0.609894 0.913205
O O4 0.930130 0.636754 0.085979
O O5 0.750000 0.100130 0.750000
O O6 0.654855 0.047801 0.661710
O O7 0.715796 0.000000 0.000000
O O8 0.952872 0.250000 0.750000
O O9 0.000000 0.155854 0.000000
#
# Coordination Sequence:
#
# PCOD9326454 Si02
#       4
#    16  16  16   8
#     4  11  23  40  68 103 138 164 219 279 336 390
#     4  10  19  34  65  99 140 180 218 257 312 399
#     4  12  25  46  72  96 121 172 239 290 330 389
#     4  10  20  40  63 104 140 176 207 260 332 406
#
# _framework density 21.340017
#
# number of rings (size 3 to 8) (size 9 to 14) (size 15 to 20)
#    0.000    1.143    4.286    3.429    0.000    0.000 
#    0.000    0.714   12.571    0.857    7.429    0.000 
#    0.000    0.000    0.000    0.000    0.000    0.000 
#
# Total GULP energy -78163.411108 kJ/mol
# GULP energy per Si atom -5583.100793 kJ/mol
# Density = 2.129145 g / cm^3
# Si number density = 21.340017 Si / 1000 Ang^3
#
#
#
# Elastic Constant Matrix: (Units=GPa)
#
#
# Indices 1 2 3 4 5 6 
#
# 1 69.0489 48.0228 49.6807 0.0249 -0.0071 -0.0214
# 2 48.0228 53.0501 51.3482 0.0824 -0.0123 -0.0621
# 3 49.6807 51.3482 169.2227 0.1014 -0.0209 -0.0729
# 4 0.0249 0.0824 0.1014 57.9409 -0.0097 -0.0450
# 5 -0.0071 -0.0123 -0.0209 -0.0097 43.0136 -0.0266
# 6 -0.0214 -0.0621 -0.0729 -0.0450 -0.0266 7.8766
#
#
#
# Elastic Compliance Matrix: (Units=1/GPa)
#
#
# Indices 1 2 3 4 5 6 
#
# 1 0.039229 -0.034496 -0.001050 0.000034 -0.000004 -0.000175
# 2 -0.034496 0.057022 -0.007175 -0.000053 0.000007 0.000289
# 3 -0.001050 -0.007175 0.008395 -0.000004 0.000002 0.000018
# 4 0.000034 -0.000053 -0.000004 0.017259 0.000004 0.000098
# 5 -0.000004 0.000007 0.000002 0.000004 0.023249 0.000079
# 6 -0.000175 0.000289 0.000018 0.000098 0.000079 0.126961
#
#
# Mechanical properties :
#
#
# Convention : Reuss Voigt Hill
#
# Bulk Modulus (GPa) = 52.07026 65.49166 58.78096
# Shear Modulus (GPa) = 13.73787 31.25088 22.49438
#
# Velocity S-wave (km/s) = 2.54000 3.83093 3.25020
# Velocity P-wave (km/s) = 5.74938 7.09396 6.45677
#
# Compressibility (1/GPa) = 0.01920482
#
# Stress axis : x y z
#
# Youngs Moduli (GPa) = 25.49119 17.53707 119.12181
#
# Poissons Ratio (x) = 0.60495 0.12506
# Poissons Ratio (y) = 0.87934 0.85470
# Poissons Ratio (z) = 0.02676 0.12583
#
# Static dielectric constant tensor:
#      x y z
#    x 1.810320 0.000000 0.000000 
#    y 0.000000 1.786020 -0.000020 
#    z 0.000000 -0.000020 1.875880 
# 
# From -- ./inp_files/2781.got.cif
#   From: 2010.05.17/outbox.cif.g08.bks.cpg/sg22_2_cif.got.tgz:2781.got - 2010.06.03 23:40:54.
