data_PCOD9326897
_publ_section_title
;
Structure prediction by ZEFSAII (Michael W. Deem and Ramdas Pophale) SiO2 
 PCOD9326897
Probable space group: F 2 2 2
;
_chemical_formula_sum "Si O2"
_cell_formula_units_Z 112
_cell_length_a 20.457328
_cell_length_b 12.450189
_cell_length_c 20.512992
_cell_angle_alpha 90.000000
_cell_angle_beta 90.000000
_cell_angle_gamma 90.000000
_cell_volume 5224.609832
_symmetry_space_group_name_H-M "F 2 2 2"
_symmetry_group_IT_number 22
_symmetry_cell_setting 'orthorhombic'
loop_
_space_group_symop_operation_xyz
x,y,z
-x,-y,z
x,-y,-z
-x,y,-z
x,1/2+y,1/2+z
-x,1/2-y,1/2+z
x,1/2-y,1/2-z
-x,1/2+y,1/2-z
1/2+x,y,1/2+z
1/2-x,-y,1/2+z
1/2+x,-y,1/2-z
1/2-x,y,1/2-z
1/2+x,1/2+y,z
1/2-x,1/2-y,z
1/2+x,1/2-y,-z
1/2-x,1/2+y,-z
loop_
_atom_site_type_symbol
_atom_site_label
_atom_site_fract_x
_atom_site_fract_y
_atom_site_fract_z
Si Si1 0.048540 0.600237 0.585877
Si Si2 0.071572 0.027668 0.698172
Si Si3 0.125962 0.456639 0.064282
Si Si4 0.140317 0.965391 0.175772
Si Si5 0.636416 0.261987 0.006464
Si Si6 0.062620 0.745844 0.364459
Si Si7 0.234663 0.429505 0.562440
O O1 0.099243 0.554439 0.637571
O O2 0.089812 0.648133 0.526311
O O3 0.000000 0.500000 0.571246
O O4 0.007032 0.695889 0.617630
O O5 0.131068 0.010058 0.748310
O O6 0.065177 0.152566 0.681216
O O7 0.085676 0.964786 0.630796
O O8 0.000000 0.000000 0.726958
O O9 0.148047 0.334637 0.045053
O O10 0.189222 0.536531 0.068917
O O11 0.088867 0.500000 0.000000
O O12 0.104351 0.851759 0.164700
O O13 0.206019 0.956037 0.133821
O O14 0.594845 0.220191 0.067347
O O15 0.699416 0.319066 0.039141
O O16 0.213075 0.500000 0.500000
#
# Coordination Sequence:
#
# PCOD9326897 Si02
#       7
#    16  16  16  16  16  16  16
#     4  10  20  36  61  99 133 169 220 272 330 389
#     4  12  24  42  64  93 138 178 214 263 327 413
#     4  11  25  44  64  97 130 177 219 270 332 397
#     4  10  22  40  64  98 128 168 218 273 331 385
#     4  11  21  40  65  98 128 168 219 280 332 387
#     4  10  21  36  61  92 131 169 214 269 326 388
#     4  10  22  42  69  95 126 165 217 282 322 384
#
# _framework density 21.437007999999999
#
# number of rings (size 3 to 8) (size 9 to 14) (size 15 to 20)
#    0.000    1.429    2.857    3.000    0.000    6.000 
#    0.000    2.143    0.000    1.714    7.429    0.000 
#    0.000    0.000    0.000    0.000    0.000    0.000 
#
# Total GULP energy -156177.277231 kJ/mol
# GULP energy per Si atom -5577.759901 kJ/mol
# Density = 2.138822 g / cm^3
# Si number density = 21.437008 Si / 1000 Ang^3
#
#
#
# Elastic Constant Matrix: (Units=GPa)
#
#
# Indices 1 2 3 4 5 6 
#
# 1 49.2877 21.7828 8.3346 0.0000 0.0000 0.0000
# 2 21.7828 68.7841 14.6983 0.0000 0.0000 0.0000
# 3 8.3346 14.6983 110.9084 0.0000 0.0000 0.0000
# 4 0.0000 0.0000 0.0000 19.1075 0.0000 0.0000
# 5 0.0000 0.0000 0.0000 0.0000 22.8750 0.0000
# 6 0.0000 0.0000 0.0000 0.0000 0.0000 10.6128
#
#
#
# Elastic Compliance Matrix: (Units=1/GPa)
#
#
# Indices 1 2 3 4 5 6 
#
# 1 0.023661 -0.007320 -0.000808 0.000000 0.000000 0.000000
# 2 -0.007320 0.017227 -0.001733 0.000000 0.000000 0.000000
# 3 -0.000808 -0.001733 0.009307 0.000000 0.000000 0.000000
# 4 0.000000 0.000000 0.000000 0.052336 0.000000 0.000000
# 5 0.000000 0.000000 0.000000 0.000000 0.043716 0.000000
# 6 0.000000 0.000000 0.000000 0.000000 0.000000 0.094226
#
#
# Mechanical properties :
#
#
# Convention : Reuss Voigt Hill
#
# Bulk Modulus (GPa) = 32.81691 35.40130 34.10910
# Shear Modulus (GPa) = 18.49444 22.79669 20.64557
#
# Velocity S-wave (km/s) = 2.94042 3.26456 3.10672
# Velocity P-wave (km/s) = 5.18361 5.54615 5.36794
#
# Compressibility (1/GPa) = 0.03047210
#
# Stress axis : x y z
#
# Youngs Moduli (GPa) = 42.26377 58.04913 107.44814
#
# Poissons Ratio (x) = 0.42494 0.08681
# Poissons Ratio (y) = 0.30939 0.18620
# Poissons Ratio (z) = 0.03415 0.10059
#
# Static dielectric constant tensor:
#      x y z
#    x 1.814550 0.000000 0.000000 
#    y 0.000000 1.821410 0.000000 
#    z 0.000000 0.000000 1.821420 
# 
# From -- ./inp_files/45339.got.cif
#   From: 2010.05.17/outbox.cif.g08.bks.cpg/sg22_23_cif.got.tgz:45339.got - 2010.06.03 23:40:54.
