data_PCOD9326270
_publ_section_title
;
Structure prediction by ZEFSAII (Michael W. Deem and Ramdas Pophale) SiO2 
 PCOD9326270
Probable space group: F 2 2 2
;
_chemical_formula_sum "Si O2"
_cell_formula_units_Z 84
_cell_length_a 19.370360
_cell_length_b 13.789682
_cell_length_c 15.310742
_cell_angle_alpha 90.000000
_cell_angle_beta 90.000000
_cell_angle_gamma 90.000000
_cell_volume 4089.669208
_symmetry_space_group_name_H-M "F 2 2 2"
_symmetry_group_IT_number 22
_symmetry_cell_setting 'orthorhombic'
loop_
_space_group_symop_operation_xyz
x,y,z
-x,-y,z
x,-y,-z
-x,y,-z
x,1/2+y,1/2+z
-x,1/2-y,1/2+z
x,1/2-y,1/2-z
-x,1/2+y,1/2-z
1/2+x,y,1/2+z
1/2-x,-y,1/2+z
1/2+x,-y,1/2-z
1/2-x,y,1/2-z
1/2+x,1/2+y,z
1/2-x,1/2-y,z
1/2+x,1/2-y,-z
1/2-x,1/2+y,-z
loop_
_atom_site_type_symbol
_atom_site_label
_atom_site_fract_x
_atom_site_fract_y
_atom_site_fract_z
Si Si1 0.679249 0.001933 0.289883
Si Si2 0.000000 0.000000 0.000000
Si Si3 0.383936 0.150493 0.983488
Si Si4 0.763090 0.898384 0.042549
Si Si5 0.891007 0.857834 0.917902
Si Si6 0.576958 0.028393 0.860988
O O1 0.750000 0.040826 0.250000
O O2 0.639505 0.094015 0.330717
O O3 0.707207 0.924501 0.361851
O O4 0.628879 0.953701 0.218875
O O5 0.952548 0.070857 0.056298
O O6 0.306022 0.162845 0.023815
O O7 0.426452 0.116143 0.068998
O O8 0.408454 0.245387 0.931037
O O9 0.390995 0.062051 0.915117
O O10 0.829100 0.869522 0.986931
O O11 0.740998 0.000000 0.000000
O O12 0.500000 0.000000 0.832427
#
# Coordination Sequence:
#
# PCOD9326270 Si02
#       6
#    16   4  16  16  16  16
#     4  11  21  42  68  96 135 173 214 283 352 381
#     4  12  24  44  64  94 140 178 226 272 336 442
#     4  11  21  43  67  97 126 177 233 274 331 410
#     4  10  18  40  64  95 127 172 221 277 333 395
#     4  11  25  39  71  94 128 184 226 270 339 414
#     4  11  24  39  66  96 139 169 219 283 335 401
#
# _framework density 20.539558
#
# number of rings (size 3 to 8) (size 9 to 14) (size 15 to 20)
#    0.000    1.143    6.667    2.857    4.000    0.762 
#    0.000    3.810    4.190    0.000    0.000    0.000 
#    0.000    0.000    0.000    0.000    0.000    0.000 
#
# Total GULP energy -117048.960446 kJ/mol
# GULP energy per Si atom -5573.760021 kJ/mol
# Density = 2.049281 g / cm^3
# Si number density = 20.539558 Si / 1000 Ang^3
#
#
#
# Elastic Constant Matrix: (Units=GPa)
#
#
# Indices 1 2 3 4 5 6 
#
# 1 96.4727 -11.5570 2.9829 0.0000 0.0000 0.0000
# 2 -11.5570 59.3732 -12.5503 0.0000 0.0000 0.0000
# 3 2.9829 -12.5503 64.4211 0.0000 0.0000 0.0000
# 4 0.0000 0.0000 0.0000 6.1752 0.0000 0.0000
# 5 0.0000 0.0000 0.0000 0.0000 25.5281 0.0000
# 6 0.0000 0.0000 0.0000 0.0000 0.0000 -31.4170
#
#
#
# Elastic Compliance Matrix: (Units=1/GPa)
#
#
# Indices 1 2 3 4 5 6 
#
# 1 0.010614 0.002046 -0.000093 0.000000 0.000000 0.000000
# 2 0.002046 0.017961 0.003404 0.000000 0.000000 0.000000
# 3 -0.000093 0.003404 0.016190 0.000000 0.000000 0.000000
# 4 0.000000 0.000000 0.000000 0.161937 0.000000 0.000000
# 5 0.000000 0.000000 0.000000 0.000000 0.039173 0.000000
# 6 0.000000 0.000000 0.000000 0.000000 0.000000 -0.031830
#
#
# Mechanical properties :
#
#
# Convention : Reuss Voigt Hill
#
# Bulk Modulus (GPa) = 18.02447 19.77980 18.90213
# Shear Modulus (GPa) = 22.54058 16.15002 19.34530
#
# Velocity S-wave (km/s) = 3.31633 2.80713 3.07230
# Velocity P-wave (km/s) = 4.84341 4.48972 4.66992
#
# Compressibility (1/GPa) = 0.05548014
#
# Stress axis : x y z
#
# Youngs Moduli (GPa) = 94.21836 55.67763 61.76517
#
# Poissons Ratio (x) = -0.11394 0.00573
# Poissons Ratio (y) = -0.19280 -0.21026
# Poissons Ratio (z) = 0.00874 -0.18954
#
# Static dielectric constant tensor:
#      x y z
#    x 1.818640 0.000000 0.000000 
#    y 0.000000 1.747290 0.000000 
#    z 0.000000 0.000000 1.785210 
# 
# From -- ./inp_files/31444.got.cif
#   From: 2010.05.17/outbox.cif.g08.bks.cpg/sg22_16_cif.got.tgz:31444.got - 2010.06.03 23:40:54.
