data_PCOD9326473
_publ_section_title
;
Structure prediction by ZEFSAII (Michael W. Deem and Ramdas Pophale) SiO2 
 PCOD9326473
Probable space group: F 2 2 2
;
_chemical_formula_sum "Si O2"
_cell_formula_units_Z 96
_cell_length_a 27.082550
_cell_length_b 20.219545
_cell_length_c 8.960308
_cell_angle_alpha 90.000000
_cell_angle_beta 90.000000
_cell_angle_gamma 90.000000
_cell_volume 4906.636332
_symmetry_space_group_name_H-M "F 2 2 2"
_symmetry_group_IT_number 22
_symmetry_cell_setting 'orthorhombic'
loop_
_space_group_symop_operation_xyz
x,y,z
-x,-y,z
x,-y,-z
-x,y,-z
x,1/2+y,1/2+z
-x,1/2-y,1/2+z
x,1/2-y,1/2-z
-x,1/2+y,1/2-z
1/2+x,y,1/2+z
1/2-x,-y,1/2+z
1/2+x,-y,1/2-z
1/2-x,y,1/2-z
1/2+x,1/2+y,z
1/2-x,1/2-y,z
1/2+x,1/2-y,-z
1/2-x,1/2+y,-z
loop_
_atom_site_type_symbol
_atom_site_label
_atom_site_fract_x
_atom_site_fract_y
_atom_site_fract_z
Si Si1 0.008080 0.419979 0.667833
Si Si2 0.107670 0.569070 0.184786
Si Si3 0.709664 0.954274 0.644523
Si Si4 0.250380 0.323737 0.498044
Si Si5 0.913427 0.913691 0.350561
Si Si6 0.332731 0.177358 0.242624
O O1 0.063849 0.403801 0.712792
O O2 0.000000 0.500000 0.664265
O O3 0.000000 0.395554 0.500000
O O4 0.967973 0.396801 0.790589
O O5 0.160984 0.567167 0.263524
O O6 0.094280 0.491901 0.163273
O O7 0.100460 0.601980 0.022162
O O8 0.750000 0.991021 0.750000
O O9 0.737628 0.887673 0.593247
O O10 0.698230 0.000000 0.500000
O O11 0.250000 0.250000 0.568144
O O12 0.301626 0.331638 0.409453
O O13 0.207561 0.323008 0.372785
O O14 0.873538 0.878261 0.246405
O O15 0.356275 0.250000 0.250000
#
# Coordination Sequence:
#
# PCOD9326473 Si02
#       6
#    16  16  16  16  16  16
#     4   9  19  33  56  85 116 151 195 233 288 360
#     4  10  22  35  55  88 120 158 188 239 310 350
#     4  12  27  37  57  89 127 158 198 252 312 357
#     4   9  20  38  58  82 118 159 208 242 289 362
#     4  10  19  35  59  81 123 151 194 241 292 356
#     4   9  18  34  60  86 109 158 202 240 291 353
#
# _framework density 19.565337
#
# number of rings (size 3 to 8) (size 9 to 14) (size 15 to 20)
#    0.000    2.167    0.000    3.500   14.000    2.333 
#    0.000    0.000    0.000    2.000    4.333    0.000 
#    0.000    0.000    0.000    0.000    0.000    0.000 
#
# Total GULP energy -133789.398404 kJ/mol
# GULP energy per Si atom -5574.558267 kJ/mol
# Density = 1.952081 g / cm^3
# Si number density = 19.565337 Si / 1000 Ang^3
#
#
#
# Elastic Constant Matrix: (Units=GPa)
#
#
# Indices 1 2 3 4 5 6 
#
# 1 133.5330 9.3474 57.0094 0.0000 0.0000 0.0000
# 2 9.3474 35.0958 19.0442 0.0000 0.0000 0.0000
# 3 57.0094 19.0442 112.9450 0.0002 -0.0001 0.0000
# 4 0.0000 0.0000 0.0002 20.0166 -0.0001 0.0000
# 5 0.0000 0.0000 -0.0001 -0.0001 21.2880 0.0000
# 6 0.0000 0.0000 0.0000 0.0000 0.0000 1.5371
#
#
#
# Elastic Compliance Matrix: (Units=1/GPa)
#
#
# Indices 1 2 3 4 5 6 
#
# 1 0.009546 0.000079 -0.004832 0.000000 0.000000 0.000000
# 2 0.000079 0.031364 -0.005328 0.000000 0.000000 0.000000
# 3 -0.004832 -0.005328 0.012191 0.000000 0.000000 0.000000
# 4 0.000000 0.000000 0.000000 0.049959 0.000000 0.000001
# 5 0.000000 0.000000 0.000000 0.000000 0.046975 0.000000
# 6 0.000000 0.000000 0.000000 0.000001 0.000000 0.650582
#
#
# Mechanical properties :
#
#
# Convention : Reuss Voigt Hill
#
# Bulk Modulus (GPa) = 30.35895 50.26399 40.31147
# Shear Modulus (GPa) = 6.01137 21.64653 13.82895
#
# Velocity S-wave (km/s) = 1.75474 3.32982 2.66147
# Velocity P-wave (km/s) = 4.43350 6.36630 5.48569
#
# Compressibility (1/GPa) = 0.03293921
#
# Stress axis : x y z
#
# Youngs Moduli (GPa) = 104.75519 31.88403 82.02651
#
# Poissons Ratio (x) = -0.00253 0.39634
# Poissons Ratio (y) = -0.00832 0.43707
# Poissons Ratio (z) = 0.50616 0.16989
#
# Static dielectric constant tensor:
#      x y z
#    x 1.682550 0.000000 0.000000 
#    y 0.000000 1.718190 0.000000 
#    z 0.000000 0.000000 1.752170 
# 
# From -- ./inp_files/14901.got.cif
#   From: 2010.05.17/outbox.cif.g08.bks.cpg/sg22_8_cif.got.tgz:14901.got - 2010.06.03 23:40:54.
