data_PCOD9326674
_publ_section_title
;
Structure prediction by ZEFSAII (Michael W. Deem and Ramdas Pophale) SiO2 
 PCOD9326674
Probable space group: F 2 2 2
;
_chemical_formula_sum "Si O2"
_cell_formula_units_Z 116
_cell_length_a 22.877446
_cell_length_b 8.953139
_cell_length_c 28.740305
_cell_angle_alpha 90.000000
_cell_angle_beta 90.000000
_cell_angle_gamma 90.000000
_cell_volume 5886.731650
_symmetry_space_group_name_H-M "F 2 2 2"
_symmetry_group_IT_number 22
_symmetry_cell_setting 'orthorhombic'
loop_
_space_group_symop_operation_xyz
x,y,z
-x,-y,z
x,-y,-z
-x,y,-z
x,1/2+y,1/2+z
-x,1/2-y,1/2+z
x,1/2-y,1/2-z
-x,1/2+y,1/2-z
1/2+x,y,1/2+z
1/2-x,-y,1/2+z
1/2+x,-y,1/2-z
1/2-x,y,1/2-z
1/2+x,1/2+y,z
1/2-x,1/2-y,z
1/2+x,1/2-y,-z
1/2-x,1/2+y,-z
loop_
_atom_site_type_symbol
_atom_site_label
_atom_site_fract_x
_atom_site_fract_y
_atom_site_fract_z
Si Si1 0.417243 0.889709 0.923290
Si Si2 0.024426 0.147149 0.142952
Si Si3 0.000000 0.500000 0.000000
Si Si4 0.666021 0.055889 0.796445
Si Si5 0.556100 0.095467 0.160289
Si Si6 0.217321 0.407668 0.048071
Si Si7 0.235658 0.926005 0.139274
Si Si8 0.140891 0.897900 0.810787
O O1 0.439712 0.754381 0.891444
O O2 0.458040 0.901887 0.967906
O O3 0.350036 0.880811 0.937370
O O4 0.429055 0.037756 0.891893
O O5 0.070899 0.102559 0.182753
O O6 0.968451 0.238814 0.160872
O O7 0.000000 0.000000 0.119137
O O8 0.662613 0.066104 0.741082
O O9 0.658610 0.223319 0.817290
O O10 0.612551 0.949875 0.811268
O O11 0.723656 0.990775 0.819540
O O12 0.500000 0.000000 0.176541
O O13 0.250000 0.250000 0.042900
O O14 0.246281 0.499610 0.090461
O O15 0.219559 0.500000 0.000000
O O16 0.250000 0.750000 0.136905
O O17 0.171577 0.986708 0.153788
#
# Coordination Sequence:
#
# PCOD9326674 Si02
#       8
#    16  16   4  16  16  16  16  16
#     4  11  21  42  70  94 132 177 231 274 334 423
#     4  11  23  40  62  98 138 173 220 284 343 405
#     4  12  20  40  74 100 116 184 246 254 328 428
#     4  11  22  42  68  93 130 182 235 278 340 415
#     4  10  19  40  66  89 128 180 218 267 341 402
#     4  12  25  45  73 104 134 177 228 285 350 417
#     4  12  26  44  67  94 139 179 224 289 352 410
#     4  11  24  42  65  99 129 180 234 281 343 417
#
# _framework density 19.705331999999999
#
# number of rings (size 3 to 8) (size 9 to 14) (size 15 to 20)
#    0.000    0.828    6.897    2.897    1.931    2.759 
#    0.000    1.724    0.000    0.000    0.000    0.000 
#    0.000    0.000    0.000    0.000    0.000    0.000 
#
# Total GULP energy -161976.729229 kJ/mol
# GULP energy per Si atom -5585.404456 kJ/mol
# Density = 1.966048 g / cm^3
# Si number density = 19.705332 Si / 1000 Ang^3
#
#
#
# Elastic Constant Matrix: (Units=GPa)
#
#
# Indices 1 2 3 4 5 6 
#
# 1 98.6193 43.6953 25.5701 0.0000 0.0000 0.0000
# 2 43.6953 133.2809 41.0290 0.0000 0.0000 0.0000
# 3 25.5701 41.0290 95.4376 0.0000 0.0000 0.0000
# 4 0.0000 0.0000 0.0000 14.5602 0.0000 0.0000
# 5 0.0000 0.0000 0.0000 0.0000 -35.4937 0.0000
# 6 0.0000 0.0000 0.0000 0.0000 0.0000 30.4812
#
#
#
# Elastic Compliance Matrix: (Units=1/GPa)
#
#
# Indices 1 2 3 4 5 6 
#
# 1 0.012118 -0.003427 -0.001774 0.000000 0.000000 0.000000
# 2 -0.003427 0.009616 -0.003216 0.000000 0.000000 0.000000
# 3 -0.001774 -0.003216 0.012336 0.000000 0.000000 0.000000
# 4 0.000000 0.000000 0.000000 0.068680 0.000000 0.000000
# 5 0.000000 0.000000 0.000000 0.000000 -0.028174 0.000000
# 6 0.000000 0.000000 0.000000 0.000000 0.000000 0.032807
#
#
# Mechanical properties :
#
#
# Convention : Reuss Voigt Hill
#
# Bulk Modulus (GPa) = 58.01277 60.88072 59.44675
# Shear Modulus (GPa) = 38.47256 16.37909 27.42582
#
# Velocity S-wave (km/s) = 4.42338 2.88618 3.73473
# Velocity P-wave (km/s) = 7.45604 6.48609 6.98791
#
# Compressibility (1/GPa) = 0.01723758
#
# Stress axis : x y z
#
# Youngs Moduli (GPa) = 82.52041 103.98842 81.06495
#
# Poissons Ratio (x) = 0.35636 0.14377
# Poissons Ratio (y) = 0.28279 0.26070
# Poissons Ratio (z) = 0.14635 0.33443
#
# Static dielectric constant tensor:
#      x y z
#    x 1.703790 0.000000 0.000000 
#    y 0.000000 1.771680 0.000000 
#    z 0.000000 0.000000 1.682680 
# 
# From -- ./inp_files/54205.got.cif
#   From: 2010.05.17/outbox.cif.g08.bks.cpg/sg22_28_cif.got.tgz:54205.got - 2010.06.03 23:40:54.
