data_PCOD9326094
_publ_section_title
;
Structure prediction by ZEFSAII (Michael W. Deem and Ramdas Pophale) SiO2 
 PCOD9326094
Probable space group: F 2 2 2
;
_chemical_formula_sum "Si O2"
_cell_formula_units_Z 120
_cell_length_a 7.993043
_cell_length_b 24.140936
_cell_length_c 28.336823
_cell_angle_alpha 90.000000
_cell_angle_beta 90.000000
_cell_angle_gamma 90.000000
_cell_volume 5467.860317
_symmetry_space_group_name_H-M "F 2 2 2"
_symmetry_group_IT_number 22
_symmetry_cell_setting 'orthorhombic'
loop_
_space_group_symop_operation_xyz
x,y,z
-x,-y,z
x,-y,-z
-x,y,-z
x,1/2+y,1/2+z
-x,1/2-y,1/2+z
x,1/2-y,1/2-z
-x,1/2+y,1/2-z
1/2+x,y,1/2+z
1/2-x,-y,1/2+z
1/2+x,-y,1/2-z
1/2-x,y,1/2-z
1/2+x,1/2+y,z
1/2-x,1/2-y,z
1/2+x,1/2-y,-z
1/2-x,1/2+y,-z
loop_
_atom_site_type_symbol
_atom_site_label
_atom_site_fract_x
_atom_site_fract_y
_atom_site_fract_z
Si Si1 0.527481 0.627512 0.450636
Si Si2 0.250000 0.039959 0.250000
Si Si3 0.013351 0.652861 0.156626
Si Si4 0.347955 0.036271 0.836760
Si Si5 0.558435 0.762310 0.305581
Si Si6 0.623141 0.422317 0.931773
Si Si7 0.131478 0.882384 0.824781
Si Si8 0.727114 0.545824 0.936987
O O1 0.500000 0.658166 0.500000
O O2 0.480133 0.652685 0.400144
O O3 0.725001 0.616287 0.447195
O O4 0.401791 0.573629 0.452223
O O5 0.119079 0.078937 0.221576
O O6 0.308604 0.999995 0.208421
O O7 0.055619 0.714111 0.173240
O O8 0.825792 0.637178 0.173905
O O9 0.113207 0.599681 0.175079
O O10 0.222751 0.041235 0.879891
O O11 0.500000 0.000000 0.859142
O O12 0.557882 0.750000 0.250000
O O13 0.750000 0.750000 0.322441
O O14 0.525446 0.826131 0.318658
O O15 0.613355 0.413645 0.874662
O O16 0.688736 0.482382 0.949130
O O17 0.566386 0.417102 0.050008
#
# Coordination Sequence:
#
# PCOD9326094 Si02
#       8
#    16   8  16  16  16  16  16  16
#     4  10  21  37  62  87 116 160 204 258 318 380
#     4  12  20  28  53  90 121 166 216 264 318 390
#     4   9  18  36  54  80 120 158 203 260 314 373
#     4  11  20  33  51  76 122 170 205 255 317 382
#     4   9  17  30  53  84 114 156 210 256 310 369
#     4  10  20  35  55  85 119 157 207 243 314 386
#     4  10  18  32  51  82 118 153 205 259 308 371
#     4  10  20  36  54  81 125 163 194 249 313 380
#
# _framework density 21.946428999999998
#
# number of rings (size 3 to 8) (size 9 to 14) (size 15 to 20)
#    0.000    2.000    2.667    3.600    0.000    2.667 
#    0.000    1.333    0.000    3.200   17.333    0.000 
#    0.000    0.000    0.000    0.000    0.000    0.000 
#
# Total GULP energy -167207.314021 kJ/mol
# GULP energy per Si atom -5573.577134 kJ/mol
# Density = 2.189648 g / cm^3
# Si number density = 21.946429 Si / 1000 Ang^3
#
#
#
# Elastic Constant Matrix: (Units=GPa)
#
#
# Indices 1 2 3 4 5 6 
#
# 1 60.5020 14.5901 12.3019 0.0000 0.0000 0.0000
# 2 14.5901 131.2969 43.9390 0.0000 0.0000 0.0000
# 3 12.3019 43.9390 117.7198 0.0000 0.0000 0.0000
# 4 0.0000 0.0000 0.0000 11.2179 0.0000 0.0000
# 5 0.0000 0.0000 0.0000 0.0000 10.4493 0.0000
# 6 0.0000 0.0000 0.0000 0.0000 0.0000 15.6934
#
#
#
# Elastic Compliance Matrix: (Units=1/GPa)
#
#
# Indices 1 2 3 4 5 6 
#
# 1 0.017139 -0.001491 -0.001234 0.000000 0.000000 0.000000
# 2 -0.001491 0.008833 -0.003141 0.000000 0.000000 0.000000
# 3 -0.001234 -0.003141 0.009796 0.000000 0.000000 0.000000
# 4 0.000000 0.000000 0.000000 0.089143 0.000000 0.000000
# 5 0.000000 0.000000 0.000000 0.000000 0.095700 0.000000
# 6 0.000000 0.000000 0.000000 0.000000 0.000000 0.063721
#
#
# Mechanical properties :
#
#
# Convention : Reuss Voigt Hill
#
# Bulk Modulus (GPa) = 41.60685 50.13119 45.86902
# Shear Modulus (GPa) = 16.44317 23.38465 19.91391
#
# Velocity S-wave (km/s) = 2.74020 3.26779 3.01556
# Velocity P-wave (km/s) = 5.38620 6.09345 5.75070
#
# Compressibility (1/GPa) = 0.02403451
#
# Stress axis : x y z
#
# Youngs Moduli (GPa) = 58.34634 113.20843 102.08061
#
# Poissons Ratio (x) = 0.16885 0.12601
# Poissons Ratio (y) = 0.08702 0.32065
# Poissons Ratio (z) = 0.07202 0.35561
#
# Static dielectric constant tensor:
#      x y z
#    x 1.947460 0.000000 0.000000 
#    y 0.000000 1.851240 0.000000 
#    z 0.000000 0.000000 1.837350 
# 
# From -- ./inp_files/53288.got.cif
#   From: 2010.05.17/outbox.cif.g08.bks.cpg/sg22_27_cif.got.tgz:53288.got - 2010.06.03 23:40:54.
