data_PCOD9326859
_publ_section_title
;
Structure prediction by ZEFSAII (Michael W. Deem and Ramdas Pophale) SiO2 
 PCOD9326859
Probable space group: F 2 2 2
;
_chemical_formula_sum "Si O2"
_cell_formula_units_Z 88
_cell_length_a 7.611790
_cell_length_b 24.251699
_cell_length_c 19.747843
_cell_angle_alpha 90.000000
_cell_angle_beta 90.000000
_cell_angle_gamma 90.000000
_cell_volume 3645.428909
_symmetry_space_group_name_H-M "F 2 2 2"
_symmetry_group_IT_number 22
_symmetry_cell_setting 'orthorhombic'
loop_
_space_group_symop_operation_xyz
x,y,z
-x,-y,z
x,-y,-z
-x,y,-z
x,1/2+y,1/2+z
-x,1/2-y,1/2+z
x,1/2-y,1/2-z
-x,1/2+y,1/2-z
1/2+x,y,1/2+z
1/2-x,-y,1/2+z
1/2+x,-y,1/2-z
1/2-x,y,1/2-z
1/2+x,1/2+y,z
1/2-x,1/2-y,z
1/2+x,1/2-y,-z
1/2-x,1/2+y,-z
loop_
_atom_site_type_symbol
_atom_site_label
_atom_site_fract_x
_atom_site_fract_y
_atom_site_fract_z
Si Si1 0.500000 0.654083 0.000000
Si Si2 0.936117 0.304083 0.212689
Si Si3 0.865464 0.676885 0.943122
Si Si4 0.551149 0.078211 0.755268
Si Si5 0.987820 0.559957 0.101711
Si Si6 0.566767 0.940060 0.393329
O O1 0.674840 0.685549 0.976538
O O2 0.482967 0.611902 0.937817
O O3 0.007557 0.250000 0.250000
O O4 0.750000 0.314885 0.250000
O O5 0.900042 0.298899 0.132126
O O6 0.053998 0.356847 0.227935
O O7 0.910643 0.610837 0.932238
O O8 0.000000 0.696398 0.000000
O O9 0.750000 0.056524 0.750000
O O10 0.448215 0.056006 0.820153
O O11 0.481267 0.066945 0.680836
O O12 0.777982 0.567429 0.107429
O O13 0.000000 0.500000 0.069989
O O14 0.500000 0.000000 0.418354
#
# Coordination Sequence:
#
# PCOD9326859 Si02
#       6
#     8  16  16  16  16  16
#     4  12  23  38  62  94 134 182 220 268 348 415
#     4  10  22  43  73  96 129 172 230 291 356 428
#     4  11  23  43  69  99 140 180 229 287 353 414
#     4   9  20  37  61  89 126 174 227 283 342 400
#     4  10  20  36  57  90 134 184 230 281 328 402
#     4  11  21  34  54  92 135 179 233 276 329 412
#
# _framework density 24.139818999999999
#
# number of rings (size 3 to 8) (size 9 to 14) (size 15 to 20)
#    0.000    1.636    1.818    3.000    0.000    2.182 
#    0.000    0.909   18.000    0.000    0.000    0.000 
#    0.000    0.000    0.000    0.000    0.000    0.000 
#
# Total GULP energy -122868.642118 kJ/mol
# GULP energy per Si atom -5584.938278 kJ/mol
# Density = 2.408488 g / cm^3
# Si number density = 24.139819 Si / 1000 Ang^3
#
#
#
# Elastic Constant Matrix: (Units=GPa)
#
#
# Indices 1 2 3 4 5 6 
#
# 1 120.3216 15.5636 47.9907 0.0000 0.0000 0.0000
# 2 15.5636 116.8763 35.2344 0.0000 0.0000 0.0000
# 3 47.9907 35.2344 197.3580 0.0000 0.0000 0.0000
# 4 0.0000 0.0000 0.0000 407.8617 0.0000 0.0000
# 5 0.0000 0.0000 0.0000 0.0000 6.1704 0.0000
# 6 0.0000 0.0000 0.0000 0.0000 0.0000 21.0203
#
#
#
# Elastic Compliance Matrix: (Units=1/GPa)
#
#
# Indices 1 2 3 4 5 6 
#
# 1 0.009241 -0.000585 -0.002143 0.000000 0.000000 0.000000
# 2 -0.000585 0.009080 -0.001479 0.000000 0.000000 0.000000
# 3 -0.002143 -0.001479 0.005852 0.000000 0.000000 0.000000
# 4 0.000000 0.000000 0.000000 0.002452 0.000000 0.000000
# 5 0.000000 0.000000 0.000000 0.000000 0.162063 0.000000
# 6 0.000000 0.000000 0.000000 0.000000 0.000000 0.047573
#
#
# Mechanical properties :
#
#
# Convention : Reuss Voigt Hill
#
# Bulk Modulus (GPa) = 63.44959 70.23701 66.84330
# Shear Modulus (GPa) = 20.00587 109.39499 64.70043
#
# Velocity S-wave (km/s) = 2.88192 6.73911 5.18272
# Velocity P-wave (km/s) = 6.11680 9.47171 7.97272
#
# Compressibility (1/GPa) = 0.01576054
#
# Stress axis : x y z
#
# Youngs Moduli (GPa) = 108.20931 110.13547 170.88144
#
# Poissons Ratio (x) = 0.06439 0.36617
# Poissons Ratio (y) = 0.06326 0.25271
# Poissons Ratio (z) = 0.23187 0.16287
#
# Static dielectric constant tensor:
#      x y z
#    x 1.896300 0.000000 0.000000 
#    y 0.000000 2.127380 0.000000 
#    z 0.000000 0.000000 1.972800 
# 
# From -- ./inp_files/41839.got.cif
#   From: 2010.05.17/outbox.cif.g08.bks.cpg/sg22_21_cif.got.tgz:41839.got - 2010.06.03 23:40:54.
