data_PCOD9326773
_publ_section_title
;
Structure prediction by ZEFSAII (Michael W. Deem and Ramdas Pophale) SiO2 
 PCOD9326773
Probable space group: F 2 2 2
;
_chemical_formula_sum "Si O2"
_cell_formula_units_Z 68
_cell_length_a 9.718706
_cell_length_b 22.705463
_cell_length_c 14.872367
_cell_angle_alpha 90.000000
_cell_angle_beta 90.000000
_cell_angle_gamma 90.000000
_cell_volume 3281.851309
_symmetry_space_group_name_H-M "F 2 2 2"
_symmetry_group_IT_number 22
_symmetry_cell_setting 'orthorhombic'
loop_
_space_group_symop_operation_xyz
x,y,z
-x,-y,z
x,-y,-z
-x,y,-z
x,1/2+y,1/2+z
-x,1/2-y,1/2+z
x,1/2-y,1/2-z
-x,1/2+y,1/2-z
1/2+x,y,1/2+z
1/2-x,-y,1/2+z
1/2+x,-y,1/2-z
1/2-x,y,1/2-z
1/2+x,1/2+y,z
1/2-x,1/2-y,z
1/2+x,1/2-y,-z
1/2-x,1/2+y,-z
loop_
_atom_site_type_symbol
_atom_site_label
_atom_site_fract_x
_atom_site_fract_y
_atom_site_fract_z
Si Si1 0.112710 0.822416 0.858283
Si Si2 0.925589 0.191791 0.640609
Si Si3 0.374778 0.911908 0.135763
Si Si4 0.554299 0.565078 0.838574
Si Si5 0.000000 0.000000 0.500000
O O1 0.093616 0.814540 0.749499
O O2 0.053840 0.759349 0.889184
O O3 0.271527 0.826283 0.888897
O O4 0.039277 0.883413 0.879635
O O5 0.051697 0.150127 0.614226
O O6 0.445987 0.931962 0.229467
O O7 0.210934 0.915193 0.143050
O O8 0.409994 0.958530 0.061047
O O9 0.500000 0.500000 0.865113
#
# Coordination Sequence:
#
# PCOD9326773 Si02
#       5
#    16  16  16  16   4
#     4   8  15  28  54  83 117 138 188 240 290 322
#     4   8  15  30  52  84 109 152 184 233 284 348
#     4  10  22  35  56  80 118 157 196 231 293 342
#     4  10  20  34  56  90 113 148 193 251 280 337
#     4  12  24  40  54  84 120 166 184 236 292 364
#
# _framework density 20.720012000000001
#
# number of rings (size 3 to 8) (size 9 to 14) (size 15 to 20)
#    0.000    2.824    1.176    1.412    3.294    2.824 
#    0.000    5.294    0.000    5.647    0.000    0.000 
#    0.000    0.000    0.000    0.000    0.000    0.000 
#
# Total GULP energy -94702.929504 kJ/mol
# GULP energy per Si atom -5570.760559 kJ/mol
# Density = 2.067285 g / cm^3
# Si number density = 20.720012 Si / 1000 Ang^3
#
#
#
# Elastic Constant Matrix: (Units=GPa)
#
#
# Indices 1 2 3 4 5 6 
#
# 1 95.5005 120.9811 17.9010 0.0000 0.0000 0.0000
# 2 120.9811 232.9317 17.7261 0.0000 0.0000 0.0000
# 3 17.9010 17.7261 33.0794 0.0000 0.0000 0.0000
# 4 0.0000 0.0000 0.0000 19.6917 0.0000 0.0000
# 5 0.0000 0.0000 0.0000 0.0000 3.7281 0.0000
# 6 0.0000 0.0000 0.0000 0.0000 0.0000 63.3793
#
#
#
# Elastic Compliance Matrix: (Units=1/GPa)
#
#
# Indices 1 2 3 4 5 6 
#
# 1 0.033022 -0.016463 -0.009048 0.000000 0.000000 0.000000
# 2 -0.016463 0.012683 0.002113 0.000000 0.000000 0.000000
# 3 -0.009048 0.002113 0.033995 0.000000 0.000000 0.000000
# 4 0.000000 0.000000 0.000000 0.050783 0.000000 0.000000
# 5 0.000000 0.000000 0.000000 0.000000 0.268235 0.000000
# 6 0.000000 0.000000 0.000000 0.000000 0.000000 0.015778
#
#
# Mechanical properties :
#
#
# Convention : Reuss Voigt Hill
#
# Bulk Modulus (GPa) = 30.39237 74.96976 52.68107
# Shear Modulus (GPa) = 10.58738 31.02004 20.80371
#
# Velocity S-wave (km/s) = 2.26292 3.87344 3.17210
# Velocity P-wave (km/s) = 4.63980 7.50104 6.23672
#
# Compressibility (1/GPa) = 0.03290299
#
# Stress axis : x y z
#
# Youngs Moduli (GPa) = 30.28252 78.84689 29.41626
#
# Poissons Ratio (x) = 1.29803 0.26617
# Poissons Ratio (y) = 0.49853 -0.06214
# Poissons Ratio (z) = 0.27401 -0.16657
#
# Static dielectric constant tensor:
#      x y z
#    x 1.673000 0.000000 0.000000 
#    y 0.000000 1.733890 0.000000 
#    z 0.000000 0.000000 1.693590 
# 
# From -- ./inp_files/34976.got.cif
#   From: 2010.05.17/outbox.cif.g08.bks.cpg/sg22_18_cif.got.tgz:34976.got - 2010.06.03 23:40:54.
