data_PCOD9326171
_publ_section_title
;
Structure prediction by ZEFSAII (Michael W. Deem and Ramdas Pophale) SiO2 
 PCOD9326171
Probable space group: F 2 2 2
;
_chemical_formula_sum "Si O2"
_cell_formula_units_Z 116
_cell_length_a 7.456296
_cell_length_b 26.624478
_cell_length_c 24.872542
_cell_angle_alpha 90.000000
_cell_angle_beta 90.000000
_cell_angle_gamma 90.000000
_cell_volume 4937.696760
_symmetry_space_group_name_H-M "F 2 2 2"
_symmetry_group_IT_number 22
_symmetry_cell_setting 'orthorhombic'
loop_
_space_group_symop_operation_xyz
x,y,z
-x,-y,z
x,-y,-z
-x,y,-z
x,1/2+y,1/2+z
-x,1/2-y,1/2+z
x,1/2-y,1/2-z
-x,1/2+y,1/2-z
1/2+x,y,1/2+z
1/2-x,-y,1/2+z
1/2+x,-y,1/2-z
1/2-x,y,1/2-z
1/2+x,1/2+y,z
1/2-x,1/2-y,z
1/2+x,1/2-y,-z
1/2-x,1/2+y,-z
loop_
_atom_site_type_symbol
_atom_site_label
_atom_site_fract_x
_atom_site_fract_y
_atom_site_fract_z
Si Si1 0.569363 0.142513 0.173986
Si Si2 0.921823 0.284308 0.559156
Si Si3 0.504550 0.139896 0.292391
Si Si4 0.668301 0.913492 0.929166
Si Si5 0.823867 0.893428 0.032546
Si Si6 0.455316 0.556934 0.874972
Si Si7 0.549987 0.743973 0.831311
Si Si8 0.500000 0.500000 0.500000
O O1 0.489436 0.123979 0.230374
O O2 0.784635 0.142657 0.188281
O O3 0.552790 0.112007 0.118147
O O4 0.488850 0.198416 0.167255
O O5 0.750000 0.250000 0.568053
O O6 0.865331 0.342148 0.562627
O O7 0.000000 0.275727 0.500000
O O8 0.058789 0.273991 0.606966
O O9 0.414898 0.096870 0.328357
O O10 0.449276 0.198467 0.301129
O O11 0.857360 0.924642 0.901039
O O12 0.605871 0.963534 0.959600
O O13 0.693869 0.879786 0.982948
O O14 0.806041 0.936191 0.077855
O O15 0.000000 0.909973 0.000000
O O16 0.500000 0.500000 0.858097
O O17 0.750000 0.750000 0.808659
#
# Coordination Sequence:
#
# PCOD9326171 Si02
#       8
#    16  16  16  16  16  16  16   4
#     4   9  19  33  58  85 116 150 197 243 294 359
#     4  11  23  34  54  86 123 160 194 241 295 363
#     4   9  17  34  56  89 114 146 198 251 292 344
#     4  10  22  36  55  81 113 155 193 244 294 360
#     4   9  19  35  54  79 114 148 192 239 287 351
#     4  10  18  34  60  86 108 145 196 250 294 338
#     4  10  19  34  59  87 120 157 195 245 298 354
#     4  12  24  40  54  80 120 160 192 242 308 368
#
# _framework density 23.492735
#
# number of rings (size 3 to 8) (size 9 to 14) (size 15 to 20)
#    0.000    2.207    1.379    1.655    7.724    4.690 
#    1.241    0.000    0.000    1.655    0.000    0.000 
#    0.000    0.000    0.000    0.000    0.000    0.000 
#
# Total GULP energy -161676.377197 kJ/mol
# GULP energy per Si atom -5575.047490 kJ/mol
# Density = 2.343926 g / cm^3
# Si number density = 23.492735 Si / 1000 Ang^3
#
#
#
# Elastic Constant Matrix: (Units=GPa)
#
#
# Indices 1 2 3 4 5 6 
#
# 1 45.7882 9.4017 22.3384 0.0000 0.0000 0.0000
# 2 9.4017 128.1399 90.4902 0.0000 0.0000 0.0000
# 3 22.3384 90.4902 195.4473 0.0000 0.0000 0.0000
# 4 0.0000 0.0000 0.0000 13.6033 0.0000 0.0000
# 5 0.0000 0.0000 0.0000 0.0000 -436.8327 0.0000
# 6 0.0000 0.0000 0.0000 0.0000 0.0000 14.8458
#
#
#
# Elastic Compliance Matrix: (Units=1/GPa)
#
#
# Indices 1 2 3 4 5 6 
#
# 1 0.023135 0.000252 -0.002761 0.000000 0.000000 0.000000
# 2 0.000252 0.011598 -0.005399 0.000000 0.000000 0.000000
# 3 -0.002761 -0.005399 0.007931 0.000000 0.000000 0.000000
# 4 0.000000 0.000000 0.000000 0.073511 0.000000 0.000000
# 5 0.000000 0.000000 0.000000 0.000000 -0.002289 0.000000
# 6 0.000000 0.000000 0.000000 0.000000 0.000000 0.067359
#
#
# Mechanical properties :
#
#
# Convention : Reuss Voigt Hill
#
# Bulk Modulus (GPa) = 37.24415 68.20400 52.72408
# Shear Modulus (GPa) = 24.27072 -65.20038 -20.46483
#
# Velocity S-wave (km/s) = 3.21770 -5.27387 -2.95466
# Velocity P-wave (km/s) = 5.44910 2.82664 3.29414
#
# Compressibility (1/GPa) = 0.02684985
#
# Stress axis : x y z
#
# Youngs Moduli (GPa) = 43.22477 86.22331 126.07964
#
# Poissons Ratio (x) = -0.02176 0.34811
# Poissons Ratio (y) = -0.01091 0.68064
# Poissons Ratio (z) = 0.11934 0.46548
#
# Static dielectric constant tensor:
#      x y z
#    x 2.107030 0.000000 0.000000 
#    y 0.000000 2.866800 0.000000 
#    z 0.000000 0.000000 1.906550 
# 
# From -- ./inp_files/14087.got.cif
#   From: 2010.05.17/outbox.cif.g08.bks.cpg/sg22_8_cif.got.tgz:14087.got - 2010.06.03 23:40:54.
