data_PCOD9326588
_publ_section_title
;
Structure prediction by ZEFSAII (Michael W. Deem and Ramdas Pophale) SiO2 
 PCOD9326588
Probable space group: F 2 2 2
;
_chemical_formula_sum "Si O2"
_cell_formula_units_Z 68
_cell_length_a 12.753638
_cell_length_b 12.651697
_cell_length_c 22.623548
_cell_angle_alpha 90.000000
_cell_angle_beta 90.000000
_cell_angle_gamma 90.000000
_cell_volume 3650.426289
_symmetry_space_group_name_H-M "F 2 2 2"
_symmetry_group_IT_number 22
_symmetry_cell_setting 'orthorhombic'
loop_
_space_group_symop_operation_xyz
x,y,z
-x,-y,z
x,-y,-z
-x,y,-z
x,1/2+y,1/2+z
-x,1/2-y,1/2+z
x,1/2-y,1/2-z
-x,1/2+y,1/2-z
1/2+x,y,1/2+z
1/2-x,-y,1/2+z
1/2+x,-y,1/2-z
1/2-x,y,1/2-z
1/2+x,1/2+y,z
1/2-x,1/2-y,z
1/2+x,1/2-y,-z
1/2-x,1/2+y,-z
loop_
_atom_site_type_symbol
_atom_site_label
_atom_site_fract_x
_atom_site_fract_y
_atom_site_fract_z
Si Si1 0.666985 0.163908 0.365487
Si Si2 0.472769 0.772223 0.819292
Si Si3 0.274082 0.477150 0.431052
Si Si4 0.000000 0.000000 0.371465
Si Si5 0.250000 0.250000 0.376918
Si Si6 0.750000 0.250000 0.250000
O O1 0.750000 0.250000 0.391868
O O2 0.548296 0.205257 0.363474
O O3 0.693336 0.171776 0.295597
O O4 0.695838 0.053548 0.394508
O O5 0.488604 0.750000 0.750000
O O6 0.499354 0.894314 0.832405
O O7 0.353528 0.751306 0.836933
O O8 0.263670 0.500000 0.500000
O O9 0.393406 0.499975 0.409708
O O10 0.251533 0.355676 0.415891
#
# Coordination Sequence:
#
# PCOD9326588 Si02
#       6
#    16  16  16   8   8   4
#     4  10  19  37  66  97 113 159 219 266 302 370
#     4  11  21  41  62  94 129 168 210 265 328 390
#     4  11  24  42  65  90 133 171 221 264 316 384
#     4  10  21  40  64  90 124 172 223 260 310 390
#     4  10  27  41  56  96 135 167 208 262 346 378
#     4   8  16  34  60 100 110 144 216 274 280 360
#
# _framework density 18.627963000000001
#
# number of rings (size 3 to 8) (size 9 to 14) (size 15 to 20)
#    0.706    0.941    3.529    0.706    1.647    2.824 
#    4.235    2.353    0.000    0.000    0.000    0.000 
#    0.000    0.000    0.000    0.000    0.000    0.000 
#
# Total GULP energy -94724.146782 kJ/mol
# GULP energy per Si atom -5572.008634 kJ/mol
# Density = 1.858557 g / cm^3
# Si number density = 18.627963 Si / 1000 Ang^3
#
#
#
# Elastic Constant Matrix: (Units=GPa)
#
#
# Indices 1 2 3 4 5 6 
#
# 1 128.2246 78.5675 48.0342 0.0000 0.0000 0.0000
# 2 78.5675 154.2400 78.0665 0.0000 0.0000 0.0000
# 3 48.0342 78.0665 124.2199 0.0000 0.0000 0.0000
# 4 0.0000 0.0000 0.0000 10.1940 0.0000 0.0000
# 5 0.0000 0.0000 0.0000 0.0000 7.0548 0.0000
# 6 0.0000 0.0000 0.0000 0.0000 0.0000 32.9524
#
#
#
# Elastic Compliance Matrix: (Units=1/GPa)
#
#
# Indices 1 2 3 4 5 6 
#
# 1 0.011442 -0.005263 -0.001117 0.000000 0.000000 0.000000
# 2 -0.005263 0.011929 -0.005461 0.000000 0.000000 0.000000
# 3 -0.001117 -0.005461 0.011914 0.000000 0.000000 0.000000
# 4 0.000000 0.000000 0.000000 0.098097 0.000000 0.000000
# 5 0.000000 0.000000 0.000000 0.000000 0.141747 0.000000
# 6 0.000000 0.000000 0.000000 0.000000 0.000000 0.030347
#
#
# Mechanical properties :
#
#
# Convention : Reuss Voigt Hill
#
# Bulk Modulus (GPa) = 86.19016 90.66898 88.42957
# Shear Modulus (GPa) = 15.01382 23.50798 19.26090
#
# Velocity S-wave (km/s) = 2.84206 3.55628 3.21904
# Velocity P-wave (km/s) = 7.55906 8.10198 7.83523
#
# Compressibility (1/GPa) = 0.01160225
#
# Stress axis : x y z
#
# Youngs Moduli (GPa) = 87.39637 83.83233 83.93252
#
# Poissons Ratio (x) = 0.44122 0.09374
# Poissons Ratio (y) = 0.45998 0.45839
# Poissons Ratio (z) = 0.09761 0.45784
#
# Static dielectric constant tensor:
#      x y z
#    x 1.702620 0.000000 0.000000 
#    y 0.000000 1.545700 0.000000 
#    z 0.000000 0.000000 1.603770 
# 
# From -- ./inp_files/43303.got.cif
#   From: 2010.05.17/outbox.cif.g08.bks.cpg/sg22_22_cif.got.tgz:43303.got - 2010.06.03 23:40:54.
