data_PCOD9326826
_publ_section_title
;
Structure prediction by ZEFSAII (Michael W. Deem and Ramdas Pophale) SiO2 
 PCOD9326826
Probable space group: F 2 2 2
;
_chemical_formula_sum "Si O2"
_cell_formula_units_Z 88
_cell_length_a 25.252928
_cell_length_b 5.719438
_cell_length_c 32.364630
_cell_angle_alpha 90.000000
_cell_angle_beta 90.000000
_cell_angle_gamma 90.000000
_cell_volume 4674.506235
_symmetry_space_group_name_H-M "F 2 2 2"
_symmetry_group_IT_number 22
_symmetry_cell_setting 'orthorhombic'
loop_
_space_group_symop_operation_xyz
x,y,z
-x,-y,z
x,-y,-z
-x,y,-z
x,1/2+y,1/2+z
-x,1/2-y,1/2+z
x,1/2-y,1/2-z
-x,1/2+y,1/2-z
1/2+x,y,1/2+z
1/2-x,-y,1/2+z
1/2+x,-y,1/2-z
1/2-x,y,1/2-z
1/2+x,1/2+y,z
1/2-x,1/2-y,z
1/2+x,1/2-y,-z
1/2-x,1/2+y,-z
loop_
_atom_site_type_symbol
_atom_site_label
_atom_site_fract_x
_atom_site_fract_y
_atom_site_fract_z
Si Si1 0.969158 0.750000 0.250000
Si Si2 0.250000 0.250000 0.593326
Si Si3 0.060011 0.521894 0.580745
Si Si4 0.136375 0.373649 0.886173
Si Si5 0.556131 0.639422 0.339320
Si Si6 0.250000 0.250000 0.456370
Si Si7 0.135857 0.818492 0.532609
O O1 0.940377 0.754262 0.205703
O O2 0.000000 0.500000 0.249273
O O3 0.194458 0.237275 0.618223
O O4 0.246440 0.500106 0.568490
O O5 0.091458 0.296634 0.596006
O O6 0.056375 0.685952 0.621665
O O7 0.095625 0.617205 0.543557
O O8 0.000000 0.500000 0.566619
O O9 0.108116 0.481753 0.846437
O O10 0.143558 0.564044 0.922407
O O11 0.500000 0.500000 0.341518
O O12 0.195115 0.245222 0.481517
O O13 0.113315 0.000000 0.500000
#
# Coordination Sequence:
#
# PCOD9326826 Si02
#       7
#     8   8  16  16  16   8  16
#     4  10  22  36  58  98 133 155 194 254 310 368
#     4  10  20  39  60  88 121 152 211 253 302 359
#     4  11  20  37  61  82 117 165 202 246 305 373
#     4  10  21  37  58  85 118 160 206 249 305 360
#     4  10  20  35  60  89 125 156 196 249 308 373
#     4  10  20  39  60  86 118 147 203 273 315 348
#     4  10  23  38  56  85 117 156 207 262 315 358
#
# _framework density 18.825517999999999
#
# number of rings (size 3 to 8) (size 9 to 14) (size 15 to 20)
#    0.000    1.818    3.636    0.545    2.545    3.636 
#    0.000    2.727    0.000    0.000    0.000    3.818 
#    0.000    0.000    0.000    0.000    0.000    0.000 
#
# Total GULP energy -122517.310837 kJ/mol
# GULP energy per Si atom -5568.968674 kJ/mol
# Density = 1.878267 g / cm^3
# Si number density = 18.825518 Si / 1000 Ang^3
#
#
#
# Elastic Constant Matrix: (Units=GPa)
#
#
# Indices 1 2 3 4 5 6 
#
# 1 123.8144 21.8940 14.2520 -0.0824 -0.0030 -0.0015
# 2 21.8940 75.6697 16.8853 0.2526 0.0018 0.0319
# 3 14.2520 16.8853 78.4886 -0.0291 0.0001 -0.0026
# 4 -0.0824 0.2526 -0.0291 199.6333 0.1053 0.0170
# 5 -0.0030 0.0018 0.0001 0.1053 18.2127 -0.0013
# 6 -0.0015 0.0319 -0.0026 0.0170 -0.0013 21.1394
#
#
#
# Elastic Compliance Matrix: (Units=1/GPa)
#
#
# Indices 1 2 3 4 5 6 
#
# 1 0.008598 -0.002247 -0.001078 0.000006 0.000002 0.000004
# 2 -0.002247 0.014469 -0.002705 -0.000020 -0.000002 -0.000022
# 3 -0.001078 -0.002705 0.013518 0.000005 0.000000 0.000006
# 4 0.000006 -0.000020 0.000005 0.005009 -0.000029 -0.000004
# 5 0.000002 -0.000002 0.000000 -0.000029 0.054907 0.000003
# 6 0.000004 -0.000022 0.000006 -0.000004 0.000003 0.047305
#
#
# Mechanical properties :
#
#
# Convention : Reuss Voigt Hill
#
# Bulk Modulus (GPa) = 40.77305 42.67059 41.72182
# Shear Modulus (GPa) = 30.48007 62.79316 46.63662
#
# Velocity S-wave (km/s) = 4.02815 5.78167 4.98266
# Velocity P-wave (km/s) = 6.58332 8.20280 7.43727
#
# Compressibility (1/GPa) = 0.02452600
#
# Stress axis : x y z
#
# Youngs Moduli (GPa) = 116.30545 69.11250 73.97389
#
# Poissons Ratio (x) = 0.15531 0.07973
# Poissons Ratio (y) = 0.26137 0.20008
# Poissons Ratio (z) = 0.12535 0.18693
#
# Static dielectric constant tensor:
#      x y z
#    x -0.670890 -0.001770 0.000040 
#    y -0.001770 1.753270 0.000000 
#    z 0.000040 0.000000 1.616710 
# 
# From -- ./inp_files/50690.got.cif
#   From: 2010.05.17/outbox.cif.g08.bks.cpg/sg22_26_cif.got.tgz:50690.got - 2010.06.03 23:40:54.
