data_PCOD9326572
_publ_section_title
;
Structure prediction by ZEFSAII (Michael W. Deem and Ramdas Pophale) SiO2 
 PCOD9326572
Probable space group: F 2 2 2
;
_chemical_formula_sum "Si O2"
_cell_formula_units_Z 104
_cell_length_a 28.585846
_cell_length_b 9.146548
_cell_length_c 19.844447
_cell_angle_alpha 90.000000
_cell_angle_beta 90.000000
_cell_angle_gamma 90.000000
_cell_volume 5188.565082
_symmetry_space_group_name_H-M "F 2 2 2"
_symmetry_group_IT_number 22
_symmetry_cell_setting 'orthorhombic'
loop_
_space_group_symop_operation_xyz
x,y,z
-x,-y,z
x,-y,-z
-x,y,-z
x,1/2+y,1/2+z
-x,1/2-y,1/2+z
x,1/2-y,1/2-z
-x,1/2+y,1/2-z
1/2+x,y,1/2+z
1/2-x,-y,1/2+z
1/2+x,-y,1/2-z
1/2-x,y,1/2-z
1/2+x,1/2+y,z
1/2-x,1/2-y,z
1/2+x,1/2-y,-z
1/2-x,1/2+y,-z
loop_
_atom_site_type_symbol
_atom_site_label
_atom_site_fract_x
_atom_site_fract_y
_atom_site_fract_z
Si Si1 0.045309 0.067963 0.926121
Si Si2 0.639992 0.961185 0.637803
Si Si3 0.049601 0.075517 0.573833
Si Si4 0.149989 0.250000 0.750000
Si Si5 0.848981 0.960713 0.634159
Si Si6 0.194727 0.235442 0.124107
Si Si7 0.305547 0.748956 0.464193
O O1 0.091393 0.999153 0.894488
O O2 0.045186 0.246062 0.929957
O O3 0.000000 0.000000 0.890571
O O4 0.045453 0.000000 0.000000
O O5 0.625199 0.863130 0.701160
O O6 0.668454 0.868711 0.581715
O O7 0.673177 0.092832 0.657719
O O8 0.095017 0.049616 0.621624
O O9 0.059064 0.000000 0.500000
O O10 0.000000 0.000000 0.595215
O O11 0.171836 0.144003 0.693202
O O12 0.825952 0.901631 0.565057
O O13 0.832435 0.122544 0.648032
O O14 0.250000 0.250000 0.134492
O O15 0.186076 0.224569 0.043080
O O16 0.250000 0.750000 0.453367
#
# Coordination Sequence:
#
# PCOD9326572 Si02
#       7
#    16  16  16   8  16  16  16
#     4  11  22  37  63 100 129 158 198 250 316 379
#     4  11  23  40  65  85 128 166 205 254 306 358
#     4  11  22  37  63 100 129 158 198 250 316 379
#     4  10  24  48  59  82 116 172 220 258 295 366
#     4  11  23  40  65  85 128 166 205 254 306 358
#     4  11  23  38  63  99 126 153 203 257 317 378
#     4  10  19  37  62  95 128 157 192 245 315 379
#
# _framework density 20.044077000000001
#
# number of rings (size 3 to 8) (size 9 to 14) (size 15 to 20)
#    0.000    1.231    3.077    5.538    4.308    3.077 
#    0.000   15.385    0.000    0.000    0.000    0.000 
#    0.000    0.000    0.000    0.000    0.000    0.000 
#
# Total GULP energy -144905.124683 kJ/mol
# GULP energy per Si atom -5573.274026 kJ/mol
# Density = 1.999846 g / cm^3
# Si number density = 20.044077 Si / 1000 Ang^3
#
#
#
# Elastic Constant Matrix: (Units=GPa)
#
#
# Indices 1 2 3 4 5 6 
#
# 1 106.1553 24.2424 30.5386 0.0000 0.0000 0.0000
# 2 24.2424 88.3856 10.2105 0.0000 0.0000 0.0000
# 3 30.5386 10.2105 47.6374 0.0000 0.0000 0.0000
# 4 0.0000 0.0000 0.0000 10.7295 0.0000 0.0000
# 5 0.0000 0.0000 0.0000 0.0000 -5.3834 0.0000
# 6 0.0000 0.0000 0.0000 0.0000 0.0000 35.3196
#
#
#
# Elastic Compliance Matrix: (Units=1/GPa)
#
#
# Indices 1 2 3 4 5 6 
#
# 1 0.012056 -0.002475 -0.007198 0.000000 0.000000 0.000000
# 2 -0.002475 0.012109 -0.001009 0.000000 0.000000 0.000000
# 3 -0.007198 -0.001009 0.025823 0.000000 0.000000 0.000000
# 4 0.000000 0.000000 0.000000 0.093201 0.000000 0.000000
# 5 0.000000 0.000000 0.000000 0.000000 -0.185756 0.000000
# 6 0.000000 0.000000 0.000000 0.000000 0.000000 0.028313
#
#
# Mechanical properties :
#
#
# Convention : Reuss Voigt Hill
#
# Bulk Modulus (GPa) = 34.93587 41.35128 38.14357
# Shear Modulus (GPa) = 300.26230 19.94560 160.10395
#
# Velocity S-wave (km/s) = 12.25260 3.15792 8.94703
# Velocity P-wave (km/s) = 14.75248 5.82852 11.21622
#
# Compressibility (1/GPa) = 0.02862388
#
# Stress axis : x y z
#
# Youngs Moduli (GPa) = 82.94487 82.57987 38.72567
#
# Poissons Ratio (x) = 0.20440 0.27876
# Poissons Ratio (y) = 0.20531 0.03907
# Poissons Ratio (z) = 0.59706 0.08330
#
# Static dielectric constant tensor:
#      x y z
#    x 1.718780 0.000000 0.000000 
#    y 0.000000 1.760340 0.000000 
#    z 0.000000 0.000000 1.739060 
# 
# From -- ./inp_files/46031.got.cif
#   From: 2010.05.17/outbox.cif.g08.bks.cpg/sg22_24_cif.got.tgz:46031.got - 2010.06.03 23:40:54.
