data_PCOD9326234
_publ_section_title
;
Structure prediction by ZEFSAII (Michael W. Deem and Ramdas Pophale) SiO2 
 PCOD9326234
Probable space group: F 2 2 2
;
_chemical_formula_sum "Si O2"
_cell_formula_units_Z 108
_cell_length_a 13.505915
_cell_length_b 28.441391
_cell_length_c 13.456421
_cell_angle_alpha 90.000000
_cell_angle_beta 90.000000
_cell_angle_gamma 90.000000
_cell_volume 5168.974755
_symmetry_space_group_name_H-M "F 2 2 2"
_symmetry_group_IT_number 22
_symmetry_cell_setting 'orthorhombic'
loop_
_space_group_symop_operation_xyz
x,y,z
-x,-y,z
x,-y,-z
-x,y,-z
x,1/2+y,1/2+z
-x,1/2-y,1/2+z
x,1/2-y,1/2-z
-x,1/2+y,1/2-z
1/2+x,y,1/2+z
1/2-x,-y,1/2+z
1/2+x,-y,1/2-z
1/2-x,y,1/2-z
1/2+x,1/2+y,z
1/2-x,1/2-y,z
1/2+x,1/2-y,-z
1/2-x,1/2+y,-z
loop_
_atom_site_type_symbol
_atom_site_label
_atom_site_fract_x
_atom_site_fract_y
_atom_site_fract_z
Si Si1 0.858765 0.086806 0.976138
Si Si2 0.149848 0.856334 0.185010
Si Si3 0.368247 0.260164 0.924830
Si Si4 0.500000 0.679408 0.500000
Si Si5 0.172906 0.378379 0.105815
Si Si6 0.440316 0.134614 0.285157
Si Si7 0.175691 0.292303 0.363766
Si Si8 0.000000 0.000000 0.000000
O O1 0.743947 0.083367 0.943125
O O2 0.920926 0.119253 0.898466
O O3 0.918870 0.038643 0.964074
O O4 0.849905 0.111639 0.084726
O O5 0.250000 0.857604 0.250000
O O6 0.121858 0.803159 0.151097
O O7 0.052926 0.872350 0.244558
O O8 0.250000 0.250000 0.919129
O O9 0.437643 0.213954 0.924816
O O10 0.382559 0.279755 0.036433
O O11 0.418208 0.645460 0.548517
O O12 0.130774 0.393487 0.211860
O O13 0.249381 0.335257 0.118228
O O14 0.400584 0.188498 0.282214
O O15 0.250000 0.250000 0.345454
#
# Coordination Sequence:
#
# PCOD9326234 Si02
#       8
#    16  16  16   8  16  16  16   4
#     4  11  23  49  74 103 131 163 229 285 349 451
#     4  12  25  41  65  97 142 189 232 287 350 402
#     4  11  21  38  56  86 137 191 244 292 323 373
#     4  12  22  39  64  89 144 203 238 297 342 376
#     4  11  24  38  66  95 137 183 229 278 356 405
#     4  11  23  40  68  95 130 185 224 279 346 411
#     4  10  18  37  55  86 124 177 243 291 311 364
#     4  12  24  46  92 110 116 174 220 278 376 446
#
# _framework density 20.893892999999998
#
# number of rings (size 3 to 8) (size 9 to 14) (size 15 to 20)
#    0.000    0.889    7.407    2.667    4.148    1.481 
#    0.000    1.481    0.000    0.444    0.000    0.000 
#    0.000    0.000    0.000    0.000    0.000    0.000 
#
# Total GULP energy -150394.704434 kJ/mol
# GULP energy per Si atom -5570.174238 kJ/mol
# Density = 2.084634 g / cm^3
# Si number density = 20.893893 Si / 1000 Ang^3
#
#
#
# Elastic Constant Matrix: (Units=GPa)
#
#
# Indices 1 2 3 4 5 6 
#
# 1 180.5060 28.4493 44.3140 0.0000 0.0000 0.0000
# 2 28.4493 59.2879 10.1945 0.0000 0.0000 0.0000
# 3 44.3140 10.1945 68.3111 0.0000 0.0000 0.0000
# 4 0.0000 0.0000 0.0000 -3.6557 0.0000 0.0000
# 5 0.0000 0.0000 0.0000 0.0000 30.9232 0.0000
# 6 0.0000 0.0000 0.0000 0.0000 0.0000 40.0737
#
#
#
# Elastic Compliance Matrix: (Units=1/GPa)
#
#
# Indices 1 2 3 4 5 6 
#
# 1 0.006968 -0.002634 -0.004127 0.000000 0.000000 0.000000
# 2 -0.002634 0.018307 -0.001023 0.000000 0.000000 0.000000
# 3 -0.004127 -0.001023 0.017469 0.000000 0.000000 0.000000
# 4 0.000000 0.000000 0.000000 -0.273542 0.000000 0.000000
# 5 0.000000 0.000000 0.000000 0.000000 0.032338 0.000000
# 6 0.000000 0.000000 0.000000 0.000000 0.000000 0.024954
#
#
# Mechanical properties :
#
#
# Convention : Reuss Voigt Hill
#
# Bulk Modulus (GPa) = 36.79879 52.66894 44.73387
# Shear Modulus (GPa) = -33.58459 28.47804 -2.55328
#
# Velocity S-wave (km/s) = -4.01357 3.69587 -1.10665
# Velocity P-wave (km/s) = 1.95650 6.59357 4.45237
#
# Compressibility (1/GPa) = 0.02717481
#
# Stress axis : x y z
#
# Youngs Moduli (GPa) = 143.50493 54.62457 57.24400
#
# Poissons Ratio (x) = 0.14389 0.23627
# Poissons Ratio (y) = 0.37801 0.05858
# Poissons Ratio (z) = 0.59230 0.05590
#
# Static dielectric constant tensor:
#      x y z
#    x 1.856380 0.000000 0.000000 
#    y 0.000000 1.825150 0.000000 
#    z 0.000000 0.000000 1.876720 
# 
# From -- ./inp_files/28482.got.cif
#   From: 2010.05.17/outbox.cif.g08.bks.cpg/sg22_15_cif.got.tgz:28482.got - 2010.06.03 23:40:54.
