data_PCOD9326248
_publ_section_title
;
Structure prediction by ZEFSAII (Michael W. Deem and Ramdas Pophale) SiO2 
 PCOD9326248
Probable space group: F 2 2 2
;
_chemical_formula_sum "Si O2"
_cell_formula_units_Z 120
_cell_length_a 23.980233
_cell_length_b 11.242866
_cell_length_c 20.888645
_cell_angle_alpha 90.000000
_cell_angle_beta 90.000000
_cell_angle_gamma 90.000000
_cell_volume 5631.715435
_symmetry_space_group_name_H-M "F 2 2 2"
_symmetry_group_IT_number 22
_symmetry_cell_setting 'orthorhombic'
loop_
_space_group_symop_operation_xyz
x,y,z
-x,-y,z
x,-y,-z
-x,y,-z
x,1/2+y,1/2+z
-x,1/2-y,1/2+z
x,1/2-y,1/2-z
-x,1/2+y,1/2-z
1/2+x,y,1/2+z
1/2-x,-y,1/2+z
1/2+x,-y,1/2-z
1/2-x,y,1/2-z
1/2+x,1/2+y,z
1/2-x,1/2-y,z
1/2+x,1/2-y,-z
1/2-x,1/2+y,-z
loop_
_atom_site_type_symbol
_atom_site_label
_atom_site_fract_x
_atom_site_fract_y
_atom_site_fract_z
Si Si1 0.272286 0.587687 0.181865
Si Si2 0.906434 0.750000 0.250000
Si Si3 0.188216 0.244711 0.467286
Si Si4 0.662794 0.001125 0.107728
Si Si5 0.656274 0.616385 0.150870
Si Si6 0.940310 0.438263 0.343660
Si Si7 0.939985 0.490567 0.795498
Si Si8 0.361119 0.728241 0.092416
O O1 0.250000 0.630890 0.250000
O O2 0.221441 0.535792 0.140454
O O3 0.309523 0.471299 0.196112
O O4 0.312215 0.676932 0.140415
O O5 0.867585 0.725577 0.309983
O O6 0.943081 0.635921 0.239828
O O7 0.250000 0.250000 0.497251
O O8 0.190928 0.332167 0.406752
O O9 0.148750 0.309134 0.519201
O O10 0.170845 0.113634 0.439034
O O11 0.644632 0.130416 0.081200
O O12 0.613322 0.983970 0.159444
O O13 0.604588 0.534395 0.130567
O O14 0.932967 0.423929 0.266325
O O15 0.919352 0.317454 0.377730
O O16 0.000000 0.500000 0.355122
O O17 0.000000 0.500000 0.828996
#
# Coordination Sequence:
#
# PCOD9326248 Si02
#       8
#    16   8  16  16  16  16  16  16
#     4  11  23  40  63 100 135 169 222 285 341 401
#     4  10  18  38  61  92 130 162 223 280 342 404
#     4  12  24  43  64  95 133 186 230 272 331 409
#     4  12  23  41  63  96 130 180 221 270 338 407
#     4  10  21  37  65  94 126 172 224 279 332 404
#     4   9  21  43  67  98 129 167 216 282 345 407
#     4  10  22  38  66  98 127 168 215 277 350 407
#     4  11  26  42  65  96 136 181 224 275 337 417
#
# _framework density 21.307894999999998
#
# number of rings (size 3 to 8) (size 9 to 14) (size 15 to 20)
#    0.000    1.333    2.667    4.000    0.000    8.000 
#    0.000    1.333    0.000    0.800    0.000    0.000 
#    0.000    0.000    0.000    0.000    0.000    0.000 
#
# Total GULP energy -167095.468271 kJ/mol
# GULP energy per Si atom -5569.848942 kJ/mol
# Density = 2.125940 g / cm^3
# Si number density = 21.307895 Si / 1000 Ang^3
#
#
#
# Elastic Constant Matrix: (Units=GPa)
#
#
# Indices 1 2 3 4 5 6 
#
# 1 104.7555 24.9945 18.1087 0.0000 0.0000 0.0000
# 2 24.9945 65.0793 42.6185 0.0000 0.0000 0.0000
# 3 18.1087 42.6185 77.1686 0.0000 0.0000 0.0000
# 4 0.0000 0.0000 0.0000 20.6249 0.0000 0.0000
# 5 0.0000 0.0000 0.0000 0.0000 13.2482 0.0000
# 6 0.0000 0.0000 0.0000 0.0000 0.0000 14.0458
#
#
#
# Elastic Compliance Matrix: (Units=1/GPa)
#
#
# Indices 1 2 3 4 5 6 
#
# 1 0.010516 -0.003795 -0.000372 0.000000 0.000000 0.000000
# 2 -0.003795 0.025442 -0.013160 0.000000 0.000000 0.000000
# 3 -0.000372 -0.013160 0.020314 0.000000 0.000000 0.000000
# 4 0.000000 0.000000 0.000000 0.048485 0.000000 0.000000
# 5 0.000000 0.000000 0.000000 0.000000 0.075482 0.000000
# 6 0.000000 0.000000 0.000000 0.000000 0.000000 0.071196
#
#
# Mechanical properties :
#
#
# Convention : Reuss Voigt Hill
#
# Bulk Modulus (GPa) = 46.25972 46.49409 46.37691
# Shear Modulus (GPa) = 17.04770 20.33591 18.69180
#
# Velocity S-wave (km/s) = 2.83161 3.09266 2.96501
# Velocity P-wave (km/s) = 5.69631 5.88390 5.79086
#
# Compressibility (1/GPa) = 0.02161708
#
# Stress axis : x y z
#
# Youngs Moduli (GPa) = 95.09459 39.30535 49.22717
#
# Poissons Ratio (x) = 0.14918 0.01829
# Poissons Ratio (y) = 0.36092 0.64785
# Poissons Ratio (z) = 0.03533 0.51727
#
# Static dielectric constant tensor:
#      x y z
#    x 1.802020 0.000000 0.000000 
#    y 0.000000 1.855310 0.000000 
#    z 0.000000 0.000000 1.818950 
# 
# From -- ./inp_files/45407.got.cif
#   From: 2010.05.17/outbox.cif.g08.bks.cpg/sg22_23_cif.got.tgz:45407.got - 2010.06.03 23:40:54.
