data_PCOD9326003
_publ_section_title
;
Structure prediction by ZEFSAII (Michael W. Deem and Ramdas Pophale) SiO2 
 PCOD9326003
Probable space group: F 2 2 2
;
_chemical_formula_sum "Si O2"
_cell_formula_units_Z 80
_cell_length_a 10.642965
_cell_length_b 16.618666
_cell_length_c 23.542838
_cell_angle_alpha 90.000000
_cell_angle_beta 90.000000
_cell_angle_gamma 90.000000
_cell_volume 4164.066031
_symmetry_space_group_name_H-M "F 2 2 2"
_symmetry_group_IT_number 22
_symmetry_cell_setting 'orthorhombic'
loop_
_space_group_symop_operation_xyz
x,y,z
-x,-y,z
x,-y,-z
-x,y,-z
x,1/2+y,1/2+z
-x,1/2-y,1/2+z
x,1/2-y,1/2-z
-x,1/2+y,1/2-z
1/2+x,y,1/2+z
1/2-x,-y,1/2+z
1/2+x,-y,1/2-z
1/2-x,y,1/2-z
1/2+x,1/2+y,z
1/2-x,1/2-y,z
1/2+x,1/2-y,-z
1/2-x,1/2+y,-z
loop_
_atom_site_type_symbol
_atom_site_label
_atom_site_fract_x
_atom_site_fract_y
_atom_site_fract_z
Si Si1 0.955962 0.585831 0.119824
Si Si2 0.646724 0.180234 0.982758
Si Si3 0.381550 0.589492 0.748228
Si Si4 0.282645 0.844021 0.104196
Si Si5 0.142062 0.592063 0.292620
O O1 0.868378 0.628721 0.074126
O O2 0.901406 0.570860 0.181931
O O3 0.000000 0.500000 0.096114
O O4 0.079820 0.639381 0.129156
O O5 0.750000 0.250000 0.973246
O O6 0.500000 0.204309 0.000000
O O7 0.700937 0.133601 0.037908
O O8 0.250000 0.635677 0.750000
O O9 0.506496 0.626734 0.775174
O O10 0.364961 0.503800 0.780455
O O11 0.250000 0.750000 0.105618
O O12 0.183744 0.890153 0.143390
O O13 0.250000 0.623731 0.250000
#
# Coordination Sequence:
#
# PCOD9326003 Si02
#       5
#    16  16  16  16  16
#     4  11  19  39  67  94 120 159 215 262 305 371
#     4   9  21  40  64  90 124 165 206 260 314 370
#     4  10  19  34  56  88 123 155 190 259 321 355
#     4  10  21  38  62  89 117 160 210 251 298 375
#     4  10  17  34  59  80 118 157 196 244 302 371
#
# _framework density 19.211991000000001
#
# number of rings (size 3 to 8) (size 9 to 14) (size 15 to 20)
#    0.000    2.000    4.000    1.200    0.000    4.000 
#   10.800    0.000    0.000    0.000    0.000    0.000 
#    0.000    0.000    0.000    0.000    0.000    0.000 
#
# Total GULP energy -111379.501399 kJ/mol
# GULP energy per Si atom -5568.975070 kJ/mol
# Density = 1.916826 g / cm^3
# Si number density = 19.211991 Si / 1000 Ang^3
#
#
#
# Elastic Constant Matrix: (Units=GPa)
#
#
# Indices 1 2 3 4 5 6 
#
# 1 142.1942 22.2006 60.3657 0.0000 0.0000 0.0000
# 2 22.2006 44.1223 44.1554 0.0000 0.0000 0.0000
# 3 60.3657 44.1554 146.7831 0.0000 0.0000 0.0000
# 4 0.0000 0.0000 0.0000 -3.9958 0.0000 0.0000
# 5 0.0000 0.0000 0.0000 0.0000 34.4841 0.0000
# 6 0.0000 0.0000 0.0000 0.0000 0.0000 16.2965
#
#
#
# Elastic Compliance Matrix: (Units=1/GPa)
#
#
# Indices 1 2 3 4 5 6 
#
# 1 0.008559 -0.001122 -0.003182 0.000000 0.000000 0.000000
# 2 -0.001122 0.032573 -0.009337 0.000000 0.000000 0.000000
# 3 -0.003182 -0.009337 0.010930 0.000000 0.000000 0.000000
# 4 0.000000 0.000000 0.000000 -0.250264 0.000000 0.000000
# 5 0.000000 0.000000 0.000000 0.000000 0.028999 0.000000
# 6 0.000000 0.000000 0.000000 0.000000 0.000000 0.061363
#
#
# Mechanical properties :
#
#
# Convention : Reuss Voigt Hill
#
# Bulk Modulus (GPa) = 40.35612 65.17145 52.76378
# Shear Modulus (GPa) = -69.15896 23.11548 -23.02174
#
# Velocity S-wave (km/s) = -6.00633 3.47245 -3.46540
# Velocity P-wave (km/s) = 5.20096 7.07624 3.39287
#
# Compressibility (1/GPa) = 0.02477939
#
# Stress axis : x y z
#
# Youngs Moduli (GPa) = 116.83872 30.70025 91.48731
#
# Poissons Ratio (x) = 0.03443 0.29116
# Poissons Ratio (y) = 0.13105 0.85425
# Poissons Ratio (z) = 0.37184 0.28666
#
# Static dielectric constant tensor:
#      x y z
#    x 1.770160 0.000000 0.000000 
#    y 0.000000 1.674320 0.000000 
#    z 0.000000 0.000000 1.676770 
# 
# From -- ./inp_files/47961.got.cif
#   From: 2010.05.17/outbox.cif.g08.bks.cpg/sg22_24_cif.got.tgz:47961.got - 2010.06.03 23:40:54.
