data_PCOD9326323
_publ_section_title
;
Structure prediction by ZEFSAII (Michael W. Deem and Ramdas Pophale) SiO2 
 PCOD9326323
Probable space group: F 2 2 2
;
_chemical_formula_sum "Si O2"
_cell_formula_units_Z 72
_cell_length_a 8.205114
_cell_length_b 13.413463
_cell_length_c 25.537258
_cell_angle_alpha 90.000000
_cell_angle_beta 90.000000
_cell_angle_gamma 90.000000
_cell_volume 2810.604901
_symmetry_space_group_name_H-M "F 2 2 2"
_symmetry_group_IT_number 22
_symmetry_cell_setting 'orthorhombic'
loop_
_space_group_symop_operation_xyz
x,y,z
-x,-y,z
x,-y,-z
-x,y,-z
x,1/2+y,1/2+z
-x,1/2-y,1/2+z
x,1/2-y,1/2-z
-x,1/2+y,1/2-z
1/2+x,y,1/2+z
1/2-x,-y,1/2+z
1/2+x,-y,1/2-z
1/2-x,y,1/2-z
1/2+x,1/2+y,z
1/2-x,1/2-y,z
1/2+x,1/2-y,-z
1/2-x,1/2+y,-z
loop_
_atom_site_type_symbol
_atom_site_label
_atom_site_fract_x
_atom_site_fract_y
_atom_site_fract_z
Si Si1 0.046115 0.147475 0.103683
Si Si2 0.250000 0.520502 0.250000
Si Si3 0.533558 0.647768 0.221291
Si Si4 0.886156 0.125831 0.571556
Si Si5 0.267118 0.370146 0.546748
O O1 0.974973 0.165169 0.162025
O O2 0.082497 0.255542 0.078725
O O3 0.227619 0.100981 0.105698
O O4 0.907152 0.096230 0.068577
O O5 0.399131 0.595765 0.258494
O O6 0.330772 0.437781 0.212690
O O7 0.579641 0.750000 0.250000
O O8 0.816993 0.108025 0.512998
O O9 0.073960 0.090548 0.577974
O O10 0.250000 0.250000 0.550677
#
# Coordination Sequence:
#
# PCOD9326323 Si02
#       5
#    16   8  16  16  16
#     4  10  19  31  57  91 128 182 233 281 358 438
#     4  10  26  48  68 100 146 178 242 318 372 426
#     4  11  25  46  73 101 142 189 242 308 380 442
#     4   9  17  26  48  89 134 175 224 288 345 424
#     4   9  15  28  45  81 144 172 213 302 340 412
#
# _framework density 25.617259000000001
#
# number of rings (size 3 to 8) (size 9 to 14) (size 15 to 20)
#    0.000    2.222    2.222    1.333    6.222    5.333 
#    4.000    0.000    0.000    0.000    0.000   12.444 
#    0.000   17.778    0.000    0.000    0.000    0.000 
#
# Total GULP energy -100241.452459 kJ/mol
# GULP energy per Si atom -5568.969581 kJ/mol
# Density = 2.555895 g / cm^3
# Si number density = 25.617259 Si / 1000 Ang^3
#
#
#
# Elastic Constant Matrix: (Units=GPa)
#
#
# Indices 1 2 3 4 5 6 
#
# 1 209.5885 39.4863 54.9724 0.0000 0.0000 0.0000
# 2 39.4863 139.8160 21.6903 0.0000 0.0000 0.0000
# 3 54.9724 21.6903 69.2695 0.0000 0.0000 0.0000
# 4 0.0000 0.0000 0.0000 -42.6632 0.0000 0.0000
# 5 0.0000 0.0000 0.0000 0.0000 12.7916 0.0000
# 6 0.0000 0.0000 0.0000 0.0000 0.0000 25.9487
#
#
#
# Elastic Compliance Matrix: (Units=1/GPa)
#
#
# Indices 1 2 3 4 5 6 
#
# 1 0.006164 -0.001032 -0.004569 0.000000 0.000000 0.000000
# 2 -0.001032 0.007690 -0.001589 0.000000 0.000000 0.000000
# 3 -0.004569 -0.001589 0.018560 0.000000 0.000000 0.000000
# 4 0.000000 0.000000 0.000000 -0.023439 0.000000 0.000000
# 5 0.000000 0.000000 0.000000 0.000000 0.078176 0.000000
# 6 0.000000 0.000000 0.000000 0.000000 0.000000 0.038538
#
#
# Mechanical properties :
#
#
# Convention : Reuss Voigt Hill
#
# Bulk Modulus (GPa) = 55.44921 72.33022 63.88971
# Shear Modulus (GPa) = 34.22809 19.38376 26.80592
#
# Velocity S-wave (km/s) = 3.65928 2.75374 3.23832
# Velocity P-wave (km/s) = 6.28856 6.19734 6.24312
#
# Compressibility (1/GPa) = 0.01803452
#
# Stress axis : x y z
#
# Youngs Moduli (GPa) = 162.23302 130.03504 53.88055
#
# Poissons Ratio (x) = 0.13420 0.24616
# Poissons Ratio (y) = 0.16743 0.08562
# Poissons Ratio (z) = 0.74117 0.20662
#
# Static dielectric constant tensor:
#      x y z
#    x 2.404320 0.000000 0.000000 
#    y 0.000000 2.076700 0.000000 
#    z 0.000000 0.000000 2.010950 
# 
# From -- ./inp_files/51679.got.cif
#   From: 2010.05.17/outbox.cif.g08.bks.cpg/sg22_26_cif.got.tgz:51679.got - 2010.06.03 23:40:54.
