data_PCOD9326192
_publ_section_title
;
Structure prediction by ZEFSAII (Michael W. Deem and Ramdas Pophale) SiO2 
 PCOD9326192
Probable space group: F 2 2 2
;
_chemical_formula_sum "Si O2"
_cell_formula_units_Z 116
_cell_length_a 8.603802
_cell_length_b 25.364707
_cell_length_c 24.784402
_cell_angle_alpha 90.000000
_cell_angle_beta 90.000000
_cell_angle_gamma 90.000000
_cell_volume 5408.772340
_symmetry_space_group_name_H-M "F 2 2 2"
_symmetry_group_IT_number 22
_symmetry_cell_setting 'orthorhombic'
loop_
_space_group_symop_operation_xyz
x,y,z
-x,-y,z
x,-y,-z
-x,y,-z
x,1/2+y,1/2+z
-x,1/2-y,1/2+z
x,1/2-y,1/2-z
-x,1/2+y,1/2-z
1/2+x,y,1/2+z
1/2-x,-y,1/2+z
1/2+x,-y,1/2-z
1/2-x,y,1/2-z
1/2+x,1/2+y,z
1/2-x,1/2-y,z
1/2+x,1/2-y,-z
1/2-x,1/2+y,-z
loop_
_atom_site_type_symbol
_atom_site_label
_atom_site_fract_x
_atom_site_fract_y
_atom_site_fract_z
Si Si1 0.168754 0.020268 0.087062
Si Si2 0.178056 0.121862 0.408457
Si Si3 0.594481 0.948694 0.861283
Si Si4 0.667018 0.127039 0.300920
Si Si5 0.750000 0.250000 0.750000
Si Si6 0.579971 0.771606 0.054067
Si Si7 0.567046 0.697051 0.151552
Si Si8 0.103346 0.450472 0.287708
O O1 0.233455 0.073982 0.061039
O O2 0.146933 0.038945 0.149849
O O3 0.298229 0.974224 0.090913
O O4 0.000000 0.000000 0.068812
O O5 0.089689 0.165624 0.442916
O O6 0.305483 0.156377 0.374548
O O7 0.040912 0.092407 0.375837
O O8 0.718736 0.918146 0.824045
O O9 0.500000 0.000000 0.840676
O O10 0.750000 0.152632 0.250000
O O11 0.598576 0.168272 0.342746
O O12 0.508773 0.098900 0.282286
O O13 0.640921 0.283150 0.791685
O O14 0.750000 0.750000 0.047282
O O15 0.535613 0.746022 0.111448
O O16 0.500000 0.753005 0.000000
O O17 0.250000 0.445236 0.250000
O O18 0.000000 0.500000 0.272323
#
# Coordination Sequence:
#
# PCOD9326192 Si02
#       8
#    16  16  16  16   4  16  16  16
#     4  10  18  35  55  85 128 174 218 269 326 392
#     4  10  20  39  65  93 125 173 227 265 342 404
#     4  10  22  36  54  85 129 174 223 274 332 395
#     4  12  26  34  53  89 130 181 233 276 340 398
#     4  12  24  44  70  92 136 188 226 274 352 428
#     4  10  23  47  74 103 126 168 226 292 351 396
#     4  11  24  44  66  95 133 179 229 279 345 422
#     4  11  22  32  48  76 124 177 230 281 310 391
#
# _framework density 21.446641
#
# number of rings (size 3 to 8) (size 9 to 14) (size 15 to 20)
#    0.000    1.379    6.207    0.414    6.759    1.103 
#    0.000    1.724    0.000    3.724    0.000    0.966 
#    0.000    0.552    0.000    0.000    0.000    0.000 
#
# Total GULP energy -161733.553738 kJ/mol
# GULP energy per Si atom -5577.019094 kJ/mol
# Density = 2.139783 g / cm^3
# Si number density = 21.446641 Si / 1000 Ang^3
#
#
#
# Elastic Constant Matrix: (Units=GPa)
#
#
# Indices 1 2 3 4 5 6 
#
# 1 104.3230 40.3174 20.1118 0.0000 0.0000 0.0000
# 2 40.3174 100.6326 28.3570 0.0000 0.0000 0.0000
# 3 20.1118 28.3570 55.5639 0.0000 0.0000 0.0000
# 4 0.0000 0.0000 0.0000 -1.2169 0.0000 0.0000
# 5 0.0000 0.0000 0.0000 0.0000 -262.5222 0.0000
# 6 0.0000 0.0000 0.0000 0.0000 0.0000 39.0806
#
#
#
# Elastic Compliance Matrix: (Units=1/GPa)
#
#
# Indices 1 2 3 4 5 6 
#
# 1 0.011553 -0.004030 -0.002125 0.000000 0.000000 0.000000
# 2 -0.004030 0.013012 -0.005182 0.000000 0.000000 0.000000
# 3 -0.002125 -0.005182 0.021411 0.000000 0.000000 0.000000
# 4 0.000000 0.000000 0.000000 -0.821780 0.000000 0.000000
# 5 0.000000 0.000000 0.000000 0.000000 -0.003809 0.000000
# 6 0.000000 0.000000 0.000000 0.000000 0.000000 0.025588
#
#
# Mechanical properties :
#
#
# Convention : Reuss Voigt Hill
#
# Bulk Modulus (GPa) = 42.91445 48.67687 45.79566
# Shear Modulus (GPa) = -6.91004 -33.48282 -20.19643
#
# Velocity S-wave (km/s) = -1.79693 -3.95551 -3.07205
# Velocity P-wave (km/s) = 3.96838 1.37281 2.96923
#
# Compressibility (1/GPa) = 0.02330217
#
# Stress axis : x y z
#
# Youngs Moduli (GPa) = 86.56055 76.85342 46.70470
#
# Poissons Ratio (x) = 0.30969 0.09925
# Poissons Ratio (y) = 0.34881 0.24202
# Poissons Ratio (z) = 0.18395 0.39825
#
# Static dielectric constant tensor:
#      x y z
#    x 1.765010 0.000000 0.000000 
#    y 0.000000 2.416540 0.000000 
#    z 0.000000 0.000000 1.679500 
# 
# From -- ./inp_files/52136.got.cif
#   From: 2010.05.17/outbox.cif.g08.bks.cpg/sg22_27_cif.got.tgz:52136.got - 2010.06.03 23:40:54.
