data_PCOD9326015
_publ_section_title
;
Structure prediction by ZEFSAII (Michael W. Deem and Ramdas Pophale) SiO2 
 PCOD9326015
Probable space group: F 2 2 2
;
_chemical_formula_sum "Si O2"
_cell_formula_units_Z 104
_cell_length_a 22.545177
_cell_length_b 8.401553
_cell_length_c 27.885069
_cell_angle_alpha 90.000000
_cell_angle_beta 90.000000
_cell_angle_gamma 90.000000
_cell_volume 5281.836387
_symmetry_space_group_name_H-M "F 2 2 2"
_symmetry_group_IT_number 22
_symmetry_cell_setting 'orthorhombic'
loop_
_space_group_symop_operation_xyz
x,y,z
-x,-y,z
x,-y,-z
-x,y,-z
x,1/2+y,1/2+z
-x,1/2-y,1/2+z
x,1/2-y,1/2-z
-x,1/2+y,1/2-z
1/2+x,y,1/2+z
1/2-x,-y,1/2+z
1/2+x,-y,1/2-z
1/2-x,y,1/2-z
1/2+x,1/2+y,z
1/2-x,1/2-y,z
1/2+x,1/2-y,-z
1/2-x,1/2+y,-z
loop_
_atom_site_type_symbol
_atom_site_label
_atom_site_fract_x
_atom_site_fract_y
_atom_site_fract_z
Si Si1 0.816861 0.314696 0.329457
Si Si2 0.077461 0.174575 0.358494
Si Si3 0.600414 0.500000 0.500000
Si Si4 0.387014 0.655433 0.409947
Si Si5 0.812396 0.683430 0.304145
Si Si6 0.000000 0.500000 0.782154
Si Si7 0.409330 0.250000 0.750000
Si Si8 0.484875 0.743046 0.949023
O O1 0.750000 0.250000 0.326762
O O2 0.845274 0.276471 0.381448
O O3 0.813216 0.494584 0.310488
O O4 0.865116 0.233973 0.294639
O O5 0.133118 0.251737 0.333722
O O6 0.029127 0.130303 0.317948
O O7 0.053180 0.290421 0.400854
O O8 0.098612 0.003207 0.379287
O O9 0.637992 0.403909 0.461154
O O10 0.555674 0.613232 0.470322
O O11 0.451305 0.722648 0.425346
O O12 0.817773 0.750000 0.250000
O O13 0.750000 0.750000 0.322951
O O14 0.048773 0.406063 0.751004
O O15 0.500000 0.659251 0.000000
#
# Coordination Sequence:
#
# PCOD9326015 Si02
#       8
#    16  16   8  16  16   8   8  16
#     4  12  26  44  67  92 128 180 232 278 326 397
#     4  11  18  37  59  91 128 167 209 266 330 402
#     4   8  15  28  64 102 132 166 216 265 334 409
#     4  10  17  35  62  96 125 166 217 270 326 398
#     4  11  27  43  63  88 126 181 238 284 331 389
#     4  12  24  38  59  92 132 174 201 270 342 394
#     4  12  27  40  62  92 135 166 218 272 334 408
#     4   9  15  29  60  96 128 165 208 262 332 404
#
# _framework density 19.690121000000001
#
# number of rings (size 3 to 8) (size 9 to 14) (size 15 to 20)
#    0.000    1.385    3.077    6.000    7.538    0.000 
#    0.000    0.000    0.000   24.923    0.000    0.000 
#    0.000    0.000    0.000    0.000    0.000    0.000 
#
# Total GULP energy -144782.206593 kJ/mol
# GULP energy per Si atom -5568.546407 kJ/mol
# Density = 1.964531 g / cm^3
# Si number density = 19.690121 Si / 1000 Ang^3
#
#
#
# Elastic Constant Matrix: (Units=GPa)
#
#
# Indices 1 2 3 4 5 6 
#
# 1 127.3157 42.8796 68.9619 -0.0001 0.0000 0.0000
# 2 42.8796 77.6345 36.4041 -0.0001 -0.0001 0.0000
# 3 68.9619 36.4041 119.5189 0.0000 0.0000 0.0000
# 4 -0.0001 -0.0001 0.0000 131.8229 0.0001 0.0001
# 5 0.0000 -0.0001 0.0000 0.0001 -39.8369 0.0000
# 6 0.0000 0.0000 0.0000 0.0001 0.0000 -6.0522
#
#
#
# Elastic Compliance Matrix: (Units=1/GPa)
#
#
# Indices 1 2 3 4 5 6 
#
# 1 0.012448 -0.004092 -0.005936 0.000000 0.000000 0.000000
# 2 -0.004092 0.016372 -0.002626 0.000000 0.000000 0.000000
# 3 -0.005936 -0.002626 0.012592 0.000000 0.000000 0.000000
# 4 0.000000 0.000000 0.000000 0.007586 0.000000 0.000000
# 5 0.000000 0.000000 0.000000 0.000000 -0.025102 0.000000
# 6 0.000000 0.000000 0.000000 0.000000 0.000000 -0.165228
#
#
# Mechanical properties :
#
#
# Convention : Reuss Voigt Hill
#
# Bulk Modulus (GPa) = 62.09460 68.99557 65.54509
# Shear Modulus (GPa) = -45.18475 28.93498 -8.12488
#
# Velocity S-wave (km/s) = -4.79560 3.83759 -2.03355
# Velocity P-wave (km/s) = 0.96991 7.39952 5.27701
#
# Compressibility (1/GPa) = 0.01610446
#
# Stress axis : x y z
#
# Youngs Moduli (GPa) = 80.33456 61.07922 79.41696
#
# Poissons Ratio (x) = 0.24992 0.47143
# Poissons Ratio (y) = 0.32871 0.20854
# Poissons Ratio (z) = 0.47687 0.16038
#
# Static dielectric constant tensor:
#      x y z
#    x 1.665710 0.000000 0.000000 
#    y 0.000000 1.773280 0.000000 
#    z 0.000000 0.000000 1.780530 
# 
# From -- ./inp_files/53945.got.cif
#   From: 2010.05.17/outbox.cif.g08.bks.cpg/sg22_27_cif.got.tgz:53945.got - 2010.06.03 23:40:54.
