data_PCOD9326890
_publ_section_title
;
Structure prediction by ZEFSAII (Michael W. Deem and Ramdas Pophale) SiO2 
 PCOD9326890
Probable space group: F 2 2 2
;
_chemical_formula_sum "Si O2"
_cell_formula_units_Z 88
_cell_length_a 5.419069
_cell_length_b 31.801508
_cell_length_c 24.993144
_cell_angle_alpha 90.000000
_cell_angle_beta 90.000000
_cell_angle_gamma 90.000000
_cell_volume 4307.182628
_symmetry_space_group_name_H-M "F 2 2 2"
_symmetry_group_IT_number 22
_symmetry_cell_setting 'orthorhombic'
loop_
_space_group_symop_operation_xyz
x,y,z
-x,-y,z
x,-y,-z
-x,y,-z
x,1/2+y,1/2+z
-x,1/2-y,1/2+z
x,1/2-y,1/2-z
-x,1/2+y,1/2-z
1/2+x,y,1/2+z
1/2-x,-y,1/2+z
1/2+x,-y,1/2-z
1/2-x,y,1/2-z
1/2+x,1/2+y,z
1/2-x,1/2-y,z
1/2+x,1/2-y,-z
1/2-x,1/2+y,-z
loop_
_atom_site_type_symbol
_atom_site_label
_atom_site_fract_x
_atom_site_fract_y
_atom_site_fract_z
Si Si1 0.005568 0.827705 0.719451
Si Si2 0.271917 0.598973 0.830884
Si Si3 0.974648 0.381046 0.940778
Si Si4 0.657776 0.797099 0.446884
Si Si5 0.824585 0.338371 0.368041
Si Si6 0.750000 0.473991 0.750000
O O1 0.750000 0.819809 0.750000
O O2 0.911741 0.816249 0.659598
O O3 0.250000 0.810613 0.750000
O O4 0.069330 0.876355 0.705427
O O5 0.174415 0.596424 0.892222
O O6 0.503629 0.631395 0.831384
O O7 0.311442 0.555426 0.801305
O O8 0.850234 0.335263 0.947708
O O9 0.236419 0.369854 0.914629
O O10 0.000000 0.400395 0.000000
O O11 0.500000 0.803194 0.500000
O O12 0.750000 0.750000 0.448196
O O13 0.495733 0.803830 0.394121
O O14 0.500000 0.500000 0.738840
#
# Coordination Sequence:
#
# PCOD9326890 Si02
#       6
#    16  16  16  16  16   8
#     4  11  19  34  62  88 125 156 210 268 321 376
#     4  10  22  38  62  95 133 166 214 270 321 398
#     4  10  20  36  61  91 127 177 228 271 316 389
#     4  11  22  35  54  91 139 176 216 278 341 393
#     4  10  21  36  60  90 132 167 227 268 325 390
#     4  12  28  42  68 104 139 162 199 276 354 412
#
# _framework density 20.430987999999999
#
# number of rings (size 3 to 8) (size 9 to 14) (size 15 to 20)
#    0.000    1.455    4.545    0.545    6.364    0.000 
#    0.000    0.000    0.000    0.545    0.000   82.727 
#    0.000    0.000    0.000    0.000    0.000    0.000 
#
# Total GULP energy -122518.131401 kJ/mol
# GULP energy per Si atom -5569.005973 kJ/mol
# Density = 2.038449 g / cm^3
# Si number density = 20.430988 Si / 1000 Ang^3
#
#
#
# Elastic Constant Matrix: (Units=GPa)
#
#
# Indices 1 2 3 4 5 6 
#
# 1 108.5908 17.9391 41.6145 0.0000 0.0000 0.0000
# 2 17.9391 55.0668 24.5372 0.0000 0.0000 0.0000
# 3 41.6145 24.5372 132.3518 0.0000 0.0000 0.0000
# 4 0.0000 0.0000 0.0000 14.7604 0.0000 0.0000
# 5 0.0000 0.0000 0.0000 0.0000 60.6945 0.0000
# 6 0.0000 0.0000 0.0000 0.0000 0.0000 5.5286
#
#
#
# Elastic Compliance Matrix: (Units=1/GPa)
#
#
# Indices 1 2 3 4 5 6 
#
# 1 0.010702 -0.002166 -0.002964 0.000000 0.000000 0.000000
# 2 -0.002166 0.020233 -0.003070 0.000000 0.000000 0.000000
# 3 -0.002964 -0.003070 0.009057 0.000000 0.000000 0.000000
# 4 0.000000 0.000000 0.000000 0.067749 0.000000 0.000000
# 5 0.000000 0.000000 0.000000 0.000000 0.016476 0.000000
# 6 0.000000 0.000000 0.000000 0.000000 0.000000 0.180877
#
#
# Mechanical properties :
#
#
# Convention : Reuss Voigt Hill
#
# Bulk Modulus (GPa) = 42.38523 51.57679 46.98101
# Shear Modulus (GPa) = 15.18104 30.32460 22.75282
#
# Velocity S-wave (km/s) = 2.72883 3.85677 3.34075
# Velocity P-wave (km/s) = 5.54250 6.71804 6.15838
#
# Compressibility (1/GPa) = 0.02359312
#
# Stress axis : x y z
#
# Youngs Moduli (GPa) = 93.43702 49.42327 110.41679
#
# Poissons Ratio (x) = 0.10705 0.32722
# Poissons Ratio (y) = 0.20239 0.33899
# Poissons Ratio (z) = 0.27690 0.15173
#
# Static dielectric constant tensor:
#      x y z
#    x 1.857110 0.000000 0.000000 
#    y 0.000000 1.664720 0.000000 
#    z 0.000000 0.000000 1.894710 
# 
# From -- ./inp_files/46677.got.cif
#   From: 2010.05.17/outbox.cif.g08.bks.cpg/sg22_24_cif.got.tgz:46677.got - 2010.06.03 23:40:54.
