data_PCOD9326708
_publ_section_title
;
Structure prediction by ZEFSAII (Michael W. Deem and Ramdas Pophale) SiO2 
 PCOD9326708
Probable space group: F 2 2 2
;
_chemical_formula_sum "Si O2"
_cell_formula_units_Z 120
_cell_length_a 14.675935
_cell_length_b 20.547915
_cell_length_c 19.027229
_cell_angle_alpha 90.000000
_cell_angle_beta 90.000000
_cell_angle_gamma 90.000000
_cell_volume 5737.848607
_symmetry_space_group_name_H-M "F 2 2 2"
_symmetry_group_IT_number 22
_symmetry_cell_setting 'orthorhombic'
loop_
_space_group_symop_operation_xyz
x,y,z
-x,-y,z
x,-y,-z
-x,y,-z
x,1/2+y,1/2+z
-x,1/2-y,1/2+z
x,1/2-y,1/2-z
-x,1/2+y,1/2-z
1/2+x,y,1/2+z
1/2-x,-y,1/2+z
1/2+x,-y,1/2-z
1/2-x,y,1/2-z
1/2+x,1/2+y,z
1/2-x,1/2-y,z
1/2+x,1/2-y,-z
1/2-x,1/2+y,-z
loop_
_atom_site_type_symbol
_atom_site_label
_atom_site_fract_x
_atom_site_fract_y
_atom_site_fract_z
Si Si1 0.846821 0.282570 0.069420
Si Si2 0.935896 0.400900 0.120770
Si Si3 0.229838 0.917464 0.607607
Si Si4 0.613093 0.000000 0.000000
Si Si5 0.498314 0.185095 0.414641
Si Si6 0.846839 0.008952 0.270309
Si Si7 0.567432 0.947051 0.369034
Si Si8 0.107263 0.190959 0.410875
O O1 0.750000 0.250000 0.057937
O O2 0.854080 0.348437 0.113829
O O3 0.911232 0.226429 0.099892
O O4 0.890140 0.305238 0.995429
O O5 0.934772 0.452247 0.056511
O O6 0.915308 0.443290 0.189251
O O7 0.027684 0.357967 0.115925
O O8 0.175343 0.950957 0.544539
O O9 0.336098 0.930013 0.595144
O O10 0.201312 0.842144 0.611654
O O11 0.190451 0.953621 0.676346
O O12 0.500000 0.172182 0.500000
O O13 0.488090 0.119824 0.370895
O O14 0.418063 0.235241 0.392971
O O15 0.750000 0.042487 0.250000
O O16 0.898418 0.976594 0.204970
O O17 0.500000 0.000000 0.402448
#
# Coordination Sequence:
#
# PCOD9326708 Si02
#       8
#    16  16  16   8  16  16  16  16
#     4  10  21  37  63  97 138 166 206 265 334 414
#     4  10  20  37  62  97 130 167 215 273 332 389
#     4  10  22  36  61  95 128 165 216 265 336 394
#     4  10  20  31  61  98 132 156 201 268 338 391
#     4   9  22  39  62  92 125 168 210 262 329 397
#     4   9  22  42  62  90 125 173 224 275 319 384
#     4  11  25  43  62  85 130 178 222 268 330 396
#     4  10  21  37  61  99 131 160 212 271 339 399
#
# _framework density 20.913761000000001
#
# number of rings (size 3 to 8) (size 9 to 14) (size 15 to 20)
#    0.000    2.133    1.333    1.200    5.600    6.667 
#    0.000    0.667    0.000    4.400    0.000    0.000 
#    0.000    0.000    0.000    0.000    0.000    0.000 
#
# Total GULP energy -167352.713521 kJ/mol
# GULP energy per Si atom -5578.423784 kJ/mol
# Density = 2.086616 g / cm^3
# Si number density = 20.913761 Si / 1000 Ang^3
#
#
#
# Elastic Constant Matrix: (Units=GPa)
#
#
# Indices 1 2 3 4 5 6 
#
# 1 105.9090 54.8971 15.7372 0.0000 0.0000 0.0000
# 2 54.8971 144.6606 24.0102 0.0000 0.0000 0.0000
# 3 15.7372 24.0102 43.7567 0.0000 0.0000 0.0000
# 4 0.0000 0.0000 0.0000 19.8105 0.0000 0.0000
# 5 0.0000 0.0000 0.0000 0.0000 19.2380 0.0000
# 6 0.0000 0.0000 0.0000 0.0000 0.0000 40.1667
#
#
#
# Elastic Compliance Matrix: (Units=1/GPa)
#
#
# Indices 1 2 3 4 5 6 
#
# 1 0.011909 -0.004190 -0.001984 0.000000 0.000000 0.000000
# 2 -0.004190 0.009080 -0.003475 0.000000 0.000000 0.000000
# 3 -0.001984 -0.003475 0.025474 0.000000 0.000000 0.000000
# 4 0.000000 0.000000 0.000000 0.050478 0.000000 0.000000
# 5 0.000000 0.000000 0.000000 0.000000 0.051981 0.000000
# 6 0.000000 0.000000 0.000000 0.000000 0.000000 0.024896
#
#
# Mechanical properties :
#
#
# Convention : Reuss Voigt Hill
#
# Bulk Modulus (GPa) = 36.81313 53.73505 45.27409
# Shear Modulus (GPa) = 24.73165 29.15516 26.94340
#
# Velocity S-wave (km/s) = 3.44256 3.73777 3.59320
# Velocity P-wave (km/s) = 5.78292 6.66163 6.23777
#
# Compressibility (1/GPa) = 0.02716422
#
# Stress axis : x y z
#
# Youngs Moduli (GPa) = 83.97238 110.13740 39.25562
#
# Poissons Ratio (x) = 0.46147 0.07788
# Poissons Ratio (y) = 0.35184 0.13642
# Poissons Ratio (z) = 0.16659 0.38275
#
# Static dielectric constant tensor:
#      x y z
#    x 1.806420 0.000000 0.000000 
#    y 0.000000 1.745400 0.000000 
#    z 0.000000 0.000000 1.772030 
# 
# From -- ./inp_files/43767.got.cif
#   From: 2010.05.17/outbox.cif.g08.bks.cpg/sg22_22_cif.got.tgz:43767.got - 2010.06.03 23:40:54.
