data_PCOD9326896
_publ_section_title
;
Structure prediction by ZEFSAII (Michael W. Deem and Ramdas Pophale) SiO2 
 PCOD9326896
Probable space group: F 2 2 2
;
_chemical_formula_sum "Si O2"
_cell_formula_units_Z 80
_cell_length_a 10.900322
_cell_length_b 10.449054
_cell_length_c 27.941436
_cell_angle_alpha 90.000000
_cell_angle_beta 90.000000
_cell_angle_gamma 90.000000
_cell_volume 3182.475164
_symmetry_space_group_name_H-M "F 2 2 2"
_symmetry_group_IT_number 22
_symmetry_cell_setting 'orthorhombic'
loop_
_space_group_symop_operation_xyz
x,y,z
-x,-y,z
x,-y,-z
-x,y,-z
x,1/2+y,1/2+z
-x,1/2-y,1/2+z
x,1/2-y,1/2-z
-x,1/2+y,1/2-z
1/2+x,y,1/2+z
1/2-x,-y,1/2+z
1/2+x,-y,1/2-z
1/2-x,y,1/2-z
1/2+x,1/2+y,z
1/2-x,1/2-y,z
1/2+x,1/2-y,-z
1/2-x,1/2+y,-z
loop_
_atom_site_type_symbol
_atom_site_label
_atom_site_fract_x
_atom_site_fract_y
_atom_site_fract_z
Si Si1 0.719987 0.446695 0.600992
Si Si2 0.300260 0.534148 0.801477
Si Si3 0.459325 0.761119 0.592414
Si Si4 0.322495 0.130243 0.531019
Si Si5 0.974506 0.703582 0.696291
O O1 0.699425 0.456024 0.657682
O O2 0.611310 0.366871 0.577654
O O3 0.849543 0.366913 0.598793
O O4 0.740753 0.580234 0.575448
O O5 0.250000 0.506422 0.750000
O O6 0.389027 0.417780 0.814576
O O7 0.385005 0.658503 0.797675
O O8 0.551795 0.818587 0.553788
O O9 0.522625 0.731046 0.643935
O O10 0.250000 0.250000 0.508143
O O11 0.336253 0.000000 0.500000
O O12 0.937981 0.750000 0.750000
#
# Coordination Sequence:
#
# PCOD9326896 Si02
#       5
#    16  16  16  16  16
#     4  10  22  45  76 111 143 194 255 316 396 456
#     4  10  20  36  61  98 144 192 251 308 367 459
#     4  10  22  45  79 105 146 198 249 319 385 463
#     4  12  29  52  76 113 153 198 262 323 394 468
#     4  10  20  36  61  99 140 196 249 299 375 449
#
# _framework density 25.137665999999999
#
# number of rings (size 3 to 8) (size 9 to 14) (size 15 to 20)
#    0.000    1.600    2.000    1.800    2.800    6.400 
#    0.000    1.000    0.000    0.000    0.000    0.000 
#    0.000    0.000    0.000    0.000    0.000    0.000 
#
# Total GULP energy -111821.582038 kJ/mol
# GULP energy per Si atom -5591.079102 kJ/mol
# Density = 2.508045 g / cm^3
# Si number density = 25.137666 Si / 1000 Ang^3
#
#
#
# Elastic Constant Matrix: (Units=GPa)
#
#
# Indices 1 2 3 4 5 6 
#
# 1 85.3510 54.2302 50.3765 0.0000 0.0000 0.0000
# 2 54.2302 95.8822 47.8423 0.0000 0.0000 0.0000
# 3 50.3765 47.8423 141.6538 0.0000 0.0000 0.0000
# 4 0.0000 0.0000 0.0000 35.7374 0.0000 0.0000
# 5 0.0000 0.0000 0.0000 0.0000 26.3722 0.0000
# 6 0.0000 0.0000 0.0000 0.0000 0.0000 42.4120
#
#
#
# Elastic Compliance Matrix: (Units=1/GPa)
#
#
# Indices 1 2 3 4 5 6 
#
# 1 0.019975 -0.009325 -0.003954 0.000000 0.000000 0.000000
# 2 -0.009325 0.016896 -0.002390 0.000000 0.000000 0.000000
# 3 -0.003954 -0.002390 0.009273 0.000000 0.000000 0.000000
# 4 0.000000 0.000000 0.000000 0.027982 0.000000 0.000000
# 5 0.000000 0.000000 0.000000 0.000000 0.037919 0.000000
# 6 0.000000 0.000000 0.000000 0.000000 0.000000 0.023578
#
#
# Mechanical properties :
#
#
# Convention : Reuss Voigt Hill
#
# Bulk Modulus (GPa) = 67.54286 69.75388 68.64837
# Shear Modulus (GPa) = 29.08722 32.26686 30.67704
#
# Velocity S-wave (km/s) = 3.40533 3.58663 3.49716
# Velocity P-wave (km/s) = 6.51070 6.70529 6.60871
#
# Compressibility (1/GPa) = 0.01480541
#
# Stress axis : x y z
#
# Youngs Moduli (GPa) = 50.06275 59.18533 107.83849
#
# Poissons Ratio (x) = 0.55187 0.42644
# Poissons Ratio (y) = 0.46681 0.25778
# Poissons Ratio (z) = 0.19797 0.14148
#
# Static dielectric constant tensor:
#      x y z
#    x 2.007860 0.000000 0.000000 
#    y 0.000000 1.985840 0.000000 
#    z 0.000000 0.000000 2.051450 
# 
# From -- ./inp_files/55887.got.cif
#   From: 2010.05.17/outbox.cif.g08.bks.cpg/sg22_28_cif.got.tgz:55887.got - 2010.06.03 23:40:54.
