data_PCOD9326998
_publ_section_title
;
Structure prediction by ZEFSAII (Michael W. Deem and Ramdas Pophale) SiO2 
 PCOD9326998
Probable space group: F 2 2 2
;
_chemical_formula_sum "Si O2"
_cell_formula_units_Z 116
_cell_length_a 31.212496
_cell_length_b 9.603795
_cell_length_c 18.051171
_cell_angle_alpha 90.000000
_cell_angle_beta 90.000000
_cell_angle_gamma 90.000000
_cell_volume 5410.990372
_symmetry_space_group_name_H-M "F 2 2 2"
_symmetry_group_IT_number 22
_symmetry_cell_setting 'orthorhombic'
loop_
_space_group_symop_operation_xyz
x,y,z
-x,-y,z
x,-y,-z
-x,y,-z
x,1/2+y,1/2+z
-x,1/2-y,1/2+z
x,1/2-y,1/2-z
-x,1/2+y,1/2-z
1/2+x,y,1/2+z
1/2-x,-y,1/2+z
1/2+x,-y,1/2-z
1/2-x,y,1/2-z
1/2+x,1/2+y,z
1/2-x,1/2-y,z
1/2+x,1/2-y,-z
1/2-x,1/2+y,-z
loop_
_atom_site_type_symbol
_atom_site_label
_atom_site_fract_x
_atom_site_fract_y
_atom_site_fract_z
Si Si1 0.142211 0.887721 0.202181
Si Si2 0.322243 0.564442 0.674106
Si Si3 0.056382 0.098251 0.884900
Si Si4 0.799310 0.736570 0.899253
Si Si5 0.355846 0.649481 0.523349
Si Si6 0.952187 0.293008 0.983642
Si Si7 0.973078 0.206071 0.831757
Si Si8 0.250000 0.250000 0.250000
O O1 0.131703 0.750000 0.250000
O O2 0.104868 0.896544 0.141787
O O3 0.186146 0.852557 0.159860
O O4 0.148252 0.019103 0.256038
O O5 0.308554 0.413405 0.639980
O O6 0.347417 0.652288 0.611044
O O7 0.281482 0.652010 0.701580
O O8 0.048997 0.147229 0.969718
O O9 0.024696 0.204614 0.841486
O O10 0.041234 0.946450 0.859081
O O11 0.750000 0.750000 0.918081
O O12 0.828432 0.752552 0.972644
O O13 0.337965 0.500000 0.500000
O O14 0.405265 0.650732 0.497108
O O15 0.952230 0.298483 0.895019
O O16 0.000000 0.349084 0.000000
O O17 0.961250 0.250000 0.750000
#
# Coordination Sequence:
#
# PCOD9326998 Si02
#       8
#    16  16  16  16  16  16  16   4
#     4  10  20  37  64  92 117 161 216 268 313 379
#     4  10  24  38  62  92 128 170 202 271 334 388
#     4  10  20  39  61  87 125 171 214 260 321 389
#     4  10  20  40  69  90 118 159 229 269 311 382
#     4  10  22  41  61  92 125 164 211 271 323 378
#     4  10  21  40  64  88 126 173 218 259 321 388
#     4  10  22  37  59  93 126 166 212 270 319 381
#     4  12  24  44  58  88 140 168 194 250 356 412
#
# _framework density 21.437850000000001
#
# number of rings (size 3 to 8) (size 9 to 14) (size 15 to 20)
#    0.000    1.931    1.379    1.655    2.897    4.966 
#    0.000    0.000    0.000    0.000    0.000    0.000 
#    0.000    0.000    0.000    0.000    0.000    0.000 
#
# Total GULP energy -161467.760715 kJ/mol
# GULP energy per Si atom -5567.853818 kJ/mol
# Density = 2.138906 g / cm^3
# Si number density = 21.437850 Si / 1000 Ang^3
#
#
#
# Elastic Constant Matrix: (Units=GPa)
#
#
# Indices 1 2 3 4 5 6 
#
# 1 124.6917 6.8199 31.2777 0.0000 0.0000 0.0000
# 2 6.8199 31.2186 27.8504 0.0000 0.0000 0.0000
# 3 31.2777 27.8504 138.4959 0.0000 0.0000 0.0000
# 4 0.0000 0.0000 0.0000 19.2242 0.0000 0.0000
# 5 0.0000 0.0000 0.0000 0.0000 16.4106 0.0000
# 6 0.0000 0.0000 0.0000 0.0000 0.0000 14.6827
#
#
#
# Elastic Compliance Matrix: (Units=1/GPa)
#
#
# Indices 1 2 3 4 5 6 
#
# 1 0.008502 -0.000176 -0.001885 0.000000 0.000000 0.000000
# 2 -0.000176 0.039039 -0.007811 0.000000 0.000000 0.000000
# 3 -0.001885 -0.007811 0.009217 0.000000 0.000000 0.000000
# 4 0.000000 0.000000 0.000000 0.052018 0.000000 0.000000
# 5 0.000000 0.000000 0.000000 0.000000 0.060936 0.000000
# 6 0.000000 0.000000 0.000000 0.000000 0.000000 0.068107
#
#
# Mechanical properties :
#
#
# Convention : Reuss Voigt Hill
#
# Bulk Modulus (GPa) = 27.01617 47.36690 37.19154
# Shear Modulus (GPa) = 18.52540 25.29405 21.90972
#
# Velocity S-wave (km/s) = 2.94282 3.43866 3.20036
# Velocity P-wave (km/s) = 4.91695 6.15701 5.57159
#
# Compressibility (1/GPa) = 0.03701486
#
# Stress axis : x y z
#
# Youngs Moduli (GPa) = 117.61707 25.61571 108.49849
#
# Poissons Ratio (x) = 0.00451 0.20449
# Poissons Ratio (y) = 0.02070 0.84744
# Poissons Ratio (z) = 0.22168 0.20007
#
# Static dielectric constant tensor:
#      x y z
#    x 1.789130 0.000000 0.000000 
#    y 0.000000 1.833030 0.000000 
#    z 0.000000 0.000000 1.830890 
# 
# From -- ./inp_files/40419.got.cif
#   From: 2010.05.17/outbox.cif.g08.bks.cpg/sg22_21_cif.got.tgz:40419.got - 2010.06.03 23:40:54.
