data_PCOD9326021
_publ_section_title
;
Structure prediction by ZEFSAII (Michael W. Deem and Ramdas Pophale) SiO2 
 PCOD9326021
Probable space group: F 2 2 2
;
_chemical_formula_sum "Si O2"
_cell_formula_units_Z 88
_cell_length_a 17.613384
_cell_length_b 12.653625
_cell_length_c 18.916997
_cell_angle_alpha 90.000000
_cell_angle_beta 90.000000
_cell_angle_gamma 90.000000
_cell_volume 4216.090826
_symmetry_space_group_name_H-M "F 2 2 2"
_symmetry_group_IT_number 22
_symmetry_cell_setting 'orthorhombic'
loop_
_space_group_symop_operation_xyz
x,y,z
-x,-y,z
x,-y,-z
-x,y,-z
x,1/2+y,1/2+z
-x,1/2-y,1/2+z
x,1/2-y,1/2-z
-x,1/2+y,1/2-z
1/2+x,y,1/2+z
1/2-x,-y,1/2+z
1/2+x,-y,1/2-z
1/2-x,y,1/2-z
1/2+x,1/2+y,z
1/2-x,1/2-y,z
1/2+x,1/2-y,-z
1/2-x,1/2+y,-z
loop_
_atom_site_type_symbol
_atom_site_label
_atom_site_fract_x
_atom_site_fract_y
_atom_site_fract_z
Si Si1 0.307520 0.063038 0.314232
Si Si2 0.500000 0.736284 0.500000
Si Si3 0.786698 0.600747 0.471357
Si Si4 0.846100 0.303817 0.041062
Si Si5 0.475340 0.119975 0.361758
Si Si6 0.862044 0.321799 0.314901
O O1 0.250000 0.091293 0.250000
O O2 0.269038 0.089486 0.389407
O O3 0.392637 0.115403 0.323188
O O4 0.324175 0.937126 0.312362
O O5 0.568771 0.664617 0.526305
O O6 0.521487 0.810474 0.433122
O O7 0.833470 0.500000 0.500000
O O8 0.828328 0.710193 0.485382
O O9 0.715125 0.608382 0.524105
O O10 0.840795 0.244325 0.115301
O O11 0.546500 0.161194 0.315627
O O12 0.500000 0.000000 0.380038
O O13 0.839658 0.250000 0.250000
#
# Coordination Sequence:
#
# PCOD9326021 Si02
#       6
#    16   8  16  16  16  16
#     4  11  23  39  62  93 132 169 203 258 332 387
#     4  10  17  36  65  90 116 156 222 262 302 368
#     4  11  22  40  59  93 127 160 207 260 317 386
#     4  10  22  38  65  90 121 162 209 269 315 374
#     4   9  19  36  60  91 121 162 209 262 318 370
#     4  10  22  39  63  93 122 160 217 271 312 373
#
# _framework density 20.872416000000001
#
# number of rings (size 3 to 8) (size 9 to 14) (size 15 to 20)
#    0.000    1.818    3.636    0.273    2.545    0.364 
#    6.545    2.273    0.000    0.000    0.000    0.000 
#    0.000    0.000    0.000    0.000    0.000    0.000 
#
# Total GULP energy -122661.571154 kJ/mol
# GULP energy per Si atom -5575.525962 kJ/mol
# Density = 2.082491 g / cm^3
# Si number density = 20.872416 Si / 1000 Ang^3
#
#
#
# Elastic Constant Matrix: (Units=GPa)
#
#
# Indices 1 2 3 4 5 6 
#
# 1 131.0830 2.1527 38.6679 0.0000 0.0000 0.0000
# 2 2.1527 40.0723 13.6492 0.0000 0.0000 0.0000
# 3 38.6679 13.6492 129.5406 0.0000 0.0000 0.0000
# 4 0.0000 0.0000 0.0000 27.6655 0.0000 0.0000
# 5 0.0000 0.0000 0.0000 0.0000 32.7532 0.0000
# 6 0.0000 0.0000 0.0000 0.0000 0.0000 17.7574
#
#
#
# Elastic Compliance Matrix: (Units=1/GPa)
#
#
# Indices 1 2 3 4 5 6 
#
# 1 0.008372 0.000416 -0.002543 0.000000 0.000000 0.000000
# 2 0.000416 0.025905 -0.002854 0.000000 0.000000 0.000000
# 3 -0.002543 -0.002854 0.008779 0.000000 0.000000 0.000000
# 4 0.000000 0.000000 0.000000 0.036146 0.000000 0.000000
# 5 0.000000 0.000000 0.000000 0.000000 0.030531 0.000000
# 6 0.000000 0.000000 0.000000 0.000000 0.000000 0.056315
#
#
# Mechanical properties :
#
#
# Convention : Reuss Voigt Hill
#
# Bulk Modulus (GPa) = 30.21572 45.51505 37.86539
# Shear Modulus (GPa) = 26.73220 32.05029 29.39125
#
# Velocity S-wave (km/s) = 3.58263 3.92284 3.75659
# Velocity P-wave (km/s) = 5.62330 6.50937 6.08249
#
# Compressibility (1/GPa) = 0.03309535
#
# Stress axis : x y z
#
# Youngs Moduli (GPa) = 119.44504 38.60328 113.90370
#
# Poissons Ratio (x) = -0.01607 0.28965
# Poissons Ratio (y) = -0.04974 0.32505
# Poissons Ratio (z) = 0.30374 0.11016
#
# Static dielectric constant tensor:
#      x y z
#    x 1.896510 0.000000 0.000000 
#    y 0.000000 1.718340 0.000000 
#    z 0.000000 0.000000 1.742790 
# 
# From -- ./inp_files/37901.got.cif
#   From: 2010.05.17/outbox.cif.g08.bks.cpg/sg22_19_cif.got.tgz:37901.got - 2010.06.03 23:40:54.
