data_PCOD9326451
_publ_section_title
;
Structure prediction by ZEFSAII (Michael W. Deem and Ramdas Pophale) SiO2 
 PCOD9326451
Probable space group: F 2 2 2
;
_chemical_formula_sum "Si O2"
_cell_formula_units_Z 120
_cell_length_a 21.448698
_cell_length_b 11.547029
_cell_length_c 23.057223
_cell_angle_alpha 90.000000
_cell_angle_beta 90.000000
_cell_angle_gamma 90.000000
_cell_volume 5710.553318
_symmetry_space_group_name_H-M "F 2 2 2"
_symmetry_group_IT_number 22
_symmetry_cell_setting 'orthorhombic'
loop_
_space_group_symop_operation_xyz
x,y,z
-x,-y,z
x,-y,-z
-x,y,-z
x,1/2+y,1/2+z
-x,1/2-y,1/2+z
x,1/2-y,1/2-z
-x,1/2+y,1/2-z
1/2+x,y,1/2+z
1/2-x,-y,1/2+z
1/2+x,-y,1/2-z
1/2-x,y,1/2-z
1/2+x,1/2+y,z
1/2-x,1/2-y,z
1/2+x,1/2-y,-z
1/2-x,1/2+y,-z
loop_
_atom_site_type_symbol
_atom_site_label
_atom_site_fract_x
_atom_site_fract_y
_atom_site_fract_z
Si Si1 0.855895 0.537906 0.638342
Si Si2 0.785029 0.476098 0.109402
Si Si3 0.850626 0.269884 0.065424
Si Si4 0.179727 0.789047 0.564481
Si Si5 0.590685 0.250000 0.750000
Si Si6 0.483238 0.127215 0.932297
Si Si7 0.067570 0.183963 0.128678
Si Si8 0.821652 0.030830 0.736373
O O1 0.787948 0.492516 0.616720
O O2 0.861089 0.659609 0.605986
O O3 0.913145 0.451389 0.622690
O O4 0.847173 0.542275 0.708394
O O5 0.792402 0.350331 0.082059
O O6 0.817871 0.572163 0.069551
O O7 0.816601 0.473756 0.173103
O O8 0.910406 0.351186 0.073788
O O9 0.844203 0.242612 0.997288
O O10 0.250000 0.750000 0.573850
O O11 0.133840 0.743288 0.613591
O O12 0.551540 0.208843 0.695205
O O13 0.634943 0.142714 0.766023
O O14 0.518894 0.240800 0.908007
O O15 0.500000 0.000000 0.906888
O O16 0.500000 0.123043 0.000000
O O17 0.750000 0.064380 0.750000
#
# Coordination Sequence:
#
# PCOD9326451 Si02
#       8
#    16  16  16  16   8  16  16  16
#     4  10  23  41  60  97 135 170 212 267 329 406
#     4  11  21  38  64  97 130 174 216 266 330 392
#     4  12  26  41  62  91 135 175 215 265 333 401
#     4  12  22  37  63 100 131 168 212 274 328 386
#     4  10  19  34  64  94 128 158 215 278 320 376
#     4  11  25  46  69  92 120 165 227 277 320 392
#     4  11  22  42  65  95 129 168 216 270 328 378
#     4   9  19  33  61  91 129 171 210 258 320 390
#
# _framework density 21.013725999999998
#
# number of rings (size 3 to 8) (size 9 to 14) (size 15 to 20)
#    0.000    1.200    4.000    2.600    1.867    1.600 
#    0.000    4.000    0.000    0.000    0.000    0.000 
#    0.000    0.000    0.000    0.000    0.000    0.000 
#
# Total GULP energy -167419.282831 kJ/mol
# GULP energy per Si atom -5580.642761 kJ/mol
# Density = 2.096590 g / cm^3
# Si number density = 21.013726 Si / 1000 Ang^3
#
#
#
# Elastic Constant Matrix: (Units=GPa)
#
#
# Indices 1 2 3 4 5 6 
#
# 1 44.2332 -8.0277 -7.8982 0.0000 0.0000 0.0000
# 2 -8.0277 83.6928 21.6346 0.0000 0.0000 0.0000
# 3 -7.8982 21.6346 69.5032 0.0000 0.0000 0.0000
# 4 0.0000 0.0000 0.0000 31.7485 0.0000 0.0000
# 5 0.0000 0.0000 0.0000 0.0000 14.4598 0.0000
# 6 0.0000 0.0000 0.0000 0.0000 0.0000 -21.1012
#
#
#
# Elastic Compliance Matrix: (Units=1/GPa)
#
#
# Indices 1 2 3 4 5 6 
#
# 1 0.023292 0.001686 0.002122 0.000000 0.000000 0.000000
# 2 0.001686 0.013116 -0.003891 0.000000 0.000000 0.000000
# 3 0.002122 -0.003891 0.015840 0.000000 0.000000 0.000000
# 4 0.000000 0.000000 0.000000 0.031498 0.000000 0.000000
# 5 0.000000 0.000000 0.000000 0.000000 0.069157 0.000000
# 6 0.000000 0.000000 0.000000 0.000000 0.000000 -0.047391
#
#
# Mechanical properties :
#
#
# Convention : Reuss Voigt Hill
#
# Bulk Modulus (GPa) = 19.20054 23.20517 21.20285
# Shear Modulus (GPa) = 40.63709 17.80276 29.21993
#
# Velocity S-wave (km/s) = 4.40231 2.91382 3.73301
# Velocity P-wave (km/s) = 5.91586 4.73152 5.35653
#
# Compressibility (1/GPa) = 0.05208186
#
# Stress axis : x y z
#
# Youngs Moduli (GPa) = 42.93259 76.24279 63.13050
#
# Poissons Ratio (x) = -0.12851 -0.13398
# Poissons Ratio (y) = -0.07237 0.24565
# Poissons Ratio (z) = -0.09111 0.29667
#
# Static dielectric constant tensor:
#      x y z
#    x 1.744870 0.000000 0.000000 
#    y 0.000000 1.767610 0.000000 
#    z 0.000000 0.000000 1.832370 
# 
# From -- ./inp_files/45414.got.cif
#   From: 2010.05.17/outbox.cif.g08.bks.cpg/sg22_23_cif.got.tgz:45414.got - 2010.06.03 23:40:54.
