data_PCOD9326574
_publ_section_title
;
Structure prediction by ZEFSAII (Michael W. Deem and Ramdas Pophale) SiO2 
 PCOD9326574
Probable space group: F 2 2 2
;
_chemical_formula_sum "Si O2"
_cell_formula_units_Z 112
_cell_length_a 12.330354
_cell_length_b 29.052651
_cell_length_c 13.857109
_cell_angle_alpha 90.000000
_cell_angle_beta 90.000000
_cell_angle_gamma 90.000000
_cell_volume 4964.024833
_symmetry_space_group_name_H-M "F 2 2 2"
_symmetry_group_IT_number 22
_symmetry_cell_setting 'orthorhombic'
loop_
_space_group_symop_operation_xyz
x,y,z
-x,-y,z
x,-y,-z
-x,y,-z
x,1/2+y,1/2+z
-x,1/2-y,1/2+z
x,1/2-y,1/2-z
-x,1/2+y,1/2-z
1/2+x,y,1/2+z
1/2-x,-y,1/2+z
1/2+x,-y,1/2-z
1/2-x,y,1/2-z
1/2+x,1/2+y,z
1/2-x,1/2-y,z
1/2+x,1/2-y,-z
1/2-x,1/2+y,-z
loop_
_atom_site_type_symbol
_atom_site_label
_atom_site_fract_x
_atom_site_fract_y
_atom_site_fract_z
Si Si1 0.202798 0.684393 0.539803
Si Si2 0.470633 0.152553 0.826505
Si Si3 0.876775 0.502012 0.115277
Si Si4 0.228382 0.595312 0.143090
Si Si5 0.400834 0.238728 0.139400
Si Si6 0.926856 0.141559 0.097561
Si Si7 0.302337 0.896194 0.852110
O O1 0.309448 0.710871 0.578427
O O2 0.103030 0.711353 0.591026
O O3 0.162712 0.681081 0.430135
O O4 0.227947 0.632672 0.574986
O O5 0.371145 0.129232 0.884654
O O6 0.495245 0.205522 0.855558
O O7 0.466033 0.148181 0.708408
O O8 0.576821 0.123860 0.856195
O O9 0.816360 0.455980 0.146153
O O10 0.814449 0.549209 0.137802
O O11 0.000000 0.500000 0.154884
O O12 0.884396 0.500000 0.000000
O O13 0.250000 0.612846 0.250000
O O14 0.347996 0.596922 0.099181
O O15 0.370116 0.250000 0.250000
O O16 0.000000 0.137570 0.000000
O O17 0.250000 0.884620 0.750000
#
# Coordination Sequence:
#
# PCOD9326574 Si02
#       7
#    16  16  16  16  16  16  16
#     4  10  20  36  61  93 124 158 209 273 324 374
#     4  10  22  40  64  90 124 171 216 263 331 399
#     4  11  22  37  61  93 130 166 211 274 328 389
#     4  10  22  43  64  89 131 177 213 261 333 404
#     4  10  19  37  63  90 120 161 215 269 320 389
#     4  11  22  39  64  92 128 168 212 269 329 384
#     4  11  20  36  64  92 122 168 219 261 325 399
#
# _framework density 22.562336999999999
#
# number of rings (size 3 to 8) (size 9 to 14) (size 15 to 20)
#    0.000    1.571    1.429    5.571    0.000    0.000 
#    0.000    7.143    0.000    9.000    0.000    0.000 
#    0.000    0.000    0.000    0.000    0.000    0.000 
#
# Total GULP energy -155939.994405 kJ/mol
# GULP energy per Si atom -5569.285514 kJ/mol
# Density = 2.251098 g / cm^3
# Si number density = 22.562337 Si / 1000 Ang^3
#
#
#
# Elastic Constant Matrix: (Units=GPa)
#
#
# Indices 1 2 3 4 5 6 
#
# 1 95.2903 46.9241 18.9661 0.0000 0.0000 0.0000
# 2 46.9241 111.8174 1.8193 0.0000 0.0000 0.0000
# 3 18.9661 1.8193 51.5794 0.0000 0.0000 0.0000
# 4 0.0000 0.0000 0.0000 6.5269 0.0000 0.0000
# 5 0.0000 0.0000 0.0000 0.0000 32.3202 0.0000
# 6 0.0000 0.0000 0.0000 0.0000 0.0000 69.2739
#
#
#
# Elastic Compliance Matrix: (Units=1/GPa)
#
#
# Indices 1 2 3 4 5 6 
#
# 1 0.014457 -0.005984 -0.005105 0.000000 0.000000 0.000000
# 2 -0.005984 0.011425 0.001797 0.000000 0.000000 0.000000
# 3 -0.005105 0.001797 0.021201 0.000000 0.000000 0.000000
# 4 0.000000 0.000000 0.000000 0.153212 0.000000 0.000000
# 5 0.000000 0.000000 0.000000 0.000000 0.030940 0.000000
# 6 0.000000 0.000000 0.000000 0.000000 0.000000 0.014435
#
#
# Mechanical properties :
#
#
# Convention : Reuss Voigt Hill
#
# Bulk Modulus (GPa) = 35.08707 43.78958 39.43832
# Shear Modulus (GPa) = 18.26460 34.35604 26.31032
#
# Velocity S-wave (km/s) = 2.84829 3.90643 3.41855
# Velocity P-wave (km/s) = 5.13828 6.30851 5.75323
#
# Compressibility (1/GPa) = 0.02850053
#
# Stress axis : x y z
#
# Youngs Moduli (GPa) = 69.17114 87.52737 47.16696
#
# Poissons Ratio (x) = 0.52374 0.24078
# Poissons Ratio (y) = 0.41390 -0.08477
# Poissons Ratio (z) = 0.35311 -0.15731
#
# Static dielectric constant tensor:
#      x y z
#    x 1.975430 0.000000 0.000000 
#    y 0.000000 1.754640 0.000000 
#    z 0.000000 0.000000 1.862700 
# 
# From -- ./inp_files/28473.got.cif
#   From: 2010.05.17/outbox.cif.g08.bks.cpg/sg22_15_cif.got.tgz:28473.got - 2010.06.03 23:40:54.
