data_PCOD9326975
_publ_section_title
;
Structure prediction by ZEFSAII (Michael W. Deem and Ramdas Pophale) SiO2 
 PCOD9326975
Probable space group: F 2 2 2
;
_chemical_formula_sum "Si O2"
_cell_formula_units_Z 64
_cell_length_a 16.968349
_cell_length_b 18.479183
_cell_length_c 8.809712
_cell_angle_alpha 90.000000
_cell_angle_beta 90.000000
_cell_angle_gamma 90.000000
_cell_volume 2762.384099
_symmetry_space_group_name_H-M "F 2 2 2"
_symmetry_group_IT_number 22
_symmetry_cell_setting 'orthorhombic'
loop_
_space_group_symop_operation_xyz
x,y,z
-x,-y,z
x,-y,-z
-x,y,-z
x,1/2+y,1/2+z
-x,1/2-y,1/2+z
x,1/2-y,1/2-z
-x,1/2+y,1/2-z
1/2+x,y,1/2+z
1/2-x,-y,1/2+z
1/2+x,-y,1/2-z
1/2-x,y,1/2-z
1/2+x,1/2+y,z
1/2-x,1/2-y,z
1/2+x,1/2-y,-z
1/2-x,1/2+y,-z
loop_
_atom_site_type_symbol
_atom_site_label
_atom_site_fract_x
_atom_site_fract_y
_atom_site_fract_z
Si Si1 0.795297 0.607082 0.403730
Si Si2 0.585682 0.496418 0.756353
Si Si3 0.627022 0.895631 0.980258
Si Si4 0.845208 0.259379 0.426533
O O1 0.750000 0.635164 0.250000
O O2 0.845521 0.538034 0.354825
O O3 0.720884 0.589634 0.508918
O O4 0.852466 0.665649 0.482870
O O5 0.500000 0.500000 0.827317
O O6 0.584608 0.441393 0.611188
O O7 0.603710 0.574068 0.683317
O O8 0.616141 0.810524 0.004202
O O9 0.867554 0.250000 0.250000
O O10 0.750000 0.250000 0.431035
#
# Coordination Sequence:
#
# PCOD9326975 Si02
#       4
#    16  16  16  16
#     4   9  19  36  59 100 124 163 218 272 316 379
#     4  10  20  37  61  91 124 166 208 266 321 382
#     4   9  18  35  58  91 121 164 210 260 325 383
#     4   9  18  35  58  91 126 161 208 273 326 375
#
# _framework density 23.168393999999999
#
# number of rings (size 3 to 8) (size 9 to 14) (size 15 to 20)
#    0.000    2.750    0.000    1.500    0.000   11.500 
#   49.500    0.000   11.000    3.000    0.000    0.000 
#    0.000    0.000    0.000    0.000    0.000    0.000 
#
# Total GULP energy -89304.463578 kJ/mol
# GULP energy per Si atom -5581.528974 kJ/mol
# Density = 2.311566 g / cm^3
# Si number density = 23.168394 Si / 1000 Ang^3
#
#
#
# Elastic Constant Matrix: (Units=GPa)
#
#
# Indices 1 2 3 4 5 6 
#
# 1 76.9846 21.8039 19.8130 0.0000 0.0000 0.0000
# 2 21.8039 58.1585 29.3609 0.0000 0.0000 0.0000
# 3 19.8130 29.3609 85.3025 0.0000 0.0000 0.0000
# 4 0.0000 0.0000 0.0000 34.6639 0.0000 0.0000
# 5 0.0000 0.0000 0.0000 0.0000 2.5081 0.0000
# 6 0.0000 0.0000 0.0000 0.0000 0.0000 9.3477
#
#
#
# Elastic Compliance Matrix: (Units=1/GPa)
#
#
# Indices 1 2 3 4 5 6 
#
# 1 0.014769 -0.004605 -0.001845 0.000000 0.000000 0.000000
# 2 -0.004605 0.022247 -0.006588 0.000000 0.000000 0.000000
# 3 -0.001845 -0.006588 0.014419 0.000000 0.000000 0.000000
# 4 0.000000 0.000000 0.000000 0.028848 0.000000 0.000000
# 5 0.000000 0.000000 0.000000 0.000000 0.398708 0.000000
# 6 0.000000 0.000000 0.000000 0.000000 0.000000 0.106978
#
#
# Mechanical properties :
#
#
# Convention : Reuss Voigt Hill
#
# Bulk Modulus (GPa) = 39.43489 40.26680 39.85084
# Shear Modulus (GPa) = 8.05805 19.26847 13.66326
#
# Velocity S-wave (km/s) = 1.86697 2.88700 2.43108
# Velocity P-wave (km/s) = 4.65890 5.34142 5.01180
#
# Compressibility (1/GPa) = 0.02535826
#
# Stress axis : x y z
#
# Youngs Moduli (GPa) = 67.71007 44.95057 69.35304
#
# Poissons Ratio (x) = 0.20702 0.12797
# Poissons Ratio (y) = 0.31183 0.45687
# Poissons Ratio (z) = 0.12494 0.29611
#
# Static dielectric constant tensor:
#      x y z
#    x 1.842200 0.000000 0.000000 
#    y 0.000000 1.918230 0.000000 
#    z 0.000000 0.000000 1.951070 
# 
# From -- ./inp_files/11138.got.cif
#   From: 2010.05.17/outbox.cif.g08.bks.cpg/sg22_6_cif.got.tgz:11138.got - 2010.06.03 23:40:54.
