data_PCOD9326326
_publ_section_title
;
Structure prediction by ZEFSAII (Michael W. Deem and Ramdas Pophale) SiO2 
 PCOD9326326
Probable space group: F 2 2 2
;
_chemical_formula_sum "Si O2"
_cell_formula_units_Z 64
_cell_length_a 14.501965
_cell_length_b 5.223402
_cell_length_c 36.290914
_cell_angle_alpha 90.000000
_cell_angle_beta 90.000000
_cell_angle_gamma 90.000000
_cell_volume 2749.021965
_symmetry_space_group_name_H-M "F 2 2 2"
_symmetry_group_IT_number 22
_symmetry_cell_setting 'orthorhombic'
loop_
_space_group_symop_operation_xyz
x,y,z
-x,-y,z
x,-y,-z
-x,y,-z
x,1/2+y,1/2+z
-x,1/2-y,1/2+z
x,1/2-y,1/2-z
-x,1/2+y,1/2-z
1/2+x,y,1/2+z
1/2-x,-y,1/2+z
1/2+x,-y,1/2-z
1/2-x,y,1/2-z
1/2+x,1/2+y,z
1/2-x,1/2-y,z
1/2+x,1/2-y,-z
1/2-x,1/2+y,-z
loop_
_atom_site_type_symbol
_atom_site_label
_atom_site_fract_x
_atom_site_fract_y
_atom_site_fract_z
Si Si1 0.390334 0.006776 0.770569
Si Si2 0.862612 0.746417 0.477436
Si Si3 0.139736 0.770506 0.351861
Si Si4 0.362972 0.259647 0.106888
O O1 0.350309 0.250000 0.750000
O O2 0.379839 0.086796 0.813156
O O3 0.500000 0.000000 0.764408
O O4 0.355440 0.750000 0.750000
O O5 0.891279 0.500000 0.500000
O O6 0.750000 0.750000 0.476182
O O7 0.892688 0.709285 0.435231
O O8 0.890142 0.000000 0.500000
O O9 0.250000 0.750000 0.353079
O O10 0.108176 0.485961 0.364536
O O11 0.106648 0.978405 0.381025
O O12 0.250000 0.250000 0.107669
#
# Coordination Sequence:
#
# PCOD9326326 Si02
#       4
#    16  16  16  16
#     4  10  21  37  55  74  98 130 168 212 257 303
#     4   9  15  23  37  59  90 129 165 194 232 288
#     4  10  19  32  49  71  99 130 162 204 254 302
#     4   9  17  28  43  66  98 131 163 201 246 293
#
# _framework density 23.281006999999999
#
# number of rings (size 3 to 8) (size 9 to 14) (size 15 to 20)
#    0.000    2.500    0.000    3.000    0.000    6.500 
#    0.000    1.250    0.000    0.000    0.000    0.000 
#    0.000   15.000    0.000    0.000    0.000    0.000 
#
# Total GULP energy -89220.805246 kJ/mol
# GULP energy per Si atom -5576.300328 kJ/mol
# Density = 2.322802 g / cm^3
# Si number density = 23.281007 Si / 1000 Ang^3
#
#
#
# Elastic Constant Matrix: (Units=GPa)
#
#
# Indices 1 2 3 4 5 6 
#
# 1 81.9985 6.6009 -8.4411 0.0000 0.0000 0.0000
# 2 6.6009 215.7601 75.1585 0.0000 0.0000 0.0000
# 3 -8.4411 75.1585 144.8964 0.0000 0.0000 0.0000
# 4 0.0000 0.0000 0.0000 47.4188 0.0000 0.0000
# 5 0.0000 0.0000 0.0000 0.0000 12.4883 0.0000
# 6 0.0000 0.0000 0.0000 0.0000 0.0000 -46.9281
#
#
#
# Elastic Compliance Matrix: (Units=1/GPa)
#
#
# Indices 1 2 3 4 5 6 
#
# 1 0.012372 -0.000768 0.001119 0.000000 0.000000 0.000000
# 2 -0.000768 0.005705 -0.003004 0.000000 0.000000 0.000000
# 3 0.001119 -0.003004 0.008525 0.000000 0.000000 0.000000
# 4 0.000000 0.000000 0.000000 0.021089 0.000000 0.000000
# 5 0.000000 0.000000 0.000000 0.000000 0.080075 0.000000
# 6 0.000000 0.000000 0.000000 0.000000 0.000000 -0.021309
#
#
# Mechanical properties :
#
#
# Convention : Reuss Voigt Hill
#
# Bulk Modulus (GPa) = 46.95692 65.47685 56.21689
# Shear Modulus (GPa) = 42.06610 27.21825 34.64218
#
# Velocity S-wave (km/s) = 4.25536 3.42295 3.86165
# Velocity P-wave (km/s) = 6.66014 6.61874 6.63947
#
# Compressibility (1/GPa) = 0.02129612
#
# Stress axis : x y z
#
# Youngs Moduli (GPa) = 80.82479 175.29608 117.30518
#
# Poissons Ratio (x) = 0.13471 -0.13131
# Poissons Ratio (y) = 0.06211 0.35236
# Poissons Ratio (z) = -0.09047 0.52655
#
# Static dielectric constant tensor:
#      x y z
#    x 1.899830 0.000000 0.000000 
#    y 0.000000 1.829650 0.000000 
#    z 0.000000 0.000000 2.186340 
# 
# From -- ./inp_files/2860.got.cif
#   From: 2010.05.17/outbox.cif.g08.bks.cpg/sg22_2_cif.got.tgz:2860.got - 2010.06.03 23:40:54.
