data_PCOD9326347
_publ_section_title
;
Structure prediction by ZEFSAII (Michael W. Deem and Ramdas Pophale) SiO2 
 PCOD9326347
Probable space group: F 2 2 2
;
_chemical_formula_sum "Si O2"
_cell_formula_units_Z 88
_cell_length_a 15.673877
_cell_length_b 23.485917
_cell_length_c 12.156905
_cell_angle_alpha 90.000000
_cell_angle_beta 90.000000
_cell_angle_gamma 90.000000
_cell_volume 4475.143634
_symmetry_space_group_name_H-M "F 2 2 2"
_symmetry_group_IT_number 22
_symmetry_cell_setting 'orthorhombic'
loop_
_space_group_symop_operation_xyz
x,y,z
-x,-y,z
x,-y,-z
-x,y,-z
x,1/2+y,1/2+z
-x,1/2-y,1/2+z
x,1/2-y,1/2-z
-x,1/2+y,1/2-z
1/2+x,y,1/2+z
1/2-x,-y,1/2+z
1/2+x,-y,1/2-z
1/2-x,y,1/2-z
1/2+x,1/2+y,z
1/2-x,1/2-y,z
1/2+x,1/2-y,-z
1/2-x,1/2+y,-z
loop_
_atom_site_type_symbol
_atom_site_label
_atom_site_fract_x
_atom_site_fract_y
_atom_site_fract_z
Si Si1 0.697189 0.633609 0.364894
Si Si2 0.152039 0.237545 0.520192
Si Si3 0.525757 0.066083 0.881210
Si Si4 0.055785 0.250000 0.750000
Si Si5 0.130968 0.134096 0.024724
Si Si6 0.979332 0.371751 0.322420
O O1 0.750000 0.646027 0.250000
O O2 0.653702 0.688026 0.427314
O O3 0.623114 0.586159 0.355632
O O4 0.774194 0.616068 0.445762
O O5 0.250000 0.250000 0.548882
O O6 0.105839 0.230279 0.638174
O O7 0.121747 0.297154 0.467915
O O8 0.469424 0.093652 0.787132
O O9 0.500000 0.000000 0.881519
O O10 0.500000 0.089668 0.000000
O O11 0.007498 0.306274 0.711875
O O12 0.061830 0.109056 0.108468
O O13 0.101218 0.121843 0.901632
#
# Coordination Sequence:
#
# PCOD9326347 Si02
#       6
#    16  16  16   8  16  16
#     4  11  21  39  66  93 131 169 221 259 325 382
#     4   9  19  32  54  91 132 169 206 253 312 382
#     4  11  25  45  65  90 126 168 219 281 330 381
#     4  10  19  32  56  91 132 182 202 250 320 397
#     4   9  20  36  58  96 130 166 207 259 312 390
#     4  10  20  37  61  90 133 163 216 259 320 381
#
# _framework density 19.664173000000002
#
# number of rings (size 3 to 8) (size 9 to 14) (size 15 to 20)
#    0.000    2.000    1.818    1.364    2.545    3.273 
#    0.000    8.182    0.000    0.000    0.000    0.000 
#    0.000    0.000    0.000    0.000    0.000    0.000 
#
# Total GULP energy -122514.488722 kJ/mol
# GULP energy per Si atom -5568.840396 kJ/mol
# Density = 1.961942 g / cm^3
# Si number density = 19.664173 Si / 1000 Ang^3
#
#
#
# Elastic Constant Matrix: (Units=GPa)
#
#
# Indices 1 2 3 4 5 6 
#
# 1 61.7234 28.3436 47.0019 0.0000 0.0000 0.0000
# 2 28.3436 53.4089 47.1677 0.0000 0.0000 0.0000
# 3 47.0019 47.1677 151.9501 0.0000 0.0000 0.0000
# 4 0.0000 0.0000 0.0000 22.2363 0.0000 0.0000
# 5 0.0000 0.0000 0.0000 0.0000 27.1191 0.0000
# 6 0.0000 0.0000 0.0000 0.0000 0.0000 18.2222
#
#
#
# Elastic Compliance Matrix: (Units=1/GPa)
#
#
# Indices 1 2 3 4 5 6 
#
# 1 0.023638 -0.008386 -0.004709 0.000000 0.000000 0.000000
# 2 -0.008386 0.028770 -0.006337 0.000000 0.000000 0.000000
# 3 -0.004709 -0.006337 0.010005 0.000000 0.000000 0.000000
# 4 0.000000 0.000000 0.000000 0.044972 0.000000 0.000000
# 5 0.000000 0.000000 0.000000 0.000000 0.036874 0.000000
# 6 0.000000 0.000000 0.000000 0.000000 0.000000 0.054878
#
#
# Mechanical properties :
#
#
# Convention : Reuss Voigt Hill
#
# Bulk Modulus (GPa) = 42.46308 56.90098 49.68203
# Shear Modulus (GPa) = 20.33771 23.15347 21.74559
#
# Velocity S-wave (km/s) = 3.21947 3.43511 3.32904
# Velocity P-wave (km/s) = 5.95491 6.68824 6.33220
#
# Compressibility (1/GPa) = 0.02354987
#
# Stress axis : x y z
#
# Youngs Moduli (GPa) = 42.30522 34.75841 99.95394
#
# Poissons Ratio (x) = 0.29148 0.47064
# Poissons Ratio (y) = 0.35477 0.63338
# Poissons Ratio (z) = 0.19920 0.22025
#
# Static dielectric constant tensor:
#      x y z
#    x 1.738590 0.000000 0.000000 
#    y 0.000000 1.732510 0.000000 
#    z 0.000000 0.000000 1.732240 
# 
# From -- ./inp_files/21412.got.cif
#   From: 2010.05.17/outbox.cif.g08.bks.cpg/sg22_11_cif.got.tgz:21412.got - 2010.06.03 23:40:54.
