data_PCOD9326300
_publ_section_title
;
Structure prediction by ZEFSAII (Michael W. Deem and Ramdas Pophale) SiO2 
 PCOD9326300
Probable space group: F 2 2 2
;
_chemical_formula_sum "Si O2"
_cell_formula_units_Z 92
_cell_length_a 23.847295
_cell_length_b 16.303101
_cell_length_c 12.026827
_cell_angle_alpha 90.000000
_cell_angle_beta 90.000000
_cell_angle_gamma 90.000000
_cell_volume 4675.848239
_symmetry_space_group_name_H-M "F 2 2 2"
_symmetry_group_IT_number 22
_symmetry_cell_setting 'orthorhombic'
loop_
_space_group_symop_operation_xyz
x,y,z
-x,-y,z
x,-y,-z
-x,y,-z
x,1/2+y,1/2+z
-x,1/2-y,1/2+z
x,1/2-y,1/2-z
-x,1/2+y,1/2-z
1/2+x,y,1/2+z
1/2-x,-y,1/2+z
1/2+x,-y,1/2-z
1/2-x,y,1/2-z
1/2+x,1/2+y,z
1/2-x,1/2-y,z
1/2+x,1/2-y,-z
1/2-x,1/2+y,-z
loop_
_atom_site_type_symbol
_atom_site_label
_atom_site_fract_x
_atom_site_fract_y
_atom_site_fract_z
Si Si1 0.036162 0.250000 0.750000
Si Si2 0.823537 0.400921 0.799221
Si Si3 0.500000 0.500000 0.500000
Si Si4 0.055905 0.852194 0.629261
Si Si5 0.729707 0.000000 0.000000
Si Si6 0.677443 0.386099 0.957090
Si Si7 0.564234 0.812583 0.519497
Si Si8 0.250000 0.750000 0.887198
O O1 0.070226 0.214282 0.852692
O O2 0.994960 0.178592 0.705663
O O3 0.887394 0.372162 0.807588
O O4 0.806901 0.466537 0.895621
O O5 0.815874 0.422162 0.669000
O O6 0.786045 0.321231 0.827457
O O7 0.537693 0.435823 0.568858
O O8 0.066958 0.773044 0.550202
O O9 0.775629 0.069400 0.031172
O O10 0.701214 0.294608 0.953626
O O11 0.612551 0.377321 0.988565
O O12 0.500000 0.842495 0.500000
#
# Coordination Sequence:
#
# PCOD9326300 Si02
#       8
#     8  16   4  16   8  16  16   8
#     4  10  20  40  60  94 128 174 210 272 326 394
#     4  11  20  37  62  91 119 161 209 267 326 383
#     4  12  22  40  56 104 130 156 220 280 338 386
#     4  11  21  37  65  94 129 165 217 270 326 399
#     4  10  23  38  53  93 128 155 202 280 334 376
#     4  11  21  39  62  88 124 167 217 266 326 402
#     4  10  20  38  64  92 124 172 222 268 321 398
#     4  10  19  30  64  93 110 149 214 264 302 381
#
# _framework density 19.675576
#
# number of rings (size 3 to 8) (size 9 to 14) (size 15 to 20)
#    0.000    1.391    4.348    5.739    0.000    0.000 
#    3.130    2.174    0.000    0.000    0.000    0.000 
#    0.000    0.000    0.000    0.000    0.000    0.000 
#
# Total GULP energy -128036.157648 kJ/mol
# GULP energy per Si atom -5566.789463 kJ/mol
# Density = 1.963079 g / cm^3
# Si number density = 19.675576 Si / 1000 Ang^3
#
#
#
# Elastic Constant Matrix: (Units=GPa)
#
#
# Indices 1 2 3 4 5 6 
#
# 1 69.3264 3.4511 8.7934 0.0000 0.0000 0.0000
# 2 3.4511 59.6838 22.1717 0.0000 0.0000 0.0000
# 3 8.7934 22.1717 83.9910 0.0000 0.0000 0.0000
# 4 0.0000 0.0000 0.0000 18.0768 0.0000 0.0000
# 5 0.0000 0.0000 0.0000 0.0000 49.1783 0.0000
# 6 0.0000 0.0000 0.0000 0.0000 0.0000 26.3193
#
#
#
# Elastic Compliance Matrix: (Units=1/GPa)
#
#
# Indices 1 2 3 4 5 6 
#
# 1 0.014624 -0.000307 -0.001450 0.000000 0.000000 0.000000
# 2 -0.000307 0.018583 -0.004873 0.000000 0.000000 0.000000
# 3 -0.001450 -0.004873 0.013344 0.000000 0.000000 0.000000
# 4 0.000000 0.000000 0.000000 0.055320 0.000000 0.000000
# 5 0.000000 0.000000 0.000000 0.000000 0.020334 0.000000
# 6 0.000000 0.000000 0.000000 0.000000 0.000000 0.037995
#
#
# Mechanical properties :
#
#
# Convention : Reuss Voigt Hill
#
# Bulk Modulus (GPa) = 30.03860 31.31486 30.67673
# Shear Modulus (GPa) = 27.09184 30.62053 28.85619
#
# Velocity S-wave (km/s) = 3.71472 3.94924 3.83378
# Velocity P-wave (km/s) = 5.80508 6.06180 5.93483
#
# Compressibility (1/GPa) = 0.03329050
#
# Stress axis : x y z
#
# Youngs Moduli (GPa) = 68.38207 53.81225 74.93832
#
# Poissons Ratio (x) = 0.01652 0.10866
# Poissons Ratio (y) = 0.02099 0.36520
# Poissons Ratio (z) = 0.09915 0.26225
#
# Static dielectric constant tensor:
#      x y z
#    x 1.764730 0.000000 0.000000 
#    y 0.000000 1.689020 0.000000 
#    z 0.000000 0.000000 1.822520 
# 
# From -- ./inp_files/32601.got.cif
#   From: 2010.05.17/outbox.cif.g08.bks.cpg/sg22_17_cif.got.tgz:32601.got - 2010.06.03 23:40:54.
