data_PCOD9326891
_publ_section_title
;
Structure prediction by ZEFSAII (Michael W. Deem and Ramdas Pophale) SiO2 
 PCOD9326891
Probable space group: F 2 2 2
;
_chemical_formula_sum "Si O2"
_cell_formula_units_Z 116
_cell_length_a 24.176552
_cell_length_b 26.521873
_cell_length_c 8.551910
_cell_angle_alpha 90.000000
_cell_angle_beta 90.000000
_cell_angle_gamma 90.000000
_cell_volume 5483.548333
_symmetry_space_group_name_H-M "F 2 2 2"
_symmetry_group_IT_number 22
_symmetry_cell_setting 'orthorhombic'
loop_
_space_group_symop_operation_xyz
x,y,z
-x,-y,z
x,-y,-z
-x,y,-z
x,1/2+y,1/2+z
-x,1/2-y,1/2+z
x,1/2-y,1/2-z
-x,1/2+y,1/2-z
1/2+x,y,1/2+z
1/2-x,-y,1/2+z
1/2+x,-y,1/2-z
1/2-x,y,1/2-z
1/2+x,1/2+y,z
1/2-x,1/2-y,z
1/2+x,1/2-y,-z
1/2-x,1/2+y,-z
loop_
_atom_site_type_symbol
_atom_site_label
_atom_site_fract_x
_atom_site_fract_y
_atom_site_fract_z
Si Si1 0.355328 0.751746 0.562821
Si Si2 0.543219 0.287548 0.370280
Si Si3 0.801524 0.360267 0.539278
Si Si4 0.388343 0.441167 0.992837
Si Si5 0.500000 0.500000 0.500000
Si Si6 0.319490 0.140529 0.085237
Si Si7 0.972704 0.371860 0.336770
Si Si8 0.927329 0.084973 0.661221
O O1 0.368439 0.750000 0.750000
O O2 0.408996 0.743334 0.457204
O O3 0.322452 0.802483 0.514888
O O4 0.322935 0.699415 0.543129
O O5 0.500000 0.303401 0.500000
O O6 0.513466 0.250000 0.250000
O O7 0.564436 0.332687 0.259251
O O8 0.840263 0.401268 0.456486
O O9 0.738020 0.374887 0.505766
O O10 0.809832 0.364306 0.727773
O O11 0.403462 0.430697 0.171978
O O12 0.374631 0.500000 0.000000
O O13 0.439979 0.422845 0.884863
O O14 0.458078 0.537481 0.587659
O O15 0.378133 0.111559 0.062689
O O16 0.000000 0.352939 0.500000
O O17 0.023095 0.379309 0.217619
#
# Coordination Sequence:
#
# PCOD9326891 Si02
#       8
#    16  16  16  16   4  16  16  16
#     4  10  20  36  61  92 121 161 208 266 323 379
#     4  12  24  36  56  89 131 170 206 258 321 391
#     4   9  18  35  61  89 119 158 215 268 314 373
#     4  10  20  39  62  87 118 166 217 262 317 377
#     4  12  24  36  58  92 140 164 210 252 332 380
#     4   9  18  35  60  89 121 155 213 265 315 371
#     4  10  22  40  62  86 125 165 214 260 322 384
#     4  10  22  37  58  90 122 167 205 265 310 382
#
# _framework density 21.154185999999999
#
# number of rings (size 3 to 8) (size 9 to 14) (size 15 to 20)
#    0.000    1.931    0.000    3.724    2.897    8.000 
#    1.241    0.000    0.000    5.793    0.000    0.000 
#    0.000    0.000    0.000    0.000    0.000    0.000 
#
# Total GULP energy -161544.110268 kJ/mol
# GULP energy per Si atom -5570.486561 kJ/mol
# Density = 2.110604 g / cm^3
# Si number density = 21.154186 Si / 1000 Ang^3
#
#
#
# Elastic Constant Matrix: (Units=GPa)
#
#
# Indices 1 2 3 4 5 6 
#
# 1 142.7437 65.2592 32.3466 0.0014 0.0008 0.0004
# 2 65.2592 124.1334 38.5132 -0.0006 0.0013 0.0011
# 3 32.3466 38.5132 50.2802 0.0033 0.0012 0.0018
# 4 0.0014 -0.0006 0.0033 103.4614 -0.0023 -0.0008
# 5 0.0008 0.0013 0.0012 -0.0023 12.0420 -0.0011
# 6 0.0004 0.0011 0.0018 -0.0008 -0.0011 11.9659
#
#
#
# Elastic Compliance Matrix: (Units=1/GPa)
#
#
# Indices 1 2 3 4 5 6 
#
# 1 0.009559 -0.004089 -0.003017 0.000000 0.000000 0.000001
# 2 -0.004089 0.012316 -0.006803 0.000000 0.000000 0.000000
# 3 -0.003017 -0.006803 0.027041 -0.000001 -0.000002 -0.000003
# 4 0.000000 0.000000 -0.000001 0.009665 0.000002 0.000001
# 5 0.000000 0.000000 -0.000002 0.000002 0.083043 0.000008
# 6 0.000001 0.000000 -0.000003 0.000001 0.000008 0.083571
#
#
# Mechanical properties :
#
#
# Convention : Reuss Voigt Hill
#
# Bulk Modulus (GPa) = 47.40130 65.48839 56.44485
# Shear Modulus (GPa) = 19.22735 37.56308 28.39522
#
# Velocity S-wave (km/s) = 3.01809 4.21845 3.66771
# Velocity P-wave (km/s) = 5.88229 7.39946 6.68406
#
# Compressibility (1/GPa) = 0.02109647
#
# Stress axis : x y z
#
# Youngs Moduli (GPa) = 104.61647 81.19295 36.98113
#
# Poissons Ratio (x) = 0.33200 0.11158
# Poissons Ratio (y) = 0.42778 0.25160
# Poissons Ratio (z) = 0.31566 0.55239
#
# Static dielectric constant tensor:
#      x y z
#    x 1.881820 0.000000 0.000000 
#    y 0.000000 1.889650 0.000000 
#    z 0.000000 0.000000 1.765510 
# 
# From -- ./inp_files/14086.got.cif
#   From: 2010.05.17/outbox.cif.g08.bks.cpg/sg22_8_cif.got.tgz:14086.got - 2010.06.03 23:40:54.
