data_PCOD9326519
_publ_section_title
;
Structure prediction by ZEFSAII (Michael W. Deem and Ramdas Pophale) SiO2 
 PCOD9326519
Probable space group: F 2 2 2
;
_chemical_formula_sum "Si O2"
_cell_formula_units_Z 80
_cell_length_a 13.320039
_cell_length_b 17.706495
_cell_length_c 16.341000
_cell_angle_alpha 90.000000
_cell_angle_beta 90.000000
_cell_angle_gamma 90.000000
_cell_volume 3854.044524
_symmetry_space_group_name_H-M "F 2 2 2"
_symmetry_group_IT_number 22
_symmetry_cell_setting 'orthorhombic'
loop_
_space_group_symop_operation_xyz
x,y,z
-x,-y,z
x,-y,-z
-x,y,-z
x,1/2+y,1/2+z
-x,1/2-y,1/2+z
x,1/2-y,1/2-z
-x,1/2+y,1/2-z
1/2+x,y,1/2+z
1/2-x,-y,1/2+z
1/2+x,-y,1/2-z
1/2-x,y,1/2-z
1/2+x,1/2+y,z
1/2-x,1/2-y,z
1/2+x,1/2-y,-z
1/2-x,1/2+y,-z
loop_
_atom_site_type_symbol
_atom_site_label
_atom_site_fract_x
_atom_site_fract_y
_atom_site_fract_z
Si Si1 0.297348 0.174429 0.102963
Si Si2 0.900433 0.252819 0.449088
Si Si3 0.868054 0.545706 0.414851
Si Si4 0.583997 0.899301 0.646937
Si Si5 0.006461 0.174730 0.301871
O O1 0.250000 0.250000 0.142383
O O2 0.213979 0.110795 0.091221
O O3 0.390942 0.146384 0.156923
O O4 0.336951 0.206209 0.015368
O O5 0.866097 0.330229 0.403973
O O6 0.000000 0.274103 0.500000
O O7 0.934175 0.199048 0.375519
O O8 0.865758 0.500000 0.500000
O O9 0.854064 0.476451 0.352157
O O10 0.977124 0.581670 0.397110
O O11 0.551685 0.876316 0.737585
O O12 0.031798 0.250000 0.250000
#
# Coordination Sequence:
#
# PCOD9326519 Si02
#       5
#    16  16  16  16  16
#     4  11  21  34  58  90 118 149 198 251 286 331
#     4   9  17  34  59  84 112 149 193 236 285 343
#     4  11  22  36  57  85 116 153 198 241 289 351
#     4  10  19  36  60  83 115 157 194 236 294 352
#     4   9  19  35  59  87 113 150 195 239 291 348
#
# _framework density 20.757414000000001
#
# number of rings (size 3 to 8) (size 9 to 14) (size 15 to 20)
#    0.000    2.000    0.000    7.200    0.000    2.800 
#    0.000    6.000    0.000   16.800    0.000    0.000 
#    0.000    0.000    0.000    0.000    0.000    0.000 
#
# Total GULP energy -111623.117498 kJ/mol
# GULP energy per Si atom -5581.155875 kJ/mol
# Density = 2.071017 g / cm^3
# Si number density = 20.757414 Si / 1000 Ang^3
#
#
#
# Elastic Constant Matrix: (Units=GPa)
#
#
# Indices 1 2 3 4 5 6 
#
# 1 43.3489 29.9194 17.7737 0.0000 0.0000 0.0000
# 2 29.9194 116.5470 39.3991 0.0000 0.0000 0.0000
# 3 17.7737 39.3991 108.0728 0.0000 0.0000 0.0000
# 4 0.0000 0.0000 0.0000 12.3341 0.0000 0.0000
# 5 0.0000 0.0000 0.0000 0.0000 20.4215 0.0000
# 6 0.0000 0.0000 0.0000 0.0000 0.0000 17.4989
#
#
#
# Elastic Compliance Matrix: (Units=1/GPa)
#
#
# Indices 1 2 3 4 5 6 
#
# 1 0.028531 -0.006545 -0.002306 0.000000 0.000000 0.000000
# 2 -0.006545 0.011288 -0.003039 0.000000 0.000000 0.000000
# 3 -0.002306 -0.003039 0.010740 0.000000 0.000000 0.000000
# 4 0.000000 0.000000 0.000000 0.081076 0.000000 0.000000
# 5 0.000000 0.000000 0.000000 0.000000 0.048968 0.000000
# 6 0.000000 0.000000 0.000000 0.000000 0.000000 0.057147
#
#
# Mechanical properties :
#
#
# Convention : Reuss Voigt Hill
#
# Bulk Modulus (GPa) = 37.34184 49.12812 43.23498
# Shear Modulus (GPa) = 18.48732 22.10934 20.29833
#
# Velocity S-wave (km/s) = 2.98759 3.26717 3.13051
# Velocity P-wave (km/s) = 5.47080 6.16049 5.82586
#
# Compressibility (1/GPa) = 0.02677961
#
# Stress axis : x y z
#
# Youngs Moduli (GPa) = 35.04902 88.59273 93.10905
#
# Poissons Ratio (x) = 0.57982 0.21474
# Poissons Ratio (y) = 0.22939 0.28293
# Poissons Ratio (z) = 0.08083 0.26920
#
# Static dielectric constant tensor:
#      x y z
#    x 1.777220 0.000000 0.000000 
#    y 0.000000 1.770980 0.000000 
#    z 0.000000 0.000000 1.785880 
# 
# From -- ./inp_files/30508.got.cif
#   From: 2010.05.17/outbox.cif.g08.bks.cpg/sg22_16_cif.got.tgz:30508.got - 2010.06.03 23:40:54.
