data_PCOD9326416
_publ_section_title
;
Structure prediction by ZEFSAII (Michael W. Deem and Ramdas Pophale) SiO2 
 PCOD9326416
Probable space group: F 2 2 2
;
_chemical_formula_sum "Si O2"
_cell_formula_units_Z 120
_cell_length_a 20.503385
_cell_length_b 24.831948
_cell_length_c 11.432593
_cell_angle_alpha 90.000000
_cell_angle_beta 90.000000
_cell_angle_gamma 90.000000
_cell_volume 5820.778855
_symmetry_space_group_name_H-M "F 2 2 2"
_symmetry_group_IT_number 22
_symmetry_cell_setting 'orthorhombic'
loop_
_space_group_symop_operation_xyz
x,y,z
-x,-y,z
x,-y,-z
-x,y,-z
x,1/2+y,1/2+z
-x,1/2-y,1/2+z
x,1/2-y,1/2-z
-x,1/2+y,1/2-z
1/2+x,y,1/2+z
1/2-x,-y,1/2+z
1/2+x,-y,1/2-z
1/2-x,y,1/2-z
1/2+x,1/2+y,z
1/2-x,1/2-y,z
1/2+x,1/2-y,-z
1/2-x,1/2+y,-z
loop_
_atom_site_type_symbol
_atom_site_label
_atom_site_fract_x
_atom_site_fract_y
_atom_site_fract_z
Si Si1 0.992817 0.898093 0.740902
Si Si2 0.645355 0.421321 0.714284
Si Si3 0.902821 0.695042 0.813282
Si Si4 0.676417 0.140571 0.009250
Si Si5 0.888609 0.968863 0.615138
Si Si6 0.500000 0.582251 0.000000
Si Si7 0.798040 0.134151 0.153996
Si Si8 0.144377 0.057087 0.027708
O O1 0.963791 0.845133 0.682017
O O2 0.945531 0.946765 0.699546
O O3 0.067108 0.910782 0.709488
O O4 0.986604 0.887263 0.879488
O O5 0.675406 0.378187 0.624969
O O6 0.653507 0.484026 0.676230
O O7 0.666582 0.418386 0.849190
O O8 0.921872 0.750000 0.750000
O O9 0.870485 0.688020 0.942030
O O10 0.845240 0.672914 0.726681
O O11 0.650127 0.084576 0.071811
O O12 0.747521 0.156199 0.057679
O O13 0.914851 0.000000 0.500000
O O14 0.566101 0.551803 0.034341
O O15 0.750000 0.108565 0.250000
O O16 0.841046 0.093006 0.083363
O O17 0.175675 0.000000 0.000000
#
# Coordination Sequence:
#
# PCOD9326416 Si02
#       8
#    16  16  16  16  16   8  16  16
#     4  10  19  34  57  85 123 151 200 247 300 365
#     4  10  21  33  55  87 125 164 194 231 308 373
#     4  10  21  40  67  89 108 151 208 262 320 356
#     4   9  21  37  56  84 124 151 205 255 293 360
#     4   9  18  32  53  82 118 165 203 240 286 354
#     4  10  19  36  54  82 120 156 192 244 299 360
#     4  10  22  40  59  82 118 154 207 262 290 346
#     4  11  22  34  57  86 123 168 204 240 294 367
#
# _framework density 20.615798000000002
#
# number of rings (size 3 to 8) (size 9 to 14) (size 15 to 20)
#    0.000    2.133    1.333    1.400    3.733   13.067 
#    0.000    1.333    0.000    0.000    0.000    3.733 
#    0.000    0.000    0.000    0.000    0.000    0.000 
#
# Total GULP energy -167120.232604 kJ/mol
# GULP energy per Si atom -5570.674420 kJ/mol
# Density = 2.056888 g / cm^3
# Si number density = 20.615798 Si / 1000 Ang^3
#
#
#
# Elastic Constant Matrix: (Units=GPa)
#
#
# Indices 1 2 3 4 5 6 
#
# 1 23.5144 -10.0850 1.7997 0.0000 0.0000 0.0000
# 2 -10.0850 42.8313 -1.2114 0.0000 0.0000 0.0000
# 3 1.7997 -1.2114 99.7366 0.0000 0.0000 0.0000
# 4 0.0000 0.0000 0.0000 21.8248 0.0000 0.0000
# 5 0.0000 0.0000 0.0000 0.0000 23.2908 0.0000
# 6 0.0000 0.0000 0.0000 0.0000 0.0000 -4.5301
#
#
#
# Elastic Compliance Matrix: (Units=1/GPa)
#
#
# Indices 1 2 3 4 5 6 
#
# 1 0.047356 0.011130 -0.000719 0.000000 0.000000 0.000000
# 2 0.011130 0.025971 0.000115 0.000000 0.000000 0.000000
# 3 -0.000719 0.000115 0.010041 0.000000 0.000000 0.000000
# 4 0.000000 0.000000 0.000000 0.045819 0.000000 0.000000
# 5 0.000000 0.000000 0.000000 0.000000 0.042935 0.000000
# 6 0.000000 0.000000 0.000000 0.000000 0.000000 -0.220744
#
#
# Mechanical properties :
#
#
# Convention : Reuss Voigt Hill
#
# Bulk Modulus (GPa) = 9.57686 16.34320 12.96003
# Shear Modulus (GPa) = -143.40542 19.82237 -61.79153
#
# Velocity S-wave (km/s) = -8.34937 3.10419 -5.48069
# Velocity P-wave (km/s) = 9.39648 4.55990 5.80952
#
# Compressibility (1/GPa) = 0.10441836
#
# Stress axis : x y z
#
# Youngs Moduli (GPa) = 21.11679 38.50400 99.59380
#
# Poissons Ratio (x) = -0.42855 0.07164
# Poissons Ratio (y) = -0.23503 -0.01141
# Poissons Ratio (z) = 0.01519 -0.00441
#
# Static dielectric constant tensor:
#      x y z
#    x 1.782030 0.000000 0.000000 
#    y 0.000000 1.735150 0.000000 
#    z 0.000000 0.000000 1.785140 
# 
# From -- ./inp_files/23009.got.cif
#   From: 2010.05.17/outbox.cif.g08.bks.cpg/sg22_12_cif.got.tgz:23009.got - 2010.06.03 23:40:54.
