data_PCOD9326570
_publ_section_title
;
Structure prediction by ZEFSAII (Michael W. Deem and Ramdas Pophale) SiO2 
 PCOD9326570
Probable space group: F 2 2 2
;
_chemical_formula_sum "Si O2"
_cell_formula_units_Z 112
_cell_length_a 15.381906
_cell_length_b 23.692917
_cell_length_c 14.732454
_cell_angle_alpha 90.000000
_cell_angle_beta 90.000000
_cell_angle_gamma 90.000000
_cell_volume 5369.128274
_symmetry_space_group_name_H-M "F 2 2 2"
_symmetry_group_IT_number 22
_symmetry_cell_setting 'orthorhombic'
loop_
_space_group_symop_operation_xyz
x,y,z
-x,-y,z
x,-y,-z
-x,y,-z
x,1/2+y,1/2+z
-x,1/2-y,1/2+z
x,1/2-y,1/2-z
-x,1/2+y,1/2-z
1/2+x,y,1/2+z
1/2-x,-y,1/2+z
1/2+x,-y,1/2-z
1/2-x,y,1/2-z
1/2+x,1/2+y,z
1/2-x,1/2-y,z
1/2+x,1/2-y,-z
1/2-x,1/2+y,-z
loop_
_atom_site_type_symbol
_atom_site_label
_atom_site_fract_x
_atom_site_fract_y
_atom_site_fract_z
Si Si1 0.697299 0.440586 0.550216
Si Si2 0.995050 0.170735 0.288227
Si Si3 0.900180 0.165141 0.465557
Si Si4 0.928958 0.544194 0.214562
Si Si5 0.604368 0.045352 0.580689
Si Si6 0.025746 0.164028 0.096819
Si Si7 0.848717 0.756075 0.377941
O O1 0.687387 0.500000 0.500000
O O2 0.651171 0.391401 0.492687
O O3 0.651504 0.447845 0.647405
O O4 0.799546 0.430339 0.562965
O O5 0.026727 0.105820 0.284427
O O6 0.969359 0.182102 0.183652
O O7 0.079769 0.206923 0.321441
O O8 0.917125 0.176505 0.359668
O O9 0.854938 0.214504 0.523290
O O10 0.000000 0.158584 0.500000
O O11 0.901218 0.523236 0.315430
O O12 0.000000 0.500000 0.178266
O O13 0.537782 0.097533 0.585011
O O14 0.590511 0.000000 0.500000
O O15 0.116971 0.192568 0.119106
O O16 0.000000 0.188682 0.000000
O O17 0.750000 0.750000 0.347623
#
# Coordination Sequence:
#
# PCOD9326570 Si02
#       7
#    16  16  16  16  16  16  16
#     4  11  21  37  60  91 124 161 209 264 331 392
#     4  10  22  38  60  96 123 163 212 276 319 387
#     4  10  19  37  62  90 129 159 203 273 325 389
#     4  11  22  36  64  92 121 169 215 260 332 388
#     4  10  25  41  58  84 130 169 212 274 318 389
#     4  11  24  39  63  89 120 172 222 261 326 395
#     4  11  22  39  64  95 133 166 203 269 340 397
#
# _framework density 20.859998000000001
#
# number of rings (size 3 to 8) (size 9 to 14) (size 15 to 20)
#    0.000    1.429    2.857    3.857    4.000    1.143 
#    0.000    0.000    0.000    3.429    0.000    0.000 
#    0.000    0.000    0.000    0.000    0.000    0.000 
#
# Total GULP energy -156186.810246 kJ/mol
# GULP energy per Si atom -5578.100366 kJ/mol
# Density = 2.081252 g / cm^3
# Si number density = 20.859998 Si / 1000 Ang^3
#
#
#
# Elastic Constant Matrix: (Units=GPa)
#
#
# Indices 1 2 3 4 5 6 
#
# 1 68.2671 3.3414 33.4274 0.0000 0.0000 0.0000
# 2 3.3414 84.6410 26.4307 0.0000 0.0000 0.0000
# 3 33.4274 26.4307 189.4507 0.0000 0.0000 0.0000
# 4 0.0000 0.0000 0.0000 27.8331 0.0000 0.0000
# 5 0.0000 0.0000 0.0000 0.0000 9.8817 0.0000
# 6 0.0000 0.0000 0.0000 0.0000 0.0000 28.2912
#
#
#
# Elastic Compliance Matrix: (Units=1/GPa)
#
#
# Indices 1 2 3 4 5 6 
#
# 1 0.016039 0.000262 -0.002867 0.000000 0.000000 0.000000
# 2 0.000262 0.012357 -0.001770 0.000000 0.000000 0.000000
# 3 -0.002867 -0.001770 0.006031 0.000000 0.000000 0.000000
# 4 0.000000 0.000000 0.000000 0.035928 0.000000 0.000000
# 5 0.000000 0.000000 0.000000 0.000000 0.101197 0.000000
# 6 0.000000 0.000000 0.000000 0.000000 0.000000 0.035347
#
#
# Mechanical properties :
#
#
# Convention : Reuss Voigt Hill
#
# Bulk Modulus (GPa) = 38.94419 52.08423 45.51421
# Shear Modulus (GPa) = 22.30064 31.81180 27.05622
#
# Velocity S-wave (km/s) = 3.27320 3.90938 3.60535
# Velocity P-wave (km/s) = 5.74412 6.73798 6.26080
#
# Compressibility (1/GPa) = 0.02567777
#
# Stress axis : x y z
#
# Youngs Moduli (GPa) = 62.34745 80.92556 165.80538
#
# Poissons Ratio (x) = -0.02120 0.47529
# Poissons Ratio (y) = -0.01633 0.29351
# Poissons Ratio (z) = 0.17872 0.14325
#
# Static dielectric constant tensor:
#      x y z
#    x 1.708060 0.000000 0.000000 
#    y 0.000000 1.745640 0.000000 
#    z 0.000000 0.000000 1.865870 
# 
# From -- ./inp_files/29633.got.cif
#   From: 2010.05.17/outbox.cif.g08.bks.cpg/sg22_15_cif.got.tgz:29633.got - 2010.06.03 23:40:54.
