data_PCOD9326216
_publ_section_title
;
Structure prediction by ZEFSAII (Michael W. Deem and Ramdas Pophale) SiO2 
 PCOD9326216
Probable space group: F 2 2 2
;
_chemical_formula_sum "Si O2"
_cell_formula_units_Z 116
_cell_length_a 18.950678
_cell_length_b 20.082332
_cell_length_c 14.007300
_cell_angle_alpha 90.000000
_cell_angle_beta 90.000000
_cell_angle_gamma 90.000000
_cell_volume 5330.811490
_symmetry_space_group_name_H-M "F 2 2 2"
_symmetry_group_IT_number 22
_symmetry_cell_setting 'orthorhombic'
loop_
_space_group_symop_operation_xyz
x,y,z
-x,-y,z
x,-y,-z
-x,y,-z
x,1/2+y,1/2+z
-x,1/2-y,1/2+z
x,1/2-y,1/2-z
-x,1/2+y,1/2-z
1/2+x,y,1/2+z
1/2-x,-y,1/2+z
1/2+x,-y,1/2-z
1/2-x,y,1/2-z
1/2+x,1/2+y,z
1/2-x,1/2-y,z
1/2+x,1/2-y,-z
1/2-x,1/2+y,-z
loop_
_atom_site_type_symbol
_atom_site_label
_atom_site_fract_x
_atom_site_fract_y
_atom_site_fract_z
Si Si1 0.250000 0.750000 0.250000
Si Si2 0.635903 0.349732 0.705985
Si Si3 0.581726 0.500856 0.744448
Si Si4 0.199989 0.984184 0.109034
Si Si5 0.349539 0.562524 0.428308
Si Si6 0.714015 0.864358 0.382779
Si Si7 0.816429 0.793372 0.937262
Si Si8 0.080951 0.190883 0.477817
O O1 0.201034 0.792680 0.176212
O O2 0.607613 0.426342 0.713437
O O3 0.654576 0.332680 0.814878
O O4 0.710314 0.338819 0.650744
O O5 0.585368 0.308940 0.637100
O O6 0.500000 0.500000 0.772547
O O7 0.632525 0.530744 0.826479
O O8 0.594048 0.546985 0.652794
O O9 0.222143 0.058099 0.142809
O O10 0.270393 0.939117 0.115954
O O11 0.180239 0.000000 0.000000
O O12 0.348466 0.500000 0.500000
O O13 0.372137 0.628645 0.483206
O O14 0.690911 0.855889 0.492464
O O15 0.750000 0.750000 0.974534
O O16 0.886510 0.754181 0.967138
O O17 0.000000 0.179809 0.500000
#
# Coordination Sequence:
#
# PCOD9326216 Si02
#       8
#     4  16  16  16  16  16  16  16
#     4   8  20  40  68  82 120 156 218 276 320 400
#     4  10  18  36  61  96 121 159 209 269 332 387
#     4  11  21  35  57  90 136 169 205 262 335 394
#     4  10  21  37  60  89 122 166 217 265 307 399
#     4  11  21  35  62  90 131 170 202 261 328 399
#     4  10  19  37  68  87 121 155 217 282 314 373
#     4  10  22  42  64  88 118 171 217 267 324 383
#     4  12  24  40  62  94 136 168 216 274 333 404
#
# _framework density 21.760289
#
# number of rings (size 3 to 8) (size 9 to 14) (size 15 to 20)
#    0.414    1.103    4.138    2.069    0.000    0.828 
#    4.966    1.379    6.069    0.000    0.000    0.000 
#    0.000    0.000    0.000    0.000    0.000    0.000 
#
# Total GULP energy -161663.798739 kJ/mol
# GULP energy per Si atom -5574.613750 kJ/mol
# Density = 2.171076 g / cm^3
# Si number density = 21.760289 Si / 1000 Ang^3
#
#
#
# Elastic Constant Matrix: (Units=GPa)
#
#
# Indices 1 2 3 4 5 6 
#
# 1 119.4127 24.3137 40.2391 0.0000 0.0000 0.0000
# 2 24.3137 63.2073 8.9461 0.0000 0.0000 0.0000
# 3 40.2391 8.9461 107.4639 0.0000 0.0000 0.0000
# 4 0.0000 0.0000 0.0000 16.8336 0.0000 0.0000
# 5 0.0000 0.0000 0.0000 0.0000 29.7756 0.0000
# 6 0.0000 0.0000 0.0000 0.0000 0.0000 19.5341
#
#
#
# Elastic Compliance Matrix: (Units=1/GPa)
#
#
# Indices 1 2 3 4 5 6 
#
# 1 0.010276 -0.003449 -0.003561 0.000000 0.000000 0.000000
# 2 -0.003449 0.017167 -0.000138 0.000000 0.000000 0.000000
# 3 -0.003561 -0.000138 0.010650 0.000000 0.000000 0.000000
# 4 0.000000 0.000000 0.000000 0.059405 0.000000 0.000000
# 5 0.000000 0.000000 0.000000 0.000000 0.033585 0.000000
# 6 0.000000 0.000000 0.000000 0.000000 0.000000 0.051193
#
#
# Mechanical properties :
#
#
# Convention : Reuss Voigt Hill
#
# Bulk Modulus (GPa) = 42.01882 48.56461 45.29171
# Shear Modulus (GPa) = 24.44941 27.66766 26.05854
#
# Velocity S-wave (km/s) = 3.35562 3.56964 3.46428
# Velocity P-wave (km/s) = 5.86220 6.27346 6.07131
#
# Compressibility (1/GPa) = 0.02379886
#
# Stress axis : x y z
#
# Youngs Moduli (GPa) = 97.30945 58.25071 93.89457
#
# Poissons Ratio (x) = 0.20091 0.33434
# Poissons Ratio (y) = 0.33562 0.01293
# Poissons Ratio (z) = 0.34650 0.00802
#
# Static dielectric constant tensor:
#      x y z
#    x 1.766740 0.000000 0.000000 
#    y 0.000000 1.890130 0.000000 
#    z 0.000000 0.000000 1.845130 
# 
# From -- ./inp_files/30932.got.cif
#   From: 2010.05.17/outbox.cif.g08.bks.cpg/sg22_16_cif.got.tgz:30932.got - 2010.06.03 23:40:54.
