data_PCOD9326007
_publ_section_title
;
Structure prediction by ZEFSAII (Michael W. Deem and Ramdas Pophale) SiO2 
 PCOD9326007
Probable space group: F 2 2 2
;
_chemical_formula_sum "Si O2"
_cell_formula_units_Z 64
_cell_length_a 8.517394
_cell_length_b 29.969918
_cell_length_c 11.182270
_cell_angle_alpha 90.000000
_cell_angle_beta 90.000000
_cell_angle_gamma 90.000000
_cell_volume 2854.448858
_symmetry_space_group_name_H-M "F 2 2 2"
_symmetry_group_IT_number 22
_symmetry_cell_setting 'orthorhombic'
loop_
_space_group_symop_operation_xyz
x,y,z
-x,-y,z
x,-y,-z
-x,y,-z
x,1/2+y,1/2+z
-x,1/2-y,1/2+z
x,1/2-y,1/2-z
-x,1/2+y,1/2-z
1/2+x,y,1/2+z
1/2-x,-y,1/2+z
1/2+x,-y,1/2-z
1/2-x,y,1/2-z
1/2+x,1/2+y,z
1/2-x,1/2-y,z
1/2+x,1/2-y,-z
1/2-x,1/2+y,-z
loop_
_atom_site_type_symbol
_atom_site_label
_atom_site_fract_x
_atom_site_fract_y
_atom_site_fract_z
Si Si1 0.985220 0.548309 0.786039
Si Si2 0.390063 0.369139 0.151452
Si Si3 0.666837 0.418187 0.500180
Si Si4 0.931047 0.266401 0.625027
O O1 0.002992 0.591456 0.704110
O O2 0.129394 0.550596 0.884801
O O3 0.000000 0.500000 0.728019
O O4 0.838273 0.555396 0.876296
O O5 0.250000 0.364634 0.250000
O O6 0.311072 0.387794 0.030893
O O7 0.449692 0.319769 0.131344
O O8 0.500000 0.390969 0.500000
O O9 0.003516 0.250000 0.750000
O O10 0.750000 0.250000 0.625313
O O11 0.000000 0.249713 0.500000
#
# Coordination Sequence:
#
# PCOD9326007 Si02
#       4
#    16  16  16  16
#     4   8  15  28  53  80 123 160 204 248 299 370
#     4  10  17  34  61  90 115 166 208 258 317 395
#     4   7  15  25  53  83 114 157 208 242 297 366
#     4  11  25  44  71  95 129 170 222 277 350 404
#
# _framework density 22.421140000000001
#
# number of rings (size 3 to 8) (size 9 to 14) (size 15 to 20)
#    1.500    1.250    2.500    1.500    0.000    3.500 
#    0.000    0.000   27.500    0.000    0.000    0.000 
#    0.000    0.000    0.000    0.000    0.000    0.000 
#
# Total GULP energy -89088.558051 kJ/mol
# GULP energy per Si atom -5568.034878 kJ/mol
# Density = 2.237011 g / cm^3
# Si number density = 22.421140 Si / 1000 Ang^3
#
#
#
# Elastic Constant Matrix: (Units=GPa)
#
#
# Indices 1 2 3 4 5 6 
#
# 1 31.8788 26.6903 29.5287 0.0000 0.0000 0.0000
# 2 26.6903 146.9732 49.8622 0.0000 0.0000 0.0000
# 3 29.5287 49.8622 140.8914 0.0000 0.0000 0.0000
# 4 0.0000 0.0000 0.0000 38.8113 0.0000 0.0000
# 5 0.0000 0.0000 0.0000 0.0000 33.0109 0.0000
# 6 0.0000 0.0000 0.0000 0.0000 0.0000 12.8241
#
#
#
# Elastic Compliance Matrix: (Units=1/GPa)
#
#
# Indices 1 2 3 4 5 6 
#
# 1 0.042282 -0.005309 -0.006983 0.000000 0.000000 0.000000
# 2 -0.005309 0.008399 -0.001860 0.000000 0.000000 0.000000
# 3 -0.006983 -0.001860 0.009219 0.000000 0.000000 0.000000
# 4 0.000000 0.000000 0.000000 0.025766 0.000000 0.000000
# 5 0.000000 0.000000 0.000000 0.000000 0.030293 0.000000
# 6 0.000000 0.000000 0.000000 0.000000 0.000000 0.077978
#
#
# Mechanical properties :
#
#
# Convention : Reuss Voigt Hill
#
# Bulk Modulus (GPa) = 31.64884 59.10065 45.37474
# Shear Modulus (GPa) = 21.48017 31.17342 26.32680
#
# Velocity S-wave (km/s) = 3.09857 3.73280 3.43037
# Velocity P-wave (km/s) = 5.19112 6.70783 5.99761
#
# Compressibility (1/GPa) = 0.03159674
#
# Stress axis : x y z
#
# Youngs Moduli (GPa) = 23.65077 119.06062 108.46857
#
# Poissons Ratio (x) = 0.63215 0.75739
# Poissons Ratio (y) = 0.12557 0.20172
# Poissons Ratio (z) = 0.16514 0.22142
#
# Static dielectric constant tensor:
#      x y z
#    x 1.922320 0.000000 0.000000 
#    y 0.000000 1.798830 0.000000 
#    z 0.000000 0.000000 1.923800 
# 
# From -- ./inp_files/16929.got.cif
#   From: 2010.05.17/outbox.cif.g08.bks.cpg/sg22_9_cif.got.tgz:16929.got - 2010.06.03 23:40:54.
