data_PCOD9326527
_publ_section_title
;
Structure prediction by ZEFSAII (Michael W. Deem and Ramdas Pophale) SiO2 
 PCOD9326527
Probable space group: F 2 2 2
;
_chemical_formula_sum "Si O2"
_cell_formula_units_Z 80
_cell_length_a 8.515615
_cell_length_b 27.327139
_cell_length_c 14.153540
_cell_angle_alpha 90.000000
_cell_angle_beta 90.000000
_cell_angle_gamma 90.000000
_cell_volume 3293.633420
_symmetry_space_group_name_H-M "F 2 2 2"
_symmetry_group_IT_number 22
_symmetry_cell_setting 'orthorhombic'
loop_
_space_group_symop_operation_xyz
x,y,z
-x,-y,z
x,-y,-z
-x,y,-z
x,1/2+y,1/2+z
-x,1/2-y,1/2+z
x,1/2-y,1/2-z
-x,1/2+y,1/2-z
1/2+x,y,1/2+z
1/2-x,-y,1/2+z
1/2+x,-y,1/2-z
1/2-x,y,1/2-z
1/2+x,1/2+y,z
1/2-x,1/2-y,z
1/2+x,1/2-y,-z
1/2-x,1/2+y,-z
loop_
_atom_site_type_symbol
_atom_site_label
_atom_site_fract_x
_atom_site_fract_y
_atom_site_fract_z
Si Si1 0.252452 0.054277 0.499989
Si Si2 0.494319 0.652676 0.229317
Si Si3 0.986960 0.946492 0.663653
Si Si4 0.655181 0.839392 0.450258
Si Si5 0.197866 0.805319 0.381144
O O1 0.172463 0.060986 0.603144
O O2 0.344527 0.102542 0.470683
O O3 0.117400 0.052680 0.419160
O O4 0.324733 0.000000 0.500000
O O5 0.510231 0.597013 0.263299
O O6 0.635243 0.667744 0.160622
O O7 0.336826 0.661561 0.166056
O O8 0.458673 0.683117 0.323631
O O9 0.000000 0.000000 0.709608
O O10 0.500000 0.816833 0.500000
O O11 0.800464 0.818144 0.508505
O O12 0.250000 0.750000 0.366623
#
# Coordination Sequence:
#
# PCOD9326527 Si02
#       5
#    16  16  16  16  16
#     4   9  18  36  58  83 125 174 213 255 323 392
#     4  10  19  36  61  88 121 157 215 266 315 387
#     4   9  18  35  59  86 122 173 214 258 323 385
#     4  10  21  37  58  89 122 158 210 270 320 387
#     4  10  21  41  64  86 127 174 218 269 333 383
#
# _framework density 24.289283999999999
#
# number of rings (size 3 to 8) (size 9 to 14) (size 15 to 20)
#    0.000    2.400    2.000    2.400    0.000    1.200 
#    7.200    8.000    0.000    0.000    0.000    0.000 
#    0.000    0.000    0.000    0.000    0.000    0.000 
#
# Total GULP energy -111715.469205 kJ/mol
# GULP energy per Si atom -5585.773460 kJ/mol
# Density = 2.423400 g / cm^3
# Si number density = 24.289284 Si / 1000 Ang^3
#
#
#
# Elastic Constant Matrix: (Units=GPa)
#
#
# Indices 1 2 3 4 5 6 
#
# 1 56.2250 19.0754 45.6726 0.0000 0.0000 0.0000
# 2 19.0754 137.2924 57.1379 0.0000 0.0000 0.0000
# 3 45.6726 57.1379 174.9720 0.0000 0.0000 0.0000
# 4 0.0000 0.0000 0.0000 13.8232 0.0000 0.0000
# 5 0.0000 0.0000 0.0000 0.0000 37.0966 0.0000
# 6 0.0000 0.0000 0.0000 0.0000 0.0000 20.4771
#
#
#
# Elastic Compliance Matrix: (Units=1/GPa)
#
#
# Indices 1 2 3 4 5 6 
#
# 1 0.022646 -0.000794 -0.005652 0.000000 0.000000 0.000000
# 2 -0.000794 0.008457 -0.002554 0.000000 0.000000 0.000000
# 3 -0.005652 -0.002554 0.008025 0.000000 0.000000 0.000000
# 4 0.000000 0.000000 0.000000 0.072342 0.000000 0.000000
# 5 0.000000 0.000000 0.000000 0.000000 0.026957 0.000000
# 6 0.000000 0.000000 0.000000 0.000000 0.000000 0.048835
#
#
# Mechanical properties :
#
#
# Convention : Reuss Voigt Hill
#
# Bulk Modulus (GPa) = 47.33296 68.02903 57.68099
# Shear Modulus (GPa) = 23.55093 30.71959 27.13526
#
# Velocity S-wave (km/s) = 3.11722 3.56017 3.34604
# Velocity P-wave (km/s) = 5.69961 6.70585 6.22310
#
# Compressibility (1/GPa) = 0.02112693
#
# Stress axis : x y z
#
# Youngs Moduli (GPa) = 44.15721 118.24303 124.61561
#
# Poissons Ratio (x) = 0.09392 0.70432
# Poissons Ratio (y) = 0.03507 0.31832
# Poissons Ratio (z) = 0.24958 0.30204
#
# Static dielectric constant tensor:
#      x y z
#    x 1.895000 0.000000 0.000000 
#    y 0.000000 1.900280 0.000000 
#    z 0.000000 0.000000 1.965030 
# 
# From -- ./inp_files/28281.got.cif
#   From: 2010.05.17/outbox.cif.g08.bks.cpg/sg22_15_cif.got.tgz:28281.got - 2010.06.03 23:40:54.
