data_PCOD9326757
_publ_section_title
;
Structure prediction by ZEFSAII (Michael W. Deem and Ramdas Pophale) SiO2 
 PCOD9326757
Probable space group: F 2 2 2
;
_chemical_formula_sum "Si O2"
_cell_formula_units_Z 60
_cell_length_a 32.142756
_cell_length_b 5.061596
_cell_length_c 21.528497
_cell_angle_alpha 90.000000
_cell_angle_beta 90.000000
_cell_angle_gamma 90.000000
_cell_volume 3502.549653
_symmetry_space_group_name_H-M "F 2 2 2"
_symmetry_group_IT_number 22
_symmetry_cell_setting 'orthorhombic'
loop_
_space_group_symop_operation_xyz
x,y,z
-x,-y,z
x,-y,-z
-x,y,-z
x,1/2+y,1/2+z
-x,1/2-y,1/2+z
x,1/2-y,1/2-z
-x,1/2+y,1/2-z
1/2+x,y,1/2+z
1/2-x,-y,1/2+z
1/2+x,-y,1/2-z
1/2-x,y,1/2-z
1/2+x,1/2+y,z
1/2-x,1/2-y,z
1/2+x,1/2-y,-z
1/2-x,1/2+y,-z
loop_
_atom_site_type_symbol
_atom_site_label
_atom_site_fract_x
_atom_site_fract_y
_atom_site_fract_z
Si Si1 0.563172 0.363138 0.099917
Si Si2 0.000000 0.500000 0.292673
Si Si3 0.000000 0.500000 0.500000
Si Si4 0.615739 0.618517 0.429857
Si Si5 0.795112 0.747797 0.045584
O O1 0.538191 0.427994 0.162153
O O2 0.589348 0.616057 0.077380
O O3 0.593052 0.112852 0.107772
O O4 0.528706 0.325158 0.045592
O O5 0.009950 0.250000 0.250000
O O6 0.615896 0.500000 0.500000
O O7 0.663445 0.694529 0.415090
O O8 0.750000 0.750000 0.078512
O O9 0.791163 0.500000 0.000000
O O10 0.801715 0.000000 0.000000
#
# Coordination Sequence:
#
# PCOD9326757 Si02
#       5
#    16   8   4  16  16
#     4  11  22  33  54  74 102 135 175 216 258 312
#     4  11  24  43  54  69  98 139 184 224 260 301
#     4  10  20  34  44  78 100 128 164 208 272 296
#     4  11  18  31  48  78 108 134 167 211 253 307
#     4   9  17  28  44  67 104 150 175 192 238 308
#
# _framework density 17.130378
#
# number of rings (size 3 to 8) (size 9 to 14) (size 15 to 20)
#    0.000    1.600    2.667    4.800    0.000    4.267 
#    0.000    0.000    0.000    0.000    0.000    0.000 
#    0.000   16.000    0.000    0.267    0.000    0.000 
#
# Total GULP energy -83640.429110 kJ/mol
# GULP energy per Si atom -5576.028607 kJ/mol
# Density = 1.709139 g / cm^3
# Si number density = 17.130378 Si / 1000 Ang^3
#
#
#
# Elastic Constant Matrix: (Units=GPa)
#
#
# Indices 1 2 3 4 5 6 
#
# 1 168.0812 56.3407 43.7595 -0.0021 -0.0031 0.0026
# 2 56.3407 121.0514 17.1817 -0.0086 -0.0093 0.0007
# 3 43.7595 17.1817 58.9639 -0.0031 -0.0057 -0.0011
# 4 -0.0021 -0.0086 -0.0031 20.5880 -0.0052 -0.0003
# 5 -0.0031 -0.0093 -0.0057 -0.0052 -13.5555 -0.0015
# 6 0.0026 0.0007 -0.0011 -0.0003 -0.0015 31.1751
#
#
#
# Elastic Compliance Matrix: (Units=1/GPa)
#
#
# Indices 1 2 3 4 5 6 
#
# 1 0.008387 -0.003150 -0.005306 -0.000001 0.000002 -0.000001
# 2 -0.003150 0.009801 -0.000518 0.000004 -0.000006 0.000000
# 3 -0.005306 -0.000518 0.021048 0.000002 -0.000007 0.000001
# 4 -0.000001 0.000004 0.000002 0.048572 -0.000019 0.000000
# 5 0.000002 -0.000006 -0.000007 -0.000019 -0.073771 -0.000004
# 6 -0.000001 0.000000 0.000001 0.000000 -0.000004 0.032077
#
#
# Mechanical properties :
#
#
# Convention : Reuss Voigt Hill
#
# Bulk Modulus (GPa) = 46.97686 64.74004 55.85845
# Shear Modulus (GPa) = 70.26528 23.02917 46.64723
#
# Velocity S-wave (km/s) = 6.41147 3.67051 5.22397
# Velocity P-wave (km/s) = 9.07149 7.47249 8.31054
#
# Compressibility (1/GPa) = 0.02128708
#
# Stress axis : x y z
#
# Youngs Moduli (GPa) = 119.23219 102.03322 47.50941
#
# Poissons Ratio (x) = 0.32144 0.25210
# Poissons Ratio (y) = 0.37563 0.02460
# Poissons Ratio (z) = 0.63269 0.05284
#
# Static dielectric constant tensor:
#      x y z
#    x 1.669120 0.000000 0.000000 
#    y 0.000000 1.592200 0.000000 
#    z 0.000000 0.000000 1.541280 
# 
# From -- ./inp_files/4711.got.cif
#   From: 2010.05.17/outbox.cif.g08.bks.cpg/sg22_3_cif.got.tgz:4711.got - 2010.06.03 23:40:54.
