data_PCOD9326623
_publ_section_title
;
Structure prediction by ZEFSAII (Michael W. Deem and Ramdas Pophale) SiO2 
 PCOD9326623
Probable space group: F 2 2 2
;
_chemical_formula_sum "Si O2"
_cell_formula_units_Z 64
_cell_length_a 12.222859
_cell_length_b 8.879867
_cell_length_c 25.565561
_cell_angle_alpha 90.000000
_cell_angle_beta 90.000000
_cell_angle_gamma 90.000000
_cell_volume 2774.818556
_symmetry_space_group_name_H-M "F 2 2 2"
_symmetry_group_IT_number 22
_symmetry_cell_setting 'orthorhombic'
loop_
_space_group_symop_operation_xyz
x,y,z
-x,-y,z
x,-y,-z
-x,y,-z
x,1/2+y,1/2+z
-x,1/2-y,1/2+z
x,1/2-y,1/2-z
-x,1/2+y,1/2-z
1/2+x,y,1/2+z
1/2-x,-y,1/2+z
1/2+x,-y,1/2-z
1/2-x,y,1/2-z
1/2+x,1/2+y,z
1/2-x,1/2-y,z
1/2+x,1/2-y,-z
1/2-x,1/2+y,-z
loop_
_atom_site_type_symbol
_atom_site_label
_atom_site_fract_x
_atom_site_fract_y
_atom_site_fract_z
Si Si1 0.500000 0.000000 0.609087
Si Si2 0.769310 0.568965 0.556856
Si Si3 0.073545 0.190711 0.802379
Si Si4 0.869557 0.002139 0.345284
Si Si5 0.250000 0.467120 0.250000
O O1 0.607468 0.971233 0.575188
O O2 0.497261 0.862560 0.650532
O O3 0.749193 0.500000 0.500000
O O4 0.750000 0.750000 0.556689
O O5 0.690443 0.492506 0.599743
O O6 0.016157 0.250000 0.750000
O O7 0.145197 0.326851 0.824514
O O8 0.154281 0.061070 0.780831
O O9 0.816542 0.900918 0.299507
O O10 0.000000 0.000000 0.349755
#
# Coordination Sequence:
#
# PCOD9326623 Si02
#       5
#     8  16  16  16   8
#     4  12  23  46  80 104 142 200 255 306 380 462
#     4  12  27  51  77 105 144 200 263 326 384 449
#     4  10  21  36  69 105 138 185 238 285 367 458
#     4  11  22  39  68 104 142 189 235 305 391 456
#     4  10  19  38  66  97 140 187 232 292 371 462
#
# _framework density 23.064571000000001
#
# number of rings (size 3 to 8) (size 9 to 14) (size 15 to 20)
#    0.000    1.000    5.000    3.750    7.000    2.500 
#    4.500    0.000    0.000    6.000    0.000    0.000 
#    0.000    0.000    0.000    0.000    0.000    0.000 
#
# Total GULP energy -89308.737746 kJ/mol
# GULP energy per Si atom -5581.796109 kJ/mol
# Density = 2.301207 g / cm^3
# Si number density = 23.064571 Si / 1000 Ang^3
#
#
#
# Elastic Constant Matrix: (Units=GPa)
#
#
# Indices 1 2 3 4 5 6 
#
# 1 181.6249 35.2553 101.7366 0.0000 0.0000 0.0000
# 2 35.2553 34.1676 20.4365 0.0000 0.0000 0.0000
# 3 101.7366 20.4365 234.4198 0.0000 0.0000 0.0000
# 4 0.0000 0.0000 0.0000 33.0098 0.0000 0.0000
# 5 0.0000 0.0000 0.0000 0.0000 31.0295 0.0000
# 6 0.0000 0.0000 0.0000 0.0000 0.0000 41.6843
#
#
#
# Elastic Compliance Matrix: (Units=1/GPa)
#
#
# Indices 1 2 3 4 5 6 
#
# 1 0.008623 -0.007025 -0.003130 0.000000 0.000000 0.000000
# 2 -0.007025 0.036601 -0.000142 0.000000 0.000000 0.000000
# 3 -0.003130 -0.000142 0.005637 0.000000 0.000000 0.000000
# 4 0.000000 0.000000 0.000000 0.030294 0.000000 0.000000
# 5 0.000000 0.000000 0.000000 0.000000 0.032227 0.000000
# 6 0.000000 0.000000 0.000000 0.000000 0.000000 0.023990
#
#
# Mechanical properties :
#
#
# Convention : Reuss Voigt Hill
#
# Bulk Modulus (GPa) = 33.03966 85.00767 59.02366
# Shear Modulus (GPa) = 29.75229 40.66363 35.20796
#
# Velocity S-wave (km/s) = 3.59549 4.20341 3.91128
# Velocity P-wave (km/s) = 5.62074 7.77782 6.78555
#
# Compressibility (1/GPa) = 0.03026666
#
# Stress axis : x y z
#
# Youngs Moduli (GPa) = 115.97429 27.32146 177.41506
#
# Poissons Ratio (x) = 0.19194 0.55526
# Poissons Ratio (y) = 0.81474 0.02519
# Poissons Ratio (z) = 0.36296 0.00388
#
# Static dielectric constant tensor:
#      x y z
#    x 1.899770 0.000000 0.000000 
#    y 0.000000 2.072220 0.000000 
#    z 0.000000 0.000000 1.845280 
# 
# From -- ./inp_files/23402.got.cif
#   From: 2010.05.17/outbox.cif.g08.bks.cpg/sg22_12_cif.got.tgz:23402.got - 2010.06.03 23:40:54.
