data_PCOD9326630
_publ_section_title
;
Structure prediction by ZEFSAII (Michael W. Deem and Ramdas Pophale) SiO2 
 PCOD9326630
Probable space group: F 2 2 2
;
_chemical_formula_sum "Si O2"
_cell_formula_units_Z 104
_cell_length_a 19.861349
_cell_length_b 8.990397
_cell_length_c 28.180326
_cell_angle_alpha 90.000000
_cell_angle_beta 90.000000
_cell_angle_gamma 90.000000
_cell_volume 5031.918814
_symmetry_space_group_name_H-M "F 2 2 2"
_symmetry_group_IT_number 22
_symmetry_cell_setting 'orthorhombic'
loop_
_space_group_symop_operation_xyz
x,y,z
-x,-y,z
x,-y,-z
-x,y,-z
x,1/2+y,1/2+z
-x,1/2-y,1/2+z
x,1/2-y,1/2-z
-x,1/2+y,1/2-z
1/2+x,y,1/2+z
1/2-x,-y,1/2+z
1/2+x,-y,1/2-z
1/2-x,y,1/2-z
1/2+x,1/2+y,z
1/2-x,1/2-y,z
1/2+x,1/2-y,-z
1/2-x,1/2+y,-z
loop_
_atom_site_type_symbol
_atom_site_label
_atom_site_fract_x
_atom_site_fract_y
_atom_site_fract_z
Si Si1 0.436844 0.404397 0.873522
Si Si2 0.397630 0.750000 0.750000
Si Si3 0.622371 0.105254 0.544415
Si Si4 0.351180 0.602912 0.655424
Si Si5 0.879273 0.305211 0.199599
Si Si6 0.750000 0.750000 0.417273
Si Si7 0.000000 0.500000 0.237766
Si Si8 0.528951 0.655935 0.418142
O O1 0.500000 0.500000 0.855527
O O2 0.397432 0.511684 0.908925
O O3 0.391673 0.337051 0.832617
O O4 0.469175 0.264378 0.901326
O O5 0.356671 0.702639 0.703122
O O6 0.445951 0.609721 0.761670
O O7 0.698749 0.157268 0.550522
O O8 0.574099 0.249544 0.545263
O O9 0.610750 0.000000 0.500000
O O10 0.339636 0.434771 0.672918
O O11 0.295523 0.652363 0.618048
O O12 0.421912 0.620905 0.626864
O O13 0.852379 0.250000 0.250000
O O14 0.951787 0.385870 0.209242
O O15 0.500000 0.500000 0.435520
#
# Coordination Sequence:
#
# PCOD9326630 Si02
#       8
#    16   8  16  16  16   8   8  16
#     4  10  21  36  62  96 139 171 203 264 341 395
#     4  10  20  33  54  96 128 175 220 262 310 378
#     4  10  24  47  71  98 121 164 228 279 338 406
#     4  10  22  39  62  91 133 181 228 264 313 384
#     4  11  21  31  55  94 137 172 220 258 313 383
#     4  10  24  51  68  82 122 178 235 282 324 380
#     4  10  20  30  50  86 136 173 211 260 308 398
#     4  10  19  38  68  99 141 169 197 260 342 416
#
# _framework density 20.668061000000002
#
# number of rings (size 3 to 8) (size 9 to 14) (size 15 to 20)
#    0.000    1.846    2.308    1.846    2.154    9.231 
#    2.769    1.538    0.000    2.769    0.000    0.000 
#    0.000    0.000    0.000    0.000    0.000    0.000 
#
# Total GULP energy -145279.120896 kJ/mol
# GULP energy per Si atom -5587.658496 kJ/mol
# Density = 2.062102 g / cm^3
# Si number density = 20.668061 Si / 1000 Ang^3
#
#
#
# Elastic Constant Matrix: (Units=GPa)
#
#
# Indices 1 2 3 4 5 6 
#
# 1 41.7638 23.9261 12.0606 0.0000 0.0000 0.0000
# 2 23.9261 125.0207 38.5774 0.0000 0.0000 0.0000
# 3 12.0606 38.5774 76.9052 0.0000 0.0000 0.0000
# 4 0.0000 0.0000 0.0000 43.3884 0.0000 0.0000
# 5 0.0000 0.0000 0.0000 0.0000 9.8038 0.0000
# 6 0.0000 0.0000 0.0000 0.0000 0.0000 11.6217
#
#
#
# Elastic Compliance Matrix: (Units=1/GPa)
#
#
# Indices 1 2 3 4 5 6 
#
# 1 0.027138 -0.004591 -0.001953 0.000000 0.000000 0.000000
# 2 -0.004591 0.010240 -0.004417 0.000000 0.000000 0.000000
# 3 -0.001953 -0.004417 0.015525 0.000000 0.000000 0.000000
# 4 0.000000 0.000000 0.000000 0.023048 0.000000 0.000000
# 5 0.000000 0.000000 0.000000 0.000000 0.102001 0.000000
# 6 0.000000 0.000000 0.000000 0.000000 0.000000 0.086046
#
#
# Mechanical properties :
#
#
# Convention : Reuss Voigt Hill
#
# Bulk Modulus (GPa) = 32.27696 43.64643 37.96170
# Shear Modulus (GPa) = 16.87783 24.23782 20.55783
#
# Velocity S-wave (km/s) = 2.86075 3.42821 3.15725
# Velocity P-wave (km/s) = 5.15389 6.06909 5.63012
#
# Compressibility (1/GPa) = 0.03098185
#
# Stress axis : x y z
#
# Youngs Moduli (GPa) = 36.84826 97.65488 64.41297
#
# Poissons Ratio (x) = 0.44833 0.12580
# Poissons Ratio (y) = 0.16917 0.28449
# Poissons Ratio (z) = 0.07196 0.43131
#
# Static dielectric constant tensor:
#      x y z
#    x 1.734430 0.000000 0.000000 
#    y 0.000000 1.749810 0.000000 
#    z 0.000000 0.000000 1.760450 
# 
# From -- ./inp_files/53951.got.cif
#   From: 2010.05.17/outbox.cif.g08.bks.cpg/sg22_27_cif.got.tgz:53951.got - 2010.06.03 23:40:54.
