data_PCOD9326397
_publ_section_title
;
Structure prediction by ZEFSAII (Michael W. Deem and Ramdas Pophale) SiO2 
 PCOD9326397
Probable space group: F 2 2 2
;
_chemical_formula_sum "Si O2"
_cell_formula_units_Z 68
_cell_length_a 22.810864
_cell_length_b 5.131589
_cell_length_c 26.493532
_cell_angle_alpha 90.000000
_cell_angle_beta 90.000000
_cell_angle_gamma 90.000000
_cell_volume 3101.226320
_symmetry_space_group_name_H-M "F 2 2 2"
_symmetry_group_IT_number 22
_symmetry_cell_setting 'orthorhombic'
loop_
_space_group_symop_operation_xyz
x,y,z
-x,-y,z
x,-y,-z
-x,y,-z
x,1/2+y,1/2+z
-x,1/2-y,1/2+z
x,1/2-y,1/2-z
-x,1/2+y,1/2-z
1/2+x,y,1/2+z
1/2-x,-y,1/2+z
1/2+x,-y,1/2-z
1/2-x,y,1/2-z
1/2+x,1/2+y,z
1/2-x,1/2-y,z
1/2+x,1/2-y,-z
1/2-x,1/2+y,-z
loop_
_atom_site_type_symbol
_atom_site_label
_atom_site_fract_x
_atom_site_fract_y
_atom_site_fract_z
Si Si1 0.894228 0.202215 0.545498
Si Si2 0.570241 0.020052 0.289925
Si Si3 0.500000 0.000000 0.500000
Si Si4 0.278906 0.002893 0.441589
Si Si5 0.571021 0.003644 0.151674
O O1 0.957104 0.322008 0.532503
O O2 0.847132 0.433038 0.553150
O O3 0.899987 0.066074 0.599066
O O4 0.878438 0.000000 0.500000
O O5 0.589636 0.250000 0.250000
O O6 0.584688 0.193381 0.338726
O O7 0.500000 0.000000 0.281838
O O8 0.587052 0.719668 0.305199
O O9 0.250000 0.250000 0.415420
O O10 0.257543 0.000000 0.500000
O O11 0.250000 0.750000 0.417948
O O12 0.500000 0.000000 0.148940
#
# Coordination Sequence:
#
# PCOD9326397 Si02
#       5
#    16  16   4  16  16
#     4  12  25  40  58  87 131 171 215 253 304 377
#     4  10  19  34  53  77 110 158 212 260 301 357
#     4  12  26  36  56  82 132 180 214 230 294 364
#     4  10  21  39  61  80 104 153 212 264 307 340
#     4  10  22  34  54  82 119 162 210 247 303 369
#
# _framework density 21.926811000000001
#
# number of rings (size 3 to 8) (size 9 to 14) (size 15 to 20)
#    0.000    1.412    1.176    6.706    8.235    0.000 
#    0.000    0.000    0.000    0.000    0.000    0.000 
#    0.000   14.118    0.000    0.941    0.000    0.235 
#
# Total GULP energy -94641.205719 kJ/mol
# GULP energy per Si atom -5567.129748 kJ/mol
# Density = 2.187690 g / cm^3
# Si number density = 21.926811 Si / 1000 Ang^3
#
#
#
# Elastic Constant Matrix: (Units=GPa)
#
#
# Indices 1 2 3 4 5 6 
#
# 1 96.2334 42.9667 6.8748 0.0007 0.0013 -0.0025
# 2 42.9667 183.2201 10.8869 0.0013 0.0068 -0.0053
# 3 6.8748 10.8869 47.7370 0.0008 0.0001 -0.0001
# 4 0.0007 0.0013 0.0008 28.7748 0.0012 -0.0011
# 5 0.0013 0.0068 0.0001 0.0012 9.6360 -0.0044
# 6 -0.0025 -0.0053 -0.0001 -0.0011 -0.0044 28.9874
#
#
#
# Elastic Compliance Matrix: (Units=1/GPa)
#
#
# Indices 1 2 3 4 5 6 
#
# 1 0.011660 -0.002671 -0.001070 0.000000 0.000000 0.000001
# 2 -0.002671 0.006145 -0.001017 0.000000 -0.000004 0.000001
# 3 -0.001070 -0.001017 0.021334 -0.000001 0.000001 0.000000
# 4 0.000000 0.000000 -0.000001 0.034753 -0.000004 0.000001
# 5 0.000000 -0.000004 0.000001 -0.000004 0.103778 0.000016
# 6 0.000001 0.000001 0.000000 0.000001 0.000016 0.034498
#
#
# Mechanical properties :
#
#
# Convention : Reuss Voigt Hill
#
# Bulk Modulus (GPa) = 33.75677 49.84971 41.80324
# Shear Modulus (GPa) = 21.59295 31.24378 26.41836
#
# Velocity S-wave (km/s) = 3.14151 3.77890 3.47485
# Velocity P-wave (km/s) = 5.34672 6.46715 5.93344
#
# Compressibility (1/GPa) = 0.02962369
#
# Stress axis : x y z
#
# Youngs Moduli (GPa) = 85.76067 162.74265 46.87331
#
# Poissons Ratio (x) = 0.43466 0.05016
# Poissons Ratio (y) = 0.22906 0.04766
# Poissons Ratio (z) = 0.09178 0.16546
#
# Static dielectric constant tensor:
#      x y z
#    x 1.779690 0.000010 0.000000 
#    y 0.000010 1.802790 0.000000 
#    z 0.000000 0.000000 1.929470 
# 
# From -- ./inp_files/53765.got.cif
#   From: 2010.05.17/outbox.cif.g08.bks.cpg/sg22_27_cif.got.tgz:53765.got - 2010.06.03 23:40:54.
