data_PCOD9326988
_publ_section_title
;
Structure prediction by ZEFSAII (Michael W. Deem and Ramdas Pophale) SiO2 
 PCOD9326988
Probable space group: F 2 2 2
;
_chemical_formula_sum "Si O2"
_cell_formula_units_Z 64
_cell_length_a 11.608094
_cell_length_b 28.449343
_cell_length_c 8.466591
_cell_angle_alpha 90.000000
_cell_angle_beta 90.000000
_cell_angle_gamma 90.000000
_cell_volume 2796.029430
_symmetry_space_group_name_H-M "F 2 2 2"
_symmetry_group_IT_number 22
_symmetry_cell_setting 'orthorhombic'
loop_
_space_group_symop_operation_xyz
x,y,z
-x,-y,z
x,-y,-z
-x,y,-z
x,1/2+y,1/2+z
-x,1/2-y,1/2+z
x,1/2-y,1/2-z
-x,1/2+y,1/2-z
1/2+x,y,1/2+z
1/2-x,-y,1/2+z
1/2+x,-y,1/2-z
1/2-x,y,1/2-z
1/2+x,1/2+y,z
1/2-x,1/2-y,z
1/2+x,1/2-y,-z
1/2-x,1/2+y,-z
loop_
_atom_site_type_symbol
_atom_site_label
_atom_site_fract_x
_atom_site_fract_y
_atom_site_fract_z
Si Si1 0.717471 0.456438 0.566117
Si Si2 0.853349 0.125192 0.378981
Si Si3 0.622901 0.766030 0.930615
Si Si4 0.939246 0.949467 0.848327
O O1 0.641364 0.500000 0.500000
O O2 0.750000 0.460327 0.750000
O O3 0.675929 0.403919 0.535717
O O4 0.814753 0.459281 0.425457
O O5 0.750000 0.129888 0.250000
O O6 0.884114 0.177505 0.426044
O O7 0.937042 0.088318 0.289116
O O8 0.624662 0.750000 0.750000
O O9 0.750000 0.750000 0.998164
O O10 0.500000 0.748073 0.000000
O O11 0.000000 0.000000 0.817788
O O12 0.000000 0.926883 0.000000
#
# Coordination Sequence:
#
# PCOD9326988 Si02
#       4
#    16  16  16  16
#     4  11  22  39  62  92 140 191 240 293 361 453
#     4  10  22  44  69  96 141 198 247 308 385 449
#     4  11  25  52  79 110 152 195 256 329 394 459
#     4  10  20  37  62  95 140 186 241 297 368 444
#
# _framework density 22.889602
#
# number of rings (size 3 to 8) (size 9 to 14) (size 15 to 20)
#    0.000    1.500    5.000    2.250    0.000    3.500 
#    4.500    1.250    0.000    0.000    0.000    0.000 
#    0.000    0.000    0.000    0.000    0.000    0.000 
#
# Total GULP energy -89086.568022 kJ/mol
# GULP energy per Si atom -5567.910501 kJ/mol
# Density = 2.283750 g / cm^3
# Si number density = 22.889602 Si / 1000 Ang^3
#
#
#
# Elastic Constant Matrix: (Units=GPa)
#
#
# Indices 1 2 3 4 5 6 
#
# 1 133.1471 29.2254 40.3184 0.0000 0.0000 0.0000
# 2 29.2254 166.8243 44.6814 0.0000 0.0000 0.0000
# 3 40.3184 44.6814 120.6577 0.0000 0.0000 0.0000
# 4 0.0000 0.0000 0.0000 23.2609 0.0000 0.0000
# 5 0.0000 0.0000 0.0000 0.0000 38.0405 0.0000
# 6 0.0000 0.0000 0.0000 0.0000 0.0000 37.6452
#
#
#
# Elastic Compliance Matrix: (Units=1/GPa)
#
#
# Indices 1 2 3 4 5 6 
#
# 1 0.008452 -0.000804 -0.002527 0.000000 0.000000 0.000000
# 2 -0.000804 0.006731 -0.002224 0.000000 0.000000 0.000000
# 3 -0.002527 -0.002224 0.009956 0.000000 0.000000 0.000000
# 4 0.000000 0.000000 0.000000 0.042991 0.000000 0.000000
# 5 0.000000 0.000000 0.000000 0.000000 0.026288 0.000000
# 6 0.000000 0.000000 0.000000 0.000000 0.000000 0.026564
#
#
# Mechanical properties :
#
#
# Convention : Reuss Voigt Hill
#
# Bulk Modulus (GPa) = 71.27724 72.11993 71.69858
# Shear Modulus (GPa) = 36.55875 40.21624 38.38750
#
# Velocity S-wave (km/s) = 4.00081 4.19616 4.09965
# Velocity P-wave (km/s) = 7.24908 7.41978 7.33493
#
# Compressibility (1/GPa) = 0.01402972
#
# Stress axis : x y z
#
# Youngs Moduli (GPa) = 118.31470 148.57060 100.44493
#
# Poissons Ratio (x) = 0.11945 0.25378
# Poissons Ratio (y) = 0.09512 0.22338
# Poissons Ratio (z) = 0.29893 0.33040
#
# Static dielectric constant tensor:
#      x y z
#    x 2.208760 0.000000 0.000000 
#    y 0.000000 1.873570 0.000000 
#    z 0.000000 0.000000 1.917060 
# 
# From -- ./inp_files/8540.got.cif
#   From: 2010.05.17/outbox.cif.g08.bks.cpg/sg22_5_cif.got.tgz:8540.got - 2010.06.03 23:40:54.
