data_PCOD9326845
_publ_section_title
;
Structure prediction by ZEFSAII (Michael W. Deem and Ramdas Pophale) SiO2 
 PCOD9326845
Probable space group: F 2 2 2
;
_chemical_formula_sum "Si O2"
_cell_formula_units_Z 72
_cell_length_a 13.862289
_cell_length_b 22.341392
_cell_length_c 12.558409
_cell_angle_alpha 90.000000
_cell_angle_beta 90.000000
_cell_angle_gamma 90.000000
_cell_volume 3889.374840
_symmetry_space_group_name_H-M "F 2 2 2"
_symmetry_group_IT_number 22
_symmetry_cell_setting 'orthorhombic'
loop_
_space_group_symop_operation_xyz
x,y,z
-x,-y,z
x,-y,-z
-x,y,-z
x,1/2+y,1/2+z
-x,1/2-y,1/2+z
x,1/2-y,1/2-z
-x,1/2+y,1/2-z
1/2+x,y,1/2+z
1/2-x,-y,1/2+z
1/2+x,-y,1/2-z
1/2-x,y,1/2-z
1/2+x,1/2+y,z
1/2-x,1/2-y,z
1/2+x,1/2-y,-z
1/2-x,1/2+y,-z
loop_
_atom_site_type_symbol
_atom_site_label
_atom_site_fract_x
_atom_site_fract_y
_atom_site_fract_z
Si Si1 0.364295 0.818512 0.275789
Si Si2 0.913398 0.892979 0.578942
Si Si3 0.163916 0.467317 0.331196
Si Si4 0.810307 0.595263 0.551645
Si Si5 0.000000 0.500000 0.814204
O O1 0.390084 0.750000 0.250000
O O2 0.250000 0.823839 0.250000
O O3 0.419668 0.856940 0.188509
O O4 0.367824 0.850329 0.391483
O O5 0.803234 0.887820 0.540238
O O6 0.000000 0.875891 0.500000
O O7 0.930889 0.961360 0.611974
O O8 0.250000 0.452761 0.250000
O O9 0.157910 0.426334 0.435463
O O10 0.178806 0.536342 0.372075
O O11 0.067220 0.462046 0.263097
#
# Coordination Sequence:
#
# PCOD9326845 Si02
#       5
#    16  16  16  16   8
#     4   9  18  38  61  79 106 151 203 242 277 343
#     4  11  21  34  55  84 108 150 193 237 288 352
#     4  11  20  34  52  83 120 153 180 239 293 361
#     4  10  20  36  55  79 117 152 193 232 293 343
#     4  12  21  33  54  78 118 150 184 226 298 360
#
# _framework density 18.511972
#
# number of rings (size 3 to 8) (size 9 to 14) (size 15 to 20)
#    0.000    1.556    4.444    2.333    3.111    1.778 
#    0.000    2.222    0.000    0.000    0.000   10.889 
#    0.000    0.000    0.000    0.000    0.000    0.000 
#
# Total GULP energy -100333.505343 kJ/mol
# GULP energy per Si atom -5574.083630 kJ/mol
# Density = 1.846984 g / cm^3
# Si number density = 18.511972 Si / 1000 Ang^3
#
#
#
# Elastic Constant Matrix: (Units=GPa)
#
#
# Indices 1 2 3 4 5 6 
#
# 1 56.3123 8.2482 26.7273 0.0000 0.0000 0.0000
# 2 8.2482 84.5695 43.1331 0.0000 0.0000 0.0000
# 3 26.7273 43.1331 107.5116 0.0000 0.0000 0.0000
# 4 0.0000 0.0000 0.0000 20.8728 0.0000 0.0000
# 5 0.0000 0.0000 0.0000 0.0000 27.5795 0.0000
# 6 0.0000 0.0000 0.0000 0.0000 0.0000 15.1355
#
#
#
# Elastic Compliance Matrix: (Units=1/GPa)
#
#
# Indices 1 2 3 4 5 6 
#
# 1 0.020171 0.000742 -0.005312 0.000000 0.000000 0.000000
# 2 0.000742 0.014894 -0.006160 0.000000 0.000000 0.000000
# 3 -0.005312 -0.006160 0.013093 0.000000 0.000000 0.000000
# 4 0.000000 0.000000 0.000000 0.047909 0.000000 0.000000
# 5 0.000000 0.000000 0.000000 0.000000 0.036259 0.000000
# 6 0.000000 0.000000 0.000000 0.000000 0.000000 0.066070
#
#
# Mechanical properties :
#
#
# Convention : Reuss Voigt Hill
#
# Bulk Modulus (GPa) = 37.45595 44.95673 41.20634
# Shear Modulus (GPa) = 21.85744 24.06988 22.96366
#
# Velocity S-wave (km/s) = 3.43989 3.60979 3.52586
# Velocity P-wave (km/s) = 6.00453 6.45848 6.23564
#
# Compressibility (1/GPa) = 0.02669803
#
# Stress axis : x y z
#
# Youngs Moduli (GPa) = 49.57688 67.14144 76.37540
#
# Poissons Ratio (x) = -0.04982 0.40572
# Poissons Ratio (y) = -0.03679 0.47046
# Poissons Ratio (z) = 0.26336 0.41358
#
# Static dielectric constant tensor:
#      x y z
#    x 1.566840 0.000000 0.000000 
#    y 0.000000 1.686630 0.000000 
#    z 0.000000 0.000000 1.648730 
# 
# From -- ./inp_files/19735.got.cif
#   From: 2010.05.17/outbox.cif.g08.bks.cpg/sg22_10_cif.got.tgz:19735.got - 2010.06.03 23:40:54.
