data_PCOD9326418
_publ_section_title
;
Structure prediction by ZEFSAII (Michael W. Deem and Ramdas Pophale) SiO2 
 PCOD9326418
Probable space group: F 2 2 2
;
_chemical_formula_sum "Si O2"
_cell_formula_units_Z 96
_cell_length_a 15.140407
_cell_length_b 19.887993
_cell_length_c 15.588006
_cell_angle_alpha 90.000000
_cell_angle_beta 90.000000
_cell_angle_gamma 90.000000
_cell_volume 4693.740471
_symmetry_space_group_name_H-M "F 2 2 2"
_symmetry_group_IT_number 22
_symmetry_cell_setting 'orthorhombic'
loop_
_space_group_symop_operation_xyz
x,y,z
-x,-y,z
x,-y,-z
-x,y,-z
x,1/2+y,1/2+z
-x,1/2-y,1/2+z
x,1/2-y,1/2-z
-x,1/2+y,1/2-z
1/2+x,y,1/2+z
1/2-x,-y,1/2+z
1/2+x,-y,1/2-z
1/2-x,y,1/2-z
1/2+x,1/2+y,z
1/2-x,1/2-y,z
1/2+x,1/2-y,-z
1/2-x,1/2+y,-z
loop_
_atom_site_type_symbol
_atom_site_label
_atom_site_fract_x
_atom_site_fract_y
_atom_site_fract_z
Si Si1 0.989151 0.427336 0.657769
Si Si2 0.093241 0.348049 0.048363
Si Si3 0.158071 0.716809 0.111918
Si Si4 0.349494 0.404859 0.724756
Si Si5 0.017669 0.276437 0.349551
Si Si6 0.842285 0.052410 0.696194
O O1 0.955729 0.353473 0.628799
O O2 0.922690 0.440078 0.737091
O O3 0.000000 0.500000 0.610245
O O4 0.086298 0.414886 0.695878
O O5 0.070701 0.279912 0.099129
O O6 0.134984 0.400920 0.115047
O O7 0.162216 0.324168 0.976416
O O8 0.000000 0.368764 0.000000
O O9 0.250000 0.750000 0.135757
O O10 0.120356 0.660636 0.175809
O O11 0.082048 0.771766 0.114744
O O12 0.250000 0.391330 0.750000
O O13 0.345788 0.473726 0.670785
O O14 0.023233 0.250000 0.250000
O O15 0.750000 0.064169 0.750000
#
# Coordination Sequence:
#
# PCOD9326418 Si02
#       6
#    16  16  16  16  16  16
#     4  10  19  34  57  87 116 149 200 249 296 348
#     4  10  22  40  57  86 124 158 199 250 309 368
#     4  11  23  35  56  86 117 150 192 250 311 358
#     4  10  20  35  58  90 120 152 205 254 297 367
#     4  11  19  36  61  85 112 152 200 245 290 358
#     4  10  21  37  59  89 122 161 204 246 297 369
#
# _framework density 20.452770000000001
#
# number of rings (size 3 to 8) (size 9 to 14) (size 15 to 20)
#    0.000    1.667    3.333    2.000    0.000    2.000 
#    0.000    3.333    0.000    6.500    0.000    0.000 
#    0.000    0.000    0.000    0.000    0.000    0.000 
#
# Total GULP energy -133613.943401 kJ/mol
# GULP energy per Si atom -5567.247642 kJ/mol
# Density = 2.040622 g / cm^3
# Si number density = 20.452770 Si / 1000 Ang^3
#
#
#
# Elastic Constant Matrix: (Units=GPa)
#
#
# Indices 1 2 3 4 5 6 
#
# 1 43.6207 -0.7721 -9.5564 0.0000 0.0000 0.0000
# 2 -0.7721 147.3613 24.7462 0.0000 0.0000 0.0000
# 3 -9.5564 24.7462 25.1758 0.0000 0.0000 0.0000
# 4 0.0000 0.0000 0.0000 11.0223 0.0000 0.0000
# 5 0.0000 0.0000 0.0000 0.0000 11.3016 0.0000
# 6 0.0000 0.0000 0.0000 0.0000 0.0000 28.9090
#
#
#
# Elastic Compliance Matrix: (Units=1/GPa)
#
#
# Indices 1 2 3 4 5 6 
#
# 1 0.025388 -0.001779 0.011385 0.000000 0.000000 0.000000
# 2 -0.001779 0.008252 -0.008787 0.000000 0.000000 0.000000
# 3 0.011385 -0.008787 0.052679 0.000000 0.000000 0.000000
# 4 0.000000 0.000000 0.000000 0.090725 0.000000 0.000000
# 5 0.000000 0.000000 0.000000 0.000000 0.088483 0.000000
# 6 0.000000 0.000000 0.000000 0.000000 0.000000 0.034591
#
#
# Mechanical properties :
#
#
# Convention : Reuss Voigt Hill
#
# Bulk Modulus (GPa) = 11.36898 27.22146 19.29522
# Shear Modulus (GPa) = 15.25327 23.69592 19.47459
#
# Velocity S-wave (km/s) = 2.73386 3.40747 3.08908
# Velocity P-wave (km/s) = 3.94158 5.36837 4.70932
#
# Compressibility (1/GPa) = 0.08795865
#
# Stress axis : x y z
#
# Youngs Moduli (GPa) = 39.38912 121.17897 18.98286
#
# Poissons Ratio (x) = 0.21557 -0.21613
# Poissons Ratio (y) = 0.07007 0.16680
# Poissons Ratio (z) = -0.44846 1.06476
#
# Static dielectric constant tensor:
#      x y z
#    x 1.730780 0.000000 0.000000 
#    y 0.000000 1.848590 0.000000 
#    z 0.000000 0.000000 1.804160 
# 
# From -- ./inp_files/29340.got.cif
#   From: 2010.05.17/outbox.cif.g08.bks.cpg/sg22_15_cif.got.tgz:29340.got - 2010.06.03 23:40:54.
