data_PCOD9326191
_publ_section_title
;
Structure prediction by ZEFSAII (Michael W. Deem and Ramdas Pophale) SiO2 
 PCOD9326191
Probable space group: F 2 2 2
;
_chemical_formula_sum "Si O2"
_cell_formula_units_Z 80
_cell_length_a 25.377807
_cell_length_b 8.896854
_cell_length_c 16.749405
_cell_angle_alpha 90.000000
_cell_angle_beta 90.000000
_cell_angle_gamma 90.000000
_cell_volume 3781.724942
_symmetry_space_group_name_H-M "F 2 2 2"
_symmetry_group_IT_number 22
_symmetry_cell_setting 'orthorhombic'
loop_
_space_group_symop_operation_xyz
x,y,z
-x,-y,z
x,-y,-z
-x,y,-z
x,1/2+y,1/2+z
-x,1/2-y,1/2+z
x,1/2-y,1/2-z
-x,1/2+y,1/2-z
1/2+x,y,1/2+z
1/2-x,-y,1/2+z
1/2+x,-y,1/2-z
1/2-x,y,1/2-z
1/2+x,1/2+y,z
1/2-x,1/2-y,z
1/2+x,1/2-y,-z
1/2-x,1/2+y,-z
loop_
_atom_site_type_symbol
_atom_site_label
_atom_site_fract_x
_atom_site_fract_y
_atom_site_fract_z
Si Si1 0.500000 0.500000 0.633681
Si Si2 0.810752 0.197020 0.161888
Si Si3 0.806048 0.326795 0.995144
Si Si4 0.954136 0.250000 0.250000
Si Si5 0.887483 0.024525 0.801286
Si Si6 0.900326 0.834012 0.372332
O O1 0.485414 0.359479 0.690893
O O2 0.447895 0.566012 0.591886
O O3 0.828323 0.250000 0.250000
O O4 0.750000 0.250000 0.159771
O O5 0.830198 0.269654 0.079534
O O6 0.830446 0.024448 0.163616
O O7 0.750000 0.250000 0.978355
O O8 0.792326 0.500000 0.000000
O O9 0.850612 0.315844 0.928922
O O10 0.921418 0.371643 0.302127
O O11 0.883921 0.079710 0.709521
O O12 0.913950 0.162836 0.847350
#
# Coordination Sequence:
#
# PCOD9326191 Si02
#       6
#     8  16  16   8  16  16
#     4  10  20  38  63  98 132 183 224 292 334 419
#     4  10  21  38  66  93 130 177 231 271 337 417
#     4  11  26  43  67  96 138 179 222 283 354 414
#     4  10  18  34  65  94 133 174 232 276 350 392
#     4  10  20  38  65  98 132 183 229 286 333 414
#     4  10  23  41  64 100 139 173 232 285 347 401
#
# _framework density 21.154367000000001
#
# number of rings (size 3 to 8) (size 9 to 14) (size 15 to 20)
#    0.000    1.800    1.000    3.600    8.400    0.000 
#    0.000    1.500    0.000    0.000    5.200    0.000 
#    0.000    0.000    0.000    0.000    0.000    0.000 
#
# Total GULP energy -111413.821538 kJ/mol
# GULP energy per Si atom -5570.691077 kJ/mol
# Density = 2.110622 g / cm^3
# Si number density = 21.154367 Si / 1000 Ang^3
#
#
#
# Elastic Constant Matrix: (Units=GPa)
#
#
# Indices 1 2 3 4 5 6 
#
# 1 98.7330 61.8464 49.8723 0.0000 0.0000 0.0000
# 2 61.8464 163.7480 47.3877 0.0000 0.0000 0.0000
# 3 49.8723 47.3877 82.6732 0.0000 0.0000 0.0000
# 4 0.0000 0.0000 0.0000 13.7811 0.0000 0.0000
# 5 0.0000 0.0000 0.0000 0.0000 86.2166 0.0000
# 6 0.0000 0.0000 0.0000 0.0000 0.0000 49.5951
#
#
#
# Elastic Compliance Matrix: (Units=1/GPa)
#
#
# Indices 1 2 3 4 5 6 
#
# 1 0.016516 -0.004022 -0.007658 0.000000 0.000000 0.000000
# 2 -0.004022 0.008301 -0.002332 0.000000 0.000000 0.000000
# 3 -0.007658 -0.002332 0.018052 0.000000 0.000000 0.000000
# 4 0.000000 0.000000 0.000000 0.072563 0.000000 0.000000
# 5 0.000000 0.000000 0.000000 0.000000 0.011599 0.000000
# 6 0.000000 0.000000 0.000000 0.000000 0.000000 0.020163
#
#
# Mechanical properties :
#
#
# Convention : Reuss Voigt Hill
#
# Bulk Modulus (GPa) = 67.35979 73.70743 70.53361
# Shear Modulus (GPa) = 27.75237 42.32174 35.03705
#
# Velocity S-wave (km/s) = 3.62594 4.47768 4.07413
# Velocity P-wave (km/s) = 7.03144 7.85182 7.45292
#
# Compressibility (1/GPa) = 0.01484565
#
# Stress axis : x y z
#
# Youngs Moduli (GPa) = 60.54863 120.47116 55.39574
#
# Poissons Ratio (x) = 0.48450 0.42421
# Poissons Ratio (y) = 0.24351 0.12917
# Poissons Ratio (z) = 0.46367 0.28092
#
# Static dielectric constant tensor:
#      x y z
#    x 1.912550 0.000000 0.000000 
#    y 0.000000 1.779150 0.000000 
#    z 0.000000 0.000000 1.788070 
# 
# From -- ./inp_files/39901.got.cif
#   From: 2010.05.17/outbox.cif.g08.bks.cpg/sg22_20_cif.got.tgz:39901.got - 2010.06.03 23:40:54.
