data_PCOD9326256
_publ_section_title
;
Structure prediction by ZEFSAII (Michael W. Deem and Ramdas Pophale) SiO2 
 PCOD9326256
Probable space group: F 2 2 2
;
_chemical_formula_sum "Si O2"
_cell_formula_units_Z 100
_cell_length_a 14.371813
_cell_length_b 16.347858
_cell_length_c 20.283318
_cell_angle_alpha 90.000000
_cell_angle_beta 90.000000
_cell_angle_gamma 90.000000
_cell_volume 4765.532261
_symmetry_space_group_name_H-M "F 2 2 2"
_symmetry_group_IT_number 22
_symmetry_cell_setting 'orthorhombic'
loop_
_space_group_symop_operation_xyz
x,y,z
-x,-y,z
x,-y,-z
-x,y,-z
x,1/2+y,1/2+z
-x,1/2-y,1/2+z
x,1/2-y,1/2-z
-x,1/2+y,1/2-z
1/2+x,y,1/2+z
1/2-x,-y,1/2+z
1/2+x,-y,1/2-z
1/2-x,y,1/2-z
1/2+x,1/2+y,z
1/2-x,1/2-y,z
1/2+x,1/2-y,-z
1/2-x,1/2+y,-z
loop_
_atom_site_type_symbol
_atom_site_label
_atom_site_fract_x
_atom_site_fract_y
_atom_site_fract_z
Si Si1 0.598140 0.819700 0.465735
Si Si2 0.270159 0.428625 0.822841
Si Si3 0.388036 0.871250 0.934268
Si Si4 0.592440 0.115602 0.087779
Si Si5 0.157148 0.793068 0.101420
Si Si6 0.750000 0.750000 0.250000
Si Si7 0.299249 0.388716 0.150288
O O1 0.500000 0.837311 0.500000
O O2 0.603208 0.726809 0.440953
O O3 0.670339 0.823552 0.526442
O O4 0.623399 0.877036 0.405674
O O5 0.250000 0.397267 0.750000
O O6 0.175059 0.420411 0.866943
O O7 0.351223 0.373153 0.855078
O O8 0.302420 0.522164 0.818354
O O9 0.483952 0.907265 0.904547
O O10 0.298975 0.885692 0.889129
O O11 0.382483 0.899623 0.010753
O O12 0.590544 0.214938 0.098846
O O13 0.250000 0.750000 0.126574
O O14 0.696415 0.686521 0.201831
#
# Coordination Sequence:
#
# PCOD9326256 Si02
#       7
#    16  16  16  16  16   4  16
#     4  11  19  37  68  93 121 158 211 274 316 386
#     4  11  24  40  58  88 135 172 215 263 314 394
#     4  10  18  38  68  95 125 159 215 274 319 382
#     4   9  19  37  66  97 121 164 209 270 330 374
#     4   9  18  35  61  90 121 158 203 255 325 370
#     4  12  24  40  64  88 122 184 224 240 328 416
#     4  12  24  40  64  92 124 173 217 263 326 390
#
# _framework density 20.984014999999999
#
# number of rings (size 3 to 8) (size 9 to 14) (size 15 to 20)
#    0.000    1.600    5.600    2.880    0.000    6.080 
#    0.000    6.400    3.520    0.000    0.000    0.000 
#    0.000    0.000    0.000    0.000    0.000    0.000 
#
# Total GULP energy -139373.380795 kJ/mol
# GULP energy per Si atom -5574.935232 kJ/mol
# Density = 2.093625 g / cm^3
# Si number density = 20.984015 Si / 1000 Ang^3
#
#
#
# Elastic Constant Matrix: (Units=GPa)
#
#
# Indices 1 2 3 4 5 6 
#
# 1 50.4502 7.9658 4.9286 0.0000 0.0000 0.0000
# 2 7.9658 99.0078 38.5286 0.0000 0.0000 0.0000
# 3 4.9286 38.5286 79.7763 0.0000 0.0000 0.0000
# 4 0.0000 0.0000 0.0000 5.9329 0.0000 0.0000
# 5 0.0000 0.0000 0.0000 0.0000 14.5345 0.0000
# 6 0.0000 0.0000 0.0000 0.0000 0.0000 -0.7264
#
#
#
# Elastic Compliance Matrix: (Units=1/GPa)
#
#
# Indices 1 2 3 4 5 6 
#
# 1 0.020097 -0.001396 -0.000567 0.000000 0.000000 0.000000
# 2 -0.001396 0.012535 -0.005968 0.000000 0.000000 0.000000
# 3 -0.000567 -0.005968 0.015452 0.000000 0.000000 0.000000
# 4 0.000000 0.000000 0.000000 0.168553 0.000000 0.000000
# 5 0.000000 0.000000 0.000000 0.000000 0.068802 0.000000
# 6 0.000000 0.000000 0.000000 0.000000 0.000000 -1.376624
#
#
# Mechanical properties :
#
#
# Convention : Reuss Voigt Hill
#
# Bulk Modulus (GPa) = 31.03442 36.89781 33.96612
# Shear Modulus (GPa) = -4.69668 15.80228 5.55280
#
# Velocity S-wave (km/s) = -1.49769 2.74718 1.62848
# Velocity P-wave (km/s) = 3.43961 5.26161 4.44497
#
# Compressibility (1/GPa) = 0.03222228
#
# Stress axis : x y z
#
# Youngs Moduli (GPa) = 49.75766 79.77798 64.71593
#
# Poissons Ratio (x) = 0.11139 0.03671
# Poissons Ratio (y) = 0.06947 0.38619
# Poissons Ratio (z) = 0.02823 0.47608
#
# Static dielectric constant tensor:
#      x y z
#    x 1.817760 0.000000 0.000000 
#    y 0.000000 1.815940 0.000000 
#    z 0.000000 0.000000 1.760540 
# 
# From -- ./inp_files/43644.got.cif
#   From: 2010.05.17/outbox.cif.g08.bks.cpg/sg22_22_cif.got.tgz:43644.got - 2010.06.03 23:40:54.
