data_PCOD9326595
_publ_section_title
;
Structure prediction by ZEFSAII (Michael W. Deem and Ramdas Pophale) SiO2 
 PCOD9326595
Probable space group: F 2 2 2
;
_chemical_formula_sum "Si O2"
_cell_formula_units_Z 92
_cell_length_a 26.891457
_cell_length_b 21.216068
_cell_length_c 7.208788
_cell_angle_alpha 90.000000
_cell_angle_beta 90.000000
_cell_angle_gamma 90.000000
_cell_volume 4112.836885
_symmetry_space_group_name_H-M "F 2 2 2"
_symmetry_group_IT_number 22
_symmetry_cell_setting 'orthorhombic'
loop_
_space_group_symop_operation_xyz
x,y,z
-x,-y,z
x,-y,-z
-x,y,-z
x,1/2+y,1/2+z
-x,1/2-y,1/2+z
x,1/2-y,1/2-z
-x,1/2+y,1/2-z
1/2+x,y,1/2+z
1/2-x,-y,1/2+z
1/2+x,-y,1/2-z
1/2-x,y,1/2-z
1/2+x,1/2+y,z
1/2-x,1/2-y,z
1/2+x,1/2-y,-z
1/2-x,1/2+y,-z
loop_
_atom_site_type_symbol
_atom_site_label
_atom_site_fract_x
_atom_site_fract_y
_atom_site_fract_z
Si Si1 0.912234 0.378645 0.761154
Si Si2 0.167389 0.430881 0.942372
Si Si3 0.913368 0.920860 0.854448
Si Si4 0.987444 0.175291 0.216895
Si Si5 0.134152 0.250000 0.250000
Si Si6 0.000000 0.500000 0.500000
Si Si7 0.722157 0.310218 0.548341
O O1 0.904889 0.417634 0.574250
O O2 0.897488 0.308801 0.691236
O O3 0.968972 0.364136 0.820053
O O4 0.875488 0.408119 0.911731
O O5 0.136540 0.438124 0.752227
O O6 0.186425 0.500000 0.000000
O O7 0.209440 0.375972 0.948703
O O8 0.933334 0.855585 0.763770
O O9 0.963112 0.963406 0.859247
O O10 0.988225 0.250000 0.250000
O O11 0.000000 0.165212 0.000000
O O12 0.169281 0.278761 0.094188
O O13 0.750000 0.322304 0.750000
O O14 0.750000 0.250000 0.460339
#
# Coordination Sequence:
#
# PCOD9326595 Si02
#       7
#    16  16  16  16   8   4  16
#     4  10  19  38  55  86 130 173 225 278 325 376
#     4  11  24  38  66  99 124 171 227 276 342 422
#     4  11  24  38  56  88 132 187 230 276 319 381
#     4  10  21  34  52  82 121 175 229 279 325 363
#     4   8  15  30  68  90 112 162 210 262 339 402
#     4  12  20  44  54  76 148 202 232 266 314 368
#     4   8  17  39  71  98 123 164 203 273 362 422
#
# _framework density 22.36899
#
# number of rings (size 3 to 8) (size 9 to 14) (size 15 to 20)
#    0.000    2.261    3.478    1.043    2.435    1.391 
#    0.000    0.000   11.478    9.391    0.000    0.000 
#    0.000    0.000    0.000    0.000    0.000    0.000 
#
# Total GULP energy -128100.085571 kJ/mol
# GULP energy per Si atom -5569.568938 kJ/mol
# Density = 2.231808 g / cm^3
# Si number density = 22.368990 Si / 1000 Ang^3
#
#
#
# Elastic Constant Matrix: (Units=GPa)
#
#
# Indices 1 2 3 4 5 6 
#
# 1 61.8215 35.5847 20.2980 -0.0002 0.0000 -0.0003
# 2 35.5847 140.6435 18.6327 0.0006 0.0019 -0.0009
# 3 20.2980 18.6327 64.4820 0.0003 -0.0049 -0.0028
# 4 -0.0002 0.0006 0.0003 26.6478 0.0001 -0.0012
# 5 0.0000 0.0019 -0.0049 0.0001 288.1327 -0.0073
# 6 -0.0003 -0.0009 -0.0028 -0.0012 -0.0073 40.3455
#
#
#
# Elastic Compliance Matrix: (Units=1/GPa)
#
#
# Indices 1 2 3 4 5 6 
#
# 1 0.020449 -0.004493 -0.005139 0.000000 0.000000 0.000000
# 2 -0.004493 0.008380 -0.001007 0.000000 0.000000 0.000000
# 3 -0.005139 -0.001007 0.017417 0.000000 0.000000 0.000001
# 4 0.000000 0.000000 0.000000 0.037527 0.000000 0.000001
# 5 0.000000 0.000000 0.000000 0.000000 0.003471 0.000001
# 6 0.000000 0.000000 0.000001 0.000001 0.000001 0.024786
#
#
# Mechanical properties :
#
#
# Convention : Reuss Voigt Hill
#
# Bulk Modulus (GPa) = 40.05097 46.21973 43.13535
# Shear Modulus (GPa) = 35.30319 83.85398 59.57859
#
# Velocity S-wave (km/s) = 3.97699 6.12928 5.16646
# Velocity P-wave (km/s) = 6.24757 8.41416 7.41047
#
# Compressibility (1/GPa) = 0.02496818
#
# Stress axis : x y z
#
# Youngs Moduli (GPa) = 48.90205 119.32562 57.41569
#
# Poissons Ratio (x) = 0.53614 0.29504
# Poissons Ratio (y) = 0.21972 0.05783
# Poissons Ratio (z) = 0.25129 0.12019
#
# Static dielectric constant tensor:
#      x y z
#    x 1.876850 0.000000 0.000000 
#    y 0.000000 -0.387000 -0.000030 
#    z 0.000000 -0.000030 1.855590 
# 
# From -- ./inp_files/15601.got.cif
#   From: 2010.05.17/outbox.cif.g08.bks.cpg/sg22_8_cif.got.tgz:15601.got - 2010.06.03 23:40:54.
