data_PCOD9326084
_publ_section_title
;
Structure prediction by ZEFSAII (Michael W. Deem and Ramdas Pophale) SiO2 
 PCOD9326084
Probable space group: F 2 2 2
;
_chemical_formula_sum "Si O2"
_cell_formula_units_Z 112
_cell_length_a 28.225636
_cell_length_b 10.219882
_cell_length_c 20.604374
_cell_angle_alpha 90.000000
_cell_angle_beta 90.000000
_cell_angle_gamma 90.000000
_cell_volume 5943.592723
_symmetry_space_group_name_H-M "F 2 2 2"
_symmetry_group_IT_number 22
_symmetry_cell_setting 'orthorhombic'
loop_
_space_group_symop_operation_xyz
x,y,z
-x,-y,z
x,-y,-z
-x,y,-z
x,1/2+y,1/2+z
-x,1/2-y,1/2+z
x,1/2-y,1/2-z
-x,1/2+y,1/2-z
1/2+x,y,1/2+z
1/2-x,-y,1/2+z
1/2+x,-y,1/2-z
1/2-x,y,1/2-z
1/2+x,1/2+y,z
1/2-x,1/2-y,z
1/2+x,1/2-y,-z
1/2-x,1/2+y,-z
loop_
_atom_site_type_symbol
_atom_site_label
_atom_site_fract_x
_atom_site_fract_y
_atom_site_fract_z
Si Si1 0.389996 0.811762 0.061486
Si Si2 0.705749 0.662133 0.931007
Si Si3 0.711322 0.138420 0.586456
Si Si4 0.530260 0.379888 0.793245
Si Si5 0.495148 0.771648 0.427277
Si Si6 0.871680 0.201857 0.816833
Si Si7 0.414318 0.388098 0.419093
O O1 0.344516 0.731100 0.086249
O O2 0.439841 0.751625 0.083298
O O3 0.395395 0.964405 0.080612
O O4 0.391349 0.817977 0.982404
O O5 0.750000 0.750000 0.911544
O O6 0.719417 0.517095 0.907045
O O7 0.703641 0.657003 0.009576
O O8 0.750000 0.250000 0.604648
O O9 0.665891 0.158366 0.631034
O O10 0.500000 0.500000 0.766379
O O11 0.522320 0.250000 0.750000
O O12 0.514081 0.354602 0.867274
O O13 0.586859 0.399736 0.797900
O O14 0.500000 0.828665 0.500000
O O15 0.529433 0.642130 0.427842
O O16 0.849142 0.250000 0.750000
O O17 0.899195 0.319462 0.852885
#
# Coordination Sequence:
#
# PCOD9326084 Si02
#       7
#    16  16  16  16  16  16  16
#     4  10  18  31  59  85 121 154 188 251 297 354
#     4  10  22  36  59  93 119 150 192 249 316 365
#     4  10  22  39  61  85 121 153 196 249 303 367
#     4  10  23  40  61  85 125 166 204 248 295 369
#     4   9  19  34  53  91 123 158 196 243 303 362
#     4  10  21  38  60  87 115 158 207 238 285 356
#     4   9  18  32  54  88 123 155 192 233 297 361
#
# _framework density 18.843821999999999
#
# number of rings (size 3 to 8) (size 9 to 14) (size 15 to 20)
#    0.000    2.286    1.429    0.429    4.000    6.857 
#    0.000    0.000    0.000    0.000    0.000    0.000 
#    0.000    0.000    0.000    0.000    0.000    0.000 
#
# Total GULP energy -155870.133611 kJ/mol
# GULP energy per Si atom -5566.790486 kJ/mol
# Density = 1.880093 g / cm^3
# Si number density = 18.843822 Si / 1000 Ang^3
#
#
#
# Elastic Constant Matrix: (Units=GPa)
#
#
# Indices 1 2 3 4 5 6 
#
# 1 124.8801 78.8545 10.0833 0.0000 0.0000 0.0000
# 2 78.8545 105.0846 14.6114 0.0000 0.0000 0.0000
# 3 10.0833 14.6114 62.3654 0.0000 0.0000 0.0000
# 4 0.0000 0.0000 0.0000 11.9594 0.0000 0.0000
# 5 0.0000 0.0000 0.0000 0.0000 18.6151 0.0000
# 6 0.0000 0.0000 0.0000 0.0000 0.0000 23.5458
#
#
#
# Elastic Compliance Matrix: (Units=1/GPa)
#
#
# Indices 1 2 3 4 5 6 
#
# 1 0.015222 -0.011453 0.000222 0.000000 0.000000 0.000000
# 2 -0.011453 0.018454 -0.002472 0.000000 0.000000 0.000000
# 3 0.000222 -0.002472 0.016578 0.000000 0.000000 0.000000
# 4 0.000000 0.000000 0.000000 0.083616 0.000000 0.000000
# 5 0.000000 0.000000 0.000000 0.000000 0.053720 0.000000
# 6 0.000000 0.000000 0.000000 0.000000 0.000000 0.042470
#
#
# Mechanical properties :
#
#
# Convention : Reuss Voigt Hill
#
# Bulk Modulus (GPa) = 43.76713 55.49206 49.62960
# Shear Modulus (GPa) = 18.86212 23.40946 21.13579
#
# Velocity S-wave (km/s) = 3.16725 3.52843 3.35271
# Velocity P-wave (km/s) = 6.05408 6.79059 6.43289
#
# Compressibility (1/GPa) = 0.02284820
#
# Stress axis : x y z
#
# Youngs Moduli (GPa) = 65.69557 54.18829 60.32202
#
# Poissons Ratio (x) = 0.62063 -0.01341
# Poissons Ratio (y) = 0.75242 0.14910
# Poissons Ratio (z) = -0.01460 0.13394
#
# Static dielectric constant tensor:
#      x y z
#    x 1.675240 0.000000 0.000000 
#    y 0.000000 1.736580 0.000000 
#    z 0.000000 0.000000 1.639600 
# 
# From -- ./inp_files/45865.got.cif
#   From: 2010.05.17/outbox.cif.g08.bks.cpg/sg22_23_cif.got.tgz:45865.got - 2010.06.03 23:40:54.
