data_PCOD9326619
_publ_section_title
;
Structure prediction by ZEFSAII (Michael W. Deem and Ramdas Pophale) SiO2 
 PCOD9326619
Probable space group: F 2 2 2
;
_chemical_formula_sum "Si O2"
_cell_formula_units_Z 92
_cell_length_a 20.917377
_cell_length_b 13.473820
_cell_length_c 14.200699
_cell_angle_alpha 90.000000
_cell_angle_beta 90.000000
_cell_angle_gamma 90.000000
_cell_volume 4002.282015
_symmetry_space_group_name_H-M "F 2 2 2"
_symmetry_group_IT_number 22
_symmetry_cell_setting 'orthorhombic'
loop_
_space_group_symop_operation_xyz
x,y,z
-x,-y,z
x,-y,-z
-x,y,-z
x,1/2+y,1/2+z
-x,1/2-y,1/2+z
x,1/2-y,1/2-z
-x,1/2+y,1/2-z
1/2+x,y,1/2+z
1/2-x,-y,1/2+z
1/2+x,-y,1/2-z
1/2-x,y,1/2-z
1/2+x,1/2+y,z
1/2-x,1/2-y,z
1/2+x,1/2-y,-z
1/2-x,1/2+y,-z
loop_
_atom_site_type_symbol
_atom_site_label
_atom_site_fract_x
_atom_site_fract_y
_atom_site_fract_z
Si Si1 0.934359 0.627385 0.137476
Si Si2 0.071698 0.982143 0.833633
Si Si3 0.065316 0.341345 0.803787
Si Si4 0.844706 0.000000 0.500000
Si Si5 0.350169 0.818743 0.599926
Si Si6 0.250000 0.250000 0.250000
Si Si7 0.690422 0.297357 0.417570
O O1 0.929403 0.595233 0.246202
O O2 0.904989 0.735684 0.119648
O O3 0.010931 0.620458 0.124153
O O4 0.890602 0.552754 0.076814
O O5 0.119195 0.927755 0.904099
O O6 0.087396 0.081828 0.776360
O O7 0.000000 0.000000 0.871141
O O8 0.033582 0.250000 0.750000
O O9 0.125918 0.302343 0.858771
O O10 0.803665 0.910461 0.544366
O O11 0.296586 0.812389 0.681826
O O12 0.319544 0.778171 0.504387
O O13 0.750000 0.250000 0.364275
#
# Coordination Sequence:
#
# PCOD9326619 Si02
#       7
#    16  16  16   8  16   4  16
#     4  10  19  38  67 101 133 164 226 293 342 412
#     4  10  19  38  65  96 129 175 220 279 343 416
#     4  11  24  43  66  99 136 182 229 286 363 420
#     4  10  22  39  70 106 126 177 224 296 350 411
#     4  11  22  39  67 102 137 173 225 290 346 416
#     4  12  20  36  64 104 132 180 218 276 360 404
#     4  11  25  45  66  99 142 179 235 290 348 419
#
# _framework density 22.986886999999999
#
# number of rings (size 3 to 8) (size 9 to 14) (size 15 to 20)
#    0.000    1.391    4.348    2.087    0.000    3.826 
#    3.130    0.000    0.000    3.130    0.000    0.000 
#    0.000    0.000    0.000    0.000    0.000    0.000 
#
# Total GULP energy -128486.476439 kJ/mol
# GULP energy per Si atom -5586.368541 kJ/mol
# Density = 2.293457 g / cm^3
# Si number density = 22.986887 Si / 1000 Ang^3
#
#
#
# Elastic Constant Matrix: (Units=GPa)
#
#
# Indices 1 2 3 4 5 6 
#
# 1 131.6544 61.2442 20.4258 0.0000 0.0000 0.0000
# 2 61.2442 125.7731 42.6041 0.0000 0.0000 0.0000
# 3 20.4258 42.6041 45.6645 0.0000 0.0000 0.0000
# 4 0.0000 0.0000 0.0000 30.9429 0.0000 0.0000
# 5 0.0000 0.0000 0.0000 0.0000 12.3014 0.0000
# 6 0.0000 0.0000 0.0000 0.0000 0.0000 41.3048
#
#
#
# Elastic Compliance Matrix: (Units=1/GPa)
#
#
# Indices 1 2 3 4 5 6 
#
# 1 0.009820 -0.004816 0.000101 0.000000 0.000000 0.000000
# 2 -0.004816 0.013986 -0.010895 0.000000 0.000000 0.000000
# 3 0.000101 -0.010895 0.032019 0.000000 0.000000 0.000000
# 4 0.000000 0.000000 0.000000 0.032318 0.000000 0.000000
# 5 0.000000 0.000000 0.000000 0.000000 0.081291 0.000000
# 6 0.000000 0.000000 0.000000 0.000000 0.000000 0.024210
#
#
# Mechanical properties :
#
#
# Convention : Reuss Voigt Hill
#
# Bulk Modulus (GPa) = 40.64251 61.29336 50.96793
# Shear Modulus (GPa) = 21.45307 28.83104 25.14205
#
# Velocity S-wave (km/s) = 3.05827 3.54536 3.31079
# Velocity P-wave (km/s) = 5.49452 6.59408 6.06925
#
# Compressibility (1/GPa) = 0.02460478
#
# Stress axis : x y z
#
# Youngs Moduli (GPa) = 101.82874 71.49770 31.23190
#
# Poissons Ratio (x) = 0.34434 -0.00314
# Poissons Ratio (y) = 0.49041 0.34027
# Poissons Ratio (z) = -0.01024 0.77896
#
# Static dielectric constant tensor:
#      x y z
#    x 1.953050 0.000000 0.000000 
#    y 0.000000 1.900470 0.000000 
#    z 0.000000 0.000000 1.901420 
# 
# From -- ./inp_files/38846.got.cif
#   From: 2010.05.17/outbox.cif.g08.bks.cpg/sg22_20_cif.got.tgz:38846.got - 2010.06.03 23:40:54.
