data_PCOD9326174
_publ_section_title
;
Structure prediction by ZEFSAII (Michael W. Deem and Ramdas Pophale) SiO2 
 PCOD9326174
Probable space group: F 2 2 2
;
_chemical_formula_sum "Si O2"
_cell_formula_units_Z 120
_cell_length_a 15.251449
_cell_length_b 13.316058
_cell_length_c 28.591903
_cell_angle_alpha 90.000000
_cell_angle_beta 90.000000
_cell_angle_gamma 90.000000
_cell_volume 5806.706120
_symmetry_space_group_name_H-M "F 2 2 2"
_symmetry_group_IT_number 22
_symmetry_cell_setting 'orthorhombic'
loop_
_space_group_symop_operation_xyz
x,y,z
-x,-y,z
x,-y,-z
-x,y,-z
x,1/2+y,1/2+z
-x,1/2-y,1/2+z
x,1/2-y,1/2-z
-x,1/2+y,1/2-z
1/2+x,y,1/2+z
1/2-x,-y,1/2+z
1/2+x,-y,1/2-z
1/2-x,y,1/2-z
1/2+x,1/2+y,z
1/2-x,1/2-y,z
1/2+x,1/2-y,-z
1/2-x,1/2+y,-z
loop_
_atom_site_type_symbol
_atom_site_label
_atom_site_fract_x
_atom_site_fract_y
_atom_site_fract_z
Si Si1 0.022888 0.731241 0.848377
Si Si2 0.000000 0.707314 0.000000
Si Si3 0.148909 0.165821 0.212189
Si Si4 0.276132 0.592947 0.396997
Si Si5 0.473046 0.103814 0.762384
Si Si6 0.417822 0.072231 0.074412
Si Si7 0.611062 0.706200 0.917690
Si Si8 0.301635 0.444732 0.794762
O O1 0.115615 0.779968 0.834048
O O2 0.052605 0.641962 0.882475
O O3 0.970313 0.686549 0.803336
O O4 0.958556 0.806513 0.875631
O O5 0.946609 0.773163 0.963093
O O6 0.073434 0.641314 0.972057
O O7 0.172024 0.250000 0.250000
O O8 0.058684 0.125558 0.232984
O O9 0.205621 0.067055 0.204042
O O10 0.331516 0.494944 0.413792
O O11 0.338889 0.689231 0.404928
O O12 0.184539 0.620581 0.422677
O O13 0.243117 0.589202 0.342887
O O14 0.397810 0.087732 0.723646
O O15 0.500000 0.000000 0.787806
O O16 0.500000 0.000000 0.067497
O O17 0.250000 0.406027 0.750000
#
# Coordination Sequence:
#
# PCOD9326174 Si02
#       8
#    16   8  16  16  16  16  16  16
#     4  10  18  34  61  86 118 164 223 263 302 376
#     4  10  21  42  76  98 115 164 206 267 336 410
#     4   9  20  35  54  80 116 168 221 257 290 360
#     4  11  23  38  59 100 131 162 197 278 321 375
#     4   9  18  32  54  80 110 167 219 257 298 364
#     4  11  21  36  69  95 120 156 215 261 320 399
#     4  10  22  39  66  94 126 151 203 268 337 387
#     4  11  23  35  54  85 132 174 208 253 317 363
#
# _framework density 20.665761
#
# number of rings (size 3 to 8) (size 9 to 14) (size 15 to 20)
#    0.000    1.867    2.667    2.200    5.600    0.267 
#    0.000    4.000   17.600    0.000    0.000    0.000 
#    0.000    0.000    0.000    0.000    0.000    0.000 
#
# Total GULP energy -167043.543959 kJ/mol
# GULP energy per Si atom -5568.118132 kJ/mol
# Density = 2.061873 g / cm^3
# Si number density = 20.665761 Si / 1000 Ang^3
#
#
#
# Elastic Constant Matrix: (Units=GPa)
#
#
# Indices 1 2 3 4 5 6 
#
# 1 112.4517 31.9203 50.2026 0.0000 0.0000 0.0000
# 2 31.9203 46.7651 29.2104 0.0000 0.0000 0.0000
# 3 50.2026 29.2104 130.8749 0.0000 0.0000 0.0000
# 4 0.0000 0.0000 0.0000 23.3018 0.0000 0.0000
# 5 0.0000 0.0000 0.0000 0.0000 25.3137 0.0000
# 6 0.0000 0.0000 0.0000 0.0000 0.0000 40.4079
#
#
#
# Elastic Compliance Matrix: (Units=1/GPa)
#
#
# Indices 1 2 3 4 5 6 
#
# 1 0.012117 -0.006237 -0.003256 0.000000 0.000000 0.000000
# 2 -0.006237 0.028058 -0.003870 0.000000 0.000000 0.000000
# 3 -0.003256 -0.003870 0.009754 0.000000 0.000000 0.000000
# 4 0.000000 0.000000 0.000000 0.042915 0.000000 0.000000
# 5 0.000000 0.000000 0.000000 0.000000 0.039504 0.000000
# 6 0.000000 0.000000 0.000000 0.000000 0.000000 0.024748
#
#
# Mechanical properties :
#
#
# Convention : Reuss Voigt Hill
#
# Bulk Modulus (GPa) = 43.09819 56.97315 50.03567
# Shear Modulus (GPa) = 26.10230 29.72191 27.91210
#
# Velocity S-wave (km/s) = 3.55782 3.79650 3.67910
# Velocity P-wave (km/s) = 6.14635 6.84446 6.50478
#
# Compressibility (1/GPa) = 0.02320283
#
# Stress axis : x y z
#
# Youngs Moduli (GPa) = 82.53163 35.64093 102.52691
#
# Poissons Ratio (x) = 0.22228 0.33381
# Poissons Ratio (y) = 0.51472 0.39677
# Poissons Ratio (z) = 0.26871 0.13793
#
# Static dielectric constant tensor:
#      x y z
#    x 1.611630 0.000000 0.000000 
#    y 0.000000 1.919390 0.000000 
#    z 0.000000 0.000000 1.758680 
# 
# From -- ./inp_files/56573.got.cif
#   From: 2010.05.17/outbox.cif.g08.bks.cpg/sg22_29_cif.got.tgz:56573.got - 2010.06.03 23:40:54.
