data_PCOD9326557
_publ_section_title
;
Structure prediction by ZEFSAII (Michael W. Deem and Ramdas Pophale) SiO2 
 PCOD9326557
Probable space group: F 2 2 2
;
_chemical_formula_sum "Si O2"
_cell_formula_units_Z 108
_cell_length_a 20.495346
_cell_length_b 11.835469
_cell_length_c 20.639724
_cell_angle_alpha 90.000000
_cell_angle_beta 90.000000
_cell_angle_gamma 90.000000
_cell_volume 5006.619795
_symmetry_space_group_name_H-M "F 2 2 2"
_symmetry_group_IT_number 22
_symmetry_cell_setting 'orthorhombic'
loop_
_space_group_symop_operation_xyz
x,y,z
-x,-y,z
x,-y,-z
-x,y,-z
x,1/2+y,1/2+z
-x,1/2-y,1/2+z
x,1/2-y,1/2-z
-x,1/2+y,1/2-z
1/2+x,y,1/2+z
1/2-x,-y,1/2+z
1/2+x,-y,1/2-z
1/2-x,y,1/2-z
1/2+x,1/2+y,z
1/2-x,1/2-y,z
1/2+x,1/2-y,-z
1/2-x,1/2+y,-z
loop_
_atom_site_type_symbol
_atom_site_label
_atom_site_fract_x
_atom_site_fract_y
_atom_site_fract_z
Si Si1 0.267692 0.002150 0.922359
Si Si2 0.173638 0.415070 0.735992
Si Si3 0.250000 0.750000 0.750000
Si Si4 0.656837 0.888342 0.343505
Si Si5 0.886268 0.653236 0.109591
Si Si6 0.337891 0.289771 0.639003
Si Si7 0.000000 0.000000 0.611078
Si Si8 0.435492 0.199341 0.969468
O O1 0.197978 0.953479 0.899083
O O2 0.319490 0.917812 0.886968
O O3 0.287744 0.129086 0.900139
O O4 0.271931 0.000000 0.000000
O O5 0.250000 0.447642 0.750000
O O6 0.131268 0.511917 0.702167
O O7 0.140394 0.372766 0.802029
O O8 0.182320 0.315254 0.683515
O O9 0.293670 0.824997 0.703940
O O10 0.614661 0.783135 0.367755
O O11 0.945395 0.582208 0.141372
O O12 0.896291 0.662618 0.032385
O O13 0.390183 0.247544 0.585881
O O14 0.959864 0.913796 0.566157
O O15 0.500000 0.258408 0.000000
#
# Coordination Sequence:
#
# PCOD9326557 Si02
#       8
#    16  16   4  16  16  16   8  16
#     4  12  21  36  60  95 134 175 225 289 351 426
#     4  11  24  42  62  92 135 199 234 273 340 441
#     4  12  20  40  60  82 128 180 212 250 342 426
#     4  12  25  38  58  93 141 176 219 273 351 428
#     4  11  20  37  59  99 127 167 222 291 351 412
#     4  11  21  38  67  92 129 179 244 281 335 425
#     4  10  19  36  68  96 122 166 230 282 337 406
#     4  10  20  37  68 100 121 164 229 300 354 395
#
# _framework density 21.571441
#
# number of rings (size 3 to 8) (size 9 to 14) (size 15 to 20)
#    0.000    0.889    6.667    2.889    0.000    1.185 
#    2.667    0.000    0.000   20.444    0.000    0.000 
#    0.000    0.000    0.000    0.000    0.000    0.000 
#
# Total GULP energy -150429.043393 kJ/mol
# GULP energy per Si atom -5571.446052 kJ/mol
# Density = 2.152234 g / cm^3
# Si number density = 21.571441 Si / 1000 Ang^3
#
#
#
# Elastic Constant Matrix: (Units=GPa)
#
#
# Indices 1 2 3 4 5 6 
#
# 1 53.2319 17.3381 27.9573 0.0000 0.0000 0.0000
# 2 17.3381 112.4656 31.6771 0.0000 0.0000 0.0000
# 3 27.9573 31.6771 91.8355 0.0000 0.0000 0.0000
# 4 0.0000 0.0000 0.0000 34.2847 0.0000 0.0000
# 5 0.0000 0.0000 0.0000 0.0000 26.1154 0.0000
# 6 0.0000 0.0000 0.0000 0.0000 0.0000 26.6809
#
#
#
# Elastic Compliance Matrix: (Units=1/GPa)
#
#
# Indices 1 2 3 4 5 6 
#
# 1 0.022656 -0.001717 -0.006305 0.000000 0.000000 0.000000
# 2 -0.001717 0.009979 -0.002919 0.000000 0.000000 0.000000
# 3 -0.006305 -0.002919 0.013815 0.000000 0.000000 0.000000
# 4 0.000000 0.000000 0.000000 0.029168 0.000000 0.000000
# 5 0.000000 0.000000 0.000000 0.000000 0.038292 0.000000
# 6 0.000000 0.000000 0.000000 0.000000 0.000000 0.037480
#
#
# Mechanical properties :
#
#
# Convention : Reuss Voigt Hill
#
# Bulk Modulus (GPa) = 40.70347 45.71978 43.21162
# Shear Modulus (GPa) = 27.55415 29.45358 28.50386
#
# Velocity S-wave (km/s) = 3.57787 3.69914 3.63901
# Velocity P-wave (km/s) = 5.99819 6.28374 6.14263
#
# Compressibility (1/GPa) = 0.02456793
#
# Stress axis : x y z
#
# Youngs Moduli (GPa) = 44.13778 100.21516 72.38297
#
# Poissons Ratio (x) = 0.17206 0.45637
# Poissons Ratio (y) = 0.07578 0.21130
# Poissons Ratio (z) = 0.27829 0.29255
#
# Static dielectric constant tensor:
#      x y z
#    x 1.896230 0.000000 0.000000 
#    y 0.000000 0.797770 0.000000 
#    z 0.000000 0.000000 1.795630 
# 
# From -- ./inp_files/45378.got.cif
#   From: 2010.05.17/outbox.cif.g08.bks.cpg/sg22_23_cif.got.tgz:45378.got - 2010.06.03 23:40:54.
