data_PCOD9326850
_publ_section_title
;
Structure prediction by ZEFSAII (Michael W. Deem and Ramdas Pophale) SiO2 
 PCOD9326850
Probable space group: F 2 2 2
;
_chemical_formula_sum "Si O2"
_cell_formula_units_Z 64
_cell_length_a 27.151863
_cell_length_b 19.035143
_cell_length_c 6.847726
_cell_angle_alpha 90.000000
_cell_angle_beta 90.000000
_cell_angle_gamma 90.000000
_cell_volume 3539.175932
_symmetry_space_group_name_H-M "F 2 2 2"
_symmetry_group_IT_number 22
_symmetry_cell_setting 'orthorhombic'
loop_
_space_group_symop_operation_xyz
x,y,z
-x,-y,z
x,-y,-z
-x,y,-z
x,1/2+y,1/2+z
-x,1/2-y,1/2+z
x,1/2-y,1/2-z
-x,1/2+y,1/2-z
1/2+x,y,1/2+z
1/2-x,-y,1/2+z
1/2+x,-y,1/2-z
1/2-x,y,1/2-z
1/2+x,1/2+y,z
1/2-x,1/2-y,z
1/2+x,1/2-y,-z
1/2-x,1/2+y,-z
loop_
_atom_site_type_symbol
_atom_site_label
_atom_site_fract_x
_atom_site_fract_y
_atom_site_fract_z
Si Si1 0.172350 0.000000 0.500000
Si Si2 0.195966 0.625472 0.275188
Si Si3 0.370878 0.569278 0.879236
Si Si4 0.052565 0.192499 0.084558
Si Si5 0.121683 0.750000 0.250000
O O1 0.199228 0.942229 0.366780
O O2 0.143571 0.955675 0.663631
O O3 0.250000 0.657939 0.250000
O O4 0.174800 0.600646 0.488499
O O5 0.086253 0.731812 0.427034
O O6 0.414088 0.625863 0.860272
O O7 0.386752 0.500000 0.000000
O O8 0.043072 0.250000 0.250000
O O9 0.155979 0.182746 0.707843
O O10 0.000000 0.669774 0.500000
#
# Coordination Sequence:
#
# PCOD9326850 Si02
#       5
#     8  16  16  16   8
#     4  10  20  36  56  83 118 150 193 232 286 340
#     4  10  21  34  59  83 118 151 193 230 286 339
#     4   9  21  38  56  83 117 153 188 241 285 344
#     4  11  21  37  62  84 111 149 195 240 296 346
#     4  10  21  40  54  86 116 150 187 242 288 348
#
# _framework density 18.083306
#
# number of rings (size 3 to 8) (size 9 to 14) (size 15 to 20)
#    0.000    2.000    1.250    1.875    5.250    0.500 
#    0.000    0.000    0.000    6.000    0.000    0.000 
#    0.000    0.000    0.000    0.000    0.000    0.000 
#
# Total GULP energy -89118.906739 kJ/mol
# GULP energy per Si atom -5569.931671 kJ/mol
# Density = 1.804215 g / cm^3
# Si number density = 18.083306 Si / 1000 Ang^3
#
#
#
# Elastic Constant Matrix: (Units=GPa)
#
#
# Indices 1 2 3 4 5 6 
#
# 1 111.1700 24.6363 37.3477 0.0000 0.0000 -0.0001
# 2 24.6363 58.2752 20.9756 0.0000 -0.0001 0.0001
# 3 37.3477 20.9756 80.0669 0.0001 -0.0005 0.0003
# 4 0.0000 0.0000 0.0001 27.4899 -0.0002 0.0003
# 5 0.0000 -0.0001 -0.0005 -0.0002 28.6274 -0.0012
# 6 -0.0001 0.0001 0.0003 0.0003 -0.0012 -118.8757
#
#
#
# Elastic Compliance Matrix: (Units=1/GPa)
#
#
# Indices 1 2 3 4 5 6 
#
# 1 0.011165 -0.003142 -0.004385 0.000000 0.000000 0.000000
# 2 -0.003142 0.019831 -0.003730 0.000000 0.000000 0.000000
# 3 -0.004385 -0.003730 0.015512 0.000000 0.000000 0.000000
# 4 0.000000 0.000000 0.000000 0.036377 0.000000 0.000000
# 5 0.000000 0.000000 0.000000 0.000000 0.034932 0.000000
# 6 0.000000 0.000000 0.000000 0.000000 0.000000 -0.008412
#
#
# Mechanical properties :
#
#
# Convention : Reuss Voigt Hill
#
# Bulk Modulus (GPa) = 41.67554 46.15903 43.91728
# Shear Modulus (GPa) = 35.73627 -1.44819 17.14404
#
# Velocity S-wave (km/s) = 4.45027 -0.89587 3.08240
# Velocity P-wave (km/s) = 7.03584 4.95087 6.08334
#
# Compressibility (1/GPa) = 0.02399489
#
# Stress axis : x y z
#
# Youngs Moduli (GPa) = 89.56959 50.42719 64.46651
#
# Poissons Ratio (x) = 0.15842 0.28267
# Poissons Ratio (y) = 0.28140 0.24044
# Poissons Ratio (z) = 0.39274 0.18808
#
# Static dielectric constant tensor:
#      x y z
#    x 1.616480 0.000000 0.000000 
#    y 0.000000 1.638900 0.000000 
#    z 0.000000 0.000000 1.621320 
# 
# From -- ./inp_files/6151.got.cif
#   From: 2010.05.17/outbox.cif.g08.bks.cpg/sg22_4_cif.got.tgz:6151.got - 2010.06.03 23:40:54.
