data_PCOD9326934
_publ_section_title
;
Structure prediction by ZEFSAII (Michael W. Deem and Ramdas Pophale) SiO2 
 PCOD9326934
Probable space group: F 2 2 2
;
_chemical_formula_sum "Si O2"
_cell_formula_units_Z 72
_cell_length_a 11.113093
_cell_length_b 19.980893
_cell_length_c 16.385315
_cell_angle_alpha 90.000000
_cell_angle_beta 90.000000
_cell_angle_gamma 90.000000
_cell_volume 3638.351366
_symmetry_space_group_name_H-M "F 2 2 2"
_symmetry_group_IT_number 22
_symmetry_cell_setting 'orthorhombic'
loop_
_space_group_symop_operation_xyz
x,y,z
-x,-y,z
x,-y,-z
-x,y,-z
x,1/2+y,1/2+z
-x,1/2-y,1/2+z
x,1/2-y,1/2-z
-x,1/2+y,1/2-z
1/2+x,y,1/2+z
1/2-x,-y,1/2+z
1/2+x,-y,1/2-z
1/2-x,y,1/2-z
1/2+x,1/2+y,z
1/2-x,1/2-y,z
1/2+x,1/2-y,-z
1/2-x,1/2+y,-z
loop_
_atom_site_type_symbol
_atom_site_label
_atom_site_fract_x
_atom_site_fract_y
_atom_site_fract_z
Si Si1 0.704345 0.895008 0.339861
Si Si2 0.250000 0.750000 0.086472
Si Si3 0.971342 0.668148 0.596039
Si Si4 0.172518 0.968058 0.085572
Si Si5 0.642678 0.380495 0.498128
O O1 0.750000 0.882250 0.250000
O O2 0.598306 0.842793 0.360629
O O3 0.803226 0.890405 0.411689
O O4 0.665382 0.973116 0.348968
O O5 0.129148 0.779798 0.128508
O O6 0.300746 0.811321 0.033684
O O7 0.908561 0.595771 0.602826
O O8 0.000000 0.682254 0.500000
O O9 0.303765 0.937423 0.062623
O O10 0.132011 0.000000 0.000000
O O11 0.500000 0.379530 0.500000
#
# Coordination Sequence:
#
# PCOD9326934 Si02
#       5
#    16   8  16  16  16
#     4  11  23  38  60 100 128 162 206 268 332 377
#     4  10  20  36  69  91 110 168 234 262 298 380
#     4  11  18  36  66  95 121 167 218 262 311 389
#     4   9  18  34  60  90 122 166 210 249 307 388
#     4  10  21  37  62  89 126 166 219 259 311 374
#
# _framework density 19.789183000000001
#
# number of rings (size 3 to 8) (size 9 to 14) (size 15 to 20)
#    0.000    1.778    6.667    1.333    0.000    4.000 
#    8.000    0.556    0.000    1.333    0.000    0.000 
#    0.000    0.000    0.000    0.000    0.000    0.000 
#
# Total GULP energy -100360.831448 kJ/mol
# GULP energy per Si atom -5575.601747 kJ/mol
# Density = 1.974414 g / cm^3
# Si number density = 19.789183 Si / 1000 Ang^3
#
#
#
# Elastic Constant Matrix: (Units=GPa)
#
#
# Indices 1 2 3 4 5 6 
#
# 1 152.5211 26.1219 35.6441 0.0000 0.0000 0.0000
# 2 26.1219 78.5013 12.4534 0.0000 0.0000 0.0000
# 3 35.6441 12.4534 65.1655 0.0000 0.0000 0.0000
# 4 0.0000 0.0000 0.0000 7.2917 0.0000 0.0000
# 5 0.0000 0.0000 0.0000 0.0000 18.1302 0.0000
# 6 0.0000 0.0000 0.0000 0.0000 0.0000 16.3531
#
#
#
# Elastic Compliance Matrix: (Units=1/GPa)
#
#
# Indices 1 2 3 4 5 6 
#
# 1 0.007805 -0.001980 -0.003891 0.000000 0.000000 0.000000
# 2 -0.001980 0.013639 -0.001524 0.000000 0.000000 0.000000
# 3 -0.003891 -0.001524 0.017765 0.000000 0.000000 0.000000
# 4 0.000000 0.000000 0.000000 0.137142 0.000000 0.000000
# 5 0.000000 0.000000 0.000000 0.000000 0.055157 0.000000
# 6 0.000000 0.000000 0.000000 0.000000 0.000000 0.061151
#
#
# Mechanical properties :
#
#
# Convention : Reuss Voigt Hill
#
# Bulk Modulus (GPa) = 40.94916 49.40299 45.17607
# Shear Modulus (GPa) = 15.84354 23.15289 19.49822
#
# Velocity S-wave (km/s) = 2.83259 3.42420 3.14235
# Velocity P-wave (km/s) = 5.60675 6.37592 6.00367
#
# Compressibility (1/GPa) = 0.02442053
#
# Stress axis : x y z
#
# Youngs Moduli (GPa) = 128.12602 73.31828 56.29097
#
# Poissons Ratio (x) = 0.14516 0.21901
# Poissons Ratio (y) = 0.25368 0.08576
# Poissons Ratio (z) = 0.49850 0.11170
#
# Static dielectric constant tensor:
#      x y z
#    x 1.765800 0.000000 0.000000 
#    y 0.000000 1.752640 0.000000 
#    z 0.000000 0.000000 1.655910 
# 
# From -- ./inp_files/21231.got.cif
#   From: 2010.05.17/outbox.cif.g08.bks.cpg/sg22_11_cif.got.tgz:21231.got - 2010.06.03 23:40:54.
