data_PCOD9326432
_publ_section_title
;
Structure prediction by ZEFSAII (Michael W. Deem and Ramdas Pophale) SiO2 
 PCOD9326432
Probable space group: F 2 2 2
;
_chemical_formula_sum "Si O2"
_cell_formula_units_Z 80
_cell_length_a 20.039688
_cell_length_b 12.702993
_cell_length_c 16.587119
_cell_angle_alpha 90.000000
_cell_angle_beta 90.000000
_cell_angle_gamma 90.000000
_cell_volume 4222.483633
_symmetry_space_group_name_H-M "F 2 2 2"
_symmetry_group_IT_number 22
_symmetry_cell_setting 'orthorhombic'
loop_
_space_group_symop_operation_xyz
x,y,z
-x,-y,z
x,-y,-z
-x,y,-z
x,1/2+y,1/2+z
-x,1/2-y,1/2+z
x,1/2-y,1/2-z
-x,1/2+y,1/2-z
1/2+x,y,1/2+z
1/2-x,-y,1/2+z
1/2+x,-y,1/2-z
1/2-x,y,1/2-z
1/2+x,1/2+y,z
1/2-x,1/2-y,z
1/2+x,1/2-y,-z
1/2-x,1/2+y,-z
loop_
_atom_site_type_symbol
_atom_site_label
_atom_site_fract_x
_atom_site_fract_y
_atom_site_fract_z
Si Si1 0.173594 0.415181 0.730508
Si Si2 0.566491 0.568316 0.153866
Si Si3 0.425088 0.755369 0.963726
Si Si4 0.119590 0.287677 0.863868
Si Si5 0.978705 0.377410 0.826572
O O1 0.250000 0.439267 0.750000
O O2 0.128655 0.498580 0.683147
O O3 0.146424 0.391392 0.820187
O O4 0.158553 0.309196 0.677930
O O5 0.500000 0.500000 0.132955
O O6 0.585315 0.644972 0.081312
O O7 0.546353 0.629429 0.235433
O O8 0.425823 0.843804 0.894356
O O9 0.500000 0.753751 0.000000
O O10 0.378323 0.777678 0.040100
O O11 0.041591 0.299231 0.839796
O O12 0.000000 0.500000 0.838403
#
# Coordination Sequence:
#
# PCOD9326432 Si02
#       5
#    16  16  16  16  16
#     4  11  23  40  66  84 118 166 216 245 307 384
#     4  11  20  37  62  92 123 159 207 256 310 367
#     4  10  22  31  58  95 130 153 199 261 318 356
#     4  10  20  37  57  88 120 158 200 255 303 362
#     4  10  19  34  59  91 127 163 203 253 311 375
#
# _framework density 18.946194999999999
#
# number of rings (size 3 to 8) (size 9 to 14) (size 15 to 20)
#    0.000    1.600    4.000    4.200    5.600    6.400 
#    0.000    0.000   13.200    1.200    0.000    0.000 
#    0.000    0.000    0.000    0.000    0.000    0.000 
#
# Total GULP energy -111428.315953 kJ/mol
# GULP energy per Si atom -5571.415798 kJ/mol
# Density = 1.890307 g / cm^3
# Si number density = 18.946195 Si / 1000 Ang^3
#
#
#
# Elastic Constant Matrix: (Units=GPa)
#
#
# Indices 1 2 3 4 5 6 
#
# 1 46.6643 -15.4480 -0.0617 0.0000 0.0000 0.0000
# 2 -15.4480 28.3904 5.8464 0.0000 0.0000 0.0000
# 3 -0.0617 5.8464 110.0965 0.0000 0.0000 0.0000
# 4 0.0000 0.0000 0.0000 24.2654 0.0000 0.0000
# 5 0.0000 0.0000 0.0000 0.0000 11.7329 0.0000
# 6 0.0000 0.0000 0.0000 0.0000 0.0000 16.1994
#
#
#
# Elastic Compliance Matrix: (Units=1/GPa)
#
#
# Indices 1 2 3 4 5 6 
#
# 1 0.026199 0.014410 -0.000751 0.000000 0.000000 0.000000
# 2 0.014410 0.043539 -0.002304 0.000000 0.000000 0.000000
# 3 -0.000751 -0.002304 0.009205 0.000000 0.000000 0.000000
# 4 0.000000 0.000000 0.000000 0.041211 0.000000 0.000000
# 5 0.000000 0.000000 0.000000 0.000000 0.085230 0.000000
# 6 0.000000 0.000000 0.000000 0.000000 0.000000 0.061731
#
#
# Mechanical properties :
#
#
# Convention : Reuss Voigt Hill
#
# Bulk Modulus (GPa) = 9.83730 18.42495 14.13112
# Shear Modulus (GPa) = 17.96704 23.42719 20.69712
#
# Velocity S-wave (km/s) = 3.08282 3.52022 3.30876
# Velocity P-wave (km/s) = 4.22791 5.12529 4.69807
#
# Compressibility (1/GPa) = 0.10165394
#
# Stress axis : x y z
#
# Youngs Moduli (GPa) = 38.16926 22.96815 108.63821
#
# Poissons Ratio (x) = -0.33097 0.08154
# Poissons Ratio (y) = -0.55003 0.25029
# Poissons Ratio (z) = 0.02865 0.05292
#
# Static dielectric constant tensor:
#      x y z
#    x 1.721620 0.000000 0.000000 
#    y 0.000000 1.740240 0.000000 
#    z 0.000000 0.000000 1.692710 
# 
# From -- ./inp_files/31376.got.cif
#   From: 2010.05.17/outbox.cif.g08.bks.cpg/sg22_16_cif.got.tgz:31376.got - 2010.06.03 23:40:54.
