data_PCOD9326023
_publ_section_title
;
Structure prediction by ZEFSAII (Michael W. Deem and Ramdas Pophale) SiO2 
 PCOD9326023
Probable space group: F 2 2 2
;
_chemical_formula_sum "Si O2"
_cell_formula_units_Z 92
_cell_length_a 14.538248
_cell_length_b 18.286291
_cell_length_c 18.629350
_cell_angle_alpha 90.000000
_cell_angle_beta 90.000000
_cell_angle_gamma 90.000000
_cell_volume 4952.624500
_symmetry_space_group_name_H-M "F 2 2 2"
_symmetry_group_IT_number 22
_symmetry_cell_setting 'orthorhombic'
loop_
_space_group_symop_operation_xyz
x,y,z
-x,-y,z
x,-y,-z
-x,y,-z
x,1/2+y,1/2+z
-x,1/2-y,1/2+z
x,1/2-y,1/2-z
-x,1/2+y,1/2-z
1/2+x,y,1/2+z
1/2-x,-y,1/2+z
1/2+x,-y,1/2-z
1/2-x,y,1/2-z
1/2+x,1/2+y,z
1/2-x,1/2-y,z
1/2+x,1/2-y,-z
1/2-x,1/2+y,-z
loop_
_atom_site_type_symbol
_atom_site_label
_atom_site_fract_x
_atom_site_fract_y
_atom_site_fract_z
Si Si1 0.106576 0.153710 0.338290
Si Si2 0.692426 0.394627 0.308676
Si Si3 0.889925 0.007853 0.583639
Si Si4 0.536644 0.761688 0.579792
Si Si5 0.480043 0.665731 0.223253
Si Si6 0.750000 0.750000 0.250000
Si Si7 0.250000 0.750000 0.115052
O O1 0.139298 0.086452 0.385944
O O2 0.185358 0.205028 0.305320
O O3 0.027896 0.196375 0.386178
O O4 0.061018 0.124070 0.264207
O O5 0.750000 0.438855 0.250000
O O6 0.658782 0.443772 0.373070
O O7 0.608588 0.364270 0.262386
O O8 0.746696 0.323792 0.337948
O O9 0.870453 0.000000 0.500000
O O10 0.000000 0.000000 0.593960
O O11 0.500000 0.775724 0.500000
O O12 0.522573 0.827137 0.637820
O O13 0.647837 0.747407 0.578059
O O14 0.489198 0.750000 0.250000
#
# Coordination Sequence:
#
# PCOD9326023 Si02
#       7
#    16  16  16  16  16   4   8
#     4  11  23  42  62  94 131 174 218 259 323 398
#     4  12  21  37  66  95 119 163 213 270 320 371
#     4  11  25  41  63  91 132 167 206 276 336 377
#     4  11  23  37  61  96 132 160 211 273 330 376
#     4  10  17  37  59  87 122 156 213 267 305 375
#     4  12  24  42  68  88 136 186 218 256 304 412
#     4  12  21  37  68  95 123 162 214 274 317 369
#
# _framework density 18.57601
#
# number of rings (size 3 to 8) (size 9 to 14) (size 15 to 20)
#    0.000    0.870    9.565    0.261    6.087    0.696 
#    0.000    0.000    0.000    0.000    0.000    1.217 
#    0.000    0.000    0.000    0.000    0.000    0.000 
#
# Total GULP energy -128042.007068 kJ/mol
# GULP energy per Si atom -5567.043786 kJ/mol
# Density = 1.853373 g / cm^3
# Si number density = 18.576010 Si / 1000 Ang^3
#
#
#
# Elastic Constant Matrix: (Units=GPa)
#
#
# Indices 1 2 3 4 5 6 
#
# 1 108.3576 37.1743 63.0308 0.0000 0.0000 0.0000
# 2 37.1743 84.0471 59.9889 0.0000 0.0000 0.0000
# 3 63.0308 59.9889 165.0781 0.0000 0.0000 0.0000
# 4 0.0000 0.0000 0.0000 32.0325 0.0000 0.0000
# 5 0.0000 0.0000 0.0000 0.0000 26.6341 0.0000
# 6 0.0000 0.0000 0.0000 0.0000 0.0000 12.6254
#
#
#
# Elastic Compliance Matrix: (Units=1/GPa)
#
#
# Indices 1 2 3 4 5 6 
#
# 1 0.012343 -0.002829 -0.003685 0.000000 0.000000 0.000000
# 2 -0.002829 0.016714 -0.004993 0.000000 0.000000 0.000000
# 3 -0.003685 -0.004993 0.009279 0.000000 0.000000 0.000000
# 4 0.000000 0.000000 0.000000 0.031218 0.000000 0.000000
# 5 0.000000 0.000000 0.000000 0.000000 0.037546 0.000000
# 6 0.000000 0.000000 0.000000 0.000000 0.000000 0.079205
#
#
# Mechanical properties :
#
#
# Convention : Reuss Voigt Hill
#
# Bulk Modulus (GPa) = 65.27038 75.31898 70.29468
# Shear Modulus (GPa) = 23.31805 27.41100 25.36452
#
# Velocity S-wave (km/s) = 3.54683 3.84554 3.69920
# Velocity P-wave (km/s) = 7.21017 7.76865 7.49462
#
# Compressibility (1/GPa) = 0.01532089
#
# Stress axis : x y z
#
# Youngs Moduli (GPa) = 81.02003 59.83177 107.76844
#
# Poissons Ratio (x) = 0.16928 0.39708
# Poissons Ratio (y) = 0.22923 0.53813
# Poissons Ratio (z) = 0.29852 0.29876
#
# Static dielectric constant tensor:
#      x y z
#    x 1.727990 0.000000 0.000000 
#    y 0.000000 1.678130 0.000000 
#    z 0.000000 0.000000 1.661530 
# 
# From -- ./inp_files/43613.got.cif
#   From: 2010.05.17/outbox.cif.g08.bks.cpg/sg22_22_cif.got.tgz:43613.got - 2010.06.03 23:40:54.
