data_PCOD9326113
_publ_section_title
;
Structure prediction by ZEFSAII (Michael W. Deem and Ramdas Pophale) SiO2 
 PCOD9326113
Probable space group: F 2 2 2
;
_chemical_formula_sum "Si O2"
_cell_formula_units_Z 60
_cell_length_a 29.310680
_cell_length_b 7.060522
_cell_length_c 12.377796
_cell_angle_alpha 90.000000
_cell_angle_beta 90.000000
_cell_angle_gamma 90.000000
_cell_volume 2561.568803
_symmetry_space_group_name_H-M "F 2 2 2"
_symmetry_group_IT_number 22
_symmetry_cell_setting 'orthorhombic'
loop_
_space_group_symop_operation_xyz
x,y,z
-x,-y,z
x,-y,-z
-x,y,-z
x,1/2+y,1/2+z
-x,1/2-y,1/2+z
x,1/2-y,1/2-z
-x,1/2+y,1/2-z
1/2+x,y,1/2+z
1/2-x,-y,1/2+z
1/2+x,-y,1/2-z
1/2-x,y,1/2-z
1/2+x,1/2+y,z
1/2-x,1/2-y,z
1/2+x,1/2-y,-z
1/2-x,1/2+y,-z
loop_
_atom_site_type_symbol
_atom_site_label
_atom_site_fract_x
_atom_site_fract_y
_atom_site_fract_z
Si Si1 0.645316 0.675703 0.127375
Si Si2 0.597186 0.750000 0.750000
Si Si3 0.544897 0.400977 0.843186
Si Si4 0.672892 0.732476 0.594554
Si Si5 0.250000 0.750000 0.250000
O O1 0.649427 0.750000 0.250000
O O2 0.590704 0.676357 0.095834
O O3 0.666163 0.461827 0.117918
O O4 0.671536 0.789765 0.033540
O O5 0.567456 0.579760 0.787655
O O6 0.627907 0.663147 0.654590
O O7 0.500000 0.500000 0.892463
O O8 0.532407 0.250000 0.750000
O O9 0.715370 0.656670 0.663646
#
# Coordination Sequence:
#
# PCOD9326113 Si02
#       5
#    16   8  16  16   4
#     4   9  19  38  59  87 125 161 202 251 319 377
#     4   9  18  35  58  80 122 162 196 265 312 355
#     4  10  18  32  59  88 120 163 210 255 294 366
#     4   9  19  39  60  86 118 162 201 255 322 378
#     4  10  20  40  60  84 116 152 208 260 304 386
#
# _framework density 23.423145000000002
#
# number of rings (size 3 to 8) (size 9 to 14) (size 15 to 20)
#    0.000    2.667    1.333    0.000    0.000    0.000 
#    9.600   30.667    0.000    6.400    0.000    0.000 
#    0.000    0.000    0.000    0.000    0.000    0.000 
#
# Total GULP energy -83500.721328 kJ/mol
# GULP energy per Si atom -5566.714755 kJ/mol
# Density = 2.336983 g / cm^3
# Si number density = 23.423145 Si / 1000 Ang^3
#
#
#
# Elastic Constant Matrix: (Units=GPa)
#
#
# Indices 1 2 3 4 5 6 
#
# 1 119.3536 24.8794 66.7272 0.0000 0.0000 0.0000
# 2 24.8794 42.2157 20.5451 0.0000 0.0000 0.0000
# 3 66.7272 20.5451 187.2838 0.0000 0.0000 0.0000
# 4 0.0000 0.0000 0.0000 12.9656 0.0000 0.0000
# 5 0.0000 0.0000 0.0000 0.0000 12.0824 0.0000
# 6 0.0000 0.0000 0.0000 0.0000 0.0000 1048.7145
#
#
#
# Elastic Compliance Matrix: (Units=1/GPa)
#
#
# Indices 1 2 3 4 5 6 
#
# 1 0.011381 -0.005001 -0.003506 0.000000 0.000000 0.000000
# 2 -0.005001 0.027221 -0.001204 0.000000 0.000000 0.000000
# 3 -0.003506 -0.001204 0.006721 0.000000 0.000000 0.000000
# 4 0.000000 0.000000 0.000000 0.077127 0.000000 0.000000
# 5 0.000000 0.000000 0.000000 0.000000 0.082765 0.000000
# 6 0.000000 0.000000 0.000000 0.000000 0.000000 0.000954
#
#
# Mechanical properties :
#
#
# Convention : Reuss Voigt Hill
#
# Bulk Modulus (GPa) = 38.61017 63.68406 51.14711
# Shear Modulus (GPa) = 21.34689 230.53258 125.93974
#
# Velocity S-wave (km/s) = 3.02215 9.93149 7.34057
# Velocity P-wave (km/s) = 5.35699 12.60001 9.68136
#
# Compressibility (1/GPa) = 0.02589991
#
# Stress axis : x y z
#
# Youngs Moduli (GPa) = 87.86369 36.73594 148.78932
#
# Poissons Ratio (x) = 0.18372 0.52172
# Poissons Ratio (y) = 0.43940 0.17920
# Poissons Ratio (z) = 0.30809 0.04424
#
# Static dielectric constant tensor:
#      x y z
#    x 1.964540 0.000000 0.000000 
#    y 0.000000 1.969880 0.000000 
#    z 0.000000 0.000000 -2.659260 
# 
# From -- ./inp_files/9971.got.cif
#   From: 2010.05.17/outbox.cif.g08.bks.cpg/sg22_5_cif.got.tgz:9971.got - 2010.06.03 23:40:54.
