data_PCOD9326281
_publ_section_title
;
Structure prediction by ZEFSAII (Michael W. Deem and Ramdas Pophale) SiO2 
 PCOD9326281
Probable space group: F 2 2 2
;
_chemical_formula_sum "Si O2"
_cell_formula_units_Z 116
_cell_length_a 25.167129
_cell_length_b 8.226251
_cell_length_c 25.997351
_cell_angle_alpha 90.000000
_cell_angle_beta 90.000000
_cell_angle_gamma 90.000000
_cell_volume 5382.260697
_symmetry_space_group_name_H-M "F 2 2 2"
_symmetry_group_IT_number 22
_symmetry_cell_setting 'orthorhombic'
loop_
_space_group_symop_operation_xyz
x,y,z
-x,-y,z
x,-y,-z
-x,y,-z
x,1/2+y,1/2+z
-x,1/2-y,1/2+z
x,1/2-y,1/2-z
-x,1/2+y,1/2-z
1/2+x,y,1/2+z
1/2-x,-y,1/2+z
1/2+x,-y,1/2-z
1/2-x,y,1/2-z
1/2+x,1/2+y,z
1/2-x,1/2-y,z
1/2+x,1/2-y,-z
1/2-x,1/2+y,-z
loop_
_atom_site_type_symbol
_atom_site_label
_atom_site_fract_x
_atom_site_fract_y
_atom_site_fract_z
Si Si1 0.851177 0.164269 0.302444
Si Si2 0.872540 0.318774 0.412081
Si Si3 0.848257 0.207757 0.697973
Si Si4 0.009712 0.313388 0.588516
Si Si5 0.105899 0.204478 0.090309
Si Si6 0.750000 0.250000 0.750000
Si Si7 0.691107 0.809352 0.008061
Si Si8 0.522523 0.176203 0.197189
O O1 0.830708 0.250000 0.250000
O O2 0.848691 0.257207 0.357426
O O3 0.914670 0.149375 0.295963
O O4 0.830169 0.980042 0.305184
O O5 0.886150 0.509679 0.409930
O O6 0.831950 0.277734 0.457232
O O7 0.931790 0.246982 0.425826
O O8 0.879988 0.250000 0.750000
O O9 0.881787 0.243946 0.648298
O O10 0.794698 0.313907 0.709190
O O11 0.952961 0.237119 0.573651
O O12 0.000000 0.500000 0.572183
O O13 0.012180 0.298349 0.650413
O O14 0.150453 0.274388 0.053598
O O15 0.750000 0.750000 0.020260
O O16 0.693045 0.000000 0.000000
O O17 0.501838 0.250000 0.250000
O O18 0.500000 0.000000 0.184254
#
# Coordination Sequence:
#
# PCOD9326281 Si02
#       8
#    16  16  16  16  16   4  16  16
#     4  10  20  36  58  87 123 164 203 256 309 372
#     4  10  22  43  63  96 133 162 211 260 313 379
#     4  10  21  39  60  86 125 162 214 259 322 367
#     4   9  20  37  60  90 125 164 202 249 313 375
#     4  11  22  40  70  94 125 170 209 261 315 377
#     4   8  24  40  58  84 120 164 210 268 308 368
#     4  12  27  47  69  93 122 163 212 263 316 373
#     4  10  19  29  48  79 121 160 204 247 297 361
#
# _framework density 21.552281000000001
#
# number of rings (size 3 to 8) (size 9 to 14) (size 15 to 20)
#    0.414    1.379    0.000    4.138    0.966    6.069 
#    2.483    3.103    0.000    0.000    0.000    0.000 
#    0.000    0.000    0.000    0.000    0.000    0.000 
#
# Total GULP energy -161589.628369 kJ/mol
# GULP energy per Si atom -5572.056151 kJ/mol
# Density = 2.150323 g / cm^3
# Si number density = 21.552281 Si / 1000 Ang^3
#
#
#
# Elastic Constant Matrix: (Units=GPa)
#
#
# Indices 1 2 3 4 5 6 
#
# 1 104.3282 -5.4797 21.3308 0.0001 0.0000 0.0000
# 2 -5.4797 62.5450 -2.4315 0.0001 0.0000 -0.0001
# 3 21.3308 -2.4315 51.6570 0.0000 0.0000 0.0000
# 4 0.0001 0.0001 0.0000 103.0649 0.0000 -0.0001
# 5 0.0000 0.0000 0.0000 0.0000 32.9235 0.0000
# 6 0.0000 -0.0001 0.0000 -0.0001 0.0000 21.8567
#
#
#
# Elastic Compliance Matrix: (Units=1/GPa)
#
#
# Indices 1 2 3 4 5 6 
#
# 1 0.010504 0.000753 -0.004302 0.000000 0.000000 0.000000
# 2 0.000753 0.016072 0.000446 0.000000 0.000000 0.000000
# 3 -0.004302 0.000446 0.021156 0.000000 0.000000 0.000000
# 4 0.000000 0.000000 0.000000 0.009703 0.000000 0.000000
# 5 0.000000 0.000000 0.000000 0.000000 0.030373 0.000000
# 6 0.000000 0.000000 0.000000 0.000000 0.000000 0.045752
#
#
# Mechanical properties :
#
#
# Convention : Reuss Voigt Hill
#
# Bulk Modulus (GPa) = 24.08191 27.26327 25.67259
# Shear Modulus (GPa) = 32.55014 45.24308 38.89661
#
# Velocity S-wave (km/s) = 3.89046 4.58670 4.25285
# Velocity P-wave (km/s) = 5.60168 6.38183 6.00444
#
# Compressibility (1/GPa) = 0.04152495
#
# Stress axis : x y z
#
# Youngs Moduli (GPa) = 95.19925 62.22081 47.26812
#
# Poissons Ratio (x) = -0.04686 0.20335
# Poissons Ratio (y) = -0.07169 -0.02106
# Poissons Ratio (z) = 0.40956 -0.02772
#
# Static dielectric constant tensor:
#      x y z
#    x 1.816100 0.000000 0.000000 
#    y 0.000000 1.815130 0.000000 
#    z 0.000000 0.000000 1.781900 
# 
# From -- ./inp_files/54208.got.cif
#   From: 2010.05.17/outbox.cif.g08.bks.cpg/sg22_28_cif.got.tgz:54208.got - 2010.06.03 23:40:54.
