data_PCOD9326126
_publ_section_title
;
Structure prediction by ZEFSAII (Michael W. Deem and Ramdas Pophale) SiO2 
 PCOD9326126
Probable space group: F 2 2 2
;
_chemical_formula_sum "Si O2"
_cell_formula_units_Z 68
_cell_length_a 31.783186
_cell_length_b 5.272603
_cell_length_c 18.962110
_cell_angle_alpha 90.000000
_cell_angle_beta 90.000000
_cell_angle_gamma 90.000000
_cell_volume 3177.672704
_symmetry_space_group_name_H-M "F 2 2 2"
_symmetry_group_IT_number 22
_symmetry_cell_setting 'orthorhombic'
loop_
_space_group_symop_operation_xyz
x,y,z
-x,-y,z
x,-y,-z
-x,y,-z
x,1/2+y,1/2+z
-x,1/2-y,1/2+z
x,1/2-y,1/2-z
-x,1/2+y,1/2-z
1/2+x,y,1/2+z
1/2-x,-y,1/2+z
1/2+x,-y,1/2-z
1/2-x,y,1/2-z
1/2+x,1/2+y,z
1/2-x,1/2-y,z
1/2+x,1/2-y,-z
1/2-x,1/2+y,-z
loop_
_atom_site_type_symbol
_atom_site_label
_atom_site_fract_x
_atom_site_fract_y
_atom_site_fract_z
Si Si1 0.179187 0.125777 0.150326
Si Si2 0.797964 0.354073 0.073998
Si Si3 0.950042 0.495222 0.165700
Si Si4 0.250000 0.250000 0.250000
Si Si5 0.913638 0.488119 0.675531
O O1 0.186805 0.418643 0.126502
O O2 0.218785 0.083536 0.201938
O O3 0.135191 0.066843 0.187888
O O4 0.178784 0.912160 0.089049
O O5 0.750000 0.250000 0.078782
O O6 0.802254 0.500000 0.000000
O O7 0.937419 0.502304 0.248982
O O8 0.931385 0.749602 0.133576
O O9 0.000000 0.500000 0.159650
O O10 0.926292 0.247887 0.138432
#
# Coordination Sequence:
#
# PCOD9326126 Si02
#       5
#    16  16  16   4  16
#     4  12  25  39  62  93 127 166 208 255 332 381
#     4  12  24  46  66  84 109 164 233 283 307 351
#     4  10  18  33  54  80 122 174 202 227 294 386
#     4  12  24  42  56  94 136 178 196 240 336 430
#     4  10  19  32  50  82 119 153 195 254 286 364
#
# _framework density 21.399305999999999
#
# number of rings (size 3 to 8) (size 9 to 14) (size 15 to 20)
#    0.000    0.941    2.353    8.471    0.000    3.765 
#    0.000    0.000    0.000    0.000    0.000    0.000 
#    0.000  109.176    0.000    0.000    0.000    0.000 
#
# Total GULP energy -94709.218533 kJ/mol
# GULP energy per Si atom -5571.130502 kJ/mol
# Density = 2.135060 g / cm^3
# Si number density = 21.399306 Si / 1000 Ang^3
#
#
#
# Elastic Constant Matrix: (Units=GPa)
#
#
# Indices 1 2 3 4 5 6 
#
# 1 158.3063 46.4507 11.0327 -0.0009 -0.0587 -0.0013
# 2 46.4507 207.3771 17.3632 -0.0040 -0.2084 -0.0071
# 3 11.0327 17.3632 33.8137 -0.0013 -0.0375 -0.0017
# 4 -0.0009 -0.0040 -0.0013 18.0701 -0.0928 -0.0024
# 5 -0.0587 -0.2084 -0.0375 -0.0928 -176.4893 -0.0359
# 6 -0.0013 -0.0071 -0.0017 -0.0024 -0.0359 37.3498
#
#
#
# Elastic Compliance Matrix: (Units=1/GPa)
#
#
# Indices 1 2 3 4 5 6 
#
# 1 0.006834 -0.001404 -0.001509 0.000000 0.000000 0.000000
# 2 -0.001404 0.005327 -0.002277 0.000001 -0.000005 0.000001
# 3 -0.001509 -0.002277 0.031235 0.000002 -0.000003 0.000001
# 4 0.000000 0.000001 0.000002 0.055340 -0.000029 0.000003
# 5 0.000000 -0.000005 -0.000003 -0.000029 -0.005666 -0.000005
# 6 0.000000 0.000001 0.000001 0.000003 -0.000005 0.026774
#
#
# Mechanical properties :
#
#
# Convention : Reuss Voigt Hill
#
# Bulk Modulus (GPa) = 30.28833 61.02116 45.65474
# Shear Modulus (GPa) = 35.40298 -2.57053 16.41622
#
# Velocity S-wave (km/s) = 4.07184 -1.09719 2.77273
# Velocity P-wave (km/s) = 6.02421 5.19348 5.62421
#
# Compressibility (1/GPa) = 0.03301602
#
# Stress axis : x y z
#
# Youngs Moduli (GPa) = 146.32482 187.70898 32.01492
#
# Poissons Ratio (x) = 0.26363 0.04830
# Poissons Ratio (y) = 0.20551 0.07291
# Poissons Ratio (z) = 0.22075 0.42748
#
# Static dielectric constant tensor:
#      x y z
#    x 1.799000 0.000290 0.000000 
#    y 0.000290 10.598050 -0.001100 
#    z 0.000000 -0.001100 1.771210 
# 
# From -- ./inp_files/3983.got.cif
#   From: 2010.05.17/outbox.cif.g08.bks.cpg/sg22_2_cif.got.tgz:3983.got - 2010.06.03 23:40:54.
