data_PCOD9326415
_publ_section_title
;
Structure prediction by ZEFSAII (Michael W. Deem and Ramdas Pophale) SiO2 
 PCOD9326415
Probable space group: F 2 2 2
;
_chemical_formula_sum "Si O2"
_cell_formula_units_Z 108
_cell_length_a 28.797170
_cell_length_b 12.440187
_cell_length_c 15.063493
_cell_angle_alpha 90.000000
_cell_angle_beta 90.000000
_cell_angle_gamma 90.000000
_cell_volume 5396.378569
_symmetry_space_group_name_H-M "F 2 2 2"
_symmetry_group_IT_number 22
_symmetry_cell_setting 'orthorhombic'
loop_
_space_group_symop_operation_xyz
x,y,z
-x,-y,z
x,-y,-z
-x,y,-z
x,1/2+y,1/2+z
-x,1/2-y,1/2+z
x,1/2-y,1/2-z
-x,1/2+y,1/2-z
1/2+x,y,1/2+z
1/2-x,-y,1/2+z
1/2+x,-y,1/2-z
1/2-x,y,1/2-z
1/2+x,1/2+y,z
1/2-x,1/2-y,z
1/2+x,1/2-y,-z
1/2-x,1/2+y,-z
loop_
_atom_site_type_symbol
_atom_site_label
_atom_site_fract_x
_atom_site_fract_y
_atom_site_fract_z
Si Si1 0.127333 0.638525 0.878333
Si Si2 0.804557 0.500000 0.000000
Si Si3 0.203443 0.298258 0.349588
Si Si4 0.288134 0.659610 0.358748
Si Si5 0.950136 0.197678 0.486148
Si Si6 0.835660 0.000733 0.219342
Si Si7 0.500000 0.500000 0.500000
Si Si8 0.619454 0.706277 0.848546
O O1 0.159922 0.561556 0.936326
O O2 0.155607 0.749997 0.884005
O O3 0.078256 0.662675 0.925190
O O4 0.132926 0.578754 0.782383
O O5 0.776145 0.584265 0.941831
O O6 0.205096 0.250000 0.250000
O O7 0.250000 0.250000 0.393449
O O8 0.198029 0.424820 0.338267
O O9 0.250000 0.750000 0.342232
O O10 0.303405 0.578982 0.279604
O O11 0.335152 0.726129 0.377013
O O12 0.918906 0.264267 0.419988
O O13 0.000000 0.253063 0.500000
O O14 0.967027 0.081744 0.446674
O O15 0.866960 0.081938 0.162846
O O16 0.606856 0.750000 0.750000
#
# Coordination Sequence:
#
# PCOD9326415 Si02
#       8
#    16   8  16  16  16  16   4  16
#     4  10  19  36  62  87 120 154 204 252 309 369
#     4  10  19  34  57  78 122 152 193 248 309 348
#     4   9  19  36  59  87 118 160 209 250 300 366
#     4  10  21  34  55  85 122 163 205 251 302 362
#     4  10  21  37  63  92 120 155 206 267 319 375
#     4   9  21  36  61  86 122 170 204 253 307 372
#     4   8  22  32  72  88 110 148 218 248 330 362
#     4  10  21  36  59  89 126 156 205 259 314 374
#
# _framework density 20.013421000000001
#
# number of rings (size 3 to 8) (size 9 to 14) (size 15 to 20)
#    0.444    1.926    1.481    0.444    4.148    9.185 
#    0.000    5.185    0.000    5.333    0.000    0.000 
#    0.000    0.000    0.000    0.000    0.000    0.000 
#
# Total GULP energy -150400.136814 kJ/mol
# GULP energy per Si atom -5570.375438 kJ/mol
# Density = 1.996787 g / cm^3
# Si number density = 20.013421 Si / 1000 Ang^3
#
#
#
# Elastic Constant Matrix: (Units=GPa)
#
#
# Indices 1 2 3 4 5 6 
#
# 1 142.4035 64.9704 42.1860 0.0000 0.0000 0.0000
# 2 64.9704 133.0549 45.9150 0.0000 0.0000 0.0000
# 3 42.1860 45.9150 55.3204 0.0000 0.0000 0.0000
# 4 0.0000 0.0000 0.0000 28.3793 0.0000 0.0000
# 5 0.0000 0.0000 0.0000 0.0000 10.9663 0.0000
# 6 0.0000 0.0000 0.0000 0.0000 0.0000 -44.2644
#
#
#
# Elastic Compliance Matrix: (Units=1/GPa)
#
#
# Indices 1 2 3 4 5 6 
#
# 1 0.009922 -0.003131 -0.004968 0.000000 0.000000 0.000000
# 2 -0.003131 0.011520 -0.007174 0.000000 0.000000 0.000000
# 3 -0.004968 -0.007174 0.027820 0.000000 0.000000 0.000000
# 4 0.000000 0.000000 0.000000 0.035237 0.000000 0.000000
# 5 0.000000 0.000000 0.000000 0.000000 0.091188 0.000000
# 6 0.000000 0.000000 0.000000 0.000000 0.000000 -0.022591
#
#
# Mechanical properties :
#
#
# Convention : Reuss Voigt Hill
#
# Bulk Modulus (GPa) = 53.42991 70.76905 62.09948
# Shear Modulus (GPa) = 26.33238 10.86340 18.59789
#
# Velocity S-wave (km/s) = 3.63124 2.33235 3.05170
# Velocity P-wave (km/s) = 6.65855 6.53381 6.59647
#
# Compressibility (1/GPa) = 0.01871611
#
# Stress axis : x y z
#
# Youngs Moduli (GPa) = 100.78173 86.80530 35.94596
#
# Poissons Ratio (x) = 0.27176 0.17859
# Poissons Ratio (y) = 0.31551 0.25788
# Poissons Ratio (z) = 0.50071 0.62275
#
# Static dielectric constant tensor:
#      x y z
#    x 1.753710 0.000000 0.000000 
#    y 0.000000 1.699180 0.000000 
#    z 0.000000 0.000000 1.824720 
# 
# From -- ./inp_files/33560.got.cif
#   From: 2010.05.17/outbox.cif.g08.bks.cpg/sg22_17_cif.got.tgz:33560.got - 2010.06.03 23:40:54.
