data_PCOD9326028
_publ_section_title
;
Structure prediction by ZEFSAII (Michael W. Deem and Ramdas Pophale) SiO2 
 PCOD9326028
Probable space group: F 2 2 2
;
_chemical_formula_sum "Si O2"
_cell_formula_units_Z 104
_cell_length_a 19.824967
_cell_length_b 16.904188
_cell_length_c 13.360056
_cell_angle_alpha 90.000000
_cell_angle_beta 90.000000
_cell_angle_gamma 90.000000
_cell_volume 4477.288356
_symmetry_space_group_name_H-M "F 2 2 2"
_symmetry_group_IT_number 22
_symmetry_cell_setting 'orthorhombic'
loop_
_space_group_symop_operation_xyz
x,y,z
-x,-y,z
x,-y,-z
-x,y,-z
x,1/2+y,1/2+z
-x,1/2-y,1/2+z
x,1/2-y,1/2-z
-x,1/2+y,1/2-z
1/2+x,y,1/2+z
1/2-x,-y,1/2+z
1/2+x,-y,1/2-z
1/2-x,y,1/2-z
1/2+x,1/2+y,z
1/2-x,1/2-y,z
1/2+x,1/2-y,-z
1/2-x,1/2+y,-z
loop_
_atom_site_type_symbol
_atom_site_label
_atom_site_fract_x
_atom_site_fract_y
_atom_site_fract_z
Si Si1 0.704273 0.325968 0.636716
Si Si2 0.584540 0.363224 0.781761
Si Si3 0.108569 0.723971 0.510331
Si Si4 0.674736 0.500000 0.500000
Si Si5 0.796401 0.584498 0.503610
Si Si6 0.447278 0.688362 0.327975
Si Si7 0.076368 0.490734 0.832192
O O1 0.750000 0.250000 0.651200
O O2 0.654698 0.342140 0.728299
O O3 0.654997 0.295923 0.548366
O O4 0.758919 0.390858 0.600700
O O5 0.581524 0.323735 0.891217
O O6 0.522842 0.331105 0.713097
O O7 0.580101 0.458510 0.770045
O O8 0.157762 0.656615 0.462700
O O9 0.941563 0.764990 0.567681
O O10 0.726516 0.559239 0.556992
O O11 0.625685 0.530141 0.413276
O O12 0.834140 0.500000 0.500000
O O13 0.416289 0.750000 0.250000
O O14 0.411955 0.602797 0.327334
O O15 0.000000 0.500000 0.870008
#
# Coordination Sequence:
#
# PCOD9326028 Si02
#       7
#    16  16  16   8  16  16  16
#     4  10  20  37  61 100 139 169 225 301 363 428
#     4  11  23  43  67 103 138 183 246 305 370 443
#     4  11  24  40  67  98 140 186 241 302 374 441
#     4  10  17  40  66 104 134 189 238 300 364 428
#     4   9  20  36  64 100 137 186 235 290 371 443
#     4  11  26  45  67 101 144 189 237 304 379 446
#     4  10  22  41  69 102 140 188 248 301 357 435
#
# _framework density 23.228345000000001
#
# number of rings (size 3 to 8) (size 9 to 14) (size 15 to 20)
#    0.462    1.231    1.538    2.538    0.000    8.000 
#    2.769    0.000    0.000   13.385    0.000    1.077 
#    0.000    0.000    0.000    0.000    0.000    0.000 
#
# Total GULP energy -144814.922622 kJ/mol
# GULP energy per Si atom -5569.804716 kJ/mol
# Density = 2.317548 g / cm^3
# Si number density = 23.228345 Si / 1000 Ang^3
#
#
#
# Elastic Constant Matrix: (Units=GPa)
#
#
# Indices 1 2 3 4 5 6 
#
# 1 72.5642 35.7178 31.3398 0.0000 0.0000 0.0000
# 2 35.7178 195.7544 60.0972 0.0000 0.0000 0.0000
# 3 31.3398 60.0972 106.7680 0.0000 0.0000 0.0000
# 4 0.0000 0.0000 0.0000 30.7657 0.0000 0.0000
# 5 0.0000 0.0000 0.0000 0.0000 17.1371 0.0000
# 6 0.0000 0.0000 0.0000 0.0000 0.0000 26.7411
#
#
#
# Elastic Compliance Matrix: (Units=1/GPa)
#
#
# Indices 1 2 3 4 5 6 
#
# 1 0.016301 -0.001820 -0.003760 0.000000 0.000000 0.000000
# 2 -0.001820 0.006379 -0.003056 0.000000 0.000000 0.000000
# 3 -0.003760 -0.003056 0.012190 0.000000 0.000000 0.000000
# 4 0.000000 0.000000 0.000000 0.032504 0.000000 0.000000
# 5 0.000000 0.000000 0.000000 0.000000 0.058353 0.000000
# 6 0.000000 0.000000 0.000000 0.000000 0.000000 0.037396
#
#
# Mechanical properties :
#
#
# Convention : Reuss Voigt Hill
#
# Bulk Modulus (GPa) = 56.82903 69.93292 63.38098
# Shear Modulus (GPa) = 26.84410 31.45757 29.15084
#
# Velocity S-wave (km/s) = 3.40319 3.68404 3.54640
# Velocity P-wave (km/s) = 6.32145 6.94754 6.64188
#
# Compressibility (1/GPa) = 0.01759664
#
# Stress axis : x y z
#
# Youngs Moduli (GPa) = 61.34688 156.76982 82.03291
#
# Poissons Ratio (x) = 0.28529 0.30848
# Poissons Ratio (y) = 0.11164 0.25072
# Poissons Ratio (z) = 0.23069 0.47913
#
# Static dielectric constant tensor:
#      x y z
#    x 1.918060 0.000000 0.000000 
#    y 0.000000 2.058000 0.000000 
#    z 0.000000 0.000000 1.959290 
# 
# From -- ./inp_files/45432.got.cif
#   From: 2010.05.17/outbox.cif.g08.bks.cpg/sg22_23_cif.got.tgz:45432.got - 2010.06.03 23:40:54.
