data_PCOD9326407
_publ_section_title
;
Structure prediction by ZEFSAII (Michael W. Deem and Ramdas Pophale) SiO2 
 PCOD9326407
Probable space group: F 2 2 2
;
_chemical_formula_sum "Si O2"
_cell_formula_units_Z 80
_cell_length_a 11.636452
_cell_length_b 13.718056
_cell_length_c 21.213095
_cell_angle_alpha 90.000000
_cell_angle_beta 90.000000
_cell_angle_gamma 90.000000
_cell_volume 3386.235752
_symmetry_space_group_name_H-M "F 2 2 2"
_symmetry_group_IT_number 22
_symmetry_cell_setting 'orthorhombic'
loop_
_space_group_symop_operation_xyz
x,y,z
-x,-y,z
x,-y,-z
-x,y,-z
x,1/2+y,1/2+z
-x,1/2-y,1/2+z
x,1/2-y,1/2-z
-x,1/2+y,1/2-z
1/2+x,y,1/2+z
1/2-x,-y,1/2+z
1/2+x,-y,1/2-z
1/2-x,y,1/2-z
1/2+x,1/2+y,z
1/2-x,1/2-y,z
1/2+x,1/2-y,-z
1/2-x,1/2+y,-z
loop_
_atom_site_type_symbol
_atom_site_label
_atom_site_fract_x
_atom_site_fract_y
_atom_site_fract_z
Si Si1 0.250000 0.750000 0.125407
Si Si2 0.261925 0.388768 0.991404
Si Si3 0.091796 0.413000 0.400212
Si Si4 0.786002 0.362607 0.821285
Si Si5 0.488711 0.225517 0.856622
Si Si6 0.500000 0.163656 0.000000
O O1 0.359131 0.779193 0.166211
O O2 0.277112 0.661725 0.075913
O O3 0.358488 0.349307 0.040109
O O4 0.127653 0.383870 0.009979
O O5 0.295703 0.500000 0.000000
O O6 0.213800 0.435301 0.365623
O O7 0.032197 0.336680 0.352312
O O8 0.000000 0.500000 0.412396
O O9 0.750000 0.380156 0.750000
O O10 0.750000 0.250000 0.837741
O O11 0.922542 0.353231 0.829852
O O12 0.478525 0.208462 0.931549
#
# Coordination Sequence:
#
# PCOD9326407 Si02
#       6
#     8  16  16  16  16   8
#     4  10  22  34  56  89 133 164 196 244 316 386
#     4  11  21  33  52  86 125 162 199 237 301 382
#     4  11  21  34  58  85 119 156 201 259 304 364
#     4   9  19  37  64  85 106 156 221 260 300 366
#     4  10  19  35  59  86 120 158 206 245 308 381
#     4  10  19  34  55  82 122 166 197 242 296 378
#
# _framework density 23.625053000000001
#
# number of rings (size 3 to 8) (size 9 to 14) (size 15 to 20)
#    0.000    1.800    2.000    3.900    1.400    2.000 
#    0.000    0.000   13.200    8.400    0.000    0.000 
#    0.000    0.000    0.000    0.000    0.000    0.000 
#
# Total GULP energy -111335.546844 kJ/mol
# GULP energy per Si atom -5566.777342 kJ/mol
# Density = 2.357128 g / cm^3
# Si number density = 23.625053 Si / 1000 Ang^3
#
#
#
# Elastic Constant Matrix: (Units=GPa)
#
#
# Indices 1 2 3 4 5 6 
#
# 1 234.8442 20.1108 43.7987 0.0000 0.0000 0.0000
# 2 20.1108 42.8701 8.1200 0.0000 0.0000 0.0000
# 3 43.7987 8.1200 57.5305 0.0000 0.0000 0.0000
# 4 0.0000 0.0000 0.0000 11.5263 0.0000 0.0000
# 5 0.0000 0.0000 0.0000 0.0000 19.9903 0.0000
# 6 0.0000 0.0000 0.0000 0.0000 0.0000 38.5418
#
#
#
# Elastic Compliance Matrix: (Units=1/GPa)
#
#
# Indices 1 2 3 4 5 6 
#
# 1 0.005080 -0.001696 -0.003628 0.000000 0.000000 0.000000
# 2 -0.001696 0.024533 -0.002172 0.000000 0.000000 0.000000
# 3 -0.003628 -0.002172 0.020451 0.000000 0.000000 0.000000
# 4 0.000000 0.000000 0.000000 0.086758 0.000000 0.000000
# 5 0.000000 0.000000 0.000000 0.000000 0.050024 0.000000
# 6 0.000000 0.000000 0.000000 0.000000 0.000000 0.025946
#
#
# Mechanical properties :
#
#
# Convention : Reuss Voigt Hill
#
# Bulk Modulus (GPa) = 28.51222 53.25600 40.88411
# Shear Modulus (GPa) = 20.87905 31.55936 26.21920
#
# Velocity S-wave (km/s) = 2.97605 3.65888 3.33499
# Velocity P-wave (km/s) = 4.88917 6.35932 5.67208
#
# Compressibility (1/GPa) = 0.03507269
#
# Stress axis : x y z
#
# Youngs Moduli (GPa) = 196.84970 40.76120 48.89804
#
# Poissons Ratio (x) = 0.06913 0.17741
# Poissons Ratio (y) = 0.33383 0.10619
# Poissons Ratio (z) = 0.71419 0.08852
#
# Static dielectric constant tensor:
#      x y z
#    x 2.057620 0.000000 0.000000 
#    y 0.000000 2.013010 0.000000 
#    z 0.000000 0.000000 2.044330 
# 
# From -- ./inp_files/47970.got.cif
#   From: 2010.05.17/outbox.cif.g08.bks.cpg/sg22_24_cif.got.tgz:47970.got - 2010.06.03 23:40:54.
