data_PCOD9326340
_publ_section_title
;
Structure prediction by ZEFSAII (Michael W. Deem and Ramdas Pophale) SiO2 
 PCOD9326340
Probable space group: F 2 2 2
;
_chemical_formula_sum "Si O2"
_cell_formula_units_Z 120
_cell_length_a 19.218121
_cell_length_b 25.261274
_cell_length_c 12.910109
_cell_angle_alpha 90.000000
_cell_angle_beta 90.000000
_cell_angle_gamma 90.000000
_cell_volume 6267.525101
_symmetry_space_group_name_H-M "F 2 2 2"
_symmetry_group_IT_number 22
_symmetry_cell_setting 'orthorhombic'
loop_
_space_group_symop_operation_xyz
x,y,z
-x,-y,z
x,-y,-z
-x,y,-z
x,1/2+y,1/2+z
-x,1/2-y,1/2+z
x,1/2-y,1/2-z
-x,1/2+y,1/2-z
1/2+x,y,1/2+z
1/2-x,-y,1/2+z
1/2+x,-y,1/2-z
1/2-x,y,1/2-z
1/2+x,1/2+y,z
1/2-x,1/2-y,z
1/2+x,1/2-y,-z
1/2-x,1/2+y,-z
loop_
_atom_site_type_symbol
_atom_site_label
_atom_site_fract_x
_atom_site_fract_y
_atom_site_fract_z
Si Si1 0.143899 0.832038 0.020628
Si Si2 0.442640 0.902545 0.635021
Si Si3 0.797509 0.132918 0.487424
Si Si4 0.168251 0.266190 0.864777
Si Si5 0.824366 0.084024 0.692627
Si Si6 0.407428 0.500000 0.000000
Si Si7 0.809608 0.538784 0.836618
Si Si8 0.102935 0.914478 0.170824
O O1 0.221663 0.844071 0.981960
O O2 0.133349 0.771215 0.048639
O O3 0.142827 0.863012 0.130612
O O4 0.087711 0.858475 0.944147
O O5 0.386766 0.909315 0.726072
O O6 0.443877 0.957620 0.572743
O O7 0.522361 0.897374 0.667217
O O8 0.832023 0.173680 0.405865
O O9 0.835124 0.122874 0.595987
O O10 0.790806 0.075728 0.432704
O O11 0.142103 0.250000 0.750000
O O12 0.250000 0.250000 0.864303
O O13 0.750000 0.093209 0.750000
O O14 0.820283 0.023683 0.649970
O O15 0.375198 0.539800 0.086334
O O16 0.750000 0.545175 0.750000
O O17 0.877344 0.563239 0.781595
#
# Coordination Sequence:
#
# PCOD9326340 Si02
#       8
#    16  16  16  16  16   8  16  16
#     4  10  19  35  58  87 117 142 198 262 299 345
#     4  11  21  35  57  84 121 158 198 245 299 358
#     4  11  21  37  59  86 120 155 198 243 302 361
#     4   9  19  34  60  88 116 151 197 253 300 347
#     4  11  23  37  54  84 126 165 191 237 296 367
#     4  10  19  32  54  86 114 152 201 246 291 352
#     4  11  22  34  57  87 121 156 194 247 300 352
#     4  11  20  33  58  88 116 153 197 251 302 345
#
# _framework density 19.146312999999999
#
# number of rings (size 3 to 8) (size 9 to 14) (size 15 to 20)
#    0.000    1.467    4.000    3.600    1.867    0.000 
#    0.000    1.333    0.000    9.600    0.000    0.000 
#    0.000    0.000    0.000    0.000    0.000    0.000 
#
# Total GULP energy -167174.647795 kJ/mol
# GULP energy per Si atom -5572.488260 kJ/mol
# Density = 1.910274 g / cm^3
# Si number density = 19.146313 Si / 1000 Ang^3
#
#
#
# Elastic Constant Matrix: (Units=GPa)
#
#
# Indices 1 2 3 4 5 6 
#
# 1 60.6582 15.3417 34.0219 0.0000 0.0000 0.0000
# 2 15.3417 79.5998 38.3466 0.0000 0.0000 0.0000
# 3 34.0219 38.3466 92.1754 0.0000 0.0000 0.0000
# 4 0.0000 0.0000 0.0000 22.6629 0.0000 0.0000
# 5 0.0000 0.0000 0.0000 0.0000 24.8973 0.0000
# 6 0.0000 0.0000 0.0000 0.0000 0.0000 9.3723
#
#
#
# Elastic Compliance Matrix: (Units=1/GPa)
#
#
# Indices 1 2 3 4 5 6 
#
# 1 0.020799 -0.000388 -0.007516 0.000000 0.000000 0.000000
# 2 -0.000388 0.015719 -0.006396 0.000000 0.000000 0.000000
# 3 -0.007516 -0.006396 0.016284 0.000000 0.000000 0.000000
# 4 0.000000 0.000000 0.000000 0.044125 0.000000 0.000000
# 5 0.000000 0.000000 0.000000 0.000000 0.040165 0.000000
# 6 0.000000 0.000000 0.000000 0.000000 0.000000 0.106697
#
#
# Mechanical properties :
#
#
# Convention : Reuss Voigt Hill
#
# Bulk Modulus (GPa) = 41.31825 45.31708 43.31766
# Shear Modulus (GPa) = 17.82812 21.03473 19.43142
#
# Velocity S-wave (km/s) = 3.05479 3.31816 3.18919
# Velocity P-wave (km/s) = 5.83690 6.19681 6.01954
#
# Compressibility (1/GPa) = 0.02420238
#
# Stress axis : x y z
#
# Youngs Moduli (GPa) = 48.07849 63.61765 61.41104
#
# Poissons Ratio (x) = 0.02470 0.46154
# Poissons Ratio (y) = 0.01867 0.39279
# Poissons Ratio (z) = 0.36133 0.40690
#
# Static dielectric constant tensor:
#      x y z
#    x 1.689850 0.000000 0.000000 
#    y 0.000000 1.685930 0.000000 
#    z 0.000000 0.000000 1.694040 
# 
# From -- ./inp_files/23013.got.cif
#   From: 2010.05.17/outbox.cif.g08.bks.cpg/sg22_12_cif.got.tgz:23013.got - 2010.06.03 23:40:54.
