data_PCOD9326958
_publ_section_title
;
Structure prediction by ZEFSAII (Michael W. Deem and Ramdas Pophale) SiO2 
 PCOD9326958
Probable space group: F 2 2 2
;
_chemical_formula_sum "Si O2"
_cell_formula_units_Z 72
_cell_length_a 23.224656
_cell_length_b 13.874970
_cell_length_c 8.515718
_cell_angle_alpha 90.000000
_cell_angle_beta 90.000000
_cell_angle_gamma 90.000000
_cell_volume 2744.116935
_symmetry_space_group_name_H-M "F 2 2 2"
_symmetry_group_IT_number 22
_symmetry_cell_setting 'orthorhombic'
loop_
_space_group_symop_operation_xyz
x,y,z
-x,-y,z
x,-y,-z
-x,y,-z
x,1/2+y,1/2+z
-x,1/2-y,1/2+z
x,1/2-y,1/2-z
-x,1/2+y,1/2-z
1/2+x,y,1/2+z
1/2-x,-y,1/2+z
1/2+x,-y,1/2-z
1/2-x,y,1/2-z
1/2+x,1/2+y,z
1/2-x,1/2-y,z
1/2+x,1/2-y,-z
1/2-x,1/2+y,-z
loop_
_atom_site_type_symbol
_atom_site_label
_atom_site_fract_x
_atom_site_fract_y
_atom_site_fract_z
Si Si1 0.000000 0.363686 0.000000
Si Si2 0.866980 0.636537 0.551550
Si Si3 0.755480 0.867176 0.427748
Si Si4 0.027418 0.607728 0.655680
Si Si5 0.624485 0.131168 0.089807
O O1 0.934695 0.403392 0.015557
O O2 0.009925 0.339399 0.185647
O O3 0.801557 0.607333 0.521894
O O4 0.906660 0.604037 0.404801
O O5 0.875105 0.752348 0.564948
O O6 0.879770 0.603483 0.727945
O O7 0.750000 0.902698 0.250000
O O8 0.750000 0.750000 0.422053
O O9 0.815113 0.895572 0.509439
O O10 0.000000 0.500000 0.666124
O O11 0.000000 0.657563 0.500000
#
# Coordination Sequence:
#
# PCOD9326958 Si02
#       5
#     8  16  16  16  16
#     4  12  23  38  62  94 123 156 208 264 320 384
#     4  10  20  37  59  89 129 165 210 256 313 381
#     4   9  17  32  53  86 127 166 201 248 312 379
#     4  11  24  42  61  87 118 168 213 258 308 365
#     4  10  21  33  59  95 129 163 201 259 323 382
#
# _framework density 26.237949
#
# number of rings (size 3 to 8) (size 9 to 14) (size 15 to 20)
#    0.000    1.778    2.222    2.333    1.556    5.333 
#    0.000    0.000    0.000    0.000   34.667    0.000 
#    0.000    0.000    0.000    0.000    0.000    0.000 
#
# Total GULP energy -100463.385240 kJ/mol
# GULP energy per Si atom -5581.299180 kJ/mol
# Density = 2.617823 g / cm^3
# Si number density = 26.237949 Si / 1000 Ang^3
#
#
#
# Elastic Constant Matrix: (Units=GPa)
#
#
# Indices 1 2 3 4 5 6 
#
# 1 259.9452 37.8698 68.9599 0.0000 0.0000 0.0000
# 2 37.8698 112.6817 75.2984 0.0000 0.0000 0.0000
# 3 68.9599 75.2984 207.2245 0.0000 0.0000 0.0000
# 4 0.0000 0.0000 0.0000 8.4358 0.0000 0.0000
# 5 0.0000 0.0000 0.0000 0.0000 63.8771 0.0000
# 6 0.0000 0.0000 0.0000 0.0000 0.0000 -23.5910
#
#
#
# Elastic Compliance Matrix: (Units=1/GPa)
#
#
# Indices 1 2 3 4 5 6 
#
# 1 0.004254 -0.000639 -0.001184 0.000000 0.000000 0.000000
# 2 -0.000639 0.011816 -0.004081 0.000000 0.000000 0.000000
# 3 -0.001184 -0.004081 0.006702 0.000000 0.000000 0.000000
# 4 0.000000 0.000000 0.000000 0.118543 0.000000 0.000000
# 5 0.000000 0.000000 0.000000 0.000000 0.015655 0.000000
# 6 0.000000 0.000000 0.000000 0.000000 0.000000 -0.042389
#
#
# Mechanical properties :
#
#
# Convention : Reuss Voigt Hill
#
# Bulk Modulus (GPa) = 91.19078 104.90085 98.04582
# Shear Modulus (GPa) = 38.44853 36.25925 37.35389
#
# Velocity S-wave (km/s) = 3.83218 3.72148 3.77723
# Velocity P-wave (km/s) = 7.37642 7.65070 7.51481
#
# Compressibility (1/GPa) = 0.01096602
#
# Stress axis : x y z
#
# Youngs Moduli (GPa) = 235.07285 84.62815 149.19871
#
# Poissons Ratio (x) = 0.05406 0.17658
# Poissons Ratio (y) = 0.15016 0.60890
# Poissons Ratio (z) = 0.27821 0.34538
#
# Static dielectric constant tensor:
#      x y z
#    x 2.023480 0.000000 0.000000 
#    y 0.000000 2.247560 0.000000 
#    z 0.000000 0.000000 1.990310 
# 
# From -- ./inp_files/12480.got.cif
#   From: 2010.05.17/outbox.cif.g08.bks.cpg/sg22_7_cif.got.tgz:12480.got - 2010.06.03 23:40:54.
