data_PCOD9326536
_publ_section_title
;
Structure prediction by ZEFSAII (Michael W. Deem and Ramdas Pophale) SiO2 
 PCOD9326536
Probable space group: F 2 2 2
;
_chemical_formula_sum "Si O2"
_cell_formula_units_Z 96
_cell_length_a 14.789621
_cell_length_b 14.480565
_cell_length_c 22.694981
_cell_angle_alpha 90.000000
_cell_angle_beta 90.000000
_cell_angle_gamma 90.000000
_cell_volume 4860.404069
_symmetry_space_group_name_H-M "F 2 2 2"
_symmetry_group_IT_number 22
_symmetry_cell_setting 'orthorhombic'
loop_
_space_group_symop_operation_xyz
x,y,z
-x,-y,z
x,-y,-z
-x,y,-z
x,1/2+y,1/2+z
-x,1/2-y,1/2+z
x,1/2-y,1/2-z
-x,1/2+y,1/2-z
1/2+x,y,1/2+z
1/2-x,-y,1/2+z
1/2+x,-y,1/2-z
1/2-x,y,1/2-z
1/2+x,1/2+y,z
1/2-x,1/2-y,z
1/2+x,1/2-y,-z
1/2-x,1/2+y,-z
loop_
_atom_site_type_symbol
_atom_site_label
_atom_site_fract_x
_atom_site_fract_y
_atom_site_fract_z
Si Si1 0.469667 0.250000 0.750000
Si Si2 0.000000 0.500000 0.344368
Si Si3 0.857856 0.939760 0.746776
Si Si4 0.836669 0.698425 0.910730
Si Si5 0.097804 0.661441 0.966216
Si Si6 0.479960 0.799363 0.623628
Si Si7 0.892101 0.496000 0.875341
O O1 0.407553 0.159678 0.763448
O O2 0.529102 0.227559 0.692402
O O3 0.087389 0.522474 0.303411
O O4 0.021621 0.408852 0.381129
O O5 0.750000 0.926395 0.750000
O O6 0.873445 0.013914 0.694068
O O7 0.750000 0.750000 0.886958
O O8 0.848706 0.594891 0.888317
O O9 0.921661 0.759965 0.892804
O O10 0.836852 0.687758 0.981067
O O11 0.083452 0.745480 0.921254
O O12 0.132028 0.577868 0.925315
O O13 0.000000 0.640709 0.000000
O O14 0.000000 0.500000 0.880616
#
# Coordination Sequence:
#
# PCOD9326536 Si02
#       7
#     8   8  16  16  16  16  16
#     4  10  19  36  62  94 121 156 203 266 320 376
#     4  10  24  38  57  90 131 172 204 250 316 406
#     4  11  23  37  60  95 128 162 210 256 325 386
#     4  11  24  39  62  99 123 156 213 276 326 370
#     4  10  21  40  65  90 121 161 217 267 318 380
#     4  10  21  38  63  86 125 165 211 256 316 388
#     4  12  20  38  68  97 121 162 214 271 319 380
#
# _framework density 19.751443999999999
#
# number of rings (size 3 to 8) (size 9 to 14) (size 15 to 20)
#    0.000    1.333    5.833    0.750    7.000    0.000 
#    3.000    5.417    0.000    1.000    0.000    0.000 
#    0.000    0.000    0.000    0.000    0.000    0.000 
#
# Total GULP energy -133895.673953 kJ/mol
# GULP energy per Si atom -5578.986415 kJ/mol
# Density = 1.970649 g / cm^3
# Si number density = 19.751444 Si / 1000 Ang^3
#
#
#
# Elastic Constant Matrix: (Units=GPa)
#
#
# Indices 1 2 3 4 5 6 
#
# 1 10.0076 -1.6351 -18.8262 0.0000 0.0000 0.0000
# 2 -1.6351 134.7239 24.1786 0.0000 0.0000 0.0000
# 3 -18.8262 24.1786 74.8744 0.0000 0.0000 0.0000
# 4 0.0000 0.0000 0.0000 60.2093 0.0000 0.0000
# 5 0.0000 0.0000 0.0000 0.0000 8.3588 0.0000
# 6 0.0000 0.0000 0.0000 0.0000 0.0000 21.6399
#
#
#
# Elastic Compliance Matrix: (Units=1/GPa)
#
#
# Indices 1 2 3 4 5 6 
#
# 1 0.195374 -0.006842 0.051333 0.000000 0.000000 0.000000
# 2 -0.006842 0.008119 -0.004342 0.000000 0.000000 0.000000
# 3 0.051333 -0.004342 0.027665 0.000000 0.000000 0.000000
# 4 0.000000 0.000000 0.000000 0.016609 0.000000 0.000000
# 5 0.000000 0.000000 0.000000 0.000000 0.119635 0.000000
# 6 0.000000 0.000000 0.000000 0.000000 0.000000 0.046211
#
#
# Mechanical properties :
#
#
# Convention : Reuss Voigt Hill
#
# Bulk Modulus (GPa) = 3.21071 25.22673 14.21872
# Shear Modulus (GPa) = 11.43822 32.43416 21.93619
#
# Velocity S-wave (km/s) = 2.40908 4.05670 3.33620
# Velocity P-wave (km/s) = 3.06060 5.89425 4.69625
#
# Compressibility (1/GPa) = 0.31145724
#
# Stress axis : x y z
#
# Youngs Moduli (GPa) = 5.11840 123.17102 36.14689
#
# Poissons Ratio (x) = 0.84268 -1.85554
# Poissons Ratio (y) = 0.03502 0.15695
# Poissons Ratio (z) = -0.26274 0.53480
#
# Static dielectric constant tensor:
#      x y z
#    x 1.615010 0.000000 0.000000 
#    y 0.000000 1.697310 0.000000 
#    z 0.000000 0.000000 1.767870 
# 
# From -- ./inp_files/29564.got.cif
#   From: 2010.05.17/outbox.cif.g08.bks.cpg/sg22_15_cif.got.tgz:29564.got - 2010.06.03 23:40:54.
