data_PCOD9326554
_publ_section_title
;
Structure prediction by ZEFSAII (Michael W. Deem and Ramdas Pophale) SiO2 
 PCOD9326554
Probable space group: F 2 2 2
;
_chemical_formula_sum "Si O2"
_cell_formula_units_Z 40
_cell_length_a 14.445219
_cell_length_b 5.360770
_cell_length_c 21.300240
_cell_angle_alpha 90.000000
_cell_angle_beta 90.000000
_cell_angle_gamma 90.000000
_cell_volume 1649.437264
_symmetry_space_group_name_H-M "F 2 2 2"
_symmetry_group_IT_number 22
_symmetry_cell_setting 'orthorhombic'
loop_
_space_group_symop_operation_xyz
x,y,z
-x,-y,z
x,-y,-z
-x,y,-z
x,1/2+y,1/2+z
-x,1/2-y,1/2+z
x,1/2-y,1/2-z
-x,1/2+y,1/2-z
1/2+x,y,1/2+z
1/2-x,-y,1/2+z
1/2+x,-y,1/2-z
1/2-x,y,1/2-z
1/2+x,1/2+y,z
1/2-x,1/2-y,z
1/2+x,1/2-y,-z
1/2-x,1/2+y,-z
loop_
_atom_site_type_symbol
_atom_site_label
_atom_site_fract_x
_atom_site_fract_y
_atom_site_fract_z
Si Si1 0.597370 0.240512 0.176390
Si Si2 0.109526 0.273078 0.375767
Si Si3 0.807082 0.500000 0.500000
O O1 0.574979 0.250000 0.250000
O O2 0.648017 0.499591 0.164974
O O3 0.500134 0.255399 0.138566
O O4 0.643954 0.993966 0.148442
O O5 0.133218 0.365380 0.445537
O O6 0.750000 0.750000 0.523039
#
# Coordination Sequence:
#
# PCOD9326554 Si02
#       3
#    16  16   8
#     4  10  19  36  67 101 123 142 187 270 346 381
#     4  10  20  36  60  89 124 159 200 251 315 371
#     4  12  26  43  58  81 128 184 224 246 278 360
#
# _framework density 24.250695
#
# number of rings (size 3 to 8) (size 9 to 14) (size 15 to 20)
#    0.000    1.600    0.000    8.400    0.000    3.200 
#    0.000    8.000    0.000   28.800    0.000    0.000 
#    0.000    0.000    0.000    0.000    0.000    0.000 
#
# Total GULP energy -55701.686774 kJ/mol
# GULP energy per Si atom -5570.168677 kJ/mol
# Density = 2.419550 g / cm^3
# Si number density = 24.250695 Si / 1000 Ang^3
#
#
#
# Elastic Constant Matrix: (Units=GPa)
#
#
# Indices 1 2 3 4 5 6 
#
# 1 118.3268 43.5860 54.4087 0.0000 -0.0006 -0.0002
# 2 43.5860 306.5651 82.9138 0.0000 -0.0043 -0.0006
# 3 54.4087 82.9138 191.2043 0.0000 0.0009 0.0001
# 4 0.0000 0.0000 0.0000 40.0194 0.0001 0.0000
# 5 -0.0006 -0.0043 0.0009 0.0001 -517.6797 0.0019
# 6 -0.0002 -0.0006 0.0001 0.0000 0.0019 3.2987
#
#
#
# Elastic Compliance Matrix: (Units=1/GPa)
#
#
# Indices 1 2 3 4 5 6 
#
# 1 0.009865 -0.000729 -0.002491 0.000000 0.000000 0.000001
# 2 -0.000729 0.003749 -0.001418 0.000000 0.000000 0.000001
# 3 -0.002491 -0.001418 0.006554 0.000000 0.000000 -0.000001
# 4 0.000000 0.000000 0.000000 0.024988 0.000000 0.000000
# 5 0.000000 0.000000 0.000000 0.000000 -0.001932 0.000001
# 6 0.000001 0.000001 -0.000001 0.000000 0.000001 0.303148
#
#
# Mechanical properties :
#
#
# Convention : Reuss Voigt Hill
#
# Bulk Modulus (GPa) = 91.81465 108.65702 100.23584
# Shear Modulus (GPa) = 13.91672 -65.85982 -25.97155
#
# Velocity S-wave (km/s) = 2.39815 -5.21698 -3.27610
# Velocity P-wave (km/s) = 6.75359 2.93494 5.20696
#
# Compressibility (1/GPa) = 0.01089151
#
# Stress axis : x y z
#
# Youngs Moduli (GPa) = 101.36740 266.72403 152.57939
#
# Poissons Ratio (x) = 0.19439 0.38010
# Poissons Ratio (y) = 0.07388 0.21642
# Poissons Ratio (z) = 0.25252 0.37832
#
# Static dielectric constant tensor:
#      x y z
#    x 1.832820 0.000000 0.000000 
#    y 0.000000 2.070990 0.000000 
#    z 0.000000 0.000000 1.943840 
# 
# From -- ./inp_files/2144.got.cif
#   From: 2010.05.17/outbox.cif.g08.bks.cpg/sg22_2_cif.got.tgz:2144.got - 2010.06.03 23:40:54.
