data_PCOD9326586
_publ_section_title
;
Structure prediction by ZEFSAII (Michael W. Deem and Ramdas Pophale) SiO2 
 PCOD9326586
Probable space group: F 2 2 2
;
_chemical_formula_sum "Si O2"
_cell_formula_units_Z 112
_cell_length_a 13.452114
_cell_length_b 15.864807
_cell_length_c 23.738689
_cell_angle_alpha 90.000000
_cell_angle_beta 90.000000
_cell_angle_gamma 90.000000
_cell_volume 5066.196879
_symmetry_space_group_name_H-M "F 2 2 2"
_symmetry_group_IT_number 22
_symmetry_cell_setting 'orthorhombic'
loop_
_space_group_symop_operation_xyz
x,y,z
-x,-y,z
x,-y,-z
-x,y,-z
x,1/2+y,1/2+z
-x,1/2-y,1/2+z
x,1/2-y,1/2-z
-x,1/2+y,1/2-z
1/2+x,y,1/2+z
1/2-x,-y,1/2+z
1/2+x,-y,1/2-z
1/2-x,y,1/2-z
1/2+x,1/2+y,z
1/2-x,1/2-y,z
1/2+x,1/2-y,-z
1/2-x,1/2+y,-z
loop_
_atom_site_type_symbol
_atom_site_label
_atom_site_fract_x
_atom_site_fract_y
_atom_site_fract_z
Si Si1 0.862886 0.258031 0.165298
Si Si2 0.106071 0.456156 0.834085
Si Si3 0.423356 0.700170 0.805892
Si Si4 0.891737 0.167254 0.927409
Si Si5 0.881761 0.489540 0.711670
Si Si6 0.285576 0.491775 0.902788
Si Si7 0.878796 0.333610 0.450090
O O1 0.750000 0.250000 0.188292
O O2 0.896679 0.355148 0.166914
O O3 0.855218 0.228628 0.100655
O O4 0.954726 0.204648 0.192168
O O5 0.150830 0.483225 0.773563
O O6 0.171166 0.489031 0.885928
O O7 0.000000 0.500000 0.836801
O O8 0.394375 0.750000 0.750000
O O9 0.390671 0.722856 0.870204
O O10 0.372619 0.610019 0.796993
O O11 0.006812 0.140299 0.936973
O O12 0.827580 0.082768 0.918875
O O13 0.866546 0.206217 0.988093
O O14 0.836329 0.534169 0.657229
O O15 0.000000 0.500000 0.709353
O O16 0.314785 0.418526 0.945535
#
# Coordination Sequence:
#
# PCOD9326586 Si02
#       7
#    16  16  16  16  16  16  16
#     4  11  22  39  65  99 134 174 231 293 339 397
#     4  11  24  40  60  86 141 186 218 270 346 424
#     4  10  20  37  62  94 133 166 212 272 339 405
#     4   9  20  35  66  97 126 165 212 281 348 394
#     4  10  20  35  58  89 128 167 210 272 337 405
#     4  11  19  35  63  93 126 164 218 273 339 408
#     4  10  19  37  65  99 128 157 216 292 347 389
#
# _framework density 22.107313000000001
#
# number of rings (size 3 to 8) (size 9 to 14) (size 15 to 20)
#    0.000    1.714    1.429    5.571    0.000    1.429 
#    2.571    0.000   15.714   25.714    0.000    1.000 
#    0.000    0.000    0.000    0.000    0.000    0.000 
#
# Total GULP energy -156289.248026 kJ/mol
# GULP energy per Si atom -5581.758858 kJ/mol
# Density = 2.205700 g / cm^3
# Si number density = 22.107313 Si / 1000 Ang^3
#
#
#
# Elastic Constant Matrix: (Units=GPa)
#
#
# Indices 1 2 3 4 5 6 
#
# 1 75.0899 18.5077 7.3593 0.0000 0.0000 0.0000
# 2 18.5077 72.2634 29.6949 0.0000 0.0000 0.0000
# 3 7.3593 29.6949 158.4048 0.0000 0.0000 0.0000
# 4 0.0000 0.0000 0.0000 50.1108 0.0000 0.0000
# 5 0.0000 0.0000 0.0000 0.0000 21.8237 0.0000
# 6 0.0000 0.0000 0.0000 0.0000 0.0000 -24.1805
#
#
#
# Elastic Compliance Matrix: (Units=1/GPa)
#
#
# Indices 1 2 3 4 5 6 
#
# 1 0.014215 -0.003650 0.000024 0.000000 0.000000 0.000000
# 2 -0.003650 0.015931 -0.002817 0.000000 0.000000 0.000000
# 3 0.000024 -0.002817 0.006840 0.000000 0.000000 0.000000
# 4 0.000000 0.000000 0.000000 0.019956 0.000000 0.000000
# 5 0.000000 0.000000 0.000000 0.000000 0.045822 0.000000
# 6 0.000000 0.000000 0.000000 0.000000 0.000000 -0.041356
#
#
# Mechanical properties :
#
#
# Convention : Reuss Voigt Hill
#
# Bulk Modulus (GPa) = 41.49605 46.32022 43.90814
# Shear Modulus (GPa) = 60.73363 26.23055 43.48209
#
# Velocity S-wave (km/s) = 5.24708 3.44831 4.43975
# Velocity P-wave (km/s) = 7.45118 6.07062 6.79605
#
# Compressibility (1/GPa) = 0.02409868
#
# Stress axis : x y z
#
# Youngs Moduli (GPa) = 70.34939 62.77197 146.20159
#
# Poissons Ratio (x) = 0.22914 -0.00350
# Poissons Ratio (y) = 0.25681 0.41182
# Poissons Ratio (z) = -0.00168 0.17682
#
# Static dielectric constant tensor:
#      x y z
#    x 1.752230 0.000000 0.000000 
#    y 0.000000 1.925680 0.000000 
#    z 0.000000 0.000000 1.873340 
# 
# From -- ./inp_files/29605.got.cif
#   From: 2010.05.17/outbox.cif.g08.bks.cpg/sg22_15_cif.got.tgz:29605.got - 2010.06.03 23:40:54.
