data_PCOD9326442
_publ_section_title
;
Structure prediction by ZEFSAII (Michael W. Deem and Ramdas Pophale) SiO2 
 PCOD9326442
Probable space group: F 2 2 2
;
_chemical_formula_sum "Si O2"
_cell_formula_units_Z 80
_cell_length_a 18.386981
_cell_length_b 7.180034
_cell_length_c 28.883500
_cell_angle_alpha 90.000000
_cell_angle_beta 90.000000
_cell_angle_gamma 90.000000
_cell_volume 3813.175083
_symmetry_space_group_name_H-M "F 2 2 2"
_symmetry_group_IT_number 22
_symmetry_cell_setting 'orthorhombic'
loop_
_space_group_symop_operation_xyz
x,y,z
-x,-y,z
x,-y,-z
-x,y,-z
x,1/2+y,1/2+z
-x,1/2-y,1/2+z
x,1/2-y,1/2-z
-x,1/2+y,1/2-z
1/2+x,y,1/2+z
1/2-x,-y,1/2+z
1/2+x,-y,1/2-z
1/2-x,y,1/2-z
1/2+x,1/2+y,z
1/2-x,1/2-y,z
1/2+x,1/2-y,-z
1/2-x,1/2+y,-z
loop_
_atom_site_type_symbol
_atom_site_label
_atom_site_fract_x
_atom_site_fract_y
_atom_site_fract_z
Si Si1 0.603261 0.191377 0.574419
Si Si2 0.250000 0.750000 0.423950
Si Si3 0.183451 0.000000 0.000000
Si Si4 0.750000 0.250000 0.872184
Si Si5 0.216778 0.047604 0.798016
Si Si6 0.393387 0.323683 0.865306
Si Si7 0.500000 0.000000 0.111252
O O1 0.628620 0.148737 0.522478
O O2 0.677367 0.252904 0.599031
O O3 0.547348 0.357621 0.580830
O O4 0.582173 0.998300 0.601716
O O5 0.233320 0.580482 0.459128
O O6 0.322186 0.745536 0.392628
O O7 0.748109 0.425059 0.838796
O O8 0.250000 0.967733 0.750000
O O9 0.250000 0.250000 0.798518
O O10 0.133702 0.086843 0.816056
O O11 0.448764 0.149513 0.861210
#
# Coordination Sequence:
#
# PCOD9326442 Si02
#       7
#    16   8   8   8  16  16   8
#     4  10  23  40  63  95 132 169 221 277 330 400
#     4  10  21  38  63  87 128 163 223 276 327 384
#     4  10  22  38  63  91 128 162 226 286 320 381
#     4  10  20  38  68 101 130 169 224 272 334 394
#     4  10  19  34  62 104 133 161 216 279 318 384
#     4  10  22  40  61  98 132 172 220 273 329 406
#     4  12  24  40  69  94 134 190 212 260 358 405
#
# _framework density 20.979890999999999
#
# number of rings (size 3 to 8) (size 9 to 14) (size 15 to 20)
#    0.000    1.800    1.000    2.700    8.400    0.000 
#    0.000   12.000    0.000    0.000  124.800    0.000 
#    0.000    0.000    0.000    0.000    0.000    0.000 
#
# Total GULP energy -111401.071835 kJ/mol
# GULP energy per Si atom -5570.053592 kJ/mol
# Density = 2.093214 g / cm^3
# Si number density = 20.979891 Si / 1000 Ang^3
#
#
#
# Elastic Constant Matrix: (Units=GPa)
#
#
# Indices 1 2 3 4 5 6 
#
# 1 108.5937 52.3650 47.9417 0.0000 0.0000 0.0000
# 2 52.3650 133.0220 26.4075 0.0000 0.0000 0.0000
# 3 47.9417 26.4075 93.9527 0.0000 0.0000 0.0000
# 4 0.0000 0.0000 0.0000 17.4547 0.0000 0.0000
# 5 0.0000 0.0000 0.0000 0.0000 -5.7136 0.0000
# 6 0.0000 0.0000 0.0000 0.0000 0.0000 54.2302
#
#
#
# Elastic Compliance Matrix: (Units=1/GPa)
#
#
# Indices 1 2 3 4 5 6 
#
# 1 0.013872 -0.004295 -0.005871 0.000000 0.000000 0.000000
# 2 -0.004295 0.009292 -0.000420 0.000000 0.000000 0.000000
# 3 -0.005871 -0.000420 0.013758 0.000000 0.000000 0.000000
# 4 0.000000 0.000000 0.000000 0.057291 0.000000 0.000000
# 5 0.000000 0.000000 0.000000 0.000000 -0.175021 0.000000
# 6 0.000000 0.000000 0.000000 0.000000 0.000000 0.018440
#
#
# Mechanical properties :
#
#
# Convention : Reuss Voigt Hill
#
# Bulk Modulus (GPa) = 63.49784 65.44411 64.47098
# Shear Modulus (GPa) = -139.09365 27.11787 -55.98789
#
# Velocity S-wave (km/s) = -8.15123 3.59913 -5.17150
# Velocity P-wave (km/s) = 7.63271 6.96657 2.20513
#
# Compressibility (1/GPa) = 0.01574857
#
# Stress axis : x y z
#
# Youngs Moduli (GPa) = 72.08866 107.62248 72.68709
#
# Poissons Ratio (x) = 0.46226 0.42676
# Poissons Ratio (y) = 0.30963 0.03052
# Poissons Ratio (z) = 0.42325 0.04519
#
# Static dielectric constant tensor:
#      x y z
#    x 1.999610 0.000000 0.000000 
#    y 0.000000 1.803460 0.000000 
#    z 0.000000 0.000000 1.836590 
# 
# From -- ./inp_files/56723.got.cif
#   From: 2010.05.17/outbox.cif.g08.bks.cpg/sg22_29_cif.got.tgz:56723.got - 2010.06.03 23:40:54.
