data_PCOD9326617
_publ_section_title
;
Structure prediction by ZEFSAII (Michael W. Deem and Ramdas Pophale) SiO2 
 PCOD9326617
Probable space group: F 2 2 2
;
_chemical_formula_sum "Si O2"
_cell_formula_units_Z 64
_cell_length_a 17.211723
_cell_length_b 10.650565
_cell_length_c 15.055247
_cell_angle_alpha 90.000000
_cell_angle_beta 90.000000
_cell_angle_gamma 90.000000
_cell_volume 2759.846199
_symmetry_space_group_name_H-M "F 2 2 2"
_symmetry_group_IT_number 22
_symmetry_cell_setting 'orthorhombic'
loop_
_space_group_symop_operation_xyz
x,y,z
-x,-y,z
x,-y,-z
-x,y,-z
x,1/2+y,1/2+z
-x,1/2-y,1/2+z
x,1/2-y,1/2-z
-x,1/2+y,1/2-z
1/2+x,y,1/2+z
1/2-x,-y,1/2+z
1/2+x,-y,1/2-z
1/2-x,y,1/2-z
1/2+x,1/2+y,z
1/2-x,1/2-y,z
1/2+x,1/2-y,-z
1/2-x,1/2+y,-z
loop_
_atom_site_type_symbol
_atom_site_label
_atom_site_fract_x
_atom_site_fract_y
_atom_site_fract_z
Si Si1 0.158238 0.218270 0.534421
Si Si2 0.412936 0.966706 0.375211
Si Si3 0.832216 0.106938 0.285118
Si Si4 0.658321 0.771833 0.349882
O O1 0.250000 0.250000 0.529517
O O2 0.115795 0.341889 0.574960
O O3 0.155743 0.112248 0.610343
O O4 0.130009 0.190171 0.434538
O O5 0.403534 0.946415 0.269659
O O6 0.500000 0.000000 0.399350
O O7 0.359020 0.088478 0.386354
O O8 0.827610 0.250000 0.250000
O O9 0.750000 0.049061 0.250000
O O10 0.625693 0.750000 0.250000
O O11 0.750000 0.750000 0.342271
#
# Coordination Sequence:
#
# PCOD9326617 Si02
#       4
#    16  16  16  16
#     4  10  19  38  65  89 115 166 220 248 289 376
#     4  11  23  39  63  94 123 159 203 259 314 370
#     4   9  16  34  65  89 111 153 212 253 282 360
#     4  10  24  39  56  88 132 165 198 257 320 361
#
# _framework density 23.189699000000001
#
# number of rings (size 3 to 8) (size 9 to 14) (size 15 to 20)
#    0.000    2.000    5.000    0.750    3.500    5.000 
#    0.000    1.250    0.000    1.500    0.000    0.000 
#    0.000    0.000    0.000    0.000    0.000    0.000 
#
# Total GULP energy -89181.795141 kJ/mol
# GULP energy per Si atom -5573.862196 kJ/mol
# Density = 2.313692 g / cm^3
# Si number density = 23.189699 Si / 1000 Ang^3
#
#
#
# Elastic Constant Matrix: (Units=GPa)
#
#
# Indices 1 2 3 4 5 6 
#
# 1 102.5627 38.9049 15.3221 0.0000 0.0000 0.0000
# 2 38.9049 68.6653 15.9266 0.0000 0.0000 0.0000
# 3 15.3221 15.9266 270.0446 0.0000 0.0000 0.0000
# 4 0.0000 0.0000 0.0000 22.9670 0.0000 0.0000
# 5 0.0000 0.0000 0.0000 0.0000 -39.7295 0.0000
# 6 0.0000 0.0000 0.0000 0.0000 0.0000 30.1418
#
#
#
# Elastic Compliance Matrix: (Units=1/GPa)
#
#
# Indices 1 2 3 4 5 6 
#
# 1 0.012442 -0.006981 -0.000294 0.000000 0.000000 0.000000
# 2 -0.006981 0.018683 -0.000706 0.000000 0.000000 0.000000
# 3 -0.000294 -0.000706 0.003761 0.000000 0.000000 0.000000
# 4 0.000000 0.000000 0.000000 0.043541 0.000000 0.000000
# 5 0.000000 0.000000 0.000000 0.000000 -0.025170 0.000000
# 6 0.000000 0.000000 0.000000 0.000000 0.000000 0.033177
#
#
# Mechanical properties :
#
#
# Convention : Reuss Voigt Hill
#
# Bulk Modulus (GPa) = 52.84394 64.61998 58.73196
# Shear Modulus (GPa) = 45.99638 27.41712 36.70675
#
# Velocity S-wave (km/s) = 4.45846 3.44219 3.98287
# Velocity P-wave (km/s) = 7.02432 6.61245 6.82149
#
# Compressibility (1/GPa) = 0.01892365
#
# Stress axis : x y z
#
# Youngs Moduli (GPa) = 80.37078 53.52554 265.85787
#
# Poissons Ratio (x) = 0.37368 0.07822
# Poissons Ratio (y) = 0.56110 0.18763
# Poissons Ratio (z) = 0.02365 0.03778
#
# Static dielectric constant tensor:
#      x y z
#    x 1.768740 0.000000 0.000000 
#    y 0.000000 1.958660 0.000000 
#    z 0.000000 0.000000 2.003140 
# 
# From -- ./inp_files/30235.got.cif
#   From: 2010.05.17/outbox.cif.g08.bks.cpg/sg22_16_cif.got.tgz:30235.got - 2010.06.03 23:40:54.
