data_PCOD9326511
_publ_section_title
;
Structure prediction by ZEFSAII (Michael W. Deem and Ramdas Pophale) SiO2 
 PCOD9326511
Probable space group: F 2 2 2
;
_chemical_formula_sum "Si O2"
_cell_formula_units_Z 104
_cell_length_a 18.731113
_cell_length_b 25.057287
_cell_length_c 8.712939
_cell_angle_alpha 90.000000
_cell_angle_beta 90.000000
_cell_angle_gamma 90.000000
_cell_volume 4089.425537
_symmetry_space_group_name_H-M "F 2 2 2"
_symmetry_group_IT_number 22
_symmetry_cell_setting 'orthorhombic'
loop_
_space_group_symop_operation_xyz
x,y,z
-x,-y,z
x,-y,-z
-x,y,-z
x,1/2+y,1/2+z
-x,1/2-y,1/2+z
x,1/2-y,1/2-z
-x,1/2+y,1/2-z
1/2+x,y,1/2+z
1/2-x,-y,1/2+z
1/2+x,-y,1/2-z
1/2-x,y,1/2-z
1/2+x,1/2+y,z
1/2-x,1/2-y,z
1/2+x,1/2-y,-z
1/2-x,1/2+y,-z
loop_
_atom_site_type_symbol
_atom_site_label
_atom_site_fract_x
_atom_site_fract_y
_atom_site_fract_z
Si Si1 0.000000 0.500000 0.233379
Si Si2 0.670140 0.580715 0.702340
Si Si3 0.210050 0.828188 0.494217
Si Si4 0.500000 0.410665 0.500000
Si Si5 0.362487 0.750000 0.250000
Si Si6 0.616340 0.363268 0.725669
Si Si7 0.850791 0.974863 0.162546
Si Si8 0.380141 0.341702 0.949435
O O1 0.936866 0.523527 0.333002
O O2 0.967744 0.453429 0.122546
O O3 0.750000 0.596228 0.750000
O O4 0.671096 0.614792 0.547871
O O5 0.670435 0.517260 0.707438
O O6 0.621540 0.606573 0.837552
O O7 0.183358 0.786984 0.365454
O O8 0.170241 0.819587 0.655028
O O9 0.295372 0.830765 0.489011
O O10 0.552468 0.377193 0.607428
O O11 0.405602 0.708147 0.149109
O O12 0.663441 0.415166 0.782683
O O13 0.582495 0.347109 0.888648
O O14 0.825780 0.000000 0.000000
#
# Coordination Sequence:
#
# PCOD9326511 Si02
#       8
#     8  16  16   8   8  16  16  16
#     4   9  19  34  58  78 111 161 212 250 293 341
#     4   9  19  34  52  78 122 166 199 232 300 369
#     4  10  20  35  59  87 117 157 203 253 305 366
#     4   9  20  38  54  82 120 156 198 258 304 345
#     4  10  21  40  64  86 122 158 198 256 323 362
#     4  11  22  35  57  86 121 155 203 253 301 368
#     4  11  20  35  53  83 121 160 201 250 292 351
#     4  10  19  36  58  89 119 157 199 254 305 371
#
# _framework density 25.431445
#
# number of rings (size 3 to 8) (size 9 to 14) (size 15 to 20)
#    0.000    2.000    1.538    3.923    0.000    3.692 
#    0.000    1.538    0.000    1.846    0.000    0.000 
#    0.000    0.000    0.000    0.000    0.000    0.000 
#
# Total GULP energy -145065.742232 kJ/mol
# GULP energy per Si atom -5579.451624 kJ/mol
# Density = 2.537356 g / cm^3
# Si number density = 25.431445 Si / 1000 Ang^3
#
#
#
# Elastic Constant Matrix: (Units=GPa)
#
#
# Indices 1 2 3 4 5 6 
#
# 1 40.5405 -3.0229 31.4390 0.0000 0.0000 0.0000
# 2 -3.0229 98.0682 36.3690 0.0000 0.0000 0.0000
# 3 31.4390 36.3690 122.5002 0.0000 -0.0001 0.0000
# 4 0.0000 0.0000 0.0000 34.7116 0.0000 0.0000
# 5 0.0000 0.0000 -0.0001 0.0000 33.5788 0.0000
# 6 0.0000 0.0000 0.0000 0.0000 0.0000 17.2337
#
#
#
# Elastic Compliance Matrix: (Units=1/GPa)
#
#
# Indices 1 2 3 4 5 6 
#
# 1 0.032550 0.004609 -0.009722 0.000000 0.000000 0.000000
# 2 0.004609 0.012111 -0.004778 0.000000 0.000000 0.000000
# 3 -0.009722 -0.004778 0.012077 0.000000 0.000000 0.000000
# 4 0.000000 0.000000 0.000000 0.028809 0.000000 0.000000
# 5 0.000000 0.000000 0.000000 0.000000 0.029781 0.000000
# 6 0.000000 0.000000 0.000000 0.000000 0.000000 0.058026
#
#
# Mechanical properties :
#
#
# Convention : Reuss Voigt Hill
#
# Bulk Modulus (GPa) = 27.06036 43.40879 35.23458
# Shear Modulus (GPa) = 24.33626 30.19308 27.26467
#
# Velocity S-wave (km/s) = 3.09679 3.44936 3.27782
# Velocity P-wave (km/s) = 4.84257 5.74196 5.31134
#
# Compressibility (1/GPa) = 0.03695442
#
# Stress axis : x y z
#
# Youngs Moduli (GPa) = 30.72229 82.56846 82.80187
#
# Poissons Ratio (x) = -0.38054 0.80500
# Poissons Ratio (y) = -0.14159 0.39567
# Poissons Ratio (z) = 0.29868 0.39455
#
# Static dielectric constant tensor:
#      x y z
#    x 2.094980 0.000000 0.000000 
#    y 0.000000 2.040910 0.000000 
#    z 0.000000 0.000000 2.128300 
# 
# From -- ./inp_files/14073.got.cif
#   From: 2010.05.17/outbox.cif.g08.bks.cpg/sg22_8_cif.got.tgz:14073.got - 2010.06.03 23:40:54.
