data_PCOD9326727
_publ_section_title
;
Structure prediction by ZEFSAII (Michael W. Deem and Ramdas Pophale) SiO2 
 PCOD9326727
Probable space group: F 2 2 2
;
_chemical_formula_sum "Si O2"
_cell_formula_units_Z 104
_cell_length_a 9.409972
_cell_length_b 20.140271
_cell_length_c 24.773098
_cell_angle_alpha 90.000000
_cell_angle_beta 90.000000
_cell_angle_gamma 90.000000
_cell_volume 4694.982327
_symmetry_space_group_name_H-M "F 2 2 2"
_symmetry_group_IT_number 22
_symmetry_cell_setting 'orthorhombic'
loop_
_space_group_symop_operation_xyz
x,y,z
-x,-y,z
x,-y,-z
-x,y,-z
x,1/2+y,1/2+z
-x,1/2-y,1/2+z
x,1/2-y,1/2-z
-x,1/2+y,1/2-z
1/2+x,y,1/2+z
1/2-x,-y,1/2+z
1/2+x,-y,1/2-z
1/2-x,y,1/2-z
1/2+x,1/2+y,z
1/2-x,1/2-y,z
1/2+x,1/2-y,-z
1/2-x,1/2+y,-z
loop_
_atom_site_type_symbol
_atom_site_label
_atom_site_fract_x
_atom_site_fract_y
_atom_site_fract_z
Si Si1 0.561878 0.637168 0.138437
Si Si2 0.602957 0.444855 0.278481
Si Si3 0.274997 0.114189 0.584377
Si Si4 0.735650 0.524819 0.377814
Si Si5 0.142167 0.807973 0.978360
Si Si6 0.026085 0.138654 0.367065
Si Si7 0.750000 0.250000 0.842274
O O1 0.392551 0.634039 0.130271
O O2 0.629905 0.564910 0.144745
O O3 0.611606 0.657294 0.077994
O O4 0.643878 0.689309 0.177691
O O5 0.500000 0.500000 0.250616
O O6 0.750000 0.423769 0.250000
O O7 0.661331 0.485208 0.329772
O O8 0.511953 0.385401 0.305610
O O9 0.313407 0.142759 0.526066
O O10 0.123272 0.143167 0.602564
O O11 0.272886 0.034034 0.581521
O O12 0.620085 0.580149 0.394162
O O13 0.250000 0.750000 0.970109
O O14 0.000000 0.774622 0.000000
O O15 0.123507 0.203670 0.366569
#
# Coordination Sequence:
#
# PCOD9326727 Si02
#       7
#    16  16  16  16  16  16   8
#     4  10  20  34  54  79 115 152 195 238 288 348
#     4   9  18  34  58  91 119 142 180 235 287 351
#     4  10  20  32  55  81 111 150 196 249 285 334
#     4   9  19  37  54  84 119 148 185 234 296 350
#     4  10  22  34  49  77 113 151 201 247 286 336
#     4   9  20  36  58  85 119 150 196 238 284 356
#     4  10  20  36  54  78 115 158 190 234 285 336
#
# _framework density 22.151308
#
# number of rings (size 3 to 8) (size 9 to 14) (size 15 to 20)
#    0.000    2.462    0.769    1.846    4.308    3.077 
#    0.000    2.308    0.000    9.231    0.000  121.154 
#    0.000    0.000    0.000    0.000    0.000    0.000 
#
# Total GULP energy -144770.470867 kJ/mol
# GULP energy per Si atom -5568.095033 kJ/mol
# Density = 2.210089 g / cm^3
# Si number density = 22.151308 Si / 1000 Ang^3
#
#
#
# Elastic Constant Matrix: (Units=GPa)
#
#
# Indices 1 2 3 4 5 6 
#
# 1 143.3719 46.1509 20.5295 0.0000 0.0000 0.0000
# 2 46.1509 119.3612 14.7700 0.0000 0.0000 0.0000
# 3 20.5295 14.7700 27.0758 0.0000 0.0000 0.0000
# 4 0.0000 0.0000 0.0000 -13.7935 0.0000 0.0000
# 5 0.0000 0.0000 0.0000 0.0000 28.8945 0.0000
# 6 0.0000 0.0000 0.0000 0.0000 0.0000 35.1968
#
#
#
# Elastic Compliance Matrix: (Units=1/GPa)
#
#
# Indices 1 2 3 4 5 6 
#
# 1 0.008559 -0.002688 -0.005024 0.000000 0.000000 0.000000
# 2 -0.002688 0.009828 -0.003323 0.000000 0.000000 0.000000
# 3 -0.005024 -0.003323 0.042555 0.000000 0.000000 0.000000
# 4 0.000000 0.000000 0.000000 -0.072498 0.000000 0.000000
# 5 0.000000 0.000000 0.000000 0.000000 0.034609 0.000000
# 6 0.000000 0.000000 0.000000 0.000000 0.000000 0.028412
#
#
# Mechanical properties :
#
#
# Convention : Reuss Voigt Hill
#
# Bulk Modulus (GPa) = 25.72465 50.30106 38.01286
# Shear Modulus (GPa) = 57.80769 23.95012 40.87890
#
# Velocity S-wave (km/s) = 5.11404 3.29174 4.30052
# Velocity P-wave (km/s) = 6.81979 6.09956 6.46970
#
# Compressibility (1/GPa) = 0.03887321
#
# Stress axis : x y z
#
# Youngs Moduli (GPa) = 116.83023 101.74561 23.49877
#
# Poissons Ratio (x) = 0.27348 0.11805
# Poissons Ratio (y) = 0.31402 0.07810
# Poissons Ratio (z) = 0.58692 0.33815
#
# Static dielectric constant tensor:
#      x y z
#    x 1.958030 0.000000 0.000000 
#    y 0.000000 1.845850 0.000000 
#    z 0.000000 0.000000 1.875410 
# 
# From -- ./inp_files/51968.got.cif
#   From: 2010.05.17/outbox.cif.g08.bks.cpg/sg22_26_cif.got.tgz:51968.got - 2010.06.03 23:40:54.
