data_PCOD9326498
_publ_section_title
;
Structure prediction by ZEFSAII (Michael W. Deem and Ramdas Pophale) SiO2 
 PCOD9326498
Probable space group: F 2 2 2
;
_chemical_formula_sum "Si O2"
_cell_formula_units_Z 100
_cell_length_a 12.705673
_cell_length_b 15.071977
_cell_length_c 26.186742
_cell_angle_alpha 90.000000
_cell_angle_beta 90.000000
_cell_angle_gamma 90.000000
_cell_volume 5014.750912
_symmetry_space_group_name_H-M "F 2 2 2"
_symmetry_group_IT_number 22
_symmetry_cell_setting 'orthorhombic'
loop_
_space_group_symop_operation_xyz
x,y,z
-x,-y,z
x,-y,-z
-x,y,-z
x,1/2+y,1/2+z
-x,1/2-y,1/2+z
x,1/2-y,1/2-z
-x,1/2+y,1/2-z
1/2+x,y,1/2+z
1/2-x,-y,1/2+z
1/2+x,-y,1/2-z
1/2-x,y,1/2-z
1/2+x,1/2+y,z
1/2-x,1/2-y,z
1/2+x,1/2-y,-z
1/2-x,1/2+y,-z
loop_
_atom_site_type_symbol
_atom_site_label
_atom_site_fract_x
_atom_site_fract_y
_atom_site_fract_z
Si Si1 0.500000 0.500000 0.000000
Si Si2 0.113728 0.834591 0.476617
Si Si3 0.271164 0.950442 0.804835
Si Si4 0.665779 0.853605 0.476561
Si Si5 0.346691 0.310687 0.141005
Si Si6 0.531602 0.685767 0.298646
Si Si7 0.405319 0.430180 0.630249
O O1 0.582275 0.432645 0.974460
O O2 0.215818 0.876327 0.505097
O O3 0.128441 0.728554 0.487298
O O4 0.114550 0.868063 0.418375
O O5 0.000000 0.859298 0.500000
O O6 0.250000 0.993600 0.750000
O O7 0.169476 0.898482 0.825992
O O8 0.368273 0.881279 0.794242
O O9 0.307209 0.012151 0.851183
O O10 0.668075 0.821690 0.418557
O O11 0.250000 0.250000 0.159100
O O12 0.447439 0.254103 0.154929
O O13 0.519840 0.750000 0.250000
O O14 0.438670 0.624500 0.319184
O O15 0.500000 0.500000 0.618418
#
# Coordination Sequence:
#
# PCOD9326498 Si02
#       7
#     4  16  16  16  16  16  16
#     4  12  28  44  66  96 142 168 216 286 340 380
#     4  11  23  44  68  94 135 188 224 270 327 400
#     4  10  20  37  59  93 125 158 214 280 328 379
#     4  11  25  43  65  98 137 173 228 275 334 401
#     4  10  19  35  65  92 121 168 218 265 321 395
#     4  10  19  36  62  93 121 165 219 271 333 390
#     4  10  24  38  60  95 134 166 221 279 324 391
#
# _framework density 19.94117
#
# number of rings (size 3 to 8) (size 9 to 14) (size 15 to 20)
#    0.000    1.600    4.000    0.960    6.720    0.320 
#    0.000    4.800    0.000    0.000    0.000    0.000 
#    0.000    0.000    0.000    0.000    0.000    0.000 
#
# Total GULP energy -139235.364216 kJ/mol
# GULP energy per Si atom -5569.414569 kJ/mol
# Density = 1.989578 g / cm^3
# Si number density = 19.941170 Si / 1000 Ang^3
#
#
#
# Elastic Constant Matrix: (Units=GPa)
#
#
# Indices 1 2 3 4 5 6 
#
# 1 72.3625 18.2308 10.8456 0.0000 0.0000 0.0000
# 2 18.2308 49.2532 25.5112 0.0000 0.0000 0.0000
# 3 10.8456 25.5112 105.4169 0.0000 0.0000 0.0000
# 4 0.0000 0.0000 0.0000 236.6296 0.0000 0.0000
# 5 0.0000 0.0000 0.0000 0.0000 8.8290 0.0000
# 6 0.0000 0.0000 0.0000 0.0000 0.0000 21.7841
#
#
#
# Elastic Compliance Matrix: (Units=1/GPa)
#
#
# Indices 1 2 3 4 5 6 
#
# 1 0.015246 -0.005523 -0.000232 0.000000 0.000000 0.000000
# 2 -0.005523 0.025214 -0.005534 0.000000 0.000000 0.000000
# 3 -0.000232 -0.005534 0.010849 0.000000 0.000000 0.000000
# 4 0.000000 0.000000 0.000000 0.004226 0.000000 0.000000
# 5 0.000000 0.000000 0.000000 0.000000 0.113263 0.000000
# 6 0.000000 0.000000 0.000000 0.000000 0.000000 0.045905
#
#
# Mechanical properties :
#
#
# Convention : Reuss Voigt Hill
#
# Bulk Modulus (GPa) = 34.80499 37.35641 36.08070
# Shear Modulus (GPa) = 20.25468 64.94488 42.59978
#
# Velocity S-wave (km/s) = 3.19050 5.71305 4.62700
# Velocity P-wave (km/s) = 5.57352 7.89256 6.83215
#
# Compressibility (1/GPa) = 0.02873151
#
# Stress axis : x y z
#
# Youngs Moduli (GPa) = 65.59312 39.66102 92.17314
#
# Poissons Ratio (x) = 0.21904 0.02138
# Poissons Ratio (y) = 0.36226 0.51005
# Poissons Ratio (z) = 0.01521 0.21947
#
# Static dielectric constant tensor:
#      x y z
#    x 1.702210 0.000000 0.000000 
#    y 0.000000 1.777510 0.000000 
#    z 0.000000 0.000000 1.675210 
# 
# From -- ./inp_files/56060.got.cif
#   From: 2010.05.17/outbox.cif.g08.bks.cpg/sg22_29_cif.got.tgz:56060.got - 2010.06.03 23:40:54.
