data_PCOD9326314
_publ_section_title
;
Structure prediction by ZEFSAII (Michael W. Deem and Ramdas Pophale) SiO2 
 PCOD9326314
Probable space group: F 2 2 2
;
_chemical_formula_sum "Si O2"
_cell_formula_units_Z 88
_cell_length_a 14.837900
_cell_length_b 14.057550
_cell_length_c 22.731826
_cell_angle_alpha 90.000000
_cell_angle_beta 90.000000
_cell_angle_gamma 90.000000
_cell_volume 4741.507041
_symmetry_space_group_name_H-M "F 2 2 2"
_symmetry_group_IT_number 22
_symmetry_cell_setting 'orthorhombic'
loop_
_space_group_symop_operation_xyz
x,y,z
-x,-y,z
x,-y,-z
-x,y,-z
x,1/2+y,1/2+z
-x,1/2-y,1/2+z
x,1/2-y,1/2-z
-x,1/2+y,1/2-z
1/2+x,y,1/2+z
1/2-x,-y,1/2+z
1/2+x,-y,1/2-z
1/2-x,y,1/2-z
1/2+x,1/2+y,z
1/2-x,1/2-y,z
1/2+x,1/2-y,-z
1/2-x,1/2+y,-z
loop_
_atom_site_type_symbol
_atom_site_label
_atom_site_fract_x
_atom_site_fract_y
_atom_site_fract_z
Si Si1 0.127380 0.831642 0.664764
Si Si2 0.308270 0.838069 0.137135
Si Si3 0.719069 0.524045 0.181529
Si Si4 0.437400 0.634231 0.788217
Si Si5 0.101242 0.250000 0.750000
Si Si6 0.510459 0.886151 0.931872
O O1 0.221120 0.886614 0.658537
O O2 0.122815 0.724100 0.689018
O O3 0.077521 0.885362 0.718852
O O4 0.067922 0.839400 0.606973
O O5 0.250000 0.750000 0.114308
O O6 0.343055 0.807876 0.202167
O O7 0.394106 0.858361 0.096471
O O8 0.248227 0.931571 0.146073
O O9 0.750000 0.513419 0.250000
O O10 0.612165 0.547048 0.180186
O O11 0.537445 0.677733 0.787666
O O12 0.500000 0.000000 0.926872
O O13 0.500000 0.859889 0.000000
#
# Coordination Sequence:
#
# PCOD9326314 Si02
#       6
#    16  16  16  16   8  16
#     4   9  16  33  56  82 116 148 193 242 291 348
#     4  12  23  39  57  87 124 155 193 251 303 364
#     4  10  19  31  52  87 118 153 181 235 292 354
#     4   9  17  30  56  88 115 149 190 230 297 360
#     4  10  19  36  59  84 120 162 186 231 303 384
#     4  11  22  39  65  84 110 162 215 248 288 353
#
# _framework density 18.5595
#
# number of rings (size 3 to 8) (size 9 to 14) (size 15 to 20)
#    0.000    2.000    5.455    1.909    0.000    3.636 
#    0.000    4.545    0.000    0.000    0.000    1.273 
#    0.000    0.000    0.000    0.000    0.000    0.000 
#
# Total GULP energy -122570.155444 kJ/mol
# GULP energy per Si atom -5571.370702 kJ/mol
# Density = 1.851726 g / cm^3
# Si number density = 18.559500 Si / 1000 Ang^3
#
#
#
# Elastic Constant Matrix: (Units=GPa)
#
#
# Indices 1 2 3 4 5 6 
#
# 1 79.6132 35.2509 40.6253 0.0000 0.0000 0.0000
# 2 35.2509 57.6985 39.3039 0.0000 0.0000 0.0000
# 3 40.6253 39.3039 101.9376 0.0000 0.0000 0.0000
# 4 0.0000 0.0000 0.0000 15.9813 0.0000 0.0000
# 5 0.0000 0.0000 0.0000 0.0000 7.9334 0.0000
# 6 0.0000 0.0000 0.0000 0.0000 0.0000 30.7863
#
#
#
# Elastic Compliance Matrix: (Units=1/GPa)
#
#
# Indices 1 2 3 4 5 6 
#
# 1 0.018381 -0.008462 -0.004062 0.000000 0.000000 0.000000
# 2 -0.008462 0.027401 -0.007192 0.000000 0.000000 0.000000
# 3 -0.004062 -0.007192 0.014202 0.000000 0.000000 0.000000
# 4 0.000000 0.000000 0.000000 0.062573 0.000000 0.000000
# 5 0.000000 0.000000 0.000000 0.000000 0.126050 0.000000
# 6 0.000000 0.000000 0.000000 0.000000 0.000000 0.032482
#
#
# Mechanical properties :
#
#
# Convention : Reuss Voigt Hill
#
# Bulk Modulus (GPa) = 48.66352 52.17885 50.42118
# Shear Modulus (GPa) = 15.27308 19.21146 17.24227
#
# Velocity S-wave (km/s) = 2.87178 3.22083 3.05130
# Velocity P-wave (km/s) = 6.10519 6.48129 6.29605
#
# Compressibility (1/GPa) = 0.02054928
#
# Stress axis : x y z
#
# Youngs Moduli (GPa) = 54.40496 36.49502 70.41196
#
# Poissons Ratio (x) = 0.30883 0.28605
# Poissons Ratio (y) = 0.46039 0.50643
# Poissons Ratio (z) = 0.22102 0.26249
#
# Static dielectric constant tensor:
#      x y z
#    x 1.698540 0.000000 0.000000 
#    y 0.000000 1.705480 0.000000 
#    z 0.000000 0.000000 1.599820 
# 
# From -- ./inp_files/43413.got.cif
#   From: 2010.05.17/outbox.cif.g08.bks.cpg/sg22_22_cif.got.tgz:43413.got - 2010.06.03 23:40:54.
