data_PCOD9326459
_publ_section_title
;
Structure prediction by ZEFSAII (Michael W. Deem and Ramdas Pophale) SiO2 
 PCOD9326459
Probable space group: F 2 2 2
;
_chemical_formula_sum "Si O2"
_cell_formula_units_Z 72
_cell_length_a 11.727172
_cell_length_b 22.825563
_cell_length_c 15.027346
_cell_angle_alpha 90.000000
_cell_angle_beta 90.000000
_cell_angle_gamma 90.000000
_cell_volume 4022.509508
_symmetry_space_group_name_H-M "F 2 2 2"
_symmetry_group_IT_number 22
_symmetry_cell_setting 'orthorhombic'
loop_
_space_group_symop_operation_xyz
x,y,z
-x,-y,z
x,-y,-z
-x,y,-z
x,1/2+y,1/2+z
-x,1/2-y,1/2+z
x,1/2-y,1/2-z
-x,1/2+y,1/2-z
1/2+x,y,1/2+z
1/2-x,-y,1/2+z
1/2+x,-y,1/2-z
1/2-x,y,1/2-z
1/2+x,1/2+y,z
1/2-x,1/2-y,z
1/2+x,1/2-y,-z
1/2-x,1/2+y,-z
loop_
_atom_site_type_symbol
_atom_site_label
_atom_site_fract_x
_atom_site_fract_y
_atom_site_fract_z
Si Si1 0.885662 0.180496 0.758454
Si Si2 0.321741 0.933618 0.986778
Si Si3 0.088290 0.600565 0.581094
Si Si4 0.500000 0.000000 0.703539
Si Si5 0.977600 0.589077 0.853039
O O1 0.894674 0.250000 0.750000
O O2 0.750000 0.164624 0.750000
O O3 0.928178 0.154814 0.852478
O O4 0.964999 0.147488 0.686524
O O5 0.215532 0.896336 0.955574
O O6 0.419195 0.938037 0.911529
O O7 0.376481 0.907056 0.076084
O O8 0.281165 0.000000 0.000000
O O9 0.000000 0.598364 0.500000
O O10 0.076035 0.541338 0.640631
O O11 0.556377 0.953230 0.771269
#
# Coordination Sequence:
#
# PCOD9326459 Si02
#       5
#    16  16  16   8  16
#     4  10  21  41  62  83 111 154 206 245 289 348
#     4  11  19  34  57  89 123 148 189 234 298 352
#     4  11  23  39  55  88 123 155 194 241 298 351
#     4  10  19  35  54  84 116 152 190 229 289 350
#     4  10  19  35  58  88 112 152 194 239 287 351
#
# _framework density 17.899276
#
# number of rings (size 3 to 8) (size 9 to 14) (size 15 to 20)
#    0.000    1.556    4.444    2.333    0.000    0.000 
#    8.000    3.333    0.000    1.333    0.000    0.000 
#    0.000    0.000    0.000    0.000    0.000    0.000 
#
# Total GULP energy -100340.930792 kJ/mol
# GULP energy per Si atom -5574.496155 kJ/mol
# Density = 1.785854 g / cm^3
# Si number density = 17.899276 Si / 1000 Ang^3
#
#
#
# Elastic Constant Matrix: (Units=GPa)
#
#
# Indices 1 2 3 4 5 6 
#
# 1 62.6359 19.8243 51.8164 0.0000 0.0000 0.0000
# 2 19.8243 92.6355 44.0483 0.0000 0.0000 0.0000
# 3 51.8164 44.0483 125.9105 0.0000 0.0000 0.0000
# 4 0.0000 0.0000 0.0000 11.7466 0.0000 0.0000
# 5 0.0000 0.0000 0.0000 0.0000 17.7030 0.0000
# 6 0.0000 0.0000 0.0000 0.0000 0.0000 20.5390
#
#
#
# Elastic Compliance Matrix: (Units=1/GPa)
#
#
# Indices 1 2 3 4 5 6 
#
# 1 0.024228 -0.000532 -0.009784 0.000000 0.000000 0.000000
# 2 -0.000532 0.012961 -0.004315 0.000000 0.000000 0.000000
# 3 -0.009784 -0.004315 0.013478 0.000000 0.000000 0.000000
# 4 0.000000 0.000000 0.000000 0.085131 0.000000 0.000000
# 5 0.000000 0.000000 0.000000 0.000000 0.056488 0.000000
# 6 0.000000 0.000000 0.000000 0.000000 0.000000 0.048688
#
#
# Mechanical properties :
#
#
# Convention : Reuss Voigt Hill
#
# Bulk Modulus (GPa) = 46.72149 56.95110 51.83629
# Shear Modulus (GPa) = 18.02637 21.03060 19.52848
#
# Velocity S-wave (km/s) = 3.17693 3.43146 3.30664
# Velocity P-wave (km/s) = 6.29415 6.89830 6.60313
#
# Compressibility (1/GPa) = 0.02140343
#
# Stress axis : x y z
#
# Youngs Moduli (GPa) = 41.27441 77.15599 74.19317
#
# Poissons Ratio (x) = 0.04108 0.72594
# Poissons Ratio (y) = 0.02197 0.32015
# Poissons Ratio (z) = 0.40385 0.33293
#
# Static dielectric constant tensor:
#      x y z
#    x 1.602180 0.000000 0.000000 
#    y 0.000000 1.609140 0.000000 
#    z 0.000000 0.000000 1.641850 
# 
# From -- ./inp_files/19733.got.cif
#   From: 2010.05.17/outbox.cif.g08.bks.cpg/sg22_10_cif.got.tgz:19733.got - 2010.06.03 23:40:54.
