data_PCOD9326895
_publ_section_title
;
Structure prediction by ZEFSAII (Michael W. Deem and Ramdas Pophale) SiO2 
 PCOD9326895
Probable space group: F 2 2 2
;
_chemical_formula_sum "Si O2"
_cell_formula_units_Z 88
_cell_length_a 20.377136
_cell_length_b 14.014914
_cell_length_c 14.804680
_cell_angle_alpha 90.000000
_cell_angle_beta 90.000000
_cell_angle_gamma 90.000000
_cell_volume 4227.976900
_symmetry_space_group_name_H-M "F 2 2 2"
_symmetry_group_IT_number 22
_symmetry_cell_setting 'orthorhombic'
loop_
_space_group_symop_operation_xyz
x,y,z
-x,-y,z
x,-y,-z
-x,y,-z
x,1/2+y,1/2+z
-x,1/2-y,1/2+z
x,1/2-y,1/2-z
-x,1/2+y,1/2-z
1/2+x,y,1/2+z
1/2-x,-y,1/2+z
1/2+x,-y,1/2-z
1/2-x,y,1/2-z
1/2+x,1/2+y,z
1/2-x,1/2-y,z
1/2+x,1/2-y,-z
1/2-x,1/2+y,-z
loop_
_atom_site_type_symbol
_atom_site_label
_atom_site_fract_x
_atom_site_fract_y
_atom_site_fract_z
Si Si1 0.360638 0.072271 0.578407
Si Si2 0.434276 0.896754 0.954757
Si Si3 0.000000 0.000000 0.116606
Si Si4 0.353370 0.638884 0.272990
Si Si5 0.510759 0.360232 0.733413
Si Si6 0.321682 0.713428 0.459588
O O1 0.438311 0.051913 0.574261
O O2 0.336809 0.072210 0.685435
O O3 0.355047 0.184616 0.559630
O O4 0.332041 0.000000 0.500000
O O5 0.451125 0.902539 0.850580
O O6 0.500000 0.850842 0.000000
O O7 0.368371 0.838665 0.970143
O O8 0.427681 0.000000 0.000000
O O9 0.031021 0.080900 0.179661
O O10 0.339431 0.750000 0.250000
O O11 0.432256 0.629559 0.283259
O O12 0.320573 0.640151 0.372852
O O13 0.524017 0.250000 0.750000
O O14 0.250000 0.750000 0.486258
#
# Coordination Sequence:
#
# PCOD9326895 Si02
#       6
#    16  16   8  16  16  16
#     4  10  22  36  62  94 132 164 211 273 336 389
#     4  11  23  38  66  96 129 170 222 276 337 396
#     4  10  21  36  61  98 134 162 214 281 343 396
#     4   8  17  36  57  89 125 163 206 257 327 393
#     4  10  20  36  61  96 131 166 211 273 343 401
#     4  11  24  42  66  92 133 177 227 270 330 407
#
# _framework density 20.813738000000001
#
# number of rings (size 3 to 8) (size 9 to 14) (size 15 to 20)
#    0.000    2.000    1.818    2.455    5.091    4.000 
#    0.000    0.000    4.000    0.545    0.000    0.000 
#    0.000    0.000    0.000    0.000    0.000    0.000 
#
# Total GULP energy -122468.999994 kJ/mol
# GULP energy per Si atom -5566.772727 kJ/mol
# Density = 2.076636 g / cm^3
# Si number density = 20.813738 Si / 1000 Ang^3
#
#
#
# Elastic Constant Matrix: (Units=GPa)
#
#
# Indices 1 2 3 4 5 6 
#
# 1 85.4614 18.8181 9.7657 0.0000 0.0000 0.0000
# 2 18.8181 98.2159 32.7829 0.0000 0.0000 0.0000
# 3 9.7657 32.7829 95.9150 0.0000 0.0000 0.0000
# 4 0.0000 0.0000 0.0000 13.0249 0.0000 0.0000
# 5 0.0000 0.0000 0.0000 0.0000 8.8491 0.0000
# 6 0.0000 0.0000 0.0000 0.0000 0.0000 -10.8275
#
#
#
# Elastic Compliance Matrix: (Units=1/GPa)
#
#
# Indices 1 2 3 4 5 6 
#
# 1 0.012238 -0.002177 -0.000502 0.000000 0.000000 0.000000
# 2 -0.002177 0.011880 -0.003839 0.000000 0.000000 0.000000
# 3 -0.000502 -0.003839 0.011789 0.000000 0.000000 0.000000
# 4 0.000000 0.000000 0.000000 0.076776 0.000000 0.000000
# 5 0.000000 0.000000 0.000000 0.000000 0.113006 0.000000
# 6 0.000000 0.000000 0.000000 0.000000 0.000000 -0.092358
#
#
# Mechanical properties :
#
#
# Convention : Reuss Voigt Hill
#
# Bulk Modulus (GPa) = 43.72302 44.70286 44.21294
# Shear Modulus (GPa) = 32.46941 16.75767 24.61354
#
# Velocity S-wave (km/s) = 3.95397 2.84055 3.44257
# Velocity P-wave (km/s) = 6.47283 5.68177 6.09016
#
# Compressibility (1/GPa) = 0.02287125
#
# Stress axis : x y z
#
# Youngs Moduli (GPa) = 81.71296 84.17386 84.82421
#
# Poissons Ratio (x) = 0.18327 0.04257
# Poissons Ratio (y) = 0.17791 0.32563
# Poissons Ratio (z) = 0.04101 0.32313
#
# Static dielectric constant tensor:
#      x y z
#    x 1.763100 0.000000 0.000000 
#    y 0.000000 1.702250 0.000000 
#    z 0.000000 0.000000 1.935630 
# 
# From -- ./inp_files/31456.got.cif
#   From: 2010.05.17/outbox.cif.g08.bks.cpg/sg22_16_cif.got.tgz:31456.got - 2010.06.03 23:40:54.
