data_PCOD9326614
_publ_section_title
;
Structure prediction by ZEFSAII (Michael W. Deem and Ramdas Pophale) SiO2 
 PCOD9326614
Probable space group: F 2 2 2
;
_chemical_formula_sum "Si O2"
_cell_formula_units_Z 96
_cell_length_a 9.401181
_cell_length_b 19.234560
_cell_length_c 25.926271
_cell_angle_alpha 90.000000
_cell_angle_beta 90.000000
_cell_angle_gamma 90.000000
_cell_volume 4688.184844
_symmetry_space_group_name_H-M "F 2 2 2"
_symmetry_group_IT_number 22
_symmetry_cell_setting 'orthorhombic'
loop_
_space_group_symop_operation_xyz
x,y,z
-x,-y,z
x,-y,-z
-x,y,-z
x,1/2+y,1/2+z
-x,1/2-y,1/2+z
x,1/2-y,1/2-z
-x,1/2+y,1/2-z
1/2+x,y,1/2+z
1/2-x,-y,1/2+z
1/2+x,-y,1/2-z
1/2-x,y,1/2-z
1/2+x,1/2+y,z
1/2-x,1/2-y,z
1/2+x,1/2-y,-z
1/2-x,1/2+y,-z
loop_
_atom_site_type_symbol
_atom_site_label
_atom_site_fract_x
_atom_site_fract_y
_atom_site_fract_z
Si Si1 0.119267 0.370124 0.955620
Si Si2 0.683707 0.395526 0.666137
Si Si3 0.250000 0.750000 0.514499
Si Si4 0.440280 0.226829 0.108419
Si Si5 0.500000 0.500000 0.596213
Si Si6 0.100327 0.788770 0.199521
Si Si7 0.533417 0.580377 0.226702
O O1 0.106620 0.449889 0.936671
O O2 0.067350 0.325605 0.906855
O O3 0.240455 0.320899 0.980916
O O4 0.000000 0.368655 0.000000
O O5 0.675701 0.323105 0.635360
O O6 0.603568 0.452242 0.630840
O O7 0.595442 0.391468 0.719305
O O8 0.842306 0.413834 0.683953
O O9 0.381663 0.754888 0.554396
O O10 0.503265 0.278322 0.149900
O O11 0.037302 0.750000 0.250000
O O12 0.250000 0.750000 0.191768
O O13 0.098812 0.870599 0.211588
O O14 0.500000 0.500000 0.233548
#
# Coordination Sequence:
#
# PCOD9326614 Si02
#       7
#    16  16   8  16   8  16  16
#     4   9  20  35  59  91 123 158 211 273 324 386
#     4  10  21  37  61  90 126 180 217 273 328 411
#     4  10  20  38  61  92 127 152 210 284 330 386
#     4  10  20  39  62  89 125 163 215 265 338 386
#     4  10  19  38  64  90 128 170 230 262 341 402
#     4  11  24  40  63  95 128 171 224 272 320 395
#     4  11  23  39  58  92 139 177 223 270 335 389
#
# _framework density 20.477008000000001
#
# number of rings (size 3 to 8) (size 9 to 14) (size 15 to 20)
#    0.000    1.833    2.500    1.250    1.167    5.333 
#    0.000    0.000    0.000    0.000    0.000    0.000 
#    0.000    0.000    0.000    0.000    0.000    0.000 
#
# Total GULP energy -133733.388880 kJ/mol
# GULP energy per Si atom -5572.224537 kJ/mol
# Density = 2.043040 g / cm^3
# Si number density = 20.477008 Si / 1000 Ang^3
#
#
#
# Elastic Constant Matrix: (Units=GPa)
#
#
# Indices 1 2 3 4 5 6 
#
# 1 61.5150 39.6019 24.8557 0.0000 0.0000 0.0000
# 2 39.6019 127.0710 39.4144 0.0000 0.0000 0.0000
# 3 24.8557 39.4144 86.6944 0.0000 0.0000 0.0000
# 4 0.0000 0.0000 0.0000 37.3629 0.0000 0.0000
# 5 0.0000 0.0000 0.0000 0.0000 34.2024 0.0000
# 6 0.0000 0.0000 0.0000 0.0000 0.0000 29.2909
#
#
#
# Elastic Compliance Matrix: (Units=1/GPa)
#
#
# Indices 1 2 3 4 5 6 
#
# 1 0.021254 -0.005511 -0.003588 0.000000 0.000000 0.000000
# 2 -0.005511 0.010590 -0.003235 0.000000 0.000000 0.000000
# 3 -0.003588 -0.003235 0.014034 0.000000 0.000000 0.000000
# 4 0.000000 0.000000 0.000000 0.026765 0.000000 0.000000
# 5 0.000000 0.000000 0.000000 0.000000 0.029238 0.000000
# 6 0.000000 0.000000 0.000000 0.000000 0.000000 0.034140
#
#
# Mechanical properties :
#
#
# Convention : Reuss Voigt Hill
#
# Bulk Modulus (GPa) = 47.14576 53.66938 50.40757
# Shear Modulus (GPa) = 29.80471 31.59846 30.70159
#
# Velocity S-wave (km/s) = 3.81927 3.93252 3.87631
# Velocity P-wave (km/s) = 6.52095 6.84734 6.68614
#
# Compressibility (1/GPa) = 0.02121081
#
# Stress axis : x y z
#
# Youngs Moduli (GPa) = 47.05052 94.42489 71.25465
#
# Poissons Ratio (x) = 0.52036 0.25567
# Poissons Ratio (y) = 0.25929 0.23050
# Poissons Ratio (z) = 0.16882 0.30545
#
# Static dielectric constant tensor:
#      x y z
#    x 1.778580 0.000000 0.000000 
#    y 0.000000 1.757520 0.000000 
#    z 0.000000 0.000000 1.733060 
# 
# From -- ./inp_files/48191.got.cif
#   From: 2010.05.17/outbox.cif.g08.bks.cpg/sg22_25_cif.got.tgz:48191.got - 2010.06.03 23:40:54.
