data_PCOD9326690
_publ_section_title
;
Structure prediction by ZEFSAII (Michael W. Deem and Ramdas Pophale) SiO2 
 PCOD9326690
Probable space group: F 2 2 2
;
_chemical_formula_sum "Si O2"
_cell_formula_units_Z 72
_cell_length_a 14.765500
_cell_length_b 13.798577
_cell_length_c 15.862907
_cell_angle_alpha 90.000000
_cell_angle_beta 90.000000
_cell_angle_gamma 90.000000
_cell_volume 3231.954495
_symmetry_space_group_name_H-M "F 2 2 2"
_symmetry_group_IT_number 22
_symmetry_cell_setting 'orthorhombic'
loop_
_space_group_symop_operation_xyz
x,y,z
-x,-y,z
x,-y,-z
-x,y,-z
x,1/2+y,1/2+z
-x,1/2-y,1/2+z
x,1/2-y,1/2-z
-x,1/2+y,1/2-z
1/2+x,y,1/2+z
1/2-x,-y,1/2+z
1/2+x,-y,1/2-z
1/2-x,y,1/2-z
1/2+x,1/2+y,z
1/2-x,1/2-y,z
1/2+x,1/2-y,-z
1/2-x,1/2+y,-z
loop_
_atom_site_type_symbol
_atom_site_label
_atom_site_fract_x
_atom_site_fract_y
_atom_site_fract_z
Si Si1 0.250000 0.441456 0.750000
Si Si2 0.129612 0.891155 0.970075
Si Si3 0.026215 0.217729 0.403205
Si Si4 0.825362 0.442449 0.911929
Si Si5 0.851017 0.292694 0.351628
O O1 0.206916 0.495073 0.831183
O O2 0.166257 0.378958 0.713214
O O3 0.068780 0.826896 0.907329
O O4 0.231775 0.891167 0.937525
O O5 0.131282 0.834166 0.056747
O O6 0.104125 0.000000 0.000000
O O7 0.099675 0.135232 0.383597
O O8 0.000000 0.194218 0.500000
O O9 0.937324 0.222282 0.344816
O O10 0.851305 0.500000 0.000000
O O11 0.750000 0.250000 0.352788
#
# Coordination Sequence:
#
# PCOD9326690 Si02
#       5
#     8  16  16  16  16
#     4  12  25  46  77 104 152 204 244 307 381 432
#     4  10  19  41  76 107 141 189 241 300 377 449
#     4  10  23  41  77 109 141 194 249 307 372 445
#     4  11  23  46  76 109 151 196 246 307 371 454
#     4  11  23  45  69 102 144 192 245 308 368 438
#
# _framework density 22.277542
#
# number of rings (size 3 to 8) (size 9 to 14) (size 15 to 20)
#    0.000    1.333    4.444    3.667    0.000    4.444 
#    0.000    8.889    0.000    0.000    0.000    0.000 
#    0.000    0.000    0.000    0.000    0.000    0.000 
#
# Total GULP energy -100332.605692 kJ/mol
# GULP energy per Si atom -5574.033650 kJ/mol
# Density = 2.222684 g / cm^3
# Si number density = 22.277542 Si / 1000 Ang^3
#
#
#
# Elastic Constant Matrix: (Units=GPa)
#
#
# Indices 1 2 3 4 5 6 
#
# 1 174.8064 89.5538 44.9528 0.0000 0.0000 0.0000
# 2 89.5538 110.2659 48.5027 0.0000 0.0000 0.0000
# 3 44.9528 48.5027 110.7428 0.0000 0.0000 0.0000
# 4 0.0000 0.0000 0.0000 19.8838 0.0000 0.0000
# 5 0.0000 0.0000 0.0000 0.0000 12.4040 0.0000
# 6 0.0000 0.0000 0.0000 0.0000 0.0000 28.9794
#
#
#
# Elastic Compliance Matrix: (Units=1/GPa)
#
#
# Indices 1 2 3 4 5 6 
#
# 1 0.009830 -0.007715 -0.000611 0.000000 0.000000 0.000000
# 2 -0.007715 0.017288 -0.004440 0.000000 0.000000 0.000000
# 3 -0.000611 -0.004440 0.011223 0.000000 0.000000 0.000000
# 4 0.000000 0.000000 0.000000 0.050292 0.000000 0.000000
# 5 0.000000 0.000000 0.000000 0.000000 0.080619 0.000000
# 6 0.000000 0.000000 0.000000 0.000000 0.000000 0.034507
#
#
# Mechanical properties :
#
#
# Convention : Reuss Voigt Hill
#
# Bulk Modulus (GPa) = 78.07470 84.64820 81.36145
# Shear Modulus (GPa) = 21.40774 26.44051 23.92413
#
# Velocity S-wave (km/s) = 3.10329 3.44883 3.28062
# Velocity P-wave (km/s) = 6.92553 7.34431 7.13799
#
# Compressibility (1/GPa) = 0.01280825
#
# Stress axis : x y z
#
# Youngs Moduli (GPa) = 101.72836 57.84495 89.10503
#
# Poissons Ratio (x) = 0.44626 0.05448
# Poissons Ratio (y) = 0.78480 0.39562
# Poissons Ratio (z) = 0.06220 0.25683
#
# Static dielectric constant tensor:
#      x y z
#    x 1.869410 0.000000 0.000000 
#    y 0.000000 1.960820 0.000000 
#    z 0.000000 0.000000 1.830950 
# 
# From -- ./inp_files/36975.got.cif
#   From: 2010.05.17/outbox.cif.g08.bks.cpg/sg22_19_cif.got.tgz:36975.got - 2010.06.03 23:40:54.
