data_PCOD9326366
_publ_section_title
;
Structure prediction by ZEFSAII (Michael W. Deem and Ramdas Pophale) SiO2 
 PCOD9326366
Probable space group: F 2 2 2
;
_chemical_formula_sum "Si O2"
_cell_formula_units_Z 128
_cell_length_a 17.135428
_cell_length_b 17.480358
_cell_length_c 23.814061
_cell_angle_alpha 90.000000
_cell_angle_beta 90.000000
_cell_angle_gamma 90.000000
_cell_volume 7133.107038
_symmetry_space_group_name_H-M "F 2 2 2"
_symmetry_group_IT_number 22
_symmetry_cell_setting 'orthorhombic'
loop_
_space_group_symop_operation_xyz
x,y,z
-x,-y,z
x,-y,-z
-x,y,-z
x,1/2+y,1/2+z
-x,1/2-y,1/2+z
x,1/2-y,1/2-z
-x,1/2+y,1/2-z
1/2+x,y,1/2+z
1/2-x,-y,1/2+z
1/2+x,-y,1/2-z
1/2-x,y,1/2-z
1/2+x,1/2+y,z
1/2-x,1/2-y,z
1/2+x,1/2-y,-z
1/2-x,1/2+y,-z
loop_
_atom_site_type_symbol
_atom_site_label
_atom_site_fract_x
_atom_site_fract_y
_atom_site_fract_z
Si Si1 0.013864 0.662517 0.066349
Si Si2 0.160831 0.597034 0.371234
Si Si3 0.425518 0.447496 0.148003
Si Si4 0.074405 0.160638 0.250000
Si Si5 0.925518 0.947496 0.351997
Si Si6 0.660831 0.597034 0.628766
Si Si7 0.385147 0.161911 0.750000
Si Si8 0.486136 0.162517 0.566349
O O1 0.100142 0.639401 0.087638
O O2 0.999091 0.750000 0.084679
O O3 0.957495 0.603358 0.097278
O O4 0.000000 0.657791 0.000000
O O5 0.139431 0.507365 0.370859
O O6 0.250000 0.611669 0.386039
O O7 0.144691 0.624073 0.307246
O O8 0.100142 0.639401 0.412362
O O9 0.500000 0.500000 0.167504
O O10 0.400775 0.388817 0.196210
O O11 0.457495 0.396642 0.097278
O O12 0.098151 0.250000 0.250000
O O13 0.099225 0.111183 0.303790
O O14 0.979441 0.159691 0.250000
O O15 0.860569 0.007365 0.370859
O O16 0.000000 0.000000 0.332496
O O17 0.644691 0.624073 0.692754
O O18 0.360401 0.250000 0.750000
O O19 0.500000 0.157791 0.500000
#
# Coordination Sequence:
#
# PCOD9326366 Si02
#       8
#    16  16  16  16  16  16  16  16
#     4  10  21  38  59  81 106 142 191 238 277 325
#     4  11  23  36  56  86 120 150 179 227 289 341
#     4  10  19  33  54  78 110 147 188 227 272 329
#     4  11  18  30  55  83 111 148 193 234 266 319
#     4  10  19  33  54  78 110 147 188 227 272 329
#     4  11  23  36  56  86 120 150 179 227 289 341
#     4  11  20  32  54  88 121 149 182 226 282 337
#     4  10  21  38  59  81 106 142 191 238 277 325
#
# _framework density 17.944493999999999
#
# number of rings (size 3 to 8) (size 9 to 14) (size 15 to 20)
#    0.000    1.500    5.000    3.000    0.000    7.000 
#    0.000    2.500    0.000    5.250    0.000    0.000 
#    0.000    0.000    0.000    0.000    0.000    0.000 
#
# Total GULP energy -178639.365694 kJ/mol
# GULP energy per Si atom -5582.480178 kJ/mol
# Density = 1.790365 g / cm^3
# Si number density = 17.944494 Si / 1000 Ang^3
#
#
#
# Elastic Constant Matrix: (Units=GPa)
#
#
# Indices 1 2 3 4 5 6 
#
# 1 58.6418 19.6886 32.9941 0.0000 0.0000 0.0000
# 2 19.6886 143.8998 49.1709 0.0000 0.0000 0.0000
# 3 32.9941 49.1709 79.2002 0.0000 0.0000 0.0000
# 4 0.0000 0.0000 0.0000 36.1670 0.0000 0.0000
# 5 0.0000 0.0000 0.0000 0.0000 4.9730 0.0000
# 6 0.0000 0.0000 0.0000 0.0000 0.0000 9.2858
#
#
#
# Elastic Compliance Matrix: (Units=1/GPa)
#
#
# Indices 1 2 3 4 5 6 
#
# 1 0.022276 0.000156 -0.009377 0.000000 0.000000 0.000000
# 2 0.000156 0.008822 -0.005542 0.000000 0.000000 0.000000
# 3 -0.009377 -0.005542 0.019973 0.000000 0.000000 0.000000
# 4 0.000000 0.000000 0.000000 0.027650 0.000000 0.000000
# 5 0.000000 0.000000 0.000000 0.000000 0.201086 0.000000
# 6 0.000000 0.000000 0.000000 0.000000 0.000000 0.107692
#
#
# Mechanical properties :
#
#
# Convention : Reuss Voigt Hill
#
# Bulk Modulus (GPa) = 46.41316 53.93877 50.17597
# Shear Modulus (GPa) = 11.78674 22.07770 16.93222
#
# Velocity S-wave (km/s) = 2.56568 3.51142 3.07512
# Velocity P-wave (km/s) = 5.89050 6.82378 6.37424
#
# Compressibility (1/GPa) = 0.02154561
#
# Stress axis : x y z
#
# Youngs Moduli (GPa) = 44.89112 113.35833 50.06681
#
# Poissons Ratio (x) = -0.01772 0.46948
# Poissons Ratio (y) = -0.00702 0.27747
# Poissons Ratio (z) = 0.42095 0.62823
#
# Static dielectric constant tensor:
#      x y z
#    x 1.602910 0.000000 0.000000 
#    y 0.000000 1.625720 0.000000 
#    z 0.000000 0.000000 1.634080 
# 
# From -- ./inp_files/49550.got.cif
#   From: 2010.05.17/outbox.cif.g08.bks.cpg/sg22_25_cif.got.tgz:49550.got - 2010.06.03 23:40:54.
