data_PCOD9326163
_publ_section_title
;
Structure prediction by ZEFSAII (Michael W. Deem and Ramdas Pophale) SiO2 
 PCOD9326163
Probable space group: F 2 2 2
;
_chemical_formula_sum "Si O2"
_cell_formula_units_Z 88
_cell_length_a 15.049321
_cell_length_b 14.788714
_cell_length_c 20.837431
_cell_angle_alpha 90.000000
_cell_angle_beta 90.000000
_cell_angle_gamma 90.000000
_cell_volume 4637.580814
_symmetry_space_group_name_H-M "F 2 2 2"
_symmetry_group_IT_number 22
_symmetry_cell_setting 'orthorhombic'
loop_
_space_group_symop_operation_xyz
x,y,z
-x,-y,z
x,-y,-z
-x,y,-z
x,1/2+y,1/2+z
-x,1/2-y,1/2+z
x,1/2-y,1/2-z
-x,1/2+y,1/2-z
1/2+x,y,1/2+z
1/2-x,-y,1/2+z
1/2+x,-y,1/2-z
1/2-x,y,1/2-z
1/2+x,1/2+y,z
1/2-x,1/2-y,z
1/2+x,1/2-y,-z
1/2-x,1/2+y,-z
loop_
_atom_site_type_symbol
_atom_site_label
_atom_site_fract_x
_atom_site_fract_y
_atom_site_fract_z
Si Si1 0.802773 0.346404 0.173297
Si Si2 0.524889 0.136710 0.640491
Si Si3 0.151652 0.018790 0.859890
Si Si4 0.948625 0.750000 0.750000
Si Si5 0.000000 0.782975 0.000000
Si Si6 0.231492 0.000000 0.000000
Si Si7 0.826148 0.174073 0.472288
O O1 0.750000 0.250000 0.175309
O O2 0.733053 0.430170 0.176322
O O3 0.882917 0.328942 0.222626
O O4 0.840159 0.354044 0.101557
O O5 0.436727 0.076769 0.650837
O O6 0.508144 0.217532 0.690364
O O7 0.516546 0.161669 0.565348
O O8 0.615975 0.082228 0.654314
O O9 0.175749 0.020359 0.935910
O O10 0.085280 0.720181 0.005159
O O11 0.292136 0.087779 0.011017
O O12 0.750000 0.250000 0.473424
#
# Coordination Sequence:
#
# PCOD9326163 Si02
#       7
#    16  16  16   8   8   8  16
#     4  10  18  34  58  86 116 160 202 246 306 370
#     4  11  22  34  61  90 123 154 212 261 314 370
#     4  10  20  35  57  92 118 156 204 264 308 363
#     4  12  21  36  62  90 119 164 210 255 306 384
#     4  12  20  38  62  90 122 168 202 265 324 361
#     4  10  20  36  60  88 126 154 210 261 308 377
#     4  10  20  35  59  90 122 159 206 253 316 376
#
# _framework density 18.975411000000001
#
# number of rings (size 3 to 8) (size 9 to 14) (size 15 to 20)
#    0.000    1.455    3.636    4.636    0.000    1.818 
#    0.000    0.000   20.000    0.000    0.000    0.000 
#    0.000    0.000    0.000    0.000    0.000    0.000 
#
# Total GULP energy -122599.067453 kJ/mol
# GULP energy per Si atom -5572.684884 kJ/mol
# Density = 1.893222 g / cm^3
# Si number density = 18.975411 Si / 1000 Ang^3
#
#
#
# Elastic Constant Matrix: (Units=GPa)
#
#
# Indices 1 2 3 4 5 6 
#
# 1 96.3546 44.8736 24.0476 0.0000 0.0000 0.0000
# 2 44.8736 86.1803 34.4618 0.0000 0.0000 0.0000
# 3 24.0476 34.4618 89.9330 0.0000 0.0000 0.0000
# 4 0.0000 0.0000 0.0000 24.6871 0.0000 0.0000
# 5 0.0000 0.0000 0.0000 0.0000 245.4259 0.0000
# 6 0.0000 0.0000 0.0000 0.0000 0.0000 39.4237
#
#
#
# Elastic Compliance Matrix: (Units=1/GPa)
#
#
# Indices 1 2 3 4 5 6 
#
# 1 0.013793 -0.006740 -0.001106 0.000000 0.000000 0.000000
# 2 -0.006740 0.016997 -0.004711 0.000000 0.000000 0.000000
# 3 -0.001106 -0.004711 0.013220 0.000000 0.000000 0.000000
# 4 0.000000 0.000000 0.000000 0.040507 0.000000 0.000000
# 5 0.000000 0.000000 0.000000 0.000000 0.004075 0.000000
# 6 0.000000 0.000000 0.000000 0.000000 0.000000 0.025365
#
#
# Mechanical properties :
#
#
# Convention : Reuss Voigt Hill
#
# Bulk Modulus (GPa) = 52.91703 53.24821 53.08262
# Shear Modulus (GPa) = 34.39526 73.17965 53.78746
#
# Velocity S-wave (km/s) = 4.26211 6.21685 5.32986
# Velocity P-wave (km/s) = 7.22277 8.92496 8.11860
#
# Compressibility (1/GPa) = 0.01889751
#
# Stress axis : x y z
#
# Youngs Moduli (GPa) = 72.50001 58.83460 75.64200
#
# Poissons Ratio (x) = 0.39654 0.08362
# Poissons Ratio (y) = 0.48864 0.35634
# Poissons Ratio (z) = 0.08015 0.27716
#
# Static dielectric constant tensor:
#      x y z
#    x 1.650340 0.000000 0.000000 
#    y 0.000000 1.661110 0.000000 
#    z 0.000000 0.000000 1.687160 
# 
# From -- ./inp_files/31476.got.cif
#   From: 2010.05.17/outbox.cif.g08.bks.cpg/sg22_16_cif.got.tgz:31476.got - 2010.06.03 23:40:54.
