data_PCOD9326201
_publ_section_title
;
Structure prediction by ZEFSAII (Michael W. Deem and Ramdas Pophale) SiO2 
 PCOD9326201
Probable space group: F 2 2 2
;
_chemical_formula_sum "Si O2"
_cell_formula_units_Z 112
_cell_length_a 26.629066
_cell_length_b 11.398802
_cell_length_c 16.061476
_cell_angle_alpha 90.000000
_cell_angle_beta 90.000000
_cell_angle_gamma 90.000000
_cell_volume 4875.291604
_symmetry_space_group_name_H-M "F 2 2 2"
_symmetry_group_IT_number 22
_symmetry_cell_setting 'orthorhombic'
loop_
_space_group_symop_operation_xyz
x,y,z
-x,-y,z
x,-y,-z
-x,y,-z
x,1/2+y,1/2+z
-x,1/2-y,1/2+z
x,1/2-y,1/2-z
-x,1/2+y,1/2-z
1/2+x,y,1/2+z
1/2-x,-y,1/2+z
1/2+x,-y,1/2-z
1/2-x,y,1/2-z
1/2+x,1/2+y,z
1/2-x,1/2-y,z
1/2+x,1/2-y,-z
1/2-x,1/2+y,-z
loop_
_atom_site_type_symbol
_atom_site_label
_atom_site_fract_x
_atom_site_fract_y
_atom_site_fract_z
Si Si1 0.196419 0.730117 0.084556
Si Si2 0.482751 0.127421 0.596792
Si Si3 0.818188 0.114379 0.828170
Si Si4 0.129806 0.564631 0.410469
Si Si5 0.215030 0.487852 0.151080
Si Si6 0.520893 0.374809 0.595129
Si Si7 0.139578 0.663262 0.924070
O O1 0.250000 0.750000 0.040065
O O2 0.174531 0.850861 0.118882
O O3 0.210102 0.628521 0.150372
O O4 0.153361 0.705304 0.016373
O O5 0.500000 0.125821 0.500000
O O6 0.422935 0.127172 0.593628
O O7 0.502038 0.250774 0.633806
O O8 0.500000 0.000000 0.631982
O O9 0.800814 0.076141 0.736569
O O10 0.768407 0.067430 0.876892
O O11 0.834892 0.241060 0.861220
O O12 0.868136 0.041525 0.846330
O O13 0.137251 0.500000 0.500000
O O14 0.171815 0.452300 0.088130
O O15 0.500000 0.500000 0.630081
O O16 0.500000 0.373886 0.500000
O O17 0.581344 0.362669 0.591663
#
# Coordination Sequence:
#
# PCOD9326201 Si02
#       7
#    16  16  16  16  16  16  16
#     4  12  24  39  65 103 137 173 226 301 351 406
#     4  10  18  35  60  96 127 172 219 283 347 424
#     4  11  24  46  64  98 138 189 227 276 345 435
#     4  12  22  38  67  98 134 169 230 285 346 404
#     4  11  26  43  66  96 140 188 230 273 347 432
#     4  10  23  38  60 101 141 174 216 294 366 417
#     4  12  24  40  72  99 137 177 232 287 354 415
#
# _framework density 22.972984
#
# number of rings (size 3 to 8) (size 9 to 14) (size 15 to 20)
#    0.000    0.857    4.286    4.714    6.000    1.714 
#    0.000    0.000    0.000    4.286    0.000    0.000 
#    0.000    0.000    0.000    0.000    0.000    0.000 
#
# Total GULP energy -155995.299960 kJ/mol
# GULP energy per Si atom -5571.260713 kJ/mol
# Density = 2.292070 g / cm^3
# Si number density = 22.972984 Si / 1000 Ang^3
#
#
#
# Elastic Constant Matrix: (Units=GPa)
#
#
# Indices 1 2 3 4 5 6 
#
# 1 185.9418 68.8030 11.7471 0.0000 0.0000 0.0000
# 2 68.8030 171.8123 14.6486 0.0000 0.0000 0.0000
# 3 11.7471 14.6486 38.1149 0.0000 0.0000 0.0000
# 4 0.0000 0.0000 0.0000 24.9339 0.0000 0.0000
# 5 0.0000 0.0000 0.0000 0.0000 -65.7823 0.0000
# 6 0.0000 0.0000 0.0000 0.0000 0.0000 28.1603
#
#
#
# Elastic Compliance Matrix: (Units=1/GPa)
#
#
# Indices 1 2 3 4 5 6 
#
# 1 0.006351 -0.002457 -0.001013 0.000000 0.000000 0.000000
# 2 -0.002457 0.006968 -0.001921 0.000000 0.000000 0.000000
# 3 -0.001013 -0.001921 0.027287 0.000000 0.000000 0.000000
# 4 0.000000 0.000000 0.000000 0.040106 0.000000 0.000000
# 5 0.000000 0.000000 0.000000 0.000000 -0.015202 0.000000
# 6 0.000000 0.000000 0.000000 0.000000 0.000000 0.035511
#
#
# Mechanical properties :
#
#
# Convention : Reuss Voigt Hill
#
# Bulk Modulus (GPa) = 33.52971 65.14072 49.33521
# Shear Modulus (GPa) = 41.06963 17.50709 29.28836
#
# Velocity S-wave (km/s) = 4.23275 2.76356 3.57445
# Velocity P-wave (km/s) = 6.20606 6.21289 6.20947
#
# Compressibility (1/GPa) = 0.02982429
#
# Stress axis : x y z
#
# Youngs Moduli (GPa) = 157.45114 143.51381 36.64763
#
# Poissons Ratio (x) = 0.35261 0.03713
# Poissons Ratio (y) = 0.38685 0.07039
# Poissons Ratio (z) = 0.15952 0.27565
#
# Static dielectric constant tensor:
#      x y z
#    x 1.855800 0.000000 0.000000 
#    y 0.000000 2.219680 0.000000 
#    z 0.000000 0.000000 1.974130 
# 
# From -- ./inp_files/45351.got.cif
#   From: 2010.05.17/outbox.cif.g08.bks.cpg/sg22_23_cif.got.tgz:45351.got - 2010.06.03 23:40:54.
