data_PCOD9326199
_publ_section_title
;
Structure prediction by ZEFSAII (Michael W. Deem and Ramdas Pophale) SiO2 
 PCOD9326199
Probable space group: F 2 2 2
;
_chemical_formula_sum "Si O2"
_cell_formula_units_Z 112
_cell_length_a 17.868940
_cell_length_b 16.065981
_cell_length_c 21.017048
_cell_angle_alpha 90.000000
_cell_angle_beta 90.000000
_cell_angle_gamma 90.000000
_cell_volume 6033.617236
_symmetry_space_group_name_H-M "F 2 2 2"
_symmetry_group_IT_number 22
_symmetry_cell_setting 'orthorhombic'
loop_
_space_group_symop_operation_xyz
x,y,z
-x,-y,z
x,-y,-z
-x,y,-z
x,1/2+y,1/2+z
-x,1/2-y,1/2+z
x,1/2-y,1/2-z
-x,1/2+y,1/2-z
1/2+x,y,1/2+z
1/2-x,-y,1/2+z
1/2+x,-y,1/2-z
1/2-x,y,1/2-z
1/2+x,1/2+y,z
1/2-x,1/2-y,z
1/2+x,1/2-y,-z
1/2-x,1/2+y,-z
loop_
_atom_site_type_symbol
_atom_site_label
_atom_site_fract_x
_atom_site_fract_y
_atom_site_fract_z
Si Si1 0.650412 0.586782 0.367492
Si Si2 0.287096 0.503683 0.076142
Si Si3 0.586260 0.982390 0.330532
Si Si4 0.938862 0.656575 0.236616
Si Si5 0.801854 0.832265 0.608716
Si Si6 0.598220 0.920409 0.797262
Si Si7 0.410926 0.899428 0.999466
O O1 0.733507 0.562760 0.388432
O O2 0.631331 0.647642 0.310315
O O3 0.611237 0.499104 0.344969
O O4 0.614709 0.626144 0.429817
O O5 0.367752 0.491829 0.105943
O O6 0.255123 0.592183 0.097718
O O7 0.283862 0.500000 0.000000
O O8 0.586228 0.891301 0.299732
O O9 0.500000 0.000000 0.341688
O O10 0.615237 0.043660 0.273397
O O11 0.960641 0.750000 0.250000
O O12 0.012159 0.610038 0.206943
O O13 0.750000 0.750000 0.606449
O O14 0.847347 0.849486 0.674465
O O15 0.865035 0.849161 0.553357
O O16 0.500000 0.889929 0.000000
O O17 0.394041 0.000000 0.000000
#
# Coordination Sequence:
#
# PCOD9326199 Si02
#       7
#    16  16  16  16  16  16  16
#     4  10  18  35  60  87 115 160 201 252 302 365
#     4  11  21  41  61  82 118 160 212 250 298 378
#     4   9  21  40  62  82 113 163 213 251 301 378
#     4  10  21  37  58  92 126 150 200 260 312 368
#     4  11  22  37  59  96 130 155 194 264 327 367
#     4   9  19  37  60  86 118 159 205 249 302 375
#     4  11  19  33  64  94 120 161 217 257 305 367
#
# _framework density 18.562662
#
# number of rings (size 3 to 8) (size 9 to 14) (size 15 to 20)
#    0.000    1.857    4.286    2.143    2.000    7.714 
#    2.571    2.143    0.000    0.000    0.000    0.000 
#    0.000    0.000    0.000    0.000    0.000    0.000 
#
# Total GULP energy -155987.012335 kJ/mol
# GULP energy per Si atom -5570.964726 kJ/mol
# Density = 1.852041 g / cm^3
# Si number density = 18.562662 Si / 1000 Ang^3
#
#
#
# Elastic Constant Matrix: (Units=GPa)
#
#
# Indices 1 2 3 4 5 6 
#
# 1 81.1283 34.6532 43.9484 0.0000 0.0000 0.0000
# 2 34.6532 44.2763 16.2466 0.0000 0.0000 0.0000
# 3 43.9484 16.2466 45.8961 0.0000 0.0000 0.0000
# 4 0.0000 0.0000 0.0000 9.3690 0.0000 0.0000
# 5 0.0000 0.0000 0.0000 0.0000 33.0780 0.0000
# 6 0.0000 0.0000 0.0000 0.0000 0.0000 17.0124
#
#
#
# Elastic Compliance Matrix: (Units=1/GPa)
#
#
# Indices 1 2 3 4 5 6 
#
# 1 0.033807 -0.016757 -0.026441 0.000000 0.000000 0.000000
# 2 -0.016757 0.034263 0.003918 0.000000 0.000000 0.000000
# 3 -0.026441 0.003918 0.045720 0.000000 0.000000 0.000000
# 4 0.000000 0.000000 0.000000 0.106735 0.000000 0.000000
# 5 0.000000 0.000000 0.000000 0.000000 0.030232 0.000000
# 6 0.000000 0.000000 0.000000 0.000000 0.000000 0.058781
#
#
# Mechanical properties :
#
#
# Convention : Reuss Voigt Hill
#
# Bulk Modulus (GPa) = 28.38520 40.11080 34.24800
# Shear Modulus (GPa) = 12.50494 16.98871 14.74682
#
# Velocity S-wave (km/s) = 2.59831 3.02852 2.82163
# Velocity P-wave (km/s) = 4.93218 5.82104 5.39495
#
# Compressibility (1/GPa) = 0.03522962
#
# Stress axis : x y z
#
# Youngs Moduli (GPa) = 29.57947 29.18573 21.87217
#
# Poissons Ratio (x) = 0.48908 0.57831
# Poissons Ratio (y) = 0.49568 -0.08568
# Poissons Ratio (z) = 0.78210 -0.11434
#
# Static dielectric constant tensor:
#      x y z
#    x 1.676240 0.000000 0.000000 
#    y 0.000000 1.659220 0.000000 
#    z 0.000000 0.000000 1.678510 
# 
# From -- ./inp_files/44344.got.cif
#   From: 2010.05.17/outbox.cif.g08.bks.cpg/sg22_23_cif.got.tgz:44344.got - 2010.06.03 23:40:54.
