data_PCOD9326766
_publ_section_title
;
Structure prediction by ZEFSAII (Michael W. Deem and Ramdas Pophale) SiO2 
 PCOD9326766
Probable space group: F 2 2 2
;
_chemical_formula_sum "Si O2"
_cell_formula_units_Z 128
_cell_length_a 20.245174
_cell_length_b 20.735708
_cell_length_c 17.849510
_cell_angle_alpha 90.000000
_cell_angle_beta 90.000000
_cell_angle_gamma 90.000000
_cell_volume 7493.188893
_symmetry_space_group_name_H-M "F 2 2 2"
_symmetry_group_IT_number 22
_symmetry_cell_setting 'orthorhombic'
loop_
_space_group_symop_operation_xyz
x,y,z
-x,-y,z
x,-y,-z
-x,y,-z
x,1/2+y,1/2+z
-x,1/2-y,1/2+z
x,1/2-y,1/2-z
-x,1/2+y,1/2-z
1/2+x,y,1/2+z
1/2-x,-y,1/2+z
1/2+x,-y,1/2-z
1/2-x,y,1/2-z
1/2+x,1/2+y,z
1/2-x,1/2-y,z
1/2+x,1/2-y,-z
1/2-x,1/2+y,-z
loop_
_atom_site_type_symbol
_atom_site_label
_atom_site_fract_x
_atom_site_fract_y
_atom_site_fract_z
Si Si1 0.439704 0.816634 0.461553
Si Si2 0.047822 0.058753 0.231418
Si Si3 0.762067 0.442312 0.554247
Si Si4 0.354145 0.242690 0.166114
Si Si5 0.583932 0.445539 0.940184
Si Si6 0.314525 0.099937 0.195271
Si Si7 0.199477 0.301545 0.484099
Si Si8 0.498536 0.195353 0.302961
O O1 0.500000 0.778390 0.500000
O O2 0.431922 0.879946 0.514966
O O3 0.367215 0.789866 0.470485
O O4 0.459242 0.823838 0.375467
O O5 0.051421 0.052847 0.140802
O O6 0.122885 0.065198 0.263981
O O7 0.017147 0.130162 0.242483
O O8 0.000000 0.000000 0.257872
O O9 0.742251 0.500000 0.500000
O O10 0.838407 0.453118 0.576789
O O11 0.715512 0.438967 0.625813
O O12 0.769260 0.372518 0.514401
O O13 0.327350 0.250000 0.250000
O O14 0.343710 0.166123 0.158113
O O15 0.317691 0.283840 0.102701
O O16 0.428526 0.272284 0.169996
O O17 0.567550 0.500000 0.000000
O O18 0.250000 0.110919 0.250000
O O19 0.250000 0.250000 0.512537
O O20 0.529472 0.250000 0.250000
#
# Coordination Sequence:
#
# PCOD9326766 Si02
#       8
#    16  16  16  16  16  16  16  16
#     4  11  20  32  53  82 119 149 191 241 298 373
#     4  12  23  36  58  91 125 162 199 247 305 380
#     4  10  21  37  57  83 126 158 195 244 308 365
#     4  11  20  31  60  94 128 147 186 249 322 378
#     4  10  20  34  55  88 119 154 190 241 314 367
#     4  12  22  37  60  94 129 160 196 254 319 380
#     4  11  21  35  56  89 114 153 199 251 308 360
#     4  11  21  38  55  86 123 158 199 247 312 360
#
# _framework density 17.082179
#
# number of rings (size 3 to 8) (size 9 to 14) (size 15 to 20)
#    0.000    1.000    7.500    2.250    0.000    0.000 
#    0.000    1.250    0.000    0.750    0.000    0.000 
#    0.000    0.000    0.000    0.000    0.000    0.000 
#
# Total GULP energy -178210.441010 kJ/mol
# GULP energy per Si atom -5569.076282 kJ/mol
# Density = 1.704330 g / cm^3
# Si number density = 17.082179 Si / 1000 Ang^3
#
#
#
# Elastic Constant Matrix: (Units=GPa)
#
#
# Indices 1 2 3 4 5 6 
#
# 1 111.8110 48.5605 41.4265 0.0000 0.0000 0.0000
# 2 48.5605 101.5638 40.6751 0.0000 0.0000 0.0000
# 3 41.4265 40.6751 71.9733 0.0000 0.0000 0.0000
# 4 0.0000 0.0000 0.0000 -10.3804 0.0000 0.0000
# 5 0.0000 0.0000 0.0000 0.0000 11.4509 0.0000
# 6 0.0000 0.0000 0.0000 0.0000 0.0000 -339.2811
#
#
#
# Elastic Compliance Matrix: (Units=1/GPa)
#
#
# Indices 1 2 3 4 5 6 
#
# 1 0.012513 -0.004005 -0.004939 0.000000 0.000000 0.000000
# 2 -0.004005 0.014008 -0.005612 0.000000 0.000000 0.000000
# 3 -0.004939 -0.005612 0.019908 0.000000 0.000000 0.000000
# 4 0.000000 0.000000 0.000000 -0.096335 0.000000 0.000000
# 5 0.000000 0.000000 0.000000 0.000000 0.087330 0.000000
# 6 0.000000 0.000000 0.000000 0.000000 0.000000 -0.002947
#
#
# Mechanical properties :
#
#
# Convention : Reuss Voigt Hill
#
# Bulk Modulus (GPa) = 57.74102 60.74137 59.24119
# Shear Modulus (GPa) = 72.08796 -57.32974 7.37911
#
# Velocity S-wave (km/s) = 6.50325 -5.79948 2.08066
# Velocity P-wave (km/s) = 9.50079 3.03477 6.36613
#
# Compressibility (1/GPa) = 0.01731871
#
# Stress axis : x y z
#
# Youngs Moduli (GPa) = 79.91766 71.38690 50.23080
#
# Poissons Ratio (x) = 0.28589 0.24809
# Poissons Ratio (y) = 0.32005 0.28187
# Poissons Ratio (z) = 0.39471 0.40059
#
# Static dielectric constant tensor:
#      x y z
#    x 1.739710 0.000000 0.000000 
#    y 0.000000 1.638410 0.000000 
#    z 0.000000 0.000000 1.672490 
# 
# From -- ./inp_files/39145.got.cif
#   From: 2010.05.17/outbox.cif.g08.bks.cpg/sg22_20_cif.got.tgz:39145.got - 2010.06.03 23:40:54.
