data_PCOD9326031
_publ_section_title
;
Structure prediction by ZEFSAII (Michael W. Deem and Ramdas Pophale) SiO2 
 PCOD9326031
Probable space group: F 2 2 2
;
_chemical_formula_sum "Si O2"
_cell_formula_units_Z 56
_cell_length_a 13.770872
_cell_length_b 5.297169
_cell_length_c 29.722815
_cell_angle_alpha 90.000000
_cell_angle_beta 90.000000
_cell_angle_gamma 90.000000
_cell_volume 2168.179374
_symmetry_space_group_name_H-M "F 2 2 2"
_symmetry_group_IT_number 22
_symmetry_cell_setting 'orthorhombic'
loop_
_space_group_symop_operation_xyz
x,y,z
-x,-y,z
x,-y,-z
-x,y,-z
x,1/2+y,1/2+z
-x,1/2-y,1/2+z
x,1/2-y,1/2-z
-x,1/2+y,1/2-z
1/2+x,y,1/2+z
1/2-x,-y,1/2+z
1/2+x,-y,1/2-z
1/2-x,y,1/2-z
1/2+x,1/2+y,z
1/2-x,1/2-y,z
1/2+x,1/2-y,-z
1/2-x,1/2+y,-z
loop_
_atom_site_type_symbol
_atom_site_label
_atom_site_fract_x
_atom_site_fract_y
_atom_site_fract_z
Si Si1 0.134946 0.933883 0.625693
Si Si2 0.366513 0.252399 0.474646
Si Si3 0.065858 0.250000 0.750000
Si Si4 0.856038 0.564312 0.658096
O O1 0.117992 0.800085 0.578064
O O2 0.100272 0.717688 0.660044
O O3 0.096329 0.220333 0.626377
O O4 0.247930 0.000029 0.638935
O O5 0.400611 0.500000 0.500000
O O6 0.250000 0.250000 0.478675
O O7 0.399077 0.000000 0.500000
O O8 0.132898 0.311950 0.706874
O O9 0.000000 0.500000 0.756816
#
# Coordination Sequence:
#
# PCOD9326031 Si02
#       4
#    16  16   8  16
#     4  10  19  35  57  87 121 147 186 228 290 355
#     4  10  18  26  46  79 126 162 169 205 267 358
#     4  12  26  45  60  81 112 154 210 254 296 346
#     4  10  21  36  58  80 112 148 187 244 291 345
#
# _framework density 25.828120999999999
#
# number of rings (size 3 to 8) (size 9 to 14) (size 15 to 20)
#    0.000    1.714    2.857    3.429    8.000    2.286 
#    0.000    5.714    0.000    0.000    0.000    0.000 
#    0.000  115.429    0.000    0.000    0.000    0.000 
#
# Total GULP energy -78142.458472 kJ/mol
# GULP energy per Si atom -5581.604177 kJ/mol
# Density = 2.576934 g / cm^3
# Si number density = 25.828121 Si / 1000 Ang^3
#
#
#
# Elastic Constant Matrix: (Units=GPa)
#
#
# Indices 1 2 3 4 5 6 
#
# 1 118.2701 9.8115 27.8134 0.0000 0.0000 0.0000
# 2 9.8115 292.7826 87.4175 0.0000 0.0000 0.0000
# 3 27.8134 87.4175 183.8311 0.0000 0.0000 0.0000
# 4 0.0000 0.0000 0.0000 56.5225 0.0000 0.0000
# 5 0.0000 0.0000 0.0000 0.0000 6.2004 0.0000
# 6 0.0000 0.0000 0.0000 0.0000 0.0000 -101.2159
#
#
#
# Elastic Compliance Matrix: (Units=1/GPa)
#
#
# Indices 1 2 3 4 5 6 
#
# 1 0.008771 0.000119 -0.001384 0.000000 0.000000 0.000000
# 2 0.000119 0.003982 -0.001912 0.000000 0.000000 0.000000
# 3 -0.001384 -0.001912 0.006558 0.000000 0.000000 0.000000
# 4 0.000000 0.000000 0.000000 0.017692 0.000000 0.000000
# 5 0.000000 0.000000 0.000000 0.000000 0.161280 0.000000
# 6 0.000000 0.000000 0.000000 0.000000 0.000000 -0.009880
#
#
# Mechanical properties :
#
#
# Convention : Reuss Voigt Hill
#
# Bulk Modulus (GPa) = 77.16753 93.88539 85.52646
# Shear Modulus (GPa) = 25.11609 23.62414 24.37012
#
# Velocity S-wave (km/s) = 3.12177 3.02763 3.07506
# Velocity P-wave (km/s) = 6.55256 6.97503 6.76709
#
# Compressibility (1/GPa) = 0.01295882
#
# Stress axis : x y z
#
# Youngs Moduli (GPa) = 114.01551 251.11052 152.48020
#
# Poissons Ratio (x) = -0.02994 0.21099
# Poissons Ratio (y) = -0.01359 0.29150
# Poissons Ratio (z) = 0.15776 0.48006
#
# Static dielectric constant tensor:
#      x y z
#    x 2.312140 0.000000 0.000000 
#    y 0.000000 2.233320 0.000000 
#    z 0.000000 0.000000 2.154870 
# 
# From -- ./inp_files/2622.got.cif
#   From: 2010.05.17/outbox.cif.g08.bks.cpg/sg22_2_cif.got.tgz:2622.got - 2010.06.03 23:40:54.
