data_PCOD9326315
_publ_section_title
;
Structure prediction by ZEFSAII (Michael W. Deem and Ramdas Pophale) SiO2 
 PCOD9326315
Probable space group: F 2 2 2
;
_chemical_formula_sum "Si O2"
_cell_formula_units_Z 88
_cell_length_a 10.115285
_cell_length_b 23.257636
_cell_length_c 16.051006
_cell_angle_alpha 90.000000
_cell_angle_beta 90.000000
_cell_angle_gamma 90.000000
_cell_volume 3776.121415
_symmetry_space_group_name_H-M "F 2 2 2"
_symmetry_group_IT_number 22
_symmetry_cell_setting 'orthorhombic'
loop_
_space_group_symop_operation_xyz
x,y,z
-x,-y,z
x,-y,-z
-x,y,-z
x,1/2+y,1/2+z
-x,1/2-y,1/2+z
x,1/2-y,1/2-z
-x,1/2+y,1/2-z
1/2+x,y,1/2+z
1/2-x,-y,1/2+z
1/2+x,-y,1/2-z
1/2-x,y,1/2-z
1/2+x,1/2+y,z
1/2-x,1/2-y,z
1/2+x,1/2-y,-z
1/2-x,1/2+y,-z
loop_
_atom_site_type_symbol
_atom_site_label
_atom_site_fract_x
_atom_site_fract_y
_atom_site_fract_z
Si Si1 0.785811 0.436541 0.397722
Si Si2 0.250000 0.250000 0.250000
Si Si3 0.500000 0.285361 0.348818
Si Si4 0.250000 0.250000 0.750000
Si Si5 1.000000 0.590170 0.094834
Si Si6 0.714189 0.563459 0.102278
Si Si7 0.000000 0.347308 0.599648
O O1 0.636410 0.430432 0.366320
O O2 0.782998 0.433485 0.500000
O O3 0.837804 0.500000 0.376846
O O4 0.874560 0.383403 0.369158
O O5 0.358242 0.287345 0.301135
O O6 0.641758 0.287345 0.301135
O O7 0.500000 0.340585 0.406638
O O8 0.500000 0.219933 0.381494
O O9 0.863590 0.569568 0.133680
O O10 0.000000 0.568516 0.000000
O O11 0.625440 0.616597 0.130842
O O12 0.000000 0.351452 0.500000
#
# Coordination Sequence:
#
# PCOD9326315 Si02
#       7
#    16   4  16   4  16  16  16
#     4   9  17  29  46  75 112 143 166 190 241 314
#     4  10  24  38  54  70  98 142 180 212 248 300
#     4  11  21  38  54  78 101 131 176 214 260 307
#     4  10  24  38  54  70  98 142 180 212 248 300
#     4  10  19  31  53  81 109 134 160 210 262 304
#     4   9  17  29  46  75 112 143 166 190 241 314
#     4  10  19  31  53  81 109 134 160 210 262 304
#
# _framework density 23.304337
#
# number of rings (size 3 to 8) (size 9 to 14) (size 15 to 20)
#    0.000    2.182    0.000    3.818    0.000    4.364 
#    0.000    7.273    0.000    0.000    0.000   89.091 
#    0.000    0.000    0.000    0.000    0.000    0.000 
#
# Total GULP energy -122689.483433 kJ/mol
# GULP energy per Si atom -5576.794702 kJ/mol
# Density = 2.325130 g / cm^3
# Si number density = 23.304337 Si / 1000 Ang^3
#
#
#
# Elastic Constant Matrix: (Units=GPa)
#
#
# Indices 1 2 3 4 5 6 
#
# 1 183.3471 51.9737 20.2075 0.0000 0.0000 0.0000
# 2 51.9737 169.7695 5.2280 0.0000 0.0000 0.0000
# 3 20.2075 5.2280 13.3522 0.0000 0.0000 0.0000
# 4 0.0000 0.0000 0.0000 -0.5667 0.0000 0.0000
# 5 0.0000 0.0000 0.0000 0.0000 11.5297 0.0000
# 6 0.0000 0.0000 0.0000 0.0000 0.0000 8.7062
#
#
#
# Elastic Compliance Matrix: (Units=1/GPa)
#
#
# Indices 1 2 3 4 5 6 
#
# 1 0.007083 -0.001861 -0.009991 0.000000 0.000000 0.000000
# 2 -0.001861 0.006451 0.000290 0.000000 0.000000 0.000000
# 3 -0.009991 0.000290 0.089900 0.000000 0.000000 0.000000
# 4 0.000000 0.000000 0.000000 -1.764644 0.000000 0.000000
# 5 0.000000 0.000000 0.000000 0.000000 0.086732 0.000000
# 6 0.000000 0.000000 0.000000 0.000000 0.000000 0.114860
#
#
# Mechanical properties :
#
#
# Convention : Reuss Voigt Hill
#
# Bulk Modulus (GPa) = 12.45150 57.92080 35.18615
# Shear Modulus (GPa) = -3.54679 23.20450 9.82885
#
# Velocity S-wave (km/s) = -1.23501 3.15892 2.05591
# Velocity P-wave (km/s) = 1.82234 6.18167 4.55708
#
# Compressibility (1/GPa) = 0.08031162
#
# Stress axis : x y z
#
# Youngs Moduli (GPa) = 141.18955 155.01395 11.12346
#
# Poissons Ratio (x) = 0.28843 0.11113
# Poissons Ratio (y) = 0.26271 -0.00323
# Poissons Ratio (z) = 1.41056 -0.04497
#
# Static dielectric constant tensor:
#      x y z
#    x 1.880720 0.000000 0.000000 
#    y 0.000000 1.837280 0.000000 
#    z 0.000000 0.000000 1.938500 
# 
# From -- ./inp_files/41867.got.cif
#   From: 2010.05.17/outbox.cif.g08.bks.cpg/sg22_21_cif.got.tgz:41867.got - 2010.06.03 23:40:54.
