data_PCOD9326759
_publ_section_title
;
Structure prediction by ZEFSAII (Michael W. Deem and Ramdas Pophale) SiO2 
 PCOD9326759
Probable space group: F 2 2 2
;
_chemical_formula_sum "Si O2"
_cell_formula_units_Z 64
_cell_length_a 5.414939
_cell_length_b 18.562588
_cell_length_c 27.231546
_cell_angle_alpha 90.000000
_cell_angle_beta 90.000000
_cell_angle_gamma 90.000000
_cell_volume 2737.186517
_symmetry_space_group_name_H-M "F 2 2 2"
_symmetry_group_IT_number 22
_symmetry_cell_setting 'orthorhombic'
loop_
_space_group_symop_operation_xyz
x,y,z
-x,-y,z
x,-y,-z
-x,y,-z
x,1/2+y,1/2+z
-x,1/2-y,1/2+z
x,1/2-y,1/2-z
-x,1/2+y,1/2-z
1/2+x,y,1/2+z
1/2-x,-y,1/2+z
1/2+x,-y,1/2-z
1/2-x,y,1/2-z
1/2+x,1/2+y,z
1/2-x,1/2-y,z
1/2+x,1/2-y,-z
1/2-x,1/2+y,-z
loop_
_atom_site_type_symbol
_atom_site_label
_atom_site_fract_x
_atom_site_fract_y
_atom_site_fract_z
Si Si1 0.748638 0.661892 0.807001
Si Si2 0.574659 0.312192 0.445192
Si Si3 0.253502 0.334035 0.356372
Si Si4 0.751232 0.970355 0.943866
O O1 0.750000 0.641234 0.750000
O O2 0.750000 0.750000 0.808227
O O3 0.506611 0.636932 0.837192
O O4 0.001288 0.634538 0.831350
O O5 0.500000 0.291150 0.500000
O O6 0.750000 0.250000 0.423039
O O7 0.329793 0.329964 0.413673
O O8 0.732250 0.384974 0.447060
O O9 0.250000 0.250000 0.340741
O O10 0.500000 0.000000 0.920431
O O11 0.000000 0.000000 0.920401
O O12 0.750409 0.000000 0.000000
#
# Coordination Sequence:
#
# PCOD9326759 Si02
#       4
#    16  16  16  16
#     4   9  17  32  54  77 113 164 205 249 320 388
#     4  12  25  38  61  93 130 182 225 270 333 388
#     4  10  20  34  50  84 123 157 210 264 306 385
#     4  10  22  43  61  80 113 168 230 281 308 371
#
# _framework density 23.381674
#
# number of rings (size 3 to 8) (size 9 to 14) (size 15 to 20)
#    0.000    1.750    2.500    3.750    3.500    7.000 
#    0.000    0.000    0.000    0.000    0.000    0.000 
#    0.000    6.000    0.000   34.750    0.000    1.250 
#
# Total GULP energy -89452.514952 kJ/mol
# GULP energy per Si atom -5590.782185 kJ/mol
# Density = 2.332846 g / cm^3
# Si number density = 23.381674 Si / 1000 Ang^3
#
#
#
# Elastic Constant Matrix: (Units=GPa)
#
#
# Indices 1 2 3 4 5 6 
#
# 1 230.9655 22.5008 69.7797 0.0000 0.0000 0.0000
# 2 22.5008 96.9228 -13.4042 0.0000 0.0000 0.0000
# 3 69.7797 -13.4042 155.0473 0.0000 0.0000 0.0000
# 4 0.0000 0.0000 0.0000 8.6304 0.0000 0.0000
# 5 0.0000 0.0000 0.0000 0.0000 23.8466 0.0000
# 6 0.0000 0.0000 0.0000 0.0000 0.0000 11.4857
#
#
#
# Elastic Compliance Matrix: (Units=1/GPa)
#
#
# Indices 1 2 3 4 5 6 
#
# 1 0.005234 -0.001559 -0.002490 0.000000 0.000000 0.000000
# 2 -0.001559 0.010907 0.001645 0.000000 0.000000 0.000000
# 3 -0.002490 0.001645 0.007713 0.000000 0.000000 0.000000
# 4 0.000000 0.000000 0.000000 0.115869 0.000000 0.000000
# 5 0.000000 0.000000 0.000000 0.000000 0.041935 0.000000
# 6 0.000000 0.000000 0.000000 0.000000 0.000000 0.087065
#
#
# Mechanical properties :
#
#
# Convention : Reuss Voigt Hill
#
# Bulk Modulus (GPa) = 52.51153 71.18759 61.84956
# Shear Modulus (GPa) = 17.86478 35.72983 26.79731
#
# Velocity S-wave (km/s) = 2.76715 3.91335 3.38906
# Velocity P-wave (km/s) = 5.71984 7.13660 6.46714
#
# Compressibility (1/GPa) = 0.01904344
#
# Stress axis : x y z
#
# Youngs Moduli (GPa) = 191.05918 91.68424 129.65704
#
# Poissons Ratio (x) = 0.14298 0.32290
# Poissons Ratio (y) = 0.29796 -0.21326
# Poissons Ratio (z) = 0.47581 -0.15080
#
# Static dielectric constant tensor:
#      x y z
#    x 1.924040 0.000000 0.000000 
#    y 0.000000 1.880450 0.000000 
#    z 0.000000 0.000000 1.903810 
# 
# From -- ./inp_files/54763.got.cif
#   From: 2010.05.17/outbox.cif.g08.bks.cpg/sg22_28_cif.got.tgz:54763.got - 2010.06.03 23:40:54.
