data_PCOD9326953
_publ_section_title
;
Structure prediction by ZEFSAII (Michael W. Deem and Ramdas Pophale) SiO2 
 PCOD9326953
Probable space group: F 2 2 2
;
_chemical_formula_sum "Si O2"
_cell_formula_units_Z 104
_cell_length_a 8.744269
_cell_length_b 21.639272
_cell_length_c 22.875826
_cell_angle_alpha 90.000000
_cell_angle_beta 90.000000
_cell_angle_gamma 90.000000
_cell_volume 4328.554996
_symmetry_space_group_name_H-M "F 2 2 2"
_symmetry_group_IT_number 22
_symmetry_cell_setting 'orthorhombic'
loop_
_space_group_symop_operation_xyz
x,y,z
-x,-y,z
x,-y,-z
-x,y,-z
x,1/2+y,1/2+z
-x,1/2-y,1/2+z
x,1/2-y,1/2-z
-x,1/2+y,1/2-z
1/2+x,y,1/2+z
1/2-x,-y,1/2+z
1/2+x,-y,1/2-z
1/2-x,y,1/2-z
1/2+x,1/2+y,z
1/2-x,1/2-y,z
1/2+x,1/2-y,-z
1/2-x,1/2+y,-z
loop_
_atom_site_type_symbol
_atom_site_label
_atom_site_fract_x
_atom_site_fract_y
_atom_site_fract_z
Si Si1 0.927043 0.875194 0.728115
Si Si2 0.500000 0.000000 0.292206
Si Si3 0.738897 0.178084 0.437570
Si Si4 0.500148 0.823600 0.659840
Si Si5 0.750000 0.250000 0.902348
Si Si6 0.000000 0.587999 0.500000
Si Si7 0.554336 0.634655 0.402978
Si Si8 0.326060 0.054584 0.388368
O O1 0.750000 0.878078 0.750000
O O2 0.992739 0.823422 0.771289
O O3 0.986930 0.861324 0.663427
O O4 0.993171 0.940939 0.750531
O O5 0.358806 0.002495 0.339402
O O6 0.750000 0.250000 0.456804
O O7 0.663370 0.179836 0.372357
O O8 0.620069 0.135172 0.471027
O O9 0.901812 0.145217 0.439394
O O10 0.395851 0.770854 0.634126
O O11 0.412159 0.886483 0.641060
O O12 0.677689 0.186050 0.926462
O O13 0.909513 0.550502 0.450455
O O14 0.651598 0.571741 0.400982
#
# Coordination Sequence:
#
# PCOD9326953 Si02
#       8
#    16   8  16  16   8   8  16  16
#     4  11  23  38  62  95 130 173 215 265 329 407
#     4  10  24  43  70  92 132 169 218 272 356 398
#     4  11  21  40  63  94 132 180 217 274 328 405
#     4   9  19  37  57  88 130 171 212 257 320 383
#     4  10  20  37  58  88 136 184 208 264 308 389
#     4  10  24  43  66  92 128 166 228 279 358 392
#     4  11  23  38  66 100 141 173 229 270 328 406
#     4   9  22  42  64  94 125 168 217 288 330 399
#
# _framework density 24.026494
#
# number of rings (size 3 to 8) (size 9 to 14) (size 15 to 20)
#    0.000    1.846    3.077    0.000    2.154    8.308 
#    2.769    1.538    0.000    0.000    4.000    0.000 
#    0.000    0.000    0.000    0.000    0.000    0.000 
#
# Total GULP energy -145070.243311 kJ/mol
# GULP energy per Si atom -5579.624743 kJ/mol
# Density = 2.397181 g / cm^3
# Si number density = 24.026494 Si / 1000 Ang^3
#
#
#
# Elastic Constant Matrix: (Units=GPa)
#
#
# Indices 1 2 3 4 5 6 
#
# 1 152.3916 14.2409 27.5123 0.0000 0.0000 0.0000
# 2 14.2409 45.6823 8.0874 0.0000 0.0000 0.0000
# 3 27.5123 8.0874 100.8547 0.0000 0.0000 0.0000
# 4 0.0000 0.0000 0.0000 23.8133 0.0000 0.0000
# 5 0.0000 0.0000 0.0000 0.0000 19.5460 0.0000
# 6 0.0000 0.0000 0.0000 0.0000 0.0000 36.2238
#
#
#
# Elastic Compliance Matrix: (Units=1/GPa)
#
#
# Indices 1 2 3 4 5 6 
#
# 1 0.007059 -0.001886 -0.001774 0.000000 0.000000 0.000000
# 2 -0.001886 0.022710 -0.001306 0.000000 0.000000 0.000000
# 3 -0.001774 -0.001306 0.010504 0.000000 0.000000 0.000000
# 4 0.000000 0.000000 0.000000 0.041993 0.000000 0.000000
# 5 0.000000 0.000000 0.000000 0.000000 0.051161 0.000000
# 6 0.000000 0.000000 0.000000 0.000000 0.000000 0.027606
#
#
# Mechanical properties :
#
#
# Convention : Reuss Voigt Hill
#
# Bulk Modulus (GPa) = 32.96181 44.28998 38.62590
# Shear Modulus (GPa) = 27.61208 32.52248 30.06728
#
# Velocity S-wave (km/s) = 3.39371 3.68313 3.54138
# Velocity P-wave (km/s) = 5.39492 6.04658 5.73002
#
# Compressibility (1/GPa) = 0.03033814
#
# Stress axis : x y z
#
# Youngs Moduli (GPa) = 141.67041 44.03415 95.20163
#
# Poissons Ratio (x) = 0.08306 0.16891
# Poissons Ratio (y) = 0.26724 0.12438
# Poissons Ratio (z) = 0.25136 0.05753
#
# Static dielectric constant tensor:
#      x y z
#    x 1.907370 0.000000 0.000000 
#    y 0.000000 1.957940 0.000000 
#    z 0.000000 0.000000 1.998990 
# 
# From -- ./inp_files/47519.got.cif
#   From: 2010.05.17/outbox.cif.g08.bks.cpg/sg22_24_cif.got.tgz:47519.got - 2010.06.03 23:40:54.
