data_PCOD9326718
_publ_section_title
;
Structure prediction by ZEFSAII (Michael W. Deem and Ramdas Pophale) SiO2 
 PCOD9326718
Probable space group: F 2 2 2
;
_chemical_formula_sum "Si O2"
_cell_formula_units_Z 96
_cell_length_a 21.065027
_cell_length_b 11.890034
_cell_length_c 20.525750
_cell_angle_alpha 90.000000
_cell_angle_beta 90.000000
_cell_angle_gamma 90.000000
_cell_volume 5140.959134
_symmetry_space_group_name_H-M "F 2 2 2"
_symmetry_group_IT_number 22
_symmetry_cell_setting 'orthorhombic'
loop_
_space_group_symop_operation_xyz
x,y,z
-x,-y,z
x,-y,-z
-x,y,-z
x,1/2+y,1/2+z
-x,1/2-y,1/2+z
x,1/2-y,1/2-z
-x,1/2+y,1/2-z
1/2+x,y,1/2+z
1/2-x,-y,1/2+z
1/2+x,-y,1/2-z
1/2-x,y,1/2-z
1/2+x,1/2+y,z
1/2-x,1/2-y,z
1/2+x,1/2-y,-z
1/2-x,1/2+y,-z
loop_
_atom_site_type_symbol
_atom_site_label
_atom_site_fract_x
_atom_site_fract_y
_atom_site_fract_z
Si Si1 0.500000 0.265306 0.500000
Si Si2 0.512607 0.132748 0.139720
Si Si3 0.147114 0.758788 0.154868
Si Si4 0.398512 0.602266 0.045528
Si Si5 0.913710 0.365627 0.753872
Si Si6 0.181313 0.433757 0.768373
Si Si7 0.500000 0.000000 0.648879
O O1 0.499712 0.336461 0.565280
O O2 0.438702 0.185571 0.500259
O O3 0.579367 0.192508 0.156413
O O4 0.462391 0.176746 0.191163
O O5 0.500000 0.000000 0.146723
O O6 0.151199 0.824147 0.086658
O O7 0.192286 0.654217 0.172349
O O8 0.154561 0.853098 0.210627
O O9 0.449786 0.560950 0.100494
O O10 0.376337 0.500000 0.000000
O O11 0.873361 0.250000 0.750000
O O12 0.868822 0.467231 0.777537
O O13 0.956779 0.420329 0.695601
O O14 0.250000 0.479906 0.750000
#
# Coordination Sequence:
#
# PCOD9326718 Si02
#       7
#     8  16  16  16  16  16   8
#     4  10  20  32  50  80 128 170 188 220 290 386
#     4  11  21  34  54  87 131 154 188 236 309 371
#     4  10  20  36  58  88 113 149 197 250 294 353
#     4  11  20  32  55  86 123 157 195 235 295 366
#     4  12  24  34  58  91 123 161 192 254 315 357
#     4  11  23  41  61  87 115 158 209 250 303 354
#     4  12  19  36  56  85 130 148 198 242 296 363
#
# _framework density 18.673559000000001
#
# number of rings (size 3 to 8) (size 9 to 14) (size 15 to 20)
#    0.000    1.000    5.833    3.250    4.667    0.333 
#    0.000    0.000    0.000    0.000   17.333    0.000 
#    0.000    0.000    0.000    0.000    0.000    0.000 
#
# Total GULP energy -133656.015193 kJ/mol
# GULP energy per Si atom -5569.000633 kJ/mol
# Density = 1.863106 g / cm^3
# Si number density = 18.673559 Si / 1000 Ang^3
#
#
#
# Elastic Constant Matrix: (Units=GPa)
#
#
# Indices 1 2 3 4 5 6 
#
# 1 42.6459 17.7610 26.0868 0.0000 0.0000 0.0000
# 2 17.7610 107.3814 3.9850 0.0000 0.0000 0.0000
# 3 26.0868 3.9850 45.1877 0.0000 0.0000 0.0000
# 4 0.0000 0.0000 0.0000 22.4170 0.0000 0.0000
# 5 0.0000 0.0000 0.0000 0.0000 10.7949 0.0000
# 6 0.0000 0.0000 0.0000 0.0000 0.0000 14.6706
#
#
#
# Elastic Compliance Matrix: (Units=1/GPa)
#
#
# Indices 1 2 3 4 5 6 
#
# 1 0.039443 -0.005698 -0.022268 0.000000 0.000000 0.000000
# 2 -0.005698 0.010166 0.002393 0.000000 0.000000 0.000000
# 3 -0.022268 0.002393 0.034774 0.000000 0.000000 0.000000
# 4 0.000000 0.000000 0.000000 0.044609 0.000000 0.000000
# 5 0.000000 0.000000 0.000000 0.000000 0.092636 0.000000
# 6 0.000000 0.000000 0.000000 0.000000 0.000000 0.068164
#
#
# Mechanical properties :
#
#
# Convention : Reuss Voigt Hill
#
# Bulk Modulus (GPa) = 30.08630 32.32008 31.20319
# Shear Modulus (GPa) = 14.20380 19.40197 16.80289
#
# Velocity S-wave (km/s) = 2.76096 3.22686 3.00296
# Velocity P-wave (km/s) = 5.12938 5.58829 5.36375
#
# Compressibility (1/GPa) = 0.03323771
#
# Stress axis : x y z
#
# Youngs Moduli (GPa) = 25.35273 98.36520 28.75685
#
# Poissons Ratio (x) = 0.56045 0.64036
# Poissons Ratio (y) = 0.14445 -0.06881
# Poissons Ratio (z) = 0.56456 -0.23536
#
# Static dielectric constant tensor:
#      x y z
#    x 1.653540 0.000000 0.000000 
#    y 0.000000 1.755790 0.000000 
#    z 0.000000 0.000000 1.667680 
# 
# From -- ./inp_files/22866.got.cif
#   From: 2010.05.17/outbox.cif.g08.bks.cpg/sg22_12_cif.got.tgz:22866.got - 2010.06.03 23:40:54.
