data_PCOD9326400
_publ_section_title
;
Structure prediction by ZEFSAII (Michael W. Deem and Ramdas Pophale) SiO2 
 PCOD9326400
Probable space group: F 2 2 2
;
_chemical_formula_sum "Si O2"
_cell_formula_units_Z 76
_cell_length_a 29.627872
_cell_length_b 5.207152
_cell_length_c 30.904556
_cell_angle_alpha 90.000000
_cell_angle_beta 90.000000
_cell_angle_gamma 90.000000
_cell_volume 4767.857023
_symmetry_space_group_name_H-M "F 2 2 2"
_symmetry_group_IT_number 22
_symmetry_cell_setting 'orthorhombic'
loop_
_space_group_symop_operation_xyz
x,y,z
-x,-y,z
x,-y,-z
-x,y,-z
x,1/2+y,1/2+z
-x,1/2-y,1/2+z
x,1/2-y,1/2-z
-x,1/2+y,1/2-z
1/2+x,y,1/2+z
1/2-x,-y,1/2+z
1/2+x,-y,1/2-z
1/2-x,y,1/2-z
1/2+x,1/2+y,z
1/2-x,1/2-y,z
1/2+x,1/2-y,-z
1/2-x,1/2+y,-z
loop_
_atom_site_type_symbol
_atom_site_label
_atom_site_fract_x
_atom_site_fract_y
_atom_site_fract_z
Si Si1 0.948796 0.254300 0.480384
Si Si2 0.250000 0.750000 0.250000
Si Si3 0.413947 0.876219 0.836177
Si Si4 0.450327 0.110903 0.620424
Si Si5 0.162727 0.991155 0.277464
Si Si6 0.530842 0.750000 0.250000
O O1 0.924915 0.500000 0.500000
O O2 0.950503 0.293256 0.429279
O O3 0.000000 0.252798 0.500000
O O4 0.927568 0.000000 0.500000
O O5 0.215518 0.915045 0.279078
O O6 0.418288 0.633036 0.868489
O O7 0.438577 0.787663 0.792219
O O8 0.438353 0.133708 0.853004
O O9 0.363852 0.960278 0.821575
O O10 0.500000 0.000000 0.630118
O O11 0.142093 0.750000 0.250000
O O12 0.159330 0.250000 0.250000
O O13 0.500000 0.500000 0.244649
#
# Coordination Sequence:
#
# PCOD9326400 Si02
#       6
#    16   4  16  16  16   8
#     4  10  19  34  54  69  93 130 185 237 266 311
#     4   8  22  34  66  76  94 136 198 214 262 356
#     4  12  24  35  51  72 108 140 180 239 264 308
#     4  12  23  36  50  78 102 143 195 229 272 308
#     4  10  20  38  56  76 100 135 186 220 273 315
#     4  12  24  37  46  63  98 153 194 213 250 296
#
# _framework density 15.940075999999999
#
# number of rings (size 3 to 8) (size 9 to 14) (size 15 to 20)
#    0.632    0.421    3.158    6.632    4.421    0.000 
#    0.000    0.000    0.000    0.000    0.000    0.000 
#    0.000    0.000    0.000    5.684    3.368    0.211 
#
# Total GULP energy -105881.474754 kJ/mol
# GULP energy per Si atom -5572.709198 kJ/mol
# Density = 1.590380 g / cm^3
# Si number density = 15.940076 Si / 1000 Ang^3
#
#
#
# Elastic Constant Matrix: (Units=GPa)
#
#
# Indices 1 2 3 4 5 6 
#
# 1 70.6829 30.1466 39.9801 -0.0151 -0.0463 -0.0152
# 2 30.1466 155.2945 45.6844 -0.0550 -0.1770 -0.0540
# 3 39.9801 45.6844 93.4440 0.0033 -0.0180 0.0083
# 4 -0.0151 -0.0550 0.0033 37.6768 -0.0425 -0.0140
# 5 -0.0463 -0.1770 -0.0180 -0.0425 4.4393 -0.1039
# 6 -0.0152 -0.0540 0.0083 -0.0140 -0.1039 4.4189
#
#
#
# Elastic Compliance Matrix: (Units=1/GPa)
#
#
# Indices 1 2 3 4 5 6 
#
# 1 0.018964 -0.001512 -0.007375 0.000006 0.000109 0.000063
# 2 -0.001512 0.007642 -0.003089 0.000011 0.000279 0.000101
# 3 -0.007375 -0.003089 0.015367 -0.000009 -0.000140 -0.000095
# 4 0.000006 0.000011 -0.000009 0.026542 0.000257 0.000090
# 5 0.000109 0.000279 -0.000140 0.000257 0.225397 0.005302
# 6 0.000063 0.000101 -0.000095 0.000090 0.005302 0.226429
#
#
# Mechanical properties :
#
#
# Convention : Reuss Voigt Hill
#
# Bulk Modulus (GPa) = 55.48867 61.22706 58.35786
# Shear Modulus (GPa) = 9.08597 22.88102 15.98350
#
# Velocity S-wave (km/s) = 2.39007 3.79283 3.17002
# Velocity P-wave (km/s) = 6.51943 7.59440 7.07735
#
# Compressibility (1/GPa) = 0.01802170
#
# Stress axis : x y z
#
# Youngs Moduli (GPa) = 52.73202 130.85560 65.07385
#
# Poissons Ratio (x) = 0.19782 0.47989
# Poissons Ratio (y) = 0.07972 0.20103
# Poissons Ratio (z) = 0.38888 0.40425
#
# Static dielectric constant tensor:
#      x y z
#    x 1.531880 0.000000 0.000000 
#    y 0.000000 1.572860 -0.000010 
#    z 0.000000 -0.000010 1.558630 
# 
# From -- ./inp_files/57291.got.cif
#   From: 2010.05.17/outbox.cif.g08.bks.cpg/sg22_29_cif.got.tgz:57291.got - 2010.06.03 23:40:54.
