data_PCOD9326026
_publ_section_title
;
Structure prediction by ZEFSAII (Michael W. Deem and Ramdas Pophale) SiO2 
 PCOD9326026
Probable space group: F 2 2 2
;
_chemical_formula_sum "Si O2"
_cell_formula_units_Z 112
_cell_length_a 31.044093
_cell_length_b 11.280149
_cell_length_c 14.892196
_cell_angle_alpha 90.000000
_cell_angle_beta 90.000000
_cell_angle_gamma 90.000000
_cell_volume 5214.978899
_symmetry_space_group_name_H-M "F 2 2 2"
_symmetry_group_IT_number 22
_symmetry_cell_setting 'orthorhombic'
loop_
_space_group_symop_operation_xyz
x,y,z
-x,-y,z
x,-y,-z
-x,y,-z
x,1/2+y,1/2+z
-x,1/2-y,1/2+z
x,1/2-y,1/2-z
-x,1/2+y,1/2-z
1/2+x,y,1/2+z
1/2-x,-y,1/2+z
1/2+x,-y,1/2-z
1/2-x,y,1/2-z
1/2+x,1/2+y,z
1/2-x,1/2-y,z
1/2+x,1/2-y,-z
1/2-x,1/2+y,-z
loop_
_atom_site_type_symbol
_atom_site_label
_atom_site_fract_x
_atom_site_fract_y
_atom_site_fract_z
Si Si1 0.771394 0.124263 0.499691
Si Si2 0.545080 0.361423 0.971077
Si Si3 0.115557 0.988023 0.263912
Si Si4 0.532170 0.385037 0.764760
Si Si5 0.294586 0.119877 0.207035
Si Si6 0.875774 0.605650 0.567615
Si Si7 0.828439 0.801464 0.654642
O O1 0.750000 0.250000 0.487375
O O2 0.792058 0.132897 0.599238
O O3 0.800939 0.114982 0.410207
O O4 0.745660 0.000000 0.500000
O O5 0.548153 0.364894 0.865806
O O6 0.543822 0.500000 0.000000
O O7 0.500000 0.305103 0.000000
O O8 0.587244 0.316073 0.020274
O O9 0.075135 0.071841 0.289291
O O10 0.161714 0.053566 0.265191
O O11 0.107340 0.943186 0.162650
O O12 0.127124 0.870825 0.321611
O O13 0.500000 0.500000 0.761086
O O14 0.514089 0.250000 0.750000
O O15 0.297303 0.250000 0.250000
O O16 0.250000 0.067227 0.250000
O O17 0.865006 0.500000 0.500000
O O18 0.836694 0.687770 0.593482
O O19 0.811245 0.750000 0.750000
#
# Coordination Sequence:
#
# PCOD9326026 Si02
#       7
#    16  16  16  16  16  16  16
#     4  12  26  49  73 102 140 192 240 299 374 432
#     4  10  17  38  66  95 130 180 244 295 343 426
#     4  11  22  43  67 101 148 186 235 308 376 433
#     4  12  25  42  71 112 144 194 247 313 374 453
#     4  11  24  44  70 101 136 185 238 303 365 438
#     4  10  20  36  66 102 127 186 250 284 353 437
#     4  10  25  43  65 103 144 189 234 304 373 437
#
# _framework density 21.476597000000002
#
# number of rings (size 3 to 8) (size 9 to 14) (size 15 to 20)
#    0.000    1.143    7.143    0.429    2.000    7.143 
#    0.000    0.000    0.000    2.143    0.000    0.000 
#    0.000    0.000    0.000    0.000    0.000    0.000 
#
# Total GULP energy -155873.998875 kJ/mol
# GULP energy per Si atom -5566.928531 kJ/mol
# Density = 2.142772 g / cm^3
# Si number density = 21.476597 Si / 1000 Ang^3
#
#
#
# Elastic Constant Matrix: (Units=GPa)
#
#
# Indices 1 2 3 4 5 6 
#
# 1 96.7439 28.1200 33.9848 0.0000 0.0000 0.0000
# 2 28.1200 118.9779 24.2226 0.0000 0.0000 0.0000
# 3 33.9848 24.2226 113.7216 0.0000 0.0000 0.0000
# 4 0.0000 0.0000 0.0000 20.7078 0.0000 0.0000
# 5 0.0000 0.0000 0.0000 0.0000 28.0068 0.0000
# 6 0.0000 0.0000 0.0000 0.0000 0.0000 -12.6069
#
#
#
# Elastic Compliance Matrix: (Units=1/GPa)
#
#
# Indices 1 2 3 4 5 6 
#
# 1 0.012084 -0.002217 -0.003139 0.000000 0.000000 0.000000
# 2 -0.002217 0.009193 -0.001296 0.000000 0.000000 0.000000
# 3 -0.003139 -0.001296 0.010007 0.000000 0.000000 0.000000
# 4 0.000000 0.000000 0.000000 0.048291 0.000000 0.000000
# 5 0.000000 0.000000 0.000000 0.000000 0.035706 0.000000
# 6 0.000000 0.000000 0.000000 0.000000 0.000000 -0.079322
#
#
# Mechanical properties :
#
#
# Convention : Reuss Voigt Hill
#
# Bulk Modulus (GPa) = 55.61418 55.78866 55.70142
# Shear Modulus (GPa) = 90.48965 23.42926 56.95945
#
# Velocity S-wave (km/s) = 6.49812 3.30649 5.15550
# Velocity P-wave (km/s) = 9.06930 6.37260 7.83780
#
# Compressibility (1/GPa) = 0.01798103
#
# Stress axis : x y z
#
# Youngs Moduli (GPa) = 82.75691 108.78288 99.92622
#
# Poissons Ratio (x) = 0.24116 0.31366
# Poissons Ratio (y) = 0.18346 0.12946
# Poissons Ratio (z) = 0.25976 0.14093
#
# Static dielectric constant tensor:
#      x y z
#    x 1.953330 0.000000 0.000000 
#    y 0.000000 1.681130 0.000000 
#    z 0.000000 0.000000 1.810150 
# 
# From -- ./inp_files/33525.got.cif
#   From: 2010.05.17/outbox.cif.g08.bks.cpg/sg22_17_cif.got.tgz:33525.got - 2010.06.03 23:40:54.
