data_PCOD9326874
_publ_section_title
;
Structure prediction by ZEFSAII (Michael W. Deem and Ramdas Pophale) SiO2 
 PCOD9326874
Probable space group: F 2 2 2
;
_chemical_formula_sum "Si O2"
_cell_formula_units_Z 80
_cell_length_a 19.027403
_cell_length_b 21.745789
_cell_length_c 9.308638
_cell_angle_alpha 90.000000
_cell_angle_beta 90.000000
_cell_angle_gamma 90.000000
_cell_volume 3851.596895
_symmetry_space_group_name_H-M "F 2 2 2"
_symmetry_group_IT_number 22
_symmetry_cell_setting 'orthorhombic'
loop_
_space_group_symop_operation_xyz
x,y,z
-x,-y,z
x,-y,-z
-x,y,-z
x,1/2+y,1/2+z
-x,1/2-y,1/2+z
x,1/2-y,1/2-z
-x,1/2+y,1/2-z
1/2+x,y,1/2+z
1/2-x,-y,1/2+z
1/2+x,-y,1/2-z
1/2-x,y,1/2-z
1/2+x,1/2+y,z
1/2-x,1/2-y,z
1/2+x,1/2-y,-z
1/2-x,1/2+y,-z
loop_
_atom_site_type_symbol
_atom_site_label
_atom_site_fract_x
_atom_site_fract_y
_atom_site_fract_z
Si Si1 0.939864 0.320341 0.779526
Si Si2 0.527229 0.063509 0.164630
Si Si3 0.821122 0.167725 0.959855
Si Si4 0.826280 0.404703 0.262422
Si Si5 0.331357 0.191854 0.980940
O O1 0.964660 0.250000 0.750000
O O2 0.875395 0.332696 0.670511
O O3 0.903128 0.323746 0.936005
O O4 0.997646 0.373409 0.766693
O O5 0.610418 0.060606 0.186917
O O6 0.500000 0.000000 0.231358
O O7 0.500000 0.064257 0.000000
O O8 0.737286 0.168960 0.929052
O O9 0.830547 0.235007 0.030916
O O10 0.838162 0.114564 0.073480
O O11 0.750000 0.435411 0.250000
O O12 0.822904 0.342015 0.169162
#
# Coordination Sequence:
#
# PCOD9326874 Si02
#       5
#    16  16  16  16  16
#     4  10  20  36  59  91 121 161 209 258 308 372
#     4  11  24  44  66  87 124 171 211 255 311 380
#     4   9  18  30  55  91 126 162 194 262 317 359
#     4  10  20  37  60  87 119 158 212 253 303 374
#     4   9  16  32  55  87 129 163 205 244 310 379
#
# _framework density 20.770605
#
# number of rings (size 3 to 8) (size 9 to 14) (size 15 to 20)
#    0.000    2.200    2.000    1.200    0.000    7.200 
#    0.000    4.000    0.000    0.000    0.000    0.000 
#    0.000    0.000    0.000    0.000    0.000    0.000 
#
# Total GULP energy -111529.706201 kJ/mol
# GULP energy per Si atom -5576.485310 kJ/mol
# Density = 2.072333 g / cm^3
# Si number density = 20.770605 Si / 1000 Ang^3
#
#
#
# Elastic Constant Matrix: (Units=GPa)
#
#
# Indices 1 2 3 4 5 6 
#
# 1 120.5330 46.7370 11.5688 0.0000 0.0000 0.0000
# 2 46.7370 67.0047 12.7569 0.0000 0.0000 0.0000
# 3 11.5688 12.7569 38.0153 0.0000 0.0000 0.0000
# 4 0.0000 0.0000 0.0000 8.1923 0.0000 0.0000
# 5 0.0000 0.0000 0.0000 0.0000 19.8092 0.0000
# 6 0.0000 0.0000 0.0000 0.0000 0.0000 6.6629
#
#
#
# Elastic Compliance Matrix: (Units=1/GPa)
#
#
# Indices 1 2 3 4 5 6 
#
# 1 0.011398 -0.007788 -0.000855 0.000000 0.000000 0.000000
# 2 -0.007788 0.021264 -0.004766 0.000000 0.000000 0.000000
# 3 -0.000855 -0.004766 0.028165 0.000000 0.000000 0.000000
# 4 0.000000 0.000000 0.000000 0.122066 0.000000 0.000000
# 5 0.000000 0.000000 0.000000 0.000000 0.050482 0.000000
# 6 0.000000 0.000000 0.000000 0.000000 0.000000 0.150086
#
#
# Mechanical properties :
#
#
# Convention : Reuss Voigt Hill
#
# Bulk Modulus (GPa) = 29.40363 40.85316 35.12840
# Shear Modulus (GPa) = 11.85922 17.23224 14.54573
#
# Velocity S-wave (km/s) = 2.39207 2.88348 2.64920
# Velocity P-wave (km/s) = 4.67081 5.54954 5.12903
#
# Compressibility (1/GPa) = 0.03400941
#
# Stress axis : x y z
#
# Youngs Moduli (GPa) = 87.73273 47.02863 35.50542
#
# Poissons Ratio (x) = 0.36624 0.03037
# Poissons Ratio (y) = 0.68323 0.16920
# Poissons Ratio (z) = 0.07505 0.22412
#
# Static dielectric constant tensor:
#      x y z
#    x 1.795300 0.000000 0.000000 
#    y 0.000000 1.732960 0.000000 
#    z 0.000000 0.000000 1.735730 
# 
# From -- ./inp_files/11588.got.cif
#   From: 2010.05.17/outbox.cif.g08.bks.cpg/sg22_6_cif.got.tgz:11588.got - 2010.06.03 23:40:54.
