data_PCOD9326726
_publ_section_title
;
Structure prediction by ZEFSAII (Michael W. Deem and Ramdas Pophale) SiO2 
 PCOD9326726
Probable space group: F 2 2 2
;
_chemical_formula_sum "Si O2"
_cell_formula_units_Z 112
_cell_length_a 29.766367
_cell_length_b 10.525634
_cell_length_c 16.662002
_cell_angle_alpha 90.000000
_cell_angle_beta 90.000000
_cell_angle_gamma 90.000000
_cell_volume 5220.369923
_symmetry_space_group_name_H-M "F 2 2 2"
_symmetry_group_IT_number 22
_symmetry_cell_setting 'orthorhombic'
loop_
_space_group_symop_operation_xyz
x,y,z
-x,-y,z
x,-y,-z
-x,y,-z
x,1/2+y,1/2+z
-x,1/2-y,1/2+z
x,1/2-y,1/2-z
-x,1/2+y,1/2-z
1/2+x,y,1/2+z
1/2-x,-y,1/2+z
1/2+x,-y,1/2-z
1/2-x,y,1/2-z
1/2+x,1/2+y,z
1/2-x,1/2-y,z
1/2+x,1/2-y,-z
1/2-x,1/2+y,-z
loop_
_atom_site_type_symbol
_atom_site_label
_atom_site_fract_x
_atom_site_fract_y
_atom_site_fract_z
Si Si1 0.276158 0.634157 0.049522
Si Si2 0.695208 0.628643 0.193585
Si Si3 0.110958 0.724875 0.604234
Si Si4 0.551886 0.498203 0.098126
Si Si5 0.122587 0.503190 0.908458
Si Si6 0.122484 0.283388 0.586567
Si Si7 0.784863 0.990905 0.345438
O O1 0.250000 0.750000 0.005772
O O2 0.326044 0.666321 0.081679
O O3 0.242347 0.610620 0.124016
O O4 0.277591 0.500000 0.000000
O O5 0.690527 0.750000 0.250000
O O6 0.657146 0.654234 0.129041
O O7 0.744759 0.610591 0.159383
O O8 0.692105 0.987550 0.242327
O O9 0.072761 0.628736 0.629755
O O10 0.104555 0.869530 0.634369
O O11 0.111362 0.732053 0.508046
O O12 0.500000 0.500000 0.122445
O O13 0.585907 0.383010 0.120326
O O14 0.552725 0.500000 0.000000
O O15 0.118984 0.359011 0.876731
O O16 0.175866 0.534485 0.908001
O O17 0.105663 0.500000 0.000000
#
# Coordination Sequence:
#
# PCOD9326726 Si02
#       7
#    16  16  16  16  16  16  16
#     4  12  24  35  55  84 121 164 201 249 303 357
#     4  11  22  34  54  77 111 162 212 252 269 332
#     4  10  20  35  57  86 112 147 200 242 294 361
#     4   9  18  36  63  90 115 143 184 241 307 375
#     4  10  20  32  54  80 115 149 184 243 300 346
#     4  10  20  37  54  86 121 151 182 247 315 358
#     4  11  21  34  47  75 113 155 207 240 279 327
#
# _framework density 21.454416999999999
#
# number of rings (size 3 to 8) (size 9 to 14) (size 15 to 20)
#    0.000    1.571    2.857    4.286    2.000    1.143 
#    0.000    2.143    0.000    4.286    3.714    0.000 
#    0.000    0.000    0.000    0.000    0.000    0.000 
#
# Total GULP energy -155935.426641 kJ/mol
# GULP energy per Si atom -5569.122380 kJ/mol
# Density = 2.140559 g / cm^3
# Si number density = 21.454417 Si / 1000 Ang^3
#
#
#
# Elastic Constant Matrix: (Units=GPa)
#
#
# Indices 1 2 3 4 5 6 
#
# 1 123.1309 86.8826 -5.3979 0.0000 0.0000 0.0000
# 2 86.8826 189.6799 23.2085 0.0000 0.0000 0.0000
# 3 -5.3979 23.2085 28.3624 0.0000 0.0000 0.0000
# 4 0.0000 0.0000 0.0000 22.1855 0.0000 0.0000
# 5 0.0000 0.0000 0.0000 0.0000 4.5980 0.0000
# 6 0.0000 0.0000 0.0000 0.0000 0.0000 14.6041
#
#
#
# Elastic Compliance Matrix: (Units=1/GPa)
#
#
# Indices 1 2 3 4 5 6 
#
# 1 0.013648 -0.007300 0.008571 0.000000 0.000000 0.000000
# 2 -0.007300 0.009764 -0.009379 0.000000 0.000000 0.000000
# 3 0.008571 -0.009379 0.044564 0.000000 0.000000 0.000000
# 4 0.000000 0.000000 0.000000 0.045074 0.000000 0.000000
# 5 0.000000 0.000000 0.000000 0.000000 0.217488 0.000000
# 6 0.000000 0.000000 0.000000 0.000000 0.000000 0.068474
#
#
# Mechanical properties :
#
#
# Convention : Reuss Voigt Hill
#
# Bulk Modulus (GPa) = 19.31986 61.17329 40.24658
# Shear Modulus (GPa) = 11.56120 24.04285 17.80203
#
# Velocity S-wave (km/s) = 2.32388 3.35124 2.88368
# Velocity P-wave (km/s) = 4.02805 6.59920 5.46693
#
# Compressibility (1/GPa) = 0.05176020
#
# Stress axis : x y z
#
# Youngs Moduli (GPa) = 73.26838 102.42194 22.43974
#
# Poissons Ratio (x) = 0.74772 -0.19234
# Poissons Ratio (y) = 0.53489 0.21046
# Poissons Ratio (z) = -0.62801 0.96059
#
# Static dielectric constant tensor:
#      x y z
#    x 1.762960 0.000000 0.000000 
#    y 0.000000 1.950640 0.000000 
#    z 0.000000 0.000000 1.900000 
# 
# From -- ./inp_files/45855.got.cif
#   From: 2010.05.17/outbox.cif.g08.bks.cpg/sg22_23_cif.got.tgz:45855.got - 2010.06.03 23:40:54.
