data_PCOD9326592
_publ_section_title
;
Structure prediction by ZEFSAII (Michael W. Deem and Ramdas Pophale) SiO2 
 PCOD9326592
Probable space group: F 2 2 2
;
_chemical_formula_sum "Si O2"
_cell_formula_units_Z 88
_cell_length_a 11.680311
_cell_length_b 26.135393
_cell_length_c 15.697176
_cell_angle_alpha 90.000000
_cell_angle_beta 90.000000
_cell_angle_gamma 90.000000
_cell_volume 4791.869357
_symmetry_space_group_name_H-M "F 2 2 2"
_symmetry_group_IT_number 22
_symmetry_cell_setting 'orthorhombic'
loop_
_space_group_symop_operation_xyz
x,y,z
-x,-y,z
x,-y,-z
-x,y,-z
x,1/2+y,1/2+z
-x,1/2-y,1/2+z
x,1/2-y,1/2-z
-x,1/2+y,1/2-z
1/2+x,y,1/2+z
1/2-x,-y,1/2+z
1/2+x,-y,1/2-z
1/2-x,y,1/2-z
1/2+x,1/2+y,z
1/2-x,1/2-y,z
1/2+x,1/2-y,-z
1/2-x,1/2+y,-z
loop_
_atom_site_type_symbol
_atom_site_label
_atom_site_fract_x
_atom_site_fract_y
_atom_site_fract_z
Si Si1 0.384399 0.193916 0.758719
Si Si2 0.000000 0.000000 0.725721
Si Si3 0.322897 0.922319 0.835834
Si Si4 0.139078 0.088729 0.814393
Si Si5 0.271807 0.440046 0.518767
Si Si6 0.534412 0.865983 0.912430
O O1 0.440170 0.250000 0.750000
O O2 0.250000 0.200415 0.750000
O O3 0.412274 0.145929 0.696395
O O4 0.398935 0.171952 0.852895
O O5 0.050628 0.046281 0.781286
O O6 0.892797 0.023953 0.674339
O O7 0.250000 0.914587 0.750000
O O8 0.426152 0.883677 0.856983
O O9 0.249616 0.919805 0.922725
O O10 0.250000 0.086358 0.750000
O O11 0.180226 0.074365 0.908994
O O12 0.282925 0.500000 0.500000
O O13 0.388241 0.414080 0.556139
O O14 0.500000 0.839899 0.000000
#
# Coordination Sequence:
#
# PCOD9326592 Si02
#       6
#    16   8  16  16  16  16
#     4  10  19  37  67  91 115 150 200 259 305 334
#     4  12  20  34  58  80 120 162 186 240 296 364
#     4  11  22  34  53  82 114 159 193 230 298 353
#     4  11  20  36  56  89 121 150 195 247 296 356
#     4  11  20  34  55  83 118 154 191 246 288 350
#     4  10  20  36  61  86 115 149 205 247 290 350
#
# _framework density 18.364439999999998
#
# number of rings (size 3 to 8) (size 9 to 14) (size 15 to 20)
#    0.000    1.273    5.455    3.818    0.000    2.545 
#    0.000    5.000    4.000    0.545    0.000    0.000 
#    0.000    0.000    0.000    0.000    0.000    0.000 
#
# Total GULP energy -122512.039278 kJ/mol
# GULP energy per Si atom -5568.729058 kJ/mol
# Density = 1.832264 g / cm^3
# Si number density = 18.364440 Si / 1000 Ang^3
#
#
#
# Elastic Constant Matrix: (Units=GPa)
#
#
# Indices 1 2 3 4 5 6 
#
# 1 35.3280 27.9570 51.9817 0.0000 0.0000 0.0000
# 2 27.9570 128.4823 57.8569 0.0000 0.0000 0.0000
# 3 51.9817 57.8569 181.5044 0.0000 0.0000 0.0000
# 4 0.0000 0.0000 0.0000 18.2569 0.0000 0.0000
# 5 0.0000 0.0000 0.0000 0.0000 36.6420 0.0000
# 6 0.0000 0.0000 0.0000 0.0000 0.0000 5.7979
#
#
#
# Elastic Compliance Matrix: (Units=1/GPa)
#
#
# Indices 1 2 3 4 5 6 
#
# 1 0.051915 -0.005372 -0.013156 0.000000 0.000000 0.000000
# 2 -0.005372 0.009644 -0.001535 0.000000 0.000000 0.000000
# 3 -0.013156 -0.001535 0.009767 0.000000 0.000000 0.000000
# 4 0.000000 0.000000 0.000000 0.054774 0.000000 0.000000
# 5 0.000000 0.000000 0.000000 0.000000 0.027291 0.000000
# 6 0.000000 0.000000 0.000000 0.000000 0.000000 0.172475
#
#
# Mechanical properties :
#
#
# Convention : Reuss Voigt Hill
#
# Bulk Modulus (GPa) = 32.05297 68.98954 50.52126
# Shear Modulus (GPa) = 13.28407 25.97398 19.62903
#
# Velocity S-wave (km/s) = 2.69245 3.76488 3.27289
# Velocity P-wave (km/s) = 5.21128 7.51981 6.46935
#
# Compressibility (1/GPa) = 0.03119835
#
# Stress axis : x y z
#
# Youngs Moduli (GPa) = 19.26242 103.69618 102.38969
#
# Poissons Ratio (x) = 0.55708 1.34699
# Poissons Ratio (y) = 0.10348 0.15721
# Poissons Ratio (z) = 0.25341 0.15922
#
# Static dielectric constant tensor:
#      x y z
#    x 1.663530 0.000000 0.000000 
#    y 0.000000 1.694010 0.000000 
#    z 0.000000 0.000000 1.673050 
# 
# From -- ./inp_files/28344.got.cif
#   From: 2010.05.17/outbox.cif.g08.bks.cpg/sg22_15_cif.got.tgz:28344.got - 2010.06.03 23:40:54.
