data_PCOD9326425
_publ_section_title
;
Structure prediction by ZEFSAII (Michael W. Deem and Ramdas Pophale) SiO2 
 PCOD9326425
Probable space group: F 2 2 2
;
_chemical_formula_sum "Si O2"
_cell_formula_units_Z 88
_cell_length_a 14.893778
_cell_length_b 12.657745
_cell_length_c 17.455485
_cell_angle_alpha 90.000000
_cell_angle_beta 90.000000
_cell_angle_gamma 90.000000
_cell_volume 3290.736729
_symmetry_space_group_name_H-M "F 2 2 2"
_symmetry_group_IT_number 22
_symmetry_cell_setting 'orthorhombic'
loop_
_space_group_symop_operation_xyz
x,y,z
-x,-y,z
x,-y,-z
-x,y,-z
x,1/2+y,1/2+z
-x,1/2-y,1/2+z
x,1/2-y,1/2-z
-x,1/2+y,1/2-z
1/2+x,y,1/2+z
1/2-x,-y,1/2+z
1/2+x,-y,1/2-z
1/2-x,y,1/2-z
1/2+x,1/2+y,z
1/2-x,1/2-y,z
1/2+x,1/2-y,-z
1/2-x,1/2+y,-z
loop_
_atom_site_type_symbol
_atom_site_label
_atom_site_fract_x
_atom_site_fract_y
_atom_site_fract_z
Si Si1 0.765018 0.922645 0.654616
Si Si2 0.277721 0.000000 0.000000
Si Si3 0.450821 0.889730 0.606406
Si Si4 0.109441 0.730376 0.331257
Si Si5 0.413005 0.815919 0.946700
Si Si6 0.912673 0.425171 0.783588
O O1 0.839282 0.831942 0.638322
O O2 0.683793 0.857241 0.690491
O O3 0.725259 0.969184 0.576107
O O4 0.821434 0.012899 0.695736
O O5 0.339045 0.899493 0.976528
O O6 0.539458 0.816677 0.611939
O O7 0.390402 0.810566 0.554774
O O8 0.410382 0.897125 0.693009
O O9 0.500000 0.000000 0.585923
O O10 0.062727 0.750000 0.250000
O O11 0.423216 0.846181 0.855782
O O12 0.500000 0.838439 0.000000
O O13 0.000000 0.500000 0.789448
#
# Coordination Sequence:
#
# PCOD9326425 Si02
#       6
#    16   8  16  16  16  16
#     4  10  21  37  60  88 116 152 201 256 305 363
#     4  10  21  38  60  88 119 160 208 252 302 366
#     4  11  23  38  58  90 127 158 197 257 319 376
#     4  11  21  37  63  90 115 152 205 257 307 365
#     4  11  20  34  59  88 118 155 203 253 303 358
#     4  10  19  34  58  87 117 151 196 253 306 354
#
# _framework density 26.741733
#
# number of rings (size 3 to 8) (size 9 to 14) (size 15 to 20)
#    0.000    1.455    0.000    9.545    0.000    0.364 
#    0.000    5.455    0.000    3.273    0.000   25.455 
#    0.000    0.000    0.000    0.000    0.000    0.000 
#
# Total GULP energy -123036.771040 kJ/mol
# GULP energy per Si atom -5592.580502 kJ/mol
# Density = 2.668087 g / cm^3
# Si number density = 26.741733 Si / 1000 Ang^3
#
#
#
# Elastic Constant Matrix: (Units=GPa)
#
#
# Indices 1 2 3 4 5 6 
#
# 1 53.4569 15.3764 7.7715 0.0000 0.0000 0.0000
# 2 15.3764 152.2409 44.8771 0.0000 0.0000 0.0000
# 3 7.7715 44.8771 160.2008 0.0000 0.0000 0.0000
# 4 0.0000 0.0000 0.0000 46.4663 0.0000 0.0000
# 5 0.0000 0.0000 0.0000 0.0000 10.9421 0.0000
# 6 0.0000 0.0000 0.0000 0.0000 0.0000 25.4740
#
#
#
# Elastic Compliance Matrix: (Units=1/GPa)
#
#
# Indices 1 2 3 4 5 6 
#
# 1 0.019293 -0.001823 -0.000425 0.000000 0.000000 0.000000
# 2 -0.001823 0.007332 -0.001965 0.000000 0.000000 0.000000
# 3 -0.000425 -0.001965 0.006813 0.000000 0.000000 0.000000
# 4 0.000000 0.000000 0.000000 0.021521 0.000000 0.000000
# 5 0.000000 0.000000 0.000000 0.000000 0.091390 0.000000
# 6 0.000000 0.000000 0.000000 0.000000 0.000000 0.039256
#
#
# Mechanical properties :
#
#
# Convention : Reuss Voigt Hill
#
# Bulk Modulus (GPa) = 39.98314 55.77205 47.87759
# Shear Modulus (GPa) = 24.70726 36.43473 30.57100
#
# Velocity S-wave (km/s) = 3.04291 3.69517 3.38478
# Velocity P-wave (km/s) = 5.22779 6.25354 5.76353
#
# Compressibility (1/GPa) = 0.02501054
#
# Stress axis : x y z
#
# Youngs Moduli (GPa) = 51.83250 136.38718 146.76998
#
# Poissons Ratio (x) = 0.24867 0.06240
# Poissons Ratio (y) = 0.09450 0.28847
# Poissons Ratio (z) = 0.02204 0.26807
#
# Static dielectric constant tensor:
#      x y z
#    x 2.106730 0.000000 0.000000 
#    y 0.000000 2.197260 0.000000 
#    z 0.000000 0.000000 2.212250 
# 
# From -- ./inp_files/44135.got.cif
#   From: 2010.05.17/outbox.cif.g08.bks.cpg/sg22_23_cif.got.tgz:44135.got - 2010.06.03 23:40:54.
