data_PCOD9326410
_publ_section_title
;
Structure prediction by ZEFSAII (Michael W. Deem and Ramdas Pophale) SiO2 
 PCOD9326410
Probable space group: F 2 2 2
;
_chemical_formula_sum "Si O2"
_cell_formula_units_Z 128
_cell_length_a 17.234279
_cell_length_b 19.387620
_cell_length_c 23.762302
_cell_angle_alpha 90.000000
_cell_angle_beta 90.000000
_cell_angle_gamma 90.000000
_cell_volume 7939.737228
_symmetry_space_group_name_H-M "F 2 2 2"
_symmetry_group_IT_number 22
_symmetry_cell_setting 'orthorhombic'
loop_
_space_group_symop_operation_xyz
x,y,z
-x,-y,z
x,-y,-z
-x,y,-z
x,1/2+y,1/2+z
-x,1/2-y,1/2+z
x,1/2-y,1/2-z
-x,1/2+y,1/2-z
1/2+x,y,1/2+z
1/2-x,-y,1/2+z
1/2+x,-y,1/2-z
1/2-x,y,1/2-z
1/2+x,1/2+y,z
1/2-x,1/2-y,z
1/2+x,1/2-y,-z
1/2-x,1/2+y,-z
loop_
_atom_site_type_symbol
_atom_site_label
_atom_site_fract_x
_atom_site_fract_y
_atom_site_fract_z
Si Si1 0.657986 0.895931 0.017429
Si Si2 0.156873 0.250000 0.629078
Si Si3 0.343267 0.103422 0.684433
Si Si4 0.090999 0.983992 0.414794
Si Si5 0.843267 0.396578 0.184433
Si Si6 0.907585 0.250000 0.497238
Si Si7 0.090999 0.516008 0.414794
Si Si8 0.657987 0.895931 0.482571
O O1 0.750000 0.896118 0.007279
O O2 0.636683 0.946481 0.068625
O O3 0.615704 0.929162 0.963008
O O4 0.626954 0.819000 0.024623
O O5 0.250000 0.250000 0.620782
O O6 0.137032 0.319514 0.662791
O O7 0.137032 0.180486 0.662791
O O8 0.118426 0.250000 0.567991
O O9 0.250000 0.095796 0.678302
O O10 0.362711 0.095972 0.750000
O O11 0.384620 0.048541 0.644293
O O12 0.115380 0.951459 0.355707
O O13 0.000000 0.000000 0.418009
O O14 0.873046 0.319000 0.524623
O O15 0.000000 0.250001 0.500000
O O16 0.136683 0.446481 0.431375
O O17 0.115704 0.570838 0.463008
O O18 0.000000 0.500000 0.418009
#
# Coordination Sequence:
#
# PCOD9326410 Si02
#       8
#    16  16  16  16  16  16  16  16
#     4  11  21  35  54  77 106 144 181 216 264 325
#     4  10  19  34  56  81 110 139 173 219 267 328
#     4  10  20  35  56  80 106 141 182 223 270 322
#     4  11  21  34  52  77 110 141 177 222 269 316
#     4  10  20  35  56  80 106 141 182 223 270 322
#     4  12  22  33  53  82 111 139 171 215 272 320
#     4  11  21  34  52  77 110 141 177 222 269 316
#     4  11  21  35  54  77 106 144 181 216 264 325
#
# _framework density 16.12144
#
# number of rings (size 3 to 8) (size 9 to 14) (size 15 to 20)
#    0.000    1.250    2.500    7.500    0.000    2.000 
#    0.000    0.000    0.000    0.000    0.000    0.875 
#    0.000    4.000    0.000    0.000    0.000    0.000 
#
# Total GULP energy -178754.004693 kJ/mol
# GULP energy per Si atom -5586.062647 kJ/mol
# Density = 1.608475 g / cm^3
# Si number density = 16.121440 Si / 1000 Ang^3
#
#
#
# Elastic Constant Matrix: (Units=GPa)
#
#
# Indices 1 2 3 4 5 6 
#
# 1 91.6036 55.3013 36.1856 0.0000 0.0000 0.0000
# 2 55.3013 148.5959 59.2384 0.0000 0.0000 0.0000
# 3 36.1856 59.2384 93.2136 0.0000 0.0000 0.0000
# 4 0.0000 0.0000 0.0000 20.8812 0.0000 0.0000
# 5 0.0000 0.0000 0.0000 0.0000 -25.4420 0.0000
# 6 0.0000 0.0000 0.0000 0.0000 0.0000 172.5658
#
#
#
# Elastic Compliance Matrix: (Units=1/GPa)
#
#
# Indices 1 2 3 4 5 6 
#
# 1 0.014673 -0.004272 -0.002981 0.000000 0.000000 0.000000
# 2 -0.004272 0.010257 -0.004860 0.000000 0.000000 0.000000
# 3 -0.002981 -0.004860 0.014974 0.000000 0.000000 0.000000
# 4 0.000000 0.000000 0.000000 0.047890 0.000000 0.000000
# 5 0.000000 0.000000 0.000000 0.000000 -0.039305 0.000000
# 6 0.000000 0.000000 0.000000 0.000000 0.000000 0.005795
#
#
# Mechanical properties :
#
#
# Convention : Reuss Voigt Hill
#
# Bulk Modulus (GPa) = 63.78560 70.54041 67.16300
# Shear Modulus (GPa) = 59.71077 45.78020 52.74549
#
# Velocity S-wave (km/s) = 6.09250 5.33467 5.72614
# Velocity P-wave (km/s) = 9.44155 9.04409 9.24496
#
# Compressibility (1/GPa) = 0.01567752
#
# Stress axis : x y z
#
# Youngs Moduli (GPa) = 68.15020 97.49304 66.78296
#
# Poissons Ratio (x) = 0.41653 0.19908
# Poissons Ratio (y) = 0.29117 0.32456
# Poissons Ratio (z) = 0.20316 0.47381
#
# Static dielectric constant tensor:
#      x y z
#    x 1.525110 0.000000 0.000000 
#    y 0.000000 1.552050 0.000000 
#    z 0.000000 0.000000 1.523230 
# 
# From -- ./inp_files/49556.got.cif
#   From: 2010.05.17/outbox.cif.g08.bks.cpg/sg22_25_cif.got.tgz:49556.got - 2010.06.03 23:40:54.
