data_PCOD9326898
_publ_section_title
;
Structure prediction by ZEFSAII (Michael W. Deem and Ramdas Pophale) SiO2 
 PCOD9326898
Probable space group: F 2 2 2
;
_chemical_formula_sum "Si O2"
_cell_formula_units_Z 92
_cell_length_a 9.090059
_cell_length_b 19.440356
_cell_length_c 26.392264
_cell_angle_alpha 90.000000
_cell_angle_beta 90.000000
_cell_angle_gamma 90.000000
_cell_volume 4663.882092
_symmetry_space_group_name_H-M "F 2 2 2"
_symmetry_group_IT_number 22
_symmetry_cell_setting 'orthorhombic'
loop_
_space_group_symop_operation_xyz
x,y,z
-x,-y,z
x,-y,-z
-x,y,-z
x,1/2+y,1/2+z
-x,1/2-y,1/2+z
x,1/2-y,1/2-z
-x,1/2+y,1/2-z
1/2+x,y,1/2+z
1/2-x,-y,1/2+z
1/2+x,-y,1/2-z
1/2-x,y,1/2-z
1/2+x,1/2+y,z
1/2-x,1/2-y,z
1/2+x,1/2-y,-z
1/2-x,1/2+y,-z
loop_
_atom_site_type_symbol
_atom_site_label
_atom_site_fract_x
_atom_site_fract_y
_atom_site_fract_z
Si Si1 0.485167 0.423378 0.439976
Si Si2 0.167530 0.685928 0.112840
Si Si3 0.500000 0.000000 0.500000
Si Si4 0.653798 0.090768 0.587520
Si Si5 0.412517 0.778961 0.653632
Si Si6 0.500000 0.000000 0.671040
Si Si7 0.634833 0.363388 0.205768
O O1 0.500000 0.500000 0.418640
O O2 0.500000 0.426664 0.500000
O O3 0.615484 0.374896 0.422109
O O4 0.325498 0.398150 0.422842
O O5 0.250000 0.750000 0.086802
O O6 0.277023 0.656200 0.154817
O O7 0.022808 0.717973 0.138642
O O8 0.589342 0.051499 0.537773
O O9 0.591750 0.164027 0.607851
O O10 0.613992 0.039356 0.633843
O O11 0.250000 0.750000 0.662293
O O12 0.488048 0.817144 0.701550
O O13 0.416811 0.057782 0.703355
O O14 0.750000 0.348997 0.250000
#
# Coordination Sequence:
#
# PCOD9326898 Si02
#       7
#    16  16   4  16  16   8  16
#     4  11  22  37  60  92 128 166 223 267 318 384
#     4  10  22  41  63  89 130 172 211 264 331 378
#     4  10  20  36  62 100 128 172 218 266 322 376
#     4  10  20  37  62  88 128 172 213 260 317 386
#     4  10  20  40  65  87 125 171 214 258 318 386
#     4   9  20  41  64  88 128 166 205 264 329 386
#     4  10  22  42  66  95 124 161 214 266 329 394
#
# _framework density 19.726056
#
# number of rings (size 3 to 8) (size 9 to 14) (size 15 to 20)
#    0.000    1.913    1.739    2.087    0.000    8.696 
#    9.391    1.739    0.000    0.000    0.000    0.000 
#    0.000    0.000    0.000    0.000    0.000    0.000 
#
# Total GULP energy -128293.497504 kJ/mol
# GULP energy per Si atom -5577.978152 kJ/mol
# Density = 1.968116 g / cm^3
# Si number density = 19.726056 Si / 1000 Ang^3
#
#
#
# Elastic Constant Matrix: (Units=GPa)
#
#
# Indices 1 2 3 4 5 6 
#
# 1 122.9929 43.1604 29.6444 0.0000 0.0000 0.0000
# 2 43.1604 117.1694 28.6281 0.0000 0.0000 0.0000
# 3 29.6444 28.6281 53.7897 0.0000 0.0000 0.0000
# 4 0.0000 0.0000 0.0000 15.2103 0.0000 0.0000
# 5 0.0000 0.0000 0.0000 0.0000 24.7492 0.0000
# 6 0.0000 0.0000 0.0000 0.0000 0.0000 38.9434
#
#
#
# Elastic Compliance Matrix: (Units=1/GPa)
#
#
# Indices 1 2 3 4 5 6 
#
# 1 0.010071 -0.002705 -0.004110 0.000000 0.000000 0.000000
# 2 -0.002705 0.010537 -0.004117 0.000000 0.000000 0.000000
# 3 -0.004110 -0.004117 0.023047 0.000000 0.000000 0.000000
# 4 0.000000 0.000000 0.000000 0.065745 0.000000 0.000000
# 5 0.000000 0.000000 0.000000 0.000000 0.040405 0.000000
# 6 0.000000 0.000000 0.000000 0.000000 0.000000 0.025678
#
#
# Mechanical properties :
#
#
# Convention : Reuss Voigt Hill
#
# Bulk Modulus (GPa) = 45.89328 55.20197 50.54763
# Shear Modulus (GPa) = 24.43645 28.61519 26.52582
#
# Velocity S-wave (km/s) = 3.52346 3.81284 3.67101
# Velocity P-wave (km/s) = 6.31418 6.88685 6.60673
#
# Compressibility (1/GPa) = 0.02178968
#
# Stress axis : x y z
#
# Youngs Moduli (GPa) = 99.29930 94.90254 43.38889
#
# Poissons Ratio (x) = 0.25674 0.17834
# Poissons Ratio (y) = 0.26864 0.17864
# Poissons Ratio (z) = 0.40814 0.39073
#
# Static dielectric constant tensor:
#      x y z
#    x 1.701010 0.000000 0.000000 
#    y 0.000000 1.749550 0.000000 
#    z 0.000000 0.000000 1.677620 
# 
# From -- ./inp_files/51933.got.cif
#   From: 2010.05.17/outbox.cif.g08.bks.cpg/sg22_26_cif.got.tgz:51933.got - 2010.06.03 23:40:54.
