data_PCOD9326673
_publ_section_title
;
Structure prediction by ZEFSAII (Michael W. Deem and Ramdas Pophale) SiO2 
 PCOD9326673
Probable space group: F 2 2 2
;
_chemical_formula_sum "Si O2"
_cell_formula_units_Z 68
_cell_length_a 13.629894
_cell_length_b 9.611932
_cell_length_c 22.410181
_cell_angle_alpha 90.000000
_cell_angle_beta 90.000000
_cell_angle_gamma 90.000000
_cell_volume 2935.949169
_symmetry_space_group_name_H-M "F 2 2 2"
_symmetry_group_IT_number 22
_symmetry_cell_setting 'orthorhombic'
loop_
_space_group_symop_operation_xyz
x,y,z
-x,-y,z
x,-y,-z
-x,y,-z
x,1/2+y,1/2+z
-x,1/2-y,1/2+z
x,1/2-y,1/2-z
-x,1/2+y,1/2-z
1/2+x,y,1/2+z
1/2-x,-y,1/2+z
1/2+x,-y,1/2-z
1/2-x,y,1/2-z
1/2+x,1/2+y,z
1/2-x,1/2-y,z
1/2+x,1/2-y,-z
1/2-x,1/2+y,-z
loop_
_atom_site_type_symbol
_atom_site_label
_atom_site_fract_x
_atom_site_fract_y
_atom_site_fract_z
Si Si1 0.500000 0.500000 0.000000
Si Si2 0.634624 0.255234 0.008093
Si Si3 0.072730 0.371766 0.878325
Si Si4 0.237404 0.028645 0.319697
Si Si5 0.105931 0.781643 0.866040
O O1 0.577146 0.606036 0.970289
O O2 0.750000 0.250000 0.018095
O O3 0.589916 0.139143 0.050793
O O4 0.619577 0.251443 0.936883
O O5 0.177399 0.402691 0.849131
O O6 0.000000 0.500000 0.866846
O O7 0.009238 0.241267 0.854370
O O8 0.250000 0.006587 0.250000
O O9 0.166644 0.162606 0.331222
O O10 0.340271 0.075121 0.349469
#
# Coordination Sequence:
#
# PCOD9326673 Si02
#       5
#     4  16  16  16  16
#     4  12  28  44  62 110 152 176 232 286 348 448
#     4  12  25  42  70 106 147 184 221 294 370 428
#     4  10  23  40  71 104 138 181 232 289 354 426
#     4  10  21  39  71  98 133 190 238 285 347 413
#     4  10  19  40  66 103 137 185 231 287 355 419
#
# _framework density 23.161163999999999
#
# number of rings (size 3 to 8) (size 9 to 14) (size 15 to 20)
#    0.000    1.412    4.706    1.412    3.294    6.588 
#    0.000    0.000   38.824    0.000    0.000    0.000 
#    0.000    0.000    0.000    0.000    0.000    0.000 
#
# Total GULP energy -94816.672783 kJ/mol
# GULP energy per Si atom -5577.451340 kJ/mol
# Density = 2.310845 g / cm^3
# Si number density = 23.161164 Si / 1000 Ang^3
#
#
#
# Elastic Constant Matrix: (Units=GPa)
#
#
# Indices 1 2 3 4 5 6 
#
# 1 172.1464 74.2141 42.3566 0.0000 0.0000 0.0000
# 2 74.2141 48.7115 34.7298 0.0000 0.0000 0.0000
# 3 42.3566 34.7298 149.3243 0.0000 0.0000 0.0000
# 4 0.0000 0.0000 0.0000 13.0957 0.0000 0.0000
# 5 0.0000 0.0000 0.0000 0.0000 9.7630 0.0000
# 6 0.0000 0.0000 0.0000 0.0000 0.0000 53.9667
#
#
#
# Elastic Compliance Matrix: (Units=1/GPa)
#
#
# Indices 1 2 3 4 5 6 
#
# 1 0.017187 -0.027224 0.001456 0.000000 0.000000 0.000000
# 2 -0.027224 0.067731 -0.008031 0.000000 0.000000 0.000000
# 3 0.001456 -0.008031 0.008151 0.000000 0.000000 0.000000
# 4 0.000000 0.000000 0.000000 0.076361 0.000000 0.000000
# 5 0.000000 0.000000 0.000000 0.000000 0.102428 0.000000
# 6 0.000000 0.000000 0.000000 0.000000 0.000000 0.018530
#
#
# Mechanical properties :
#
#
# Convention : Reuss Voigt Hill
#
# Bulk Modulus (GPa) = 39.25598 74.75369 57.00483
# Shear Modulus (GPa) = 13.64347 29.95719 21.80033
#
# Velocity S-wave (km/s) = 2.42970 3.60032 3.07130
# Velocity P-wave (km/s) = 4.98569 7.04476 6.10269
#
# Compressibility (1/GPa) = 0.02547383
#
# Stress axis : x y z
#
# Youngs Moduli (GPa) = 58.18324 14.76422 122.67686
#
# Poissons Ratio (x) = 0.40194 -0.17868
# Poissons Ratio (y) = 1.58396 0.98519
# Poissons Ratio (z) = -0.08474 0.11857
#
# Static dielectric constant tensor:
#      x y z
#    x 1.894670 0.000000 0.000000 
#    y 0.000000 1.935680 0.000000 
#    z 0.000000 0.000000 1.828410 
# 
# From -- ./inp_files/43300.got.cif
#   From: 2010.05.17/outbox.cif.g08.bks.cpg/sg22_22_cif.got.tgz:43300.got - 2010.06.03 23:40:54.
