data_PCOD9326474
_publ_section_title
;
Structure prediction by ZEFSAII (Michael W. Deem and Ramdas Pophale) SiO2 
 PCOD9326474
Probable space group: F 2 2 2
;
_chemical_formula_sum "Si O2"
_cell_formula_units_Z 112
_cell_length_a 11.993133
_cell_length_b 15.336369
_cell_length_c 27.332172
_cell_angle_alpha 90.000000
_cell_angle_beta 90.000000
_cell_angle_gamma 90.000000
_cell_volume 5027.236821
_symmetry_space_group_name_H-M "F 2 2 2"
_symmetry_group_IT_number 22
_symmetry_cell_setting 'orthorhombic'
loop_
_space_group_symop_operation_xyz
x,y,z
-x,-y,z
x,-y,-z
-x,y,-z
x,1/2+y,1/2+z
-x,1/2-y,1/2+z
x,1/2-y,1/2-z
-x,1/2+y,1/2-z
1/2+x,y,1/2+z
1/2-x,-y,1/2+z
1/2+x,-y,1/2-z
1/2-x,y,1/2-z
1/2+x,1/2+y,z
1/2-x,1/2-y,z
1/2+x,1/2-y,-z
1/2-x,1/2+y,-z
loop_
_atom_site_type_symbol
_atom_site_label
_atom_site_fract_x
_atom_site_fract_y
_atom_site_fract_z
Si Si1 0.006828 0.895255 0.787823
Si Si2 0.000492 0.297775 0.082963
Si Si3 0.784997 0.149664 0.155328
Si Si4 0.661358 0.671553 0.130799
Si Si5 0.214117 0.619133 0.049837
Si Si6 0.449679 0.904430 0.180317
Si Si7 0.696947 0.079742 0.945746
O O1 0.112030 0.861498 0.818276
O O2 0.898679 0.863725 0.816832
O O3 0.996936 0.868303 0.731303
O O4 0.000000 0.000000 0.787690
O O5 0.882158 0.307802 0.055881
O O6 0.981085 0.342360 0.135711
O O7 0.061523 0.207900 0.096066
O O8 0.089245 0.359205 0.056182
O O9 0.750000 0.250000 0.160207
O O10 0.791027 0.129057 0.097404
O O11 0.684760 0.093867 0.179296
O O12 0.750000 0.750000 0.137113
O O13 0.727065 0.597782 0.101140
O O14 0.162718 0.521331 0.054338
O O15 0.260542 0.612028 0.995016
O O16 0.500000 0.000000 0.172133
#
# Coordination Sequence:
#
# PCOD9326474 Si02
#       7
#    16  16  16  16  16  16  16
#     4  11  23  41  63  86 118 162 203 241 294 358
#     4  10  19  35  59  87 118 149 191 247 300 348
#     4  11  23  39  62  91 121 153 196 251 300 352
#     4  10  23  41  58  85 126 161 193 246 303 355
#     4  10  20  36  62  87 112 154 201 242 292 353
#     4  10  22  39  63  91 119 152 198 250 299 353
#     4  10  20  37  59  86 119 154 195 244 293 350
#
# _framework density 22.278639999999999
#
# number of rings (size 3 to 8) (size 9 to 14) (size 15 to 20)
#    0.000    1.714    0.000    5.571    0.000    6.857 
#    0.000   11.429    0.000    2.571    0.000    0.000 
#    0.000    0.000    0.000    0.000    0.000    0.000 
#
# Total GULP energy -156528.576704 kJ/mol
# GULP energy per Si atom -5590.306311 kJ/mol
# Density = 2.222793 g / cm^3
# Si number density = 22.278640 Si / 1000 Ang^3
#
#
#
# Elastic Constant Matrix: (Units=GPa)
#
#
# Indices 1 2 3 4 5 6 
#
# 1 49.0496 4.4917 26.5348 0.0000 0.0000 0.0000
# 2 4.4917 46.0771 -2.1811 0.0000 0.0000 0.0000
# 3 26.5348 -2.1811 114.0099 0.0000 0.0000 0.0000
# 4 0.0000 0.0000 0.0000 20.2518 0.0000 0.0000
# 5 0.0000 0.0000 0.0000 0.0000 18.8405 0.0000
# 6 0.0000 0.0000 0.0000 0.0000 0.0000 27.7697
#
#
#
# Elastic Compliance Matrix: (Units=1/GPa)
#
#
# Indices 1 2 3 4 5 6 
#
# 1 0.023623 -0.002565 -0.005547 0.000000 0.000000 0.000000
# 2 -0.002565 0.022001 0.001018 0.000000 0.000000 0.000000
# 3 -0.005547 0.001018 0.010082 0.000000 0.000000 0.000000
# 4 0.000000 0.000000 0.000000 0.049378 0.000000 0.000000
# 5 0.000000 0.000000 0.000000 0.000000 0.053077 0.000000
# 6 0.000000 0.000000 0.000000 0.000000 0.000000 0.036010
#
#
# Mechanical properties :
#
#
# Convention : Reuss Voigt Hill
#
# Bulk Modulus (GPa) = 24.08665 29.64749 26.86707
# Shear Modulus (GPa) = 22.50221 25.39180 23.94700
#
# Velocity S-wave (km/s) = 3.18155 3.37966 3.28210
# Velocity P-wave (km/s) = 4.93269 5.34471 5.14283
#
# Compressibility (1/GPa) = 0.04151677
#
# Stress axis : x y z
#
# Youngs Moduli (GPa) = 42.33098 45.45244 99.18952
#
# Poissons Ratio (x) = 0.11660 0.55023
# Poissons Ratio (y) = 0.10860 -0.10097
# Poissons Ratio (z) = 0.23482 -0.04627
#
# Static dielectric constant tensor:
#      x y z
#    x 1.852510 0.000000 0.000000 
#    y 0.000000 1.805670 0.000000 
#    z 0.000000 0.000000 1.836220 
# 
# From -- ./inp_files/56112.got.cif
#   From: 2010.05.17/outbox.cif.g08.bks.cpg/sg22_29_cif.got.tgz:56112.got - 2010.06.03 23:40:54.
