data_PCOD9326102
_publ_section_title
;
Structure prediction by ZEFSAII (Michael W. Deem and Ramdas Pophale) SiO2 
 PCOD9326102
Probable space group: F 2 2 2
;
_chemical_formula_sum "Si O2"
_cell_formula_units_Z 48
_cell_length_a 20.473766
_cell_length_b 6.793689
_cell_length_c 18.917291
_cell_angle_alpha 90.000000
_cell_angle_beta 90.000000
_cell_angle_gamma 90.000000
_cell_volume 2631.251385
_symmetry_space_group_name_H-M "F 2 2 2"
_symmetry_group_IT_number 22
_symmetry_cell_setting 'orthorhombic'
loop_
_space_group_symop_operation_xyz
x,y,z
-x,-y,z
x,-y,-z
-x,y,-z
x,1/2+y,1/2+z
-x,1/2-y,1/2+z
x,1/2-y,1/2-z
-x,1/2+y,1/2-z
1/2+x,y,1/2+z
1/2-x,-y,1/2+z
1/2+x,-y,1/2-z
1/2-x,y,1/2-z
1/2+x,1/2+y,z
1/2-x,1/2-y,z
1/2+x,1/2-y,-z
1/2-x,1/2+y,-z
loop_
_atom_site_type_symbol
_atom_site_label
_atom_site_fract_x
_atom_site_fract_y
_atom_site_fract_z
Si Si1 0.039031 0.750000 0.750000
Si Si2 0.250000 0.250000 0.250000
Si Si3 0.146111 0.946006 0.293341
Si Si4 0.500000 0.500000 0.000000
Si Si5 0.542352 0.813473 0.892445
O O1 0.087019 0.562660 0.754190
O O2 0.996245 0.748625 0.679095
O O3 0.204288 0.396541 0.204801
O O4 0.163824 0.750000 0.250000
O O5 0.113679 0.881923 0.367127
O O6 0.541652 0.358881 0.050879
O O7 0.500000 0.000000 0.918151
#
# Coordination Sequence:
#
# PCOD9326102 Si02
#       5
#     8   4  16   4  16
#     4   9  18  33  56  87 116 151 188 234 292 357
#     4  10  22  32  48  86 124 146 210 250 290 316
#     4  10  18  32  54  79 122 151 190 247 289 335
#     4  12  22  32  52  90 136 154 178 232 300 380
#     4  10  20  33  54  84 128 153 186 228 298 360
#
# _framework density 18.242270999999999
#
# number of rings (size 3 to 8) (size 9 to 14) (size 15 to 20)
#    0.000    2.000    1.667    3.000    2.333    0.000 
#    0.000    0.000    0.000    0.000    0.000    0.000 
#  880.000    0.000    0.000    0.000    0.000    0.000 
#
# Total GULP energy -66941.443581 kJ/mol
# GULP energy per Si atom -5578.453632 kJ/mol
# Density = 1.820075 g / cm^3
# Si number density = 18.242271 Si / 1000 Ang^3
#
#
#
# Elastic Constant Matrix: (Units=GPa)
#
#
# Indices 1 2 3 4 5 6 
#
# 1 97.5833 56.0946 42.4511 0.0000 0.0000 0.0000
# 2 56.0946 155.3897 58.7919 0.0000 0.0000 0.0000
# 3 42.4511 58.7919 91.7698 0.0000 0.0000 0.0000
# 4 0.0000 0.0000 0.0000 44.9425 0.0000 0.0000
# 5 0.0000 0.0000 0.0000 0.0000 2.0981 0.0000
# 6 0.0000 0.0000 0.0000 0.0000 0.0000 40.1385
#
#
#
# Elastic Compliance Matrix: (Units=1/GPa)
#
#
# Indices 1 2 3 4 5 6 
#
# 1 0.014114 -0.003465 -0.004309 0.000000 0.000000 0.000000
# 2 -0.003465 0.009345 -0.004384 0.000000 0.000000 0.000000
# 3 -0.004309 -0.004384 0.015699 0.000000 0.000000 0.000000
# 4 0.000000 0.000000 0.000000 0.022251 0.000000 0.000000
# 5 0.000000 0.000000 0.000000 0.000000 0.476633 0.000000
# 6 0.000000 0.000000 0.000000 0.000000 0.000000 0.024914
#
#
# Mechanical properties :
#
#
# Convention : Reuss Voigt Hill
#
# Bulk Modulus (GPa) = 67.37761 73.26867 70.32314
# Shear Modulus (GPa) = 8.44284 29.92951 19.18617
#
# Velocity S-wave (km/s) = 2.15365 4.05491 3.24658
# Velocity P-wave (km/s) = 6.57262 7.88508 7.25858
#
# Compressibility (1/GPa) = 0.01484172
#
# Stress axis : x y z
#
# Youngs Moduli (GPa) = 70.85237 107.01087 63.69894
#
# Poissons Ratio (x) = 0.37075 0.27449
# Poissons Ratio (y) = 0.24547 0.27926
# Poissons Ratio (z) = 0.30532 0.46914
#
# Static dielectric constant tensor:
#      x y z
#    x 1.655030 0.000000 0.000000 
#    y 0.000000 1.703240 0.000000 
#    z 0.000000 0.000000 1.616810 
# 
# From -- ./inp_files/44568.got.cif
#   From: 2010.05.17/outbox.cif.g08.bks.cpg/sg22_23_cif.got.tgz:44568.got - 2010.06.03 23:40:54.
