data_PCOD9326430
_publ_section_title
;
Structure prediction by ZEFSAII (Michael W. Deem and Ramdas Pophale) SiO2 
 PCOD9326430
Probable space group: F 2 2 2
;
_chemical_formula_sum "Si O2"
_cell_formula_units_Z 112
_cell_length_a 14.889515
_cell_length_b 33.385040
_cell_length_c 13.692164
_cell_angle_alpha 90.000000
_cell_angle_beta 90.000000
_cell_angle_gamma 90.000000
_cell_volume 6806.197464
_symmetry_space_group_name_H-M "F 2 2 2"
_symmetry_group_IT_number 22
_symmetry_cell_setting 'orthorhombic'
loop_
_space_group_symop_operation_xyz
x,y,z
-x,-y,z
x,-y,-z
-x,y,-z
x,1/2+y,1/2+z
-x,1/2-y,1/2+z
x,1/2-y,1/2-z
-x,1/2+y,1/2-z
1/2+x,y,1/2+z
1/2-x,-y,1/2+z
1/2+x,-y,1/2-z
1/2-x,y,1/2-z
1/2+x,1/2+y,z
1/2-x,1/2-y,z
1/2+x,1/2-y,-z
1/2-x,1/2+y,-z
loop_
_atom_site_type_symbol
_atom_site_label
_atom_site_fract_x
_atom_site_fract_y
_atom_site_fract_z
Si Si1 0.572720 0.304886 0.083570
Si Si2 0.986089 0.145734 0.267787
Si Si3 0.574193 0.784625 0.915930
Si Si4 0.679582 0.904427 0.831678
Si Si5 0.736830 0.663734 0.519806
Si Si6 0.676482 0.889903 0.164377
Si Si7 0.604980 0.547846 0.491284
O O1 0.534339 0.335760 0.162466
O O2 0.586551 0.260029 0.125803
O O3 0.663855 0.319923 0.033772
O O4 0.500000 0.301431 0.000000
O O5 0.960564 0.181992 0.340784
O O6 0.914218 0.110522 0.286426
O O7 0.086161 0.129927 0.289959
O O8 0.665612 0.800825 0.963994
O O9 0.500000 0.783247 0.000000
O O10 0.750000 0.917478 0.750000
O O11 0.720464 0.866785 0.890436
O O12 0.657664 0.936206 0.914655
O O13 0.715893 0.640181 0.419158
O O14 0.750000 0.896538 0.250000
O O15 0.646453 0.929935 0.104022
O O16 0.608233 0.500000 0.500000
O O17 0.500000 0.560515 0.500000
#
# Coordination Sequence:
#
# PCOD9326430 Si02
#       7
#    16  16  16  16  16  16  16
#     4  11  22  34  50  76 112 149 187 239 288 329
#     4  11  20  36  54  82 108 145 194 237 274 343
#     4  10  20  34  55  72 106 150 191 242 290 317
#     4  10  19  34  59  83 108 146 180 230 283 327
#     4  10  20  35  53  80 107 144 198 231 275 343
#     4  11  22  37  62  86 114 155 187 232 288 342
#     4  10  21  38  62  91 117 146 188 229 278 347
#
# _framework density 16.455590999999998
#
# number of rings (size 3 to 8) (size 9 to 14) (size 15 to 20)
#    0.000    1.571    4.286    1.714    0.000    0.571 
#    0.000    1.429    0.000    0.000    0.000    1.000 
#    0.000    0.000    0.000    0.000    0.000    0.000 
#
# Total GULP energy -156106.914455 kJ/mol
# GULP energy per Si atom -5575.246945 kJ/mol
# Density = 1.641814 g / cm^3
# Si number density = 16.455591 Si / 1000 Ang^3
#
#
#
# Elastic Constant Matrix: (Units=GPa)
#
#
# Indices 1 2 3 4 5 6 
#
# 1 145.2174 49.7850 62.9488 0.0000 0.0000 0.0000
# 2 49.7850 71.4492 31.4931 0.0000 0.0000 0.0000
# 3 62.9488 31.4931 91.8993 0.0000 0.0000 0.0000
# 4 0.0000 0.0000 0.0000 13.5678 0.0000 0.0000
# 5 0.0000 0.0000 0.0000 0.0000 32.8262 0.0000
# 6 0.0000 0.0000 0.0000 0.0000 0.0000 27.1409
#
#
#
# Elastic Compliance Matrix: (Units=1/GPa)
#
#
# Indices 1 2 3 4 5 6 
#
# 1 0.011239 -0.005228 -0.005907 0.000000 0.000000 0.000000
# 2 -0.005228 0.018918 -0.002902 0.000000 0.000000 0.000000
# 3 -0.005907 -0.002902 0.015922 0.000000 0.000000 0.000000
# 4 0.000000 0.000000 0.000000 0.073704 0.000000 0.000000
# 5 0.000000 0.000000 0.000000 0.000000 0.030463 0.000000
# 6 0.000000 0.000000 0.000000 0.000000 0.000000 0.036845
#
#
# Mechanical properties :
#
#
# Convention : Reuss Voigt Hill
#
# Bulk Modulus (GPa) = 55.53894 66.33550 60.93722
# Shear Modulus (GPa) = 22.60747 25.66291 24.13519
#
# Velocity S-wave (km/s) = 3.71057 3.95337 3.83389
# Velocity P-wave (km/s) = 7.22370 7.82548 7.53060
#
# Compressibility (1/GPa) = 0.01800538
#
# Stress axis : x y z
#
# Youngs Moduli (GPa) = 88.97648 52.86069 62.80550
#
# Poissons Ratio (x) = 0.27633 0.37099
# Poissons Ratio (y) = 0.46512 0.18228
# Poissons Ratio (z) = 0.52558 0.15341
#
# Static dielectric constant tensor:
#      x y z
#    x 1.547090 0.000000 0.000000 
#    y 0.000000 1.551790 0.000000 
#    z 0.000000 0.000000 1.551720 
# 
# From -- ./inp_files/20303.got.cif
#   From: 2010.05.17/outbox.cif.g08.bks.cpg/sg22_11_cif.got.tgz:20303.got - 2010.06.03 23:40:54.
