data_PCOD9326719
_publ_section_title
;
Structure prediction by ZEFSAII (Michael W. Deem and Ramdas Pophale) SiO2 
 PCOD9326719
Probable space group: F 2 2 2
;
_chemical_formula_sum "Si O2"
_cell_formula_units_Z 128
_cell_length_a 21.396372
_cell_length_b 19.074699
_cell_length_c 17.356724
_cell_angle_alpha 90.000000
_cell_angle_beta 90.000000
_cell_angle_gamma 90.000000
_cell_volume 7083.788581
_symmetry_space_group_name_H-M "F 2 2 2"
_symmetry_group_IT_number 22
_symmetry_cell_setting 'orthorhombic'
loop_
_space_group_symop_operation_xyz
x,y,z
-x,-y,z
x,-y,-z
-x,y,-z
x,1/2+y,1/2+z
-x,1/2-y,1/2+z
x,1/2-y,1/2-z
-x,1/2+y,1/2-z
1/2+x,y,1/2+z
1/2-x,-y,1/2+z
1/2+x,-y,1/2-z
1/2-x,y,1/2-z
1/2+x,1/2+y,z
1/2-x,1/2-y,z
1/2+x,1/2-y,-z
1/2-x,1/2+y,-z
loop_
_atom_site_type_symbol
_atom_site_label
_atom_site_fract_x
_atom_site_fract_y
_atom_site_fract_z
Si Si1 0.990487 0.226798 0.407909
Si Si2 0.478334 0.427240 0.412428
Si Si3 0.655376 0.109986 0.875827
Si Si4 0.120786 0.737022 0.658601
Si Si5 0.253255 0.637770 0.342466
Si Si6 0.731917 0.990810 0.413188
Si Si7 0.144339 0.245352 0.842543
Si Si8 0.817351 0.398720 0.708079
O O1 0.922445 0.254285 0.383978
O O2 0.000000 0.226666 0.500000
O O3 0.996641 0.146043 0.378178
O O4 0.050556 0.267087 0.373552
O O5 0.500000 0.500000 0.374716
O O6 0.500000 0.428376 0.500000
O O7 0.404301 0.420291 0.417773
O O8 0.653964 0.194740 0.879008
O O9 0.716015 0.070722 0.907572
O O10 0.642828 0.092262 0.785403
O O11 0.116725 0.750000 0.750000
O O12 0.160877 0.666243 0.656035
O O13 0.250000 0.627256 0.250000
O O14 0.259187 0.564531 0.385292
O O15 0.188920 0.679103 0.361546
O O16 0.311859 0.687724 0.361619
O O17 0.684645 0.965846 0.346575
O O18 0.708554 0.000000 0.500000
O O19 0.134739 0.250000 0.750000
O O20 0.750000 0.384690 0.750000
#
# Coordination Sequence:
#
# PCOD9326719 Si02
#       8
#    16  16  16  16  16  16  16  16
#     4  10  20  32  51  81 112 146 174 216 266 321
#     4   9  19  31  47  75 114 144 171 209 265 327
#     4   9  19  33  53  80 105 144 176 212 271 326
#     4   9  18  34  56  78 110 135 180 226 261 319
#     4   9  19  37  57  79 106 135 180 236 261 319
#     4  11  23  33  52  79 111 143 179 218 277 320
#     4   9  19  36  59  80 100 141 187 219 273 309
#     4   9  19  37  57  79 107 142 184 226 270 318
#
# _framework density 18.069427000000001
#
# number of rings (size 3 to 8) (size 9 to 14) (size 15 to 20)
#    0.000    2.625    0.000    2.250    3.500    8.750 
#    0.000    1.250    0.000    0.000    0.000    1.750 
#    0.000    0.000    0.000    0.000    0.000    0.000 
#
# Total GULP energy -178178.788238 kJ/mol
# GULP energy per Si atom -5568.087132 kJ/mol
# Density = 1.802830 g / cm^3
# Si number density = 18.069427 Si / 1000 Ang^3
#
#
#
# Elastic Constant Matrix: (Units=GPa)
#
#
# Indices 1 2 3 4 5 6 
#
# 1 62.9210 24.1911 21.5131 0.0000 0.0000 0.0000
# 2 24.1911 68.3468 25.1303 0.0000 0.0000 0.0000
# 3 21.5131 25.1303 35.8802 0.0000 0.0000 0.0000
# 4 0.0000 0.0000 0.0000 10.2294 0.0000 0.0000
# 5 0.0000 0.0000 0.0000 0.0000 27.9873 0.0000
# 6 0.0000 0.0000 0.0000 0.0000 0.0000 14.1355
#
#
#
# Elastic Compliance Matrix: (Units=1/GPa)
#
#
# Indices 1 2 3 4 5 6 
#
# 1 0.020669 -0.003716 -0.009790 0.000000 0.000000 0.000000
# 2 -0.003716 0.020374 -0.012042 0.000000 0.000000 0.000000
# 3 -0.009790 -0.012042 0.042175 0.000000 0.000000 0.000000
# 4 0.000000 0.000000 0.000000 0.097757 0.000000 0.000000
# 5 0.000000 0.000000 0.000000 0.000000 0.035730 0.000000
# 6 0.000000 0.000000 0.000000 0.000000 0.000000 0.070744
#
#
# Mechanical properties :
#
#
# Convention : Reuss Voigt Hill
#
# Bulk Modulus (GPa) = 31.13158 34.31301 32.72229
# Shear Modulus (GPa) = 14.31629 16.89134 15.60382
#
# Velocity S-wave (km/s) = 2.81782 3.06077 2.94181
# Velocity P-wave (km/s) = 5.27761 5.61443 5.44862
#
# Compressibility (1/GPa) = 0.03212173
#
# Stress axis : x y z
#
# Youngs Moduli (GPa) = 48.38178 49.08158 23.71091
#
# Poissons Ratio (x) = 0.18239 0.23213
# Poissons Ratio (y) = 0.17979 0.28553
# Poissons Ratio (z) = 0.47366 0.59104
#
# Static dielectric constant tensor:
#      x y z
#    x 1.643950 0.000000 0.000000 
#    y 0.000000 1.659820 0.000000 
#    z 0.000000 0.000000 1.631470 
# 
# From -- ./inp_files/39656.got.cif
#   From: 2010.05.17/outbox.cif.g08.bks.cpg/sg22_20_cif.got.tgz:39656.got - 2010.06.03 23:40:54.
