data_PCOD9326144
_publ_section_title
;
Structure prediction by ZEFSAII (Michael W. Deem and Ramdas Pophale) SiO2 
 PCOD9326144
Probable space group: F 2 2 2
;
_chemical_formula_sum "Si O2"
_cell_formula_units_Z 96
_cell_length_a 14.996154
_cell_length_b 26.304056
_cell_length_c 11.392090
_cell_angle_alpha 90.000000
_cell_angle_beta 90.000000
_cell_angle_gamma 90.000000
_cell_volume 4493.720114
_symmetry_space_group_name_H-M "F 2 2 2"
_symmetry_group_IT_number 22
_symmetry_cell_setting 'orthorhombic'
loop_
_space_group_symop_operation_xyz
x,y,z
-x,-y,z
x,-y,-z
-x,y,-z
x,1/2+y,1/2+z
-x,1/2-y,1/2+z
x,1/2-y,1/2-z
-x,1/2+y,1/2-z
1/2+x,y,1/2+z
1/2-x,-y,1/2+z
1/2+x,-y,1/2-z
1/2-x,y,1/2-z
1/2+x,1/2+y,z
1/2-x,1/2-y,z
1/2+x,1/2-y,-z
1/2-x,1/2+y,-z
loop_
_atom_site_type_symbol
_atom_site_label
_atom_site_fract_x
_atom_site_fract_y
_atom_site_fract_z
Si Si1 0.147467 0.228671 0.627357
Si Si2 0.553963 0.448029 0.751352
Si Si3 0.354340 0.767580 0.622799
Si Si4 0.188088 0.382310 0.366389
Si Si5 0.438350 0.621986 0.385055
Si Si6 0.322654 0.053512 0.020088
O O1 0.109046 0.250000 0.750000
O O2 0.250000 0.250000 0.625193
O O3 0.109485 0.245303 0.499797
O O4 0.127714 0.168639 0.635003
O O5 0.500000 0.500000 0.772454
O O6 0.621139 0.429181 0.850966
O O7 0.497108 0.396801 0.723512
O O8 0.615292 0.453414 0.634649
O O9 0.391626 0.750000 0.750000
O O10 0.250000 0.750000 0.625752
O O11 0.356122 0.828285 0.614467
O O12 0.250000 0.377202 0.250000
O O13 0.257163 0.399440 0.464347
O O14 0.500000 0.633307 0.500000
O O15 0.387120 0.570120 0.416774
O O16 0.276426 0.000000 0.000000
#
# Coordination Sequence:
#
# PCOD9326144 Si02
#       6
#    16  16  16  16  16  16
#     4  10  22  41  61  88 127 168 210 264 320 388
#     4  10  20  36  56  89 126 162 206 268 331 375
#     4  10  18  33  61  91 123 159 206 262 316 363
#     4  10  20  34  57  93 124 159 212 271 314 386
#     4  10  21  36  62  90 121 170 212 267 330 380
#     4  10  18  33  61  90 120 157 217 270 321 380
#
# _framework density 21.363147000000001
#
# number of rings (size 3 to 8) (size 9 to 14) (size 15 to 20)
#    0.000    2.000    3.333    2.000    4.667    0.000 
#    3.000    5.000    0.000    2.500    0.000    0.000 
#    0.000    0.000    0.000    0.000    0.000    0.000 
#
# Total GULP energy -133690.371328 kJ/mol
# GULP energy per Si atom -5570.432139 kJ/mol
# Density = 2.131452 g / cm^3
# Si number density = 21.363147 Si / 1000 Ang^3
#
#
#
# Elastic Constant Matrix: (Units=GPa)
#
#
# Indices 1 2 3 4 5 6 
#
# 1 48.1765 26.5730 6.6185 0.0000 0.0000 0.0000
# 2 26.5730 146.2413 18.1526 0.0000 0.0000 0.0000
# 3 6.6185 18.1526 87.4601 0.0000 0.0000 0.0000
# 4 0.0000 0.0000 0.0000 -0.7083 0.0000 0.0000
# 5 0.0000 0.0000 0.0000 0.0000 -0.1890 0.0000
# 6 0.0000 0.0000 0.0000 0.0000 0.0000 30.4201
#
#
#
# Elastic Compliance Matrix: (Units=1/GPa)
#
#
# Indices 1 2 3 4 5 6 
#
# 1 0.023138 -0.004092 -0.000902 0.000000 0.000000 0.000000
# 2 -0.004092 0.007743 -0.001297 0.000000 0.000000 0.000000
# 3 -0.000902 -0.001297 0.011771 0.000000 0.000000 0.000000
# 4 0.000000 0.000000 0.000000 -1.411740 0.000000 0.000000
# 5 0.000000 0.000000 0.000000 0.000000 -5.289607 0.000000
# 6 0.000000 0.000000 0.000000 0.000000 0.000000 0.032873
#
#
# Mechanical properties :
#
#
# Convention : Reuss Voigt Hill
#
# Bulk Modulus (GPa) = 33.25637 42.72958 37.99298
# Shear Modulus (GPa) = -0.75721 21.27345 10.25812
#
# Velocity S-wave (km/s) = -0.59600 3.15906 2.19367
# Velocity P-wave (km/s) = 3.88939 5.77504 4.92334
#
# Compressibility (1/GPa) = 0.03006942
#
# Stress axis : x y z
#
# Youngs Moduli (GPa) = 43.21865 129.15447 84.95257
#
# Poissons Ratio (x) = 0.52856 0.07659
# Poissons Ratio (y) = 0.17687 0.11021
# Poissons Ratio (z) = 0.03897 0.16755
#
# Static dielectric constant tensor:
#      x y z
#    x 1.789610 0.000000 0.000000 
#    y 0.000000 1.738850 0.000000 
#    z 0.000000 0.000000 1.767880 
# 
# From -- ./inp_files/21588.got.cif
#   From: 2010.05.17/outbox.cif.g08.bks.cpg/sg22_11_cif.got.tgz:21588.got - 2010.06.03 23:40:54.
