data_PCOD9326665
_publ_section_title
;
Structure prediction by ZEFSAII (Michael W. Deem and Ramdas Pophale) SiO2 
 PCOD9326665
Probable space group: F 2 2 2
;
_chemical_formula_sum "Si O2"
_cell_formula_units_Z 60
_cell_length_a 24.674174
_cell_length_b 9.053881
_cell_length_c 12.563638
_cell_angle_alpha 90.000000
_cell_angle_beta 90.000000
_cell_angle_gamma 90.000000
_cell_volume 2806.679480
_symmetry_space_group_name_H-M "F 2 2 2"
_symmetry_group_IT_number 22
_symmetry_cell_setting 'orthorhombic'
loop_
_space_group_symop_operation_xyz
x,y,z
-x,-y,z
x,-y,-z
-x,y,-z
x,1/2+y,1/2+z
-x,1/2-y,1/2+z
x,1/2-y,1/2-z
-x,1/2+y,1/2-z
1/2+x,y,1/2+z
1/2-x,-y,1/2+z
1/2+x,-y,1/2-z
1/2-x,y,1/2-z
1/2+x,1/2+y,z
1/2-x,1/2-y,z
1/2+x,1/2-y,-z
1/2-x,1/2+y,-z
loop_
_atom_site_type_symbol
_atom_site_label
_atom_site_fract_x
_atom_site_fract_y
_atom_site_fract_z
Si Si1 0.173791 0.510480 0.214251
Si Si2 0.945671 0.421302 0.724839
Si Si3 0.250000 0.750000 0.750000
Si Si4 0.191386 0.290921 0.576597
Si Si5 0.898622 0.500000 0.500000
O O1 0.111324 0.469231 0.225445
O O2 0.209196 0.365019 0.193096
O O3 0.195235 0.591320 0.323810
O O4 0.175435 0.635681 0.126382
O O5 0.952323 0.250000 0.750000
O O6 0.935304 0.468784 0.602201
O O7 0.000000 0.500000 0.764089
O O8 0.250000 0.250000 0.528576
O O9 0.143448 0.362075 0.508535
#
# Coordination Sequence:
#
# PCOD9326665 Si02
#       5
#    16  16   4  16   8
#     4  10  20  36  69  97 134 176 228 277 346 419
#     4  11  25  45  71  97 129 185 233 281 349 406
#     4  12  16  34  64 104 140 166 226 282 324 422
#     4  10  19  40  62  96 136 179 212 279 348 415
#     4  10  25  44  68  98 140 172 235 290 342 408
#
# _framework density 21.377573000000002
#
# number of rings (size 3 to 8) (size 9 to 14) (size 15 to 20)
#    0.000    1.600    4.000    1.200    7.467    0.000 
#   14.400    0.000    0.000    0.000    0.000    0.000 
#    0.000    0.000    0.000    0.000    0.000    0.000 
#
# Total GULP energy -83725.204436 kJ/mol
# GULP energy per Si atom -5581.680296 kJ/mol
# Density = 2.132892 g / cm^3
# Si number density = 21.377573 Si / 1000 Ang^3
#
#
#
# Elastic Constant Matrix: (Units=GPa)
#
#
# Indices 1 2 3 4 5 6 
#
# 1 180.3456 84.3196 26.7157 0.0000 0.0000 0.0000
# 2 84.3196 168.8149 23.1784 0.0000 0.0000 0.0000
# 3 26.7157 23.1784 17.8061 0.0000 0.0000 0.0000
# 4 0.0000 0.0000 0.0000 11.5026 0.0000 0.0000
# 5 0.0000 0.0000 0.0000 0.0000 16.4988 0.0000
# 6 0.0000 0.0000 0.0000 0.0000 0.0000 33.4698
#
#
#
# Elastic Compliance Matrix: (Units=1/GPa)
#
#
# Indices 1 2 3 4 5 6 
#
# 1 0.008159 -0.002916 -0.008447 0.000000 0.000000 0.000000
# 2 -0.002916 0.008255 -0.006371 0.000000 0.000000 0.000000
# 3 -0.008447 -0.006371 0.077126 0.000000 0.000000 0.000000
# 4 0.000000 0.000000 0.000000 0.086937 0.000000 0.000000
# 5 0.000000 0.000000 0.000000 0.000000 0.060611 0.000000
# 6 0.000000 0.000000 0.000000 0.000000 0.000000 0.029878
#
#
# Mechanical properties :
#
#
# Convention : Reuss Voigt Hill
#
# Bulk Modulus (GPa) = 17.21924 70.59935 43.90929
# Shear Modulus (GPa) = 15.34732 27.81109 21.57920
#
# Velocity S-wave (km/s) = 2.68230 3.61078 3.18060
# Velocity P-wave (km/s) = 4.20301 7.10495 5.83719
#
# Compressibility (1/GPa) = 0.05807458
#
# Stress axis : x y z
#
# Youngs Moduli (GPa) = 122.55813 121.14348 12.96571
#
# Poissons Ratio (x) = 0.35322 0.10952
# Poissons Ratio (y) = 0.35734 0.08260
# Poissons Ratio (z) = 1.03521 0.77176
#
# Static dielectric constant tensor:
#      x y z
#    x 1.810530 0.000000 0.000000 
#    y 0.000000 1.710940 0.000000 
#    z 0.000000 0.000000 1.870040 
# 
# From -- ./inp_files/13369.got.cif
#   From: 2010.05.17/outbox.cif.g08.bks.cpg/sg22_7_cif.got.tgz:13369.got - 2010.06.03 23:40:54.
