data_PCOD9326885
_publ_section_title
;
Structure prediction by ZEFSAII (Michael W. Deem and Ramdas Pophale) SiO2 
 PCOD9326885
Probable space group: F 2 2 2
;
_chemical_formula_sum "Si O2"
_cell_formula_units_Z 104
_cell_length_a 33.560800
_cell_length_b 9.818570
_cell_length_c 16.961861
_cell_angle_alpha 90.000000
_cell_angle_beta 90.000000
_cell_angle_gamma 90.000000
_cell_volume 5589.256561
_symmetry_space_group_name_H-M "F 2 2 2"
_symmetry_group_IT_number 22
_symmetry_cell_setting 'orthorhombic'
loop_
_space_group_symop_operation_xyz
x,y,z
-x,-y,z
x,-y,-z
-x,y,-z
x,1/2+y,1/2+z
-x,1/2-y,1/2+z
x,1/2-y,1/2-z
-x,1/2+y,1/2-z
1/2+x,y,1/2+z
1/2-x,-y,1/2+z
1/2+x,-y,1/2-z
1/2-x,y,1/2-z
1/2+x,1/2+y,z
1/2-x,1/2-y,z
1/2+x,1/2-y,-z
1/2-x,1/2+y,-z
loop_
_atom_site_type_symbol
_atom_site_label
_atom_site_fract_x
_atom_site_fract_y
_atom_site_fract_z
Si Si1 0.866054 0.673951 0.828087
Si Si2 0.204085 0.964441 0.240924
Si Si3 0.902311 0.835129 0.139834
Si Si4 0.150914 0.436188 0.584288
Si Si5 0.028871 0.750000 0.750000
Si Si6 0.830218 0.750000 0.250000
Si Si7 0.000000 0.000000 0.649287
Si Si8 0.914925 0.042967 0.583799
O O1 0.883518 0.750000 0.750000
O O2 0.822869 0.626038 0.798479
O O3 0.861769 0.778951 0.900889
O O4 0.890080 0.538039 0.849971
O O5 0.250000 0.928658 0.250000
O O6 0.196606 0.120014 0.266869
O O7 0.184602 0.953962 0.152981
O O8 0.939869 0.840130 0.198392
O O9 0.861307 0.788938 0.181824
O O10 0.912911 0.705582 0.087162
O O11 0.889068 0.976596 0.102928
O O12 0.164223 0.500000 0.500000
O O13 0.004166 0.638832 0.799161
O O14 0.039795 0.002893 0.597631
O O15 0.898889 0.000000 0.500000
#
# Coordination Sequence:
#
# PCOD9326885 Si02
#       8
#    16  16  16  16   8   8   8  16
#     4  10  22  36  60  87 110 154 198 238 285 346
#     4  10  20  36  61  84 115 153 198 240 288 352
#     4   9  18  34  57  79 110 145 189 232 287 336
#     4  10  21  36  57  86 118 149 189 242 296 340
#     4   9  20  34  55  82 107 148 183 246 273 342
#     4   9  15  32  59  84 104 140 194 238 277 336
#     4  10  23  34  54  84 117 146 192 232 301 324
#     4  11  21  37  57  81 117 151 192 240 291 344
#
# _framework density 18.607126999999998
#
# number of rings (size 3 to 8) (size 9 to 14) (size 15 to 20)
#    0.000    2.154    1.538    1.385    7.538    2.769 
#    0.000    0.769    6.769    0.000    0.000    3.231 
#    0.000    0.000    0.000    0.000    0.000    0.000 
#
# Total GULP energy -144753.457288 kJ/mol
# GULP energy per Si atom -5567.440665 kJ/mol
# Density = 1.856478 g / cm^3
# Si number density = 18.607127 Si / 1000 Ang^3
#
#
#
# Elastic Constant Matrix: (Units=GPa)
#
#
# Indices 1 2 3 4 5 6 
#
# 1 84.1435 19.4875 11.1918 0.0000 0.0000 0.0000
# 2 19.4875 96.3032 17.6311 0.0000 0.0000 0.0000
# 3 11.1918 17.6311 57.3421 0.0000 0.0000 0.0000
# 4 0.0000 0.0000 0.0000 21.4635 0.0000 0.0000
# 5 0.0000 0.0000 0.0000 0.0000 7.3605 0.0000
# 6 0.0000 0.0000 0.0000 0.0000 0.0000 45.6216
#
#
#
# Elastic Compliance Matrix: (Units=1/GPa)
#
#
# Indices 1 2 3 4 5 6 
#
# 1 0.012638 -0.002231 -0.001781 0.000000 0.000000 0.000000
# 2 -0.002231 0.011397 -0.003069 0.000000 0.000000 0.000000
# 3 -0.001781 -0.003069 0.018730 0.000000 0.000000 0.000000
# 4 0.000000 0.000000 0.000000 0.046591 0.000000 0.000000
# 5 0.000000 0.000000 0.000000 0.000000 0.135861 0.000000
# 6 0.000000 0.000000 0.000000 0.000000 0.000000 0.021919
#
#
# Mechanical properties :
#
#
# Convention : Reuss Voigt Hill
#
# Bulk Modulus (GPa) = 34.96009 37.15664 36.05836
# Shear Modulus (GPa) = 18.46155 27.52102 22.99129
#
# Velocity S-wave (km/s) = 3.15330 3.85002 3.51895
# Velocity P-wave (km/s) = 5.66455 6.30682 5.99429
#
# Compressibility (1/GPa) = 0.02860404
#
# Stress axis : x y z
#
# Youngs Moduli (GPa) = 79.12597 87.74052 53.38948
#
# Poissons Ratio (x) = 0.19578 0.09506
# Poissons Ratio (y) = 0.17656 0.16384
# Poissons Ratio (z) = 0.14089 0.26926
#
# Static dielectric constant tensor:
#      x y z
#    x 1.606430 0.000000 0.000000 
#    y 0.000000 1.697370 0.000000 
#    z 0.000000 0.000000 1.697410 
# 
# From -- ./inp_files/40407.got.cif
#   From: 2010.05.17/outbox.cif.g08.bks.cpg/sg22_21_cif.got.tgz:40407.got - 2010.06.03 23:40:54.
