data_PCOD9326763
_publ_section_title
;
Structure prediction by ZEFSAII (Michael W. Deem and Ramdas Pophale) SiO2 
 PCOD9326763
Probable space group: F 2 2 2
;
_chemical_formula_sum "Si O2"
_cell_formula_units_Z 96
_cell_length_a 25.933055
_cell_length_b 8.642941
_cell_length_c 24.066444
_cell_angle_alpha 90.000000
_cell_angle_beta 90.000000
_cell_angle_gamma 90.000000
_cell_volume 5394.201360
_symmetry_space_group_name_H-M "F 2 2 2"
_symmetry_group_IT_number 22
_symmetry_cell_setting 'orthorhombic'
loop_
_space_group_symop_operation_xyz
x,y,z
-x,-y,z
x,-y,-z
-x,y,-z
x,1/2+y,1/2+z
-x,1/2-y,1/2+z
x,1/2-y,1/2-z
-x,1/2+y,1/2-z
1/2+x,y,1/2+z
1/2-x,-y,1/2+z
1/2+x,-y,1/2-z
1/2-x,y,1/2-z
1/2+x,1/2+y,z
1/2-x,1/2-y,z
1/2+x,1/2-y,-z
1/2-x,1/2+y,-z
loop_
_atom_site_type_symbol
_atom_site_label
_atom_site_fract_x
_atom_site_fract_y
_atom_site_fract_z
Si Si1 0.192878 0.685229 0.935039
Si Si2 0.307122 0.814772 0.064962
Si Si3 0.406042 0.316855 0.884780
Si Si4 0.593958 0.816857 0.384783
Si Si5 0.500000 0.814749 0.187794
Si Si6 0.939443 0.675592 0.999999
O O1 0.250000 0.750000 0.925151
O O2 0.193368 0.500000 0.932192
O O3 0.152007 0.750269 0.890393
O O4 0.179584 0.728454 0.000001
O O5 0.250000 0.750000 0.074850
O O6 0.347993 0.749732 0.109608
O O7 0.404788 0.499999 0.876330
O O8 0.447855 0.243670 0.842935
O O9 0.426226 0.270072 0.945488
O O10 0.552144 0.743668 0.342940
O O11 0.573775 0.770080 0.445492
O O12 0.500003 0.750000 0.250000
O O13 0.500000 0.000000 0.186948
O O14 0.916503 0.500000 0.000000
O O15 0.000000 0.655424 0.000000
#
# Coordination Sequence:
#
# PCOD9326763 Si02
#       6
#    16  16  16  16  16  16
#     4  10  20  34  54  82 121 160 196 236 286 343
#     4  10  20  34  54  82 121 160 196 236 286 343
#     4  12  23  36  58  86 118 155 194 237 290 350
#     4  12  23  36  58  86 118 155 194 237 290 350
#     4  12  26  45  64  85 114 150 196 246 296 346
#     4  11  21  33  52  81 117 154 190 233 289 347
#
# _framework density 17.796889
#
# number of rings (size 3 to 8) (size 9 to 14) (size 15 to 20)
#    0.000    0.833    3.333    6.000    0.000    2.000 
#    0.000    0.000    0.000    1.000    0.000    7.000 
#    0.000    0.000    0.000    0.000    0.000    0.000 
#
# Total GULP energy -133947.557810 kJ/mol
# GULP energy per Si atom -5581.148242 kJ/mol
# Density = 1.775638 g / cm^3
# Si number density = 17.796889 Si / 1000 Ang^3
#
#
#
# Elastic Constant Matrix: (Units=GPa)
#
#
# Indices 1 2 3 4 5 6 
#
# 1 170.3550 75.2730 66.3283 0.0000 0.0000 0.0000
# 2 75.2730 156.8588 47.6690 0.0000 0.0000 0.0000
# 3 66.3283 47.6690 109.2103 0.0000 0.0000 0.0000
# 4 0.0000 0.0000 0.0000 38.0063 0.0000 0.0000
# 5 0.0000 0.0000 0.0000 0.0000 9.9886 0.0000
# 6 0.0000 0.0000 0.0000 0.0000 0.0000 38.6427
#
#
#
# Elastic Compliance Matrix: (Units=1/GPa)
#
#
# Indices 1 2 3 4 5 6 
#
# 1 0.008749 -0.002979 -0.004013 0.000000 0.000000 0.000000
# 2 -0.002979 0.008364 -0.001842 0.000000 0.000000 0.000000
# 3 -0.004013 -0.001842 0.012398 0.000000 0.000000 0.000000
# 4 0.000000 0.000000 0.000000 0.026311 0.000000 0.000000
# 5 0.000000 0.000000 0.000000 0.000000 0.100114 0.000000
# 6 0.000000 0.000000 0.000000 0.000000 0.000000 0.025878
#
#
# Mechanical properties :
#
#
# Convention : Reuss Voigt Hill
#
# Bulk Modulus (GPa) = 84.43522 90.55165 87.49344
# Shear Modulus (GPa) = 24.57837 33.80444 29.19141
#
# Velocity S-wave (km/s) = 3.72028 4.36301 4.05440
# Velocity P-wave (km/s) = 8.12409 8.73912 8.43721
#
# Compressibility (1/GPa) = 0.01184340
#
# Stress axis : x y z
#
# Youngs Moduli (GPa) = 114.29983 119.55564 80.65746
#
# Poissons Ratio (x) = 0.35612 0.32371
# Poissons Ratio (y) = 0.34047 0.14856
# Poissons Ratio (z) = 0.45873 0.22020
#
# Static dielectric constant tensor:
#      x y z
#    x 1.676610 0.000000 0.000000 
#    y 0.000000 1.601130 0.000000 
#    z 0.000000 0.000000 1.575300 
# 
# From -- ./inp_files/12835.got.cif
#   From: 2010.05.17/outbox.cif.g08.bks.cpg/sg22_7_cif.got.tgz:12835.got - 2010.06.03 23:40:54.
