data_PCOD9326278
_publ_section_title
;
Structure prediction by ZEFSAII (Michael W. Deem and Ramdas Pophale) SiO2 
 PCOD9326278
Probable space group: F 2 2 2
;
_chemical_formula_sum "Si O2"
_cell_formula_units_Z 80
_cell_length_a 25.774036
_cell_length_b 5.275044
_cell_length_c 27.215588
_cell_angle_alpha 90.000000
_cell_angle_beta 90.000000
_cell_angle_gamma 90.000000
_cell_volume 3700.208863
_symmetry_space_group_name_H-M "F 2 2 2"
_symmetry_group_IT_number 22
_symmetry_cell_setting 'orthorhombic'
loop_
_space_group_symop_operation_xyz
x,y,z
-x,-y,z
x,-y,-z
-x,y,-z
x,1/2+y,1/2+z
-x,1/2-y,1/2+z
x,1/2-y,1/2-z
-x,1/2+y,1/2-z
1/2+x,y,1/2+z
1/2-x,-y,1/2+z
1/2+x,-y,1/2-z
1/2-x,y,1/2-z
1/2+x,1/2+y,z
1/2-x,1/2-y,z
1/2+x,1/2-y,-z
1/2-x,1/2+y,-z
loop_
_atom_site_type_symbol
_atom_site_label
_atom_site_fract_x
_atom_site_fract_y
_atom_site_fract_z
Si Si1 0.302666 0.665620 0.141497
Si Si2 0.184078 0.159207 0.302798
Si Si3 0.441956 0.250548 0.978376
Si Si4 0.940039 0.819433 0.305264
Si Si5 0.427701 0.814491 0.365517
O O1 0.250000 0.750000 0.111650
O O2 0.299677 0.375020 0.158385
O O3 0.364222 0.695232 0.127422
O O4 0.299704 0.875860 0.184575
O O5 0.200392 0.250000 0.250000
O O6 0.122137 0.162313 0.300768
O O7 0.447183 0.261751 0.920174
O O8 0.415254 0.500000 0.000000
O O9 0.500000 0.250055 0.000000
O O10 0.415794 0.000000 0.000000
O O11 0.959788 0.750000 0.250000
O O12 0.945013 0.584857 0.343228
O O13 0.949919 0.098122 0.328647
#
# Coordination Sequence:
#
# PCOD9326278 Si02
#       5
#    16  16  16  16  16
#     4  10  19  28  41  64  97 139 177 209 254 303
#     4   9  17  27  39  60  95 139 186 225 245 273
#     4  10  21  38  61  88 105 124 166 226 286 327
#     4   9  17  30  49  77 111 149 184 207 248 313
#     4  10  19  33  53  77 109 142 175 223 266 302
#
# _framework density 21.620401999999999
#
# number of rings (size 3 to 8) (size 9 to 14) (size 15 to 20)
#    0.000    2.400    0.000    3.000    0.000    7.200 
#    0.000    0.000    0.000    1.200    0.000   56.000 
#    0.000    0.000    0.000    0.000    0.000    0.000 
#
# Total GULP energy -111408.770512 kJ/mol
# GULP energy per Si atom -5570.438526 kJ/mol
# Density = 2.157119 g / cm^3
# Si number density = 21.620402 Si / 1000 Ang^3
#
#
#
# Elastic Constant Matrix: (Units=GPa)
#
#
# Indices 1 2 3 4 5 6 
#
# 1 78.4901 -7.6464 -6.4952 0.0021 -0.0003 0.0014
# 2 -7.6464 170.3132 52.0918 -0.0050 -0.0058 0.0164
# 3 -6.4952 52.0918 129.3356 -0.0006 0.0002 0.0015
# 4 0.0021 -0.0050 -0.0006 19.1374 -0.0011 0.0016
# 5 -0.0003 -0.0058 0.0002 -0.0011 11.8853 0.0028
# 6 0.0014 0.0164 0.0015 0.0016 0.0028 25.8391
#
#
#
# Elastic Compliance Matrix: (Units=1/GPa)
#
#
# Indices 1 2 3 4 5 6 
#
# 1 0.012821 0.000432 0.000470 -0.000001 0.000001 -0.000001
# 2 0.000432 0.006711 -0.002681 0.000002 0.000003 -0.000004
# 3 0.000470 -0.002681 0.008835 -0.000001 -0.000001 0.000001
# 4 -0.000001 0.000002 -0.000001 0.052254 0.000005 -0.000003
# 5 0.000001 0.000003 -0.000001 0.000005 0.084137 -0.000009
# 6 -0.000001 -0.000004 0.000001 -0.000003 -0.000009 0.038701
#
#
# Mechanical properties :
#
#
# Convention : Reuss Voigt Hill
#
# Bulk Modulus (GPa) = 40.30810 50.44881 45.37846
# Shear Modulus (GPa) = 23.22468 34.05162 28.63815
#
# Velocity S-wave (km/s) = 3.28106 3.97290 3.64344
# Velocity P-wave (km/s) = 5.74785 6.66557 6.22365
#
# Compressibility (1/GPa) = 0.02480891
#
# Stress axis : x y z
#
# Youngs Moduli (GPa) = 77.99447 149.00867 113.18173
#
# Poissons Ratio (x) = -0.06436 -0.05319
# Poissons Ratio (y) = -0.03369 0.30347
# Poissons Ratio (z) = -0.03665 0.39953
#
# Static dielectric constant tensor:
#      x y z
#    x 1.927570 -0.000010 0.000000 
#    y -0.000010 1.765030 -0.000010 
#    z 0.000000 -0.000010 1.757240 
# 
# From -- ./inp_files/50604.got.cif
#   From: 2010.05.17/outbox.cif.g08.bks.cpg/sg22_26_cif.got.tgz:50604.got - 2010.06.03 23:40:54.
