data_PCOD9326166
_publ_section_title
;
Structure prediction by ZEFSAII (Michael W. Deem and Ramdas Pophale) SiO2 
 PCOD9326166
Probable space group: F 2 2 2
;
_chemical_formula_sum "Si O2"
_cell_formula_units_Z 56
_cell_length_a 10.953641
_cell_length_b 20.981958
_cell_length_c 9.389867
_cell_angle_alpha 90.000000
_cell_angle_beta 90.000000
_cell_angle_gamma 90.000000
_cell_volume 2158.062197
_symmetry_space_group_name_H-M "F 2 2 2"
_symmetry_group_IT_number 22
_symmetry_cell_setting 'orthorhombic'
loop_
_space_group_symop_operation_xyz
x,y,z
-x,-y,z
x,-y,-z
-x,y,-z
x,1/2+y,1/2+z
-x,1/2-y,1/2+z
x,1/2-y,1/2-z
-x,1/2+y,1/2-z
1/2+x,y,1/2+z
1/2-x,-y,1/2+z
1/2+x,-y,1/2-z
1/2-x,y,1/2-z
1/2+x,1/2+y,z
1/2-x,1/2-y,z
1/2+x,1/2-y,-z
1/2-x,1/2+y,-z
loop_
_atom_site_type_symbol
_atom_site_label
_atom_site_fract_x
_atom_site_fract_y
_atom_site_fract_z
Si Si1 0.000000 0.273927 0.000000
Si Si2 0.327868 0.343598 0.007547
Si Si3 0.840176 0.053211 0.617584
Si Si4 0.524905 0.872879 0.748905
O O1 0.018651 0.313743 0.856038
O O2 0.878156 0.229153 0.993145
O O3 0.202776 0.376699 0.055877
O O4 0.419548 0.368919 0.129085
O O5 0.357541 0.370541 0.850788
O O6 0.750000 0.038318 0.750000
O O7 0.979867 0.066241 0.664261
O O8 0.820333 0.000000 0.500000
#
# Coordination Sequence:
#
# PCOD9326166 Si02
#       4
#     8  16  16  16
#     4  10  18  34  58  92 124 158 208 252 314 382
#     4   9  18  37  61  86 120 161 201 253 317 373
#     4  10  22  40  60  88 123 164 216 261 309 378
#     4   9  19  36  59  87 120 158 203 256 312 371
#
# _framework density 25.949207000000001
#
# number of rings (size 3 to 8) (size 9 to 14) (size 15 to 20)
#    0.000    2.857    0.000    3.429    0.000    3.429 
#    0.000   31.429    0.000    6.857    0.000    0.000 
#    0.000    0.000    0.000    0.000    0.000    0.000 
#
# Total GULP energy -78173.032796 kJ/mol
# GULP energy per Si atom -5583.788057 kJ/mol
# Density = 2.589015 g / cm^3
# Si number density = 25.949207 Si / 1000 Ang^3
#
#
#
# Elastic Constant Matrix: (Units=GPa)
#
#
# Indices 1 2 3 4 5 6 
#
# 1 44.0977 2.3441 45.1768 0.0000 0.0000 0.0000
# 2 2.3441 137.5362 75.6438 0.0000 0.0000 0.0000
# 3 45.1768 75.6438 197.1094 0.0000 0.0000 0.0000
# 4 0.0000 0.0000 0.0000 56.5768 0.0000 0.0000
# 5 0.0000 0.0000 0.0000 0.0000 31.4798 0.0000
# 6 0.0000 0.0000 0.0000 0.0000 0.0000 17.3881
#
#
#
# Elastic Compliance Matrix: (Units=1/GPa)
#
#
# Indices 1 2 3 4 5 6 
#
# 1 0.031574 0.004363 -0.008911 0.000000 0.000000 0.000000
# 2 0.004363 0.009819 -0.004768 0.000000 0.000000 0.000000
# 3 -0.008911 -0.004768 0.008946 0.000000 0.000000 0.000000
# 4 0.000000 0.000000 0.000000 0.017675 0.000000 0.000000
# 5 0.000000 0.000000 0.000000 0.000000 0.031766 0.000000
# 6 0.000000 0.000000 0.000000 0.000000 0.000000 0.057511
#
#
# Mechanical properties :
#
#
# Convention : Reuss Voigt Hill
#
# Bulk Modulus (GPa) = 31.53979 69.45252 50.49615
# Shear Modulus (GPa) = 26.81084 38.12751 32.46917
#
# Velocity S-wave (km/s) = 3.21784 3.83732 3.54115
# Velocity P-wave (km/s) = 5.09772 6.81588 6.01843
#
# Compressibility (1/GPa) = 0.03170599
#
# Stress axis : x y z
#
# Youngs Moduli (GPa) = 31.67157 101.84468 111.78772
#
# Poissons Ratio (x) = -0.44433 0.99614
# Poissons Ratio (y) = -0.13818 0.53301
# Poissons Ratio (z) = 0.28222 0.48561
#
# Static dielectric constant tensor:
#      x y z
#    x 2.106130 0.000000 0.000000 
#    y 0.000000 2.072660 0.000000 
#    z 0.000000 0.000000 2.021240 
# 
# From -- ./inp_files/17687.got.cif
#   From: 2010.05.17/outbox.cif.g08.bks.cpg/sg22_9_cif.got.tgz:17687.got - 2010.06.03 23:40:54.
