data_PCOD9326107
_publ_section_title
;
Structure prediction by ZEFSAII (Michael W. Deem and Ramdas Pophale) SiO2 
 PCOD9326107
Probable space group: F 2 2 2
;
_chemical_formula_sum "Si O2"
_cell_formula_units_Z 76
_cell_length_a 19.644676
_cell_length_b 13.018060
_cell_length_c 14.173075
_cell_angle_alpha 90.000000
_cell_angle_beta 90.000000
_cell_angle_gamma 90.000000
_cell_volume 3624.559426
_symmetry_space_group_name_H-M "F 2 2 2"
_symmetry_group_IT_number 22
_symmetry_cell_setting 'orthorhombic'
loop_
_space_group_symop_operation_xyz
x,y,z
-x,-y,z
x,-y,-z
-x,y,-z
x,1/2+y,1/2+z
-x,1/2-y,1/2+z
x,1/2-y,1/2-z
-x,1/2+y,1/2-z
1/2+x,y,1/2+z
1/2-x,-y,1/2+z
1/2+x,-y,1/2-z
1/2-x,y,1/2-z
1/2+x,1/2+y,z
1/2-x,1/2-y,z
1/2+x,1/2-y,-z
1/2-x,1/2+y,-z
loop_
_atom_site_type_symbol
_atom_site_label
_atom_site_fract_x
_atom_site_fract_y
_atom_site_fract_z
Si Si1 0.684938 0.187993 0.897683
Si Si2 0.541849 0.333741 0.643053
Si Si3 0.074958 0.250000 0.750000
Si Si4 0.359363 0.342966 0.933547
Si Si5 0.248102 0.500000 0.500000
Si Si6 0.000000 0.000000 0.500000
Si Si7 0.500000 0.843371 0.500000
O O1 0.750000 0.250000 0.860064
O O2 0.620306 0.176111 0.829060
O O3 0.708747 0.077542 0.935979
O O4 0.660578 0.255682 0.989135
O O5 0.479035 0.338398 0.715770
O O6 0.541169 0.426112 0.568769
O O7 0.521572 0.231769 0.585249
O O8 0.122439 0.288949 0.665132
O O9 0.300282 0.427020 0.936338
O O10 0.430656 0.393838 0.966289
#
# Coordination Sequence:
#
# PCOD9326107 Si02
#       7
#    16  16   8  16   8   4   8
#     4   9  18  34  56  79 108 153 196 223 258 340
#     4   9  17  32  55  79 107 141 183 226 278 323
#     4  10  20  36  58  86 114 138 172 244 302 314
#     4   9  18  34  57  84 112 143 188 236 281 323
#     4  10  19  33  58  83 107 154 198 220 258 342
#     4  10  18  32  56  82 106 144 192 232 256 330
#     4   7  14  30  52  75 104 146 184 222 266 328
#
# _framework density 20.968066
#
# number of rings (size 3 to 8) (size 9 to 14) (size 15 to 20)
#    0.000    2.947    0.000    1.895    0.000    0.421 
#    0.000   13.684    0.000   10.105    0.000    0.000 
#    0.000    0.000    0.000    0.000    0.000    0.000 
#
# Total GULP energy -105818.760108 kJ/mol
# GULP energy per Si atom -5569.408427 kJ/mol
# Density = 2.092034 g / cm^3
# Si number density = 20.968066 Si / 1000 Ang^3
#
#
#
# Elastic Constant Matrix: (Units=GPa)
#
#
# Indices 1 2 3 4 5 6 
#
# 1 124.6630 37.2204 25.6685 0.0000 0.0000 0.0000
# 2 37.2204 97.1122 20.8035 0.0000 0.0000 0.0000
# 3 25.6685 20.8035 75.3763 0.0000 0.0000 0.0000
# 4 0.0000 0.0000 0.0000 17.4710 0.0000 0.0000
# 5 0.0000 0.0000 0.0000 0.0000 16.6084 0.0000
# 6 0.0000 0.0000 0.0000 0.0000 0.0000 44.8936
#
#
#
# Elastic Compliance Matrix: (Units=1/GPa)
#
#
# Indices 1 2 3 4 5 6 
#
# 1 0.009436 -0.003112 -0.002354 0.000000 0.000000 0.000000
# 2 -0.003112 0.011971 -0.002244 0.000000 0.000000 0.000000
# 3 -0.002354 -0.002244 0.014688 0.000000 0.000000 0.000000
# 4 0.000000 0.000000 0.000000 0.057238 0.000000 0.000000
# 5 0.000000 0.000000 0.000000 0.000000 0.060210 0.000000
# 6 0.000000 0.000000 0.000000 0.000000 0.000000 0.022275
#
#
# Mechanical properties :
#
#
# Convention : Reuss Voigt Hill
#
# Bulk Modulus (GPa) = 48.37133 51.61514 49.99323
# Shear Modulus (GPa) = 25.23607 30.02522 27.63065
#
# Velocity S-wave (km/s) = 3.47298 3.78822 3.63402
# Velocity P-wave (km/s) = 6.26109 6.61843 6.44224
#
# Compressibility (1/GPa) = 0.02067340
#
# Stress axis : x y z
#
# Youngs Moduli (GPa) = 105.98232 83.53611 68.08350
#
# Poissons Ratio (x) = 0.25997 0.16029
# Poissons Ratio (y) = 0.32982 0.15279
# Poissons Ratio (z) = 0.24951 0.18747
#
# Static dielectric constant tensor:
#      x y z
#    x 1.808230 0.000000 0.000000 
#    y 0.000000 1.757080 0.000000 
#    z 0.000000 0.000000 1.761660 
# 
# From -- ./inp_files/31408.got.cif
#   From: 2010.05.17/outbox.cif.g08.bks.cpg/sg22_16_cif.got.tgz:31408.got - 2010.06.03 23:40:54.
