data_PCOD9326697
_publ_section_title
;
Structure prediction by ZEFSAII (Michael W. Deem and Ramdas Pophale) SiO2 
 PCOD9326697
Probable space group: F 2 2 2
;
_chemical_formula_sum "Si O2"
_cell_formula_units_Z 84
_cell_length_a 25.860184
_cell_length_b 19.525910
_cell_length_c 7.285784
_cell_angle_alpha 90.000000
_cell_angle_beta 90.000000
_cell_angle_gamma 90.000000
_cell_volume 3678.910187
_symmetry_space_group_name_H-M "F 2 2 2"
_symmetry_group_IT_number 22
_symmetry_cell_setting 'orthorhombic'
loop_
_space_group_symop_operation_xyz
x,y,z
-x,-y,z
x,-y,-z
-x,y,-z
x,1/2+y,1/2+z
-x,1/2-y,1/2+z
x,1/2-y,1/2-z
-x,1/2+y,1/2-z
1/2+x,y,1/2+z
1/2-x,-y,1/2+z
1/2+x,-y,1/2-z
1/2-x,y,1/2-z
1/2+x,1/2+y,z
1/2-x,1/2-y,z
1/2+x,1/2-y,-z
1/2-x,1/2+y,-z
loop_
_atom_site_type_symbol
_atom_site_label
_atom_site_fract_x
_atom_site_fract_y
_atom_site_fract_z
Si Si1 0.772866 0.570175 0.046564
Si Si2 0.350440 0.329800 0.310156
Si Si3 0.461154 0.169373 0.263562
Si Si4 0.678719 0.366696 0.091957
Si Si5 0.070862 0.169311 0.806300
Si Si6 0.250000 0.250000 0.750000
O O1 0.750000 0.567108 0.250000
O O2 0.809257 0.637805 0.049622
O O3 0.801745 0.500000 0.000000
O O4 0.723415 0.576875 0.912401
O O5 0.345157 0.250000 0.250000
O O6 0.410325 0.344080 0.358493
O O7 0.339830 0.366422 0.117720
O O8 0.470657 0.250000 0.250000
O O9 0.517797 0.140101 0.218252
O O10 0.443933 0.162180 0.476463
O O11 0.626339 0.367409 0.209621
O O12 0.711288 0.297894 0.133953
O O13 0.078979 0.250000 0.750000
#
# Coordination Sequence:
#
# PCOD9326697 Si02
#       6
#    16  16  16  16  16   4
#     4  10  22  38  54  76 115 151 191 225 277 341
#     4   9  17  34  54  78 107 144 186 230 279 332
#     4   8  15  26  48  73 103 139 178 220 279 337
#     4  10  20  30  47  74 112 147 177 229 273 333
#     4   9  15  28  44  72 109 140 172 224 283 329
#     4  12  20  28  46  84 116 140 184 220 286 332
#
# _framework density 22.832849
#
# number of rings (size 3 to 8) (size 9 to 14) (size 15 to 20)
#    0.000    2.667    0.952    1.143    1.333    2.667 
#    0.000    0.000    0.000    0.000    0.000   24.000 
#   11.429    0.000    0.000    0.000    0.000    0.000 
#
# Total GULP energy -116918.035368 kJ/mol
# GULP energy per Si atom -5567.525494 kJ/mol
# Density = 2.278088 g / cm^3
# Si number density = 22.832849 Si / 1000 Ang^3
#
#
#
# Elastic Constant Matrix: (Units=GPa)
#
#
# Indices 1 2 3 4 5 6 
#
# 1 217.2692 52.2379 45.8622 0.0001 0.0000 0.0000
# 2 52.2379 58.3453 3.9997 0.0018 -0.0004 -0.0003
# 3 45.8622 3.9997 47.6723 0.0035 -0.0009 -0.0008
# 4 0.0001 0.0018 0.0035 22.1087 -0.0005 -0.0005
# 5 0.0000 -0.0004 -0.0009 -0.0005 30.3210 0.0000
# 6 0.0000 -0.0003 -0.0008 -0.0005 0.0000 12.3450
#
#
#
# Elastic Compliance Matrix: (Units=1/GPa)
#
#
# Indices 1 2 3 4 5 6 
#
# 1 0.007531 -0.006282 -0.006718 0.000002 0.000000 -0.000001
# 2 -0.006282 0.022479 0.004158 -0.000002 0.000000 0.000001
# 3 -0.006718 0.004158 0.027091 -0.000005 0.000001 0.000002
# 4 0.000002 -0.000002 -0.000005 0.045231 0.000001 0.000002
# 5 0.000000 0.000000 0.000001 0.000001 0.032980 0.000000
# 6 -0.000001 0.000001 0.000002 0.000002 0.000000 0.081004
#
#
# Mechanical properties :
#
#
# Convention : Reuss Voigt Hill
#
# Bulk Modulus (GPa) = 25.37065 58.60961 41.99013
# Shear Modulus (GPa) = 20.23141 27.70073 23.96607
#
# Velocity S-wave (km/s) = 2.97992 3.48688 3.24332
# Velocity P-wave (km/s) = 4.79327 6.47578 5.69698
#
# Compressibility (1/GPa) = 0.03941562
#
# Stress axis : x y z
#
# Youngs Moduli (GPa) = 132.78262 44.48605 36.91300
#
# Poissons Ratio (x) = 0.27947 0.24798
# Poissons Ratio (y) = 0.83417 -0.15347
# Poissons Ratio (z) = 0.89204 -0.18496
#
# Static dielectric constant tensor:
#      x y z
#    x 1.974500 0.000000 0.000000 
#    y 0.000000 1.835200 0.000000 
#    z 0.000000 0.000000 1.874890 
# 
# From -- ./inp_files/13690.got.cif
#   From: 2010.05.17/outbox.cif.g08.bks.cpg/sg22_7_cif.got.tgz:13690.got - 2010.06.03 23:40:54.
