data_PCOD9326842
_publ_section_title
;
Structure prediction by ZEFSAII (Michael W. Deem and Ramdas Pophale) SiO2 
 PCOD9326842
Probable space group: F 2 2 2
;
_chemical_formula_sum "Si O2"
_cell_formula_units_Z 120
_cell_length_a 22.608471
_cell_length_b 11.271977
_cell_length_c 24.950345
_cell_angle_alpha 90.000000
_cell_angle_beta 90.000000
_cell_angle_gamma 90.000000
_cell_volume 6358.399940
_symmetry_space_group_name_H-M "F 2 2 2"
_symmetry_group_IT_number 22
_symmetry_cell_setting 'orthorhombic'
loop_
_space_group_symop_operation_xyz
x,y,z
-x,-y,z
x,-y,-z
-x,y,-z
x,1/2+y,1/2+z
-x,1/2-y,1/2+z
x,1/2-y,1/2-z
-x,1/2+y,1/2-z
1/2+x,y,1/2+z
1/2-x,-y,1/2+z
1/2+x,-y,1/2-z
1/2-x,y,1/2-z
1/2+x,1/2+y,z
1/2-x,1/2-y,z
1/2+x,1/2-y,-z
1/2-x,1/2+y,-z
loop_
_atom_site_type_symbol
_atom_site_label
_atom_site_fract_x
_atom_site_fract_y
_atom_site_fract_z
Si Si1 0.930894 0.718917 0.188030
Si Si2 0.985183 0.639217 0.409362
Si Si3 0.911345 0.813646 0.586943
Si Si4 0.640949 0.136649 0.547354
Si Si5 0.500000 0.500000 0.354302
Si Si6 0.299678 0.546873 0.440633
Si Si7 0.173324 0.618572 0.422693
Si Si8 0.308421 0.187370 0.127419
O O1 0.931816 0.750000 0.250000
O O2 0.965838 0.811744 0.149398
O O3 0.864499 0.706517 0.165503
O O4 0.962759 0.593609 0.179286
O O5 0.928098 0.658369 0.445765
O O6 0.000000 0.500000 0.408492
O O7 0.038164 0.721109 0.430960
O O8 0.862609 0.887212 0.553603
O O9 0.864529 0.714059 0.611317
O O10 0.951745 0.917466 0.614092
O O11 0.656144 0.132560 0.485311
O O12 0.678041 0.240341 0.573384
O O13 0.655267 0.019735 0.583208
O O14 0.283627 0.500000 0.500000
O O15 0.243960 0.623715 0.420901
O O16 0.304134 0.445815 0.394909
O O17 0.250000 0.250000 0.150675
#
# Coordination Sequence:
#
# PCOD9326842 Si02
#       8
#    16  16  16  16   8  16  16  16
#     4  10  23  40  66  91 118 153 201 257 327 385
#     4  10  21  39  60  85 118 152 204 253 313 367
#     4  11  23  39  59  84 123 165 202 256 311 368
#     4  10  20  36  53  86 119 163 209 255 284 348
#     4  10  22  46  61  90 130 148 198 267 320 384
#     4  12  22  37  59  92 127 171 214 251 299 363
#     4  11  20  36  58  85 125 165 219 246 289 354
#     4  11  20  37  61  86 128 161 199 258 304 356
#
# _framework density 18.872672999999999
#
# number of rings (size 3 to 8) (size 9 to 14) (size 15 to 20)
#    0.000    1.333    5.333    1.200    0.933    0.800 
#    2.400    0.000    0.000    0.000    0.000    0.000 
#    0.000    0.000    0.000    0.000    0.000    0.000 
#
# Total GULP energy -167010.129734 kJ/mol
# GULP energy per Si atom -5567.004324 kJ/mol
# Density = 1.882972 g / cm^3
# Si number density = 18.872673 Si / 1000 Ang^3
#
#
#
# Elastic Constant Matrix: (Units=GPa)
#
#
# Indices 1 2 3 4 5 6 
#
# 1 151.2117 41.5418 19.7145 0.0000 0.0000 0.0000
# 2 41.5418 111.1160 12.3526 0.0000 0.0000 0.0000
# 3 19.7145 12.3526 44.9558 0.0000 0.0000 0.0000
# 4 0.0000 0.0000 0.0000 -0.5835 0.0000 0.0000
# 5 0.0000 0.0000 0.0000 0.0000 -138.0925 0.0000
# 6 0.0000 0.0000 0.0000 0.0000 0.0000 44.5423
#
#
#
# Elastic Compliance Matrix: (Units=1/GPa)
#
#
# Indices 1 2 3 4 5 6 
#
# 1 0.007666 -0.002571 -0.002655 0.000000 0.000000 0.000000
# 2 -0.002571 0.010145 -0.001660 0.000000 0.000000 0.000000
# 3 -0.002655 -0.001660 0.023865 0.000000 0.000000 0.000000
# 4 0.000000 0.000000 0.000000 -1.713928 0.000000 0.000000
# 5 0.000000 0.000000 0.000000 0.000000 -0.007242 0.000000
# 6 0.000000 0.000000 0.000000 0.000000 0.000000 0.022451
#
#
# Mechanical properties :
#
#
# Convention : Reuss Voigt Hill
#
# Bulk Modulus (GPa) = 35.83834 50.50014 43.16924
# Shear Modulus (GPa) = -3.06003 -3.24843 -3.15423
#
# Velocity S-wave (km/s) = -1.27473 -1.31338 -1.29420
# Velocity P-wave (km/s) = 4.10660 4.95141 4.54866
#
# Compressibility (1/GPa) = 0.02790308
#
# Stress axis : x y z
#
# Youngs Moduli (GPa) = 130.45175 98.56815 41.90287
#
# Poissons Ratio (x) = 0.25339 0.11126
# Poissons Ratio (y) = 0.33535 0.06957
# Poissons Ratio (z) = 0.34638 0.16365
#
# Static dielectric constant tensor:
#      x y z
#    x 1.718350 0.000000 0.000000 
#    y 0.000000 1.789280 0.000000 
#    z 0.000000 0.000000 1.609220 
# 
# From -- ./inp_files/56996.got.cif
#   From: 2010.05.17/outbox.cif.g08.bks.cpg/sg22_29_cif.got.tgz:56996.got - 2010.06.03 23:40:54.
