data_PCOD9326581
_publ_section_title
;
Structure prediction by ZEFSAII (Michael W. Deem and Ramdas Pophale) SiO2 
 PCOD9326581
Probable space group: F 2 2 2
;
_chemical_formula_sum "Si O2"
_cell_formula_units_Z 96
_cell_length_a 11.019291
_cell_length_b 26.620846
_cell_length_c 16.415304
_cell_angle_alpha 90.000000
_cell_angle_beta 90.000000
_cell_angle_gamma 90.000000
_cell_volume 4815.312038
_symmetry_space_group_name_H-M "F 2 2 2"
_symmetry_group_IT_number 22
_symmetry_cell_setting 'orthorhombic'
loop_
_space_group_symop_operation_xyz
x,y,z
-x,-y,z
x,-y,-z
-x,y,-z
x,1/2+y,1/2+z
-x,1/2-y,1/2+z
x,1/2-y,1/2-z
-x,1/2+y,1/2-z
1/2+x,y,1/2+z
1/2-x,-y,1/2+z
1/2+x,-y,1/2-z
1/2-x,y,1/2-z
1/2+x,1/2+y,z
1/2-x,1/2-y,z
1/2+x,1/2-y,-z
1/2-x,1/2+y,-z
loop_
_atom_site_type_symbol
_atom_site_label
_atom_site_fract_x
_atom_site_fract_y
_atom_site_fract_z
Si Si1 0.452637 0.579110 0.851324
Si Si2 0.822207 0.516318 0.593887
Si Si3 0.247302 0.642255 0.575224
Si Si4 0.750000 0.750000 0.106912
Si Si5 0.609205 0.579724 0.556982
Si Si6 0.026892 0.141230 0.308452
Si Si7 0.444159 0.250000 0.250000
O O1 0.359705 0.531934 0.853201
O O2 0.577414 0.558619 0.888487
O O3 0.384789 0.622549 0.901439
O O4 0.477316 0.600949 0.762997
O O5 0.835097 0.500000 0.500000
O O6 0.686869 0.537507 0.603138
O O7 0.256067 0.700503 0.552725
O O8 0.300410 0.606840 0.505888
O O9 0.336356 0.641045 0.654409
O O10 0.639154 0.741123 0.169965
O O11 0.500000 0.560248 0.500000
O O12 0.556346 0.621089 0.618492
O O13 0.994754 0.196587 0.273248
#
# Coordination Sequence:
#
# PCOD9326581 Si02
#       7
#    16  16  16   8  16  16   8
#     4  11  21  39  64  91 123 163 214 267 313 386
#     4  11  24  43  64  86 124 168 217 260 329 392
#     4  10  19  37  65  92 127 163 212 267 315 382
#     4   9  16  30  62  96 114 159 220 256 314 371
#     4  10  23  43  63  87 131 166 210 265 325 386
#     4  10  21  39  60  99 127 165 209 265 324 382
#     4   9  16  32  64  89 124 160 203 266 323 374
#
# _framework density 19.936402999999999
#
# number of rings (size 3 to 8) (size 9 to 14) (size 15 to 20)
#    0.000    1.833    3.333    1.500    0.000    1.000 
#   12.000    1.667    7.333    1.000    0.000    0.000 
#    0.000    0.000    0.000    0.000    0.000    0.000 
#
# Total GULP energy -133923.161691 kJ/mol
# GULP energy per Si atom -5580.131737 kJ/mol
# Density = 1.989103 g / cm^3
# Si number density = 19.936403 Si / 1000 Ang^3
#
#
#
# Elastic Constant Matrix: (Units=GPa)
#
#
# Indices 1 2 3 4 5 6 
#
# 1 64.9314 41.4430 10.4674 0.0000 0.0000 0.0000
# 2 41.4430 107.6600 29.7586 0.0000 0.0000 0.0000
# 3 10.4674 29.7586 49.3724 0.0000 0.0000 0.0000
# 4 0.0000 0.0000 0.0000 27.6018 0.0000 0.0000
# 5 0.0000 0.0000 0.0000 0.0000 4.9898 0.0000
# 6 0.0000 0.0000 0.0000 0.0000 0.0000 24.5518
#
#
#
# Elastic Compliance Matrix: (Units=1/GPa)
#
#
# Indices 1 2 3 4 5 6 
#
# 1 0.020427 -0.007999 0.000490 0.000000 0.000000 0.000000
# 2 -0.007999 0.014278 -0.006910 0.000000 0.000000 0.000000
# 3 0.000490 -0.006910 0.024315 0.000000 0.000000 0.000000
# 4 0.000000 0.000000 0.000000 0.036230 0.000000 0.000000
# 5 0.000000 0.000000 0.000000 0.000000 0.200409 0.000000
# 6 0.000000 0.000000 0.000000 0.000000 0.000000 0.040730
#
#
# Mechanical properties :
#
#
# Convention : Reuss Voigt Hill
#
# Bulk Modulus (GPa) = 33.13079 42.81128 37.97104
# Shear Modulus (GPa) = 13.32318 20.78168 17.05243
#
# Velocity S-wave (km/s) = 2.58792 3.23212 2.92779
# Velocity P-wave (km/s) = 5.05807 5.95394 5.52420
#
# Compressibility (1/GPa) = 0.03018341
#
# Stress axis : x y z
#
# Youngs Moduli (GPa) = 48.95452 70.03997 41.12678
#
# Poissons Ratio (x) = 0.56024 -0.02017
# Poissons Ratio (y) = 0.39158 0.28418
# Poissons Ratio (z) = -0.02401 0.48396
#
# Static dielectric constant tensor:
#      x y z
#    x 1.718640 0.000000 0.000000 
#    y 0.000000 1.770790 0.000000 
#    z 0.000000 0.000000 1.675220 
# 
# From -- ./inp_files/36347.got.cif
#   From: 2010.05.17/outbox.cif.g08.bks.cpg/sg22_19_cif.got.tgz:36347.got - 2010.06.03 23:40:54.
