data_PCOD9326741
_publ_section_title
;
Structure prediction by ZEFSAII (Michael W. Deem and Ramdas Pophale) SiO2 
 PCOD9326741
Probable space group: F 2 2 2
;
_chemical_formula_sum "Si O2"
_cell_formula_units_Z 96
_cell_length_a 16.778121
_cell_length_b 15.825323
_cell_length_c 21.254637
_cell_angle_alpha 90.000000
_cell_angle_beta 90.000000
_cell_angle_gamma 90.000000
_cell_volume 5643.513876
_symmetry_space_group_name_H-M "F 2 2 2"
_symmetry_group_IT_number 22
_symmetry_cell_setting 'orthorhombic'
loop_
_space_group_symop_operation_xyz
x,y,z
-x,-y,z
x,-y,-z
-x,y,-z
x,1/2+y,1/2+z
-x,1/2-y,1/2+z
x,1/2-y,1/2-z
-x,1/2+y,1/2-z
1/2+x,y,1/2+z
1/2-x,-y,1/2+z
1/2+x,-y,1/2-z
1/2-x,y,1/2-z
1/2+x,1/2+y,z
1/2-x,1/2-y,z
1/2+x,1/2-y,-z
1/2-x,1/2+y,-z
loop_
_atom_site_type_symbol
_atom_site_label
_atom_site_fract_x
_atom_site_fract_y
_atom_site_fract_z
Si Si1 0.040778 0.693312 0.689722
Si Si2 0.196317 0.078324 0.187350
Si Si3 0.778385 0.346428 0.933121
Si Si4 0.139585 0.098940 0.988120
Si Si5 0.926934 0.559946 0.641007
Si Si6 0.561723 0.740402 0.446070
O O1 0.031128 0.750000 0.750000
O O2 0.129020 0.651577 0.691733
O O3 0.032788 0.744827 0.624742
O O4 0.973306 0.621449 0.687820
O O5 0.250000 0.072821 0.250000
O O6 0.251686 0.099480 0.127159
O O7 0.142576 0.996140 0.171770
O O8 0.750000 0.250000 0.921253
O O9 0.870875 0.331439 0.944292
O O10 0.731006 0.382585 0.993335
O O11 0.111288 0.111001 0.916958
O O12 0.094520 0.166314 0.032459
O O13 0.123166 0.000000 0.000000
O O14 0.000000 0.500000 0.617045
O O15 0.500000 0.717876 0.500000
#
# Coordination Sequence:
#
# PCOD9326741 Si02
#       6
#    16  16  16  16  16  16
#     4  11  21  35  57  83 116 147 185 236 290 338
#     4  11  21  35  57  81 114 150 185 234 282 346
#     4  10  20  33  51  89 112 137 189 234 288 339
#     4  11  18  32  59  84 113 139 180 249 286 323
#     4  10  21  36  56  89 110 144 194 236 290 336
#     4  11  21  34  55  86 115 147 188 235 286 341
#
# _framework density 17.010679
#
# number of rings (size 3 to 8) (size 9 to 14) (size 15 to 20)
#    0.000    1.333    6.667    2.000    0.000    0.000 
#    0.000    1.667    0.000    0.500    0.000    0.000 
#    0.000    0.000    0.000    0.000    0.000    0.000 
#
# Total GULP energy -133784.700634 kJ/mol
# GULP energy per Si atom -5574.362526 kJ/mol
# Density = 1.697196 g / cm^3
# Si number density = 17.010679 Si / 1000 Ang^3
#
#
#
# Elastic Constant Matrix: (Units=GPa)
#
#
# Indices 1 2 3 4 5 6 
#
# 1 117.4088 50.8011 71.6447 0.0000 0.0000 0.0000
# 2 50.8011 55.7617 51.6277 0.0000 0.0000 0.0000
# 3 71.6447 51.6277 128.2272 0.0000 0.0000 0.0000
# 4 0.0000 0.0000 0.0000 24.5027 0.0000 0.0000
# 5 0.0000 0.0000 0.0000 0.0000 27.3568 0.0000
# 6 0.0000 0.0000 0.0000 0.0000 0.0000 25.5327
#
#
#
# Elastic Compliance Matrix: (Units=1/GPa)
#
#
# Indices 1 2 3 4 5 6 
#
# 1 0.015724 -0.009871 -0.004811 0.000000 0.000000 0.000000
# 2 -0.009871 0.034788 -0.008492 0.000000 0.000000 0.000000
# 3 -0.004811 -0.008492 0.013906 0.000000 0.000000 0.000000
# 4 0.000000 0.000000 0.000000 0.040812 0.000000 0.000000
# 5 0.000000 0.000000 0.000000 0.000000 0.036554 0.000000
# 6 0.000000 0.000000 0.000000 0.000000 0.000000 0.039165
#
#
# Mechanical properties :
#
#
# Convention : Reuss Voigt Hill
#
# Bulk Modulus (GPa) = 55.33769 72.17164 63.75466
# Shear Modulus (GPa) = 21.42979 23.96672 22.69826
#
# Velocity S-wave (km/s) = 3.55320 3.75763 3.65684
# Velocity P-wave (km/s) = 7.03103 7.83235 7.44248
#
# Compressibility (1/GPa) = 0.01807087
#
# Stress axis : x y z
#
# Youngs Moduli (GPa) = 63.59660 28.74553 71.91199
#
# Poissons Ratio (x) = 0.28374 0.34600
# Poissons Ratio (y) = 0.62774 0.61065
# Poissons Ratio (z) = 0.30599 0.24409
#
# Static dielectric constant tensor:
#      x y z
#    x 1.614870 0.000000 0.000000 
#    y 0.000000 1.586390 0.000000 
#    z 0.000000 0.000000 1.567950 
# 
# From -- ./inp_files/38029.got.cif
#   From: 2010.05.17/outbox.cif.g08.bks.cpg/sg22_20_cif.got.tgz:38029.got - 2010.06.03 23:40:54.
