data_PCOD9326611
_publ_section_title
;
Structure prediction by ZEFSAII (Michael W. Deem and Ramdas Pophale) SiO2 
 PCOD9326611
Probable space group: F 2 2 2
;
_chemical_formula_sum "Si O2"
_cell_formula_units_Z 120
_cell_length_a 25.406070
_cell_length_b 11.992311
_cell_length_c 20.165795
_cell_angle_alpha 90.000000
_cell_angle_beta 90.000000
_cell_angle_gamma 90.000000
_cell_volume 6144.063859
_symmetry_space_group_name_H-M "F 2 2 2"
_symmetry_group_IT_number 22
_symmetry_cell_setting 'orthorhombic'
loop_
_space_group_symop_operation_xyz
x,y,z
-x,-y,z
x,-y,-z
-x,y,-z
x,1/2+y,1/2+z
-x,1/2-y,1/2+z
x,1/2-y,1/2-z
-x,1/2+y,1/2-z
1/2+x,y,1/2+z
1/2-x,-y,1/2+z
1/2+x,-y,1/2-z
1/2-x,y,1/2-z
1/2+x,1/2+y,z
1/2-x,1/2-y,z
1/2+x,1/2-y,-z
1/2-x,1/2+y,-z
loop_
_atom_site_type_symbol
_atom_site_label
_atom_site_fract_x
_atom_site_fract_y
_atom_site_fract_z
Si Si1 0.216064 0.422349 0.187766
Si Si2 0.796261 0.314566 0.179795
Si Si3 0.502342 0.716301 0.324746
Si Si4 0.633047 0.775711 0.466926
Si Si5 0.394417 0.101138 0.145118
Si Si6 0.250000 0.750000 0.574584
Si Si7 0.969123 0.116608 0.937932
Si Si8 0.601711 0.854928 0.901144
O O1 0.250000 0.384114 0.250000
O O2 0.220957 0.556302 0.182768
O O3 0.153524 0.404704 0.196833
O O4 0.234668 0.354079 0.122918
O O5 0.801450 0.250000 0.250000
O O6 0.750000 0.250000 0.142068
O O7 0.851749 0.309727 0.144937
O O8 0.488553 0.750000 0.250000
O O9 0.549213 0.625636 0.323520
O O10 0.523009 0.819377 0.369060
O O11 0.453097 0.672545 0.366379
O O12 0.619801 0.701941 0.402874
O O13 0.696808 0.784732 0.465599
O O14 0.592833 0.880426 0.457935
O O15 0.612153 0.704146 0.529144
O O16 0.393630 0.988836 0.101325
O O17 0.000000 0.000000 0.931506
O O18 0.000000 0.174403 0.000000
#
# Coordination Sequence:
#
# PCOD9326611 Si02
#       8
#    16  16  16  16  16   8  16  16
#     4  10  19  38  63  87 124 168 208 264 320 398
#     4  10  20  38  59  84 122 165 213 255 315 391
#     4  11  23  40  61  95 130 159 209 276 328 382
#     4  10  21  41  63  91 126 166 210 276 321 390
#     4   9  22  37  63  91 123 159 214 260 325 384
#     4  10  23  38  58 100 127 158 222 272 338 392
#     4  10  21  42  65  87 124 174 221 256 324 403
#     4  11  21  37  63  90 121 167 208 264 320 388
#
# _framework density 19.531046
#
# number of rings (size 3 to 8) (size 9 to 14) (size 15 to 20)
#    0.000    1.867    2.667    1.400    0.933    4.267 
#    2.400    1.333    5.867    0.000    0.000    0.000 
#    0.000    0.000    0.000    0.000    0.000    0.000 
#
# Total GULP energy -167098.837346 kJ/mol
# GULP energy per Si atom -5569.961245 kJ/mol
# Density = 1.948659 g / cm^3
# Si number density = 19.531046 Si / 1000 Ang^3
#
#
#
# Elastic Constant Matrix: (Units=GPa)
#
#
# Indices 1 2 3 4 5 6 
#
# 1 176.1167 42.2241 21.1860 0.0000 0.0000 0.0000
# 2 42.2241 83.1341 10.1994 0.0000 0.0000 0.0000
# 3 21.1860 10.1994 50.6974 0.0000 0.0000 0.0000
# 4 0.0000 0.0000 0.0000 18.0961 0.0000 0.0000
# 5 0.0000 0.0000 0.0000 0.0000 25.6206 0.0000
# 6 0.0000 0.0000 0.0000 0.0000 0.0000 30.9146
#
#
#
# Elastic Compliance Matrix: (Units=1/GPa)
#
#
# Indices 1 2 3 4 5 6 
#
# 1 0.006689 -0.003132 -0.002165 0.000000 0.000000 0.000000
# 2 -0.003132 0.013799 -0.001467 0.000000 0.000000 0.000000
# 3 -0.002165 -0.001467 0.020925 0.000000 0.000000 0.000000
# 4 0.000000 0.000000 0.000000 0.055261 0.000000 0.000000
# 5 0.000000 0.000000 0.000000 0.000000 0.039031 0.000000
# 6 0.000000 0.000000 0.000000 0.000000 0.000000 0.032347
#
#
# Mechanical properties :
#
#
# Convention : Reuss Voigt Hill
#
# Bulk Modulus (GPa) = 35.86221 50.79636 43.32928
# Shear Modulus (GPa) = 26.19488 30.68216 28.43852
#
# Velocity S-wave (km/s) = 3.66620 3.96781 3.81999
# Velocity P-wave (km/s) = 6.02685 6.85973 6.45673
#
# Compressibility (1/GPa) = 0.02788451
#
# Stress axis : x y z
#
# Youngs Moduli (GPa) = 149.48991 72.46639 47.78979
#
# Poissons Ratio (x) = 0.22696 0.10348
# Poissons Ratio (y) = 0.46819 0.07013
# Poissons Ratio (z) = 0.32370 0.10634
#
# Static dielectric constant tensor:
#      x y z
#    x 1.732270 0.000000 0.000000 
#    y 0.000000 1.709920 0.000000 
#    z 0.000000 0.000000 1.714210 
# 
# From -- ./inp_files/42955.got.cif
#   From: 2010.05.17/outbox.cif.g08.bks.cpg/sg22_22_cif.got.tgz:42955.got - 2010.06.03 23:40:54.
