data_PCOD9326277
_publ_section_title
;
Structure prediction by ZEFSAII (Michael W. Deem and Ramdas Pophale) SiO2 
 PCOD9326277
Probable space group: F 2 2 2
;
_chemical_formula_sum "Si O2"
_cell_formula_units_Z 108
_cell_length_a 28.388426
_cell_length_b 5.690726
_cell_length_c 31.400509
_cell_angle_alpha 90.000000
_cell_angle_beta 90.000000
_cell_angle_gamma 90.000000
_cell_volume 5072.775903
_symmetry_space_group_name_H-M "F 2 2 2"
_symmetry_group_IT_number 22
_symmetry_cell_setting 'orthorhombic'
loop_
_space_group_symop_operation_xyz
x,y,z
-x,-y,z
x,-y,-z
-x,y,-z
x,1/2+y,1/2+z
-x,1/2-y,1/2+z
x,1/2-y,1/2-z
-x,1/2+y,1/2-z
1/2+x,y,1/2+z
1/2-x,-y,1/2+z
1/2+x,-y,1/2-z
1/2-x,y,1/2-z
1/2+x,1/2+y,z
1/2-x,1/2-y,z
1/2+x,1/2-y,-z
1/2-x,1/2+y,-z
loop_
_atom_site_type_symbol
_atom_site_label
_atom_site_fract_x
_atom_site_fract_y
_atom_site_fract_z
Si Si1 0.803818 0.993198 0.733938
Si Si2 0.443714 0.499255 0.774445
Si Si3 0.000000 0.500000 0.000000
Si Si4 0.655259 0.304152 0.426024
Si Si5 0.298676 0.111300 0.139785
Si Si6 0.889847 0.564525 0.362467
Si Si7 0.649956 0.000000 0.500000
Si Si8 0.419497 0.309603 0.443435
O O1 0.822895 0.250000 0.750000
O O2 0.750000 0.996256 0.750000
O O3 0.800174 0.967202 0.683317
O O4 0.826654 0.750000 0.750000
O O5 0.500000 0.500000 0.782582
O O6 0.433749 0.750000 0.750000
O O7 0.415693 0.502622 0.818979
O O8 0.434318 0.250000 0.750000
O O9 0.967049 0.346316 0.969214
O O10 0.693218 0.467533 0.403187
O O11 0.610099 0.449926 0.442173
O O12 0.632643 0.150257 0.388378
O O13 0.676107 0.164976 0.466276
O O14 0.250000 0.250000 0.138545
O O15 0.344332 0.274388 0.144886
O O16 0.923328 0.704846 0.395917
O O17 0.615509 0.857749 0.469099
#
# Coordination Sequence:
#
# PCOD9326277 Si02
#       8
#    16  16   4  16  16  16   8  16
#     4  10  21  39  61  91 140 183 227 285 356 416
#     4  10  24  48  73 100 144 198 249 298 352 430
#     4  12  20  38  68 108 140 180 218 286 376 448
#     4  10  22  41  66  97 136 180 229 292 357 434
#     4  11  24  43  64 104 141 187 240 297 364 431
#     4  10  25  43  66 104 136 187 237 299 360 425
#     4  10  18  43  66  96 137 176 219 280 354 435
#     4  10  22  39  64 102 138 172 220 283 358 438
#
# _framework density 21.290116999999999
#
# number of rings (size 3 to 8) (size 9 to 14) (size 15 to 20)
#    0.000    1.778    2.963    0.000    6.222    2.667 
#    1.333    0.741    0.000    0.000  138.667    0.000 
#    0.000    0.000    0.000    0.000    0.000    0.000 
#
# Total GULP energy -150711.704496 kJ/mol
# GULP energy per Si atom -5581.914981 kJ/mol
# Density = 2.124166 g / cm^3
# Si number density = 21.290117 Si / 1000 Ang^3
#
#
#
# Elastic Constant Matrix: (Units=GPa)
#
#
# Indices 1 2 3 4 5 6 
#
# 1 88.0499 26.7549 64.4740 0.0008 0.0072 0.0196
# 2 26.7549 112.6924 66.0186 0.0084 0.0250 -0.0020
# 3 64.4740 66.0186 172.0625 -0.0028 -0.0243 0.0051
# 4 0.0008 0.0084 -0.0028 56.8828 -0.0610 0.0000
# 5 0.0072 0.0250 -0.0243 -0.0610 176.3646 0.1916
# 6 0.0196 -0.0020 0.0051 0.0000 0.1916 -39.6266
#
#
#
# Elastic Compliance Matrix: (Units=1/GPa)
#
#
# Indices 1 2 3 4 5 6 
#
# 1 0.015663 -0.000362 -0.005730 0.000000 -0.000001 0.000007
# 2 -0.000362 0.011455 -0.004260 -0.000002 -0.000002 -0.000001
# 3 -0.005730 -0.004260 0.009593 0.000001 0.000002 -0.000001
# 4 0.000000 -0.000002 0.000001 0.017580 0.000006 0.000000
# 5 -0.000001 -0.000002 0.000002 0.000006 0.005670 0.000027
# 6 0.000007 -0.000001 -0.000001 0.000000 0.000027 -0.025235
#
#
# Mechanical properties :
#
#
# Convention : Reuss Voigt Hill
#
# Bulk Modulus (GPa) = 62.46787 76.36665 69.41726
# Shear Modulus (GPa) = 82.28318 53.09465 67.68892
#
# Velocity S-wave (km/s) = 6.22354 4.99928 5.64470
# Velocity P-wave (km/s) = 9.00268 8.32293 8.66947
#
# Compressibility (1/GPa) = 0.01600823
#
# Stress axis : x y z
#
# Youngs Moduli (GPa) = 63.84411 87.29810 104.23729
#
# Poissons Ratio (x) = 0.03157 0.59733
# Poissons Ratio (y) = 0.02309 0.44402
# Poissons Ratio (z) = 0.36585 0.37186
#
# Static dielectric constant tensor:
#      x y z
#    x 1.716540 0.000000 0.000010 
#    y 0.000000 1.654940 0.000010 
#    z 0.000010 0.000010 1.720780 
# 
# From -- ./inp_files/57386.got.cif
#   From: 2010.05.17/outbox.cif.g08.bks.cpg/sg22_29_cif.got.tgz:57386.got - 2010.06.03 23:40:54.
