data_PCOD9326471
_publ_section_title
;
Structure prediction by ZEFSAII (Michael W. Deem and Ramdas Pophale) SiO2 
 PCOD9326471
Probable space group: F 2 2 2
;
_chemical_formula_sum "Si O2"
_cell_formula_units_Z 96
_cell_length_a 31.693413
_cell_length_b 8.874212
_cell_length_c 18.410027
_cell_angle_alpha 90.000000
_cell_angle_beta 90.000000
_cell_angle_gamma 90.000000
_cell_volume 5177.894948
_symmetry_space_group_name_H-M "F 2 2 2"
_symmetry_group_IT_number 22
_symmetry_cell_setting 'orthorhombic'
loop_
_space_group_symop_operation_xyz
x,y,z
-x,-y,z
x,-y,-z
-x,y,-z
x,1/2+y,1/2+z
-x,1/2-y,1/2+z
x,1/2-y,1/2-z
-x,1/2+y,1/2-z
1/2+x,y,1/2+z
1/2-x,-y,1/2+z
1/2+x,-y,1/2-z
1/2-x,y,1/2-z
1/2+x,1/2+y,z
1/2-x,1/2-y,z
1/2+x,1/2-y,-z
1/2-x,1/2+y,-z
loop_
_atom_site_type_symbol
_atom_site_label
_atom_site_fract_x
_atom_site_fract_y
_atom_site_fract_z
Si Si1 0.131178 0.218946 0.563636
Si Si2 0.349072 0.067547 0.161136
Si Si3 0.375995 0.896861 0.294111
Si Si4 0.575485 0.306774 0.822140
Si Si5 0.207331 0.841812 0.540298
Si Si6 0.953012 0.320736 0.516516
O O1 0.140022 0.337794 0.628456
O O2 0.167332 0.229670 0.502538
O O3 0.085506 0.247138 0.528260
O O4 0.133552 0.055715 0.602850
O O5 0.382899 0.200350 0.172002
O O6 0.307580 0.130801 0.122836
O O7 0.344461 0.980357 0.237708
O O8 0.391556 0.750000 0.250000
O O9 0.411269 0.020818 0.309789
O O10 0.551982 0.250000 0.750000
O O11 0.553193 0.294415 0.898370
O O12 0.250000 0.750000 0.535761
O O13 0.214386 0.000000 0.500000
O O14 0.950898 0.500000 0.500000
O O15 0.000000 0.265697 0.500000
#
# Coordination Sequence:
#
# PCOD9326471 Si02
#       6
#    16  16  16  16  16  16
#     4  10  19  37  59  84 116 159 197 249 304 360
#     4   9  19  35  58  86 119 153 193 249 299 364
#     4   9  18  33  58  84 112 160 203 235 302 368
#     4  10  19  35  58  84 118 157 195 246 305 359
#     4  10  21  35  58  90 120 149 201 254 301 365
#     4  11  22  36  59  89 120 157 207 257 299 366
#
# _framework density 18.540351999999999
#
# number of rings (size 3 to 8) (size 9 to 14) (size 15 to 20)
#    0.000    2.167    3.333    0.000    0.000    2.000 
#    0.000    4.167    0.000   31.000    0.000    0.000 
#    0.000    0.000    0.000    0.000    0.000    0.000 
#
# Total GULP energy -133774.507869 kJ/mol
# GULP energy per Si atom -5573.937828 kJ/mol
# Density = 1.849815 g / cm^3
# Si number density = 18.540352 Si / 1000 Ang^3
#
#
#
# Elastic Constant Matrix: (Units=GPa)
#
#
# Indices 1 2 3 4 5 6 
#
# 1 117.4305 38.2812 57.2898 0.0000 0.0000 0.0000
# 2 38.2812 70.7191 35.3502 0.0000 0.0000 0.0000
# 3 57.2898 35.3502 142.1035 0.0000 0.0000 0.0000
# 4 0.0000 0.0000 0.0000 20.9830 0.0000 0.0000
# 5 0.0000 0.0000 0.0000 0.0000 17.3184 0.0000
# 6 0.0000 0.0000 0.0000 0.0000 0.0000 14.7188
#
#
#
# Elastic Compliance Matrix: (Units=1/GPa)
#
#
# Indices 1 2 3 4 5 6 
#
# 1 0.011763 -0.004565 -0.003607 0.000000 0.000000 0.000000
# 2 -0.004565 0.017920 -0.002618 0.000000 0.000000 0.000000
# 3 -0.003607 -0.002618 0.009142 0.000000 0.000000 0.000000
# 4 0.000000 0.000000 0.000000 0.047658 0.000000 0.000000
# 5 0.000000 0.000000 0.000000 0.000000 0.057742 0.000000
# 6 0.000000 0.000000 0.000000 0.000000 0.000000 0.067940
#
#
# Mechanical properties :
#
#
# Convention : Reuss Voigt Hill
#
# Bulk Modulus (GPa) = 57.98004 65.78838 61.88421
# Shear Modulus (GPa) = 20.87743 23.89284 22.38514
#
# Velocity S-wave (km/s) = 3.35931 3.59373 3.47850
# Velocity P-wave (km/s) = 6.81079 7.26504 7.04158
#
# Compressibility (1/GPa) = 0.01724732
#
# Stress axis : x y z
#
# Youngs Moduli (GPa) = 85.00938 55.80422 109.38012
#
# Poissons Ratio (x) = 0.25473 0.39453
# Poissons Ratio (y) = 0.38804 0.28630
# Poissons Ratio (z) = 0.30662 0.14607
#
# Static dielectric constant tensor:
#      x y z
#    x 1.605200 0.000000 0.000000 
#    y 0.000000 1.661160 0.000000 
#    z 0.000000 0.000000 1.682770 
# 
# From -- ./inp_files/45721.got.cif
#   From: 2010.05.17/outbox.cif.g08.bks.cpg/sg22_23_cif.got.tgz:45721.got - 2010.06.03 23:40:54.
