data_PCOD9326169
_publ_section_title
;
Structure prediction by ZEFSAII (Michael W. Deem and Ramdas Pophale) SiO2 
 PCOD9326169
Probable space group: F 2 2 2
;
_chemical_formula_sum "Si O2"
_cell_formula_units_Z 96
_cell_length_a 29.756039
_cell_length_b 16.592685
_cell_length_c 10.508437
_cell_angle_alpha 90.000000
_cell_angle_beta 90.000000
_cell_angle_gamma 90.000000
_cell_volume 5188.357733
_symmetry_space_group_name_H-M "F 2 2 2"
_symmetry_group_IT_number 22
_symmetry_cell_setting 'orthorhombic'
loop_
_space_group_symop_operation_xyz
x,y,z
-x,-y,z
x,-y,-z
-x,y,-z
x,1/2+y,1/2+z
-x,1/2-y,1/2+z
x,1/2-y,1/2-z
-x,1/2+y,1/2-z
1/2+x,y,1/2+z
1/2-x,-y,1/2+z
1/2+x,-y,1/2-z
1/2-x,y,1/2-z
1/2+x,1/2+y,z
1/2-x,1/2-y,z
1/2+x,1/2-y,-z
1/2-x,1/2+y,-z
loop_
_atom_site_type_symbol
_atom_site_label
_atom_site_fract_x
_atom_site_fract_y
_atom_site_fract_z
Si Si1 0.915874 0.000000 0.500000
Si Si2 0.248243 0.843731 0.404842
Si Si3 0.348341 0.882104 0.140503
Si Si4 0.343381 0.411665 0.943439
Si Si5 0.037370 0.644112 0.889269
Si Si6 0.901924 0.738204 0.535239
Si Si7 0.475797 0.750000 0.250000
O O1 0.884748 0.060999 0.423768
O O2 0.944418 0.053961 0.597984
O O3 0.250000 0.843156 0.250000
O O4 0.250000 0.750000 0.444667
O O5 0.200384 0.886347 0.425940
O O6 0.291231 0.887346 0.464323
O O7 0.347836 0.903438 0.289718
O O8 0.365351 0.791756 0.111662
O O9 0.377644 0.344903 0.999293
O O10 0.351920 0.500000 0.000000
O O11 0.009002 0.674541 0.770471
O O12 0.077300 0.707175 0.922300
O O13 0.000000 0.650160 0.000000
O O14 0.943229 0.728955 0.633093
#
# Coordination Sequence:
#
# PCOD9326169 Si02
#       7
#     8  16  16  16  16  16   8
#     4  10  21  34  56  80 108 140 184 228 273 320
#     4   9  17  31  54  78 102 138 183 222 257 317
#     4  10  19  35  55  79 108 144 182 221 268 329
#     4  11  21  32  53  84 115 138 173 230 277 320
#     4   9  20  34  54  79 103 139 184 230 267 326
#     4  10  18  35  57  78 104 146 185 218 276 329
#     4  10  18  34  60  73 106 143 190 226 272 332
#
# _framework density 18.502963999999999
#
# number of rings (size 3 to 8) (size 9 to 14) (size 15 to 20)
#    0.000    2.167    3.333    0.250    1.167    1.333 
#    0.000    0.000    3.667    3.500    0.000    1.167 
#    0.000    0.000    0.000    0.000    0.000    0.000 
#
# Total GULP energy -133687.982733 kJ/mol
# GULP energy per Si atom -5570.332614 kJ/mol
# Density = 1.846085 g / cm^3
# Si number density = 18.502964 Si / 1000 Ang^3
#
#
#
# Elastic Constant Matrix: (Units=GPa)
#
#
# Indices 1 2 3 4 5 6 
#
# 1 107.3166 55.2178 7.8985 0.0000 0.0000 0.0000
# 2 55.2178 136.2309 8.3828 0.0000 0.0000 0.0000
# 3 7.8985 8.3828 8.0290 0.0000 0.0000 0.0000
# 4 0.0000 0.0000 0.0000 17.2803 0.0000 0.0000
# 5 0.0000 0.0000 0.0000 0.0000 6.1996 0.0000
# 6 0.0000 0.0000 0.0000 0.0000 0.0000 38.9903
#
#
#
# Elastic Compliance Matrix: (Units=1/GPa)
#
#
# Indices 1 2 3 4 5 6 
#
# 1 0.012160 -0.004480 -0.007284 0.000000 0.000000 0.000000
# 2 -0.004480 0.009495 -0.005506 0.000000 0.000000 0.000000
# 3 -0.007284 -0.005506 0.137464 0.000000 0.000000 0.000000
# 4 0.000000 0.000000 0.000000 0.057869 0.000000 0.000000
# 5 0.000000 0.000000 0.000000 0.000000 0.161300 0.000000
# 6 0.000000 0.000000 0.000000 0.000000 0.000000 0.025647
#
#
# Mechanical properties :
#
#
# Convention : Reuss Voigt Hill
#
# Bulk Modulus (GPa) = 8.02716 43.84162 25.93439
# Shear Modulus (GPa) = 10.41661 24.49920 17.45790
#
# Velocity S-wave (km/s) = 2.37527 3.64272 3.07501
# Velocity P-wave (km/s) = 3.44533 6.43727 5.16278
#
# Compressibility (1/GPa) = 0.12457701
#
# Stress axis : x y z
#
# Youngs Moduli (GPa) = 82.23928 105.31526 7.27466
#
# Poissons Ratio (x) = 0.47185 0.05299
# Poissons Ratio (y) = 0.36846 0.04006
# Poissons Ratio (z) = 0.59905 0.57988
#
# Static dielectric constant tensor:
#      x y z
#    x 1.676660 0.000000 0.000000 
#    y 0.000000 1.682070 0.000000 
#    z 0.000000 0.000000 1.652400 
# 
# From -- ./inp_files/20238.got.cif
#   From: 2010.05.17/outbox.cif.g08.bks.cpg/sg22_11_cif.got.tgz:20238.got - 2010.06.03 23:40:54.
