data_PCOD9326717
_publ_section_title
;
Structure prediction by ZEFSAII (Michael W. Deem and Ramdas Pophale) SiO2 
 PCOD9326717
Probable space group: F 2 2 2
;
_chemical_formula_sum "Si O2"
_cell_formula_units_Z 104
_cell_length_a 26.504554
_cell_length_b 23.012209
_cell_length_c 9.684728
_cell_angle_alpha 90.000000
_cell_angle_beta 90.000000
_cell_angle_gamma 90.000000
_cell_volume 5906.990035
_symmetry_space_group_name_H-M "F 2 2 2"
_symmetry_group_IT_number 22
_symmetry_cell_setting 'orthorhombic'
loop_
_space_group_symop_operation_xyz
x,y,z
-x,-y,z
x,-y,-z
-x,y,-z
x,1/2+y,1/2+z
-x,1/2-y,1/2+z
x,1/2-y,1/2-z
-x,1/2+y,1/2-z
1/2+x,y,1/2+z
1/2-x,-y,1/2+z
1/2+x,-y,1/2-z
1/2-x,y,1/2-z
1/2+x,1/2+y,z
1/2-x,1/2-y,z
1/2+x,1/2-y,-z
1/2-x,1/2+y,-z
loop_
_atom_site_type_symbol
_atom_site_label
_atom_site_fract_x
_atom_site_fract_y
_atom_site_fract_z
Si Si1 0.500000 0.500000 0.819877
Si Si2 0.657121 0.069285 0.466874
Si Si3 0.761243 0.439712 0.915197
Si Si4 0.418903 0.905764 0.233816
Si Si5 0.492720 0.691953 0.162020
Si Si6 0.625642 0.932217 0.043797
Si Si7 0.926275 0.096349 0.827686
O O1 0.460962 0.457210 0.740682
O O2 0.463010 0.546696 0.891147
O O3 0.713505 0.089132 0.506948
O O4 0.631992 0.076868 0.317108
O O5 0.619344 0.102608 0.567967
O O6 0.655217 0.000000 0.500000
O O7 0.750000 0.447550 0.750000
O O8 0.816587 0.412526 0.931973
O O9 0.765147 0.500000 0.000000
O O10 0.445472 0.850288 0.303980
O O11 0.402253 0.897378 0.076871
O O12 0.489230 0.750000 0.250000
O O13 0.541510 0.653336 0.199224
O O14 0.500000 0.704119 0.000000
O O15 0.595554 0.926567 0.184940
O O16 0.625703 0.000000 0.000000
#
# Coordination Sequence:
#
# PCOD9326717 Si02
#       7
#     8  16  16  16  16  16  16
#     4  10  20  32  50  80 114 148 180 230 276 334
#     4  11  19  34  55  84 115 155 190 228 286 341
#     4  10  22  33  51  77 122 162 193 231 281 348
#     4  11  23  35  58  83 116 150 192 239 286 340
#     4  11  26  43  59  84 113 150 199 239 290 348
#     4  11  21  36  52  88 122 154 194 230 285 343
#     4  11  21  35  57  79 116 151 190 233 283 339
#
# _framework density 17.606259999999999
#
# number of rings (size 3 to 8) (size 9 to 14) (size 15 to 20)
#    0.000    1.231    6.154    0.000    8.615    3.077 
#    0.000    0.000    0.000    0.000    0.000    6.462 
#    0.000    0.000    0.000    0.000    0.000    0.000 
#
# Total GULP energy -144948.725858 kJ/mol
# GULP energy per Si atom -5574.950995 kJ/mol
# Density = 1.756619 g / cm^3
# Si number density = 17.606260 Si / 1000 Ang^3
#
#
#
# Elastic Constant Matrix: (Units=GPa)
#
#
# Indices 1 2 3 4 5 6 
#
# 1 112.4665 34.9260 45.2121 0.0000 0.0000 0.0000
# 2 34.9260 67.1958 8.3436 0.0001 0.0000 0.0000
# 3 45.2121 8.3436 90.6690 0.0004 -0.0001 -0.0001
# 4 0.0000 0.0001 0.0004 24.1126 0.0000 0.0000
# 5 0.0000 0.0000 -0.0001 0.0000 22.4405 0.0000
# 6 0.0000 0.0000 -0.0001 0.0000 0.0000 4.1433
#
#
#
# Elastic Compliance Matrix: (Units=1/GPa)
#
#
# Indices 1 2 3 4 5 6 
#
# 1 0.013215 -0.006120 -0.006026 0.000000 0.000000 0.000000
# 2 -0.006120 0.017888 0.001406 0.000000 0.000000 0.000000
# 3 -0.006026 0.001406 0.013905 0.000000 0.000000 0.000000
# 4 0.000000 0.000000 0.000000 0.041472 0.000000 0.000000
# 5 0.000000 0.000000 0.000000 0.000000 0.044562 0.000000
# 6 0.000000 0.000000 0.000000 0.000000 0.000000 0.241353
#
#
# Mechanical properties :
#
#
# Convention : Reuss Voigt Hill
#
# Bulk Modulus (GPa) = 42.50576 49.69942 46.10259
# Shear Modulus (GPa) = 12.44652 22.26259 17.35455
#
# Velocity S-wave (km/s) = 2.66171 3.55980 3.14300
# Velocity P-wave (km/s) = 5.80010 6.72203 6.27801
#
# Compressibility (1/GPa) = 0.02352622
#
# Stress axis : x y z
#
# Youngs Moduli (GPa) = 75.67288 55.90209 71.91760
#
# Poissons Ratio (x) = 0.34214 0.43340
# Poissons Ratio (y) = 0.46314 -0.10110
# Poissons Ratio (z) = 0.45603 -0.07858
#
# Static dielectric constant tensor:
#      x y z
#    x 1.641420 0.000000 0.000000 
#    y 0.000000 1.594020 0.000000 
#    z 0.000000 0.000000 1.731510 
# 
# From -- ./inp_files/14919.got.cif
#   From: 2010.05.17/outbox.cif.g08.bks.cpg/sg22_8_cif.got.tgz:14919.got - 2010.06.03 23:40:54.
