data_PCOD9326348
_publ_section_title
;
Structure prediction by ZEFSAII (Michael W. Deem and Ramdas Pophale) SiO2 
 PCOD9326348
Probable space group: F 2 2 2
;
_chemical_formula_sum "Si O2"
_cell_formula_units_Z 116
_cell_length_a 18.862590
_cell_length_b 21.917527
_cell_length_c 13.915017
_cell_angle_alpha 90.000000
_cell_angle_beta 90.000000
_cell_angle_gamma 90.000000
_cell_volume 5752.764774
_symmetry_space_group_name_H-M "F 2 2 2"
_symmetry_group_IT_number 22
_symmetry_cell_setting 'orthorhombic'
loop_
_space_group_symop_operation_xyz
x,y,z
-x,-y,z
x,-y,-z
-x,y,-z
x,1/2+y,1/2+z
-x,1/2-y,1/2+z
x,1/2-y,1/2-z
-x,1/2+y,1/2-z
1/2+x,y,1/2+z
1/2-x,-y,1/2+z
1/2+x,-y,1/2-z
1/2-x,y,1/2-z
1/2+x,1/2+y,z
1/2-x,1/2-y,z
1/2+x,1/2-y,-z
1/2-x,1/2+y,-z
loop_
_atom_site_type_symbol
_atom_site_label
_atom_site_fract_x
_atom_site_fract_y
_atom_site_fract_z
Si Si1 0.951583 0.947354 0.357033
Si Si2 0.676522 0.140929 0.688614
Si Si3 0.548322 0.579131 0.825542
Si Si4 0.000000 0.500000 0.500000
Si Si5 0.671250 0.733163 0.015221
Si Si6 0.331826 0.994084 0.743967
Si Si7 0.425795 0.814613 0.853637
Si Si8 0.462118 0.287613 0.897478
O O1 0.871537 0.970660 0.340708
O O2 0.949892 0.879464 0.397402
O O3 0.987426 0.938724 0.250902
O O4 0.000000 0.000000 0.400885
O O5 0.750000 0.149520 0.750000
O O6 0.675917 0.174535 0.586484
O O7 0.665152 0.068052 0.679738
O O8 0.613405 0.170352 0.752826
O O9 0.621738 0.551559 0.787421
O O10 0.541200 0.651105 0.836583
O O11 0.539355 0.545408 0.927170
O O12 0.750000 0.750000 0.986307
O O13 0.635193 0.784748 0.081553
O O14 0.618148 0.727145 0.926574
O O15 0.250000 0.009913 0.750000
O O16 0.491554 0.767797 0.854874
O O17 0.500000 0.301677 0.000000
#
# Coordination Sequence:
#
# PCOD9326348 Si02
#       8
#    16  16  16   4  16  16  16  16
#     4   9  19  36  56  85 109 144 194 240 281 326
#     4  10  19  32  57  90 113 143 183 239 300 338
#     4  11  21  34  54  83 116 154 186 226 284 345
#     4  12  20  32  52  80 124 148 170 216 292 352
#     4  11  22  36  53  83 120 150 185 233 293 348
#     4   9  19  34  53  82 115 140 184 239 284 331
#     4  10  21  33  57  85 118 143 193 237 286 340
#     4  10  24  36  52  84 121 155 187 232 289 347
#
# _framework density 20.164217000000001
#
# number of rings (size 3 to 8) (size 9 to 14) (size 15 to 20)
#    0.000    1.931    4.138    0.414   11.586    0.000 
#    0.000    2.759    0.000    3.724    3.586    0.000 
#    0.000    0.000    0.000    0.000    0.000    0.000 
#
# Total GULP energy -161761.804158 kJ/mol
# GULP energy per Si atom -5577.993247 kJ/mol
# Density = 2.011832 g / cm^3
# Si number density = 20.164217 Si / 1000 Ang^3
#
#
#
# Elastic Constant Matrix: (Units=GPa)
#
#
# Indices 1 2 3 4 5 6 
#
# 1 173.9025 58.2099 23.4140 0.0000 0.0000 0.0000
# 2 58.2099 129.5363 4.7222 0.0000 0.0000 0.0000
# 3 23.4140 4.7222 37.6016 0.0000 0.0000 0.0000
# 4 0.0000 0.0000 0.0000 2.1566 0.0000 0.0000
# 5 0.0000 0.0000 0.0000 0.0000 11.2469 0.0000
# 6 0.0000 0.0000 0.0000 0.0000 0.0000 26.9339
#
#
#
# Elastic Compliance Matrix: (Units=1/GPa)
#
#
# Indices 1 2 3 4 5 6 
#
# 1 0.007373 -0.003160 -0.004194 0.000000 0.000000 0.000000
# 2 -0.003160 0.009110 0.000824 0.000000 0.000000 0.000000
# 3 -0.004194 0.000824 0.029103 0.000000 0.000000 0.000000
# 4 0.000000 0.000000 0.000000 0.463694 0.000000 0.000000
# 5 0.000000 0.000000 0.000000 0.000000 0.088914 0.000000
# 6 0.000000 0.000000 0.000000 0.000000 0.000000 0.037128
#
#
# Mechanical properties :
#
#
# Convention : Reuss Voigt Hill
#
# Bulk Modulus (GPa) = 30.74617 57.08141 43.91379
# Shear Modulus (GPa) = 7.58469 25.04710 16.31589
#
# Velocity S-wave (km/s) = 1.94155 3.52825 2.84764
# Velocity P-wave (km/s) = 4.50635 6.70580 5.71292
#
# Compressibility (1/GPa) = 0.03252437
#
# Stress axis : x y z
#
# Youngs Moduli (GPa) = 135.63265 109.77018 34.36106
#
# Poissons Ratio (x) = 0.34690 0.14411
# Poissons Ratio (y) = 0.42863 -0.02831
# Poissons Ratio (z) = 0.56885 -0.09042
#
# Static dielectric constant tensor:
#      x y z
#    x 1.735610 0.000000 0.000000 
#    y 0.000000 1.761800 0.000000 
#    z 0.000000 0.000000 1.759690 
# 
# From -- ./inp_files/30934.got.cif
#   From: 2010.05.17/outbox.cif.g08.bks.cpg/sg22_16_cif.got.tgz:30934.got - 2010.06.03 23:40:54.
