data_PCOD9326465
_publ_section_title
;
Structure prediction by ZEFSAII (Michael W. Deem and Ramdas Pophale) SiO2 
 PCOD9326465
Probable space group: F 2 2 2
;
_chemical_formula_sum "Si O2"
_cell_formula_units_Z 96
_cell_length_a 11.564776
_cell_length_b 22.373313
_cell_length_c 19.680452
_cell_angle_alpha 90.000000
_cell_angle_beta 90.000000
_cell_angle_gamma 90.000000
_cell_volume 5092.166463
_symmetry_space_group_name_H-M "F 2 2 2"
_symmetry_group_IT_number 22
_symmetry_cell_setting 'orthorhombic'
loop_
_space_group_symop_operation_xyz
x,y,z
-x,-y,z
x,-y,-z
-x,y,-z
x,1/2+y,1/2+z
-x,1/2-y,1/2+z
x,1/2-y,1/2-z
-x,1/2+y,1/2-z
1/2+x,y,1/2+z
1/2-x,-y,1/2+z
1/2+x,-y,1/2-z
1/2-x,y,1/2-z
1/2+x,1/2+y,z
1/2-x,1/2-y,z
1/2+x,1/2-y,-z
1/2-x,1/2+y,-z
loop_
_atom_site_type_symbol
_atom_site_label
_atom_site_fract_x
_atom_site_fract_y
_atom_site_fract_z
Si Si1 0.103268 0.834772 0.546777
Si Si2 0.266543 0.938412 0.521047
Si Si3 0.071757 0.057678 0.143236
Si Si4 0.371926 0.785028 0.814472
Si Si5 0.750000 0.394974 0.750000
Si Si6 0.918016 0.647658 0.566773
Si Si7 0.750000 0.250000 0.448876
O O1 0.185789 0.891217 0.559998
O O2 0.067739 0.797730 0.613860
O O3 0.174872 0.790698 0.498962
O O4 0.000000 0.856873 0.500000
O O5 0.369215 0.956921 0.571279
O O6 0.326740 0.902183 0.459770
O O7 0.206503 0.000000 0.500000
O O8 0.171925 0.069535 0.197292
O O9 0.995989 0.117036 0.125238
O O10 0.000000 0.000000 0.164817
O O11 0.425934 0.750000 0.750000
O O12 0.250000 0.750000 0.828861
O O13 0.336504 0.849990 0.788170
O O14 0.841023 0.705160 0.587168
O O15 0.000000 0.661425 0.500000
#
# Coordination Sequence:
#
# PCOD9326465 Si02
#       7
#    16  16  16  16   8  16   8
#     4  11  21  34  56  88 127 160 200 259 322 370
#     4  10  19  35  56  89 121 149 204 254 306 376
#     4  11  20  36  63  87 116 156 209 249 306 366
#     4   9  19  35  58  81 117 158 198 250 299 363
#     4  10  21  36  58  90 116 149 208 260 284 372
#     4   9  19  30  55  87 118 157 188 251 302 363
#     4  10  20  32  49  88 127 150 196 240 308 374
#
# _framework density 18.852487
#
# number of rings (size 3 to 8) (size 9 to 14) (size 15 to 20)
#    0.000    2.167    4.167    0.500    0.000    3.000 
#    0.000    1.667    0.000    0.000    0.000    6.417 
#    0.000    0.000    0.000    0.000    0.000    0.000 
#
# Total GULP energy -133682.622992 kJ/mol
# GULP energy per Si atom -5570.109291 kJ/mol
# Density = 1.880958 g / cm^3
# Si number density = 18.852487 Si / 1000 Ang^3
#
#
#
# Elastic Constant Matrix: (Units=GPa)
#
#
# Indices 1 2 3 4 5 6 
#
# 1 49.7081 33.0502 24.2505 0.0000 0.0000 0.0000
# 2 33.0502 104.5627 23.2461 0.0000 0.0000 0.0000
# 3 24.2505 23.2461 70.1759 0.0000 0.0000 0.0000
# 4 0.0000 0.0000 0.0000 22.2162 0.0000 0.0000
# 5 0.0000 0.0000 0.0000 0.0000 42.9594 0.0000
# 6 0.0000 0.0000 0.0000 0.0000 0.0000 13.2198
#
#
#
# Elastic Compliance Matrix: (Units=1/GPa)
#
#
# Indices 1 2 3 4 5 6 
#
# 1 0.028681 -0.007408 -0.007457 0.000000 0.000000 0.000000
# 2 -0.007408 0.012237 -0.001494 0.000000 0.000000 0.000000
# 3 -0.007457 -0.001494 0.017322 0.000000 0.000000 0.000000
# 4 0.000000 0.000000 0.000000 0.045012 0.000000 0.000000
# 5 0.000000 0.000000 0.000000 0.000000 0.023278 0.000000
# 6 0.000000 0.000000 0.000000 0.000000 0.000000 0.075644
#
#
# Mechanical properties :
#
#
# Convention : Reuss Voigt Hill
#
# Bulk Modulus (GPa) = 39.18147 42.83780 41.00964
# Shear Modulus (GPa) = 20.54245 25.27241 22.90743
#
# Velocity S-wave (km/s) = 3.30455 3.66530 3.48959
# Velocity P-wave (km/s) = 5.94881 6.37844 6.16737
#
# Compressibility (1/GPa) = 0.02552227
#
# Stress axis : x y z
#
# Youngs Moduli (GPa) = 34.86659 81.71868 57.73087
#
# Poissons Ratio (x) = 0.60533 0.43052
# Poissons Ratio (y) = 0.25827 0.08624
# Poissons Ratio (z) = 0.26001 0.12207
#
# Static dielectric constant tensor:
#      x y z
#    x 1.370860 0.000000 0.000000 
#    y 0.000000 1.684390 0.000000 
#    z 0.000000 0.000000 1.669450 
# 
# From -- ./inp_files/36269.got.cif
#   From: 2010.05.17/outbox.cif.g08.bks.cpg/sg22_19_cif.got.tgz:36269.got - 2010.06.03 23:40:54.
