data_PCOD9326751
_publ_section_title
;
Structure prediction by ZEFSAII (Michael W. Deem and Ramdas Pophale) SiO2 
 PCOD9326751
Probable space group: F 2 2 2
;
_chemical_formula_sum "Si O2"
_cell_formula_units_Z 96
_cell_length_a 9.040739
_cell_length_b 21.069251
_cell_length_c 25.161090
_cell_angle_alpha 90.000000
_cell_angle_beta 90.000000
_cell_angle_gamma 90.000000
_cell_volume 4792.724661
_symmetry_space_group_name_H-M "F 2 2 2"
_symmetry_group_IT_number 22
_symmetry_cell_setting 'orthorhombic'
loop_
_space_group_symop_operation_xyz
x,y,z
-x,-y,z
x,-y,-z
-x,y,-z
x,1/2+y,1/2+z
-x,1/2-y,1/2+z
x,1/2-y,1/2-z
-x,1/2+y,1/2-z
1/2+x,y,1/2+z
1/2-x,-y,1/2+z
1/2+x,-y,1/2-z
1/2-x,y,1/2-z
1/2+x,1/2+y,z
1/2-x,1/2-y,z
1/2+x,1/2-y,-z
1/2-x,1/2+y,-z
loop_
_atom_site_type_symbol
_atom_site_label
_atom_site_fract_x
_atom_site_fract_y
_atom_site_fract_z
Si Si1 0.328340 0.437302 0.465715
Si Si2 0.665551 0.496280 0.117891
Si Si3 0.250283 0.636879 0.065541
Si Si4 0.000000 0.701221 0.500000
Si Si5 0.250000 0.250000 0.077200
Si Si6 0.623108 0.050990 0.792409
Si Si7 0.536534 0.355410 0.620715
O O1 0.356637 0.500000 0.500000
O O2 0.182659 0.454938 0.431837
O O3 0.315681 0.381794 0.507947
O O4 0.441275 0.413996 0.421061
O O5 0.500000 0.500000 0.138348
O O6 0.706924 0.427366 0.096220
O O7 0.783591 0.515686 0.161662
O O8 0.401825 0.667804 0.045943
O O9 0.124096 0.670632 0.101555
O O10 0.881548 0.735500 0.463483
O O11 0.325546 0.192948 0.111638
O O12 0.750000 0.068862 0.750000
O O13 0.547476 0.111677 0.821530
O O14 0.500000 0.000000 0.773289
#
# Coordination Sequence:
#
# PCOD9326751 Si02
#       7
#    16  16  16   8   8  16  16
#     4   9  19  31  53  86 126 170 202 252 318 396
#     4  10  20  33  56  93 132 164 201 258 326 407
#     4  11  20  35  58  87 134 166 225 251 323 382
#     4  12  24  38  57  88 125 190 220 274 292 382
#     4  12  26  42  59  86 134 182 243 262 326 382
#     4  11  23  44  67  98 126 162 212 276 363 411
#     4  11  23  41  59  91 126 177 219 281 324 406
#
# _framework density 20.030360000000002
#
# number of rings (size 3 to 8) (size 9 to 14) (size 15 to 20)
#    0.000    1.333    3.333    3.000    2.333    4.333 
#    0.000    0.417    0.000    0.000    0.000    0.000 
#    0.000    0.000    0.000    0.000    0.000    0.000 
#
# Total GULP energy -133700.898675 kJ/mol
# GULP energy per Si atom -5570.870778 kJ/mol
# Density = 1.998477 g / cm^3
# Si number density = 20.030360 Si / 1000 Ang^3
#
#
#
# Elastic Constant Matrix: (Units=GPa)
#
#
# Indices 1 2 3 4 5 6 
#
# 1 123.1730 27.5761 26.9856 0.0000 0.0000 0.0000
# 2 27.5761 53.2509 23.1107 0.0000 0.0000 0.0000
# 3 26.9856 23.1107 73.0837 0.0000 0.0000 0.0000
# 4 0.0000 0.0000 0.0000 15.1599 0.0000 0.0000
# 5 0.0000 0.0000 0.0000 0.0000 34.9655 0.0000
# 6 0.0000 0.0000 0.0000 0.0000 0.0000 22.8257
#
#
#
# Elastic Compliance Matrix: (Units=1/GPa)
#
#
# Indices 1 2 3 4 5 6 
#
# 1 0.009495 -0.003936 -0.002262 0.000000 0.000000 0.000000
# 2 -0.003936 0.023397 -0.005946 0.000000 0.000000 0.000000
# 3 -0.002262 -0.005946 0.016398 0.000000 0.000000 0.000000
# 4 0.000000 0.000000 0.000000 0.065964 0.000000 0.000000
# 5 0.000000 0.000000 0.000000 0.000000 0.028600 0.000000
# 6 0.000000 0.000000 0.000000 0.000000 0.000000 0.043810
#
#
# Mechanical properties :
#
#
# Convention : Reuss Voigt Hill
#
# Bulk Modulus (GPa) = 39.99145 44.98358 42.48752
# Shear Modulus (GPa) = 22.69788 26.04590 24.37189
#
# Velocity S-wave (km/s) = 3.36992 3.60991 3.49198
# Velocity P-wave (km/s) = 5.92879 6.31520 6.12504
#
# Compressibility (1/GPa) = 0.02500534
#
# Stress axis : x y z
#
# Youngs Moduli (GPa) = 105.31588 42.73966 60.98268
#
# Poissons Ratio (x) = 0.16821 0.13791
# Poissons Ratio (y) = 0.41449 0.36258
# Poissons Ratio (z) = 0.23817 0.25411
#
# Static dielectric constant tensor:
#      x y z
#    x 1.907890 0.000000 0.000000 
#    y 0.000000 1.792140 0.000000 
#    z 0.000000 0.000000 1.707160 
# 
# From -- ./inp_files/47410.got.cif
#   From: 2010.05.17/outbox.cif.g08.bks.cpg/sg22_24_cif.got.tgz:47410.got - 2010.06.03 23:40:54.
