data_PCOD9326791
_publ_section_title
;
Structure prediction by ZEFSAII (Michael W. Deem and Ramdas Pophale) SiO2 
 PCOD9326791
Probable space group: F 2 2 2
;
_chemical_formula_sum "Si O2"
_cell_formula_units_Z 60
_cell_length_a 15.180810
_cell_length_b 13.702808
_cell_length_c 14.574525
_cell_angle_alpha 90.000000
_cell_angle_beta 90.000000
_cell_angle_gamma 90.000000
_cell_volume 3031.788678
_symmetry_space_group_name_H-M "F 2 2 2"
_symmetry_group_IT_number 22
_symmetry_cell_setting 'orthorhombic'
loop_
_space_group_symop_operation_xyz
x,y,z
-x,-y,z
x,-y,-z
-x,y,-z
x,1/2+y,1/2+z
-x,1/2-y,1/2+z
x,1/2-y,1/2-z
-x,1/2+y,1/2-z
1/2+x,y,1/2+z
1/2-x,-y,1/2+z
1/2+x,-y,1/2-z
1/2-x,y,1/2-z
1/2+x,1/2+y,z
1/2-x,1/2-y,z
1/2+x,1/2-y,-z
1/2-x,1/2+y,-z
loop_
_atom_site_type_symbol
_atom_site_label
_atom_site_fract_x
_atom_site_fract_y
_atom_site_fract_z
Si Si1 0.500000 0.500000 0.000000
Si Si2 0.072930 0.857971 0.154926
Si Si3 0.750000 0.416453 0.250000
Si Si4 0.004712 0.857982 0.355535
Si Si5 0.644618 0.016788 0.905184
O O1 0.555849 0.431628 0.070718
O O2 0.173009 0.858667 0.195187
O O3 0.014958 0.881080 0.246586
O O4 0.040449 0.750088 0.127878
O O5 0.703889 0.487047 0.321625
O O6 0.906386 0.882358 0.388031
O O7 0.069289 0.933077 0.405884
O O8 0.694046 0.000000 0.000000
#
# Coordination Sequence:
#
# PCOD9326791 Si02
#       5
#     4  16   8  16  16
#     4  12  24  36  64 102 126 178 216 280 316 406
#     4  10  22  37  64  88 130 161 214 260 326 378
#     4  10  22  41  60  95 130 164 204 273 330 375
#     4   9  19  39  61  88 118 172 207 254 308 403
#     4  10  20  34  64  87 122 162 211 255 315 382
#
# _framework density 19.790296999999999
#
# number of rings (size 3 to 8) (size 9 to 14) (size 15 to 20)
#    0.000    2.133    0.000    4.800    5.600    8.533 
#    0.000    0.000    0.000   12.800    0.000    0.000 
#    0.000    0.000    0.000    0.000    0.000    0.000 
#
# Total GULP energy -83584.935599 kJ/mol
# GULP energy per Si atom -5572.329040 kJ/mol
# Density = 1.974525 g / cm^3
# Si number density = 19.790297 Si / 1000 Ang^3
#
#
#
# Elastic Constant Matrix: (Units=GPa)
#
#
# Indices 1 2 3 4 5 6 
#
# 1 91.9697 49.7628 44.7889 0.0000 0.0000 0.0000
# 2 49.7628 122.8739 50.8397 0.0000 0.0000 0.0000
# 3 44.7889 50.8397 113.1507 0.0000 0.0000 0.0000
# 4 0.0000 0.0000 0.0000 29.2128 0.0000 0.0000
# 5 0.0000 0.0000 0.0000 0.0000 11.1983 0.0000
# 6 0.0000 0.0000 0.0000 0.0000 0.0000 21.1902
#
#
#
# Elastic Compliance Matrix: (Units=1/GPa)
#
#
# Indices 1 2 3 4 5 6 
#
# 1 0.015277 -0.004526 -0.004013 0.000000 0.000000 0.000000
# 2 -0.004526 0.011338 -0.003303 0.000000 0.000000 0.000000
# 3 -0.004013 -0.003303 0.011910 0.000000 0.000000 0.000000
# 4 0.000000 0.000000 0.000000 0.034232 0.000000 0.000000
# 5 0.000000 0.000000 0.000000 0.000000 0.089299 0.000000
# 6 0.000000 0.000000 0.000000 0.000000 0.000000 0.047192
#
#
# Mechanical properties :
#
#
# Convention : Reuss Voigt Hill
#
# Bulk Modulus (GPa) = 67.38338 68.75301 68.06819
# Shear Modulus (GPa) = 21.01912 24.49379 22.75646
#
# Velocity S-wave (km/s) = 3.26251 3.52187 3.39467
# Velocity P-wave (km/s) = 6.95087 7.16619 7.05935
#
# Compressibility (1/GPa) = 0.01484045
#
# Stress axis : x y z
#
# Youngs Moduli (GPa) = 65.45890 88.19863 83.96132
#
# Poissons Ratio (x) = 0.39922 0.33696
# Poissons Ratio (y) = 0.29630 0.27729
# Poissons Ratio (z) = 0.26271 0.29128
#
# Static dielectric constant tensor:
#      x y z
#    x 1.722880 0.000000 0.000000 
#    y 0.000000 1.707660 0.000000 
#    z 0.000000 0.000000 1.776450 
# 
# From -- ./inp_files/28879.got.cif
#   From: 2010.05.17/outbox.cif.g08.bks.cpg/sg22_15_cif.got.tgz:28879.got - 2010.06.03 23:40:54.
