data_PCOD9326239
_publ_section_title
;
Structure prediction by ZEFSAII (Michael W. Deem and Ramdas Pophale) SiO2 
 PCOD9326239
Probable space group: F 2 2 2
;
_chemical_formula_sum "Si O2"
_cell_formula_units_Z 112
_cell_length_a 14.595285
_cell_length_b 12.208062
_cell_length_c 28.999642
_cell_angle_alpha 90.000000
_cell_angle_beta 90.000000
_cell_angle_gamma 90.000000
_cell_volume 5167.160393
_symmetry_space_group_name_H-M "F 2 2 2"
_symmetry_group_IT_number 22
_symmetry_cell_setting 'orthorhombic'
loop_
_space_group_symop_operation_xyz
x,y,z
-x,-y,z
x,-y,-z
-x,y,-z
x,1/2+y,1/2+z
-x,1/2-y,1/2+z
x,1/2-y,1/2-z
-x,1/2+y,1/2-z
1/2+x,y,1/2+z
1/2-x,-y,1/2+z
1/2+x,-y,1/2-z
1/2-x,y,1/2-z
1/2+x,1/2+y,z
1/2-x,1/2-y,z
1/2+x,1/2-y,-z
1/2-x,1/2+y,-z
loop_
_atom_site_type_symbol
_atom_site_label
_atom_site_fract_x
_atom_site_fract_y
_atom_site_fract_z
Si Si1 0.140610 0.033391 0.245047
Si Si2 0.932544 0.600322 0.938450
Si Si3 0.284150 0.636247 0.885937
Si Si4 0.963956 0.746400 0.118525
Si Si5 0.467215 0.164712 0.711594
Si Si6 0.769941 0.879144 0.490767
Si Si7 0.635741 0.018772 0.850078
O O1 0.250000 0.056887 0.250000
O O2 0.111717 0.999959 0.297373
O O3 0.071115 0.127771 0.227092
O O4 0.105753 0.933070 0.213925
O O5 0.861016 0.606836 0.979175
O O6 0.888998 0.570244 0.888421
O O7 0.000000 0.500000 0.947543
O O8 0.985584 0.712345 0.928318
O O9 0.250000 0.750000 0.863718
O O10 0.390644 0.657863 0.891207
O O11 0.244380 0.540912 0.854987
O O12 0.233462 0.624528 0.935194
O O13 0.915232 0.632172 0.134884
O O14 0.025074 0.785643 0.160871
O O15 0.436920 0.250000 0.750000
O O16 0.750000 0.750000 0.502629
O O17 0.721144 0.000000 0.500000
#
# Coordination Sequence:
#
# PCOD9326239 Si02
#       7
#    16  16  16  16  16  16  16
#     4  11  24  38  60  97 129 180 229 283 342 422
#     4  10  22  39  69 100 125 172 236 293 330 425
#     4   9  19  36  61  93 133 169 214 287 354 415
#     4  10  20  38  63  96 128 177 223 284 350 406
#     4  11  22  40  62  89 136 173 222 289 343 408
#     4  11  23  45  66 105 141 177 228 289 362 424
#     4  10  18  37  62  90 128 166 231 287 334 401
#
# _framework density 21.675346999999999
#
# number of rings (size 3 to 8) (size 9 to 14) (size 15 to 20)
#    0.000    1.714    2.857    1.714    6.000    0.857 
#    2.571    1.429    0.000    0.857    0.000    0.000 
#    0.000    0.000    0.000    0.000    0.000    0.000 
#
# Total GULP energy -155926.910032 kJ/mol
# GULP energy per Si atom -5568.818215 kJ/mol
# Density = 2.162601 g / cm^3
# Si number density = 21.675347 Si / 1000 Ang^3
#
#
#
# Elastic Constant Matrix: (Units=GPa)
#
#
# Indices 1 2 3 4 5 6 
#
# 1 60.3887 19.1494 32.1273 0.0000 0.0000 0.0000
# 2 19.1494 87.4568 15.7450 0.0000 0.0000 0.0000
# 3 32.1273 15.7450 106.4751 0.0000 0.0000 0.0000
# 4 0.0000 0.0000 0.0000 21.1598 0.0000 0.0000
# 5 0.0000 0.0000 0.0000 0.0000 13.5830 0.0000
# 6 0.0000 0.0000 0.0000 0.0000 0.0000 24.8464
#
#
#
# Elastic Compliance Matrix: (Units=1/GPa)
#
#
# Indices 1 2 3 4 5 6 
#
# 1 0.020721 -0.003505 -0.005734 0.000000 0.000000 0.000000
# 2 -0.003505 0.012340 -0.000767 0.000000 0.000000 0.000000
# 3 -0.005734 -0.000767 0.011235 0.000000 0.000000 0.000000
# 4 0.000000 0.000000 0.000000 0.047259 0.000000 0.000000
# 5 0.000000 0.000000 0.000000 0.000000 0.073621 0.000000
# 6 0.000000 0.000000 0.000000 0.000000 0.000000 0.040247
#
#
# Mechanical properties :
#
#
# Convention : Reuss Voigt Hill
#
# Bulk Modulus (GPa) = 41.17872 43.15155 42.16514
# Shear Modulus (GPa) = 21.41039 24.40444 22.90741
#
# Velocity S-wave (km/s) = 3.14630 3.35909 3.25444
# Velocity P-wave (km/s) = 5.67786 5.91574 5.79802
#
# Compressibility (1/GPa) = 0.02428439
#
# Stress axis : x y z
#
# Youngs Moduli (GPa) = 48.25937 81.03891 89.00366
#
# Poissons Ratio (x) = 0.28402 0.51035
# Poissons Ratio (y) = 0.16914 0.06829
# Poissons Ratio (z) = 0.27672 0.06218
#
# Static dielectric constant tensor:
#      x y z
#    x 1.913170 0.000000 0.000000 
#    y 0.000000 1.832950 0.000000 
#    z 0.000000 0.000000 1.772360 
# 
# From -- ./inp_files/56466.got.cif
#   From: 2010.05.17/outbox.cif.g08.bks.cpg/sg22_29_cif.got.tgz:56466.got - 2010.06.03 23:40:54.
