data_PCOD9326182
_publ_section_title
;
Structure prediction by ZEFSAII (Michael W. Deem and Ramdas Pophale) SiO2 
 PCOD9326182
Probable space group: F 2 2 2
;
_chemical_formula_sum "Si O2"
_cell_formula_units_Z 80
_cell_length_a 5.137949
_cell_length_b 27.488317
_cell_length_c 24.562274
_cell_angle_alpha 90.000000
_cell_angle_beta 90.000000
_cell_angle_gamma 90.000000
_cell_volume 3469.017665
_symmetry_space_group_name_H-M "F 2 2 2"
_symmetry_group_IT_number 22
_symmetry_cell_setting 'orthorhombic'
loop_
_space_group_symop_operation_xyz
x,y,z
-x,-y,z
x,-y,-z
-x,y,-z
x,1/2+y,1/2+z
-x,1/2-y,1/2+z
x,1/2-y,1/2-z
-x,1/2+y,1/2-z
1/2+x,y,1/2+z
1/2-x,-y,1/2+z
1/2+x,-y,1/2-z
1/2-x,y,1/2-z
1/2+x,1/2+y,z
1/2-x,1/2-y,z
1/2+x,1/2-y,-z
1/2-x,1/2+y,-z
loop_
_atom_site_type_symbol
_atom_site_label
_atom_site_fract_x
_atom_site_fract_y
_atom_site_fract_z
Si Si1 0.504761 0.057991 0.132426
Si Si2 0.701851 0.192165 0.106575
Si Si3 0.507897 0.558680 0.061654
Si Si4 0.693791 0.808031 0.448848
Si Si5 0.496529 0.356443 0.286905
O O1 0.488638 0.174057 0.061942
O O2 0.460601 0.090887 0.184992
O O3 0.278248 0.069602 0.089930
O O4 0.500000 0.000000 0.143948
O O5 0.771787 0.071259 0.101681
O O6 0.997287 0.173568 0.098612
O O7 0.567930 0.179550 0.163518
O O8 0.500000 0.500000 0.057294
O O9 0.500000 0.578011 0.000000
O O10 0.500000 0.815007 0.500000
O O11 0.250000 0.750000 0.398566
O O12 0.750000 0.750000 0.447599
O O13 0.250000 0.342976 0.250000
O O14 0.750000 0.358580 0.250000
#
# Coordination Sequence:
#
# PCOD9326182 Si02
#       5
#    16  16  16  16  16
#     4  10  21  38  61  90 123 160 203 248 303 369
#     4  10  22  40  61  87 119 155 197 244 298 362
#     4   9  17  33  59  90 125 162 197 239 296 367
#     4  10  18  34  62  93 124 155 187 231 295 368
#     4  12  26  44  63  85 119 160 210 270 313 348
#
# _framework density 23.061285000000002
#
# number of rings (size 3 to 8) (size 9 to 14) (size 15 to 20)
#    0.000    1.800    0.000    5.400    0.000    3.600 
#    0.000    7.000    0.000    0.000    0.000    0.000 
#    0.000    0.000    0.000    0.000    0.000    0.000 
#
# Total GULP energy -111729.288919 kJ/mol
# GULP energy per Si atom -5586.464446 kJ/mol
# Density = 2.300880 g / cm^3
# Si number density = 23.061285 Si / 1000 Ang^3
#
#
#
# Elastic Constant Matrix: (Units=GPa)
#
#
# Indices 1 2 3 4 5 6 
#
# 1 130.2584 48.1488 51.5016 0.0000 0.0000 0.0000
# 2 48.1488 95.2025 10.4605 0.0000 0.0000 0.0000
# 3 51.5016 10.4605 119.9222 0.0000 0.0000 0.0000
# 4 0.0000 0.0000 0.0000 58.5188 0.0000 0.0000
# 5 0.0000 0.0000 0.0000 0.0000 29.4144 0.0000
# 6 0.0000 0.0000 0.0000 0.0000 0.0000 35.8044
#
#
#
# Elastic Compliance Matrix: (Units=1/GPa)
#
#
# Indices 1 2 3 4 5 6 
#
# 1 0.011373 -0.005266 -0.004425 0.000000 0.000000 0.000000
# 2 -0.005266 0.013044 0.001124 0.000000 0.000000 0.000000
# 3 -0.004425 0.001124 0.010141 0.000000 0.000000 0.000000
# 4 0.000000 0.000000 0.000000 0.017089 0.000000 0.000000
# 5 0.000000 0.000000 0.000000 0.000000 0.033997 0.000000
# 6 0.000000 0.000000 0.000000 0.000000 0.000000 0.027930
#
#
# Mechanical properties :
#
#
# Convention : Reuss Voigt Hill
#
# Bulk Modulus (GPa) = 57.39315 62.84498 60.11906
# Shear Modulus (GPa) = 36.62616 40.43235 38.52925
#
# Velocity S-wave (km/s) = 3.98956 4.19173 4.09189
# Velocity P-wave (km/s) = 6.79436 7.12306 6.96065
#
# Compressibility (1/GPa) = 0.01742368
#
# Stress axis : x y z
#
# Youngs Moduli (GPa) = 87.92766 76.66593 98.60921
#
# Poissons Ratio (x) = 0.40370 0.43634
# Poissons Ratio (y) = 0.46300 -0.11080
# Poissons Ratio (z) = 0.38907 -0.08615
#
# Static dielectric constant tensor:
#      x y z
#    x 1.825010 0.000000 0.000000 
#    y 0.000000 1.947620 0.000000 
#    z 0.000000 0.000000 1.886960 
# 
# From -- ./inp_files/51277.got.cif
#   From: 2010.05.17/outbox.cif.g08.bks.cpg/sg22_26_cif.got.tgz:51277.got - 2010.06.03 23:40:54.
