data_PCOD9326158
_publ_section_title
;
Structure prediction by ZEFSAII (Michael W. Deem and Ramdas Pophale) SiO2 
 PCOD9326158
Probable space group: F 2 2 2
;
_chemical_formula_sum "Si O2"
_cell_formula_units_Z 84
_cell_length_a 9.216423
_cell_length_b 18.142581
_cell_length_c 25.574314
_cell_angle_alpha 90.000000
_cell_angle_beta 90.000000
_cell_angle_gamma 90.000000
_cell_volume 4276.273392
_symmetry_space_group_name_H-M "F 2 2 2"
_symmetry_group_IT_number 22
_symmetry_cell_setting 'orthorhombic'
loop_
_space_group_symop_operation_xyz
x,y,z
-x,-y,z
x,-y,-z
-x,y,-z
x,1/2+y,1/2+z
-x,1/2-y,1/2+z
x,1/2-y,1/2-z
-x,1/2+y,1/2-z
1/2+x,y,1/2+z
1/2-x,-y,1/2+z
1/2+x,-y,1/2-z
1/2-x,y,1/2-z
1/2+x,1/2+y,z
1/2-x,1/2-y,z
1/2+x,1/2-y,-z
1/2-x,1/2+y,-z
loop_
_atom_site_type_symbol
_atom_site_label
_atom_site_fract_x
_atom_site_fract_y
_atom_site_fract_z
Si Si1 0.750000 0.593927 0.750000
Si Si2 0.140400 0.136091 0.163346
Si Si3 0.500000 0.000000 0.722603
Si Si4 0.175529 0.670482 0.357999
Si Si5 0.250000 0.750000 0.750000
Si Si6 0.675523 0.669194 0.545278
Si Si7 0.665923 0.171596 0.930571
O O1 0.609726 0.544479 0.741661
O O2 0.786220 0.638086 0.698152
O O3 0.169254 0.193682 0.210633
O O4 0.272362 0.133019 0.121840
O O5 0.092313 0.057359 0.187293
O O6 0.996770 0.168422 0.135601
O O7 0.250000 0.750000 0.357518
O O8 0.244191 0.628742 0.407357
O O9 0.750000 0.750000 0.540358
O O10 0.697517 0.635640 0.487614
O O11 0.508522 0.679233 0.563698
O O12 0.750000 0.250000 0.928669
#
# Coordination Sequence:
#
# PCOD9326158 Si02
#       7
#     8  16   8  16   4  16  16
#     4  10  22  38  58  74 118 154 204 242 307 367
#     4  11  24  38  60  86 125 158 211 250 319 363
#     4  10  24  42  56  87 118 175 200 252 312 396
#     4  10  21  34  56  87 113 152 192 252 302 362
#     4  12  26  36  62  98 120 162 214 274 298 372
#     4   9  19  31  54  87 125 152 192 245 324 363
#     4  10  18  34  56  87 121 159 191 254 308 375
#
# _framework density 19.643272
#
# number of rings (size 3 to 8) (size 9 to 14) (size 15 to 20)
#    0.000    1.905    0.952    3.143    5.333    3.810 
#    0.000    0.000    0.000    9.143    0.000   10.667 
#    0.000    0.000    0.000    0.000    0.000    0.000 
#
# Total GULP energy -116904.312110 kJ/mol
# GULP energy per Si atom -5566.872005 kJ/mol
# Density = 1.959856 g / cm^3
# Si number density = 19.643272 Si / 1000 Ang^3
#
#
#
# Elastic Constant Matrix: (Units=GPa)
#
#
# Indices 1 2 3 4 5 6 
#
# 1 108.0749 10.1514 50.8329 0.0000 0.0000 0.0000
# 2 10.1514 43.7370 13.3156 0.0000 0.0000 0.0000
# 3 50.8329 13.3156 120.5437 0.0000 0.0000 0.0000
# 4 0.0000 0.0000 0.0000 -3.7978 0.0000 0.0000
# 5 0.0000 0.0000 0.0000 0.0000 36.1158 0.0000
# 6 0.0000 0.0000 0.0000 0.0000 0.0000 25.3899
#
#
#
# Elastic Compliance Matrix: (Units=1/GPa)
#
#
# Indices 1 2 3 4 5 6 
#
# 1 0.011607 -0.001246 -0.004757 0.000000 0.000000 0.000000
# 2 -0.001246 0.023793 -0.002103 0.000000 0.000000 0.000000
# 3 -0.004757 -0.002103 0.010534 0.000000 0.000000 0.000000
# 4 0.000000 0.000000 0.000000 -0.263313 0.000000 0.000000
# 5 0.000000 0.000000 0.000000 0.000000 0.027689 0.000000
# 6 0.000000 0.000000 0.000000 0.000000 0.000000 0.039386
#
#
# Mechanical properties :
#
#
# Convention : Reuss Voigt Hill
#
# Bulk Modulus (GPa) = 33.64392 46.77282 40.20837
# Shear Modulus (GPa) = -40.26272 24.74530 -7.75871
#
# Velocity S-wave (km/s) = -4.53227 3.55312 -1.98957
# Velocity P-wave (km/s) = 3.19749 6.37932 3.90332
#
# Compressibility (1/GPa) = 0.02972305
#
# Stress axis : x y z
#
# Youngs Moduli (GPa) = 86.15192 42.02861 94.92949
#
# Poissons Ratio (x) = 0.05236 0.45160
# Poissons Ratio (y) = 0.10733 0.19963
# Poissons Ratio (z) = 0.40984 0.08838
#
# Static dielectric constant tensor:
#      x y z
#    x 1.722740 0.000000 0.000000 
#    y 0.000000 1.705080 0.000000 
#    z 0.000000 0.000000 1.768070 
# 
# From -- ./inp_files/47361.got.cif
#   From: 2010.05.17/outbox.cif.g08.bks.cpg/sg22_24_cif.got.tgz:47361.got - 2010.06.03 23:40:54.
