data_PCOD9326671
_publ_section_title
;
Structure prediction by ZEFSAII (Michael W. Deem and Ramdas Pophale) SiO2 
 PCOD9326671
Probable space group: F 2 2 2
;
_chemical_formula_sum "Si O2"
_cell_formula_units_Z 88
_cell_length_a 15.392847
_cell_length_b 24.240271
_cell_length_c 10.886060
_cell_angle_alpha 90.000000
_cell_angle_beta 90.000000
_cell_angle_gamma 90.000000
_cell_volume 4061.880545
_symmetry_space_group_name_H-M "F 2 2 2"
_symmetry_group_IT_number 22
_symmetry_cell_setting 'orthorhombic'
loop_
_space_group_symop_operation_xyz
x,y,z
-x,-y,z
x,-y,-z
-x,y,-z
x,1/2+y,1/2+z
-x,1/2-y,1/2+z
x,1/2-y,1/2-z
-x,1/2+y,1/2-z
1/2+x,y,1/2+z
1/2-x,-y,1/2+z
1/2+x,-y,1/2-z
1/2-x,y,1/2-z
1/2+x,1/2+y,z
1/2-x,1/2-y,z
1/2+x,1/2-y,-z
1/2-x,1/2+y,-z
loop_
_atom_site_type_symbol
_atom_site_label
_atom_site_fract_x
_atom_site_fract_y
_atom_site_fract_z
Si Si1 0.250000 0.859267 0.250000
Si Si2 0.500000 0.353879 0.500000
Si Si3 0.047889 0.750000 0.250000
Si Si4 0.333525 0.554277 0.835659
Si Si5 0.476550 0.871441 0.739623
Si Si6 0.618021 0.066247 0.386535
Si Si7 0.168757 0.716954 0.041239
O O1 0.325636 0.898172 0.294268
O O2 0.216903 0.823041 0.363002
O O3 0.510635 0.387867 0.375311
O O4 0.410896 0.317637 0.480034
O O5 0.110758 0.754734 0.131990
O O6 0.992905 0.805908 0.240916
O O7 0.250000 0.543404 0.750000
O O8 0.380011 0.606533 0.774442
O O9 0.386648 0.496717 0.840983
O O10 0.332238 0.567579 0.982111
O O11 0.526546 0.902978 0.630320
O O12 0.250000 0.750000 0.978919
#
# Coordination Sequence:
#
# PCOD9326671 Si02
#       7
#     8   8   8  16  16  16  16
#     4  12  19  38  74  98 124 175 236 274 342 422
#     4  10  24  38  65 102 144 170 237 302 334 416
#     4  10  19  40  63  96 132 174 241 278 334 413
#     4  11  26  44  69 103 137 173 234 294 349 416
#     4  11  23  46  64  97 140 183 231 283 350 424
#     4  11  23  45  73  97 133 185 227 281 355 433
#     4  11  19  39  65 100 134 180 237 288 342 419
#
# _framework density 21.664843000000001
#
# number of rings (size 3 to 8) (size 9 to 14) (size 15 to 20)
#    0.000    1.091    6.364    1.091    2.545    1.455 
#   19.636    1.364    0.000    0.000    0.000    0.000 
#    0.000    0.000    0.000    0.000    0.000    0.000 
#
# Total GULP energy -122472.410569 kJ/mol
# GULP energy per Si atom -5566.927753 kJ/mol
# Density = 2.161553 g / cm^3
# Si number density = 21.664843 Si / 1000 Ang^3
#
#
#
# Elastic Constant Matrix: (Units=GPa)
#
#
# Indices 1 2 3 4 5 6 
#
# 1 86.8341 35.5450 21.5857 0.0000 0.0000 0.0000
# 2 35.5450 91.7667 16.6987 0.0000 0.0000 0.0000
# 3 21.5857 16.6987 86.0153 0.0000 0.0000 0.0000
# 4 0.0000 0.0000 0.0000 24.0601 0.0000 0.0000
# 5 0.0000 0.0000 0.0000 0.0000 35.1715 0.0000
# 6 0.0000 0.0000 0.0000 0.0000 0.0000 28.5083
#
#
#
# Elastic Compliance Matrix: (Units=1/GPa)
#
#
# Indices 1 2 3 4 5 6 
#
# 1 0.014222 -0.005037 -0.002591 0.000000 0.000000 0.000000
# 2 -0.005037 0.013080 -0.001275 0.000000 0.000000 0.000000
# 3 -0.002591 -0.001275 0.012524 0.000000 0.000000 0.000000
# 4 0.000000 0.000000 0.000000 0.041563 0.000000 0.000000
# 5 0.000000 0.000000 0.000000 0.000000 0.028432 0.000000
# 6 0.000000 0.000000 0.000000 0.000000 0.000000 0.035077
#
#
# Mechanical properties :
#
#
# Convention : Reuss Voigt Hill
#
# Bulk Modulus (GPa) = 45.41564 45.80830 45.61197
# Shear Modulus (GPa) = 29.40383 30.26710 29.83547
#
# Velocity S-wave (km/s) = 3.68804 3.74178 3.71501
# Velocity P-wave (km/s) = 6.25650 6.31331 6.28497
#
# Compressibility (1/GPa) = 0.02201885
#
# Stress axis : x y z
#
# Youngs Moduli (GPa) = 70.31178 76.45009 79.84876
#
# Poissons Ratio (x) = 0.38511 0.20690
# Poissons Ratio (y) = 0.35419 0.10183
# Poissons Ratio (z) = 0.18219 0.09749
#
# Static dielectric constant tensor:
#      x y z
#    x 1.815170 0.000000 0.000000 
#    y 0.000000 1.803580 0.000000 
#    z 0.000000 0.000000 1.828840 
# 
# From -- ./inp_files/19997.got.cif
#   From: 2010.05.17/outbox.cif.g08.bks.cpg/sg22_10_cif.got.tgz:19997.got - 2010.06.03 23:40:54.
