data_PCOD9326450
_publ_section_title
;
Structure prediction by ZEFSAII (Michael W. Deem and Ramdas Pophale) SiO2 
 PCOD9326450
Probable space group: F 2 2 2
;
_chemical_formula_sum "Si O2"
_cell_formula_units_Z 100
_cell_length_a 14.275057
_cell_length_b 26.972961
_cell_length_c 13.712597
_cell_angle_alpha 90.000000
_cell_angle_beta 90.000000
_cell_angle_gamma 90.000000
_cell_volume 5279.905969
_symmetry_space_group_name_H-M "F 2 2 2"
_symmetry_group_IT_number 22
_symmetry_cell_setting 'orthorhombic'
loop_
_space_group_symop_operation_xyz
x,y,z
-x,-y,z
x,-y,-z
-x,y,-z
x,1/2+y,1/2+z
-x,1/2-y,1/2+z
x,1/2-y,1/2-z
-x,1/2+y,1/2-z
1/2+x,y,1/2+z
1/2-x,-y,1/2+z
1/2+x,-y,1/2-z
1/2-x,y,1/2-z
1/2+x,1/2+y,z
1/2-x,1/2-y,z
1/2+x,1/2-y,-z
1/2-x,1/2+y,-z
loop_
_atom_site_type_symbol
_atom_site_label
_atom_site_fract_x
_atom_site_fract_y
_atom_site_fract_z
Si Si1 0.250000 0.430946 0.250000
Si Si2 0.372900 0.841157 0.825181
Si Si3 0.593713 0.027258 0.605983
Si Si4 0.555068 0.693643 0.740154
Si Si5 0.750000 0.750000 0.250000
Si Si6 0.000000 0.615242 0.500000
Si Si7 0.150127 0.193573 0.935870
Si Si8 0.366709 0.194397 0.971451
O O1 0.314431 0.391308 0.309666
O O2 0.318489 0.463452 0.178849
O O3 0.461321 0.839015 0.751924
O O4 0.312976 0.790175 0.808607
O O5 0.405705 0.834896 0.936667
O O6 0.550705 0.079986 0.576955
O O7 0.500000 0.000000 0.647567
O O8 0.616562 0.000000 0.500000
O O9 0.518903 0.750000 0.750000
O O10 0.637348 0.693674 0.819354
O O11 0.596764 0.681627 0.635248
O O12 0.081794 0.650352 0.464697
O O13 0.255268 0.186115 0.969490
O O14 0.117063 0.246349 0.978677
#
# Coordination Sequence:
#
# PCOD9326450 Si02
#       8
#     8  16  16  16   4   8  16  16
#     4  11  22  39  70  90 120 150 188 249 310 373
#     4  11  21  33  54  86 118 154 200 238 281 338
#     4   9  21  42  70  94 114 140 192 253 315 383
#     4  10  20  32  49  69 115 170 209 234 276 322
#     4  10  20  32  48  80 112 148 196 236 264 298
#     4  10  19  34  64  90 110 146 208 258 281 338
#     4  10  20  32  52  77 113 159 214 242 276 323
#     4  10  21  33  47  74 120 171 199 239 281 322
#
# _framework density 18.939730999999998
#
# number of rings (size 3 to 8) (size 9 to 14) (size 15 to 20)
#    0.000    2.080    0.800    3.840    4.480    4.480 
#    0.000    0.000   35.200    0.000    0.000    0.000 
#    0.000    0.000    0.000    0.000    0.000    0.000 
#
# Total GULP energy -139230.240988 kJ/mol
# GULP energy per Si atom -5569.209640 kJ/mol
# Density = 1.889662 g / cm^3
# Si number density = 18.939731 Si / 1000 Ang^3
#
#
#
# Elastic Constant Matrix: (Units=GPa)
#
#
# Indices 1 2 3 4 5 6 
#
# 1 85.1221 33.1165 31.3206 0.0000 0.0000 0.0000
# 2 33.1165 68.9820 39.6588 0.0000 0.0000 0.0000
# 3 31.3206 39.6588 85.4518 0.0000 0.0000 0.0000
# 4 0.0000 0.0000 0.0000 21.0186 0.0000 0.0000
# 5 0.0000 0.0000 0.0000 0.0000 31.5786 0.0000
# 6 0.0000 0.0000 0.0000 0.0000 0.0000 20.5925
#
#
#
# Elastic Compliance Matrix: (Units=1/GPa)
#
#
# Indices 1 2 3 4 5 6 
#
# 1 0.014966 -0.005498 -0.002934 0.000000 0.000000 0.000000
# 2 -0.005498 0.021792 -0.008099 0.000000 0.000000 0.000000
# 3 -0.002934 -0.008099 0.016536 0.000000 0.000000 0.000000
# 4 0.000000 0.000000 0.000000 0.047577 0.000000 0.000000
# 5 0.000000 0.000000 0.000000 0.000000 0.031667 0.000000
# 6 0.000000 0.000000 0.000000 0.000000 0.000000 0.048561
#
#
# Mechanical properties :
#
#
# Convention : Reuss Voigt Hill
#
# Bulk Modulus (GPa) = 49.42285 49.74975 49.58630
# Shear Modulus (GPa) = 22.63403 23.66861 23.15132
#
# Velocity S-wave (km/s) = 3.46071 3.53892 3.50003
# Velocity P-wave (km/s) = 6.49000 6.55919 6.52469
#
# Compressibility (1/GPa) = 0.02023355
#
# Stress axis : x y z
#
# Youngs Moduli (GPa) = 66.81618 45.88805 60.47242
#
# Poissons Ratio (x) = 0.25231 0.17742
# Poissons Ratio (y) = 0.36738 0.48974
# Poissons Ratio (z) = 0.19603 0.37163
#
# Static dielectric constant tensor:
#      x y z
#    x 1.679570 0.000000 0.000000 
#    y 0.000000 1.670070 0.000000 
#    z 0.000000 0.000000 1.752630 
# 
# From -- ./inp_files/29722.got.cif
#   From: 2010.05.17/outbox.cif.g08.bks.cpg/sg22_15_cif.got.tgz:29722.got - 2010.06.03 23:40:54.
