data_PCOD9326424
_publ_section_title
;
Structure prediction by ZEFSAII (Michael W. Deem and Ramdas Pophale) SiO2 
 PCOD9326424
Probable space group: F 2 2 2
;
_chemical_formula_sum "Si O2"
_cell_formula_units_Z 104
_cell_length_a 21.117543
_cell_length_b 26.008630
_cell_length_c 8.971228
_cell_angle_alpha 90.000000
_cell_angle_beta 90.000000
_cell_angle_gamma 90.000000
_cell_volume 4927.342575
_symmetry_space_group_name_H-M "F 2 2 2"
_symmetry_group_IT_number 22
_symmetry_cell_setting 'orthorhombic'
loop_
_space_group_symop_operation_xyz
x,y,z
-x,-y,z
x,-y,-z
-x,y,-z
x,1/2+y,1/2+z
-x,1/2-y,1/2+z
x,1/2-y,1/2-z
-x,1/2+y,1/2-z
1/2+x,y,1/2+z
1/2-x,-y,1/2+z
1/2+x,-y,1/2-z
1/2-x,y,1/2-z
1/2+x,1/2+y,z
1/2-x,1/2-y,z
1/2+x,1/2-y,-z
1/2-x,1/2+y,-z
loop_
_atom_site_type_symbol
_atom_site_label
_atom_site_fract_x
_atom_site_fract_y
_atom_site_fract_z
Si Si1 0.662793 0.750000 0.250000
Si Si2 0.982575 0.399700 0.340407
Si Si3 0.903406 0.808945 0.776514
Si Si4 0.347237 0.337977 0.473802
Si Si5 0.200344 0.166653 0.014735
Si Si6 0.874371 0.088459 0.778374
Si Si7 0.575332 0.511753 0.674531
O O1 0.632125 0.709565 0.365985
O O2 0.697450 0.789919 0.357907
O O3 0.954934 0.343091 0.360331
O O4 0.929764 0.432116 0.249507
O O5 0.000000 0.424662 0.500000
O O6 0.051850 0.394667 0.270023
O O7 0.920354 0.750000 0.750000
O O8 0.891021 0.834142 0.616205
O O9 0.840683 0.813945 0.876586
O O10 0.273996 0.335820 0.523762
O O11 0.348127 0.389246 0.375485
O O12 0.165674 0.116361 0.090074
O O13 0.881295 0.026863 0.771179
O O14 0.500000 0.500000 0.686715
O O15 0.590600 0.500000 0.500000
#
# Coordination Sequence:
#
# PCOD9326424 Si02
#       7
#     8  16  16  16  16  16  16
#     4  10  19  34  58  86 118 166 222 258 305 370
#     4  11  23  44  65  96 134 170 215 266 327 390
#     4  12  25  41  61  91 134 173 218 269 320 383
#     4  11  22  37  65  91 125 170 217 269 322 371
#     4  11  21  39  61  94 126 169 217 267 315 384
#     4  10  21  40  65  94 128 160 213 269 315 394
#     4   9  19  37  67  94 122 164 215 259 312 383
#
# _framework density 21.106711000000001
#
# number of rings (size 3 to 8) (size 9 to 14) (size 15 to 20)
#    0.000    1.385    3.077    4.154    0.000    5.231 
#    8.308    0.000    0.000    9.231    0.000    0.000 
#    0.000    0.000    0.000    0.000    0.000    0.000 
#
# Total GULP energy -144810.642229 kJ/mol
# GULP energy per Si atom -5569.640086 kJ/mol
# Density = 2.105867 g / cm^3
# Si number density = 21.106711 Si / 1000 Ang^3
#
#
#
# Elastic Constant Matrix: (Units=GPa)
#
#
# Indices 1 2 3 4 5 6 
#
# 1 26.1612 18.2661 -0.7198 0.0000 -0.0002 -0.0001
# 2 18.2661 121.0532 25.2229 0.0000 0.0000 0.0000
# 3 -0.7198 25.2229 63.0518 0.0001 -0.0002 -0.0003
# 4 0.0000 0.0000 0.0001 12.2810 -0.0001 -0.0002
# 5 -0.0002 0.0000 -0.0002 -0.0001 8.1823 0.0003
# 6 -0.0001 0.0000 -0.0003 -0.0002 0.0003 2.0258
#
#
#
# Elastic Compliance Matrix: (Units=1/GPa)
#
#
# Indices 1 2 3 4 5 6 
#
# 1 0.043383 -0.007254 0.003397 0.000000 0.000001 0.000003
# 2 -0.007254 0.010225 -0.004173 0.000000 0.000000 -0.000001
# 3 0.003397 -0.004173 0.017568 0.000000 0.000001 0.000003
# 4 0.000000 0.000000 0.000000 0.081426 0.000001 0.000007
# 5 0.000001 0.000000 0.000001 0.000001 0.122215 -0.000016
# 6 0.000003 -0.000001 0.000003 0.000007 -0.000016 0.493630
#
#
# Mechanical properties :
#
#
# Convention : Reuss Voigt Hill
#
# Bulk Modulus (GPa) = 18.14360 32.86721 25.50540
# Shear Modulus (GPa) = 6.22759 15.66429 10.94594
#
# Velocity S-wave (km/s) = 1.71957 2.72719 2.27975
# Velocity P-wave (km/s) = 3.54364 5.05198 4.36348
#
# Compressibility (1/GPa) = 0.05511587
#
# Stress axis : x y z
#
# Youngs Moduli (GPa) = 23.05055 97.80010 56.92120
#
# Poissons Ratio (x) = 0.70944 -0.19337
# Poissons Ratio (y) = 0.16721 0.23754
# Poissons Ratio (z) = -0.07830 0.40813
#
# Static dielectric constant tensor:
#      x y z
#    x 1.811610 0.000000 0.000000 
#    y 0.000000 1.838240 0.000000 
#    z 0.000000 0.000000 1.838200 
# 
# From -- ./inp_files/12952.got.cif
#   From: 2010.05.17/outbox.cif.g08.bks.cpg/sg22_7_cif.got.tgz:12952.got - 2010.06.03 23:40:54.
