data_PCOD9326394
_publ_section_title
;
Structure prediction by ZEFSAII (Michael W. Deem and Ramdas Pophale) SiO2 
 PCOD9326394
Probable space group: F 2 2 2
;
_chemical_formula_sum "Si O2"
_cell_formula_units_Z 104
_cell_length_a 20.527579
_cell_length_b 18.057993
_cell_length_c 14.417531
_cell_angle_alpha 90.000000
_cell_angle_beta 90.000000
_cell_angle_gamma 90.000000
_cell_volume 5344.389553
_symmetry_space_group_name_H-M "F 2 2 2"
_symmetry_group_IT_number 22
_symmetry_cell_setting 'orthorhombic'
loop_
_space_group_symop_operation_xyz
x,y,z
-x,-y,z
x,-y,-z
-x,y,-z
x,1/2+y,1/2+z
-x,1/2-y,1/2+z
x,1/2-y,1/2-z
-x,1/2+y,1/2-z
1/2+x,y,1/2+z
1/2-x,-y,1/2+z
1/2+x,-y,1/2-z
1/2-x,y,1/2-z
1/2+x,1/2+y,z
1/2-x,1/2-y,z
1/2+x,1/2-y,-z
1/2-x,1/2+y,-z
loop_
_atom_site_type_symbol
_atom_site_label
_atom_site_fract_x
_atom_site_fract_y
_atom_site_fract_z
Si Si1 0.297658 0.630314 0.836808
Si Si2 0.554978 0.315945 0.825990
Si Si3 0.909493 0.640516 0.691837
Si Si4 0.260533 0.170293 0.972062
Si Si5 0.793548 0.956168 0.841730
Si Si6 0.000000 0.763027 0.500000
Si Si7 0.111702 0.701498 0.107480
O O1 0.250000 0.647530 0.750000
O O2 0.373658 0.647864 0.817604
O O3 0.289705 0.543197 0.859371
O O4 0.272634 0.672313 0.928125
O O5 0.551342 0.250000 0.750000
O O6 0.488076 0.362783 0.809929
O O7 0.545343 0.285195 0.931155
O O8 0.868926 0.567982 0.667889
O O9 0.883025 0.665220 0.792343
O O10 0.889538 0.709286 0.624466
O O11 0.250000 0.250000 0.921891
O O12 0.234540 0.099243 0.918426
O O13 0.338291 0.169661 0.966785
O O14 0.750000 0.941957 0.750000
O O15 0.040764 0.813130 0.431481
#
# Coordination Sequence:
#
# PCOD9326394 Si02
#       7
#    16  16  16  16  16   8  16
#     4  11  29  44  59  91 136 190 212 254 325 409
#     4  11  23  41  65  91 129 169 221 271 316 391
#     4  10  19  38  65  97 120 157 212 274 340 368
#     4  12  23  37  67  96 120 165 218 270 319 383
#     4  11  23  43  64  94 137 164 214 273 336 395
#     4  10  20  38  60  95 125 154 208 280 332 358
#     4  10  19  33  62  97 120 150 203 284 324 365
#
# _framework density 19.459658999999998
#
# number of rings (size 3 to 8) (size 9 to 14) (size 15 to 20)
#    0.000    1.231    6.154    1.385    6.462    0.923 
#    0.000    0.000    0.000    0.000    0.000    1.077 
#    0.000    0.000    0.000    0.000    0.000    0.000 
#
# Total GULP energy -144892.278116 kJ/mol
# GULP energy per Si atom -5572.779928 kJ/mol
# Density = 1.941537 g / cm^3
# Si number density = 19.459659 Si / 1000 Ang^3
#
#
#
# Elastic Constant Matrix: (Units=GPa)
#
#
# Indices 1 2 3 4 5 6 
#
# 1 144.9216 34.3265 18.0389 0.0000 0.0000 0.0000
# 2 34.3265 56.6372 23.3260 0.0000 0.0000 0.0000
# 3 18.0389 23.3260 59.4031 0.0000 0.0000 0.0000
# 4 0.0000 0.0000 0.0000 15.7601 0.0000 0.0000
# 5 0.0000 0.0000 0.0000 0.0000 32.7718 0.0000
# 6 0.0000 0.0000 0.0000 0.0000 0.0000 28.7255
#
#
#
# Elastic Compliance Matrix: (Units=1/GPa)
#
#
# Indices 1 2 3 4 5 6 
#
# 1 0.008077 -0.004635 -0.000633 0.000000 0.000000 0.000000
# 2 -0.004635 0.023722 -0.007908 0.000000 0.000000 0.000000
# 3 -0.000633 -0.007908 0.020131 0.000000 0.000000 0.000000
# 4 0.000000 0.000000 0.000000 0.063452 0.000000 0.000000
# 5 0.000000 0.000000 0.000000 0.000000 0.030514 0.000000
# 6 0.000000 0.000000 0.000000 0.000000 0.000000 0.034812
#
#
# Mechanical properties :
#
#
# Convention : Reuss Voigt Hill
#
# Bulk Modulus (GPa) = 39.09272 45.81607 42.45439
# Shear Modulus (GPa) = 23.19277 27.80284 25.49781
#
# Velocity S-wave (km/s) = 3.45605 3.78397 3.62372
# Velocity P-wave (km/s) = 6.00486 6.53349 6.27475
#
# Compressibility (1/GPa) = 0.02558021
#
# Stress axis : x y z
#
# Youngs Moduli (GPa) = 123.81152 42.15531 49.67368
#
# Poissons Ratio (x) = 0.19537 0.03143
# Poissons Ratio (y) = 0.57381 0.39280
# Poissons Ratio (z) = 0.07835 0.33334
#
# Static dielectric constant tensor:
#      x y z
#    x 1.786450 0.000000 0.000000 
#    y 0.000000 1.687930 0.000000 
#    z 0.000000 0.000000 1.725010 
# 
# From -- ./inp_files/31691.got.cif
#   From: 2010.05.17/outbox.cif.g08.bks.cpg/sg22_16_cif.got.tgz:31691.got - 2010.06.03 23:40:54.
