data_PCOD9326531
_publ_section_title
;
Structure prediction by ZEFSAII (Michael W. Deem and Ramdas Pophale) SiO2 
 PCOD9326531
Probable space group: F 2 2 2
;
_chemical_formula_sum "Si O2"
_cell_formula_units_Z 80
_cell_length_a 7.845559
_cell_length_b 17.309119
_cell_length_c 24.742582
_cell_angle_alpha 90.000000
_cell_angle_beta 90.000000
_cell_angle_gamma 90.000000
_cell_volume 3360.035568
_symmetry_space_group_name_H-M "F 2 2 2"
_symmetry_group_IT_number 22
_symmetry_cell_setting 'orthorhombic'
loop_
_space_group_symop_operation_xyz
x,y,z
-x,-y,z
x,-y,-z
-x,y,-z
x,1/2+y,1/2+z
-x,1/2-y,1/2+z
x,1/2-y,1/2-z
-x,1/2+y,1/2-z
1/2+x,y,1/2+z
1/2-x,-y,1/2+z
1/2+x,-y,1/2-z
1/2-x,y,1/2-z
1/2+x,1/2+y,z
1/2-x,1/2-y,z
1/2+x,1/2-y,-z
1/2-x,1/2+y,-z
loop_
_atom_site_type_symbol
_atom_site_label
_atom_site_fract_x
_atom_site_fract_y
_atom_site_fract_z
Si Si1 0.423534 0.835339 0.726253
Si Si2 0.360814 0.830567 0.374744
Si Si3 0.747373 0.661776 0.987373
Si Si4 0.565941 0.089278 0.926033
Si Si5 0.065473 0.085418 0.680645
O O1 0.422093 0.750000 0.750000
O O2 0.250000 0.872507 0.750000
O O3 0.474879 0.830882 0.663841
O O4 0.567354 0.875815 0.761760
O O5 0.250000 0.750000 0.368112
O O6 0.390449 0.842280 0.438918
O O7 0.241427 0.899117 0.350832
O O8 0.750000 0.750000 0.006926
O O9 0.917902 0.641716 0.952562
O O10 0.768593 0.603757 0.037465
O O11 0.572148 0.115757 0.864032
O O12 0.500000 0.000000 0.928702
O O13 0.000000 0.000000 0.689220
#
# Coordination Sequence:
#
# PCOD9326531 Si02
#       5
#    16  16  16  16  16
#     4  11  23  38  57  89 128 175 219 276 337 397
#     4  10  19  36  62  87 123 170 219 265 333 403
#     4   9  17  30  54  91 117 154 211 266 313 383
#     4   9  18  36  58  87 127 165 210 267 329 396
#     4  10  21  37  62  93 123 167 224 273 325 400
#
# _framework density 23.809272
#
# number of rings (size 3 to 8) (size 9 to 14) (size 15 to 20)
#    0.000    2.200    2.000    1.800    0.000    2.400 
#    3.600    0.000    0.000    0.000    0.000   25.200 
#    0.000    0.000    0.000    0.000    0.000    0.000 
#
# Total GULP energy -111387.127256 kJ/mol
# GULP energy per Si atom -5569.356363 kJ/mol
# Density = 2.375508 g / cm^3
# Si number density = 23.809272 Si / 1000 Ang^3
#
#
#
# Elastic Constant Matrix: (Units=GPa)
#
#
# Indices 1 2 3 4 5 6 
#
# 1 87.8036 20.5843 27.2352 0.0000 0.0000 0.0000
# 2 20.5843 88.1854 -2.3916 0.0000 0.0000 0.0000
# 3 27.2352 -2.3916 150.3516 0.0000 0.0000 0.0000
# 4 0.0000 0.0000 0.0000 21.3290 0.0000 0.0000
# 5 0.0000 0.0000 0.0000 0.0000 -62.0228 0.0000
# 6 0.0000 0.0000 0.0000 0.0000 0.0000 8.7543
#
#
#
# Elastic Compliance Matrix: (Units=1/GPa)
#
#
# Indices 1 2 3 4 5 6 
#
# 1 0.012844 -0.003062 -0.002375 0.000000 0.000000 0.000000
# 2 -0.003062 0.012075 0.000747 0.000000 0.000000 0.000000
# 3 -0.002375 0.000747 0.007093 0.000000 0.000000 0.000000
# 4 0.000000 0.000000 0.000000 0.046885 0.000000 0.000000
# 5 0.000000 0.000000 0.000000 0.000000 -0.016123 0.000000
# 6 0.000000 0.000000 0.000000 0.000000 0.000000 0.114229
#
#
# Mechanical properties :
#
#
# Convention : Reuss Voigt Hill
#
# Bulk Modulus (GPa) = 44.18904 46.35515 45.27210
# Shear Modulus (GPa) = 25.78279 12.33962 19.06120
#
# Velocity S-wave (km/s) = 3.29430 2.27902 2.83252
# Velocity P-wave (km/s) = 5.75063 5.14168 5.45466
#
# Compressibility (1/GPa) = 0.02263004
#
# Stress axis : x y z
#
# Youngs Moduli (GPa) = 77.85880 82.81696 140.97969
#
# Poissons Ratio (x) = 0.25362 0.33487
# Poissons Ratio (y) = 0.23844 -0.10528
# Poissons Ratio (z) = 0.18494 -0.06185
#
# Static dielectric constant tensor:
#      x y z
#    x 2.172050 0.000000 0.000000 
#    y 0.000000 1.973420 0.000000 
#    z 0.000000 0.000000 1.978050 
# 
# From -- ./inp_files/51792.got.cif
#   From: 2010.05.17/outbox.cif.g08.bks.cpg/sg22_26_cif.got.tgz:51792.got - 2010.06.03 23:40:54.
