data_PCOD9326602
_publ_section_title
;
Structure prediction by ZEFSAII (Michael W. Deem and Ramdas Pophale) SiO2 
 PCOD9326602
Probable space group: F 2 2 2
;
_chemical_formula_sum "Si O2"
_cell_formula_units_Z 100
_cell_length_a 27.382441
_cell_length_b 8.725851
_cell_length_c 20.136634
_cell_angle_alpha 90.000000
_cell_angle_beta 90.000000
_cell_angle_gamma 90.000000
_cell_volume 4811.348662
_symmetry_space_group_name_H-M "F 2 2 2"
_symmetry_group_IT_number 22
_symmetry_cell_setting 'orthorhombic'
loop_
_space_group_symop_operation_xyz
x,y,z
-x,-y,z
x,-y,-z
-x,y,-z
x,1/2+y,1/2+z
-x,1/2-y,1/2+z
x,1/2-y,1/2-z
-x,1/2+y,1/2-z
1/2+x,y,1/2+z
1/2-x,-y,1/2+z
1/2+x,-y,1/2-z
1/2-x,y,1/2-z
1/2+x,1/2+y,z
1/2-x,1/2-y,z
1/2+x,1/2-y,-z
1/2-x,1/2+y,-z
loop_
_atom_site_type_symbol
_atom_site_label
_atom_site_fract_x
_atom_site_fract_y
_atom_site_fract_z
Si Si1 0.692276 0.433998 0.254947
Si Si2 0.417226 0.689948 0.566839
Si Si3 0.047470 0.409629 0.786733
Si Si4 0.000000 0.500000 0.000000
Si Si5 0.107216 0.566141 0.670918
Si Si6 0.132783 0.126484 0.954839
Si Si7 0.638945 0.077781 0.115699
O O1 0.679245 0.250000 0.250000
O O2 0.750000 0.448918 0.250000
O O3 0.661039 0.536292 0.203179
O O4 0.675683 0.478069 0.328397
O O5 0.466855 0.606850 0.546813
O O6 0.410330 0.774861 0.637731
O O7 0.405730 0.804847 0.506869
O O8 0.376039 0.559550 0.568496
O O9 0.035758 0.250000 0.750000
O O10 0.071950 0.513609 0.729410
O O11 0.088325 0.384371 0.843789
O O12 0.000000 0.500000 0.810620
O O13 0.107557 0.454874 0.607392
O O14 0.158554 0.273344 0.922375
O O15 0.160676 0.000000 0.000000
#
# Coordination Sequence:
#
# PCOD9326602 Si02
#       7
#    16  16  16   4  16  16  16
#     4  10  20  38  71 101 122 162 212 267 335 400
#     4  11  25  36  62  86 125 172 214 260 313 366
#     4  11  24  35  56  82 116 160 203 260 324 384
#     4  12  24  40  58  96 124 180 238 260 306 380
#     4  10  21  42  61  89 125 162 210 265 325 385
#     4  10  19  38  61  82 116 168 206 251 308 379
#     4  11  20  40  60  88 127 159 205 268 321 381
#
# _framework density 20.784193999999999
#
# number of rings (size 3 to 8) (size 9 to 14) (size 15 to 20)
#    0.000    1.440    4.800    0.960    3.360    3.200 
#    0.000    4.400    0.000    9.600    0.000    0.000 
#    0.000    0.000    0.000    0.000    0.160    0.000 
#
# Total GULP energy -139432.231095 kJ/mol
# GULP energy per Si atom -5577.289244 kJ/mol
# Density = 2.073689 g / cm^3
# Si number density = 20.784194 Si / 1000 Ang^3
#
#
#
# Elastic Constant Matrix: (Units=GPa)
#
#
# Indices 1 2 3 4 5 6 
#
# 1 100.6151 30.7927 37.7677 0.0000 0.0000 0.0000
# 2 30.7927 92.8784 46.6807 0.0000 0.0000 0.0000
# 3 37.7677 46.6807 125.4747 0.0000 0.0000 0.0000
# 4 0.0000 0.0000 0.0000 42.1398 0.0000 0.0000
# 5 0.0000 0.0000 0.0000 0.0000 12.2508 0.0000
# 6 0.0000 0.0000 0.0000 0.0000 0.0000 -41.1603
#
#
#
# Elastic Compliance Matrix: (Units=1/GPa)
#
#
# Indices 1 2 3 4 5 6 
#
# 1 0.011691 -0.002592 -0.002555 0.000000 0.000000 0.000000
# 2 -0.002592 0.013818 -0.004360 0.000000 0.000000 0.000000
# 3 -0.002555 -0.004360 0.010361 0.000000 0.000000 0.000000
# 4 0.000000 0.000000 0.000000 0.023731 0.000000 0.000000
# 5 0.000000 0.000000 0.000000 0.000000 0.081628 0.000000
# 6 0.000000 0.000000 0.000000 0.000000 0.000000 -0.024295
#
#
# Mechanical properties :
#
#
# Convention : Reuss Voigt Hill
#
# Bulk Modulus (GPa) = 59.32828 61.05006 60.18917
# Shear Modulus (GPa) = 35.31938 16.22786 25.77362
#
# Velocity S-wave (km/s) = 4.12678 2.79727 3.52527
# Velocity P-wave (km/s) = 7.16337 6.31427 6.75218
#
# Compressibility (1/GPa) = 0.01685537
#
# Stress axis : x y z
#
# Youngs Moduli (GPa) = 85.53523 72.37107 96.51658
#
# Poissons Ratio (x) = 0.18759 0.24657
# Poissons Ratio (y) = 0.22171 0.42085
# Poissons Ratio (z) = 0.21851 0.31557
#
# Static dielectric constant tensor:
#      x y z
#    x 1.717200 0.000000 0.000000 
#    y 0.000000 1.937230 0.000000 
#    z 0.000000 0.000000 1.839240 
# 
# From -- ./inp_files/45787.got.cif
#   From: 2010.05.17/outbox.cif.g08.bks.cpg/sg22_23_cif.got.tgz:45787.got - 2010.06.03 23:40:54.
