data_PCOD9326601
_publ_section_title
;
Structure prediction by ZEFSAII (Michael W. Deem and Ramdas Pophale) SiO2 
 PCOD9326601
Probable space group: F 2 2 2
;
_chemical_formula_sum "Si O2"
_cell_formula_units_Z 96
_cell_length_a 8.491241
_cell_length_b 20.066439
_cell_length_c 27.331247
_cell_angle_alpha 90.000000
_cell_angle_beta 90.000000
_cell_angle_gamma 90.000000
_cell_volume 4656.943013
_symmetry_space_group_name_H-M "F 2 2 2"
_symmetry_group_IT_number 22
_symmetry_cell_setting 'orthorhombic'
loop_
_space_group_symop_operation_xyz
x,y,z
-x,-y,z
x,-y,-z
-x,y,-z
x,1/2+y,1/2+z
-x,1/2-y,1/2+z
x,1/2-y,1/2-z
-x,1/2+y,1/2-z
1/2+x,y,1/2+z
1/2-x,-y,1/2+z
1/2+x,-y,1/2-z
1/2-x,y,1/2-z
1/2+x,1/2+y,z
1/2-x,1/2-y,z
1/2+x,1/2-y,-z
1/2-x,1/2+y,-z
loop_
_atom_site_type_symbol
_atom_site_label
_atom_site_fract_x
_atom_site_fract_y
_atom_site_fract_z
Si Si1 0.615758 0.061115 0.602579
Si Si2 0.555015 0.705354 0.590665
Si Si3 0.862718 0.158841 0.054605
Si Si4 0.754274 0.632233 0.302775
Si Si5 0.154134 0.106760 0.467247
Si Si6 0.505288 0.242627 0.803182
O O1 0.501616 0.116306 0.578180
O O2 0.692334 0.087162 0.652660
O O3 0.759104 0.049833 0.564277
O O4 0.500000 0.000000 0.610748
O O5 0.707185 0.658300 0.588800
O O6 0.580427 0.764879 0.552062
O O7 0.405478 0.662742 0.572175
O O8 0.561948 0.743644 0.642363
O O9 0.788463 0.134001 0.003841
O O10 0.750000 0.597387 0.250000
O O11 0.588316 0.670151 0.306803
O O12 0.872499 0.695774 0.300933
O O13 0.000000 0.090295 0.500000
O O14 0.423513 0.250000 0.750000
#
# Coordination Sequence:
#
# PCOD9326601 Si02
#       6
#    16  16  16  16  16  16
#     4  12  24  41  65  87 122 170 214 261 312 370
#     4  10  19  38  60  91 128 159 199 260 321 383
#     4  10  23  36  56  91 132 161 205 252 321 375
#     4   9  18  35  64  93 118 151 207 255 310 383
#     4  10  23  40  61  91 125 170 214 262 313 380
#     4   9  16  32  65  95 118 155 197 253 325 380
#
# _framework density 20.614381999999999
#
# number of rings (size 3 to 8) (size 9 to 14) (size 15 to 20)
#    0.000    2.000    3.333    1.500    0.000   10.000 
#    0.000    7.500    7.333    0.000    0.000    0.000 
#    0.000    0.000    0.000    0.000    0.000    0.000 
#
# Total GULP energy -133626.769763 kJ/mol
# GULP energy per Si atom -5567.782073 kJ/mol
# Density = 2.056746 g / cm^3
# Si number density = 20.614382 Si / 1000 Ang^3
#
#
#
# Elastic Constant Matrix: (Units=GPa)
#
#
# Indices 1 2 3 4 5 6 
#
# 1 69.4249 24.8820 63.4732 0.0000 0.0000 0.0000
# 2 24.8820 44.8954 30.1812 0.0000 0.0000 0.0000
# 3 63.4732 30.1812 179.6739 0.0000 0.0000 0.0000
# 4 0.0000 0.0000 0.0000 6.0816 0.0000 0.0000
# 5 0.0000 0.0000 0.0000 0.0000 10.9269 0.0000
# 6 0.0000 0.0000 0.0000 0.0000 0.0000 32.1678
#
#
#
# Elastic Compliance Matrix: (Units=1/GPa)
#
#
# Indices 1 2 3 4 5 6 
#
# 1 0.023852 -0.008517 -0.006996 0.000000 0.000000 0.000000
# 2 -0.008517 0.028150 -0.001720 0.000000 0.000000 0.000000
# 3 -0.006996 -0.001720 0.008326 0.000000 0.000000 0.000000
# 4 0.000000 0.000000 0.000000 0.164429 0.000000 0.000000
# 5 0.000000 0.000000 0.000000 0.000000 0.091517 0.000000
# 6 0.000000 0.000000 0.000000 0.000000 0.000000 0.031087
#
#
# Mechanical properties :
#
#
# Convention : Reuss Voigt Hill
#
# Bulk Modulus (GPa) = 38.66366 59.00746 48.83556
# Shear Modulus (GPa) = 12.80579 21.53245 17.16912
#
# Velocity S-wave (km/s) = 2.49511 3.23543 2.88908
# Velocity P-wave (km/s) = 5.20549 6.53023 5.90513
#
# Compressibility (1/GPa) = 0.02586408
#
# Stress axis : x y z
#
# Youngs Moduli (GPa) = 41.92453 35.52356 120.10677
#
# Poissons Ratio (x) = 0.30254 0.84023
# Poissons Ratio (y) = 0.35705 0.20658
# Poissons Ratio (z) = 0.29329 0.06110
#
# Static dielectric constant tensor:
#      x y z
#    x 1.824990 0.000000 0.000000 
#    y 0.000000 1.729800 0.000000 
#    z 0.000000 0.000000 1.840370 
# 
# From -- ./inp_files/51921.got.cif
#   From: 2010.05.17/outbox.cif.g08.bks.cpg/sg22_26_cif.got.tgz:51921.got - 2010.06.03 23:40:54.
