data_PCOD9326809
_publ_section_title
;
Structure prediction by ZEFSAII (Michael W. Deem and Ramdas Pophale) SiO2 
 PCOD9326809
Probable space group: F 2 2 2
;
_chemical_formula_sum "Si O2"
_cell_formula_units_Z 104
_cell_length_a 8.036985
_cell_length_b 23.701739
_cell_length_c 27.948489
_cell_angle_alpha 90.000000
_cell_angle_beta 90.000000
_cell_angle_gamma 90.000000
_cell_volume 5323.922226
_symmetry_space_group_name_H-M "F 2 2 2"
_symmetry_group_IT_number 22
_symmetry_cell_setting 'orthorhombic'
loop_
_space_group_symop_operation_xyz
x,y,z
-x,-y,z
x,-y,-z
-x,y,-z
x,1/2+y,1/2+z
-x,1/2-y,1/2+z
x,1/2-y,1/2-z
-x,1/2+y,1/2-z
1/2+x,y,1/2+z
1/2-x,-y,1/2+z
1/2+x,-y,1/2-z
1/2-x,y,1/2-z
1/2+x,1/2+y,z
1/2-x,1/2-y,z
1/2+x,1/2-y,-z
1/2-x,1/2+y,-z
loop_
_atom_site_type_symbol
_atom_site_label
_atom_site_fract_x
_atom_site_fract_y
_atom_site_fract_z
Si Si1 0.615252 0.210931 0.460205
Si Si2 0.854815 0.195280 0.883617
Si Si3 0.039355 0.871963 0.637142
Si Si4 0.862849 0.375630 0.037703
Si Si5 0.313637 0.985953 0.443780
Si Si6 0.500000 0.500000 0.620983
Si Si7 0.555522 0.737236 0.694958
O O1 0.500000 0.239641 0.500000
O O2 0.750000 0.250000 0.434149
O O3 0.494804 0.182182 0.422522
O O4 0.741393 0.169066 0.486919
O O5 0.750000 0.250000 0.901966
O O6 0.733450 0.143882 0.870840
O O7 0.946985 0.220870 0.837538
O O8 0.956526 0.856378 0.585740
O O9 0.979181 0.826680 0.676680
O O10 0.993527 0.938184 0.646694
O O11 0.732099 0.420792 0.056741
O O12 0.000000 0.396570 0.000000
O O13 0.162169 0.010253 0.412586
O O14 0.500000 0.000000 0.427404
O O15 0.301531 0.000000 0.500000
O O16 0.513229 0.750000 0.750000
O O17 0.750000 0.750000 0.688571
#
# Coordination Sequence:
#
# PCOD9326809 Si02
#       7
#    16  16  16  16  16   8  16
#     4  12  23  33  50  75 116 161 203 253 306 372
#     4  10  20  35  57  83 112 149 204 251 300 367
#     4  10  21  37  60  88 120 161 196 254 314 365
#     4  11  22  36  54  78 117 165 207 258 304 351
#     4  10  21  34  56  79 113 162 222 261 294 347
#     4  10  21  38  56  86 132 160 200 256 323 372
#     4  10  21  40  66  91 116 147 197 256 312 372
#
# _framework density 19.534469999999999
#
# number of rings (size 3 to 8) (size 9 to 14) (size 15 to 20)
#    0.000    1.538    0.000    7.154    4.308    2.769 
#    0.000    0.000    0.000    3.692    0.000    0.000 
#    0.000    0.000    0.000    0.000    0.000    0.000 
#
# Total GULP energy -144846.320812 kJ/mol
# GULP energy per Si atom -5571.012339 kJ/mol
# Density = 1.949001 g / cm^3
# Si number density = 19.534470 Si / 1000 Ang^3
#
#
#
# Elastic Constant Matrix: (Units=GPa)
#
#
# Indices 1 2 3 4 5 6 
#
# 1 142.2178 49.8254 46.0505 0.0000 0.0000 0.0000
# 2 49.8254 88.4849 39.7480 0.0000 0.0000 0.0000
# 3 46.0505 39.7480 91.3519 0.0000 0.0000 0.0000
# 4 0.0000 0.0000 0.0000 12.3966 0.0000 0.0000
# 5 0.0000 0.0000 0.0000 0.0000 22.5920 0.0000
# 6 0.0000 0.0000 0.0000 0.0000 0.0000 36.5658
#
#
#
# Elastic Compliance Matrix: (Units=1/GPa)
#
#
# Indices 1 2 3 4 5 6 
#
# 1 0.009386 -0.003928 -0.003023 0.000000 0.000000 0.000000
# 2 -0.003928 0.015690 -0.004847 0.000000 0.000000 0.000000
# 3 -0.003023 -0.004847 0.014579 0.000000 0.000000 0.000000
# 4 0.000000 0.000000 0.000000 0.080667 0.000000 0.000000
# 5 0.000000 0.000000 0.000000 0.000000 0.044263 0.000000
# 6 0.000000 0.000000 0.000000 0.000000 0.000000 0.027348
#
#
# Mechanical properties :
#
#
# Convention : Reuss Voigt Hill
#
# Bulk Modulus (GPa) = 62.26151 65.92248 64.09199
# Shear Modulus (GPa) = 22.63639 26.73958 24.68798
#
# Velocity S-wave (km/s) = 3.40780 3.70380 3.55888
# Velocity P-wave (km/s) = 6.88665 7.21878 7.05467
#
# Compressibility (1/GPa) = 0.01606129
#
# Stress axis : x y z
#
# Youngs Moduli (GPa) = 106.53924 63.73366 68.58971
#
# Poissons Ratio (x) = 0.25031 0.20733
# Poissons Ratio (y) = 0.41843 0.33246
# Poissons Ratio (z) = 0.32204 0.30893
#
# Static dielectric constant tensor:
#      x y z
#    x 1.747950 0.000000 0.000000 
#    y 0.000000 1.835380 0.000000 
#    z 0.000000 0.000000 1.639890 
# 
# From -- ./inp_files/52074.got.cif
#   From: 2010.05.17/outbox.cif.g08.bks.cpg/sg22_27_cif.got.tgz:52074.got - 2010.06.03 23:40:54.
