data_PCOD9326973
_publ_section_title
;
Structure prediction by ZEFSAII (Michael W. Deem and Ramdas Pophale) SiO2 
 PCOD9326973
Probable space group: F 2 2 2
;
_chemical_formula_sum "Si O2"
_cell_formula_units_Z 116
_cell_length_a 26.870597
_cell_length_b 16.850705
_cell_length_c 11.628948
_cell_angle_alpha 90.000000
_cell_angle_beta 90.000000
_cell_angle_gamma 90.000000
_cell_volume 5265.453959
_symmetry_space_group_name_H-M "F 2 2 2"
_symmetry_group_IT_number 22
_symmetry_cell_setting 'orthorhombic'
loop_
_space_group_symop_operation_xyz
x,y,z
-x,-y,z
x,-y,-z
-x,y,-z
x,1/2+y,1/2+z
-x,1/2-y,1/2+z
x,1/2-y,1/2-z
-x,1/2+y,1/2-z
1/2+x,y,1/2+z
1/2-x,-y,1/2+z
1/2+x,-y,1/2-z
1/2-x,y,1/2-z
1/2+x,1/2+y,z
1/2-x,1/2-y,z
1/2+x,1/2-y,-z
1/2-x,1/2+y,-z
loop_
_atom_site_type_symbol
_atom_site_label
_atom_site_fract_x
_atom_site_fract_y
_atom_site_fract_z
Si Si1 0.750000 0.250000 0.250000
Si Si2 0.976452 0.418330 0.838176
Si Si3 0.166759 0.682956 0.068396
Si Si4 0.175090 0.584553 0.708600
Si Si5 0.423443 0.842609 0.222577
Si Si6 0.767047 0.067980 0.580864
Si Si7 0.078982 0.996908 0.130310
Si Si8 0.108153 0.801295 0.646747
O O1 0.791570 0.283508 0.156990
O O2 0.954342 0.448958 0.715507
O O3 0.930645 0.369959 0.892650
O O4 0.000000 0.500000 0.885260
O O5 0.022829 0.359478 0.831304
O O6 0.123476 0.641234 0.141433
O O7 0.196516 0.620467 0.992863
O O8 0.135325 0.732607 0.968519
O O9 0.201732 0.534995 0.810723
O O10 0.219762 0.614205 0.629464
O O11 0.133993 0.533990 0.643512
O O12 0.149669 0.656432 0.774791
O O13 0.419106 0.750000 0.250000
O O14 0.420786 0.906542 0.325157
O O15 0.746656 0.000000 0.500000
O O16 0.062106 0.000000 0.000000
O O17 0.082237 0.750000 0.750000
#
# Coordination Sequence:
#
# PCOD9326973 Si02
#       8
#     4  16  16  16  16  16  16  16
#     4  12  28  48  62  96 144 192 232 272 360 430
#     4   9  21  42  67  99 138 172 233 294 354 430
#     4  11  26  44  65  95 139 182 234 289 353 426
#     4   9  20  36  57  96 126 167 231 293 347 414
#     4  11  23  42  64  97 137 183 232 285 362 437
#     4  10  20  37  61  89 122 171 230 288 345 403
#     4  10  21  39  67  99 139 186 240 298 357 427
#     4  10  22  42  68 101 135 178 234 290 353 429
#
# _framework density 22.030389
#
# number of rings (size 3 to 8) (size 9 to 14) (size 15 to 20)
#    0.000    1.931    0.690    1.655    1.931    9.655 
#    0.000    3.448    0.000    0.000    0.000    0.000 
#    0.000    0.000    0.000    0.000    0.000    0.000 
#
# Total GULP energy -161483.463977 kJ/mol
# GULP energy per Si atom -5568.395310 kJ/mol
# Density = 2.198025 g / cm^3
# Si number density = 22.030389 Si / 1000 Ang^3
#
#
#
# Elastic Constant Matrix: (Units=GPa)
#
#
# Indices 1 2 3 4 5 6 
#
# 1 154.3174 28.8960 54.6900 0.0000 0.0000 0.0000
# 2 28.8960 50.6786 28.7075 0.0000 0.0000 0.0000
# 3 54.6900 28.7075 130.6800 0.0000 0.0000 0.0000
# 4 0.0000 0.0000 0.0000 53.9545 0.0000 0.0000
# 5 0.0000 0.0000 0.0000 0.0000 -98.9987 0.0000
# 6 0.0000 0.0000 0.0000 0.0000 0.0000 23.3811
#
#
#
# Elastic Compliance Matrix: (Units=1/GPa)
#
#
# Indices 1 2 3 4 5 6 
#
# 1 0.008000 -0.003044 -0.002679 0.000000 0.000000 0.000000
# 2 -0.003044 0.023695 -0.003931 0.000000 0.000000 0.000000
# 3 -0.002679 -0.003931 0.009637 0.000000 0.000000 0.000000
# 4 0.000000 0.000000 0.000000 0.018534 0.000000 0.000000
# 5 0.000000 0.000000 0.000000 0.000000 -0.010101 0.000000
# 6 0.000000 0.000000 0.000000 0.000000 0.000000 0.042770
#
#
# Mechanical properties :
#
#
# Convention : Reuss Voigt Hill
#
# Bulk Modulus (GPa) = 45.40727 62.25145 53.82936
# Shear Modulus (GPa) = 41.95216 10.55954 26.25585
#
# Velocity S-wave (km/s) = 4.36855 2.19171 3.45599
# Velocity P-wave (km/s) = 6.78981 5.89264 6.35707
#
# Compressibility (1/GPa) = 0.02202291
#
# Stress axis : x y z
#
# Youngs Moduli (GPa) = 125.00663 42.20379 103.76453
#
# Poissons Ratio (x) = 0.12845 0.27801
# Poissons Ratio (y) = 0.38046 0.40794
# Poissons Ratio (z) = 0.33492 0.16592
#
# Static dielectric constant tensor:
#      x y z
#    x 1.822030 0.000000 0.000000 
#    y 0.000000 1.875790 0.000000 
#    z 0.000000 0.000000 1.895910 
# 
# From -- ./inp_files/24716.got.cif
#   From: 2010.05.17/outbox.cif.g08.bks.cpg/sg22_13_cif.got.tgz:24716.got - 2010.06.03 23:40:54.
