data_PCOD9326948
_publ_section_title
;
Structure prediction by ZEFSAII (Michael W. Deem and Ramdas Pophale) SiO2 
 PCOD9326948
Probable space group: F 2 2 2
;
_chemical_formula_sum "Si O2"
_cell_formula_units_Z 112
_cell_length_a 15.927901
_cell_length_b 30.911482
_cell_length_c 11.165233
_cell_angle_alpha 90.000000
_cell_angle_beta 90.000000
_cell_angle_gamma 90.000000
_cell_volume 5497.258574
_symmetry_space_group_name_H-M "F 2 2 2"
_symmetry_group_IT_number 22
_symmetry_cell_setting 'orthorhombic'
loop_
_space_group_symop_operation_xyz
x,y,z
-x,-y,z
x,-y,-z
-x,y,-z
x,1/2+y,1/2+z
-x,1/2-y,1/2+z
x,1/2-y,1/2-z
-x,1/2+y,1/2-z
1/2+x,y,1/2+z
1/2-x,-y,1/2+z
1/2+x,-y,1/2-z
1/2-x,y,1/2-z
1/2+x,1/2+y,z
1/2-x,1/2-y,z
1/2+x,1/2-y,-z
1/2-x,1/2+y,-z
loop_
_atom_site_type_symbol
_atom_site_label
_atom_site_fract_x
_atom_site_fract_y
_atom_site_fract_z
Si Si1 0.947119 0.206570 0.323573
Si Si2 0.870424 0.217837 0.583622
Si Si3 0.398371 0.095453 0.362007
Si Si4 0.313744 0.683788 0.903681
Si Si5 0.170505 0.347602 0.676772
Si Si6 0.809927 0.506759 0.360331
Si Si7 0.918868 0.072948 0.141634
O O1 0.936131 0.250000 0.250000
O O2 0.890832 0.210391 0.443241
O O3 0.913515 0.170334 0.236003
O O4 0.044419 0.201925 0.355487
O O5 0.784770 0.193659 0.620647
O O6 0.858146 0.269282 0.608728
O O7 0.358469 0.142742 0.340614
O O8 0.334441 0.056529 0.336842
O O9 0.415177 0.089196 0.504099
O O10 0.489834 0.084828 0.306845
O O11 0.319748 0.669841 0.043121
O O12 0.250000 0.331730 0.750000
O O13 0.157664 0.398759 0.692652
O O14 0.779280 0.500000 0.500000
O O15 0.750000 0.493841 0.250000
O O16 0.893495 0.476951 0.354256
#
# Coordination Sequence:
#
# PCOD9326948 Si02
#       7
#    16  16  16  16  16  16  16
#     4  11  22  35  56  83 118 156 208 260 320 372
#     4  10  22  37  56  81 122 164 202 263 319 375
#     4   9  19  35  60  88 118 156 208 266 307 374
#     4  10  20  37  57  83 116 160 214 257 308 375
#     4  11  20  33  57  87 112 149 206 262 309 369
#     4  10  20  39  64  96 130 166 206 262 329 395
#     4   9  19  34  61  90 117 150 205 264 316 375
#
# _framework density 20.373792000000002
#
# number of rings (size 3 to 8) (size 9 to 14) (size 15 to 20)
#    0.000    2.000    2.857    0.857    2.000    3.143 
#    2.571    1.429    0.000    1.714    0.000    0.000 
#    0.000    0.000    0.000    0.000    0.000    0.000 
#
# Total GULP energy -156114.016255 kJ/mol
# GULP energy per Si atom -5575.500581 kJ/mol
# Density = 2.032742 g / cm^3
# Si number density = 20.373792 Si / 1000 Ang^3
#
#
#
# Elastic Constant Matrix: (Units=GPa)
#
#
# Indices 1 2 3 4 5 6 
#
# 1 118.9476 45.9302 31.2623 0.0000 0.0000 0.0000
# 2 45.9302 113.1620 21.7237 0.0000 0.0000 0.0000
# 3 31.2623 21.7237 60.0041 0.0000 0.0000 0.0000
# 4 0.0000 0.0000 0.0000 157.6157 0.0000 0.0000
# 5 0.0000 0.0000 0.0000 0.0000 46.8719 0.0000
# 6 0.0000 0.0000 0.0000 0.0000 0.0000 -456.8830
#
#
#
# Elastic Compliance Matrix: (Units=1/GPa)
#
#
# Indices 1 2 3 4 5 6 
#
# 1 0.010955 -0.003601 -0.004404 0.000000 0.000000 0.000000
# 2 -0.003601 0.010681 -0.001991 0.000000 0.000000 0.000000
# 3 -0.004404 -0.001991 0.019681 0.000000 0.000000 0.000000
# 4 0.000000 0.000000 0.000000 0.006345 0.000000 0.000000
# 5 0.000000 0.000000 0.000000 0.000000 0.021335 0.000000
# 6 0.000000 0.000000 0.000000 0.000000 0.000000 -0.002189
#
#
# Mechanical properties :
#
#
# Convention : Reuss Voigt Hill
#
# Bulk Modulus (GPa) = 46.89288 54.43845 50.66567
# Shear Modulus (GPa) = 53.24458 -37.59924 7.82267
#
# Velocity S-wave (km/s) = 5.11767 -4.30056 1.96161
# Velocity P-wave (km/s) = 7.61492 1.45539 5.48202
#
# Compressibility (1/GPa) = 0.02132520
#
# Stress axis : x y z
#
# Youngs Moduli (GPa) = 91.28256 93.62769 50.81129
#
# Poissons Ratio (x) = 0.33715 0.22377
# Poissons Ratio (y) = 0.32871 0.10115
# Poissons Ratio (z) = 0.40200 0.18638
#
# Static dielectric constant tensor:
#      x y z
#    x 1.686770 0.000000 0.000000 
#    y 0.000000 0.934160 0.000000 
#    z 0.000000 0.000000 2.693770 
# 
# From -- ./inp_files/20321.got.cif
#   From: 2010.05.17/outbox.cif.g08.bks.cpg/sg22_11_cif.got.tgz:20321.got - 2010.06.03 23:40:54.
