data_PCOD9326011
_publ_section_title
;
Structure prediction by ZEFSAII (Michael W. Deem and Ramdas Pophale) SiO2 
 PCOD9326011
Probable space group: F 2 2 2
;
_chemical_formula_sum "Si O2"
_cell_formula_units_Z 72
_cell_length_a 9.201688
_cell_length_b 23.078779
_cell_length_c 17.063129
_cell_angle_alpha 90.000000
_cell_angle_beta 90.000000
_cell_angle_gamma 90.000000
_cell_volume 3623.589614
_symmetry_space_group_name_H-M "F 2 2 2"
_symmetry_group_IT_number 22
_symmetry_cell_setting 'orthorhombic'
loop_
_space_group_symop_operation_xyz
x,y,z
-x,-y,z
x,-y,-z
-x,y,-z
x,1/2+y,1/2+z
-x,1/2-y,1/2+z
x,1/2-y,1/2-z
-x,1/2+y,1/2-z
1/2+x,y,1/2+z
1/2-x,-y,1/2+z
1/2+x,-y,1/2-z
1/2-x,y,1/2-z
1/2+x,1/2+y,z
1/2-x,1/2-y,z
1/2+x,1/2-y,-z
1/2-x,1/2+y,-z
loop_
_atom_site_type_symbol
_atom_site_label
_atom_site_fract_x
_atom_site_fract_y
_atom_site_fract_z
Si Si1 0.690951 0.500000 0.000000
Si Si2 0.156699 0.195422 0.029000
Si Si3 0.362600 0.585583 0.865089
Si Si4 0.636305 0.889257 0.940607
Si Si5 0.465122 0.432649 0.302637
O O1 0.612772 0.461251 0.933603
O O2 0.789301 0.548715 0.957929
O O3 0.250000 0.250000 0.055398
O O4 0.129021 0.148320 0.096253
O O5 0.248191 0.160355 0.962621
O O6 0.000000 0.215456 0.000000
O O7 0.464946 0.578639 0.790156
O O8 0.197333 0.577328 0.835269
O O9 0.573040 0.893064 0.853320
O O10 0.500000 0.883095 0.000000
O O11 0.500000 0.500000 0.315567
#
# Coordination Sequence:
#
# PCOD9326011 Si02
#       5
#     8  16  16  16  16
#     4  10  17  34  63  98 133 182 219 264 327 418
#     4  11  25  44  68  93 124 172 233 290 341 403
#     4  10  23  36  61 101 134 174 230 274 341 402
#     4  11  18  36  68  92 128 174 223 269 334 409
#     4  11  20  37  63 100 137 178 216 268 341 411
#
# _framework density 19.869800999999999
#
# number of rings (size 3 to 8) (size 9 to 14) (size 15 to 20)
#    0.000    1.333    6.667    1.000    0.000    3.556 
#    0.000    7.222    0.000    1.333    0.000    0.000 
#    0.000    0.000    0.000    0.000    0.000    0.000 
#
# Total GULP energy -100593.914102 kJ/mol
# GULP energy per Si atom -5588.550783 kJ/mol
# Density = 1.982458 g / cm^3
# Si number density = 19.869801 Si / 1000 Ang^3
#
#
#
# Elastic Constant Matrix: (Units=GPa)
#
#
# Indices 1 2 3 4 5 6 
#
# 1 56.9243 17.5988 24.4536 0.0000 0.0000 0.0000
# 2 17.5988 61.0274 11.5311 0.0000 0.0000 0.0000
# 3 24.4536 11.5311 138.4426 0.0000 0.0000 0.0000
# 4 0.0000 0.0000 0.0000 1.0053 0.0000 0.0000
# 5 0.0000 0.0000 0.0000 0.0000 36.6209 0.0000
# 6 0.0000 0.0000 0.0000 0.0000 0.0000 -57.1649
#
#
#
# Elastic Compliance Matrix: (Units=1/GPa)
#
#
# Indices 1 2 3 4 5 6 
#
# 1 0.020587 -0.005334 -0.003192 0.000000 0.000000 0.000000
# 2 -0.005334 0.018030 -0.000560 0.000000 0.000000 0.000000
# 3 -0.003192 -0.000560 0.007834 0.000000 0.000000 0.000000
# 4 0.000000 0.000000 0.000000 0.994705 0.000000 0.000000
# 5 0.000000 0.000000 0.000000 0.000000 0.027307 0.000000
# 6 0.000000 0.000000 0.000000 0.000000 0.000000 -0.017493
#
#
# Mechanical properties :
#
#
# Convention : Reuss Voigt Hill
#
# Bulk Modulus (GPa) = 35.36072 40.39570 37.87821
# Shear Modulus (GPa) = 4.63578 9.61301 7.12439
#
# Velocity S-wave (km/s) = 1.52910 2.20193 1.89561
# Velocity P-wave (km/s) = 4.57738 5.18064 4.88832
#
# Compressibility (1/GPa) = 0.02827997
#
# Stress axis : x y z
#
# Youngs Moduli (GPa) = 48.57326 55.46334 127.65416
#
# Poissons Ratio (x) = 0.29583 0.40750
# Poissons Ratio (y) = 0.25908 0.07144
# Poissons Ratio (z) = 0.15505 0.03104
#
# Static dielectric constant tensor:
#      x y z
#    x 1.768240 0.000000 0.000000 
#    y 0.000000 1.649790 0.000000 
#    z 0.000000 0.000000 1.747570 
# 
# From -- ./inp_files/13557.got.cif
#   From: 2010.05.17/outbox.cif.g08.bks.cpg/sg22_7_cif.got.tgz:13557.got - 2010.06.03 23:40:54.
