data_PCOD9326966
_publ_section_title
;
Structure prediction by ZEFSAII (Michael W. Deem and Ramdas Pophale) SiO2 
 PCOD9326966
Probable space group: F 2 2 2
;
_chemical_formula_sum "Si O2"
_cell_formula_units_Z 96
_cell_length_a 24.207562
_cell_length_b 23.137160
_cell_length_c 9.418676
_cell_angle_alpha 90.000000
_cell_angle_beta 90.000000
_cell_angle_gamma 90.000000
_cell_volume 5275.346131
_symmetry_space_group_name_H-M "F 2 2 2"
_symmetry_group_IT_number 22
_symmetry_cell_setting 'orthorhombic'
loop_
_space_group_symop_operation_xyz
x,y,z
-x,-y,z
x,-y,-z
-x,y,-z
x,1/2+y,1/2+z
-x,1/2-y,1/2+z
x,1/2-y,1/2-z
-x,1/2+y,1/2-z
1/2+x,y,1/2+z
1/2-x,-y,1/2+z
1/2+x,-y,1/2-z
1/2-x,y,1/2-z
1/2+x,1/2+y,z
1/2-x,1/2-y,z
1/2+x,1/2-y,-z
1/2-x,1/2+y,-z
loop_
_atom_site_type_symbol
_atom_site_label
_atom_site_fract_x
_atom_site_fract_y
_atom_site_fract_z
Si Si1 0.804227 0.847495 0.153571
Si Si2 0.154001 0.921938 0.400912
Si Si3 0.436981 0.170874 0.996724
Si Si4 0.603483 0.250000 0.250000
Si Si5 0.611718 0.250000 0.750000
Si Si6 0.810170 0.538019 0.192028
Si Si7 0.302749 0.166254 0.670085
O O1 0.750000 0.836445 0.250000
O O2 0.848136 0.796749 0.176181
O O3 0.827341 0.909397 0.206098
O O4 0.788742 0.849878 0.989421
O O5 0.104643 0.883096 0.467732
O O6 0.193983 0.934639 0.534410
O O7 0.179741 0.885364 0.273937
O O8 0.147009 0.985582 0.331020
O O9 0.430531 0.212463 0.860352
O O10 0.500000 0.150584 0.000000
O O11 0.421113 0.210987 0.133289
O O12 0.645169 0.208571 0.334429
O O13 0.750000 0.518115 0.250000
O O14 0.250000 0.191439 0.750000
#
# Coordination Sequence:
#
# PCOD9326966 Si02
#       7
#    16  16  16   8   8  16  16
#     4  11  23  35  58  90 127 167 197 238 309 374
#     4  10  22  39  59  88 124 159 207 247 299 362
#     4  11  23  42  64  88 117 161 214 267 312 354
#     4  10  22  36  56  86 118 158 204 254 316 366
#     4  12  22  40  62  90 122 158 204 262 306 374
#     4  10  20  37  60  87 125 161 194 238 293 375
#     4  11  21  33  55  86 124 164 197 243 301 377
#
# _framework density 18.197856999999999
#
# number of rings (size 3 to 8) (size 9 to 14) (size 15 to 20)
#    0.000    1.333    3.333    3.500    2.333    4.667 
#    0.000    1.667    0.000    0.000    0.000    0.000 
#   10.000    0.000    0.000    0.000    0.000    0.000 
#
# Total GULP energy -133735.854794 kJ/mol
# GULP energy per Si atom -5572.327283 kJ/mol
# Density = 1.815644 g / cm^3
# Si number density = 18.197857 Si / 1000 Ang^3
#
#
#
# Elastic Constant Matrix: (Units=GPa)
#
#
# Indices 1 2 3 4 5 6 
#
# 1 86.1120 41.6816 48.7560 -0.0006 0.0001 0.0001
# 2 41.6816 120.7682 45.1085 -0.0008 0.0001 0.0000
# 3 48.7560 45.1085 142.3658 -0.0031 0.0001 0.0001
# 4 -0.0006 -0.0008 -0.0031 280.5634 0.0008 0.0001
# 5 0.0001 0.0001 0.0001 0.0008 18.5626 -0.0001
# 6 0.0001 0.0000 0.0001 0.0001 -0.0001 5.4386
#
#
#
# Elastic Compliance Matrix: (Units=1/GPa)
#
#
# Indices 1 2 3 4 5 6 
#
# 1 0.015885 -0.003914 -0.004200 0.000000 0.000000 0.000000
# 2 -0.003914 0.010356 -0.001941 0.000000 0.000000 0.000000
# 3 -0.004200 -0.001941 0.009078 0.000000 0.000000 0.000000
# 4 0.000000 0.000000 0.000000 0.003564 0.000000 0.000000
# 5 0.000000 0.000000 0.000000 0.000000 0.053872 0.000001
# 6 0.000000 0.000000 0.000000 0.000000 0.000001 0.183872
#
#
# Mechanical properties :
#
#
# Convention : Reuss Voigt Hill
#
# Bulk Modulus (GPa) = 65.74989 68.92647 67.33818
# Shear Modulus (GPa) = 16.56691 75.15958 45.86324
#
# Velocity S-wave (km/s) = 3.02052 6.43358 5.02566
# Velocity P-wave (km/s) = 6.95512 9.65124 8.41190
#
# Compressibility (1/GPa) = 0.01520915
#
# Stress axis : x y z
#
# Youngs Moduli (GPa) = 62.95123 96.56148 110.16157
#
# Poissons Ratio (x) = 0.37792 0.46270
# Poissons Ratio (y) = 0.24638 0.21382
# Poissons Ratio (z) = 0.26440 0.18742
#
# Static dielectric constant tensor:
#      x y z
#    x 1.584970 0.000000 0.000000 
#    y 0.000000 1.691310 0.000000 
#    z 0.000000 0.000000 1.625140 
# 
# From -- ./inp_files/13930.got.cif
#   From: 2010.05.17/outbox.cif.g08.bks.cpg/sg22_7_cif.got.tgz:13930.got - 2010.06.03 23:40:54.
