data_PCOD9326911
_publ_section_title
;
Structure prediction by ZEFSAII (Michael W. Deem and Ramdas Pophale) SiO2 
 PCOD9326911
Probable space group: F 2 2 2
;
_chemical_formula_sum "Si O2"
_cell_formula_units_Z 80
_cell_length_a 30.667214
_cell_length_b 21.481328
_cell_length_c 5.695570
_cell_angle_alpha 90.000000
_cell_angle_beta 90.000000
_cell_angle_gamma 90.000000
_cell_volume 3752.084790
_symmetry_space_group_name_H-M "F 2 2 2"
_symmetry_group_IT_number 22
_symmetry_cell_setting 'orthorhombic'
loop_
_space_group_symop_operation_xyz
x,y,z
-x,-y,z
x,-y,-z
-x,y,-z
x,1/2+y,1/2+z
-x,1/2-y,1/2+z
x,1/2-y,1/2-z
-x,1/2+y,1/2-z
1/2+x,y,1/2+z
1/2-x,-y,1/2+z
1/2+x,-y,1/2-z
1/2-x,y,1/2-z
1/2+x,1/2+y,z
1/2-x,1/2-y,z
1/2+x,1/2-y,-z
1/2-x,1/2+y,-z
loop_
_atom_site_type_symbol
_atom_site_label
_atom_site_fract_x
_atom_site_fract_y
_atom_site_fract_z
Si Si1 0.923280 0.250000 0.750000
Si Si2 0.921824 0.446078 0.803900
Si Si3 0.766817 0.177431 0.000084
Si Si4 0.631723 0.145265 0.522959
Si Si5 0.000000 0.406083 0.500000
Si Si6 0.939588 0.165853 0.354433
O O1 0.891466 0.193482 0.804608
O O2 0.946709 0.228112 0.509521
O O3 0.881898 0.422086 0.635284
O O4 0.963653 0.447294 0.631861
O O5 0.913740 0.500000 0.000000
O O6 0.937080 0.389476 0.962771
O O7 0.750000 0.151403 0.250000
O O8 0.750000 0.250000 0.000075
O O9 0.750000 0.151421 0.750000
O O10 0.818296 0.164186 0.997654
O O11 0.606621 0.160715 0.281052
O O12 0.024476 0.358452 0.674202
#
# Coordination Sequence:
#
# PCOD9326911 Si02
#       6
#     8  16  16  16   8  16
#     4  10  20  36  63  84 130 188 218 264 349 416
#     4  10  23  42  68  95 128 179 231 297 359 411
#     4  10  22  35  61 104 139 178 224 281 345 413
#     4  10  22  38  64  95 138 175 227 282 351 429
#     4  10  22  41  62  94 134 168 242 301 348 416
#     4  10  22  37  65  89 130 179 227 282 347 421
#
# _framework density 21.321480999999999
#
# number of rings (size 3 to 8) (size 9 to 14) (size 15 to 20)
#    0.000    2.000    0.000    2.400   11.200    5.600 
#    0.000    0.000  158.400    0.000    5.200    0.000 
#    0.000    0.000    0.000    0.000    0.000    0.000 
#
# Total GULP energy -111370.790053 kJ/mol
# GULP energy per Si atom -5568.539503 kJ/mol
# Density = 2.127295 g / cm^3
# Si number density = 21.321481 Si / 1000 Ang^3
#
#
#
# Elastic Constant Matrix: (Units=GPa)
#
#
# Indices 1 2 3 4 5 6 
#
# 1 161.6637 48.6355 80.8639 -0.0053 0.0004 0.0005
# 2 48.6355 95.7532 47.2748 -0.0190 -0.0007 0.0001
# 3 80.8639 47.2748 180.5618 -0.0233 -0.0022 -0.0029
# 4 -0.0053 -0.0190 -0.0233 47.5095 -0.0021 -0.0028
# 5 0.0004 -0.0007 -0.0022 -0.0021 16.0253 -0.0005
# 6 0.0005 0.0001 -0.0029 -0.0028 -0.0005 6.9317
#
#
#
# Elastic Compliance Matrix: (Units=1/GPa)
#
#
# Indices 1 2 3 4 5 6 
#
# 1 0.008591 -0.002830 -0.003106 -0.000002 -0.000001 -0.000002
# 2 -0.002830 0.012926 -0.002117 0.000004 0.000000 -0.000001
# 3 -0.003106 -0.002117 0.007484 0.000002 0.000001 0.000003
# 4 -0.000002 0.000004 0.000002 0.021048 0.000003 0.000008
# 5 -0.000001 0.000000 0.000001 0.000003 0.062401 0.000005
# 6 -0.000002 -0.000001 0.000003 0.000008 0.000005 0.144265
#
#
# Mechanical properties :
#
#
# Convention : Reuss Voigt Hill
#
# Bulk Modulus (GPa) = 77.55474 87.94747 82.75111
# Shear Modulus (GPa) = 18.04274 31.50694 24.77484
#
# Velocity S-wave (km/s) = 2.91215 3.84827 3.41246
# Velocity P-wave (km/s) = 6.91089 7.81559 7.37712
#
# Compressibility (1/GPa) = 0.01289412
#
# Stress axis : x y z
#
# Youngs Moduli (GPa) = 116.40270 77.36329 133.62253
#
# Poissons Ratio (x) = 0.21892 0.41510
# Poissons Ratio (y) = 0.32940 0.28288
# Poissons Ratio (z) = 0.36160 0.16378
#
# Static dielectric constant tensor:
#      x y z
#    x 1.813400 0.000000 0.000000 
#    y 0.000000 1.875340 0.000010 
#    z 0.000000 0.000010 2.273490 
# 
# From -- ./inp_files/6393.got.cif
#   From: 2010.05.17/outbox.cif.g08.bks.cpg/sg22_4_cif.got.tgz:6393.got - 2010.06.03 23:40:54.
