data_PCOD9326915
_publ_section_title
;
Structure prediction by ZEFSAII (Michael W. Deem and Ramdas Pophale) SiO2 
 PCOD9326915
Probable space group: F 2 2 2
;
_chemical_formula_sum "Si O2"
_cell_formula_units_Z 96
_cell_length_a 16.526734
_cell_length_b 14.039930
_cell_length_c 18.422856
_cell_angle_alpha 90.000000
_cell_angle_beta 90.000000
_cell_angle_gamma 90.000000
_cell_volume 4274.732442
_symmetry_space_group_name_H-M "F 2 2 2"
_symmetry_group_IT_number 22
_symmetry_cell_setting 'orthorhombic'
loop_
_space_group_symop_operation_xyz
x,y,z
-x,-y,z
x,-y,-z
-x,y,-z
x,1/2+y,1/2+z
-x,1/2-y,1/2+z
x,1/2-y,1/2-z
-x,1/2+y,1/2-z
1/2+x,y,1/2+z
1/2-x,-y,1/2+z
1/2+x,-y,1/2-z
1/2-x,y,1/2-z
1/2+x,1/2+y,z
1/2-x,1/2-y,z
1/2+x,1/2-y,-z
1/2-x,1/2+y,-z
loop_
_atom_site_type_symbol
_atom_site_label
_atom_site_fract_x
_atom_site_fract_y
_atom_site_fract_z
Si Si1 0.079800 0.197514 0.534993
Si Si2 0.640077 0.144428 0.772597
Si Si3 0.250000 0.750000 0.528062
Si Si4 0.911789 0.008989 0.172124
Si Si5 0.540190 0.843331 0.799652
Si Si6 0.131568 0.000000 0.500000
Si Si7 0.254060 0.549254 0.885183
O O1 0.166469 0.242495 0.516140
O O2 0.075822 0.177539 0.621185
O O3 0.000000 0.247528 0.500000
O O4 0.082913 0.096119 0.493903
O O5 0.663783 0.250000 0.750000
O O6 0.555454 0.142303 0.815961
O O7 0.706765 0.082718 0.813141
O O8 0.611572 0.095974 0.698804
O O9 0.262378 0.847889 0.574320
O O10 0.924553 0.073903 0.245311
O O11 0.831351 0.021175 0.124614
O O12 0.000000 0.000000 0.136367
O O13 0.546813 0.750000 0.750000
O O14 0.189747 0.009586 0.568507
#
# Coordination Sequence:
#
# PCOD9326915 Si02
#       7
#    16  16   8  16  16   8  16
#     4  11  23  42  65  89 125 167 206 263 318 367
#     4  10  20  36  63  93 117 149 201 260 318 367
#     4  10  24  40  62  94 120 158 220 252 304 394
#     4  10  22  37  59  91 125 159 202 253 317 381
#     4  10  22  40  63  93 127 166 210 255 313 387
#     4  10  23  38  61  90 116 156 219 252 300 384
#     4  11  21  39  60  86 123 158 200 262 309 361
#
# _framework density 22.457545
#
# number of rings (size 3 to 8) (size 9 to 14) (size 15 to 20)
#    0.000    1.667    0.000    4.750    0.000    8.667 
#    0.000    2.500    0.000    0.000    0.000    0.000 
#    0.000    0.000    0.000    0.000    0.000    0.000 
#
# Total GULP energy -133732.732932 kJ/mol
# GULP energy per Si atom -5572.197206 kJ/mol
# Density = 2.240643 g / cm^3
# Si number density = 22.457545 Si / 1000 Ang^3
#
#
#
# Elastic Constant Matrix: (Units=GPa)
#
#
# Indices 1 2 3 4 5 6 
#
# 1 204.5910 23.5159 59.6083 0.0000 0.0000 0.0000
# 2 23.5159 55.4318 -0.5463 0.0000 0.0000 0.0000
# 3 59.6083 -0.5463 87.7466 0.0000 0.0000 0.0000
# 4 0.0000 0.0000 0.0000 19.4952 0.0000 0.0000
# 5 0.0000 0.0000 0.0000 0.0000 35.3940 0.0000
# 6 0.0000 0.0000 0.0000 0.0000 0.0000 32.5275
#
#
#
# Elastic Compliance Matrix: (Units=1/GPa)
#
#
# Indices 1 2 3 4 5 6 
#
# 1 0.006502 -0.002802 -0.004434 0.000000 0.000000 0.000000
# 2 -0.002802 0.019249 0.002023 0.000000 0.000000 0.000000
# 3 -0.004434 0.002023 0.014421 0.000000 0.000000 0.000000
# 4 0.000000 0.000000 0.000000 0.051295 0.000000 0.000000
# 5 0.000000 0.000000 0.000000 0.000000 0.028253 0.000000
# 6 0.000000 0.000000 0.000000 0.000000 0.000000 0.030743
#
#
# Mechanical properties :
#
#
# Convention : Reuss Voigt Hill
#
# Bulk Modulus (GPa) = 33.61789 56.99169 45.30479
# Shear Modulus (GPa) = 29.27322 35.16277 32.21800
#
# Velocity S-wave (km/s) = 3.61431 3.96124 3.79174
# Velocity P-wave (km/s) = 5.69383 6.80842 6.27591
#
# Compressibility (1/GPa) = 0.02974607
#
# Stress axis : x y z
#
# Youngs Moduli (GPa) = 153.80343 51.95123 69.34160
#
# Poissons Ratio (x) = 0.14557 0.30748
# Poissons Ratio (y) = 0.43095 -0.14030
# Poissons Ratio (z) = 0.68201 -0.10511
#
# Static dielectric constant tensor:
#      x y z
#    x 2.118650 0.000000 0.000000 
#    y 0.000000 1.840640 0.000000 
#    z 0.000000 0.000000 1.815680 
# 
# From -- ./inp_files/43509.got.cif
#   From: 2010.05.17/outbox.cif.g08.bks.cpg/sg22_22_cif.got.tgz:43509.got - 2010.06.03 23:40:54.
