data_PCOD9326173
_publ_section_title
;
Structure prediction by ZEFSAII (Michael W. Deem and Ramdas Pophale) SiO2 
 PCOD9326173
Probable space group: F 2 2 2
;
_chemical_formula_sum "Si O2"
_cell_formula_units_Z 68
_cell_length_a 13.015136
_cell_length_b 17.614424
_cell_length_c 15.626440
_cell_angle_alpha 90.000000
_cell_angle_beta 90.000000
_cell_angle_gamma 90.000000
_cell_volume 3582.425812
_symmetry_space_group_name_H-M "F 2 2 2"
_symmetry_group_IT_number 22
_symmetry_cell_setting 'orthorhombic'
loop_
_space_group_symop_operation_xyz
x,y,z
-x,-y,z
x,-y,-z
-x,y,-z
x,1/2+y,1/2+z
-x,1/2-y,1/2+z
x,1/2-y,1/2-z
-x,1/2+y,1/2-z
1/2+x,y,1/2+z
1/2-x,-y,1/2+z
1/2+x,-y,1/2-z
1/2-x,y,1/2-z
1/2+x,1/2+y,z
1/2-x,1/2-y,z
1/2+x,1/2-y,-z
1/2-x,1/2+y,-z
loop_
_atom_site_type_symbol
_atom_site_label
_atom_site_fract_x
_atom_site_fract_y
_atom_site_fract_z
Si Si1 0.750000 0.397143 0.250000
Si Si2 0.879502 0.489569 0.127472
Si Si3 0.000000 0.741487 0.000000
Si Si4 0.500000 0.000000 0.500000
Si Si5 0.371741 0.862853 0.419325
Si Si6 0.321350 0.624519 0.526702
O O1 0.837449 0.450113 0.210933
O O2 0.693498 0.357752 0.168867
O O3 0.855905 0.431270 0.050608
O O4 0.000000 0.500000 0.130012
O O5 0.823670 0.568931 0.107676
O O6 0.955511 0.796792 0.926890
O O7 0.907223 0.688743 0.032096
O O8 0.427939 0.943463 0.442238
O O9 0.290391 0.849271 0.496578
#
# Coordination Sequence:
#
# PCOD9326173 Si02
#       6
#     8  16   8   4  16  16
#     4  10  22  36  55  88 123 148 186 246 314 342
#     4  10  18  34  61  83 107 147 191 247 285 350
#     4  11  20  36  60  87 112 154 200 241 280 350
#     4  10  20  40  60  92 116 160 208 238 292 354
#     4  10  22  36  60  88 121 154 195 249 293 352
#     4  10  18  37  61  85 107 151 205 238 280 342
#
# _framework density 18.981551
#
# number of rings (size 3 to 8) (size 9 to 14) (size 15 to 20)
#    0.000    1.882    2.353    4.235    1.647    0.000 
#    0.000    9.412    0.000    0.000    0.000    0.000 
#    0.000    0.000    0.000    0.000    0.000    0.000 
#
# Total GULP energy -94736.070511 kJ/mol
# GULP energy per Si atom -5572.710030 kJ/mol
# Density = 1.893835 g / cm^3
# Si number density = 18.981551 Si / 1000 Ang^3
#
#
#
# Elastic Constant Matrix: (Units=GPa)
#
#
# Indices 1 2 3 4 5 6 
#
# 1 78.5882 30.1145 6.5924 0.0000 0.0000 0.0000
# 2 30.1145 99.0991 13.5347 0.0000 0.0000 0.0000
# 3 6.5924 13.5347 46.3173 0.0000 0.0000 0.0000
# 4 0.0000 0.0000 0.0000 -0.7720 0.0000 0.0000
# 5 0.0000 0.0000 0.0000 0.0000 25.5891 0.0000
# 6 0.0000 0.0000 0.0000 0.0000 0.0000 36.9382
#
#
#
# Elastic Compliance Matrix: (Units=1/GPa)
#
#
# Indices 1 2 3 4 5 6 
#
# 1 0.014430 -0.004275 -0.000805 0.000000 0.000000 0.000000
# 2 -0.004275 0.011777 -0.002833 0.000000 0.000000 0.000000
# 3 -0.000805 -0.002833 0.022533 0.000000 0.000000 0.000000
# 4 0.000000 0.000000 0.000000 -1.295333 0.000000 0.000000
# 5 0.000000 0.000000 0.000000 0.000000 0.039079 0.000000
# 6 0.000000 0.000000 0.000000 0.000000 0.000000 0.027072
#
#
# Mechanical properties :
#
#
# Convention : Reuss Voigt Hill
#
# Bulk Modulus (GPa) = 30.38191 36.05420 33.21805
# Shear Modulus (GPa) = -4.33409 23.93526 9.80058
#
# Velocity S-wave (km/s) = -1.51270 3.55487 2.27474
# Velocity P-wave (km/s) = 3.60413 5.99041 4.94342
#
# Compressibility (1/GPa) = 0.03291432
#
# Stress axis : x y z
#
# Youngs Moduli (GPa) = 69.29869 84.91127 44.38026
#
# Poissons Ratio (x) = 0.36302 0.03571
# Poissons Ratio (y) = 0.29627 0.12573
# Poissons Ratio (z) = 0.05576 0.24055
#
# Static dielectric constant tensor:
#      x y z
#    x 1.778250 0.000000 0.000000 
#    y 0.000000 1.703180 0.000000 
#    z 0.000000 0.000000 1.668300 
# 
# From -- ./inp_files/21149.got.cif
#   From: 2010.05.17/outbox.cif.g08.bks.cpg/sg22_11_cif.got.tgz:21149.got - 2010.06.03 23:40:54.
