data_PCOD9326995
_publ_section_title
;
Structure prediction by ZEFSAII (Michael W. Deem and Ramdas Pophale) SiO2 
 PCOD9326995
Probable space group: F 2 2 2
;
_chemical_formula_sum "Si O2"
_cell_formula_units_Z 112
_cell_length_a 22.394206
_cell_length_b 12.860773
_cell_length_c 19.997561
_cell_angle_alpha 90.000000
_cell_angle_beta 90.000000
_cell_angle_gamma 90.000000
_cell_volume 5759.433549
_symmetry_space_group_name_H-M "F 2 2 2"
_symmetry_group_IT_number 22
_symmetry_cell_setting 'orthorhombic'
loop_
_space_group_symop_operation_xyz
x,y,z
-x,-y,z
x,-y,-z
-x,y,-z
x,1/2+y,1/2+z
-x,1/2-y,1/2+z
x,1/2-y,1/2-z
-x,1/2+y,1/2-z
1/2+x,y,1/2+z
1/2-x,-y,1/2+z
1/2+x,-y,1/2-z
1/2-x,y,1/2-z
1/2+x,1/2+y,z
1/2-x,1/2-y,z
1/2+x,1/2-y,-z
1/2-x,1/2+y,-z
loop_
_atom_site_type_symbol
_atom_site_label
_atom_site_fract_x
_atom_site_fract_y
_atom_site_fract_z
Si Si1 0.132983 0.509375 0.814246
Si Si2 0.032918 0.400027 0.899989
Si Si3 0.578699 0.721246 0.352405
Si Si4 0.147212 0.948454 0.069981
Si Si5 0.249068 0.126470 0.668963
Si Si6 0.432630 0.778711 0.496876
Si Si7 0.932174 0.545158 0.319879
O O1 0.083161 0.446208 0.853721
O O2 0.125841 0.632719 0.830658
O O3 0.192989 0.452537 0.838032
O O4 0.111930 0.500002 0.737102
O O5 0.057901 0.327778 0.957310
O O6 0.000000 0.500000 0.928066
O O7 0.985500 0.335352 0.856064
O O8 0.590164 0.753947 0.429281
O O9 0.571092 0.829465 0.313285
O O10 0.198566 0.922350 0.123380
O O11 0.112224 0.846797 0.045626
O O12 0.097154 0.015826 0.109005
O O13 0.168307 0.000000 0.000000
O O14 0.250000 0.128663 0.750000
O O15 0.250000 0.250000 0.649735
O O16 0.500000 0.826612 0.500000
O O17 0.000000 0.500000 0.314228
#
# Coordination Sequence:
#
# PCOD9326995 Si02
#       7
#    16  16  16  16  16  16  16
#     4  11  23  42  66  91 133 178 226 277 328 400
#     4   9  19  36  59  95 131 170 215 268 330 397
#     4  10  21  38  61  98 139 171 217 267 342 409
#     4  12  25  44  67  96 136 171 229 278 330 407
#     4  11  25  50  71  92 125 174 231 285 338 397
#     4  10  20  37  63  98 132 172 212 269 342 403
#     4  12  23  39  67 103 141 175 213 273 340 409
#
# _framework density 19.446358
#
# number of rings (size 3 to 8) (size 9 to 14) (size 15 to 20)
#    0.000    1.286    2.857    4.286    0.000    6.571 
#    5.143    0.714    0.000    0.000    0.000    0.000 
#    0.000    0.000    0.000    0.000    0.000    0.000 
#
# Total GULP energy -156046.374465 kJ/mol
# GULP energy per Si atom -5573.084802 kJ/mol
# Density = 1.940210 g / cm^3
# Si number density = 19.446358 Si / 1000 Ang^3
#
#
#
# Elastic Constant Matrix: (Units=GPa)
#
#
# Indices 1 2 3 4 5 6 
#
# 1 92.9703 79.3427 65.2028 0.0000 0.0000 0.0000
# 2 79.3427 144.5473 38.3536 0.0000 0.0000 0.0000
# 3 65.2028 38.3536 94.2835 0.0000 0.0000 0.0000
# 4 0.0000 0.0000 0.0000 42.7118 0.0000 0.0000
# 5 0.0000 0.0000 0.0000 0.0000 -33.0589 0.0000
# 6 0.0000 0.0000 0.0000 0.0000 0.0000 21.7181
#
#
#
# Elastic Compliance Matrix: (Units=1/GPa)
#
#
# Indices 1 2 3 4 5 6 
#
# 1 0.038106 -0.015609 -0.020003 0.000000 0.000000 0.000000
# 2 -0.015609 0.014149 0.005039 0.000000 0.000000 0.000000
# 3 -0.020003 0.005039 0.022390 0.000000 0.000000 0.000000
# 4 0.000000 0.000000 0.000000 0.023413 0.000000 0.000000
# 5 0.000000 0.000000 0.000000 0.000000 -0.030249 0.000000
# 6 0.000000 0.000000 0.000000 0.000000 0.000000 0.046045
#
#
# Mechanical properties :
#
#
# Convention : Reuss Voigt Hill
#
# Bulk Modulus (GPa) = 74.08189 77.51104 75.79646
# Shear Modulus (GPa) = 27.85547 16.20100 22.02823
#
# Velocity S-wave (km/s) = 3.78885 2.88950 3.36931
# Velocity P-wave (km/s) = 7.57091 7.14687 7.36194
#
# Compressibility (1/GPa) = 0.01349858
#
# Stress axis : x y z
#
# Youngs Moduli (GPa) = 26.24283 70.67656 44.66326
#
# Poissons Ratio (x) = 1.10318 0.89339
# Poissons Ratio (y) = 0.40962 -0.22505
# Poissons Ratio (z) = 0.52493 -0.35613
#
# Static dielectric constant tensor:
#      x y z
#    x 1.673540 0.000000 0.000000 
#    y 0.000000 1.709470 0.000000 
#    z 0.000000 0.000000 1.719760 
# 
# From -- ./inp_files/45361.got.cif
#   From: 2010.05.17/outbox.cif.g08.bks.cpg/sg22_23_cif.got.tgz:45361.got - 2010.06.03 23:40:54.
