data_PCOD9326074
_publ_section_title
;
Structure prediction by ZEFSAII (Michael W. Deem and Ramdas Pophale) SiO2 
 PCOD9326074
Probable space group: F 2 2 2
;
_chemical_formula_sum "Si O2"
_cell_formula_units_Z 80
_cell_length_a 15.833239
_cell_length_b 8.763392
_cell_length_c 30.587217
_cell_angle_alpha 90.000000
_cell_angle_beta 90.000000
_cell_angle_gamma 90.000000
_cell_volume 4244.064450
_symmetry_space_group_name_H-M "F 2 2 2"
_symmetry_group_IT_number 22
_symmetry_cell_setting 'orthorhombic'
loop_
_space_group_symop_operation_xyz
x,y,z
-x,-y,z
x,-y,-z
-x,y,-z
x,1/2+y,1/2+z
-x,1/2-y,1/2+z
x,1/2-y,1/2-z
-x,1/2+y,1/2-z
1/2+x,y,1/2+z
1/2-x,-y,1/2+z
1/2+x,-y,1/2-z
1/2-x,y,1/2-z
1/2+x,1/2+y,z
1/2-x,1/2-y,z
1/2+x,1/2-y,-z
1/2-x,1/2+y,-z
loop_
_atom_site_type_symbol
_atom_site_label
_atom_site_fract_x
_atom_site_fract_y
_atom_site_fract_z
Si Si1 0.594227 0.057365 0.606684
Si Si2 0.596640 0.443264 0.292550
Si Si3 0.668528 0.860795 0.130078
Si Si4 0.747970 0.932000 0.453168
Si Si5 0.907006 0.420394 0.303774
O O1 0.596221 0.237823 0.617966
O O2 0.656027 0.026628 0.566161
O O3 0.500000 0.000000 0.598796
O O4 0.630714 0.976343 0.650506
O O5 0.500000 0.500000 0.292982
O O6 0.646724 0.538442 0.328480
O O7 0.631035 0.467441 0.243139
O O8 0.592762 0.262824 0.302561
O O9 0.750000 0.750000 0.137026
O O10 0.688469 0.961607 0.087174
O O11 0.750000 0.750000 0.458346
O O12 0.767079 0.000000 0.500000
O O13 0.000000 0.500000 0.304226
#
# Coordination Sequence:
#
# PCOD9326074 Si02
#       5
#    16  16  16  16  16
#     4   9  17  33  55  79 106 135 176 220 257 311
#     4  10  18  31  54  80 109 146 183 217 260 314
#     4   9  20  37  54  78 110 142 175 217 272 322
#     4   9  20  37  55  76 104 137 171 214 273 326
#     4   9  18  30  49  82 113 139 178 223 263 308
#
# _framework density 18.849855000000002
#
# number of rings (size 3 to 8) (size 9 to 14) (size 15 to 20)
#    0.000    3.200    0.000    2.400    0.000    4.400 
#    0.000   11.000    0.000   15.000    0.000    0.000 
#    0.000    0.000    0.000    0.000    0.000    0.000 
#
# Total GULP energy -111392.954639 kJ/mol
# GULP energy per Si atom -5569.647732 kJ/mol
# Density = 1.880695 g / cm^3
# Si number density = 18.849855 Si / 1000 Ang^3
#
#
#
# Elastic Constant Matrix: (Units=GPa)
#
#
# Indices 1 2 3 4 5 6 
#
# 1 62.6475 31.0387 42.2966 0.0000 0.0000 0.0000
# 2 31.0387 53.5111 44.3972 0.0000 0.0000 0.0000
# 3 42.2966 44.3972 147.7835 0.0000 0.0000 0.0000
# 4 0.0000 0.0000 0.0000 38.5990 0.0000 0.0000
# 5 0.0000 0.0000 0.0000 0.0000 23.7649 0.0000
# 6 0.0000 0.0000 0.0000 0.0000 0.0000 27.2559
#
#
#
# Elastic Compliance Matrix: (Units=1/GPa)
#
#
# Indices 1 2 3 4 5 6 
#
# 1 0.023710 -0.010819 -0.003536 0.000000 0.000000 0.000000
# 2 -0.010819 0.029829 -0.005865 0.000000 0.000000 0.000000
# 3 -0.003536 -0.005865 0.009540 0.000000 0.000000 0.000000
# 4 0.000000 0.000000 0.000000 0.025907 0.000000 0.000000
# 5 0.000000 0.000000 0.000000 0.000000 0.042079 0.000000
# 6 0.000000 0.000000 0.000000 0.000000 0.000000 0.036689
#
#
# Mechanical properties :
#
#
# Convention : Reuss Voigt Hill
#
# Bulk Modulus (GPa) = 44.16910 55.48967 49.82939
# Shear Modulus (GPa) = 23.17594 27.67127 25.42361
#
# Velocity S-wave (km/s) = 3.51023 3.83558 3.67651
# Velocity P-wave (km/s) = 6.31759 7.00837 6.67192
#
# Compressibility (1/GPa) = 0.02264026
#
# Stress axis : x y z
#
# Youngs Moduli (GPa) = 42.17670 33.52420 104.81689
#
# Poissons Ratio (x) = 0.36271 0.37059
# Poissons Ratio (y) = 0.45632 0.61473
# Poissons Ratio (z) = 0.14912 0.19661
#
# Static dielectric constant tensor:
#      x y z
#    x 1.687330 0.000000 0.000000 
#    y 0.000000 1.658990 0.000000 
#    z 0.000000 0.000000 1.685790 
# 
# From -- ./inp_files/55480.got.cif
#   From: 2010.05.17/outbox.cif.g08.bks.cpg/sg22_28_cif.got.tgz:55480.got - 2010.06.03 23:40:54.
