data_PCOD9326433
_publ_section_title
;
Structure prediction by ZEFSAII (Michael W. Deem and Ramdas Pophale) SiO2 
 PCOD9326433
Probable space group: F 2 2 2
;
_chemical_formula_sum "Si O2"
_cell_formula_units_Z 96
_cell_length_a 32.288175
_cell_length_b 5.124461
_cell_length_c 28.368767
_cell_angle_alpha 90.000000
_cell_angle_beta 90.000000
_cell_angle_gamma 90.000000
_cell_volume 4693.881820
_symmetry_space_group_name_H-M "F 2 2 2"
_symmetry_group_IT_number 22
_symmetry_cell_setting 'orthorhombic'
loop_
_space_group_symop_operation_xyz
x,y,z
-x,-y,z
x,-y,-z
-x,y,-z
x,1/2+y,1/2+z
-x,1/2-y,1/2+z
x,1/2-y,1/2-z
-x,1/2+y,1/2-z
1/2+x,y,1/2+z
1/2-x,-y,1/2+z
1/2+x,-y,1/2-z
1/2-x,y,1/2-z
1/2+x,1/2+y,z
1/2-x,1/2-y,z
1/2+x,1/2-y,-z
1/2-x,1/2+y,-z
loop_
_atom_site_type_symbol
_atom_site_label
_atom_site_fract_x
_atom_site_fract_y
_atom_site_fract_z
Si Si1 0.000000 0.500000 0.217103
Si Si2 0.869790 0.500000 0.000000
Si Si3 0.848128 0.750000 0.250000
Si Si4 0.686480 0.858929 0.405700
Si Si5 0.690560 0.000000 0.500000
Si Si6 0.278231 0.998255 0.694770
Si Si7 0.131821 0.846342 0.402008
Si Si8 0.908295 0.094882 0.301333
O O1 0.006360 0.250000 0.250000
O O2 0.956672 0.463130 0.190811
O O3 0.891640 0.454953 0.050788
O O4 0.838936 0.253550 0.998381
O O5 0.818307 0.970277 0.228075
O O6 0.878488 0.648227 0.209795
O O7 0.713918 0.947532 0.451012
O O8 0.707408 0.959426 0.358496
O O9 0.669748 0.561859 0.399123
O O10 0.647608 0.054473 0.411843
O O11 0.250000 0.750000 0.703767
O O12 0.250000 0.250000 0.699973
O O13 0.109284 0.815695 0.351736
O O14 0.906562 0.250000 0.250000
#
# Coordination Sequence:
#
# PCOD9326433 Si02
#       8
#     8   8   8  16   8  16  16  16
#     4  10  22  40  58  93 128 153 194 254 308 354
#     4   8  16  30  52  86 114 142 195 248 279 340
#     4  12  25  42  62  82 114 164 208 236 297 368
#     4  10  19  38  57  83 111 148 197 244 299 348
#     4   8  16  30  58  81 106 139 189 248 293 349
#     4  12  27  42  56  80 117 153 198 253 293 345
#     4  10  19  34  60  86 114 154 199 240 292 361
#     4  11  23  38  65  91 124 160 201 251 303 375
#
# _framework density 20.452155000000001
#
# number of rings (size 3 to 8) (size 9 to 14) (size 15 to 20)
#    0.000    1.667    2.500    2.250    2.333    0.667 
#    0.000    0.833    0.000    0.500    0.000    0.000 
#    0.000    9.667    0.000    0.000    0.000    1.667 
#
# Total GULP energy -133608.484888 kJ/mol
# GULP energy per Si atom -5567.020204 kJ/mol
# Density = 2.040560 g / cm^3
# Si number density = 20.452155 Si / 1000 Ang^3
#
#
#
# Elastic Constant Matrix: (Units=GPa)
#
#
# Indices 1 2 3 4 5 6 
#
# 1 68.7928 19.5655 22.5870 0.0077 0.0101 -0.0213
# 2 19.5655 119.3539 4.3801 0.0160 0.0478 0.0447
# 3 22.5870 4.3801 148.7248 0.0218 0.0243 -0.0047
# 4 0.0077 0.0160 0.0218 29.8447 0.0038 0.0274
# 5 0.0101 0.0478 0.0243 0.0038 26.0509 0.0283
# 6 -0.0213 0.0447 -0.0047 0.0274 0.0283 -0.8015
#
#
#
# Elastic Compliance Matrix: (Units=1/GPa)
#
#
# Indices 1 2 3 4 5 6 
#
# 1 0.016034 -0.002542 -0.002360 -0.000001 0.000001 -0.000555
# 2 -0.002542 0.008790 0.000127 -0.000005 -0.000016 0.000556
# 3 -0.002360 0.000127 0.007079 -0.000005 -0.000006 0.000028
# 4 -0.000001 -0.000005 -0.000005 0.033506 -0.000006 0.001144
# 5 0.000001 -0.000016 -0.000006 -0.000006 0.038385 0.001354
# 6 -0.000555 0.000556 0.000028 0.001144 0.001354 -1.247509
#
#
# Mechanical properties :
#
#
# Convention : Reuss Voigt Hill
#
# Bulk Modulus (GPa) = 44.73609 47.77075 46.25342
# Shear Modulus (GPa) = -4.43768 30.37474 12.96853
#
# Velocity S-wave (km/s) = -1.47462 3.85796 2.52085
# Velocity P-wave (km/s) = 4.36139 6.57671 5.58009
#
# Compressibility (1/GPa) = 0.02235332
#
# Stress axis : x y z
#
# Youngs Moduli (GPa) = 62.36724 113.76279 141.27195
#
# Poissons Ratio (x) = 0.28914 0.33344
# Poissons Ratio (y) = 0.15851 -0.01796
# Poissons Ratio (z) = 0.14720 -0.01446
#
# Static dielectric constant tensor:
#      x y z
#    x 1.734970 -0.000010 0.000260 
#    y -0.000010 1.752900 0.000470 
#    z 0.000260 0.000470 0.867210 
# 
# From -- ./inp_files/57339.got.cif
#   From: 2010.05.17/outbox.cif.g08.bks.cpg/sg22_29_cif.got.tgz:57339.got - 2010.06.03 23:40:54.
