data_PCOD9326243
_publ_section_title
;
Structure prediction by ZEFSAII (Michael W. Deem and Ramdas Pophale) SiO2 
 PCOD9326243
Probable space group: F 2 2 2
;
_chemical_formula_sum "Si O2"
_cell_formula_units_Z 64
_cell_length_a 15.663913
_cell_length_b 10.411739
_cell_length_c 17.995024
_cell_angle_alpha 90.000000
_cell_angle_beta 90.000000
_cell_angle_gamma 90.000000
_cell_volume 2934.782801
_symmetry_space_group_name_H-M "F 2 2 2"
_symmetry_group_IT_number 22
_symmetry_cell_setting 'orthorhombic'
loop_
_space_group_symop_operation_xyz
x,y,z
-x,-y,z
x,-y,-z
-x,y,-z
x,1/2+y,1/2+z
-x,1/2-y,1/2+z
x,1/2-y,1/2-z
-x,1/2+y,1/2-z
1/2+x,y,1/2+z
1/2-x,-y,1/2+z
1/2+x,-y,1/2-z
1/2-x,y,1/2-z
1/2+x,1/2+y,z
1/2-x,1/2-y,z
1/2+x,1/2-y,-z
1/2-x,1/2+y,-z
loop_
_atom_site_type_symbol
_atom_site_label
_atom_site_fract_x
_atom_site_fract_y
_atom_site_fract_z
Si Si1 0.156048 0.801185 0.539207
Si Si2 0.100907 0.885625 0.235284
Si Si3 0.093783 0.655229 0.683334
Si Si4 0.091559 0.557451 0.092757
O O1 0.250000 0.750000 0.526566
O O2 0.111534 0.715375 0.602834
O O3 0.110344 0.820600 0.459369
O O4 0.157665 0.944763 0.573280
O O5 0.147680 0.750000 0.250000
O O6 0.088061 0.926093 0.320102
O O7 0.008567 0.857110 0.197415
O O8 0.133983 0.012840 0.193621
O O9 0.124353 0.750000 0.750000
O O10 0.000000 0.500000 0.073464
#
# Coordination Sequence:
#
# PCOD9326243 Si02
#       4
#    16  16  16  16
#     4  11  24  40  67  97 138 177 223 282 353 423
#     4  10  19  37  68 102 128 163 237 301 328 391
#     4  10  18  37  64  97 129 165 229 283 335 398
#     4  11  21  45  76  97 126 190 247 275 338 430
#
# _framework density 21.807406
#
# number of rings (size 3 to 8) (size 9 to 14) (size 15 to 20)
#    0.000    1.500    5.000    3.000    0.000    0.500 
#    9.000    0.000    0.000    6.000    0.000    0.000 
#    0.000    0.000    0.000    0.000    0.000    0.000 
#
# Total GULP energy -89193.559711 kJ/mol
# GULP energy per Si atom -5574.597482 kJ/mol
# Density = 2.175777 g / cm^3
# Si number density = 21.807406 Si / 1000 Ang^3
#
#
#
# Elastic Constant Matrix: (Units=GPa)
#
#
# Indices 1 2 3 4 5 6 
#
# 1 77.9903 22.4779 38.1457 0.0000 0.0000 0.0000
# 2 22.4779 147.1001 31.4023 0.0000 0.0000 0.0000
# 3 38.1457 31.4023 141.0184 0.0000 0.0000 0.0000
# 4 0.0000 0.0000 0.0000 6.4733 0.0000 0.0000
# 5 0.0000 0.0000 0.0000 0.0000 30.1269 0.0000
# 6 0.0000 0.0000 0.0000 0.0000 0.0000 13.5759
#
#
#
# Elastic Compliance Matrix: (Units=1/GPa)
#
#
# Indices 1 2 3 4 5 6 
#
# 1 0.015088 -0.001506 -0.003746 0.000000 0.000000 0.000000
# 2 -0.001506 0.007288 -0.001215 0.000000 0.000000 0.000000
# 3 -0.003746 -0.001215 0.008375 0.000000 0.000000 0.000000
# 4 0.000000 0.000000 0.000000 0.154481 0.000000 0.000000
# 5 0.000000 0.000000 0.000000 0.000000 0.033193 0.000000
# 6 0.000000 0.000000 0.000000 0.000000 0.000000 0.073660
#
#
# Mechanical properties :
#
#
# Convention : Reuss Voigt Hill
#
# Bulk Modulus (GPa) = 56.12820 61.12894 58.62857
# Shear Modulus (GPa) = 16.07928 28.30742 22.19335
#
# Velocity S-wave (km/s) = 2.71833 3.60677 3.19360
# Velocity P-wave (km/s) = 5.97046 6.74071 6.36725
#
# Compressibility (1/GPa) = 0.01781636
#
# Stress axis : x y z
#
# Youngs Moduli (GPa) = 66.27620 137.21787 119.39930
#
# Poissons Ratio (x) = 0.20664 0.44728
# Poissons Ratio (y) = 0.09981 0.14513
# Poissons Ratio (z) = 0.24828 0.16679
#
# Static dielectric constant tensor:
#      x y z
#    x 2.567640 0.000000 0.000000 
#    y 0.000000 1.833600 0.000000 
#    z 0.000000 0.000000 1.783010 
# 
# From -- ./inp_files/27797.got.cif
#   From: 2010.05.17/outbox.cif.g08.bks.cpg/sg22_14_cif.got.tgz:27797.got - 2010.06.03 23:40:54.
