data_PCOD9326220
_publ_section_title
;
Structure prediction by ZEFSAII (Michael W. Deem and Ramdas Pophale) SiO2 
 PCOD9326220
Probable space group: F 2 2 2
;
_chemical_formula_sum "Si O2"
_cell_formula_units_Z 72
_cell_length_a 24.016743
_cell_length_b 11.189597
_cell_length_c 11.544997
_cell_angle_alpha 90.000000
_cell_angle_beta 90.000000
_cell_angle_gamma 90.000000
_cell_volume 3102.575657
_symmetry_space_group_name_H-M "F 2 2 2"
_symmetry_group_IT_number 22
_symmetry_cell_setting 'orthorhombic'
loop_
_space_group_symop_operation_xyz
x,y,z
-x,-y,z
x,-y,-z
-x,y,-z
x,1/2+y,1/2+z
-x,1/2-y,1/2+z
x,1/2-y,1/2-z
-x,1/2+y,1/2-z
1/2+x,y,1/2+z
1/2-x,-y,1/2+z
1/2+x,-y,1/2-z
1/2-x,y,1/2-z
1/2+x,1/2+y,z
1/2-x,1/2-y,z
1/2+x,1/2-y,-z
1/2-x,1/2+y,-z
loop_
_atom_site_type_symbol
_atom_site_label
_atom_site_fract_x
_atom_site_fract_y
_atom_site_fract_z
Si Si1 0.312526 0.196640 0.894066
Si Si2 0.500000 0.296745 0.500000
Si Si3 0.500000 0.500000 0.330073
Si Si4 0.732618 0.000000 0.000000
Si Si5 0.333067 0.441606 0.842000
Si Si6 0.081690 0.648447 0.665654
O O1 0.250000 0.250000 0.872319
O O2 0.348230 0.315710 0.904373
O O3 0.330023 0.108377 0.789899
O O4 0.305752 0.116011 0.006170
O O5 0.526080 0.393241 0.408888
O O6 0.544225 0.214267 0.568108
O O7 0.541513 0.570803 0.248268
O O8 0.773761 0.985705 0.891622
O O9 0.373587 0.549544 0.868349
O O10 0.106631 0.750000 0.750000
#
# Coordination Sequence:
#
# PCOD9326220 Si02
#       6
#    16   8   8   8  16  16
#     4   9  19  41  65  87 129 179 213 262 335 386
#     4   9  20  43  70  94 138 178 220 266 342 417
#     4   9  20  43  70  94 134 187 206 273 348 396
#     4  10  18  36  66  91 122 175 222 254 330 394
#     4  10  20  39  62  95 127 161 223 271 314 397
#     4  10  22  43  66 102 132 170 222 275 336 398
#
# _framework density 23.206524999999999
#
# number of rings (size 3 to 8) (size 9 to 14) (size 15 to 20)
#    0.000    2.444    0.000    4.667    0.000    2.222 
#   36.000    2.222    0.000    0.000    0.000    0.000 
#    0.000    0.000    0.000    0.000    0.000    0.000 
#
# Total GULP energy -100329.053388 kJ/mol
# GULP energy per Si atom -5573.836299 kJ/mol
# Density = 2.315371 g / cm^3
# Si number density = 23.206525 Si / 1000 Ang^3
#
#
#
# Elastic Constant Matrix: (Units=GPa)
#
#
# Indices 1 2 3 4 5 6 
#
# 1 43.8290 77.8027 38.3400 0.0000 0.0000 0.0000
# 2 77.8027 237.8126 88.5062 0.0000 0.0000 0.0000
# 3 38.3400 88.5062 86.5418 0.0000 0.0000 0.0000
# 4 0.0000 0.0000 0.0000 41.6124 0.0000 0.0000
# 5 0.0000 0.0000 0.0000 0.0000 17.0176 0.0000
# 6 0.0000 0.0000 0.0000 0.0000 0.0000 44.9142
#
#
#
# Elastic Compliance Matrix: (Units=1/GPa)
#
#
# Indices 1 2 3 4 5 6 
#
# 1 0.059765 -0.015659 -0.010463 0.000000 0.000000 0.000000
# 2 -0.015659 0.010892 -0.004202 0.000000 0.000000 0.000000
# 3 -0.010463 -0.004202 0.020488 0.000000 0.000000 0.000000
# 4 0.000000 0.000000 0.000000 0.024031 0.000000 0.000000
# 5 0.000000 0.000000 0.000000 0.000000 0.058763 0.000000
# 6 0.000000 0.000000 0.000000 0.000000 0.000000 0.022265
#
#
# Mechanical properties :
#
#
# Convention : Reuss Voigt Hill
#
# Bulk Modulus (GPa) = 32.78993 86.38681 59.58837
# Shear Modulus (GPa) = 18.72548 31.61114 25.16831
#
# Velocity S-wave (km/s) = 2.84369 3.69476 3.29680
# Velocity P-wave (km/s) = 4.99424 7.45035 6.34232
#
# Compressibility (1/GPa) = 0.03049717
#
# Stress axis : x y z
#
# Youngs Moduli (GPa) = 16.73219 91.81389 48.80997
#
# Poissons Ratio (x) = 1.43768 0.51071
# Poissons Ratio (y) = 0.26200 0.20508
# Poissons Ratio (z) = 0.17507 0.38577
#
# Static dielectric constant tensor:
#      x y z
#    x 2.036790 0.000000 0.000000 
#    y 0.000000 1.947370 0.000000 
#    z 0.000000 0.000000 1.987180 
# 
# From -- ./inp_files/24401.got.cif
#   From: 2010.05.17/outbox.cif.g08.bks.cpg/sg22_13_cif.got.tgz:24401.got - 2010.06.03 23:40:54.
