data_PCOD9326006
_publ_section_title
;
Structure prediction by ZEFSAII (Michael W. Deem and Ramdas Pophale) SiO2 
 PCOD9326006
Probable space group: F 2 2 2
;
_chemical_formula_sum "Si O2"
_cell_formula_units_Z 40
_cell_length_a 13.434781
_cell_length_b 11.520736
_cell_length_c 12.090317
_cell_angle_alpha 90.000000
_cell_angle_beta 90.000000
_cell_angle_gamma 90.000000
_cell_volume 1871.321917
_symmetry_space_group_name_H-M "F 2 2 2"
_symmetry_group_IT_number 22
_symmetry_cell_setting 'orthorhombic'
loop_
_space_group_symop_operation_xyz
x,y,z
-x,-y,z
x,-y,-z
-x,y,-z
x,1/2+y,1/2+z
-x,1/2-y,1/2+z
x,1/2-y,1/2-z
-x,1/2+y,1/2-z
1/2+x,y,1/2+z
1/2-x,-y,1/2+z
1/2+x,-y,1/2-z
1/2-x,y,1/2-z
1/2+x,1/2+y,z
1/2-x,1/2-y,z
1/2+x,1/2-y,-z
1/2-x,1/2+y,-z
loop_
_atom_site_type_symbol
_atom_site_label
_atom_site_fract_x
_atom_site_fract_y
_atom_site_fract_z
Si Si1 0.656947 0.409691 0.170011
Si Si2 0.483637 0.250000 0.250000
Si Si3 0.107037 0.150940 0.056800
O O1 0.750000 0.398630 0.250000
O O2 0.559347 0.356926 0.230274
O O3 0.640483 0.542228 0.131056
O O4 0.672024 0.342027 0.053506
O O5 0.414145 0.255158 0.358529
O O6 0.000000 0.126824 0.000000
#
# Coordination Sequence:
#
# PCOD9326006 Si02
#       3
#    16   8  16
#     4  10  19  35  57  83 114 147 183 232 279 321
#     4  10  17  34  61  80 106 148 188 222 271 334
#     4   9  19  38  59  79 112 153 186 221 276 338
#
# _framework density 21.375263
#
# number of rings (size 3 to 8) (size 9 to 14) (size 15 to 20)
#    0.000    2.400    0.000    9.000    0.000    0.000 
#    0.000   37.000    0.000   21.600    0.000    0.000 
#    0.000    0.000    0.000    0.000    0.000    0.000 
#
# Total GULP energy -55700.076695 kJ/mol
# GULP energy per Si atom -5570.007670 kJ/mol
# Density = 2.132661 g / cm^3
# Si number density = 21.375263 Si / 1000 Ang^3
#
#
#
# Elastic Constant Matrix: (Units=GPa)
#
#
# Indices 1 2 3 4 5 6 
#
# 1 67.7706 30.5467 78.6373 0.0000 0.0000 0.0000
# 2 30.5467 52.5136 58.1444 0.0000 0.0000 0.0000
# 3 78.6373 58.1444 215.7368 0.0000 0.0000 0.0000
# 4 0.0000 0.0000 0.0000 47.5638 0.0000 0.0000
# 5 0.0000 0.0000 0.0000 0.0000 57.5666 0.0000
# 6 0.0000 0.0000 0.0000 0.0000 0.0000 26.5644
#
#
#
# Elastic Compliance Matrix: (Units=1/GPa)
#
#
# Indices 1 2 3 4 5 6 
#
# 1 0.027224 -0.006911 -0.008061 0.000000 0.000000 0.000000
# 2 -0.006911 0.028897 -0.005269 0.000000 0.000000 0.000000
# 3 -0.008061 -0.005269 0.008994 0.000000 0.000000 0.000000
# 4 0.000000 0.000000 0.000000 0.021024 0.000000 0.000000
# 5 0.000000 0.000000 0.000000 0.000000 0.017371 0.000000
# 6 0.000000 0.000000 0.000000 0.000000 0.000000 0.037644
#
#
# Mechanical properties :
#
#
# Convention : Reuss Voigt Hill
#
# Bulk Modulus (GPa) = 40.59614 74.51975 57.55795
# Shear Modulus (GPa) = 26.33715 37.58515 31.96115
#
# Velocity S-wave (km/s) = 3.51398 4.19781 3.87103
# Velocity P-wave (km/s) = 5.95797 7.64420 6.85315
#
# Compressibility (1/GPa) = 0.02463288
#
# Stress axis : x y z
#
# Youngs Moduli (GPa) = 36.73266 34.60599 111.19119
#
# Poissons Ratio (x) = 0.23916 0.89627
# Poissons Ratio (y) = 0.25385 0.58587
# Poissons Ratio (z) = 0.29609 0.18234
#
# Static dielectric constant tensor:
#      x y z
#    x 1.847460 0.000000 0.000000 
#    y 0.000000 1.813580 0.000000 
#    z 0.000000 0.000000 1.836000 
# 
# From -- ./inp_files/8886.got.cif
#   From: 2010.05.17/outbox.cif.g08.bks.cpg/sg22_5_cif.got.tgz:8886.got - 2010.06.03 23:40:54.
