data_PCOD9326691
_publ_section_title
;
Structure prediction by ZEFSAII (Michael W. Deem and Ramdas Pophale) SiO2 
 PCOD9326691
Probable space group: F 2 2 2
;
_chemical_formula_sum "Si O2"
_cell_formula_units_Z 104
_cell_length_a 17.730666
_cell_length_b 13.841965
_cell_length_c 20.695515
_cell_angle_alpha 90.000000
_cell_angle_beta 90.000000
_cell_angle_gamma 90.000000
_cell_volume 5079.243503
_symmetry_space_group_name_H-M "F 2 2 2"
_symmetry_group_IT_number 22
_symmetry_cell_setting 'orthorhombic'
loop_
_space_group_symop_operation_xyz
x,y,z
-x,-y,z
x,-y,-z
-x,y,-z
x,1/2+y,1/2+z
-x,1/2-y,1/2+z
x,1/2-y,1/2-z
-x,1/2+y,1/2-z
1/2+x,y,1/2+z
1/2-x,-y,1/2+z
1/2+x,-y,1/2-z
1/2-x,y,1/2-z
1/2+x,1/2+y,z
1/2-x,1/2-y,z
1/2+x,1/2-y,-z
1/2-x,1/2+y,-z
loop_
_atom_site_type_symbol
_atom_site_label
_atom_site_fract_x
_atom_site_fract_y
_atom_site_fract_z
Si Si1 0.709444 0.151685 0.317296
Si Si2 0.963918 0.725633 0.569782
Si Si3 0.479105 0.388244 0.341636
Si Si4 0.664018 0.135750 0.760448
Si Si5 0.844976 0.558585 0.562790
Si Si6 0.443063 0.427539 0.148278
Si Si7 0.070428 0.750000 0.250000
O O1 0.750000 0.122220 0.250000
O O2 0.750000 0.250000 0.339359
O O3 0.709360 0.076002 0.375538
O O4 0.626318 0.189613 0.296979
O O5 0.885373 0.665073 0.558439
O O6 0.000000 0.722488 0.500000
O O7 0.979880 0.833116 0.597933
O O8 0.013695 0.663467 0.620213
O O9 0.500000 0.500000 0.343634
O O10 0.388759 0.382265 0.324135
O O11 0.518744 0.328927 0.283836
O O12 0.665571 0.250000 0.750000
O O13 0.750000 0.101569 0.750000
O O14 0.619885 0.094540 0.699404
O O15 0.814634 0.500000 0.500000
O O16 0.909784 0.486540 0.587949
O O17 0.500000 0.500000 0.182048
#
# Coordination Sequence:
#
# PCOD9326691 Si02
#       7
#    16  16  16  16  16  16   8
#     4   9  21  40  66  96 143 185 223 294 371 410
#     4  11  21  40  63  94 138 163 224 302 343 410
#     4  12  24  39  67  98 129 181 235 286 361 427
#     4  11  23  40  60  91 138 177 210 268 348 420
#     4  11  21  37  70 104 127 178 237 291 357 419
#     4  10  21  36  63  98 126 165 223 285 341 397
#     4  10  19  42  63  96 132 170 228 302 337 418
#
# _framework density 20.475489
#
# number of rings (size 3 to 8) (size 9 to 14) (size 15 to 20)
#    0.000    1.538    5.385    0.462    4.308    0.923 
#    2.769    0.000    6.769    0.000    0.000    0.000 
#    0.000    0.000    0.000    0.000    0.000    0.000 
#
# Total GULP energy -144811.715625 kJ/mol
# GULP energy per Si atom -5569.681370 kJ/mol
# Density = 2.042889 g / cm^3
# Si number density = 20.475489 Si / 1000 Ang^3
#
#
#
# Elastic Constant Matrix: (Units=GPa)
#
#
# Indices 1 2 3 4 5 6 
#
# 1 99.7359 36.9610 37.7832 0.0000 0.0000 0.0000
# 2 36.9610 126.3290 47.7987 0.0000 0.0000 0.0000
# 3 37.7832 47.7987 113.8011 0.0000 0.0000 0.0000
# 4 0.0000 0.0000 0.0000 37.8699 0.0000 0.0000
# 5 0.0000 0.0000 0.0000 0.0000 24.2590 0.0000
# 6 0.0000 0.0000 0.0000 0.0000 0.0000 18.5461
#
#
#
# Elastic Compliance Matrix: (Units=1/GPa)
#
#
# Indices 1 2 3 4 5 6 
#
# 1 0.012047 -0.002391 -0.002995 0.000000 0.000000 0.000000
# 2 -0.002391 0.009886 -0.003358 0.000000 0.000000 0.000000
# 3 -0.002995 -0.003358 0.011192 0.000000 0.000000 0.000000
# 4 0.000000 0.000000 0.000000 0.026406 0.000000 0.000000
# 5 0.000000 0.000000 0.000000 0.000000 0.041222 0.000000
# 6 0.000000 0.000000 0.000000 0.000000 0.000000 0.053920
#
#
# Mechanical properties :
#
#
# Convention : Reuss Voigt Hill
#
# Bulk Modulus (GPa) = 63.95711 64.99466 64.47589
# Shear Modulus (GPa) = 28.18866 30.62321 29.40594
#
# Velocity S-wave (km/s) = 3.71442 3.87150 3.79377
# Velocity P-wave (km/s) = 7.04980 7.19696 7.12376
#
# Compressibility (1/GPa) = 0.01563548
#
# Stress axis : x y z
#
# Youngs Moduli (GPa) = 83.00478 101.15068 89.34644
#
# Poissons Ratio (x) = 0.24190 0.26763
# Poissons Ratio (y) = 0.19850 0.30006
# Poissons Ratio (z) = 0.24864 0.33971
#
# Static dielectric constant tensor:
#      x y z
#    x 1.792150 0.000000 0.000000 
#    y 0.000000 1.669880 0.000000 
#    z 0.000000 0.000000 1.812320 
# 
# From -- ./inp_files/44246.got.cif
#   From: 2010.05.17/outbox.cif.g08.bks.cpg/sg22_23_cif.got.tgz:44246.got - 2010.06.03 23:40:54.
