data_PCOD9326125
_publ_section_title
;
Structure prediction by ZEFSAII (Michael W. Deem and Ramdas Pophale) SiO2 
 PCOD9326125
Probable space group: F 2 2 2
;
_chemical_formula_sum "Si O2"
_cell_formula_units_Z 128
_cell_length_a 27.157352
_cell_length_b 23.999659
_cell_length_c 11.013229
_cell_angle_alpha 90.000000
_cell_angle_beta 90.000000
_cell_angle_gamma 90.000000
_cell_volume 7178.061289
_symmetry_space_group_name_H-M "F 2 2 2"
_symmetry_group_IT_number 22
_symmetry_cell_setting 'orthorhombic'
loop_
_space_group_symop_operation_xyz
x,y,z
-x,-y,z
x,-y,-z
-x,y,-z
x,1/2+y,1/2+z
-x,1/2-y,1/2+z
x,1/2-y,1/2-z
-x,1/2+y,1/2-z
1/2+x,y,1/2+z
1/2-x,-y,1/2+z
1/2+x,-y,1/2-z
1/2-x,y,1/2-z
1/2+x,1/2+y,z
1/2-x,1/2-y,z
1/2+x,1/2-y,-z
1/2-x,1/2+y,-z
loop_
_atom_site_type_symbol
_atom_site_label
_atom_site_fract_x
_atom_site_fract_y
_atom_site_fract_z
Si Si1 0.943857 0.013811 0.695057
Si Si2 0.430564 0.111958 0.797641
Si Si3 0.799214 0.325360 0.005397
Si Si4 0.102979 0.388637 0.059206
Si Si5 0.662613 0.814985 0.734635
Si Si6 0.022831 0.391861 0.370770
Si Si7 0.400604 0.686684 0.792509
Si Si8 0.309241 0.693925 0.959963
O O1 0.910793 0.049351 0.602590
O O2 0.951176 0.053746 0.812079
O O3 0.921004 0.953871 0.721262
O O4 0.000000 0.000000 0.651219
O O5 0.385358 0.148134 0.752643
O O6 0.480180 0.124222 0.725070
O O7 0.430799 0.122363 0.942014
O O8 0.799522 0.325740 0.153398
O O9 0.840724 0.370690 0.971187
O O10 0.745888 0.329516 0.943127
O O11 0.813124 0.261782 0.966807
O O12 0.091367 0.349534 0.172353
O O13 0.649700 0.750000 0.750000
O O14 0.679420 0.824348 0.597552
O O15 0.059241 0.339363 0.383315
O O16 0.000000 0.406126 0.500000
O O17 0.406016 0.750000 0.750000
O O18 0.347897 0.677314 0.856826
#
# Coordination Sequence:
#
# PCOD9326125 Si02
#       8
#    16  16  16  16  16  16  16  16
#     4   9  20  35  59  82 108 143 193 243 284 346
#     4  10  20  35  57  83 106 153 189 233 299 347
#     4   9  18  32  55  84 107 146 187 244 291 354
#     4  10  20  36  53  83 115 140 196 247 288 342
#     4   9  18  32  54  83 116 141 188 240 294 365
#     4  10  22  39  56  84 115 150 196 244 299 360
#     4  11  22  36  51  79 120 156 193 243 291 359
#     4  10  18  33  54  79 113 148 190 232 298 353
#
# _framework density 17.832113
#
# number of rings (size 3 to 8) (size 9 to 14) (size 15 to 20)
#    0.000    2.250    1.250    1.500    0.000   10.750 
#    2.250    0.000    0.000    0.000   42.250    0.000 
#    0.000    0.000    0.000    0.000    0.000    0.000 
#
# Total GULP energy -178201.388500 kJ/mol
# GULP energy per Si atom -5568.793391 kJ/mol
# Density = 1.779153 g / cm^3
# Si number density = 17.832113 Si / 1000 Ang^3
#
#
#
# Elastic Constant Matrix: (Units=GPa)
#
#
# Indices 1 2 3 4 5 6 
#
# 1 76.6832 41.3135 32.9487 -0.0001 0.0001 0.0001
# 2 41.3135 65.8632 19.8231 -0.0001 0.0001 0.0002
# 3 32.9487 19.8231 77.4706 0.0000 0.0000 0.0003
# 4 -0.0001 -0.0001 0.0000 18.1485 0.0001 0.0002
# 5 0.0001 0.0001 0.0000 0.0001 30.9514 -0.0001
# 6 0.0001 0.0002 0.0003 0.0002 -0.0001 23.5277
#
#
#
# Elastic Compliance Matrix: (Units=1/GPa)
#
#
# Indices 1 2 3 4 5 6 
#
# 1 0.022280 -0.012052 -0.006392 0.000000 0.000000 0.000000
# 2 -0.012052 0.022969 -0.000752 0.000000 0.000000 0.000000
# 3 -0.006392 -0.000752 0.015819 0.000000 0.000000 0.000000
# 4 0.000000 0.000000 0.000000 0.055101 0.000000 0.000000
# 5 0.000000 0.000000 0.000000 0.000000 0.032309 0.000000
# 6 0.000000 0.000000 0.000000 0.000000 0.000000 0.042503
#
#
# Mechanical properties :
#
#
# Convention : Reuss Voigt Hill
#
# Bulk Modulus (GPa) = 44.09707 45.35418 44.72562
# Shear Modulus (GPa) = 21.10327 22.92096 22.01211
#
# Velocity S-wave (km/s) = 3.44385 3.58910 3.51723
# Velocity P-wave (km/s) = 6.37151 6.53183 6.45217
#
# Compressibility (1/GPa) = 0.02267724
#
# Stress axis : x y z
#
# Youngs Moduli (GPa) = 44.88321 43.53748 63.21504
#
# Poissons Ratio (x) = 0.52470 0.40408
# Poissons Ratio (y) = 0.54091 0.04751
# Poissons Ratio (z) = 0.28690 0.03272
#
# Static dielectric constant tensor:
#      x y z
#    x 1.647920 0.000000 0.000000 
#    y 0.000000 1.599110 0.000000 
#    z 0.000000 0.000000 1.658050 
# 
# From -- ./inp_files/24077.got.cif
#   From: 2010.05.17/outbox.cif.g08.bks.cpg/sg22_13_cif.got.tgz:24077.got - 2010.06.03 23:40:54.
