data_PCOD9326864
_publ_section_title
;
Structure prediction by ZEFSAII (Michael W. Deem and Ramdas Pophale) SiO2 
 PCOD9326864
Probable space group: F 2 2 2
;
_chemical_formula_sum "Si O2"
_cell_formula_units_Z 60
_cell_length_a 23.397263
_cell_length_b 5.126961
_cell_length_c 26.733710
_cell_angle_alpha 90.000000
_cell_angle_beta 90.000000
_cell_angle_gamma 90.000000
_cell_volume 3206.891772
_symmetry_space_group_name_H-M "F 2 2 2"
_symmetry_group_IT_number 22
_symmetry_cell_setting 'orthorhombic'
loop_
_space_group_symop_operation_xyz
x,y,z
-x,-y,z
x,-y,-z
-x,y,-z
x,1/2+y,1/2+z
-x,1/2-y,1/2+z
x,1/2-y,1/2-z
-x,1/2+y,1/2-z
1/2+x,y,1/2+z
1/2-x,-y,1/2+z
1/2+x,-y,1/2-z
1/2-x,y,1/2-z
1/2+x,1/2+y,z
1/2-x,1/2-y,z
1/2+x,1/2-y,-z
1/2-x,1/2+y,-z
loop_
_atom_site_type_symbol
_atom_site_label
_atom_site_fract_x
_atom_site_fract_y
_atom_site_fract_z
Si Si1 0.750000 0.750000 0.750000
Si Si2 0.709580 0.500000 0.000000
Si Si3 0.838649 0.616126 0.831755
Si Si4 0.468132 0.251755 0.690463
Si Si5 0.686731 0.872789 0.393054
O O1 0.793354 0.589409 0.786023
O O2 0.750000 0.250000 0.012876
O O3 0.673455 0.418951 0.951360
O O4 0.900532 0.720245 0.815516
O O5 0.846708 0.345089 0.861330
O O6 0.814858 0.848313 0.866468
O O7 0.500000 0.500000 0.668446
O O8 0.478442 0.250000 0.750000
O O9 0.500000 0.000000 0.669429
O O10 0.750000 0.750000 0.393185
#
# Coordination Sequence:
#
# PCOD9326864 Si02
#       5
#     4   8  16  16  16
#     4  12  24  38  52  90 132 162 188 224 296 356
#     4  10  20  36  58  80 117 158 191 246 282 352
#     4  12  23  37  57  85 122 160 191 234 289 356
#     4  10  21  38  56  77 108 157 208 242 270 319
#     4  11  21  36  55  86 117 152 193 232 297 356
#
# _framework density 18.709703999999999
#
# number of rings (size 3 to 8) (size 9 to 14) (size 15 to 20)
#    0.000    1.067    4.000    4.800    0.000    2.133 
#    0.000    0.000    0.000    0.000    0.000   14.000 
#    0.000    0.000    0.000    0.000    0.000    0.000 
#
# Total GULP energy -83650.951694 kJ/mol
# GULP energy per Si atom -5576.730113 kJ/mol
# Density = 1.866712 g / cm^3
# Si number density = 18.709704 Si / 1000 Ang^3
#
#
#
# Elastic Constant Matrix: (Units=GPa)
#
#
# Indices 1 2 3 4 5 6 
#
# 1 88.3538 29.1398 11.0780 0.0017 -0.0021 0.0003
# 2 29.1398 129.1499 49.9696 0.0368 -0.0128 -0.0138
# 3 11.0780 49.9696 89.3263 0.0097 -0.0015 -0.0025
# 4 0.0017 0.0368 0.0097 14.3433 -0.0054 -0.0095
# 5 -0.0021 -0.0128 -0.0015 -0.0054 10.2037 0.0019
# 6 0.0003 -0.0138 -0.0025 -0.0095 0.0019 29.0833
#
#
#
# Elastic Compliance Matrix: (Units=1/GPa)
#
#
# Indices 1 2 3 4 5 6 
#
# 1 0.012228 -0.002772 0.000034 0.000006 -0.000001 -0.000001
# 2 -0.002772 0.010510 -0.005536 -0.000023 0.000012 0.000005
# 3 0.000034 -0.005536 0.014287 0.000005 -0.000005 -0.000001
# 4 0.000006 -0.000023 0.000005 0.069719 0.000037 0.000023
# 5 -0.000001 0.000012 -0.000005 0.000037 0.098004 -0.000006
# 6 -0.000001 0.000005 -0.000001 0.000023 -0.000006 0.034384
#
#
# Mechanical properties :
#
#
# Convention : Reuss Voigt Hill
#
# Bulk Modulus (GPa) = 48.83176 54.13387 51.48281
# Shear Modulus (GPa) = 19.04716 25.16889 22.10802
#
# Velocity S-wave (km/s) = 3.19413 3.67172 3.44122
# Velocity P-wave (km/s) = 6.30552 6.85359 6.58526
#
# Compressibility (1/GPa) = 0.02047848
#
# Stress axis : x y z
#
# Youngs Moduli (GPa) = 81.77852 95.14488 69.99198
#
# Poissons Ratio (x) = 0.26377 -0.00240
# Poissons Ratio (y) = 0.22671 0.38745
# Poissons Ratio (z) = -0.00281 0.52669
#
# Static dielectric constant tensor:
#      x y z
#    x 1.657420 -0.000040 0.000000 
#    y -0.000040 1.647080 -0.000010 
#    z 0.000000 -0.000010 1.683380 
# 
# From -- ./inp_files/3532.got.cif
#   From: 2010.05.17/outbox.cif.g08.bks.cpg/sg22_2_cif.got.tgz:3532.got - 2010.06.03 23:40:54.
