data_PCOD9326621
_publ_section_title
;
Structure prediction by ZEFSAII (Michael W. Deem and Ramdas Pophale) SiO2 
 PCOD9326621
Probable space group: F 2 2 2
;
_chemical_formula_sum "Si O2"
_cell_formula_units_Z 80
_cell_length_a 17.882670
_cell_length_b 13.949520
_cell_length_c 16.165115
_cell_angle_alpha 90.000000
_cell_angle_beta 90.000000
_cell_angle_gamma 90.000000
_cell_volume 4032.463312
_symmetry_space_group_name_H-M "F 2 2 2"
_symmetry_group_IT_number 22
_symmetry_cell_setting 'orthorhombic'
loop_
_space_group_symop_operation_xyz
x,y,z
-x,-y,z
x,-y,-z
-x,y,-z
x,1/2+y,1/2+z
-x,1/2-y,1/2+z
x,1/2-y,1/2-z
-x,1/2+y,1/2-z
1/2+x,y,1/2+z
1/2-x,-y,1/2+z
1/2+x,-y,1/2-z
1/2-x,y,1/2-z
1/2+x,1/2+y,z
1/2-x,1/2-y,z
1/2+x,1/2-y,-z
1/2-x,1/2+y,-z
loop_
_atom_site_type_symbol
_atom_site_label
_atom_site_fract_x
_atom_site_fract_y
_atom_site_fract_z
Si Si1 0.626731 0.173175 0.500333
Si Si2 0.001863 0.306254 0.627777
Si Si3 0.743099 0.000000 0.500000
Si Si4 0.792275 0.558782 0.173520
Si Si5 0.250000 0.250000 0.097206
Si Si6 0.535313 0.398300 0.698068
O O1 0.561840 0.152633 0.566953
O O2 0.582272 0.188697 0.415872
O O3 0.676878 0.258209 0.539275
O O4 0.687191 0.089719 0.493403
O O5 0.995574 0.365328 0.712331
O O6 0.983166 0.194161 0.642179
O O7 0.789473 0.994367 0.414866
O O8 0.750000 0.508970 0.250000
O O9 0.746627 0.656670 0.153954
O O10 0.875765 0.586278 0.199090
O O11 0.500000 0.500000 0.673108
#
# Coordination Sequence:
#
# PCOD9326621 Si02
#       6
#    16  16   8  16   8  16
#     4  10  21  39  63  91 128 168 215 272 323 403
#     4  10  23  40  63  94 127 172 218 261 336 390
#     4  10  24  39  63 102 128 172 224 270 344 383
#     4  11  23  39  66  97 130 170 223 276 332 397
#     4  10  19  38  66  91 126 164 217 274 328 392
#     4  11  24  41  64  94 130 168 218 271 329 395
#
# _framework density 19.838989999999999
#
# number of rings (size 3 to 8) (size 9 to 14) (size 15 to 20)
#    0.000    1.600    2.000    2.700    8.400    4.000 
#    0.000    0.000    0.000    0.000    0.000    0.000 
#    0.000    0.000    0.000    0.000    0.000    0.000 
#
# Total GULP energy -111567.676995 kJ/mol
# GULP energy per Si atom -5578.383850 kJ/mol
# Density = 1.979384 g / cm^3
# Si number density = 19.838990 Si / 1000 Ang^3
#
#
#
# Elastic Constant Matrix: (Units=GPa)
#
#
# Indices 1 2 3 4 5 6 
#
# 1 93.1228 -8.4948 34.8931 0.0000 0.0000 0.0000
# 2 -8.4948 48.4488 4.0721 0.0000 0.0000 0.0000
# 3 34.8931 4.0721 108.3664 0.0000 0.0000 0.0000
# 4 0.0000 0.0000 0.0000 19.5908 0.0000 0.0000
# 5 0.0000 0.0000 0.0000 0.0000 40.1516 0.0000
# 6 0.0000 0.0000 0.0000 0.0000 0.0000 26.7579
#
#
#
# Elastic Compliance Matrix: (Units=1/GPa)
#
#
# Indices 1 2 3 4 5 6 
#
# 1 0.012516 0.002541 -0.004126 0.000000 0.000000 0.000000
# 2 0.002541 0.021222 -0.001616 0.000000 0.000000 0.000000
# 3 -0.004126 -0.001616 0.010617 0.000000 0.000000 0.000000
# 4 0.000000 0.000000 0.000000 0.051044 0.000000 0.000000
# 5 0.000000 0.000000 0.000000 0.000000 0.024906 0.000000
# 6 0.000000 0.000000 0.000000 0.000000 0.000000 0.037372
#
#
# Mechanical properties :
#
#
# Convention : Reuss Voigt Hill
#
# Bulk Modulus (GPa) = 26.34706 34.54210 30.44458
# Shear Modulus (GPa) = 28.29191 31.93122 30.11157
#
# Velocity S-wave (km/s) = 3.78044 4.01623 3.90012
# Velocity P-wave (km/s) = 5.68902 6.24146 5.97163
#
# Compressibility (1/GPa) = 0.03795490
#
# Stress axis : x y z
#
# Youngs Moduli (GPa) = 79.89641 47.12156 94.18779
#
# Poissons Ratio (x) = -0.11975 0.38858
# Poissons Ratio (y) = -0.20304 0.15218
# Poissons Ratio (z) = 0.32962 0.07614
#
# Static dielectric constant tensor:
#      x y z
#    x 1.675740 0.000000 0.000000 
#    y 0.000000 1.738270 0.000000 
#    z 0.000000 0.000000 1.759570 
# 
# From -- ./inp_files/37854.got.cif
#   From: 2010.05.17/outbox.cif.g08.bks.cpg/sg22_19_cif.got.tgz:37854.got - 2010.06.03 23:40:54.
