data_PCOD9326702
_publ_section_title
;
Structure prediction by ZEFSAII (Michael W. Deem and Ramdas Pophale) SiO2 
 PCOD9326702
Probable space group: F 2 2 2
;
_chemical_formula_sum "Si O2"
_cell_formula_units_Z 120
_cell_length_a 18.300322
_cell_length_b 24.034274
_cell_length_c 12.167914
_cell_angle_alpha 90.000000
_cell_angle_beta 90.000000
_cell_angle_gamma 90.000000
_cell_volume 5351.873885
_symmetry_space_group_name_H-M "F 2 2 2"
_symmetry_group_IT_number 22
_symmetry_cell_setting 'orthorhombic'
loop_
_space_group_symop_operation_xyz
x,y,z
-x,-y,z
x,-y,-z
-x,y,-z
x,1/2+y,1/2+z
-x,1/2-y,1/2+z
x,1/2-y,1/2-z
-x,1/2+y,1/2-z
1/2+x,y,1/2+z
1/2-x,-y,1/2+z
1/2+x,-y,1/2-z
1/2-x,y,1/2-z
1/2+x,1/2+y,z
1/2-x,1/2-y,z
1/2+x,1/2-y,-z
1/2-x,1/2+y,-z
loop_
_atom_site_type_symbol
_atom_site_label
_atom_site_fract_x
_atom_site_fract_y
_atom_site_fract_z
Si Si1 0.907474 0.585561 0.307661
Si Si2 0.586962 0.779518 0.633433
Si Si3 0.773235 0.558278 0.443602
Si Si4 0.168313 0.313915 0.224149
Si Si5 0.732307 0.851499 0.632580
Si Si6 0.098251 0.943236 0.564815
Si Si7 0.000000 0.874268 0.000000
Si Si8 0.119315 0.828120 0.478833
O O1 0.828430 0.562327 0.342533
O O2 0.891207 0.650775 0.287546
O O3 0.932660 0.561830 0.189267
O O4 0.957239 0.585561 0.415161
O O5 0.566720 0.750000 0.750000
O O6 0.669994 0.804354 0.641451
O O7 0.544520 0.832372 0.581434
O O8 0.577331 0.727482 0.551466
O O9 0.788310 0.500000 0.500000
O O10 0.788013 0.606804 0.533445
O O11 0.686702 0.559326 0.418940
O O12 0.163772 0.250000 0.250000
O O13 0.250000 0.333594 0.250000
O O14 0.153590 0.320584 0.097546
O O15 0.750000 0.880104 0.750000
O O16 0.811984 0.828617 0.602263
O O17 0.082061 0.888847 0.488820
O O18 0.081606 0.000000 0.500000
#
# Coordination Sequence:
#
# PCOD9326702 Si02
#       8
#    16  16  16  16  16  16   8  16
#     4  11  21  42  60  91 141 179 224 272 327 416
#     4  12  25  42  62  93 131 179 231 283 342 411
#     4  10  21  37  65 103 135 173 213 276 356 414
#     4  10  20  30  56  92 127 169 209 268 337 396
#     4  11  21  37  63  94 135 170 219 282 361 409
#     4   9  20  38  67 104 138 169 219 290 359 410
#     4  12  28  42  67  92 137 198 232 274 338 416
#     4  10  21  34  60  95 130 166 213 280 346 411
#
# _framework density 22.422052999999998
#
# number of rings (size 3 to 8) (size 9 to 14) (size 15 to 20)
#    0.000    1.467    2.667    4.000    3.733    5.867 
#    0.000    0.333    0.000    0.000    0.000    4.200 
#    0.000    0.000    0.000    0.000    0.000    0.000 
#
# Total GULP energy -167432.144165 kJ/mol
# GULP energy per Si atom -5581.071472 kJ/mol
# Density = 2.237102 g / cm^3
# Si number density = 22.422053 Si / 1000 Ang^3
#
#
#
# Elastic Constant Matrix: (Units=GPa)
#
#
# Indices 1 2 3 4 5 6 
#
# 1 72.1110 14.5748 37.2249 0.0000 0.0000 0.0000
# 2 14.5748 106.3346 30.2268 0.0000 0.0000 0.0000
# 3 37.2249 30.2268 92.9492 0.0000 0.0000 0.0000
# 4 0.0000 0.0000 0.0000 270.6840 0.0000 0.0000
# 5 0.0000 0.0000 0.0000 0.0000 28.8519 0.0000
# 6 0.0000 0.0000 0.0000 0.0000 0.0000 6.4030
#
#
#
# Elastic Compliance Matrix: (Units=1/GPa)
#
#
# Indices 1 2 3 4 5 6 
#
# 1 0.017501 -0.000448 -0.006863 0.000000 0.000000 0.000000
# 2 -0.000448 0.010374 -0.003194 0.000000 0.000000 0.000000
# 3 -0.006863 -0.003194 0.014546 0.000000 0.000000 0.000000
# 4 0.000000 0.000000 0.000000 0.003694 0.000000 0.000000
# 5 0.000000 0.000000 0.000000 0.000000 0.034660 0.000000
# 6 0.000000 0.000000 0.000000 0.000000 0.000000 0.156176
#
#
# Mechanical properties :
#
#
# Convention : Reuss Voigt Hill
#
# Bulk Modulus (GPa) = 46.70698 48.38311 47.54504
# Shear Modulus (GPa) = 18.86095 73.81233 46.33664
#
# Velocity S-wave (km/s) = 2.90345 5.74378 4.55088
# Velocity P-wave (km/s) = 5.66711 8.10020 6.99033
#
# Compressibility (1/GPa) = 0.02141008
#
# Stress axis : x y z
#
# Youngs Moduli (GPa) = 57.13975 96.39832 68.74770
#
# Poissons Ratio (x) = 0.04317 0.47183
# Poissons Ratio (y) = 0.02559 0.21959
# Poissons Ratio (z) = 0.39217 0.30791
#
# Static dielectric constant tensor:
#      x y z
#    x 1.856770 0.000000 0.000000 
#    y 0.000000 1.662000 0.000000 
#    z 0.000000 0.000000 1.880910 
# 
# From -- ./inp_files/23026.got.cif
#   From: 2010.05.17/outbox.cif.g08.bks.cpg/sg22_12_cif.got.tgz:23026.got - 2010.06.03 23:40:54.
