data_PCOD9326337
_publ_section_title
;
Structure prediction by ZEFSAII (Michael W. Deem and Ramdas Pophale) SiO2 
 PCOD9326337
Probable space group: F 2 2 2
;
_chemical_formula_sum "Si O2"
_cell_formula_units_Z 56
_cell_length_a 16.787503
_cell_length_b 10.530558
_cell_length_c 15.885010
_cell_angle_alpha 90.000000
_cell_angle_beta 90.000000
_cell_angle_gamma 90.000000
_cell_volume 2808.180248
_symmetry_space_group_name_H-M "F 2 2 2"
_symmetry_group_IT_number 22
_symmetry_cell_setting 'orthorhombic'
loop_
_space_group_symop_operation_xyz
x,y,z
-x,-y,z
x,-y,-z
-x,y,-z
x,1/2+y,1/2+z
-x,1/2-y,1/2+z
x,1/2-y,1/2-z
-x,1/2+y,1/2-z
1/2+x,y,1/2+z
1/2-x,-y,1/2+z
1/2+x,-y,1/2-z
1/2-x,y,1/2-z
1/2+x,1/2+y,z
1/2-x,1/2-y,z
1/2+x,1/2-y,-z
1/2-x,1/2+y,-z
loop_
_atom_site_type_symbol
_atom_site_label
_atom_site_fract_x
_atom_site_fract_y
_atom_site_fract_z
Si Si1 0.956251 0.750000 0.750000
Si Si2 0.943014 0.123732 0.887331
Si Si3 0.166119 0.942440 0.205393
Si Si4 0.684968 0.145858 0.478739
O O1 0.899437 0.871584 0.738679
O O2 0.008717 0.775859 0.832627
O O3 0.871509 0.072459 0.827975
O O4 0.825417 0.855702 0.878350
O O5 0.898634 0.165737 0.972285
O O6 0.250000 0.955702 0.250000
O O7 0.000000 0.000000 0.099535
O O8 0.750000 0.250000 0.503651
O O9 0.709554 0.000000 0.500000
#
# Coordination Sequence:
#
# PCOD9326337 Si02
#       4
#     8  16  16  16
#     4  10  19  32  53  80 106 138 186 236 281 336
#     4   9  21  37  56  83 115 152 193 241 297 350
#     4  10  20  36  56  79 110 150 193 237 289 348
#     4  10  21  37  59  86 118 156 198 244 296 354
#
# _framework density 19.941741
#
# number of rings (size 3 to 8) (size 9 to 14) (size 15 to 20)
#    0.000    2.286    0.000    2.143    0.000   17.714 
#    0.000    2.857    0.000    0.000    0.000   32.000 
#    0.000    0.000    0.000    0.000    0.000    0.000 
#
# Total GULP energy -78126.368216 kJ/mol
# GULP energy per Si atom -5580.454873 kJ/mol
# Density = 1.989635 g / cm^3
# Si number density = 19.941741 Si / 1000 Ang^3
#
#
#
# Elastic Constant Matrix: (Units=GPa)
#
#
# Indices 1 2 3 4 5 6 
#
# 1 147.9842 30.0723 74.5670 0.0000 0.0000 0.0000
# 2 30.0723 45.9375 26.4934 0.0000 0.0000 0.0000
# 3 74.5670 26.4934 103.1346 0.0000 0.0000 0.0000
# 4 0.0000 0.0000 0.0000 19.9894 0.0000 0.0000
# 5 0.0000 0.0000 0.0000 0.0000 43.0370 0.0000
# 6 0.0000 0.0000 0.0000 0.0000 0.0000 34.7023
#
#
#
# Elastic Compliance Matrix: (Units=1/GPa)
#
#
# Indices 1 2 3 4 5 6 
#
# 1 0.010986 -0.003065 -0.007156 0.000000 0.000000 0.000000
# 2 -0.003065 0.026410 -0.004568 0.000000 0.000000 0.000000
# 3 -0.007156 -0.004568 0.016043 0.000000 0.000000 0.000000
# 4 0.000000 0.000000 0.000000 0.050027 0.000000 0.000000
# 5 0.000000 0.000000 0.000000 0.000000 0.023236 0.000000
# 6 0.000000 0.000000 0.000000 0.000000 0.000000 0.028817
#
#
# Mechanical properties :
#
#
# Convention : Reuss Voigt Hill
#
# Bulk Modulus (GPa) = 41.90887 62.14685 52.02786
# Shear Modulus (GPa) = 25.90019 30.60730 28.25374
#
# Velocity S-wave (km/s) = 3.60779 3.92195 3.76814
# Velocity P-wave (km/s) = 6.19807 7.19311 6.71405
#
# Compressibility (1/GPa) = 0.02386130
#
# Stress axis : x y z
#
# Youngs Moduli (GPa) = 91.02584 37.86485 62.33224
#
# Poissons Ratio (x) = 0.11605 0.44602
# Poissons Ratio (y) = 0.27899 0.28475
# Poissons Ratio (z) = 0.65134 0.17297
#
# Static dielectric constant tensor:
#      x y z
#    x 1.742750 0.000000 0.000000 
#    y 0.000000 1.704760 0.000000 
#    z 0.000000 0.000000 1.765110 
# 
# From -- ./inp_files/28728.got.cif
#   From: 2010.05.17/outbox.cif.g08.bks.cpg/sg22_15_cif.got.tgz:28728.got - 2010.06.03 23:40:54.
