data_PCOD9326290
_publ_section_title
;
Structure prediction by ZEFSAII (Michael W. Deem and Ramdas Pophale) SiO2 
 PCOD9326290
Probable space group: F 2 2 2
;
_chemical_formula_sum "Si O2"
_cell_formula_units_Z 60
_cell_length_a 22.082562
_cell_length_b 20.362737
_cell_length_c 6.919106
_cell_angle_alpha 90.000000
_cell_angle_beta 90.000000
_cell_angle_gamma 90.000000
_cell_volume 3111.254907
_symmetry_space_group_name_H-M "F 2 2 2"
_symmetry_group_IT_number 22
_symmetry_cell_setting 'orthorhombic'
loop_
_space_group_symop_operation_xyz
x,y,z
-x,-y,z
x,-y,-z
-x,y,-z
x,1/2+y,1/2+z
-x,1/2-y,1/2+z
x,1/2-y,1/2-z
-x,1/2+y,1/2-z
1/2+x,y,1/2+z
1/2-x,-y,1/2+z
1/2+x,-y,1/2-z
1/2-x,y,1/2-z
1/2+x,1/2+y,z
1/2-x,1/2-y,z
1/2+x,1/2-y,-z
1/2-x,1/2+y,-z
loop_
_atom_site_type_symbol
_atom_site_label
_atom_site_fract_x
_atom_site_fract_y
_atom_site_fract_z
Si Si1 0.250000 0.250000 0.750000
Si Si2 0.650336 0.210696 0.550570
Si Si3 0.897417 0.428758 0.516475
Si Si4 0.991614 0.395099 0.219271
Si Si5 0.047338 0.750000 0.250000
O O1 0.294807 0.213485 0.602176
O O2 0.660296 0.250000 0.750000
O O3 0.639541 0.133734 0.587471
O O4 0.591997 0.240539 0.434817
O O5 0.868078 0.500000 0.500000
O O6 0.926544 0.412662 0.307771
O O7 0.955878 0.429023 0.657025
O O8 0.992747 0.315646 0.237294
O O9 0.000000 0.413765 0.000000
#
# Coordination Sequence:
#
# PCOD9326290 Si02
#       5
#     4  16  16  16   8
#     4  10  22  40  64  86 104 124 188 250 296 336
#     4  10  20  38  61  82 109 143 186 242 293 329
#     4  10  22  35  51  81 120 153 188 227 272 341
#     4  10  19  30  50  78 121 160 193 218 265 319
#     4   9  20  29  50  88 114 147 196 233 256 332
#
# _framework density 19.284824
#
# number of rings (size 3 to 8) (size 9 to 14) (size 15 to 20)
#    0.000    2.133    0.000    3.600    9.333    2.133 
#    0.000    0.000    5.867    0.000    0.000    0.000 
#    0.000    0.000    0.000    0.000    0.000    0.000 
#
# Total GULP energy -83689.225800 kJ/mol
# GULP energy per Si atom -5579.281720 kJ/mol
# Density = 1.924093 g / cm^3
# Si number density = 19.284824 Si / 1000 Ang^3
#
#
#
# Elastic Constant Matrix: (Units=GPa)
#
#
# Indices 1 2 3 4 5 6 
#
# 1 40.6308 19.3937 21.7540 0.0042 -0.0016 -0.0011
# 2 19.3937 151.0347 28.0918 0.0052 -0.0021 -0.0021
# 3 21.7540 28.0918 133.8298 0.0087 -0.0038 -0.0035
# 4 0.0042 0.0052 0.0087 14.0508 -0.0029 -0.0030
# 5 -0.0016 -0.0021 -0.0038 -0.0029 23.3004 0.0007
# 6 -0.0011 -0.0021 -0.0035 -0.0030 0.0007 -1.2077
#
#
#
# Elastic Compliance Matrix: (Units=1/GPa)
#
#
# Indices 1 2 3 4 5 6 
#
# 1 0.028106 -0.002871 -0.003966 -0.000005 0.000001 -0.000010
# 2 -0.002871 0.007183 -0.001041 -0.000001 0.000000 -0.000007
# 3 -0.003966 -0.001041 0.008335 -0.000004 0.000001 -0.000019
# 4 -0.000005 -0.000001 -0.000004 0.071170 0.000009 -0.000176
# 5 0.000001 0.000000 0.000001 0.000009 0.042918 0.000025
# 6 -0.000010 -0.000007 -0.000019 -0.000176 0.000025 -0.828051
#
#
# Mechanical properties :
#
#
# Convention : Reuss Voigt Hill
#
# Bulk Modulus (GPa) = 35.88361 51.55269 43.71815
# Shear Modulus (GPa) = -7.74843 24.31242 8.28200
#
# Velocity S-wave (km/s) = -2.00664 3.55449 2.07458
# Velocity P-wave (km/s) = 3.64400 6.60577 5.33455
#
# Compressibility (1/GPa) = 0.02786788
#
# Stress axis : x y z
#
# Youngs Moduli (GPa) = 35.57992 139.21121 119.97077
#
# Poissons Ratio (x) = 0.39972 0.47579
# Poissons Ratio (y) = 0.10216 0.12490
# Poissons Ratio (z) = 0.14111 0.14493
#
# Static dielectric constant tensor:
#      x y z
#    x 1.684790 0.000000 0.000000 
#    y 0.000000 1.719470 0.000000 
#    z 0.000000 0.000000 1.692350 
# 
# From -- ./inp_files/3570.got.cif
#   From: 2010.05.17/outbox.cif.g08.bks.cpg/sg22_2_cif.got.tgz:3570.got - 2010.06.03 23:40:54.
