data_PCOD9326307
_publ_section_title
;
Structure prediction by ZEFSAII (Michael W. Deem and Ramdas Pophale) SiO2 
 PCOD9326307
Probable space group: F 2 2 2
;
_chemical_formula_sum "Si O2"
_cell_formula_units_Z 96
_cell_length_a 9.804664
_cell_length_b 22.806267
_cell_length_c 26.075465
_cell_angle_alpha 90.000000
_cell_angle_beta 90.000000
_cell_angle_gamma 90.000000
_cell_volume 5830.676972
_symmetry_space_group_name_H-M "F 2 2 2"
_symmetry_group_IT_number 22
_symmetry_cell_setting 'orthorhombic'
loop_
_space_group_symop_operation_xyz
x,y,z
-x,-y,z
x,-y,-z
-x,y,-z
x,1/2+y,1/2+z
-x,1/2-y,1/2+z
x,1/2-y,1/2-z
-x,1/2+y,1/2-z
1/2+x,y,1/2+z
1/2-x,-y,1/2+z
1/2+x,-y,1/2-z
1/2-x,y,1/2-z
1/2+x,1/2+y,z
1/2-x,1/2-y,z
1/2+x,1/2-y,-z
1/2-x,1/2+y,-z
loop_
_atom_site_type_symbol
_atom_site_label
_atom_site_fract_x
_atom_site_fract_y
_atom_site_fract_z
Si Si1 0.770209 0.928257 0.362071
Si Si2 0.499001 0.071120 0.941716
Si Si3 0.500519 0.134495 0.330982
Si Si4 0.995760 0.613122 0.790949
Si Si5 0.728993 0.433613 0.359960
Si Si6 0.093132 0.758402 0.311573
O O1 0.866051 0.911736 0.410225
O O2 0.632597 0.892116 0.356897
O O3 0.866935 0.914616 0.313335
O O4 0.739215 0.997532 0.364924
O O5 0.365764 0.085851 0.907915
O O6 0.500000 0.000000 0.942738
O O7 0.500000 0.092559 0.000000
O O8 0.499078 0.119782 0.270035
O O9 0.636648 0.104887 0.353418
O O10 0.508685 0.204833 0.334864
O O11 0.868088 0.574884 0.810313
O O12 0.967803 0.676831 0.817018
O O13 0.095612 0.750000 0.250000
O O14 0.250000 0.750000 0.328868
#
# Coordination Sequence:
#
# PCOD9326307 Si02
#       6
#    16  16  16  16  16  16
#     4  10  21  31  45  76 103 124 162 200 247 298
#     4   8  16  34  54  68  91 129 166 200 241 297
#     4  11  20  30  47  72 105 132 159 206 241 270
#     4  10  19  32  48  67  99 141 171 193 227 283
#     4  10  19  31  49  73  98 130 166 193 239 307
#     4   9  17  31  48  65  90 134 182 202 217 267
#
# _framework density 16.464639999999999
#
# number of rings (size 3 to 8) (size 9 to 14) (size 15 to 20)
#    0.000    2.333    1.667    3.000    0.000    4.667 
#    0.000    3.333    0.000    4.000    0.000   18.667 
#    0.000    0.000    0.000    0.000    0.000    0.000 
#
# Total GULP energy -133767.829585 kJ/mol
# GULP energy per Si atom -5573.659566 kJ/mol
# Density = 1.642717 g / cm^3
# Si number density = 16.464640 Si / 1000 Ang^3
#
#
#
# Elastic Constant Matrix: (Units=GPa)
#
#
# Indices 1 2 3 4 5 6 
#
# 1 110.5786 32.7632 37.4634 0.0000 0.0000 0.0000
# 2 32.7632 74.7235 21.5332 0.0000 0.0000 0.0000
# 3 37.4634 21.5332 86.6671 0.0000 0.0000 0.0000
# 4 0.0000 0.0000 0.0000 7.2533 0.0000 0.0000
# 5 0.0000 0.0000 0.0000 0.0000 -1.9928 0.0000
# 6 0.0000 0.0000 0.0000 0.0000 0.0000 19.7045
#
#
#
# Elastic Compliance Matrix: (Units=1/GPa)
#
#
# Indices 1 2 3 4 5 6 
#
# 1 0.011567 -0.003911 -0.004028 0.000000 0.000000 0.000000
# 2 -0.003911 0.015737 -0.002219 0.000000 0.000000 0.000000
# 3 -0.004028 -0.002219 0.013831 0.000000 0.000000 0.000000
# 4 0.000000 0.000000 0.000000 0.137867 0.000000 0.000000
# 5 0.000000 0.000000 0.000000 0.000000 -0.501809 0.000000
# 6 0.000000 0.000000 0.000000 0.000000 0.000000 0.050750
#
#
# Mechanical properties :
#
#
# Convention : Reuss Voigt Hill
#
# Bulk Modulus (GPa) = 48.03566 50.60987 49.32276
# Shear Modulus (GPa) = -20.42483 17.00698 -1.70893
#
# Velocity S-wave (km/s) = -3.52593 3.21742 -1.01990
# Velocity P-wave (km/s) = 3.55839 6.67890 5.35116
#
# Compressibility (1/GPa) = 0.02081787
#
# Stress axis : x y z
#
# Youngs Moduli (GPa) = 86.45423 63.54469 72.30052
#
# Poissons Ratio (x) = 0.24851 0.29125
# Poissons Ratio (y) = 0.33810 0.16047
# Poissons Ratio (z) = 0.34826 0.14104
#
# Static dielectric constant tensor:
#      x y z
#    x 1.546040 0.000000 0.000000 
#    y 0.000000 1.563260 0.000000 
#    z 0.000000 0.000000 1.546530 
# 
# From -- ./inp_files/12830.got.cif
#   From: 2010.05.17/outbox.cif.g08.bks.cpg/sg22_7_cif.got.tgz:12830.got - 2010.06.03 23:40:54.
