data_PCOD9326645
_publ_section_title
;
Structure prediction by ZEFSAII (Michael W. Deem and Ramdas Pophale) SiO2 
 PCOD9326645
Probable space group: F 2 2 2
;
_chemical_formula_sum "Si O2"
_cell_formula_units_Z 88
_cell_length_a 9.027311
_cell_length_b 29.217186
_cell_length_c 17.838258
_cell_angle_alpha 90.000000
_cell_angle_beta 90.000000
_cell_angle_gamma 90.000000
_cell_volume 4704.887365
_symmetry_space_group_name_H-M "F 2 2 2"
_symmetry_group_IT_number 22
_symmetry_cell_setting 'orthorhombic'
loop_
_space_group_symop_operation_xyz
x,y,z
-x,-y,z
x,-y,-z
-x,y,-z
x,1/2+y,1/2+z
-x,1/2-y,1/2+z
x,1/2-y,1/2-z
-x,1/2+y,1/2-z
1/2+x,y,1/2+z
1/2-x,-y,1/2+z
1/2+x,-y,1/2-z
1/2-x,y,1/2-z
1/2+x,1/2+y,z
1/2-x,1/2-y,z
1/2+x,1/2-y,-z
1/2-x,1/2+y,-z
loop_
_atom_site_type_symbol
_atom_site_label
_atom_site_fract_x
_atom_site_fract_y
_atom_site_fract_z
Si Si1 0.911698 0.238904 0.839031
Si Si2 0.000000 0.622703 0.000000
Si Si3 0.112911 0.677583 0.143176
Si Si4 0.986621 0.949137 0.873475
Si Si5 0.945929 0.649613 0.688226
Si Si6 0.746681 0.550498 0.003412
O O1 0.904664 0.250000 0.750000
O O2 0.750000 0.250000 0.871948
O O3 0.050553 0.270417 0.864381
O O4 0.940305 0.185185 0.848578
O O5 0.953205 0.651847 0.928046
O O6 0.137421 0.589846 0.982501
O O7 0.052405 0.659343 0.222995
O O8 0.287385 0.666232 0.153922
O O9 0.982461 0.903397 0.824625
O O10 0.122260 0.948232 0.932139
O O11 0.839712 0.945038 0.924688
O O12 0.000000 0.000000 0.837249
O O13 0.815789 0.500000 0.000000
#
# Coordination Sequence:
#
# PCOD9326645 Si02
#       6
#    16   8  16  16  16  16
#     4   9  19  36  59  85 113 147 191 233 283 346
#     4  12  21  36  54  86 122 146 191 238 302 334
#     4  10  22  36  58  86 117 155 193 238 289 362
#     4   9  18  36  60  85 108 150 199 235 283 354
#     4  10  19  39  63  81 116 157 195 237 296 339
#     4   9  19  35  56  80 114 155 193 232 289 354
#
# _framework density 18.703952999999998
#
# number of rings (size 3 to 8) (size 9 to 14) (size 15 to 20)
#    0.000    2.364    1.818    1.909    2.545    2.182 
#    0.000    5.455    0.000    0.000    0.000    0.000 
#    0.000    0.000    0.000    0.000    0.000    0.000 
#
# Total GULP energy -122491.324332 kJ/mol
# GULP energy per Si atom -5567.787470 kJ/mol
# Density = 1.866138 g / cm^3
# Si number density = 18.703953 Si / 1000 Ang^3
#
#
#
# Elastic Constant Matrix: (Units=GPa)
#
#
# Indices 1 2 3 4 5 6 
#
# 1 57.2181 35.0785 21.5918 0.0000 0.0000 0.0000
# 2 35.0785 150.5087 34.9671 0.0000 0.0000 0.0000
# 3 21.5918 34.9671 52.1591 0.0000 0.0000 0.0000
# 4 0.0000 0.0000 0.0000 24.1021 0.0000 0.0000
# 5 0.0000 0.0000 0.0000 0.0000 13.0861 0.0000
# 6 0.0000 0.0000 0.0000 0.0000 0.0000 26.0734
#
#
#
# Elastic Compliance Matrix: (Units=1/GPa)
#
#
# Indices 1 2 3 4 5 6 
#
# 1 0.022252 -0.003608 -0.006793 0.000000 0.000000 0.000000
# 2 -0.003608 0.008455 -0.004174 0.000000 0.000000 0.000000
# 3 -0.006793 -0.004174 0.024783 0.000000 0.000000 0.000000
# 4 0.000000 0.000000 0.000000 0.041490 0.000000 0.000000
# 5 0.000000 0.000000 0.000000 0.000000 0.076417 0.000000
# 6 0.000000 0.000000 0.000000 0.000000 0.000000 0.038353
#
#
# Mechanical properties :
#
#
# Convention : Reuss Voigt Hill
#
# Bulk Modulus (GPa) = 37.96631 49.24006 43.60318
# Shear Modulus (GPa) = 20.02557 23.86887 21.94722
#
# Velocity S-wave (km/s) = 3.27564 3.57619 3.42921
# Velocity P-wave (km/s) = 5.88635 6.59055 6.24838
#
# Compressibility (1/GPa) = 0.02633914
#
# Stress axis : x y z
#
# Youngs Moduli (GPa) = 44.93920 118.27447 40.35096
#
# Poissons Ratio (x) = 0.42675 0.27409
# Poissons Ratio (y) = 0.16215 0.16844
# Poissons Ratio (z) = 0.30526 0.49374
#
# Static dielectric constant tensor:
#      x y z
#    x 1.674020 0.000000 0.000000 
#    y 0.000000 1.670110 0.000000 
#    z 0.000000 0.000000 1.635190 
# 
# From -- ./inp_files/35264.got.cif
#   From: 2010.05.17/outbox.cif.g08.bks.cpg/sg22_18_cif.got.tgz:35264.got - 2010.06.03 23:40:54.
