data_PCOD9326683
_publ_section_title
;
Structure prediction by ZEFSAII (Michael W. Deem and Ramdas Pophale) SiO2 
 PCOD9326683
Probable space group: F 2 2 2
;
_chemical_formula_sum "Si O2"
_cell_formula_units_Z 68
_cell_length_a 25.971426
_cell_length_b 11.681406
_cell_length_c 7.657078
_cell_angle_alpha 90.000000
_cell_angle_beta 90.000000
_cell_angle_gamma 90.000000
_cell_volume 2323.025545
_symmetry_space_group_name_H-M "F 2 2 2"
_symmetry_group_IT_number 22
_symmetry_cell_setting 'orthorhombic'
loop_
_space_group_symop_operation_xyz
x,y,z
-x,-y,z
x,-y,-z
-x,y,-z
x,1/2+y,1/2+z
-x,1/2-y,1/2+z
x,1/2-y,1/2-z
-x,1/2+y,1/2-z
1/2+x,y,1/2+z
1/2-x,-y,1/2+z
1/2+x,-y,1/2-z
1/2-x,y,1/2-z
1/2+x,1/2+y,z
1/2-x,1/2-y,z
1/2+x,1/2-y,-z
1/2-x,1/2+y,-z
loop_
_atom_site_type_symbol
_atom_site_label
_atom_site_fract_x
_atom_site_fract_y
_atom_site_fract_z
Si Si1 0.308088 0.451570 0.708791
Si Si2 0.944576 0.686107 0.501402
Si Si3 0.424251 0.002236 0.207275
Si Si4 0.829984 0.754788 0.991356
Si Si5 0.250000 0.750000 0.750000
O O1 0.250000 0.486419 0.750000
O O2 0.362387 0.515989 0.720564
O O3 0.307836 0.373755 0.532301
O O4 0.320984 0.345623 0.839389
O O5 0.946535 0.600379 0.334316
O O6 0.937884 0.613091 0.681640
O O7 0.891049 0.753565 0.479708
O O8 0.000000 0.746442 0.500000
O O9 0.437903 0.000000 0.000000
O O10 0.792615 0.810637 0.132244
#
# Coordination Sequence:
#
# PCOD9326683 Si02
#       5
#    16  16  16  16   4
#     4  10  19  41  60  88 132 168 201 262 328 388
#     4  10  23  44  65  89 132 169 218 272 321 380
#     4  10  22  39  65  93 128 170 216 260 327 386
#     4  10  21  37  65  91 124 170 212 264 327 381
#     4  12  20  34  64  96 132 158 212 264 332 394
#
# _framework density 29.272171
#
# number of rings (size 3 to 8) (size 9 to 14) (size 15 to 20)
#    0.000    1.882    2.353    2.118    3.294    1.882 
#   10.588    4.706    5.176    0.000    0.000    0.000 
#    0.000    0.000    0.000    0.000    0.000    0.000 
#
# Total GULP energy -95092.692909 kJ/mol
# GULP energy per Si atom -5593.687818 kJ/mol
# Density = 2.920555 g / cm^3
# Si number density = 29.272171 Si / 1000 Ang^3
#
#
#
# Elastic Constant Matrix: (Units=GPa)
#
#
# Indices 1 2 3 4 5 6 
#
# 1 345.5042 57.3029 52.3721 0.0000 0.0000 0.0000
# 2 57.3029 65.5870 2.3901 0.0000 0.0000 0.0000
# 3 52.3721 2.3901 157.8686 0.0000 0.0000 0.0000
# 4 0.0000 0.0000 0.0000 30.6525 0.0000 0.0000
# 5 0.0000 0.0000 0.0000 0.0000 30.3146 0.0000
# 6 0.0000 0.0000 0.0000 0.0000 0.0000 41.2211
#
#
#
# Elastic Compliance Matrix: (Units=1/GPa)
#
#
# Indices 1 2 3 4 5 6 
#
# 1 0.003579 -0.003085 -0.001141 0.000000 0.000000 0.000000
# 2 -0.003085 0.017915 0.000752 0.000000 0.000000 0.000000
# 3 -0.001141 0.000752 0.006701 0.000000 0.000000 0.000000
# 4 0.000000 0.000000 0.000000 0.032624 0.000000 0.000000
# 5 0.000000 0.000000 0.000000 0.000000 0.032987 0.000000
# 6 0.000000 0.000000 0.000000 0.000000 0.000000 0.024259
#
#
# Mechanical properties :
#
#
# Convention : Reuss Voigt Hill
#
# Bulk Modulus (GPa) = 47.06272 88.12113 67.59193
# Shear Modulus (GPa) = 37.85127 50.89727 44.37427
#
# Velocity S-wave (km/s) = 3.59984 4.17437 3.89771
# Velocity P-wave (km/s) = 5.77850 7.30775 6.58765
#
# Compressibility (1/GPa) = 0.02124824
#
# Stress axis : x y z
#
# Youngs Moduli (GPa) = 279.41389 55.81878 149.22311
#
# Poissons Ratio (x) = 0.17222 0.17020
# Poissons Ratio (y) = 0.86208 -0.11226
# Poissons Ratio (z) = 0.31869 -0.04199
#
# Static dielectric constant tensor:
#      x y z
#    x 2.075800 0.000000 0.000000 
#    y 0.000000 2.916770 0.000000 
#    z 0.000000 0.000000 1.752480 
# 
# From -- ./inp_files/13588.got.cif
#   From: 2010.05.17/outbox.cif.g08.bks.cpg/sg22_7_cif.got.tgz:13588.got - 2010.06.03 23:40:54.
