data_PCOD9326824
_publ_section_title
;
Structure prediction by ZEFSAII (Michael W. Deem and Ramdas Pophale) SiO2 
 PCOD9326824
Probable space group: F 2 2 2
;
_chemical_formula_sum "Si O2"
_cell_formula_units_Z 84
_cell_length_a 19.570773
_cell_length_b 23.296119
_cell_length_c 8.179648
_cell_angle_alpha 90.000000
_cell_angle_beta 90.000000
_cell_angle_gamma 90.000000
_cell_volume 3729.290119
_symmetry_space_group_name_H-M "F 2 2 2"
_symmetry_group_IT_number 22
_symmetry_cell_setting 'orthorhombic'
loop_
_space_group_symop_operation_xyz
x,y,z
-x,-y,z
x,-y,-z
-x,y,-z
x,1/2+y,1/2+z
-x,1/2-y,1/2+z
x,1/2-y,1/2-z
-x,1/2+y,1/2-z
1/2+x,y,1/2+z
1/2-x,-y,1/2+z
1/2+x,-y,1/2-z
1/2-x,y,1/2-z
1/2+x,1/2+y,z
1/2-x,1/2-y,z
1/2+x,1/2-y,-z
1/2-x,1/2+y,-z
loop_
_atom_site_type_symbol
_atom_site_label
_atom_site_fract_x
_atom_site_fract_y
_atom_site_fract_z
Si Si1 0.500000 0.500000 0.000000
Si Si2 0.889391 0.187431 0.328612
Si Si3 0.302352 0.852824 0.890682
Si Si4 0.301597 0.405140 0.865849
Si Si5 0.967042 0.693931 0.324408
Si Si6 0.112356 0.422849 0.339431
O O1 0.547028 0.537125 0.125409
O O2 0.872550 0.250000 0.250000
O O3 0.861179 0.182341 0.513249
O O4 0.854640 0.134656 0.231243
O O5 0.970203 0.179370 0.297435
O O6 0.250000 0.830372 0.750000
O O7 0.338994 0.911137 0.818542
O O8 0.249628 0.864222 0.036488
O O9 0.250000 0.439984 0.750000
O O10 0.340755 0.437296 0.006677
O O11 0.933424 0.750000 0.250000
O O12 0.916937 0.641723 0.354292
O O13 0.000000 0.707706 0.500000
#
# Coordination Sequence:
#
# PCOD9326824 Si02
#       6
#     4  16  16  16  16  16
#     4  12  24  44  72  94 136 180 210 288 344 396
#     4  10  20  35  59  91 134 176 223 276 341 397
#     4   9  21  37  60  89 126 175 218 277 331 402
#     4   9  18  38  61  87 127 172 212 269 334 395
#     4  11  23  38  62  97 130 178 226 273 340 400
#     4  11  22  41  64  94 129 170 229 269 336 406
#
# _framework density 22.524395999999999
#
# number of rings (size 3 to 8) (size 9 to 14) (size 15 to 20)
#    0.000    1.905    2.857    0.000    5.333    3.429 
#    0.000   10.476    0.000   19.429    0.000    0.000 
#    0.000    0.000    0.000    0.000    0.000    0.000 
#
# Total GULP energy -116918.305673 kJ/mol
# GULP energy per Si atom -5567.538365 kJ/mol
# Density = 2.247313 g / cm^3
# Si number density = 22.524396 Si / 1000 Ang^3
#
#
#
# Elastic Constant Matrix: (Units=GPa)
#
#
# Indices 1 2 3 4 5 6 
#
# 1 93.5696 14.9955 30.2973 -0.0001 -0.0001 0.0000
# 2 14.9955 61.3140 -1.3660 -0.0001 -0.0001 0.0000
# 3 30.2973 -1.3660 79.9444 -0.0002 -0.0004 -0.0002
# 4 -0.0001 -0.0001 -0.0002 1.4080 0.0001 0.0001
# 5 -0.0001 -0.0001 -0.0004 0.0001 34.9170 0.0001
# 6 0.0000 0.0000 -0.0002 0.0001 0.0001 2.2689
#
#
#
# Elastic Compliance Matrix: (Units=1/GPa)
#
#
# Indices 1 2 3 4 5 6 
#
# 1 0.012794 -0.003238 -0.004904 0.000000 0.000000 0.000000
# 2 -0.003238 0.017135 0.001520 0.000001 0.000000 0.000000
# 3 -0.004904 0.001520 0.014393 0.000002 0.000000 0.000001
# 4 0.000000 0.000001 0.000002 0.710209 -0.000003 -0.000019
# 5 0.000000 0.000000 0.000000 -0.000003 0.028639 -0.000001
# 6 0.000000 0.000000 0.000001 -0.000019 -0.000001 0.440751
#
#
# Mechanical properties :
#
#
# Convention : Reuss Voigt Hill
#
# Bulk Modulus (GPa) = 32.17705 35.85352 34.01529
# Shear Modulus (GPa) = 4.00793 20.44552 12.22672
#
# Velocity S-wave (km/s) = 1.33538 3.01608 2.33238
# Velocity P-wave (km/s) = 4.08584 5.29917 4.73156
#
# Compressibility (1/GPa) = 0.03107805
#
# Stress axis : x y z
#
# Youngs Moduli (GPa) = 78.16101 58.35889 69.47725
#
# Poissons Ratio (x) = 0.18898 0.34072
# Poissons Ratio (y) = 0.25311 -0.10561
# Poissons Ratio (z) = 0.38330 -0.08871
#
# Static dielectric constant tensor:
#      x y z
#    x 1.932750 0.000000 0.000000 
#    y 0.000000 1.848710 0.000000 
#    z 0.000000 0.000000 1.899580 
# 
# From -- ./inp_files/12570.got.cif
#   From: 2010.05.17/outbox.cif.g08.bks.cpg/sg22_7_cif.got.tgz:12570.got - 2010.06.03 23:40:54.
