data_PCOD9326549
_publ_section_title
;
Structure prediction by ZEFSAII (Michael W. Deem and Ramdas Pophale) SiO2 
 PCOD9326549
Probable space group: F 2 2 2
;
_chemical_formula_sum "Si O2"
_cell_formula_units_Z 116
_cell_length_a 14.089329
_cell_length_b 24.791110
_cell_length_c 15.545874
_cell_angle_alpha 90.000000
_cell_angle_beta 90.000000
_cell_angle_gamma 90.000000
_cell_volume 5430.019963
_symmetry_space_group_name_H-M "F 2 2 2"
_symmetry_group_IT_number 22
_symmetry_cell_setting 'orthorhombic'
loop_
_space_group_symop_operation_xyz
x,y,z
-x,-y,z
x,-y,-z
-x,y,-z
x,1/2+y,1/2+z
-x,1/2-y,1/2+z
x,1/2-y,1/2-z
-x,1/2+y,1/2-z
1/2+x,y,1/2+z
1/2-x,-y,1/2+z
1/2+x,-y,1/2-z
1/2-x,y,1/2-z
1/2+x,1/2+y,z
1/2-x,1/2-y,z
1/2+x,1/2-y,-z
1/2-x,1/2+y,-z
loop_
_atom_site_type_symbol
_atom_site_label
_atom_site_fract_x
_atom_site_fract_y
_atom_site_fract_z
Si Si1 0.513644 0.855450 0.772301
Si Si2 0.904254 0.056622 0.949428
Si Si3 0.751056 0.613547 0.961227
Si Si4 0.250000 0.250000 0.750000
Si Si5 0.610347 0.688808 0.875733
Si Si6 0.863616 0.436520 0.749589
Si Si7 0.341447 0.950284 0.187907
Si Si8 0.086584 0.698990 0.058146
O O1 0.519059 0.826642 0.679883
O O2 0.412671 0.882890 0.786247
O O3 0.586015 0.905811 0.777048
O O4 0.553625 0.815516 0.845003
O O5 0.909910 0.052015 0.845637
O O6 0.804927 0.088913 0.959184
O O7 0.000000 0.078166 0.000000
O O8 0.889905 0.000000 0.000000
O O9 0.660722 0.635728 0.908907
O O10 0.806978 0.569177 0.905697
O O11 0.821329 0.664626 0.968043
O O12 0.314313 0.286915 0.808818
O O13 0.598936 0.736494 0.944384
O O14 0.750000 0.430174 0.750000
O O15 0.882161 0.489709 0.806728
O O16 0.250000 0.949704 0.250000
O O17 0.000000 0.681258 0.000000
#
# Coordination Sequence:
#
# PCOD9326549 Si02
#       8
#    16  16  16   4  16  16  16  16
#     4  11  22  38  67  91 123 166 216 266 324 394
#     4  11  25  40  63  96 137 173 216 278 328 393
#     4  11  22  41  66  96 127 165 215 277 332 386
#     4  12  16  36  60 104 110 132 210 280 336 348
#     4  12  20  38  68  98 117 153 215 286 337 372
#     4  11  25  40  63  93 133 184 217 255 321 412
#     4  10  19  36  65  96 125 159 209 271 324 386
#     4  11  25  40  62  90 132 167 212 276 331 394
#
# _framework density 21.362721000000001
#
# number of rings (size 3 to 8) (size 9 to 14) (size 15 to 20)
#    0.000    0.966    4.138    3.724    5.793    1.655 
#    0.000    0.000    0.000    0.828    0.000    0.000 
#    0.000    0.000    0.000    0.000    0.000    0.000 
#
# Total GULP energy -161852.368876 kJ/mol
# GULP energy per Si atom -5581.116168 kJ/mol
# Density = 2.131410 g / cm^3
# Si number density = 21.362721 Si / 1000 Ang^3
#
#
#
# Elastic Constant Matrix: (Units=GPa)
#
#
# Indices 1 2 3 4 5 6 
#
# 1 91.9515 18.6337 13.7926 0.0000 0.0000 0.0000
# 2 18.6337 57.8651 9.8819 0.0000 0.0000 0.0000
# 3 13.7926 9.8819 39.8589 0.0000 0.0000 0.0000
# 4 0.0000 0.0000 0.0000 3.5489 0.0000 0.0000
# 5 0.0000 0.0000 0.0000 0.0000 23.3167 0.0000
# 6 0.0000 0.0000 0.0000 0.0000 0.0000 24.1116
#
#
#
# Elastic Compliance Matrix: (Units=1/GPa)
#
#
# Indices 1 2 3 4 5 6 
#
# 1 0.012048 -0.003308 -0.003349 0.000000 0.000000 0.000000
# 2 -0.003308 0.018954 -0.003554 0.000000 0.000000 0.000000
# 3 -0.003349 -0.003554 0.027129 0.000000 0.000000 0.000000
# 4 0.000000 0.000000 0.000000 0.281775 0.000000 0.000000
# 5 0.000000 0.000000 0.000000 0.000000 0.042888 0.000000
# 6 0.000000 0.000000 0.000000 0.000000 0.000000 0.041474
#
#
# Mechanical properties :
#
#
# Convention : Reuss Voigt Hill
#
# Bulk Modulus (GPa) = 26.51961 30.47687 28.49824
# Shear Modulus (GPa) = 10.93475 20.01995 15.47735
#
# Velocity S-wave (km/s) = 2.26489 3.06460 2.69458
# Velocity P-wave (km/s) = 4.39096 5.17878 4.80106
#
# Compressibility (1/GPa) = 0.03770795
#
# Stress axis : x y z
#
# Youngs Moduli (GPa) = 83.00173 52.76004 36.86153
#
# Poissons Ratio (x) = 0.17452 0.12345
# Poissons Ratio (y) = 0.27455 0.13102
# Poissons Ratio (z) = 0.27797 0.18753
#
# Static dielectric constant tensor:
#      x y z
#    x 1.781620 0.000000 0.000000 
#    y 0.000000 1.827780 0.000000 
#    z 0.000000 0.000000 1.846700 
# 
# From -- ./inp_files/37381.got.cif
#   From: 2010.05.17/outbox.cif.g08.bks.cpg/sg22_19_cif.got.tgz:37381.got - 2010.06.03 23:40:54.
