data_PCOD9326183
_publ_section_title
;
Structure prediction by ZEFSAII (Michael W. Deem and Ramdas Pophale) SiO2 
 PCOD9326183
Probable space group: F 2 2 2
;
_chemical_formula_sum "Si O2"
_cell_formula_units_Z 40
_cell_length_a 13.877160
_cell_length_b 4.904077
_cell_length_c 23.636502
_cell_angle_alpha 90.000000
_cell_angle_beta 90.000000
_cell_angle_gamma 90.000000
_cell_volume 1608.574135
_symmetry_space_group_name_H-M "F 2 2 2"
_symmetry_group_IT_number 22
_symmetry_cell_setting 'orthorhombic'
loop_
_space_group_symop_operation_xyz
x,y,z
-x,-y,z
x,-y,-z
-x,y,-z
x,1/2+y,1/2+z
-x,1/2-y,1/2+z
x,1/2-y,1/2-z
-x,1/2+y,1/2-z
1/2+x,y,1/2+z
1/2-x,-y,1/2+z
1/2+x,-y,1/2-z
1/2-x,y,1/2-z
1/2+x,1/2+y,z
1/2-x,1/2-y,z
1/2+x,1/2-y,-z
1/2-x,1/2+y,-z
loop_
_atom_site_type_symbol
_atom_site_label
_atom_site_fract_x
_atom_site_fract_y
_atom_site_fract_z
Si Si1 0.500000 0.500000 0.211322
Si Si2 0.365941 0.235007 0.616451
Si Si3 0.134442 0.720711 0.952484
O O1 0.534553 0.750000 0.250000
O O2 0.416137 0.617391 0.171289
O O3 0.250000 0.250000 0.620469
O O4 0.392529 0.545841 0.602988
O O5 0.392946 0.030367 0.563712
O O6 0.250000 0.750000 0.959492
O O7 0.104824 0.500000 0.000000
#
# Coordination Sequence:
#
# PCOD9326183 Si02
#       3
#     8  16  16
#     4  12  26  46  67  90 129 174 226 294 342 378
#     4  10  22  40  63  93 128 168 216 266 325 397
#     4  10  18  34  62  95 131 169 207 253 318 398
#
# _framework density 24.866744000000001
#
# number of rings (size 3 to 8) (size 9 to 14) (size 15 to 20)
#    0.000    1.600    0.000    7.200    0.000    0.800 
#    0.000    8.000    0.000    0.000    0.000    0.000 
#    0.000    0.000    0.000    0.000    0.000    0.000 
#
# Total GULP energy -55848.526938 kJ/mol
# GULP energy per Si atom -5584.852694 kJ/mol
# Density = 2.481015 g / cm^3
# Si number density = 24.866744 Si / 1000 Ang^3
#
#
#
# Elastic Constant Matrix: (Units=GPa)
#
#
# Indices 1 2 3 4 5 6 
#
# 1 136.8977 12.3538 19.3037 0.0000 0.0000 0.0000
# 2 12.3538 232.6212 59.9271 0.0000 0.0000 0.0000
# 3 19.3037 59.9271 106.3230 0.0000 0.0000 0.0000
# 4 0.0000 0.0000 0.0000 48.2974 0.0000 0.0000
# 5 0.0000 0.0000 0.0000 0.0000 15.9995 0.0000
# 6 0.0000 0.0000 0.0000 0.0000 0.0000 12.3194
#
#
#
# Elastic Compliance Matrix: (Units=1/GPa)
#
#
# Indices 1 2 3 4 5 6 
#
# 1 0.007497 -0.000056 -0.001330 0.000000 0.000000 0.000000
# 2 -0.000056 0.005029 -0.002825 0.000000 0.000000 0.000000
# 3 -0.001330 -0.002825 0.011239 0.000000 0.000000 0.000000
# 4 0.000000 0.000000 0.000000 0.020705 0.000000 0.000000
# 5 0.000000 0.000000 0.000000 0.000000 0.062502 0.000000
# 6 0.000000 0.000000 0.000000 0.000000 0.000000 0.081173
#
#
# Mechanical properties :
#
#
# Convention : Reuss Voigt Hill
#
# Bulk Modulus (GPa) = 65.16633 73.22343 69.19488
# Shear Modulus (GPa) = 24.79171 40.94043 32.86607
#
# Velocity S-wave (km/s) = 3.16093 4.06198 3.63945
# Velocity P-wave (km/s) = 6.29167 7.17703 6.74888
#
# Compressibility (1/GPa) = 0.01534535
#
# Stress axis : x y z
#
# Youngs Moduli (GPa) = 133.38212 198.82802 88.97717
#
# Poissons Ratio (x) = 0.01105 0.11833
# Poissons Ratio (y) = 0.00741 0.25133
# Poissons Ratio (z) = 0.17738 0.56163
#
# Static dielectric constant tensor:
#      x y z
#    x 1.964090 0.000000 0.000000 
#    y 0.000000 1.900130 0.000000 
#    z 0.000000 0.000000 2.046470 
# 
# From -- ./inp_files/1385.got.cif
#   From: 2010.05.17/outbox.cif.g08.bks.cpg/sg22_1_cif.got.tgz:1385.got - 2010.06.03 23:40:54.
