data_PCOD9326229
_publ_section_title
;
Structure prediction by ZEFSAII (Michael W. Deem and Ramdas Pophale) SiO2 
 PCOD9326229
Probable space group: F 2 2 2
;
_chemical_formula_sum "Si O2"
_cell_formula_units_Z 72
_cell_length_a 26.049873
_cell_length_b 15.031745
_cell_length_c 8.617610
_cell_angle_alpha 90.000000
_cell_angle_beta 90.000000
_cell_angle_gamma 90.000000
_cell_volume 3374.441051
_symmetry_space_group_name_H-M "F 2 2 2"
_symmetry_group_IT_number 22
_symmetry_cell_setting 'orthorhombic'
loop_
_space_group_symop_operation_xyz
x,y,z
-x,-y,z
x,-y,-z
-x,y,-z
x,1/2+y,1/2+z
-x,1/2-y,1/2+z
x,1/2-y,1/2-z
-x,1/2+y,1/2-z
1/2+x,y,1/2+z
1/2-x,-y,1/2+z
1/2+x,-y,1/2-z
1/2-x,y,1/2-z
1/2+x,1/2+y,z
1/2-x,1/2-y,z
1/2+x,1/2-y,-z
1/2-x,1/2+y,-z
loop_
_atom_site_type_symbol
_atom_site_label
_atom_site_fract_x
_atom_site_fract_y
_atom_site_fract_z
Si Si1 0.195960 0.500000 0.500000
Si Si2 0.434846 0.750000 0.750000
Si Si3 0.250000 0.378325 0.250000
Si Si4 0.486997 0.404892 0.817194
Si Si5 0.872926 0.941075 0.732580
Si Si6 0.354516 0.638401 0.593909
O O1 0.229581 0.439937 0.388452
O O2 0.160894 0.559123 0.387113
O O3 0.474055 0.668932 0.761768
O O4 0.395616 0.717362 0.616452
O O5 0.300476 0.335404 0.327527
O O6 0.500000 0.500000 0.744733
O O7 0.427288 0.397041 0.776832
O O8 0.500000 0.408889 0.000000
O O9 0.849786 0.890046 0.584937
O O10 0.874181 0.046822 0.681612
#
# Coordination Sequence:
#
# PCOD9326229 Si02
#       6
#     8   8   8  16  16  16
#     4  10  18  36  69 102 134 181 234 292 346 422
#     4  12  26  43  66 100 142 185 230 280 356 414
#     4  10  20  37  66  98 134 181 234 285 358 404
#     4  11  24  42  66  97 136 184 221 281 352 425
#     4  10  21  41  67  99 136 178 236 289 346 416
#     4  10  23  41  65 100 136 182 232 293 343 418
#
# _framework density 21.336867000000002
#
# number of rings (size 3 to 8) (size 9 to 14) (size 15 to 20)
#    0.000    1.556    2.222    4.000    6.222    0.444 
#    0.000    0.000    0.000    0.000    5.778    0.000 
#    0.000    0.000    0.000    0.000    0.000    0.000 
#
# Total GULP energy -100388.077950 kJ/mol
# GULP energy per Si atom -5577.115442 kJ/mol
# Density = 2.128830 g / cm^3
# Si number density = 21.336867 Si / 1000 Ang^3
#
#
#
# Elastic Constant Matrix: (Units=GPa)
#
#
# Indices 1 2 3 4 5 6 
#
# 1 184.2320 62.2282 71.3271 0.0000 0.0000 0.0000
# 2 62.2282 81.4245 32.8643 0.0000 0.0000 0.0000
# 3 71.3271 32.8643 130.0088 0.0000 0.0000 0.0000
# 4 0.0000 0.0000 0.0000 16.0082 0.0000 0.0000
# 5 0.0000 0.0000 0.0000 0.0000 25.7330 0.0000
# 6 0.0000 0.0000 0.0000 0.0000 0.0000 2.6352
#
#
#
# Elastic Compliance Matrix: (Units=1/GPa)
#
#
# Indices 1 2 3 4 5 6 
#
# 1 0.008447 -0.005106 -0.003344 0.000000 0.000000 0.000000
# 2 -0.005106 0.016763 -0.001436 0.000000 0.000000 0.000000
# 3 -0.003344 -0.001436 0.009889 0.000000 0.000000 0.000000
# 4 0.000000 0.000000 0.000000 0.062468 0.000000 0.000000
# 5 0.000000 0.000000 0.000000 0.000000 0.038861 0.000000
# 6 0.000000 0.000000 0.000000 0.000000 0.000000 0.379482
#
#
# Mechanical properties :
#
#
# Convention : Reuss Voigt Hill
#
# Bulk Modulus (GPa) = 65.24044 80.94493 73.09269
# Shear Modulus (GPa) = 9.24570 24.15831 16.70201
#
# Velocity S-wave (km/s) = 2.08389 3.36852 2.80085
# Velocity P-wave (km/s) = 6.03597 7.29028 6.69258
#
# Compressibility (1/GPa) = 0.01532792
#
# Stress axis : x y z
#
# Youngs Moduli (GPa) = 118.38291 59.65420 101.12001
#
# Poissons Ratio (x) = 0.30460 0.33811
# Poissons Ratio (y) = 0.60448 0.14522
# Poissons Ratio (z) = 0.39583 0.08567
#
# Static dielectric constant tensor:
#      x y z
#    x 1.812450 0.000000 0.000000 
#    y 0.000000 1.910320 0.000000 
#    z 0.000000 0.000000 1.808100 
# 
# From -- ./inp_files/10174.got.cif
#   From: 2010.05.17/outbox.cif.g08.bks.cpg/sg22_6_cif.got.tgz:10174.got - 2010.06.03 23:40:54.
