data_PCOD9326680
_publ_section_title
;
Structure prediction by ZEFSAII (Michael W. Deem and Ramdas Pophale) SiO2 
 PCOD9326680
Probable space group: F 2 2 2
;
_chemical_formula_sum "Si O2"
_cell_formula_units_Z 64
_cell_length_a 7.058139
_cell_length_b 19.442701
_cell_length_c 18.855743
_cell_angle_alpha 90.000000
_cell_angle_beta 90.000000
_cell_angle_gamma 90.000000
_cell_volume 2587.560153
_symmetry_space_group_name_H-M "F 2 2 2"
_symmetry_group_IT_number 22
_symmetry_cell_setting 'orthorhombic'
loop_
_space_group_symop_operation_xyz
x,y,z
-x,-y,z
x,-y,-z
-x,y,-z
x,1/2+y,1/2+z
-x,1/2-y,1/2+z
x,1/2-y,1/2-z
-x,1/2+y,1/2-z
1/2+x,y,1/2+z
1/2-x,-y,1/2+z
1/2+x,-y,1/2-z
1/2-x,y,1/2-z
1/2+x,1/2+y,z
1/2-x,1/2-y,z
1/2+x,1/2-y,-z
1/2-x,1/2+y,-z
loop_
_atom_site_type_symbol
_atom_site_label
_atom_site_fract_x
_atom_site_fract_y
_atom_site_fract_z
Si Si1 0.270192 0.505260 0.615330
Si Si2 0.250000 0.583246 0.750000
Si Si3 0.448775 0.211174 0.181270
Si Si4 0.750000 0.750000 0.936465
Si Si5 0.227363 0.108651 0.509907
O O1 0.500000 0.500000 0.622543
O O2 0.185558 0.532827 0.687783
O O3 0.219647 0.431898 0.581708
O O4 0.215104 0.561551 0.555958
O O5 0.395482 0.634952 0.709399
O O6 0.530092 0.250000 0.250000
O O7 0.250000 0.250000 0.165679
O O8 0.586148 0.220709 0.115263
O O9 0.700065 0.685390 0.985035
O O10 0.000000 0.110925 0.500000
#
# Coordination Sequence:
#
# PCOD9326680 Si02
#       5
#    16   8  16   8  16
#     4   9  18  39  66 100 140 188 244 305 364 447
#     4  10  19  40  70  97 144 190 242 304 382 431
#     4   9  21  40  63 101 145 178 236 310 352 435
#     4  12  21  42  74 101 140 198 240 292 388 441
#     4   9  20  39  65 103 141 185 252 298 364 452
#
# _framework density 24.733723999999999
#
# number of rings (size 3 to 8) (size 9 to 14) (size 15 to 20)
#    0.000    2.750    0.000    4.875    0.000    0.000 
#   33.750    0.000    0.000    0.000    0.000    3.500 
#    0.000    0.000    0.000    0.000    0.000    0.000 
#
# Total GULP energy -89484.790460 kJ/mol
# GULP energy per Si atom -5592.799404 kJ/mol
# Density = 2.467743 g / cm^3
# Si number density = 24.733724 Si / 1000 Ang^3
#
#
#
# Elastic Constant Matrix: (Units=GPa)
#
#
# Indices 1 2 3 4 5 6 
#
# 1 126.0738 27.4625 14.0624 0.0000 0.0000 0.0000
# 2 27.4625 214.7060 78.2975 0.0000 0.0000 0.0000
# 3 14.0624 78.2975 97.2287 0.0000 0.0000 0.0000
# 4 0.0000 0.0000 0.0000 22.6395 0.0000 0.0000
# 5 0.0000 0.0000 0.0000 0.0000 23.1923 0.0000
# 6 0.0000 0.0000 0.0000 0.0000 0.0000 14.9024
#
#
#
# Elastic Compliance Matrix: (Units=1/GPa)
#
#
# Indices 1 2 3 4 5 6 
#
# 1 0.008175 -0.000870 -0.000482 0.000000 0.000000 0.000000
# 2 -0.000870 0.006687 -0.005259 0.000000 0.000000 0.000000
# 3 -0.000482 -0.005259 0.014590 0.000000 0.000000 0.000000
# 4 0.000000 0.000000 0.000000 0.044171 0.000000 0.000000
# 5 0.000000 0.000000 0.000000 0.000000 0.043118 0.000000
# 6 0.000000 0.000000 0.000000 0.000000 0.000000 0.067104
#
#
# Mechanical properties :
#
#
# Convention : Reuss Voigt Hill
#
# Bulk Modulus (GPa) = 61.61391 75.29482 68.45436
# Shear Modulus (GPa) = 24.69449 33.35923 29.02686
#
# Velocity S-wave (km/s) = 3.16320 3.67650 3.42946
# Velocity P-wave (km/s) = 6.18919 6.96638 6.58925
#
# Compressibility (1/GPa) = 0.01623010
#
# Stress axis : x y z
#
# Youngs Moduli (GPa) = 122.32262 149.55389 68.54199
#
# Poissons Ratio (x) = 0.13010 0.03302
# Poissons Ratio (y) = 0.10641 0.36045
# Poissons Ratio (z) = 0.05894 0.78648
#
# Static dielectric constant tensor:
#      x y z
#    x 2.046920 0.000000 0.000000 
#    y 0.000000 1.937010 0.000000 
#    z 0.000000 0.000000 1.924450 
# 
# From -- ./inp_files/34829.got.cif
#   From: 2010.05.17/outbox.cif.g08.bks.cpg/sg22_18_cif.got.tgz:34829.got - 2010.06.03 23:40:54.
