data_PCOD9326989
_publ_section_title
;
Structure prediction by ZEFSAII (Michael W. Deem and Ramdas Pophale) SiO2 
 PCOD9326989
Probable space group: F 2 2 2
;
_chemical_formula_sum "Si O2"
_cell_formula_units_Z 64
_cell_length_a 20.670904
_cell_length_b 15.631693
_cell_length_c 9.034158
_cell_angle_alpha 90.000000
_cell_angle_beta 90.000000
_cell_angle_gamma 90.000000
_cell_volume 2919.128203
_symmetry_space_group_name_H-M "F 2 2 2"
_symmetry_group_IT_number 22
_symmetry_cell_setting 'orthorhombic'
loop_
_space_group_symop_operation_xyz
x,y,z
-x,-y,z
x,-y,-z
-x,y,-z
x,1/2+y,1/2+z
-x,1/2-y,1/2+z
x,1/2-y,1/2-z
-x,1/2+y,1/2-z
1/2+x,y,1/2+z
1/2-x,-y,1/2+z
1/2+x,-y,1/2-z
1/2-x,y,1/2-z
1/2+x,1/2+y,z
1/2-x,1/2-y,z
1/2+x,1/2-y,-z
1/2-x,1/2+y,-z
loop_
_atom_site_type_symbol
_atom_site_label
_atom_site_fract_x
_atom_site_fract_y
_atom_site_fract_z
Si Si1 0.603166 0.000000 0.000000
Si Si2 0.856323 0.355525 0.581219
Si Si3 0.000000 0.000000 0.000000
Si Si4 0.000000 0.362868 0.000000
Si Si5 0.750000 0.250000 0.750000
Si Si6 0.031607 0.250000 0.250000
Si Si7 0.879134 0.450558 0.317055
O O1 0.556701 0.924369 0.056751
O O2 0.633661 0.955142 0.857683
O O3 0.796002 0.307309 0.649160
O O4 0.920040 0.306752 0.645409
O O5 0.850513 0.370408 0.405214
O O6 0.856934 0.453941 0.636033
O O7 0.952734 0.049791 0.114149
O O8 0.012980 0.304467 0.859329
#
# Coordination Sequence:
#
# PCOD9326989 Si02
#       7
#     8  16   4   8   4   8  16
#     4  11  22  38  54  89 137 178 214 248 294 401
#     4   9  21  39  65  88 122 165 215 276 327 381
#     4   8  16  28  56  88 130 150 212 238 300 366
#     4  11  24  33  56  90 136 186 212 251 302 387
#     4  10  20  44  72  90 120 154 228 300 352 356
#     4  11  22  37  54  98 130 175 214 261 328 372
#     4  10  20  37  62  97 124 177 207 255 315 408
#
# _framework density 21.924354000000001
#
# number of rings (size 3 to 8) (size 9 to 14) (size 15 to 20)
#    0.000    2.250    2.500    1.500    7.000    1.000 
#    0.000    2.500    0.000    1.500    0.000    0.000 
#    0.000    0.000    0.000    0.000    0.000    0.000 
#
# Total GULP energy -89091.083721 kJ/mol
# GULP energy per Si atom -5568.192733 kJ/mol
# Density = 2.187445 g / cm^3
# Si number density = 21.924354 Si / 1000 Ang^3
#
#
#
# Elastic Constant Matrix: (Units=GPa)
#
#
# Indices 1 2 3 4 5 6 
#
# 1 56.8420 25.1998 20.6595 0.0000 0.0000 0.0000
# 2 25.1998 88.9247 50.2844 0.0000 0.0000 0.0000
# 3 20.6595 50.2844 170.2386 0.0000 0.0000 0.0000
# 4 0.0000 0.0000 0.0000 54.5175 0.0000 0.0000
# 5 0.0000 0.0000 0.0000 0.0000 9.1797 0.0000
# 6 0.0000 0.0000 0.0000 0.0000 0.0000 -0.3211
#
#
#
# Elastic Compliance Matrix: (Units=1/GPa)
#
#
# Indices 1 2 3 4 5 6 
#
# 1 0.020238 -0.005218 -0.000915 0.000000 0.000000 0.000000
# 2 -0.005218 0.014846 -0.003752 0.000000 0.000000 0.000000
# 3 -0.000915 -0.003752 0.007093 0.000000 0.000000 0.000000
# 4 0.000000 0.000000 0.000000 0.018343 0.000000 0.000000
# 5 0.000000 0.000000 0.000000 0.000000 0.108936 0.000001
# 6 0.000000 0.000000 0.000000 0.000000 0.000001 -3.114684
#
#
# Mechanical properties :
#
#
# Convention : Reuss Voigt Hill
#
# Bulk Modulus (GPa) = 44.62638 56.47697 50.55167
# Shear Modulus (GPa) = -1.71351 27.33267 12.80958
#
# Velocity S-wave (km/s) = -0.88501 3.53467 2.41977
# Velocity P-wave (km/s) = 4.39938 6.51723 5.56008
#
# Compressibility (1/GPa) = 0.02240827
#
# Stress axis : x y z
#
# Youngs Moduli (GPa) = 49.41112 67.35956 140.97755
#
# Poissons Ratio (x) = 0.35148 0.12897
# Poissons Ratio (y) = 0.25782 0.52892
# Poissons Ratio (z) = 0.04520 0.25272
#
# Static dielectric constant tensor:
#      x y z
#    x 1.827220 0.000000 0.000000 
#    y 0.000000 1.810900 0.000000 
#    z 0.000000 0.000000 1.985200 
# 
# From -- ./inp_files/9921.got.cif
#   From: 2010.05.17/outbox.cif.g08.bks.cpg/sg22_5_cif.got.tgz:9921.got - 2010.06.03 23:40:54.
