data_PCOD9326703
_publ_section_title
;
Structure prediction by ZEFSAII (Michael W. Deem and Ramdas Pophale) SiO2 
 PCOD9326703
Probable space group: F 2 2 2
;
_chemical_formula_sum "Si O2"
_cell_formula_units_Z 88
_cell_length_a 18.049731
_cell_length_b 20.976903
_cell_length_c 12.424211
_cell_angle_alpha 90.000000
_cell_angle_beta 90.000000
_cell_angle_gamma 90.000000
_cell_volume 4704.147408
_symmetry_space_group_name_H-M "F 2 2 2"
_symmetry_group_IT_number 22
_symmetry_cell_setting 'orthorhombic'
loop_
_space_group_symop_operation_xyz
x,y,z
-x,-y,z
x,-y,-z
-x,y,-z
x,1/2+y,1/2+z
-x,1/2-y,1/2+z
x,1/2-y,1/2-z
-x,1/2+y,1/2-z
1/2+x,y,1/2+z
1/2-x,-y,1/2+z
1/2+x,-y,1/2-z
1/2-x,y,1/2-z
1/2+x,1/2+y,z
1/2-x,1/2-y,z
1/2+x,1/2-y,-z
1/2-x,1/2+y,-z
loop_
_atom_site_type_symbol
_atom_site_label
_atom_site_fract_x
_atom_site_fract_y
_atom_site_fract_z
Si Si1 0.500000 0.254227 0.500000
Si Si2 0.126209 0.947688 0.847146
Si Si3 0.921477 0.314344 0.199575
Si Si4 0.500000 0.500000 0.000000
Si Si5 0.626267 0.449427 0.346109
Si Si6 0.500000 0.000000 0.000000
Si Si7 0.578058 0.811601 0.314976
Si Si8 0.749999 0.500000 0.000000
O O1 0.452576 0.296517 0.582095
O O2 0.441628 0.211319 0.434663
O O3 0.124790 0.875271 0.807050
O O4 0.053783 0.959573 0.922006
O O5 0.125352 0.998066 0.748965
O O6 0.196656 0.959843 0.922576
O O7 0.887064 0.250000 0.250000
O O8 0.874896 0.378279 0.200033
O O9 0.996832 0.326404 0.266263
O O10 0.553773 0.459867 0.421474
O O11 0.696565 0.459909 0.422530
O O12 0.607021 0.750000 0.250000
#
# Coordination Sequence:
#
# PCOD9326703 Si02
#       8
#     8  16  16   4  16   4  16   8
#     4   8  16  32  52  86 122 136 170 228 278 346
#     4  11  21  38  58  84 117 149 190 238 278 334
#     4   9  18  31  55  87 114 143 176 228 290 332
#     4  10  20  30  60  94 110 146 190 228 286 336
#     4  11  21  38  58  84 117 149 190 238 278 334
#     4  10  20  30  60  94 110 146 190 228 286 336
#     4   9  18  31  55  87 114 143 176 228 290 332
#     4  10  26  38  56  78 112 162 198 228 284 328
#
# _framework density 18.706897000000001
#
# number of rings (size 3 to 8) (size 9 to 14) (size 15 to 20)
#    0.000    2.545    0.000    4.364    0.000    8.727 
#    0.000    0.000    0.000   16.364    0.000    2.545 
#    0.000    0.000    0.000    0.000    0.000    0.000 
#
# Total GULP energy -122727.607345 kJ/mol
# GULP energy per Si atom -5578.527607 kJ/mol
# Density = 1.866432 g / cm^3
# Si number density = 18.706897 Si / 1000 Ang^3
#
#
#
# Elastic Constant Matrix: (Units=GPa)
#
#
# Indices 1 2 3 4 5 6 
#
# 1 82.8589 46.4317 27.0873 0.0000 0.0000 0.0000
# 2 46.4317 174.6978 39.8995 0.0000 0.0000 0.0000
# 3 27.0873 39.8995 74.7901 0.0000 0.0000 0.0000
# 4 0.0000 0.0000 0.0000 3.6611 0.0000 0.0000
# 5 0.0000 0.0000 0.0000 0.0000 16.6883 0.0000
# 6 0.0000 0.0000 0.0000 0.0000 0.0000 -0.2740
#
#
#
# Elastic Compliance Matrix: (Units=1/GPa)
#
#
# Indices 1 2 3 4 5 6 
#
# 1 0.015064 -0.003140 -0.003781 0.000000 0.000000 0.000000
# 2 -0.003140 0.007173 -0.002689 0.000000 0.000000 0.000000
# 3 -0.003781 -0.002689 0.016175 0.000000 0.000000 0.000000
# 4 0.000000 0.000000 0.000000 0.273138 0.000000 0.000000
# 5 0.000000 0.000000 0.000000 0.000000 0.059922 0.000000
# 6 0.000000 0.000000 0.000000 0.000000 0.000000 -3.649260
#
#
# Mechanical properties :
#
#
# Convention : Reuss Voigt Hill
#
# Bulk Modulus (GPa) = 52.10652 62.13154 57.11903
# Shear Modulus (GPa) = -1.53744 18.61031 8.53644
#
# Velocity S-wave (km/s) = -0.90755 3.15753 2.13850
# Velocity P-wave (km/s) = 5.17846 6.82485 6.05785
#
# Compressibility (1/GPa) = 0.01919146
#
# Stress axis : x y z
#
# Youngs Moduli (GPa) = 66.38156 139.41056 61.82481
#
# Poissons Ratio (x) = 0.43781 0.23374
# Poissons Ratio (y) = 0.20846 0.16627
# Poissons Ratio (z) = 0.25096 0.37492
#
# Static dielectric constant tensor:
#      x y z
#    x 1.627210 0.000000 0.000000 
#    y 0.000000 1.661060 0.000000 
#    z 0.000000 0.000000 1.686230 
# 
# From -- ./inp_files/21468.got.cif
#   From: 2010.05.17/outbox.cif.g08.bks.cpg/sg22_11_cif.got.tgz:21468.got - 2010.06.03 23:40:54.
