data_PCOD9326682
_publ_section_title
;
Structure prediction by ZEFSAII (Michael W. Deem and Ramdas Pophale) SiO2 
 PCOD9326682
Probable space group: F 2 2 2
;
_chemical_formula_sum "Si O2"
_cell_formula_units_Z 108
_cell_length_a 11.785387
_cell_length_b 28.008301
_cell_length_c 13.790262
_cell_angle_alpha 90.000000
_cell_angle_beta 90.000000
_cell_angle_gamma 90.000000
_cell_volume 4552.009194
_symmetry_space_group_name_H-M "F 2 2 2"
_symmetry_group_IT_number 22
_symmetry_cell_setting 'orthorhombic'
loop_
_space_group_symop_operation_xyz
x,y,z
-x,-y,z
x,-y,-z
-x,y,-z
x,1/2+y,1/2+z
-x,1/2-y,1/2+z
x,1/2-y,1/2-z
-x,1/2+y,1/2-z
1/2+x,y,1/2+z
1/2-x,-y,1/2+z
1/2+x,-y,1/2-z
1/2-x,y,1/2-z
1/2+x,1/2+y,z
1/2-x,1/2-y,z
1/2+x,1/2-y,-z
1/2-x,1/2+y,-z
loop_
_atom_site_type_symbol
_atom_site_label
_atom_site_fract_x
_atom_site_fract_y
_atom_site_fract_z
Si Si1 0.500000 0.500000 0.264926
Si Si2 0.167805 0.679227 0.410268
Si Si3 0.250000 0.750000 0.250000
Si Si4 0.809115 0.466959 0.089193
Si Si5 0.395769 0.811632 0.836715
Si Si6 0.096295 0.413695 0.682938
Si Si7 0.871833 0.201897 0.873079
Si Si8 0.402262 0.871357 0.101441
O O1 0.391526 0.506392 0.334892
O O2 0.495946 0.451593 0.201402
O O3 0.174496 0.716860 0.321666
O O4 0.097528 0.631236 0.387910
O O5 0.120794 0.696540 0.512102
O O6 0.300250 0.664508 0.421671
O O7 0.698140 0.446832 0.142706
O O8 0.878992 0.421192 0.048101
O O9 0.777635 0.500000 0.000000
O O10 0.261525 0.811270 0.856834
O O11 0.419858 0.823705 0.723582
O O12 0.416006 0.755761 0.855877
O O13 0.476203 0.845989 0.898282
O O14 0.118663 0.389341 0.787265
#
# Coordination Sequence:
#
# PCOD9326682 Si02
#       8
#     8  16   4  16  16  16  16  16
#     4  10  19  40  73  94 132 188 230 282 365 423
#     4  11  21  40  64 103 140 181 234 287 353 431
#     4  12  20  32  64  94 136 190 216 268 356 404
#     4  10  21  42  68 105 136 173 232 299 354 423
#     4   9  19  41  67  91 133 185 231 290 344 415
#     4  10  22  46  69 100 142 180 226 295 356 429
#     4   9  20  40  66  89 136 186 233 281 354 414
#     4  10  20  41  70  98 134 181 232 289 345 423
#
# _framework density 23.725785999999999
#
# number of rings (size 3 to 8) (size 9 to 14) (size 15 to 20)
#    0.000    2.074    1.481    5.556    0.000    1.778 
#   18.667    8.519   26.074    0.000    0.000    0.000 
#    0.000    0.000    0.000    0.000    0.000    0.000 
#
# Total GULP energy -150628.545406 kJ/mol
# GULP energy per Si atom -5578.835015 kJ/mol
# Density = 2.367179 g / cm^3
# Si number density = 23.725786 Si / 1000 Ang^3
#
#
#
# Elastic Constant Matrix: (Units=GPa)
#
#
# Indices 1 2 3 4 5 6 
#
# 1 113.5185 53.6133 21.5828 0.0000 0.0000 0.0000
# 2 53.6133 109.4182 68.8558 0.0000 0.0000 0.0000
# 3 21.5828 68.8558 158.6747 0.0000 0.0000 0.0000
# 4 0.0000 0.0000 0.0000 42.2451 0.0000 0.0000
# 5 0.0000 0.0000 0.0000 0.0000 22.1609 0.0000
# 6 0.0000 0.0000 0.0000 0.0000 0.0000 26.9381
#
#
#
# Elastic Compliance Matrix: (Units=1/GPa)
#
#
# Indices 1 2 3 4 5 6 
#
# 1 0.011632 -0.006471 0.001226 0.000000 0.000000 0.000000
# 2 -0.006471 0.016172 -0.006138 0.000000 0.000000 0.000000
# 3 0.001226 -0.006138 0.008799 0.000000 0.000000 0.000000
# 4 0.000000 0.000000 0.000000 0.023671 0.000000 0.000000
# 5 0.000000 0.000000 0.000000 0.000000 0.045125 0.000000
# 6 0.000000 0.000000 0.000000 0.000000 0.000000 0.037122
#
#
# Mechanical properties :
#
#
# Convention : Reuss Voigt Hill
#
# Bulk Modulus (GPa) = 72.26632 74.41282 73.33957
# Shear Modulus (GPa) = 29.42908 34.10611 31.76760
#
# Velocity S-wave (km/s) = 3.52573 3.79557 3.66313
# Velocity P-wave (km/s) = 6.86290 7.11619 6.99070
#
# Compressibility (1/GPa) = 0.01383770
#
# Stress axis : x y z
#
# Youngs Moduli (GPa) = 85.96780 61.83393 113.65095
#
# Poissons Ratio (x) = 0.40013 -0.13932
# Poissons Ratio (y) = 0.55630 0.69755
# Poissons Ratio (z) = -0.10538 0.37952
#
# Static dielectric constant tensor:
#      x y z
#    x 1.941990 0.000000 0.000000 
#    y 0.000000 1.944150 0.000000 
#    z 0.000000 0.000000 1.942060 
# 
# From -- ./inp_files/28477.got.cif
#   From: 2010.05.17/outbox.cif.g08.bks.cpg/sg22_15_cif.got.tgz:28477.got - 2010.06.03 23:40:54.
