data_PCOD9326051
_publ_section_title
;
Structure prediction by ZEFSAII (Michael W. Deem and Ramdas Pophale) SiO2 
 PCOD9326051
Probable space group: F 2 2 2
;
_chemical_formula_sum "Si O2"
_cell_formula_units_Z 68
_cell_length_a 30.327800
_cell_length_b 19.610127
_cell_length_c 5.180197
_cell_angle_alpha 90.000000
_cell_angle_beta 90.000000
_cell_angle_gamma 90.000000
_cell_volume 3080.828972
_symmetry_space_group_name_H-M "F 2 2 2"
_symmetry_group_IT_number 22
_symmetry_cell_setting 'orthorhombic'
loop_
_space_group_symop_operation_xyz
x,y,z
-x,-y,z
x,-y,-z
-x,y,-z
x,1/2+y,1/2+z
-x,1/2-y,1/2+z
x,1/2-y,1/2-z
-x,1/2+y,1/2-z
1/2+x,y,1/2+z
1/2-x,-y,1/2+z
1/2+x,-y,1/2-z
1/2-x,y,1/2-z
1/2+x,1/2+y,z
1/2-x,1/2-y,z
1/2+x,1/2-y,-z
1/2-x,1/2+y,-z
loop_
_atom_site_type_symbol
_atom_site_label
_atom_site_fract_x
_atom_site_fract_y
_atom_site_fract_z
Si Si1 0.334887 0.080475 0.036593
Si Si2 0.209276 0.081736 0.946872
Si Si3 0.946724 0.290114 0.496929
Si Si4 0.923951 0.434246 0.667867
Si Si5 0.000000 0.500000 0.000000
O O1 0.302137 0.108022 0.263388
O O2 0.384133 0.083229 0.141617
O O3 0.329689 0.106110 0.744849
O O4 0.324235 0.000000 0.000000
O O5 0.250000 0.096724 0.750000
O O6 0.211103 0.000000 0.000000
O O7 0.931145 0.250000 0.750000
O O8 0.933523 0.368539 0.498403
O O9 0.000000 0.288041 0.500000
O O10 0.930446 0.250000 0.250000
O O11 0.911084 0.500000 0.500000
O O12 0.967891 0.454457 0.824431
#
# Coordination Sequence:
#
# PCOD9326051 Si02
#       5
#    16  16  16  16   4
#     4  10  20  33  51  80 117 155 196 251 298 357
#     4  10  18  30  49  75 112 158 197 233 300 375
#     4  10  24  42  62  83 114 158 211 257 305 354
#     4  12  25  40  60  90 125 162 215 255 310 367
#     4  12  26  36  64  90 124 172 220 260 310 372
#
# _framework density 22.07198
#
# number of rings (size 3 to 8) (size 9 to 14) (size 15 to 20)
#    0.000    1.412    1.176    6.706    8.235    0.000 
#    0.000    0.000    0.000    0.000    0.000    0.000 
#    0.000   14.118    0.000    0.941    0.000    0.235 
#
# Total GULP energy -94903.409787 kJ/mol
# GULP energy per Si atom -5582.553517 kJ/mol
# Density = 2.202174 g / cm^3
# Si number density = 22.071980 Si / 1000 Ang^3
#
#
#
# Elastic Constant Matrix: (Units=GPa)
#
#
# Indices 1 2 3 4 5 6 
#
# 1 100.0655 7.4718 35.0936 -0.0024 -0.0009 -0.0011
# 2 7.4718 93.2030 41.8041 -0.0032 0.0005 -0.0006
# 3 35.0936 41.8041 154.9252 -0.0066 -0.0015 -0.0014
# 4 -0.0024 -0.0032 -0.0066 23.3984 -0.0019 -0.0011
# 5 -0.0009 0.0005 -0.0015 -0.0019 24.5178 0.0007
# 6 -0.0011 -0.0006 -0.0014 -0.0011 0.0007 0.1474
#
#
#
# Elastic Compliance Matrix: (Units=1/GPa)
#
#
# Indices 1 2 3 4 5 6 
#
# 1 0.010862 0.000265 -0.002532 0.000000 0.000000 0.000057
# 2 0.000265 0.012213 -0.003355 0.000001 0.000000 0.000021
# 3 -0.002532 -0.003355 0.007934 0.000002 0.000000 0.000042
# 4 0.000000 0.000001 0.000002 0.042738 0.000003 0.000327
# 5 0.000000 0.000000 0.000000 0.000003 0.040787 -0.000187
# 6 0.000057 0.000021 0.000042 0.000327 -0.000187 6.782051
#
#
# Mechanical properties :
#
#
# Convention : Reuss Voigt Hill
#
# Bulk Modulus (GPa) = 50.59856 57.43694 54.01775
# Shear Modulus (GPa) = 0.72313 27.20101 13.96207
#
# Velocity S-wave (km/s) = 0.57300 3.51433 2.51782
# Velocity P-wave (km/s) = 4.83858 6.52276 5.74275
#
# Compressibility (1/GPa) = 0.01976341
#
# Stress axis : x y z
#
# Youngs Moduli (GPa) = 92.06735 81.87948 126.04515
#
# Poissons Ratio (x) = -0.02169 0.31913
# Poissons Ratio (y) = -0.02438 0.42294
# Poissons Ratio (z) = 0.23310 0.27475
#
# Static dielectric constant tensor:
#      x y z
#    x 1.913500 0.000000 0.000000 
#    y 0.000000 1.756800 -0.000010 
#    z 0.000000 -0.000010 1.870150 
# 
# From -- ./inp_files/6279.got.cif
#   From: 2010.05.17/outbox.cif.g08.bks.cpg/sg22_4_cif.got.tgz:6279.got - 2010.06.03 23:40:54.
