data_PCOD9326634
_publ_section_title
;
Structure prediction by ZEFSAII (Michael W. Deem and Ramdas Pophale) SiO2 
 PCOD9326634
Probable space group: F 2 2 2
;
_chemical_formula_sum "Si O2"
_cell_formula_units_Z 60
_cell_length_a 14.121329
_cell_length_b 14.309236
_cell_length_c 12.821445
_cell_angle_alpha 90.000000
_cell_angle_beta 90.000000
_cell_angle_gamma 90.000000
_cell_volume 2590.770788
_symmetry_space_group_name_H-M "F 2 2 2"
_symmetry_group_IT_number 22
_symmetry_cell_setting 'orthorhombic'
loop_
_space_group_symop_operation_xyz
x,y,z
-x,-y,z
x,-y,-z
-x,y,-z
x,1/2+y,1/2+z
-x,1/2-y,1/2+z
x,1/2-y,1/2-z
-x,1/2+y,1/2-z
1/2+x,y,1/2+z
1/2-x,-y,1/2+z
1/2+x,-y,1/2-z
1/2-x,y,1/2-z
1/2+x,1/2+y,z
1/2-x,1/2-y,z
1/2+x,1/2-y,-z
1/2-x,1/2+y,-z
loop_
_atom_site_type_symbol
_atom_site_label
_atom_site_fract_x
_atom_site_fract_y
_atom_site_fract_z
Si Si1 0.648226 0.019024 0.690268
Si Si2 0.362363 0.660332 0.432232
Si Si3 0.846646 0.366650 0.486658
Si Si4 0.250000 0.750000 0.250000
Si Si5 0.000000 0.500000 0.862089
O O1 0.750000 0.019204 0.750000
O O2 0.626000 0.091033 0.596917
O O3 0.576917 0.041672 0.783291
O O4 0.632834 0.924434 0.619934
O O5 0.268580 0.628656 0.493651
O O6 0.386341 0.762283 0.476581
O O7 0.317249 0.686714 0.320527
O O8 0.440001 0.580827 0.420002
#
# Coordination Sequence:
#
# PCOD9326634 Si02
#       5
#    16  16  16   4   8
#     4  11  22  42  73 107 147 199 252 313 378 447
#     4  10  19  38  70 102 137 195 249 310 361 447
#     4   9  21  41  73  99 151 198 242 310 389 441
#     4   8  16  36  72  92 136 194 252 284 372 444
#     4  12  22  37  79 108 140 192 262 306 364 450
#
# _framework density 23.159132
#
# number of rings (size 3 to 8) (size 9 to 14) (size 15 to 20)
#    0.000    2.133    2.667    3.200    1.867    2.133 
#    0.000    5.333   64.533    0.000    0.000    0.000 
#    0.000    0.000    0.000    0.000    0.000    0.000 
#
# Total GULP energy -83660.877286 kJ/mol
# GULP energy per Si atom -5577.391819 kJ/mol
# Density = 2.310642 g / cm^3
# Si number density = 23.159132 Si / 1000 Ang^3
#
#
#
# Elastic Constant Matrix: (Units=GPa)
#
#
# Indices 1 2 3 4 5 6 
#
# 1 125.7499 55.4187 21.7129 0.0000 0.0000 0.0000
# 2 55.4187 176.8857 46.4352 0.0000 0.0000 0.0000
# 3 21.7129 46.4352 79.8316 0.0000 0.0000 0.0000
# 4 0.0000 0.0000 0.0000 47.8908 0.0000 0.0000
# 5 0.0000 0.0000 0.0000 0.0000 8.2236 0.0000
# 6 0.0000 0.0000 0.0000 0.0000 0.0000 38.2702
#
#
#
# Elastic Compliance Matrix: (Units=1/GPa)
#
#
# Indices 1 2 3 4 5 6 
#
# 1 0.009291 -0.002653 -0.000984 0.000000 0.000000 0.000000
# 2 -0.002653 0.007429 -0.003600 0.000000 0.000000 0.000000
# 3 -0.000984 -0.003600 0.014888 0.000000 0.000000 0.000000
# 4 0.000000 0.000000 0.000000 0.020881 0.000000 0.000000
# 5 0.000000 0.000000 0.000000 0.000000 0.121602 0.000000
# 6 0.000000 0.000000 0.000000 0.000000 0.000000 0.026130
#
#
# Mechanical properties :
#
#
# Convention : Reuss Voigt Hill
#
# Bulk Modulus (GPa) = 58.35918 69.95565 64.15741
# Shear Modulus (GPa) = 22.68535 36.13694 29.41115
#
# Velocity S-wave (km/s) = 3.13316 3.95444 3.56751
# Velocity P-wave (km/s) = 6.19216 7.14998 6.68824
#
# Compressibility (1/GPa) = 0.01713527
#
# Stress axis : x y z
#
# Youngs Moduli (GPa) = 107.62820 134.59858 67.16799
#
# Poissons Ratio (x) = 0.35704 0.06610
# Poissons Ratio (y) = 0.28550 0.24181
# Poissons Ratio (z) = 0.10592 0.48456
#
# Static dielectric constant tensor:
#      x y z
#    x 1.922390 0.000000 0.000000 
#    y 0.000000 1.934480 0.000000 
#    z 0.000000 0.000000 1.885150 
# 
# From -- ./inp_files/28894.got.cif
#   From: 2010.05.17/outbox.cif.g08.bks.cpg/sg22_15_cif.got.tgz:28894.got - 2010.06.03 23:40:54.
