data_PCOD9326406
_publ_section_title
;
Structure prediction by ZEFSAII (Michael W. Deem and Ramdas Pophale) SiO2 
 PCOD9326406
Probable space group: F 2 2 2
;
_chemical_formula_sum "Si O2"
_cell_formula_units_Z 88
_cell_length_a 15.876689
_cell_length_b 22.297324
_cell_length_c 12.593980
_cell_angle_alpha 90.000000
_cell_angle_beta 90.000000
_cell_angle_gamma 90.000000
_cell_volume 4458.365625
_symmetry_space_group_name_H-M "F 2 2 2"
_symmetry_group_IT_number 22
_symmetry_cell_setting 'orthorhombic'
loop_
_space_group_symop_operation_xyz
x,y,z
-x,-y,z
x,-y,-z
-x,y,-z
x,1/2+y,1/2+z
-x,1/2-y,1/2+z
x,1/2-y,1/2-z
-x,1/2+y,1/2-z
1/2+x,y,1/2+z
1/2-x,-y,1/2+z
1/2+x,-y,1/2-z
1/2-x,y,1/2-z
1/2+x,1/2+y,z
1/2-x,1/2-y,z
1/2+x,1/2-y,-z
1/2-x,1/2+y,-z
loop_
_atom_site_type_symbol
_atom_site_label
_atom_site_fract_x
_atom_site_fract_y
_atom_site_fract_z
Si Si1 0.841882 0.237153 0.375550
Si Si2 0.166112 0.374732 0.180209
Si Si3 0.474029 0.831475 0.390582
Si Si4 0.092875 0.114079 0.542463
Si Si5 0.987639 0.566395 0.760740
Si Si6 0.600360 0.250000 0.750000
O O1 0.843993 0.250000 0.250000
O O2 0.750000 0.250000 0.417737
O O3 0.903871 0.284630 0.425957
O O4 0.870547 0.170325 0.395487
O O5 0.250000 0.388712 0.250000
O O6 0.081626 0.406148 0.225635
O O7 0.151916 0.302275 0.189009
O O8 0.156476 0.395250 0.056450
O O9 0.500000 0.861834 0.500000
O O10 0.444233 0.884071 0.313042
O O11 0.541356 0.788959 0.329304
O O12 0.000000 0.132710 0.500000
O O13 0.065636 0.063847 0.628639
O O14 0.000000 0.500000 0.717976
#
# Coordination Sequence:
#
# PCOD9326406 Si02
#       6
#    16  16  16  16  16   8
#     4  11  20  32  53  86 123 155 191 237 300 375
#     4  10  21  35  59  92 120 145 192 257 312 357
#     4  11  20  35  59  85 116 163 208 250 303 372
#     4  10  20  38  61  84 117 159 202 245 306 376
#     4  10  22  41  61  81 114 162 215 258 295 370
#     4  10  19  34  55  82 122 156 184 234 311 382
#
# _framework density 19.738174999999998
#
# number of rings (size 3 to 8) (size 9 to 14) (size 15 to 20)
#    0.000    1.636    2.727    4.091    0.000    8.000 
#    0.000    1.818    0.000    4.364    0.000    0.000 
#    0.000    0.000    0.000    0.000    0.000    0.000 
#
# Total GULP energy -122494.834629 kJ/mol
# GULP energy per Si atom -5567.947029 kJ/mol
# Density = 1.969325 g / cm^3
# Si number density = 19.738175 Si / 1000 Ang^3
#
#
#
# Elastic Constant Matrix: (Units=GPa)
#
#
# Indices 1 2 3 4 5 6 
#
# 1 44.1294 -8.5198 21.8427 0.0000 0.0000 0.0000
# 2 -8.5198 57.6951 3.2076 0.0000 0.0000 0.0000
# 3 21.8427 3.2076 87.9265 0.0000 0.0000 0.0000
# 4 0.0000 0.0000 0.0000 17.4192 0.0000 0.0000
# 5 0.0000 0.0000 0.0000 0.0000 5.2301 0.0000
# 6 0.0000 0.0000 0.0000 0.0000 0.0000 1.6603
#
#
#
# Elastic Compliance Matrix: (Units=1/GPa)
#
#
# Indices 1 2 3 4 5 6 
#
# 1 0.026885 0.004350 -0.006837 0.000000 0.000000 0.000000
# 2 0.004350 0.018072 -0.001740 0.000000 0.000000 0.000000
# 3 -0.006837 -0.001740 0.013135 0.000000 0.000000 0.000000
# 4 0.000000 0.000000 0.000000 0.057408 0.000000 0.000000
# 5 0.000000 0.000000 0.000000 0.000000 0.191199 0.000000
# 6 0.000000 0.000000 0.000000 0.000000 0.000000 0.602297
#
#
# Mechanical properties :
#
#
# Convention : Reuss Voigt Hill
#
# Bulk Modulus (GPa) = 20.14616 24.75690 22.45153
# Shear Modulus (GPa) = 5.35334 16.40996 10.88165
#
# Velocity S-wave (km/s) = 1.64866 2.88650 2.35052
# Velocity P-wave (km/s) = 3.72195 4.86611 4.33197
#
# Compressibility (1/GPa) = 0.04963724
#
# Stress axis : x y z
#
# Youngs Moduli (GPa) = 37.19576 55.33539 76.13155
#
# Poissons Ratio (x) = -0.24072 0.52054
# Poissons Ratio (y) = -0.16181 0.13246
# Poissons Ratio (z) = 0.25432 0.09628
#
# Static dielectric constant tensor:
#      x y z
#    x 1.673860 0.000000 0.000000 
#    y 0.000000 1.660750 0.000000 
#    z 0.000000 0.000000 1.873120 
# 
# From -- ./inp_files/21402.got.cif
#   From: 2010.05.17/outbox.cif.g08.bks.cpg/sg22_11_cif.got.tgz:21402.got - 2010.06.03 23:40:54.
