data_PCOD9326551
_publ_section_title
;
Structure prediction by ZEFSAII (Michael W. Deem and Ramdas Pophale) SiO2 
 PCOD9326551
Probable space group: F 2 2 2
;
_chemical_formula_sum "Si O2"
_cell_formula_units_Z 88
_cell_length_a 7.558290
_cell_length_b 22.026561
_cell_length_c 21.321058
_cell_angle_alpha 90.000000
_cell_angle_beta 90.000000
_cell_angle_gamma 90.000000
_cell_volume 3549.596593
_symmetry_space_group_name_H-M "F 2 2 2"
_symmetry_group_IT_number 22
_symmetry_cell_setting 'orthorhombic'
loop_
_space_group_symop_operation_xyz
x,y,z
-x,-y,z
x,-y,-z
-x,y,-z
x,1/2+y,1/2+z
-x,1/2-y,1/2+z
x,1/2-y,1/2-z
-x,1/2+y,1/2-z
1/2+x,y,1/2+z
1/2-x,-y,1/2+z
1/2+x,-y,1/2-z
1/2-x,y,1/2-z
1/2+x,1/2+y,z
1/2-x,1/2-y,z
1/2+x,1/2-y,-z
1/2-x,1/2+y,-z
loop_
_atom_site_type_symbol
_atom_site_label
_atom_site_fract_x
_atom_site_fract_y
_atom_site_fract_z
Si Si1 0.840982 0.953490 0.817095
Si Si2 0.792377 0.980742 0.064940
Si Si3 0.303410 0.845568 0.966365
Si Si4 0.947863 0.829115 0.776161
Si Si5 0.750000 0.750000 0.564073
Si Si6 0.556662 0.789702 0.153433
O O1 0.750000 0.951720 0.750000
O O2 0.919700 0.885604 0.822479
O O3 0.727636 0.980780 0.874747
O O4 0.000000 0.000000 0.810322
O O5 0.773669 0.908912 0.058099
O O6 0.000000 0.000000 0.063486
O O7 0.705766 0.000000 0.000000
O O8 0.314211 0.808690 0.901601
O O9 0.500000 0.852711 0.000000
O O10 0.196586 0.804547 0.016674
O O11 0.750000 0.813166 0.750000
O O12 0.047551 0.839099 0.709562
O O13 0.051058 0.774755 0.810391
O O14 0.618992 0.717279 0.611723
#
# Coordination Sequence:
#
# PCOD9326551 Si02
#       6
#    16  16  16  16   8  16
#     4  10  24  41  65  99 132 188 234 285 344 413
#     4  10  24  47  67  95 134 187 231 283 356 421
#     4  10  24  39  65 104 135 177 228 287 348 406
#     4  10  19  36  66  95 130 177 231 278 347 414
#     4  10  20  39  62  97 140 172 216 286 352 408
#     4  10  19  37  65  99 130 170 224 288 340 405
#
# _framework density 24.791547000000001
#
# number of rings (size 3 to 8) (size 9 to 14) (size 15 to 20)
#    0.000    2.000    1.818    0.545    5.091    4.727 
#    6.545    0.000    0.000    0.000    0.000    0.000 
#    0.000    0.000    0.000    0.000    0.000    0.000 
#
# Total GULP energy -122616.167930 kJ/mol
# GULP energy per Si atom -5573.462179 kJ/mol
# Density = 2.473512 g / cm^3
# Si number density = 24.791547 Si / 1000 Ang^3
#
#
#
# Elastic Constant Matrix: (Units=GPa)
#
#
# Indices 1 2 3 4 5 6 
#
# 1 48.6982 17.9584 13.8537 0.0000 0.0000 0.0000
# 2 17.9584 189.6296 69.2786 0.0000 0.0000 0.0000
# 3 13.8537 69.2786 211.5026 0.0000 0.0000 0.0000
# 4 0.0000 0.0000 0.0000 30.0052 0.0000 0.0000
# 5 0.0000 0.0000 0.0000 0.0000 9.2470 0.0000
# 6 0.0000 0.0000 0.0000 0.0000 0.0000 -2.5690
#
#
#
# Elastic Compliance Matrix: (Units=1/GPa)
#
#
# Indices 1 2 3 4 5 6 
#
# 1 0.021408 -0.001721 -0.000839 0.000000 0.000000 0.000000
# 2 -0.001721 0.006129 -0.001895 0.000000 0.000000 0.000000
# 3 -0.000839 -0.001895 0.005404 0.000000 0.000000 0.000000
# 4 0.000000 0.000000 0.000000 0.033328 0.000000 0.000000
# 5 0.000000 0.000000 0.000000 0.000000 0.108143 0.000000
# 6 0.000000 0.000000 0.000000 0.000000 0.000000 -0.389256
#
#
# Mechanical properties :
#
#
# Convention : Reuss Voigt Hill
#
# Bulk Modulus (GPa) = 41.61197 72.44575 57.02886
# Shear Modulus (GPa) = -25.26190 30.58596 2.66203
#
# Velocity S-wave (km/s) = -3.19560 3.51625 1.03735
# Velocity P-wave (km/s) = 1.79036 6.76541 4.94854
#
# Compressibility (1/GPa) = 0.02403155
#
# Stress axis : x y z
#
# Youngs Moduli (GPa) = 46.71183 163.16832 185.06091
#
# Poissons Ratio (x) = 0.28082 0.15518
# Poissons Ratio (y) = 0.08039 0.35064
# Poissons Ratio (z) = 0.03917 0.30916
#
# Static dielectric constant tensor:
#      x y z
#    x 2.149120 0.000000 0.000000 
#    y 0.000000 2.164740 0.000000 
#    z 0.000000 0.000000 2.077250 
# 
# From -- ./inp_files/47273.got.cif
#   From: 2010.05.17/outbox.cif.g08.bks.cpg/sg22_24_cif.got.tgz:47273.got - 2010.06.03 23:40:54.
