data_PCOD9326662
_publ_section_title
;
Structure prediction by ZEFSAII (Michael W. Deem and Ramdas Pophale) SiO2 
 PCOD9326662
Probable space group: F 2 2 2
;
_chemical_formula_sum "Si O2"
_cell_formula_units_Z 96
_cell_length_a 28.318445
_cell_length_b 13.015502
_cell_length_c 14.126326
_cell_angle_alpha 90.000000
_cell_angle_beta 90.000000
_cell_angle_gamma 90.000000
_cell_volume 5206.663968
_symmetry_space_group_name_H-M "F 2 2 2"
_symmetry_group_IT_number 22
_symmetry_cell_setting 'orthorhombic'
loop_
_space_group_symop_operation_xyz
x,y,z
-x,-y,z
x,-y,-z
-x,y,-z
x,1/2+y,1/2+z
-x,1/2-y,1/2+z
x,1/2-y,1/2-z
-x,1/2+y,1/2-z
1/2+x,y,1/2+z
1/2-x,-y,1/2+z
1/2+x,-y,1/2-z
1/2-x,y,1/2-z
1/2+x,1/2+y,z
1/2-x,1/2-y,z
1/2+x,1/2-y,-z
1/2-x,1/2+y,-z
loop_
_atom_site_type_symbol
_atom_site_label
_atom_site_fract_x
_atom_site_fract_y
_atom_site_fract_z
Si Si1 0.540126 0.084424 0.765434
Si Si2 0.419862 0.250000 0.750000
Si Si3 0.696505 0.579107 0.577375
Si Si4 0.250000 0.750000 0.975463
Si Si5 0.505140 0.245591 0.612296
Si Si6 0.277767 0.062028 0.346849
Si Si7 0.633723 0.046046 0.260486
O O1 0.524567 0.146776 0.670418
O O2 0.539366 0.162950 0.853468
O O3 0.500000 0.000000 0.781353
O O4 0.590245 0.030516 0.755433
O O5 0.455414 0.275396 0.663126
O O6 0.389198 0.345018 0.787745
O O7 0.676410 0.500000 0.500000
O O8 0.710653 0.689402 0.536191
O O9 0.745955 0.527267 0.607788
O O10 0.662335 0.575616 0.665984
O O11 0.275000 0.662567 0.911889
O O12 0.500000 0.232812 0.500000
O O13 0.250000 0.088983 0.250000
O O14 0.328594 0.013044 0.326100
#
# Coordination Sequence:
#
# PCOD9326662 Si02
#       7
#    16   8  16   8  16  16  16
#     4  10  20  43  62  88 127 156 198 253 297 370
#     4  10  22  40  61  92 128 148 215 258 294 372
#     4   9  21  38  58  87 119 154 205 253 301 362
#     4  10  19  40  59  86 124 154 202 264 295 361
#     4  10  22  42  63  88 119 166 200 250 313 352
#     4   9  20  39  60  84 117 162 202 244 312 361
#     4  11  21  40  62  87 120 166 200 249 311 362
#
# _framework density 18.437909999999999
#
# number of rings (size 3 to 8) (size 9 to 14) (size 15 to 20)
#    0.000    2.333    3.333    0.250    2.333    2.000 
#   21.000    0.000    0.000    0.000    0.000    0.000 
#    0.000    0.000    0.000    0.000    0.000    0.000 
#
# Total GULP energy -133735.173194 kJ/mol
# GULP energy per Si atom -5572.298883 kJ/mol
# Density = 1.839594 g / cm^3
# Si number density = 18.437910 Si / 1000 Ang^3
#
#
#
# Elastic Constant Matrix: (Units=GPa)
#
#
# Indices 1 2 3 4 5 6 
#
# 1 96.7022 42.2581 17.1419 0.0000 0.0000 0.0000
# 2 42.2581 112.8702 28.7867 0.0000 0.0000 0.0000
# 3 17.1419 28.7867 94.6487 0.0000 0.0000 0.0000
# 4 0.0000 0.0000 0.0000 21.6630 0.0000 0.0000
# 5 0.0000 0.0000 0.0000 0.0000 -9.5761 0.0000
# 6 0.0000 0.0000 0.0000 0.0000 0.0000 9.3840
#
#
#
# Elastic Compliance Matrix: (Units=1/GPa)
#
#
# Indices 1 2 3 4 5 6 
#
# 1 0.012435 -0.004424 -0.000906 0.000000 0.000000 0.000000
# 2 -0.004424 0.011179 -0.002599 0.000000 0.000000 0.000000
# 3 -0.000906 -0.002599 0.011520 0.000000 0.000000 0.000000
# 4 0.000000 0.000000 0.000000 0.046162 0.000000 0.000000
# 5 0.000000 0.000000 0.000000 0.000000 -0.104427 0.000000
# 6 0.000000 0.000000 0.000000 0.000000 0.000000 0.106565
#
#
# Mechanical properties :
#
#
# Convention : Reuss Voigt Hill
#
# Bulk Modulus (GPa) = 51.88113 53.39938 52.64025
# Shear Modulus (GPa) = 47.29550 18.69646 32.99598
#
# Velocity S-wave (km/s) = 5.07020 3.18783 4.23492
# Velocity P-wave (km/s) = 7.90413 6.52490 7.24740
#
# Compressibility (1/GPa) = 0.01927483
#
# Stress axis : x y z
#
# Youngs Moduli (GPa) = 80.41698 89.45330 86.80609
#
# Poissons Ratio (x) = 0.39578 0.07869
# Poissons Ratio (y) = 0.35580 0.22558
# Poissons Ratio (z) = 0.07290 0.23246
#
# Static dielectric constant tensor:
#      x y z
#    x 1.635770 0.000000 0.000000 
#    y 0.000000 1.665190 0.000000 
#    z 0.000000 0.000000 1.684750 
# 
# From -- ./inp_files/33486.got.cif
#   From: 2010.05.17/outbox.cif.g08.bks.cpg/sg22_17_cif.got.tgz:33486.got - 2010.06.03 23:40:54.
