data_PCOD9326661
_publ_section_title
;
Structure prediction by ZEFSAII (Michael W. Deem and Ramdas Pophale) SiO2 
 PCOD9326661
Probable space group: F 2 2 2
;
_chemical_formula_sum "Si O2"
_cell_formula_units_Z 120
_cell_length_a 11.675455
_cell_length_b 24.145431
_cell_length_c 20.615593
_cell_angle_alpha 90.000000
_cell_angle_beta 90.000000
_cell_angle_gamma 90.000000
_cell_volume 5811.719003
_symmetry_space_group_name_H-M "F 2 2 2"
_symmetry_group_IT_number 22
_symmetry_cell_setting 'orthorhombic'
loop_
_space_group_symop_operation_xyz
x,y,z
-x,-y,z
x,-y,-z
-x,y,-z
x,1/2+y,1/2+z
-x,1/2-y,1/2+z
x,1/2-y,1/2-z
-x,1/2+y,1/2-z
1/2+x,y,1/2+z
1/2-x,-y,1/2+z
1/2+x,-y,1/2-z
1/2-x,y,1/2-z
1/2+x,1/2+y,z
1/2-x,1/2-y,z
1/2+x,1/2-y,-z
1/2-x,1/2+y,-z
loop_
_atom_site_type_symbol
_atom_site_label
_atom_site_fract_x
_atom_site_fract_y
_atom_site_fract_z
Si Si1 0.092065 0.253579 0.390173
Si Si2 0.374760 0.930367 0.146064
Si Si3 0.625763 0.171959 0.491321
Si Si4 0.241488 0.664925 0.674070
Si Si5 0.636922 0.557996 0.366765
Si Si6 0.750000 0.854672 0.750000
Si Si7 0.135425 0.716155 0.349591
Si Si8 0.370499 0.115116 0.998751
O O1 0.110315 0.271991 0.464688
O O2 0.122750 0.311090 0.352583
O O3 0.170012 0.203795 0.365656
O O4 0.966852 0.241469 0.363697
O O5 0.510753 0.928234 0.160994
O O6 0.304482 0.892249 0.194373
O O7 0.359886 0.909920 0.072546
O O8 0.337703 0.994548 0.148509
O O9 0.500000 0.142922 0.500000
O O10 0.632145 0.179758 0.414501
O O11 0.750149 0.147493 0.510648
O O12 0.250000 0.676622 0.750000
O O13 0.271742 0.601743 0.660228
O O14 0.626136 0.569602 0.443935
O O15 0.850172 0.818025 0.783571
O O16 0.250000 0.750000 0.352464
O O17 0.500000 0.142693 0.000000
#
# Coordination Sequence:
#
# PCOD9326661 Si02
#       8
#    16  16  16  16  16   8  16  16
#     4  10  23  43  62  92 129 168 213 261 327 397
#     4  10  23  41  64  99 129 168 221 281 326 390
#     4  10  21  42  64  95 135 170 215 271 333 398
#     4  11  24  38  63  93 126 167 208 268 324 393
#     4  10  22  41  69  94 126 168 223 280 331 380
#     4  12  25  42  62  92 136 173 214 264 326 398
#     4  11  26  40  64  92 129 176 213 262 323 395
#     4  10  19  39  71 100 128 166 224 282 334 378
#
# _framework density 20.647936000000001
#
# number of rings (size 3 to 8) (size 9 to 14) (size 15 to 20)
#    0.000    1.600    2.667    1.400    6.533    2.667 
#    0.000    2.000    0.000    3.200    0.000    0.000 
#    0.000    0.000    0.000    0.000    0.000    0.000 
#
# Total GULP energy -167314.541733 kJ/mol
# GULP energy per Si atom -5577.151391 kJ/mol
# Density = 2.060094 g / cm^3
# Si number density = 20.647936 Si / 1000 Ang^3
#
#
#
# Elastic Constant Matrix: (Units=GPa)
#
#
# Indices 1 2 3 4 5 6 
#
# 1 89.9571 24.3122 2.0464 0.0000 0.0000 0.0000
# 2 24.3122 43.6123 3.0904 0.0000 0.0000 0.0000
# 3 2.0464 3.0904 80.1695 0.0000 0.0000 0.0000
# 4 0.0000 0.0000 0.0000 9.7049 0.0000 0.0000
# 5 0.0000 0.0000 0.0000 0.0000 27.2205 0.0000
# 6 0.0000 0.0000 0.0000 0.0000 0.0000 30.0748
#
#
#
# Elastic Compliance Matrix: (Units=1/GPa)
#
#
# Indices 1 2 3 4 5 6 
#
# 1 0.013089 -0.007293 -0.000053 0.000000 0.000000 0.000000
# 2 -0.007293 0.027055 -0.000857 0.000000 0.000000 0.000000
# 3 -0.000053 -0.000857 0.012508 0.000000 0.000000 0.000000
# 4 0.000000 0.000000 0.000000 0.103040 0.000000 0.000000
# 5 0.000000 0.000000 0.000000 0.000000 0.036737 0.000000
# 6 0.000000 0.000000 0.000000 0.000000 0.000000 0.033250
#
#
# Mechanical properties :
#
#
# Convention : Reuss Voigt Hill
#
# Bulk Modulus (GPa) = 27.58840 30.29299 28.94070
# Shear Modulus (GPa) = 19.67211 25.68604 22.67907
#
# Velocity S-wave (km/s) = 3.09000 3.53087 3.31776
# Velocity P-wave (km/s) = 5.11088 5.59694 5.35942
#
# Compressibility (1/GPa) = 0.03624711
#
# Stress axis : x y z
#
# Youngs Moduli (GPa) = 76.40266 36.96124 79.94912
#
# Poissons Ratio (x) = 0.26954 0.00424
# Poissons Ratio (y) = 0.55718 0.06850
# Poissons Ratio (z) = 0.00405 0.03167
#
# Static dielectric constant tensor:
#      x y z
#    x 1.813020 0.000000 0.000000 
#    y 0.000000 1.753620 0.000000 
#    z 0.000000 0.000000 1.651380 
# 
# From -- ./inp_files/42932.got.cif
#   From: 2010.05.17/outbox.cif.g08.bks.cpg/sg22_22_cif.got.tgz:42932.got - 2010.06.03 23:40:54.
