data_PCOD9326768
_publ_section_title
;
Structure prediction by ZEFSAII (Michael W. Deem and Ramdas Pophale) SiO2 
 PCOD9326768
Probable space group: F 2 2 2
;
_chemical_formula_sum "Si O2"
_cell_formula_units_Z 84
_cell_length_a 20.275486
_cell_length_b 11.918859
_cell_length_c 17.990716
_cell_angle_alpha 90.000000
_cell_angle_beta 90.000000
_cell_angle_gamma 90.000000
_cell_volume 4347.648281
_symmetry_space_group_name_H-M "F 2 2 2"
_symmetry_group_IT_number 22
_symmetry_cell_setting 'orthorhombic'
loop_
_space_group_symop_operation_xyz
x,y,z
-x,-y,z
x,-y,-z
-x,y,-z
x,1/2+y,1/2+z
-x,1/2-y,1/2+z
x,1/2-y,1/2-z
-x,1/2+y,1/2-z
1/2+x,y,1/2+z
1/2-x,-y,1/2+z
1/2+x,-y,1/2-z
1/2-x,y,1/2-z
1/2+x,1/2+y,z
1/2-x,1/2-y,z
1/2+x,1/2-y,-z
1/2-x,1/2+y,-z
loop_
_atom_site_type_symbol
_atom_site_label
_atom_site_fract_x
_atom_site_fract_y
_atom_site_fract_z
Si Si1 0.726637 0.069587 0.569906
Si Si2 0.351758 0.778526 0.944258
Si Si3 0.012128 0.126849 0.410134
Si Si4 0.719213 0.637374 0.831902
Si Si5 0.500000 0.500000 0.000000
Si Si6 0.085592 0.180282 0.906654
O O1 0.676301 0.166283 0.594065
O O2 0.792962 0.133373 0.547097
O O3 0.698982 0.000000 0.500000
O O4 0.741541 0.976698 0.630133
O O5 0.412722 0.833980 0.902107
O O6 0.375305 0.737553 0.024923
O O7 0.000000 0.126306 0.500000
O O8 0.964019 0.222733 0.378643
O O9 0.000000 0.000000 0.383587
O O10 0.750000 0.635491 0.750000
O O11 0.750000 0.750000 0.867729
O O12 0.640311 0.644443 0.846134
O O13 0.543892 0.580188 0.946081
#
# Coordination Sequence:
#
# PCOD9326768 Si02
#       6
#    16  16  16  16   4  16
#     4  11  21  34  61  90 126 160 214 278 318 375
#     4  10  20  34  55  97 127 159 207 265 340 372
#     4   9  19  31  51  87 130 162 192 256 333 393
#     4  11  25  42  61  88 130 181 220 260 321 396
#     4  12  20  36  66 104 132 156 206 288 340 372
#     4  11  20  36  59  93 134 162 207 266 327 397
#
# _framework density 19.320791
#
# number of rings (size 3 to 8) (size 9 to 14) (size 15 to 20)
#    0.000    1.524    4.762    2.286    8.000    0.000 
#    0.000    1.905    0.000    4.571    0.000    0.000 
#    0.000    0.000    0.000    0.000    0.000    0.000 
#
# Total GULP energy -117124.187512 kJ/mol
# GULP energy per Si atom -5577.342262 kJ/mol
# Density = 1.927682 g / cm^3
# Si number density = 19.320791 Si / 1000 Ang^3
#
#
#
# Elastic Constant Matrix: (Units=GPa)
#
#
# Indices 1 2 3 4 5 6 
#
# 1 135.0205 81.6212 29.9490 0.0000 0.0000 0.0000
# 2 81.6212 170.5637 33.1320 0.0000 0.0000 0.0000
# 3 29.9490 33.1320 43.1684 0.0000 0.0000 0.0000
# 4 0.0000 0.0000 0.0000 14.8237 0.0000 0.0000
# 5 0.0000 0.0000 0.0000 0.0000 18.1498 0.0000
# 6 0.0000 0.0000 0.0000 0.0000 0.0000 31.6511
#
#
#
# Elastic Compliance Matrix: (Units=1/GPa)
#
#
# Indices 1 2 3 4 5 6 
#
# 1 0.011043 -0.004461 -0.004237 0.000000 0.000000 0.000000
# 2 -0.004461 0.008693 -0.003576 0.000000 0.000000 0.000000
# 3 -0.004237 -0.003576 0.028850 0.000000 0.000000 0.000000
# 4 0.000000 0.000000 0.000000 0.067460 0.000000 0.000000
# 5 0.000000 0.000000 0.000000 0.000000 0.055097 0.000000
# 6 0.000000 0.000000 0.000000 0.000000 0.000000 0.031594
#
#
# Mechanical properties :
#
#
# Convention : Reuss Voigt Hill
#
# Bulk Modulus (GPa) = 41.60559 70.90635 56.25597
# Shear Modulus (GPa) = 21.24960 26.52826 23.88893
#
# Velocity S-wave (km/s) = 3.31997 3.70948 3.52011
# Velocity P-wave (km/s) = 6.02305 7.42470 6.76030
#
# Compressibility (1/GPa) = 0.02403523
#
# Stress axis : x y z
#
# Youngs Moduli (GPa) = 90.55378 115.04017 34.66252
#
# Poissons Ratio (x) = 0.51325 0.14687
# Poissons Ratio (y) = 0.40401 0.12397
# Poissons Ratio (z) = 0.38370 0.41143
#
# Static dielectric constant tensor:
#      x y z
#    x 1.716120 0.000000 0.000000 
#    y 0.000000 1.714900 0.000000 
#    z 0.000000 0.000000 1.692540 
# 
# From -- ./inp_files/42738.got.cif
#   From: 2010.05.17/outbox.cif.g08.bks.cpg/sg22_22_cif.got.tgz:42738.got - 2010.06.03 23:40:54.
