data_PCOD9326018
_publ_section_title
;
Structure prediction by ZEFSAII (Michael W. Deem and Ramdas Pophale) SiO2 
 PCOD9326018
Probable space group: F 2 2 2
;
_chemical_formula_sum "Si O2"
_cell_formula_units_Z 56
_cell_length_a 9.810825
_cell_length_b 16.957806
_cell_length_c 16.603782
_cell_angle_alpha 90.000000
_cell_angle_beta 90.000000
_cell_angle_gamma 90.000000
_cell_volume 2762.372325
_symmetry_space_group_name_H-M "F 2 2 2"
_symmetry_group_IT_number 22
_symmetry_cell_setting 'orthorhombic'
loop_
_space_group_symop_operation_xyz
x,y,z
-x,-y,z
x,-y,-z
-x,y,-z
x,1/2+y,1/2+z
-x,1/2-y,1/2+z
x,1/2-y,1/2-z
-x,1/2+y,1/2-z
1/2+x,y,1/2+z
1/2-x,-y,1/2+z
1/2+x,-y,1/2-z
1/2-x,y,1/2-z
1/2+x,1/2+y,z
1/2-x,1/2-y,z
1/2+x,1/2-y,-z
1/2-x,1/2+y,-z
loop_
_atom_site_type_symbol
_atom_site_label
_atom_site_fract_x
_atom_site_fract_y
_atom_site_fract_z
Si Si1 0.500000 0.839167 0.500000
Si Si2 0.894732 0.214115 0.627584
Si Si3 0.705841 0.908629 0.992592
Si Si4 0.834911 0.168454 0.322119
O O1 0.473514 0.781307 0.575769
O O2 0.367113 0.892214 0.493893
O O3 0.750000 0.250000 0.654954
O O4 0.857305 0.145167 0.563385
O O5 0.004714 0.184213 0.692544
O O6 0.663660 0.877521 0.905340
O O7 0.672648 0.000000 0.000000
O O8 0.750000 0.128501 0.250000
O O9 0.750000 0.250000 0.334425
#
# Coordination Sequence:
#
# PCOD9326018 Si02
#       4
#     8  16  16  16
#     4  10  17  36  61  92 122 158 228 258 305 362
#     4  10  19  36  64  92 124 159 224 264 298 376
#     4  11  21  35  65  96 126 165 218 264 313 375
#     4  11  21  38  63  92 128 171 209 259 326 384
#
# _framework density 20.27243
#
# number of rings (size 3 to 8) (size 9 to 14) (size 15 to 20)
#    0.000    1.429    5.714    1.286    0.000    2.286 
#    0.000    2.857   12.571    0.000    0.000    0.000 
#    0.000    0.000    0.000    0.000    0.000    0.000 
#
# Total GULP energy -78146.810687 kJ/mol
# GULP energy per Si atom -5581.915049 kJ/mol
# Density = 2.022629 g / cm^3
# Si number density = 20.272430 Si / 1000 Ang^3
#
#
#
# Elastic Constant Matrix: (Units=GPa)
#
#
# Indices 1 2 3 4 5 6 
#
# 1 184.2856 17.8122 51.9765 0.0000 0.0000 0.0000
# 2 17.8122 105.4331 31.1658 0.0000 0.0000 0.0000
# 3 51.9765 31.1658 72.0805 0.0000 0.0000 0.0000
# 4 0.0000 0.0000 0.0000 16.0496 0.0000 0.0000
# 5 0.0000 0.0000 0.0000 0.0000 -2.8597 0.0000
# 6 0.0000 0.0000 0.0000 0.0000 0.0000 7.8760
#
#
#
# Elastic Compliance Matrix: (Units=1/GPa)
#
#
# Indices 1 2 3 4 5 6 
#
# 1 0.006823 0.000346 -0.005069 0.000000 0.000000 0.000000
# 2 0.000346 0.010892 -0.004959 0.000000 0.000000 0.000000
# 3 -0.005069 -0.004959 0.019673 0.000000 0.000000 0.000000
# 4 0.000000 0.000000 0.000000 0.062307 0.000000 0.000000
# 5 0.000000 0.000000 0.000000 0.000000 -0.349691 0.000000
# 6 0.000000 0.000000 0.000000 0.000000 0.000000 0.126968
#
#
# Mechanical properties :
#
#
# Convention : Reuss Voigt Hill
#
# Bulk Modulus (GPa) = 55.48455 62.63424 59.05940
# Shear Modulus (GPa) = -51.20027 21.60282 -14.79872
#
# Velocity S-wave (km/s) = -5.03100 3.26793 -2.70477
# Velocity P-wave (km/s) = 2.51377 6.72328 4.40928
#
# Compressibility (1/GPa) = 0.01802303
#
# Stress axis : x y z
#
# Youngs Moduli (GPa) = 146.56955 91.80984 50.83140
#
# Poissons Ratio (x) = -0.03175 0.25768
# Poissons Ratio (y) = -0.05069 0.25206
# Poissons Ratio (z) = 0.74301 0.45527
#
# Static dielectric constant tensor:
#      x y z
#    x 1.776200 0.000000 0.000000 
#    y 0.000000 1.690070 0.000000 
#    z 0.000000 0.000000 1.772810 
# 
# From -- ./inp_files/10847.got.cif
#   From: 2010.05.17/outbox.cif.g08.bks.cpg/sg22_6_cif.got.tgz:10847.got - 2010.06.03 23:40:54.
