data_PCOD9326887
_publ_section_title
;
Structure prediction by ZEFSAII (Michael W. Deem and Ramdas Pophale) SiO2 
 PCOD9326887
Probable space group: F 2 2 2
;
_chemical_formula_sum "Si O2"
_cell_formula_units_Z 96
_cell_length_a 14.914062
_cell_length_b 15.843197
_cell_length_c 20.676117
_cell_angle_alpha 90.000000
_cell_angle_beta 90.000000
_cell_angle_gamma 90.000000
_cell_volume 4885.485714
_symmetry_space_group_name_H-M "F 2 2 2"
_symmetry_group_IT_number 22
_symmetry_cell_setting 'orthorhombic'
loop_
_space_group_symop_operation_xyz
x,y,z
-x,-y,z
x,-y,-z
-x,y,-z
x,1/2+y,1/2+z
-x,1/2-y,1/2+z
x,1/2-y,1/2-z
-x,1/2+y,1/2-z
1/2+x,y,1/2+z
1/2-x,-y,1/2+z
1/2+x,-y,1/2-z
1/2-x,y,1/2-z
1/2+x,1/2+y,z
1/2-x,1/2-y,z
1/2+x,1/2-y,-z
1/2-x,1/2+y,-z
loop_
_atom_site_type_symbol
_atom_site_label
_atom_site_fract_x
_atom_site_fract_y
_atom_site_fract_z
Si Si1 0.758682 0.480126 0.824654
Si Si2 0.932512 0.757112 0.613692
Si Si3 0.302508 0.914902 0.964364
Si Si4 0.932848 0.933021 0.843502
Si Si5 0.250000 0.750000 0.035537
Si Si6 0.500000 0.355068 0.500000
Si Si7 0.939248 0.423000 0.192987
O O1 0.750000 0.443993 0.750000
O O2 0.788340 0.423701 0.886666
O O3 0.666381 0.527062 0.842824
O O4 0.837598 0.548437 0.818534
O O5 0.943095 0.659857 0.629074
O O6 0.834547 0.762621 0.581918
O O7 0.998562 0.792460 0.560124
O O8 0.946293 0.827634 0.668477
O O9 0.406836 0.904895 0.988641
O O10 0.249696 0.833538 0.991220
O O11 0.269531 0.000000 0.000000
O O12 0.959407 0.922383 0.768491
O O13 0.000000 0.000000 0.874801
O O14 0.000000 0.500000 0.163551
#
# Coordination Sequence:
#
# PCOD9326887 Si02
#       7
#    16  16  16  16   8   8  16
#     4  10  21  38  61  88 119 159 205 250 304 370
#     4  11  20  37  56  81 116 148 188 249 298 349
#     4  11  21  39  61  86 122 156 195 255 310 356
#     4  10  22  37  56  85 119 158 196 233 294 371
#     4  10  24  36  56  88 110 144 202 242 294 368
#     4  10  23  34  57  90 112 150 207 244 299 370
#     4  10  20  36  61  88 112 145 196 251 305 360
#
# _framework density 19.650043
#
# number of rings (size 3 to 8) (size 9 to 14) (size 15 to 20)
#    0.000    1.667    0.000    5.750    0.000    2.667 
#    0.000    5.833    0.000    0.000    0.000    0.000 
#    0.000    0.000    0.000    0.000    0.000    0.000 
#
# Total GULP energy -133702.110319 kJ/mol
# GULP energy per Si atom -5570.921263 kJ/mol
# Density = 1.960532 g / cm^3
# Si number density = 19.650043 Si / 1000 Ang^3
#
#
#
# Elastic Constant Matrix: (Units=GPa)
#
#
# Indices 1 2 3 4 5 6 
#
# 1 42.4244 33.4961 10.3880 0.0000 0.0000 0.0000
# 2 33.4961 145.9887 51.4911 0.0000 0.0000 0.0000
# 3 10.3880 51.4911 76.6011 0.0000 0.0000 0.0000
# 4 0.0000 0.0000 0.0000 43.4422 0.0000 0.0000
# 5 0.0000 0.0000 0.0000 0.0000 14.4779 0.0000
# 6 0.0000 0.0000 0.0000 0.0000 0.0000 15.6712
#
#
#
# Elastic Compliance Matrix: (Units=1/GPa)
#
#
# Indices 1 2 3 4 5 6 
#
# 1 0.028815 -0.006859 0.000703 0.000000 0.000000 0.000000
# 2 -0.006859 0.010611 -0.006203 0.000000 0.000000 0.000000
# 3 0.000703 -0.006203 0.017129 0.000000 0.000000 0.000000
# 4 0.000000 0.000000 0.000000 0.023019 0.000000 0.000000
# 5 0.000000 0.000000 0.000000 0.000000 0.069071 0.000000
# 6 0.000000 0.000000 0.000000 0.000000 0.000000 0.063811
#
#
# Mechanical properties :
#
#
# Convention : Reuss Voigt Hill
#
# Bulk Modulus (GPa) = 31.40970 50.64048 41.02509
# Shear Modulus (GPa) = 20.17865 26.02753 23.10309
#
# Velocity S-wave (km/s) = 3.20801 3.64339 3.43261
# Velocity P-wave (km/s) = 5.45353 6.59744 6.05257
#
# Compressibility (1/GPa) = 0.03183730
#
# Stress axis : x y z
#
# Youngs Moduli (GPa) = 34.70419 94.23790 58.38132
#
# Poissons Ratio (x) = 0.64642 -0.04106
# Poissons Ratio (y) = 0.23805 0.36213
# Poissons Ratio (z) = -0.02441 0.58454
#
# Static dielectric constant tensor:
#      x y z
#    x 1.725050 0.000000 0.000000 
#    y 0.000000 1.714790 0.000000 
#    z 0.000000 0.000000 1.892860 
# 
# From -- ./inp_files/29401.got.cif
#   From: 2010.05.17/outbox.cif.g08.bks.cpg/sg22_15_cif.got.tgz:29401.got - 2010.06.03 23:40:54.
