data_PCOD9326612
_publ_section_title
;
Structure prediction by ZEFSAII (Michael W. Deem and Ramdas Pophale) SiO2 
 PCOD9326612
Probable space group: F 2 2 2
;
_chemical_formula_sum "Si O2"
_cell_formula_units_Z 76
_cell_length_a 13.156619
_cell_length_b 19.877144
_cell_length_c 13.252771
_cell_angle_alpha 90.000000
_cell_angle_beta 90.000000
_cell_angle_gamma 90.000000
_cell_volume 3465.811799
_symmetry_space_group_name_H-M "F 2 2 2"
_symmetry_group_IT_number 22
_symmetry_cell_setting 'orthorhombic'
loop_
_space_group_symop_operation_xyz
x,y,z
-x,-y,z
x,-y,-z
-x,y,-z
x,1/2+y,1/2+z
-x,1/2-y,1/2+z
x,1/2-y,1/2-z
-x,1/2+y,1/2-z
1/2+x,y,1/2+z
1/2-x,-y,1/2+z
1/2+x,-y,1/2-z
1/2-x,y,1/2-z
1/2+x,1/2+y,z
1/2-x,1/2-y,z
1/2+x,1/2-y,-z
1/2-x,1/2+y,-z
loop_
_atom_site_type_symbol
_atom_site_label
_atom_site_fract_x
_atom_site_fract_y
_atom_site_fract_z
Si Si1 0.750000 0.750000 0.250000
Si Si2 0.015077 0.625813 0.887405
Si Si3 0.240092 0.152517 0.409622
Si Si4 0.500000 0.500000 0.755233
Si Si5 0.300171 0.500418 0.884704
Si Si6 0.791643 0.642504 0.860436
O O1 0.699302 0.801050 0.331181
O O2 0.022247 0.565086 0.810684
O O3 0.909583 0.663159 0.864576
O O4 0.120126 0.665919 0.890781
O O5 0.000000 0.597075 0.000000
O O6 0.256096 0.075326 0.375631
O O7 0.257990 0.162884 0.530357
O O8 0.399677 0.487460 0.820210
O O9 0.221335 0.439468 0.866261
O O10 0.333263 0.500000 0.000000
O O11 0.750000 0.662872 0.750000
#
# Coordination Sequence:
#
# PCOD9326612 Si02
#       6
#     4  16  16   8  16  16
#     4  12  24  44  66  84 118 168 216 252 308 364
#     4  10  20  32  55  86 119 156 201 250 303 371
#     4  10  23  39  62  87 124 162 215 259 305 377
#     4  12  18  28  52  84 130 164 194 242 312 384
#     4  10  21  34  54  91 126 161 197 255 322 377
#     4  10  19  38  63  91 126 156 199 258 328 380
#
# _framework density 21.928485999999999
#
# number of rings (size 3 to 8) (size 9 to 14) (size 15 to 20)
#    0.000    1.684    2.105    3.158    1.474    3.368 
#    0.000    0.526   13.895    0.000    0.000    0.000 
#    0.000    0.000    0.000    0.000    0.000    0.000 
#
# Total GULP energy -105923.837107 kJ/mol
# GULP energy per Si atom -5574.938795 kJ/mol
# Density = 2.187858 g / cm^3
# Si number density = 21.928486 Si / 1000 Ang^3
#
#
#
# Elastic Constant Matrix: (Units=GPa)
#
#
# Indices 1 2 3 4 5 6 
#
# 1 83.7165 7.5923 43.5334 0.0000 0.0000 0.0000
# 2 7.5923 71.6077 31.7214 0.0000 0.0000 0.0000
# 3 43.5334 31.7214 191.2590 0.0000 0.0000 0.0000
# 4 0.0000 0.0000 0.0000 28.4267 0.0000 0.0000
# 5 0.0000 0.0000 0.0000 0.0000 37.7219 0.0000
# 6 0.0000 0.0000 0.0000 0.0000 0.0000 6.2368
#
#
#
# Elastic Compliance Matrix: (Units=1/GPa)
#
#
# Indices 1 2 3 4 5 6 
#
# 1 0.013549 -0.000076 -0.003071 0.000000 0.000000 0.000000
# 2 -0.000076 0.015073 -0.002483 0.000000 0.000000 0.000000
# 3 -0.003071 -0.002483 0.006339 0.000000 0.000000 0.000000
# 4 0.000000 0.000000 0.000000 0.035178 0.000000 0.000000
# 5 0.000000 0.000000 0.000000 0.000000 0.026510 0.000000
# 6 0.000000 0.000000 0.000000 0.000000 0.000000 0.160339
#
#
# Mechanical properties :
#
#
# Convention : Reuss Voigt Hill
#
# Bulk Modulus (GPa) = 42.19175 56.91972 49.55573
# Shear Modulus (GPa) = 18.10618 32.05949 25.08284
#
# Velocity S-wave (km/s) = 2.87660 3.82776 3.38575
# Velocity P-wave (km/s) = 5.50595 6.74900 6.15892
#
# Compressibility (1/GPa) = 0.02370132
#
# Stress axis : x y z
#
# Youngs Moduli (GPa) = 73.80559 66.34464 157.74467
#
# Poissons Ratio (x) = 0.00504 0.48449
# Poissons Ratio (y) = 0.00561 0.39162
# Poissons Ratio (z) = 0.22668 0.16471
#
# Static dielectric constant tensor:
#      x y z
#    x 1.853360 0.000000 0.000000 
#    y 0.000000 1.828130 0.000000 
#    z 0.000000 0.000000 1.849180 
# 
# From -- ./inp_files/29482.got.cif
#   From: 2010.05.17/outbox.cif.g08.bks.cpg/sg22_15_cif.got.tgz:29482.got - 2010.06.03 23:40:54.
