data_PCOD9326646
_publ_section_title
;
Structure prediction by ZEFSAII (Michael W. Deem and Ramdas Pophale) SiO2 
 PCOD9326646
Probable space group: F 2 2 2
;
_chemical_formula_sum "Si O2"
_cell_formula_units_Z 116
_cell_length_a 17.559461
_cell_length_b 29.317563
_cell_length_c 11.459436
_cell_angle_alpha 90.000000
_cell_angle_beta 90.000000
_cell_angle_gamma 90.000000
_cell_volume 5899.324576
_symmetry_space_group_name_H-M "F 2 2 2"
_symmetry_group_IT_number 22
_symmetry_cell_setting 'orthorhombic'
loop_
_space_group_symop_operation_xyz
x,y,z
-x,-y,z
x,-y,-z
-x,y,-z
x,1/2+y,1/2+z
-x,1/2-y,1/2+z
x,1/2-y,1/2-z
-x,1/2+y,1/2-z
1/2+x,y,1/2+z
1/2-x,-y,1/2+z
1/2+x,-y,1/2-z
1/2-x,y,1/2-z
1/2+x,1/2+y,z
1/2-x,1/2-y,z
1/2+x,1/2-y,-z
1/2-x,1/2+y,-z
loop_
_atom_site_type_symbol
_atom_site_label
_atom_site_fract_x
_atom_site_fract_y
_atom_site_fract_z
Si Si1 0.405754 0.895560 0.766613
Si Si2 0.080818 0.877337 0.311741
Si Si3 0.250000 0.750000 0.250000
Si Si4 0.664656 0.203297 0.797086
Si Si5 0.410564 0.445940 0.024818
Si Si6 0.323892 0.815439 0.063246
Si Si7 0.702647 0.609986 0.862286
Si Si8 0.907428 0.448380 0.001459
O O1 0.495909 0.886909 0.775726
O O2 0.370460 0.845188 0.759489
O O3 0.392860 0.928366 0.655797
O O4 0.381713 0.920460 0.887335
O O5 0.095072 0.838331 0.406509
O O6 0.133888 0.864021 0.203859
O O7 0.110321 0.922639 0.378665
O O8 0.300230 0.780479 0.163319
O O9 0.626958 0.250000 0.750000
O O10 0.750000 0.202553 0.750000
O O11 0.670534 0.205354 0.936414
O O12 0.408336 0.500000 0.000000
O O13 0.500000 0.432183 0.000000
O O14 0.344565 0.424050 0.943761
O O15 0.259286 0.855545 0.070876
O O16 0.750000 0.591289 0.750000
O O17 0.879031 0.500000 0.000000
O O18 0.000000 0.449399 0.000000
#
# Coordination Sequence:
#
# PCOD9326646 Si02
#       8
#    16  16   4  16  16  16  16  16
#     4  11  22  40  67  94 131 168 214 268 333 385
#     4  10  19  39  64  93 126 160 208 266 325 383
#     4  12  20  36  62  96 112 164 218 258 332 400
#     4  11  24  44  65  87 123 173 223 272 331 406
#     4  11  24  39  64  99 136 177 219 270 333 399
#     4  11  22  40  65  90 123 166 214 274 331 396
#     4  10  21  42  63  87 128 171 215 266 326 386
#     4   9  19  32  61  94 124 163 204 251 310 382
#
# _framework density 19.663267000000001
#
# number of rings (size 3 to 8) (size 9 to 14) (size 15 to 20)
#    0.000    1.517    4.828    1.655    1.931    1.103 
#    1.241    4.828    0.000    0.000    0.000    0.000 
#    0.000    0.000    0.000    0.000    0.000    0.000 
#
# Total GULP energy -161624.120832 kJ/mol
# GULP energy per Si atom -5573.245546 kJ/mol
# Density = 1.961851 g / cm^3
# Si number density = 19.663267 Si / 1000 Ang^3
#
#
#
# Elastic Constant Matrix: (Units=GPa)
#
#
# Indices 1 2 3 4 5 6 
#
# 1 56.0081 34.7417 35.9569 0.0000 0.0000 0.0000
# 2 34.7417 136.6211 57.7700 0.0000 0.0000 0.0000
# 3 35.9569 57.7700 121.7385 0.0000 0.0000 0.0000
# 4 0.0000 0.0000 0.0000 40.2129 0.0000 0.0000
# 5 0.0000 0.0000 0.0000 0.0000 31.3317 0.0000
# 6 0.0000 0.0000 0.0000 0.0000 0.0000 10.5896
#
#
#
# Elastic Compliance Matrix: (Units=1/GPa)
#
#
# Indices 1 2 3 4 5 6 
#
# 1 0.023515 -0.003807 -0.005139 0.000000 0.000000 0.000000
# 2 -0.003807 0.009773 -0.003513 0.000000 0.000000 0.000000
# 3 -0.005139 -0.003513 0.011399 0.000000 0.000000 0.000000
# 4 0.000000 0.000000 0.000000 0.024868 0.000000 0.000000
# 5 0.000000 0.000000 0.000000 0.000000 0.031917 0.000000
# 6 0.000000 0.000000 0.000000 0.000000 0.000000 0.094432
#
#
# Mechanical properties :
#
#
# Convention : Reuss Voigt Hill
#
# Bulk Modulus (GPa) = 50.58311 63.47833 57.03072
# Shear Modulus (GPa) = 21.98653 28.82011 25.40332
#
# Velocity S-wave (km/s) = 3.34751 3.83258 3.59822
# Velocity P-wave (km/s) = 6.38135 7.20678 6.80659
#
# Compressibility (1/GPa) = 0.01976944
#
# Stress axis : x y z
#
# Youngs Moduli (GPa) = 42.52592 102.32095 87.72332
#
# Poissons Ratio (x) = 0.38950 0.45081
# Poissons Ratio (y) = 0.16188 0.30821
# Poissons Ratio (z) = 0.21854 0.35950
#
# Static dielectric constant tensor:
#      x y z
#    x 1.710860 0.000000 0.000000 
#    y 0.000000 1.724320 0.000000 
#    z 0.000000 0.000000 1.741180 
# 
# From -- ./inp_files/21834.got.cif
#   From: 2010.05.17/outbox.cif.g08.bks.cpg/sg22_11_cif.got.tgz:21834.got - 2010.06.03 23:40:54.
