data_PCOD9326731
_publ_section_title
;
Structure prediction by ZEFSAII (Michael W. Deem and Ramdas Pophale) SiO2 
 PCOD9326731
Probable space group: F 2 2 2
;
_chemical_formula_sum "Si O2"
_cell_formula_units_Z 120
_cell_length_a 12.762120
_cell_length_b 22.679473
_cell_length_c 25.040621
_cell_angle_alpha 90.000000
_cell_angle_beta 90.000000
_cell_angle_gamma 90.000000
_cell_volume 7247.711166
_symmetry_space_group_name_H-M "F 2 2 2"
_symmetry_group_IT_number 22
_symmetry_cell_setting 'orthorhombic'
loop_
_space_group_symop_operation_xyz
x,y,z
-x,-y,z
x,-y,-z
-x,y,-z
x,1/2+y,1/2+z
-x,1/2-y,1/2+z
x,1/2-y,1/2-z
-x,1/2+y,1/2-z
1/2+x,y,1/2+z
1/2-x,-y,1/2+z
1/2+x,-y,1/2-z
1/2-x,y,1/2-z
1/2+x,1/2+y,z
1/2-x,1/2-y,z
1/2+x,1/2-y,-z
1/2-x,1/2+y,-z
loop_
_atom_site_type_symbol
_atom_site_label
_atom_site_fract_x
_atom_site_fract_y
_atom_site_fract_z
Si Si1 0.591372 0.583902 0.256642
Si Si2 0.114502 0.776406 0.507329
Si Si3 0.869897 0.934095 0.070280
Si Si4 0.257597 0.873538 0.664086
Si Si5 0.750000 0.250000 0.892242
Si Si6 0.684673 0.846929 0.526679
Si Si7 0.864359 0.447633 0.269624
Si Si8 0.109388 0.436508 0.603504
O O1 0.652047 0.614897 0.207775
O O2 0.647274 0.609237 0.309168
O O3 0.466042 0.587892 0.251497
O O4 0.620299 0.514681 0.250975
O O5 0.152576 0.759869 0.567104
O O6 0.200107 0.822668 0.486434
O O7 0.119060 0.713748 0.476265
O O8 0.000000 0.801222 0.500000
O O9 0.785086 0.913429 0.113380
O O10 0.986866 0.923152 0.093035
O O11 0.864067 0.005047 0.068727
O O12 0.853408 0.893905 0.018125
O O13 0.261272 0.807192 0.643602
O O14 0.673860 0.881216 0.581871
O O15 0.750000 0.427146 0.250000
O O16 0.872064 0.448972 0.334119
#
# Coordination Sequence:
#
# PCOD9326731 Si02
#       8
#    16  16  16  16   8  16  16  16
#     4  10  20  32  56  78 111 146 182 237 274 325
#     4  10  20  37  56  75 110 146 183 222 272 337
#     4  11  17  32  54  82 114 136 172 235 289 324
#     4  11  18  36  56  84 107 141 187 241 279 330
#     4  10  22  35  60  86 102 146 189 236 288 312
#     4  10  21  33  53  84 108 140 179 225 277 334
#     4  11  19  35  51  80 112 153 186 216 281 343
#     4  11  20  30  54  85 109 142 182 227 281 329
#
# _framework density 16.556950000000001
#
# number of rings (size 3 to 8) (size 9 to 14) (size 15 to 20)
#    0.000    1.600    6.667    2.400    0.000    2.133 
#    2.400    0.000    0.000    1.600    0.000    0.000 
#    0.000    0.000    0.000    0.000    0.000    0.000 
#
# Total GULP energy -167224.702133 kJ/mol
# GULP energy per Si atom -5574.156738 kJ/mol
# Density = 1.651927 g / cm^3
# Si number density = 16.556950 Si / 1000 Ang^3
#
#
#
# Elastic Constant Matrix: (Units=GPa)
#
#
# Indices 1 2 3 4 5 6 
#
# 1 115.8739 34.8788 24.3666 0.0000 0.0000 0.0000
# 2 34.8788 81.3438 23.8014 0.0000 0.0000 0.0000
# 3 24.3666 23.8014 47.1298 0.0000 0.0000 0.0000
# 4 0.0000 0.0000 0.0000 5.9260 0.0000 0.0000
# 5 0.0000 0.0000 0.0000 0.0000 -1.1438 0.0000
# 6 0.0000 0.0000 0.0000 0.0000 0.0000 4.5398
#
#
#
# Elastic Compliance Matrix: (Units=1/GPa)
#
#
# Indices 1 2 3 4 5 6 
#
# 1 0.010425 -0.003395 -0.003675 0.000000 0.000000 0.000000
# 2 -0.003395 0.015530 -0.006088 0.000000 0.000000 0.000000
# 3 -0.003675 -0.006088 0.026193 0.000000 0.000000 0.000000
# 4 0.000000 0.000000 0.000000 0.168747 0.000000 0.000000
# 5 0.000000 0.000000 0.000000 0.000000 -0.874307 0.000000
# 6 0.000000 0.000000 0.000000 0.000000 0.000000 0.220272
#
#
# Mechanical properties :
#
#
# Convention : Reuss Voigt Hill
#
# Bulk Modulus (GPa) = 38.71187 45.60456 42.15822
# Shear Modulus (GPa) = -12.55608 12.61781 0.03086
#
# Velocity S-wave (km/s) = -2.75682 2.76358 0.13668
# Velocity P-wave (km/s) = 3.64670 6.14712 5.05398
#
# Compressibility (1/GPa) = 0.02583187
#
# Stress axis : x y z
#
# Youngs Moduli (GPa) = 95.92582 64.38982 38.17841
#
# Poissons Ratio (x) = 0.21857 0.14032
# Poissons Ratio (y) = 0.32562 0.23244
# Poissons Ratio (z) = 0.35257 0.39201
#
# Static dielectric constant tensor:
#      x y z
#    x 1.850950 0.000000 0.000000 
#    y 0.000000 1.558700 0.000000 
#    z 0.000000 0.000000 1.576570 
# 
# From -- ./inp_files/52791.got.cif
#   From: 2010.05.17/outbox.cif.g08.bks.cpg/sg22_27_cif.got.tgz:52791.got - 2010.06.03 23:40:54.
