data_PCOD9326848
_publ_section_title
;
Structure prediction by ZEFSAII (Michael W. Deem and Ramdas Pophale) SiO2 
 PCOD9326848
Probable space group: F 2 2 2
;
_chemical_formula_sum "Si O2"
_cell_formula_units_Z 68
_cell_length_a 7.631741
_cell_length_b 27.948600
_cell_length_c 13.530810
_cell_angle_alpha 90.000000
_cell_angle_beta 90.000000
_cell_angle_gamma 90.000000
_cell_volume 2886.074097
_symmetry_space_group_name_H-M "F 2 2 2"
_symmetry_group_IT_number 22
_symmetry_cell_setting 'orthorhombic'
loop_
_space_group_symop_operation_xyz
x,y,z
-x,-y,z
x,-y,-z
-x,y,-z
x,1/2+y,1/2+z
-x,1/2-y,1/2+z
x,1/2-y,1/2-z
-x,1/2+y,1/2-z
1/2+x,y,1/2+z
1/2-x,-y,1/2+z
1/2+x,-y,1/2-z
1/2-x,y,1/2-z
1/2+x,1/2+y,z
1/2-x,1/2-y,z
1/2+x,1/2-y,-z
1/2-x,1/2+y,-z
loop_
_atom_site_type_symbol
_atom_site_label
_atom_site_fract_x
_atom_site_fract_y
_atom_site_fract_z
Si Si1 0.139639 0.330603 0.108883
Si Si2 0.250000 0.750000 0.750000
Si Si3 0.250000 0.750000 0.250000
Si Si4 0.000000 0.000000 0.000000
Si Si5 0.750000 0.414473 0.750000
Si Si6 0.219241 0.670076 0.406341
Si Si7 0.391240 0.933832 0.334642
O O1 0.143339 0.285491 0.181069
O O2 0.198034 0.379130 0.161199
O O3 0.931284 0.337319 0.093912
O O4 0.285517 0.319672 0.023668
O O5 0.169440 0.712099 0.330248
O O6 0.881384 0.966588 0.930828
O O7 0.581281 0.442398 0.786575
O O8 0.129608 0.621376 0.370108
O O9 0.250000 0.942245 0.250000
#
# Coordination Sequence:
#
# PCOD9326848 Si02
#       7
#    16   4   4   4   8  16  16
#     4  10  21  37  64 100 147 210 255 320 382 462
#     4  10  20  36  56 108 160 194 278 310 370 472
#     4  12  20  36  66 108 152 216 250 310 388 478
#     4  12  32  52  86 122 156 214 280 328 438 464
#     4  11  22  45  77 104 146 200 251 319 410 463
#     4  11  22  41  67 105 155 207 263 314 393 468
#     4  12  26  53  79 117 157 203 265 342 395 492
#
# _framework density 23.561416999999999
#
# number of rings (size 3 to 8) (size 9 to 14) (size 15 to 20)
#    0.000    0.941    3.529    2.824    1.647    1.882 
#    0.000    3.529    0.000    0.000    0.000    0.000 
#    0.000    0.000    0.000    0.000    0.000    0.000 
#
# Total GULP energy -94997.530434 kJ/mol
# GULP energy per Si atom -5588.090026 kJ/mol
# Density = 2.350779 g / cm^3
# Si number density = 23.561417 Si / 1000 Ang^3
#
#
#
# Elastic Constant Matrix: (Units=GPa)
#
#
# Indices 1 2 3 4 5 6 
#
# 1 97.8881 21.3123 20.4351 0.0000 0.0000 0.0000
# 2 21.3123 132.2118 61.4840 0.0000 0.0000 0.0000
# 3 20.4351 61.4840 145.0834 0.0000 0.0000 0.0000
# 4 0.0000 0.0000 0.0000 38.2430 0.0000 0.0000
# 5 0.0000 0.0000 0.0000 0.0000 27.6020 0.0000
# 6 0.0000 0.0000 0.0000 0.0000 0.0000 25.2756
#
#
#
# Elastic Compliance Matrix: (Units=1/GPa)
#
#
# Indices 1 2 3 4 5 6 
#
# 1 0.010695 -0.001275 -0.000966 0.000000 0.000000 0.000000
# 2 -0.001275 0.009572 -0.003877 0.000000 0.000000 0.000000
# 3 -0.000966 -0.003877 0.008672 0.000000 0.000000 0.000000
# 4 0.000000 0.000000 0.000000 0.026149 0.000000 0.000000
# 5 0.000000 0.000000 0.000000 0.000000 0.036229 0.000000
# 6 0.000000 0.000000 0.000000 0.000000 0.000000 0.039564
#
#
# Mechanical properties :
#
#
# Convention : Reuss Voigt Hill
#
# Bulk Modulus (GPa) = 59.86936 64.62732 62.24834
# Shear Modulus (GPa) = 33.62846 36.35426 34.99136
#
# Velocity S-wave (km/s) = 3.78202 3.93231 3.85790
# Velocity P-wave (km/s) = 6.67358 6.93587 6.80599
#
# Compressibility (1/GPa) = 0.01670303
#
# Stress axis : x y z
#
# Youngs Moduli (GPa) = 93.50180 104.47098 115.31818
#
# Poissons Ratio (x) = 0.13317 0.11142
# Poissons Ratio (y) = 0.11919 0.44708
# Poissons Ratio (z) = 0.09034 0.40503
#
# Static dielectric constant tensor:
#      x y z
#    x 1.914540 0.000000 0.000000 
#    y 0.000000 1.825140 0.000000 
#    z 0.000000 0.000000 2.130910 
# 
# From -- ./inp_files/27029.got.cif
#   From: 2010.05.17/outbox.cif.g08.bks.cpg/sg22_14_cif.got.tgz:27029.got - 2010.06.03 23:40:54.
