data_PCOD9326798
_publ_section_title
;
Structure prediction by ZEFSAII (Michael W. Deem and Ramdas Pophale) SiO2 
 PCOD9326798
Probable space group: F 2 2 2
;
_chemical_formula_sum "Si O2"
_cell_formula_units_Z 64
_cell_length_a 23.410825
_cell_length_b 15.801739
_cell_length_c 8.205778
_cell_angle_alpha 90.000000
_cell_angle_beta 90.000000
_cell_angle_gamma 90.000000
_cell_volume 3035.577786
_symmetry_space_group_name_H-M "F 2 2 2"
_symmetry_group_IT_number 22
_symmetry_cell_setting 'orthorhombic'
loop_
_space_group_symop_operation_xyz
x,y,z
-x,-y,z
x,-y,-z
-x,y,-z
x,1/2+y,1/2+z
-x,1/2-y,1/2+z
x,1/2-y,1/2-z
-x,1/2+y,1/2-z
1/2+x,y,1/2+z
1/2-x,-y,1/2+z
1/2+x,-y,1/2-z
1/2-x,y,1/2-z
1/2+x,1/2+y,z
1/2-x,1/2-y,z
1/2+x,1/2-y,-z
1/2-x,1/2+y,-z
loop_
_atom_site_type_symbol
_atom_site_label
_atom_site_fract_x
_atom_site_fract_y
_atom_site_fract_z
Si Si1 0.311140 0.150398 0.799176
Si Si2 0.530473 0.411568 0.767270
Si Si3 0.876539 0.693285 0.092665
Si Si4 0.579913 0.353348 0.099000
O O1 0.308707 0.250000 0.750000
O O2 0.250000 0.113087 0.750000
O O3 0.365316 0.114606 0.699428
O O4 0.325814 0.150486 0.990649
O O5 0.500000 0.500000 0.729696
O O6 0.576297 0.375166 0.642933
O O7 0.476453 0.350207 0.791643
O O8 0.562853 0.409582 0.942016
O O9 0.859326 0.750000 0.250000
O O10 0.905037 0.761902 0.972984
#
# Coordination Sequence:
#
# PCOD9326798 Si02
#       4
#    16  16  16  16
#     4   9  18  34  54  79 111 149 194 244 290 340
#     4  10  20  35  55  82 116 149 187 238 290 345
#     4   9  19  33  54  86 118 150 191 239 292 348
#     4   9  18  32  54  79 111 153 188 230 289 350
#
# _framework density 21.083302
#
# number of rings (size 3 to 8) (size 9 to 14) (size 15 to 20)
#    0.000    2.750    0.000    1.500    0.000   18.000 
#    0.000   25.000    0.000    6.000    0.000    0.000 
#    0.000    0.000    0.000    0.000    0.000    2.000 
#
# Total GULP energy -89255.831776 kJ/mol
# GULP energy per Si atom -5578.489486 kJ/mol
# Density = 2.103532 g / cm^3
# Si number density = 21.083302 Si / 1000 Ang^3
#
#
#
# Elastic Constant Matrix: (Units=GPa)
#
#
# Indices 1 2 3 4 5 6 
#
# 1 165.0941 18.6256 86.0053 0.0000 0.0000 0.0000
# 2 18.6256 53.1583 26.7976 0.0000 0.0000 0.0000
# 3 86.0053 26.7976 110.5200 0.0001 0.0000 0.0000
# 4 0.0000 0.0000 0.0001 13.0835 0.0000 0.0000
# 5 0.0000 0.0000 0.0000 0.0000 33.5774 0.0000
# 6 0.0000 0.0000 0.0000 0.0000 0.0000 -2.2049
#
#
#
# Elastic Compliance Matrix: (Units=1/GPa)
#
#
# Indices 1 2 3 4 5 6 
#
# 1 0.010198 0.000487 -0.008054 0.000000 0.000000 0.000000
# 2 0.000487 0.021455 -0.005581 0.000000 0.000000 0.000000
# 3 -0.008054 -0.005581 0.016669 0.000000 0.000000 0.000000
# 4 0.000000 0.000000 0.000000 0.076432 0.000000 0.000000
# 5 0.000000 0.000000 0.000000 0.000000 0.029782 0.000000
# 6 0.000000 0.000000 0.000000 0.000000 0.000000 -0.453529
#
#
# Mechanical properties :
#
#
# Convention : Reuss Voigt Hill
#
# Bulk Modulus (GPa) = 45.40231 65.73659 55.56945
# Shear Modulus (GPa) = -18.84262 22.04745 1.60241
#
# Velocity S-wave (km/s) = -2.99276 3.23728 0.87275
# Velocity P-wave (km/s) = 3.10472 6.72462 5.23736
#
# Compressibility (1/GPa) = 0.02202531
#
# Stress axis : x y z
#
# Youngs Moduli (GPa) = 98.05951 46.61014 59.99229
#
# Poissons Ratio (x) = -0.02270 0.48317
# Poissons Ratio (y) = -0.04775 0.33481
# Poissons Ratio (z) = 0.78976 0.26013
#
# Static dielectric constant tensor:
#      x y z
#    x 1.772230 0.000000 0.000000 
#    y 0.000000 1.803020 0.000000 
#    z 0.000000 0.000000 1.829090 
# 
# From -- ./inp_files/9774.got.cif
#   From: 2010.05.17/outbox.cif.g08.bks.cpg/sg22_5_cif.got.tgz:9774.got - 2010.06.03 23:40:54.
