data_PCOD9326448
_publ_section_title
;
Structure prediction by ZEFSAII (Michael W. Deem and Ramdas Pophale) SiO2 
 PCOD9326448
Probable space group: F 2 2 2
;
_chemical_formula_sum "Si O2"
_cell_formula_units_Z 104
_cell_length_a 26.519071
_cell_length_b 9.603664
_cell_length_c 19.145018
_cell_angle_alpha 90.000000
_cell_angle_beta 90.000000
_cell_angle_gamma 90.000000
_cell_volume 4875.857922
_symmetry_space_group_name_H-M "F 2 2 2"
_symmetry_group_IT_number 22
_symmetry_cell_setting 'orthorhombic'
loop_
_space_group_symop_operation_xyz
x,y,z
-x,-y,z
x,-y,-z
-x,y,-z
x,1/2+y,1/2+z
-x,1/2-y,1/2+z
x,1/2-y,1/2-z
-x,1/2+y,1/2-z
1/2+x,y,1/2+z
1/2-x,-y,1/2+z
1/2+x,-y,1/2-z
1/2-x,y,1/2-z
1/2+x,1/2+y,z
1/2-x,1/2-y,z
1/2+x,1/2-y,-z
1/2-x,1/2+y,-z
loop_
_atom_site_type_symbol
_atom_site_label
_atom_site_fract_x
_atom_site_fract_y
_atom_site_fract_z
Si Si1 0.043433 0.272966 0.954752
Si Si2 0.369697 0.086241 0.877892
Si Si3 0.617596 0.892013 0.251460
Si Si4 0.900146 0.000000 0.000000
Si Si5 0.759153 0.910020 0.566019
Si Si6 0.659749 0.404524 0.138861
Si Si7 0.509969 0.161847 0.685626
O O1 0.087236 0.378753 0.933969
O O2 0.065476 0.139524 0.997952
O O3 0.016187 0.216698 0.884181
O O4 0.000000 0.339275 0.000000
O O5 0.315611 0.049169 0.911502
O O6 0.357408 0.244313 0.851061
O O7 0.389492 0.969483 0.823304
O O8 0.649407 0.750000 0.250000
O O9 0.570210 0.839143 0.300243
O O10 0.642949 0.011448 0.295164
O O11 0.867018 0.971037 0.930407
O O12 0.750000 0.750000 0.544152
O O13 0.719151 0.922208 0.628044
O O14 0.744273 0.000000 0.500000
O O15 0.487829 0.250000 0.750000
O O16 0.500000 0.000000 0.692423
#
# Coordination Sequence:
#
# PCOD9326448 Si02
#       7
#    16  16  16   8  16  16  16
#     4  11  21  37  64  96 132 168 224 272 328 387
#     4  10  23  42  63  97 129 172 220 268 328 387
#     4  11  24  41  63  93 130 170 216 271 331 386
#     4  10  19  34  64 100 126 166 221 270 322 390
#     4  10  22  42  67  98 130 173 216 263 326 395
#     4  10  20  40  69  94 129 168 219 264 325 395
#     4  11  22  38  61  88 126 173 221 267 325 386
#
# _framework density 21.32958
#
# number of rings (size 3 to 8) (size 9 to 14) (size 15 to 20)
#    0.000    1.538    0.769    5.308    0.000    1.846 
#    5.538    3.077    0.000    0.000    0.000    0.000 
#    0.000    0.000    0.000    0.000    0.000    0.000 
#
# Total GULP energy -144929.863389 kJ/mol
# GULP energy per Si atom -5574.225515 kJ/mol
# Density = 2.128103 g / cm^3
# Si number density = 21.329580 Si / 1000 Ang^3
#
#
#
# Elastic Constant Matrix: (Units=GPa)
#
#
# Indices 1 2 3 4 5 6 
#
# 1 107.0296 9.1274 9.3064 0.0000 0.0000 0.0000
# 2 9.1274 53.5369 31.8354 0.0000 0.0000 0.0000
# 3 9.3064 31.8354 41.8835 0.0000 0.0000 0.0000
# 4 0.0000 0.0000 0.0000 -2.8698 0.0000 0.0000
# 5 0.0000 0.0000 0.0000 0.0000 15.8715 0.0000
# 6 0.0000 0.0000 0.0000 0.0000 0.0000 -1.0431
#
#
#
# Elastic Compliance Matrix: (Units=1/GPa)
#
#
# Indices 1 2 3 4 5 6 
#
# 1 0.009540 -0.000668 -0.001612 0.000000 0.000000 0.000000
# 2 -0.000668 0.034131 -0.025794 0.000000 0.000000 0.000000
# 3 -0.001612 -0.025794 0.043840 0.000000 0.000000 0.000000
# 4 0.000000 0.000000 0.000000 -0.348451 0.000000 0.000000
# 5 0.000000 0.000000 0.000000 0.000000 0.063006 0.000000
# 6 0.000000 0.000000 0.000000 0.000000 0.000000 -0.958706
#
#
# Mechanical properties :
#
#
# Convention : Reuss Voigt Hill
#
# Bulk Modulus (GPa) = 31.88508 33.66539 32.77523
# Shear Modulus (GPa) = -4.58701 12.53710 3.97505
#
# Velocity S-wave (km/s) = -1.46806 2.42705 1.36663
# Velocity P-wave (km/s) = 3.47960 4.86536 4.22962
#
# Compressibility (1/GPa) = 0.03136263
#
# Stress axis : x y z
#
# Youngs Moduli (GPa) = 104.81804 29.29880 22.81009
#
# Poissons Ratio (x) = 0.01957 0.03677
# Poissons Ratio (y) = 0.07000 0.58837
# Poissons Ratio (z) = 0.16899 0.75575
#
# Static dielectric constant tensor:
#      x y z
#    x 2.169150 0.000000 0.000000 
#    y 0.000000 2.086490 0.000000 
#    z 0.000000 0.000000 1.956210 
# 
# From -- ./inp_files/45811.got.cif
#   From: 2010.05.17/outbox.cif.g08.bks.cpg/sg22_23_cif.got.tgz:45811.got - 2010.06.03 23:40:54.
