data_PCOD9326044
_publ_section_title
;
Structure prediction by ZEFSAII (Michael W. Deem and Ramdas Pophale) SiO2 
 PCOD9326044
Probable space group: F 2 2 2
;
_chemical_formula_sum "Si O2"
_cell_formula_units_Z 128
_cell_length_a 22.301965
_cell_length_b 13.684432
_cell_length_c 23.031513
_cell_angle_alpha 90.000000
_cell_angle_beta 90.000000
_cell_angle_gamma 90.000000
_cell_volume 7028.981084
_symmetry_space_group_name_H-M "F 2 2 2"
_symmetry_group_IT_number 22
_symmetry_cell_setting 'orthorhombic'
loop_
_space_group_symop_operation_xyz
x,y,z
-x,-y,z
x,-y,-z
-x,y,-z
x,1/2+y,1/2+z
-x,1/2-y,1/2+z
x,1/2-y,1/2-z
-x,1/2+y,1/2-z
1/2+x,y,1/2+z
1/2-x,-y,1/2+z
1/2+x,-y,1/2-z
1/2-x,y,1/2-z
1/2+x,1/2+y,z
1/2-x,1/2-y,z
1/2+x,1/2-y,-z
1/2-x,1/2+y,-z
loop_
_atom_site_type_symbol
_atom_site_label
_atom_site_fract_x
_atom_site_fract_y
_atom_site_fract_z
Si Si1 0.655760 0.902505 0.849897
Si Si2 0.108496 0.730868 0.422928
Si Si3 0.141301 0.941818 0.220076
Si Si4 0.442441 0.433192 0.360684
Si Si5 0.022124 0.891001 0.152573
Si Si6 0.222153 0.855252 0.120567
Si Si7 0.916210 0.145444 0.762482
Si Si8 0.930058 0.611950 0.015227
O O1 0.621091 0.805953 0.870130
O O2 0.664847 0.899964 0.780839
O O3 0.715816 0.912426 0.888400
O O4 0.613109 0.993853 0.858043
O O5 0.051986 0.666569 0.401417
O O6 0.170150 0.667696 0.426381
O O7 0.099056 0.802227 0.477260
O O8 0.076041 0.901815 0.199839
O O9 0.187121 0.909991 0.171010
O O10 0.129848 0.058116 0.224213
O O11 0.500000 0.500000 0.373862
O O12 0.449149 0.385891 0.297582
O O13 0.428729 0.366960 0.416111
O O14 0.965394 0.845918 0.186380
O O15 0.000000 0.000000 0.135805
O O16 0.250000 0.750000 0.138581
O O17 0.887460 0.250000 0.750000
O O18 0.908528 0.500000 0.000000
O O19 0.000000 0.611934 0.000000
#
# Coordination Sequence:
#
# PCOD9326044 Si02
#       8
#    16  16  16  16  16  16  16  16
#     4  10  18  29  51  81 108 146 177 231 291 334
#     4  10  20  32  52  81 109 146 185 236 278 341
#     4   9  18  32  45  75 119 145 182 231 279 336
#     4  11  20  34  52  82 120 139 185 237 291 337
#     4   9  19  32  47  77 114 154 181 223 281 342
#     4   9  19  32  51  80 107 143 188 228 287 343
#     4  10  21  30  51  80 111 158 186 222 282 355
#     4  11  20  33  52  82 111 142 177 230 288 339
#
# _framework density 18.210321
#
# number of rings (size 3 to 8) (size 9 to 14) (size 15 to 20)
#    0.000    2.125    2.500    2.250    5.250    5.500 
#    0.000    0.000    0.000    6.375   16.250    1.750 
#    0.000    0.000    0.000    0.000    0.000    0.000 
#
# Total GULP energy -178178.021045 kJ/mol
# GULP energy per Si atom -5568.063158 kJ/mol
# Density = 1.816887 g / cm^3
# Si number density = 18.210321 Si / 1000 Ang^3
#
#
#
# Elastic Constant Matrix: (Units=GPa)
#
#
# Indices 1 2 3 4 5 6 
#
# 1 72.1247 25.6256 25.9548 0.0000 0.0000 0.0000
# 2 25.6256 50.5729 25.7077 0.0000 0.0000 0.0000
# 3 25.9548 25.7077 61.0598 0.0000 0.0000 0.0000
# 4 0.0000 0.0000 0.0000 30.3033 0.0000 0.0000
# 5 0.0000 0.0000 0.0000 0.0000 1.0885 0.0000
# 6 0.0000 0.0000 0.0000 0.0000 0.0000 19.7975
#
#
#
# Elastic Compliance Matrix: (Units=1/GPa)
#
#
# Indices 1 2 3 4 5 6 
#
# 1 0.017967 -0.006644 -0.004840 0.000000 0.000000 0.000000
# 2 -0.006644 0.027614 -0.008802 0.000000 0.000000 0.000000
# 3 -0.004840 -0.008802 0.022141 0.000000 0.000000 0.000000
# 4 0.000000 0.000000 0.000000 0.033000 0.000000 0.000000
# 5 0.000000 0.000000 0.000000 0.000000 0.918654 0.000000
# 6 0.000000 0.000000 0.000000 0.000000 0.000000 0.050512
#
#
# Mechanical properties :
#
#
# Convention : Reuss Voigt Hill
#
# Bulk Modulus (GPa) = 36.83240 37.59260 37.21250
# Shear Modulus (GPa) = 4.46624 17.33581 10.90102
#
# Velocity S-wave (km/s) = 1.56777 3.08876 2.44932
# Velocity P-wave (km/s) = 4.85255 5.78005 5.33649
#
# Compressibility (1/GPa) = 0.02715001
#
# Stress axis : x y z
#
# Youngs Moduli (GPa) = 55.65720 36.21321 45.16555
#
# Poissons Ratio (x) = 0.24059 0.21861
# Poissons Ratio (y) = 0.36977 0.39756
# Poissons Ratio (z) = 0.26939 0.31876
#
# Static dielectric constant tensor:
#      x y z
#    x 1.655560 0.000000 0.000000 
#    y 0.000000 1.686990 0.000000 
#    z 0.000000 0.000000 1.661830 
# 
# From -- ./inp_files/54247.got.cif
#   From: 2010.05.17/outbox.cif.g08.bks.cpg/sg22_28_cif.got.tgz:54247.got - 2010.06.03 23:40:54.
