data_PCOD9326317
_publ_section_title
;
Structure prediction by ZEFSAII (Michael W. Deem and Ramdas Pophale) SiO2 
 PCOD9326317
Probable space group: F 2 2 2
;
_chemical_formula_sum "Si O2"
_cell_formula_units_Z 112
_cell_length_a 25.116125
_cell_length_b 16.810167
_cell_length_c 14.041099
_cell_angle_alpha 90.000000
_cell_angle_beta 90.000000
_cell_angle_gamma 90.000000
_cell_volume 5928.239834
_symmetry_space_group_name_H-M "F 2 2 2"
_symmetry_group_IT_number 22
_symmetry_cell_setting 'orthorhombic'
loop_
_space_group_symop_operation_xyz
x,y,z
-x,-y,z
x,-y,-z
-x,y,-z
x,1/2+y,1/2+z
-x,1/2-y,1/2+z
x,1/2-y,1/2-z
-x,1/2+y,1/2-z
1/2+x,y,1/2+z
1/2-x,-y,1/2+z
1/2+x,-y,1/2-z
1/2-x,y,1/2-z
1/2+x,1/2+y,z
1/2-x,1/2-y,z
1/2+x,1/2-y,-z
1/2-x,1/2+y,-z
loop_
_atom_site_type_symbol
_atom_site_label
_atom_site_fract_x
_atom_site_fract_y
_atom_site_fract_z
Si Si1 0.254352 0.088599 0.108644
Si Si2 0.362620 0.132616 0.807873
Si Si3 0.349238 0.308701 0.890703
Si Si4 0.349237 0.808702 0.609298
Si Si5 0.862620 0.867384 0.307874
Si Si6 0.245648 0.588600 0.108645
Si Si7 0.939391 1.000000 0.386511
O O1 0.211587 0.159073 0.116175
O O2 0.303709 0.095828 0.179356
O O3 0.229646 1.000000 0.117759
O O4 0.276176 0.092945 1.000000
O O5 0.356462 0.216902 0.862014
O O6 0.376242 0.145248 0.696923
O O7 0.303708 0.095830 0.820644
O O8 0.406300 0.076456 0.853421
O O9 0.288413 0.340926 0.883825
O O10 0.366143 0.322571 0.000000
O O11 0.376242 0.854752 0.696924
O O12 0.356461 0.716902 0.637987
O O13 0.906301 0.923542 0.353422
O O14 0.940782 0.000000 0.500000
O O15 0.000000 0.000000 0.350565
#
# Coordination Sequence:
#
# PCOD9326317 Si02
#       7
#    16  16  16  16  16  16  16
#     4  10  19  31  53  86 123 160 195 231 278 344
#     4  11  21  37  61  83 116 160 195 238 292 339
#     4  10  22  36  54  87 123 156 192 229 280 354
#     4  10  22  36  54  87 123 156 192 229 280 354
#     4  11  21  37  61  83 116 160 195 238 292 339
#     4  10  19  31  53  86 123 160 195 231 278 344
#     4  11  24  42  66  91 111 141 196 256 294 329
#
# _framework density 18.892623
#
# number of rings (size 3 to 8) (size 9 to 14) (size 15 to 20)
#    0.000    1.571    1.429    4.286    2.000    5.714 
#    0.000    2.857    0.000    3.429    0.000    0.000 
#    0.000    0.000    0.000    0.000    0.000    0.000 
#
# Total GULP energy -156232.699965 kJ/mol
# GULP energy per Si atom -5579.739284 kJ/mol
# Density = 1.884962 g / cm^3
# Si number density = 18.892623 Si / 1000 Ang^3
#
#
#
# Elastic Constant Matrix: (Units=GPa)
#
#
# Indices 1 2 3 4 5 6 
#
# 1 81.6564 59.4871 29.4107 0.0000 0.0000 0.0000
# 2 59.4871 116.5542 48.6367 0.0000 0.0000 0.0000
# 3 29.4107 48.6367 148.4195 0.0000 0.0000 0.0000
# 4 0.0000 0.0000 0.0000 28.9893 0.0000 0.0000
# 5 0.0000 0.0000 0.0000 0.0000 16.3588 0.0000
# 6 0.0000 0.0000 0.0000 0.0000 0.0000 19.7144
#
#
#
# Elastic Compliance Matrix: (Units=1/GPa)
#
#
# Indices 1 2 3 4 5 6 
#
# 1 0.019558 -0.009690 -0.000700 0.000000 0.000000 0.000000
# 2 -0.009690 0.014739 -0.002910 0.000000 0.000000 0.000000
# 3 -0.000700 -0.002910 0.007830 0.000000 0.000000 0.000000
# 4 0.000000 0.000000 0.000000 0.034496 0.000000 0.000000
# 5 0.000000 0.000000 0.000000 0.000000 0.061129 0.000000
# 6 0.000000 0.000000 0.000000 0.000000 0.000000 0.050724
#
#
# Mechanical properties :
#
#
# Convention : Reuss Voigt Hill
#
# Bulk Modulus (GPa) = 64.40272 69.07770 66.74021
# Shear Modulus (GPa) = 22.70131 26.95220 24.82675
#
# Velocity S-wave (km/s) = 3.47017 3.78113 3.62898
# Velocity P-wave (km/s) = 7.08653 7.46360 7.27751
#
# Compressibility (1/GPa) = 0.01552729
#
# Stress axis : x y z
#
# Youngs Moduli (GPa) = 51.13110 67.84541 127.71373
#
# Poissons Ratio (x) = 0.65740 0.08943
# Poissons Ratio (y) = 0.49544 0.37164
# Poissons Ratio (z) = 0.03580 0.19743
#
# Static dielectric constant tensor:
#      x y z
#    x 1.602170 0.000000 0.000000 
#    y 0.000000 1.683270 0.000000 
#    z 0.000000 0.000000 1.712980 
# 
# From -- ./inp_files/33155.got.cif
#   From: 2010.05.17/outbox.cif.g08.bks.cpg/sg22_17_cif.got.tgz:33155.got - 2010.06.03 23:40:54.
