data_PCOD9326950
_publ_section_title
;
Structure prediction by ZEFSAII (Michael W. Deem and Ramdas Pophale) SiO2 
 PCOD9326950
Probable space group: F 2 2 2
;
_chemical_formula_sum "Si O2"
_cell_formula_units_Z 116
_cell_length_a 29.422743
_cell_length_b 9.316720
_cell_length_c 23.019063
_cell_angle_alpha 90.000000
_cell_angle_beta 90.000000
_cell_angle_gamma 90.000000
_cell_volume 6310.065153
_symmetry_space_group_name_H-M "F 2 2 2"
_symmetry_group_IT_number 22
_symmetry_cell_setting 'orthorhombic'
loop_
_space_group_symop_operation_xyz
x,y,z
-x,-y,z
x,-y,-z
-x,y,-z
x,1/2+y,1/2+z
-x,1/2-y,1/2+z
x,1/2-y,1/2-z
-x,1/2+y,1/2-z
1/2+x,y,1/2+z
1/2-x,-y,1/2+z
1/2+x,-y,1/2-z
1/2-x,y,1/2-z
1/2+x,1/2+y,z
1/2-x,1/2-y,z
1/2+x,1/2-y,-z
1/2-x,1/2+y,-z
loop_
_atom_site_type_symbol
_atom_site_label
_atom_site_fract_x
_atom_site_fract_y
_atom_site_fract_z
Si Si1 0.917732 0.158830 0.805385
Si Si2 0.667961 0.137535 0.821628
Si Si3 0.519186 0.164100 0.582309
Si Si4 0.750000 0.750000 0.250000
Si Si5 0.361973 0.921815 0.944375
Si Si6 0.597179 0.338111 0.007048
Si Si7 0.932984 0.352385 0.103358
Si Si8 0.602116 0.094831 0.230077
O O1 0.935763 0.250000 0.750000
O O2 0.867194 0.226471 0.816296
O O3 0.946315 0.178175 0.863398
O O4 0.919688 0.994996 0.782996
O O5 0.715653 0.165555 0.791888
O O6 0.668898 0.090485 0.888278
O O7 0.642600 0.008408 0.789236
O O8 0.547411 0.172739 0.522600
O O9 0.483457 0.294999 0.589722
O O10 0.500000 0.000000 0.585689
O O11 0.373661 0.765834 0.967479
O O12 0.408743 0.008821 0.926863
O O13 0.341432 0.000000 0.000000
O O14 0.612109 0.500000 0.000000
O O15 0.595468 0.277839 0.072660
O O16 0.927801 0.380087 0.171941
O O17 0.617245 0.250000 0.250000
#
# Coordination Sequence:
#
# PCOD9326950 Si02
#       8
#    16  16  16   4  16  16  16  16
#     4  10  21  39  57  78 120 157 200 251 291 355
#     4  10  20  40  64  94 113 148 196 241 301 377
#     4  12  22  33  54  81 118 160 216 260 290 331
#     4  12  20  40  78  96 104 148 202 238 312 384
#     4   9  20  39  60  87 122 161 197 247 303 354
#     4  11  21  36  56  79 117 161 210 260 293 335
#     4  10  22  35  53  82 113 164 208 243 293 339
#     4  10  20  37  57  84 122 153 194 242 302 355
#
# _framework density 18.383329
#
# number of rings (size 3 to 8) (size 9 to 14) (size 15 to 20)
#    0.000    1.655    4.828    1.241    0.000    2.207 
#    0.000    2.414    0.000    0.828    0.000    0.000 
#    0.000    0.000    0.000    0.000    0.000    0.000 
#
# Total GULP energy -161601.687884 kJ/mol
# GULP energy per Si atom -5572.471996 kJ/mol
# Density = 1.834149 g / cm^3
# Si number density = 18.383329 Si / 1000 Ang^3
#
#
#
# Elastic Constant Matrix: (Units=GPa)
#
#
# Indices 1 2 3 4 5 6 
#
# 1 58.0080 27.6497 33.1796 0.0000 0.0000 0.0000
# 2 27.6497 118.5295 32.2716 0.0000 0.0000 0.0000
# 3 33.1796 32.2716 114.5029 0.0000 0.0000 0.0000
# 4 0.0000 0.0000 0.0000 20.5269 0.0000 0.0000
# 5 0.0000 0.0000 0.0000 0.0000 19.7156 0.0000
# 6 0.0000 0.0000 0.0000 0.0000 0.0000 11.7443
#
#
#
# Elastic Compliance Matrix: (Units=1/GPa)
#
#
# Indices 1 2 3 4 5 6 
#
# 1 0.022059 -0.003688 -0.005352 0.000000 0.000000 0.000000
# 2 -0.003688 0.009755 -0.001680 0.000000 0.000000 0.000000
# 3 -0.005352 -0.001680 0.010758 0.000000 0.000000 0.000000
# 4 0.000000 0.000000 0.000000 0.048717 0.000000 0.000000
# 5 0.000000 0.000000 0.000000 0.000000 0.050721 0.000000
# 6 0.000000 0.000000 0.000000 0.000000 0.000000 0.085147
#
#
# Mechanical properties :
#
#
# Convention : Reuss Voigt Hill
#
# Bulk Modulus (GPa) = 47.32897 53.02691 50.17794
# Shear Modulus (GPa) = 19.55860 23.59331 21.57596
#
# Velocity S-wave (km/s) = 3.26533 3.58636 3.42960
# Velocity P-wave (km/s) = 6.32598 6.78653 6.56030
#
# Compressibility (1/GPa) = 0.02112871
#
# Stress axis : x y z
#
# Youngs Moduli (GPa) = 45.33391 102.51515 92.95403
#
# Poissons Ratio (x) = 0.37811 0.49753
# Poissons Ratio (y) = 0.16721 0.15621
# Poissons Ratio (z) = 0.24265 0.17227
#
# Static dielectric constant tensor:
#      x y z
#    x 1.631460 0.000000 0.000000 
#    y 0.000000 1.668940 0.000000 
#    z 0.000000 0.000000 1.671410 
# 
# From -- ./inp_files/15715.got.cif
#   From: 2010.05.17/outbox.cif.g08.bks.cpg/sg22_8_cif.got.tgz:15715.got - 2010.06.03 23:40:54.
