data_PCOD9326870
_publ_section_title
;
Structure prediction by ZEFSAII (Michael W. Deem and Ramdas Pophale) SiO2 
 PCOD9326870
Probable space group: F 2 2 2
;
_chemical_formula_sum "Si O2"
_cell_formula_units_Z 88
_cell_length_a 9.458529
_cell_length_b 19.542285
_cell_length_c 22.905507
_cell_angle_alpha 90.000000
_cell_angle_beta 90.000000
_cell_angle_gamma 90.000000
_cell_volume 4233.882990
_symmetry_space_group_name_H-M "F 2 2 2"
_symmetry_group_IT_number 22
_symmetry_cell_setting 'orthorhombic'
loop_
_space_group_symop_operation_xyz
x,y,z
-x,-y,z
x,-y,-z
-x,y,-z
x,1/2+y,1/2+z
-x,1/2-y,1/2+z
x,1/2-y,1/2-z
-x,1/2+y,1/2-z
1/2+x,y,1/2+z
1/2-x,-y,1/2+z
1/2+x,-y,1/2-z
1/2-x,y,1/2-z
1/2+x,1/2+y,z
1/2-x,1/2-y,z
1/2+x,1/2-y,-z
1/2-x,1/2+y,-z
loop_
_atom_site_type_symbol
_atom_site_label
_atom_site_fract_x
_atom_site_fract_y
_atom_site_fract_z
Si Si1 0.027600 0.633285 0.363338
Si Si2 0.416570 0.325573 0.740495
Si Si3 0.500000 0.000000 0.083462
Si Si4 0.724846 0.387774 0.587597
Si Si5 0.524570 0.795614 0.887288
Si Si6 0.224607 0.610445 0.047861
O O1 0.040794 0.625332 0.293334
O O2 0.039207 0.715251 0.375788
O O3 0.148754 0.601367 0.405221
O O4 0.871140 0.610560 0.379113
O O5 0.483667 0.250000 0.750000
O O6 0.250000 0.319408 0.750000
O O7 0.441274 0.337629 0.672420
O O8 0.382036 0.052236 0.108970
O O9 0.604542 0.052537 0.051837
O O10 0.631944 0.318958 0.595070
O O11 0.767407 0.391268 0.519368
O O12 0.638681 0.821165 0.934309
#
# Coordination Sequence:
#
# PCOD9326870 Si02
#       6
#    16  16   8  16  16  16
#     4  11  22  34  58  94 118 145 190 242 289 336
#     4   9  17  34  57  82 117 157 191 219 268 352
#     4  10  23  44  60  76 110 164 208 230 285 354
#     4  11  23  37  57  85 118 153 191 242 289 340
#     4  10  20  36  59  86 121 157 185 225 291 353
#     4  11  21  37  61  82 114 157 193 237 288 346
#
# _framework density 20.784704000000001
#
# number of rings (size 3 to 8) (size 9 to 14) (size 15 to 20)
#    0.000    1.636    1.818    4.909    0.000    5.818 
#    0.000    4.545    0.000   17.455    0.000    0.000 
#    0.000    0.000    0.000    0.000    0.000    0.000 
#
# Total GULP energy -122565.789480 kJ/mol
# GULP energy per Si atom -5571.172249 kJ/mol
# Density = 2.073740 g / cm^3
# Si number density = 20.784704 Si / 1000 Ang^3
#
#
#
# Elastic Constant Matrix: (Units=GPa)
#
#
# Indices 1 2 3 4 5 6 
#
# 1 123.6247 9.0451 57.9747 0.0000 0.0000 0.0000
# 2 9.0451 47.0414 15.1197 0.0000 0.0000 0.0000
# 3 57.9747 15.1197 87.1424 0.0000 0.0000 0.0000
# 4 0.0000 0.0000 0.0000 7.9719 0.0000 0.0000
# 5 0.0000 0.0000 0.0000 0.0000 27.6336 0.0000
# 6 0.0000 0.0000 0.0000 0.0000 0.0000 -22.5826
#
#
#
# Elastic Compliance Matrix: (Units=1/GPa)
#
#
# Indices 1 2 3 4 5 6 
#
# 1 0.011760 0.000268 -0.007871 0.000000 0.000000 0.000000
# 2 0.000268 0.022519 -0.004086 0.000000 0.000000 0.000000
# 3 -0.007871 -0.004086 0.017421 0.000000 0.000000 0.000000
# 4 0.000000 0.000000 0.000000 0.125441 0.000000 0.000000
# 5 0.000000 0.000000 0.000000 0.000000 0.036188 0.000000
# 6 0.000000 0.000000 0.000000 0.000000 0.000000 -0.044282
#
#
# Mechanical properties :
#
#
# Convention : Reuss Voigt Hill
#
# Bulk Modulus (GPa) = 35.30521 46.89861 41.10191
# Shear Modulus (GPa) = 24.76911 14.31584 19.54248
#
# Velocity S-wave (km/s) = 3.45584 2.62729 3.06965
# Velocity P-wave (km/s) = 5.73993 5.64061 5.69049
#
# Compressibility (1/GPa) = 0.02832443
#
# Stress axis : x y z
#
# Youngs Moduli (GPa) = 85.03180 44.40597 57.40341
#
# Poissons Ratio (x) = -0.01192 0.45180
# Poissons Ratio (y) = -0.02283 0.23454
# Poissons Ratio (z) = 0.66925 0.18144
#
# Static dielectric constant tensor:
#      x y z
#    x 1.719700 0.000000 0.000000 
#    y 0.000000 1.827400 0.000000 
#    z 0.000000 0.000000 1.790920 
# 
# From -- ./inp_files/12684.got.cif
#   From: 2010.05.17/outbox.cif.g08.bks.cpg/sg22_7_cif.got.tgz:12684.got - 2010.06.03 23:40:54.
