data_PCOD9326652
_publ_section_title
;
Structure prediction by ZEFSAII (Michael W. Deem and Ramdas Pophale) SiO2 
 PCOD9326652
Probable space group: F 2 2 2
;
_chemical_formula_sum "Si O2"
_cell_formula_units_Z 88
_cell_length_a 20.755458
_cell_length_b 14.156379
_cell_length_c 15.197106
_cell_angle_alpha 90.000000
_cell_angle_beta 90.000000
_cell_angle_gamma 90.000000
_cell_volume 4465.246051
_symmetry_space_group_name_H-M "F 2 2 2"
_symmetry_group_IT_number 22
_symmetry_cell_setting 'orthorhombic'
loop_
_space_group_symop_operation_xyz
x,y,z
-x,-y,z
x,-y,-z
-x,y,-z
x,1/2+y,1/2+z
-x,1/2-y,1/2+z
x,1/2-y,1/2-z
-x,1/2+y,1/2-z
1/2+x,y,1/2+z
1/2-x,-y,1/2+z
1/2+x,-y,1/2-z
1/2-x,y,1/2-z
1/2+x,1/2+y,z
1/2-x,1/2-y,z
1/2+x,1/2-y,-z
1/2-x,1/2+y,-z
loop_
_atom_site_type_symbol
_atom_site_label
_atom_site_fract_x
_atom_site_fract_y
_atom_site_fract_z
Si Si1 0.894648 0.750000 0.750000
Si Si2 0.238110 0.144105 0.439550
Si Si3 0.872451 0.000000 0.500000
Si Si4 0.500000 0.500000 0.294823
Si Si5 0.250000 0.079573 0.250000
Si Si6 0.845544 0.000000 0.000000
Si Si7 0.533030 0.151455 0.089819
Si Si8 0.870438 0.549735 0.692754
O O1 0.935226 0.778472 0.661360
O O2 0.855968 0.657561 0.720340
O O3 0.250000 0.250000 0.472970
O O4 0.237378 0.142093 0.334682
O O5 0.299020 0.085346 0.473102
O O6 0.175785 0.081172 0.463804
O O7 0.917500 0.067084 0.438949
O O8 0.482181 0.408833 0.353619
O O9 0.437954 0.526063 0.238461
O O10 0.188257 0.014164 0.227539
O O11 0.880150 0.967644 0.911116
O O12 0.500000 0.189121 0.000000
#
# Coordination Sequence:
#
# PCOD9326652 Si02
#       8
#     8  16   8   8   8   8  16  16
#     4  10  24  39  62  98 130 161 226 272 328 385
#     4  10  21  37  61  92 125 164 220 262 322 393
#     4  11  21  38  69  91 126 178 208 270 336 380
#     4  10  19  39  66  88 118 172 211 262 319 386
#     4  10  21  41  64  90 126 170 209 268 333 388
#     4   9  22  41  55  91 133 173 206 262 338 392
#     4  11  21  41  65  93 127 167 224 275 324 395
#     4  10  22  42  63  91 133 168 218 270 331 395
#
# _framework density 19.707761000000001
#
# number of rings (size 3 to 8) (size 9 to 14) (size 15 to 20)
#    0.000    1.818    1.818    2.455    2.545    0.727 
#    6.545    0.000    0.000    0.000    0.000    0.000 
#    0.000    0.000    0.000    0.000    0.000    0.000 
#
# Total GULP energy -122511.045217 kJ/mol
# GULP energy per Si atom -5568.683874 kJ/mol
# Density = 1.966291 g / cm^3
# Si number density = 19.707761 Si / 1000 Ang^3
#
#
#
# Elastic Constant Matrix: (Units=GPa)
#
#
# Indices 1 2 3 4 5 6 
#
# 1 54.9111 17.2286 25.4434 0.0000 0.0000 0.0000
# 2 17.2286 110.9450 27.3760 0.0000 0.0000 0.0000
# 3 25.4434 27.3760 125.7676 0.0000 0.0000 0.0000
# 4 0.0000 0.0000 0.0000 26.4883 0.0000 0.0000
# 5 0.0000 0.0000 0.0000 0.0000 10.1557 0.0000
# 6 0.0000 0.0000 0.0000 0.0000 0.0000 11.9683
#
#
#
# Elastic Compliance Matrix: (Units=1/GPa)
#
#
# Indices 1 2 3 4 5 6 
#
# 1 0.020635 -0.002298 -0.003674 0.000000 0.000000 0.000000
# 2 -0.002298 0.009781 -0.001664 0.000000 0.000000 0.000000
# 3 -0.003674 -0.001664 0.009057 0.000000 0.000000 0.000000
# 4 0.000000 0.000000 0.000000 0.037752 0.000000 0.000000
# 5 0.000000 0.000000 0.000000 0.000000 0.098467 0.000000
# 6 0.000000 0.000000 0.000000 0.000000 0.000000 0.083554
#
#
# Mechanical properties :
#
#
# Convention : Reuss Voigt Hill
#
# Bulk Modulus (GPa) = 41.32251 47.96887 44.64569
# Shear Modulus (GPa) = 17.69381 24.49418 21.09400
#
# Velocity S-wave (km/s) = 2.99960 3.52926 3.27515
# Velocity P-wave (km/s) = 5.74543 6.40316 6.08319
#
# Compressibility (1/GPa) = 0.02419989
#
# Stress axis : x y z
#
# Youngs Moduli (GPa) = 48.46206 102.23981 110.41472
#
# Poissons Ratio (x) = 0.23492 0.40570
# Poissons Ratio (y) = 0.11135 0.18375
# Poissons Ratio (z) = 0.17807 0.17015
#
# Static dielectric constant tensor:
#      x y z
#    x 1.689600 0.000000 0.000000 
#    y 0.000000 1.782890 0.000000 
#    z 0.000000 0.000000 1.753640 
# 
# From -- ./inp_files/29323.got.cif
#   From: 2010.05.17/outbox.cif.g08.bks.cpg/sg22_15_cif.got.tgz:29323.got - 2010.06.03 23:40:54.
