data_PCOD9326533
_publ_section_title
;
Structure prediction by ZEFSAII (Michael W. Deem and Ramdas Pophale) SiO2 
 PCOD9326533
Probable space group: F 2 2 2
;
_chemical_formula_sum "Si O2"
_cell_formula_units_Z 104
_cell_length_a 16.893025
_cell_length_b 14.962124
_cell_length_c 22.110343
_cell_angle_alpha 90.000000
_cell_angle_beta 90.000000
_cell_angle_gamma 90.000000
_cell_volume 5588.511569
_symmetry_space_group_name_H-M "F 2 2 2"
_symmetry_group_IT_number 22
_symmetry_cell_setting 'orthorhombic'
loop_
_space_group_symop_operation_xyz
x,y,z
-x,-y,z
x,-y,-z
-x,y,-z
x,1/2+y,1/2+z
-x,1/2-y,1/2+z
x,1/2-y,1/2-z
-x,1/2+y,1/2-z
1/2+x,y,1/2+z
1/2-x,-y,1/2+z
1/2+x,-y,1/2-z
1/2-x,y,1/2-z
1/2+x,1/2+y,z
1/2-x,1/2-y,z
1/2+x,1/2-y,-z
1/2-x,1/2+y,-z
loop_
_atom_site_type_symbol
_atom_site_label
_atom_site_fract_x
_atom_site_fract_y
_atom_site_fract_z
Si Si1 0.893732 0.658626 0.547465
Si Si2 0.633452 0.827942 0.800045
Si Si3 0.163762 0.517784 0.747533
Si Si4 0.562483 0.292271 0.911818
Si Si5 0.944312 0.326551 0.800901
Si Si6 0.250000 0.250000 0.898192
Si Si7 0.090549 0.988822 0.877737
O O1 0.912858 0.701169 0.482106
O O2 0.804733 0.684480 0.563300
O O3 0.900282 0.552689 0.563754
O O4 0.966368 0.696561 0.588591
O O5 0.645387 0.750000 0.750000
O O6 0.538865 0.839515 0.806621
O O7 0.684607 0.798334 0.857243
O O8 0.665362 0.924537 0.782151
O O9 0.250000 0.561813 0.750000
O O10 0.099878 0.585426 0.776447
O O11 0.144007 0.488318 0.679014
O O12 0.583564 0.212288 0.866261
O O13 0.600395 0.384200 0.888430
O O14 0.931986 0.250000 0.750000
O O15 0.000000 0.000000 0.857304
#
# Coordination Sequence:
#
# PCOD9326533 Si02
#       7
#    16  16  16  16  16   8  16
#     4  10  21  36  62  89 119 159 209 268 321 362
#     4  11  22  37  64  94 126 156 200 268 334 376
#     4  12  24  37  58  93 132 165 204 261 319 386
#     4  10  20  40  60  86 120 165 211 254 310 392
#     4  11  22  40  61  89 126 173 206 246 317 402
#     4  12  21  38  60  94 119 150 206 270 322 364
#     4  10  19  36  62  89 118 153 210 267 316 373
#
# _framework density 18.609607
#
# number of rings (size 3 to 8) (size 9 to 14) (size 15 to 20)
#    0.000    1.231    3.077    4.846    4.308    2.154 
#    2.769    0.000    0.000    0.000    0.000    0.000 
#    0.000    0.000    0.000    0.000    0.000    0.000 
#
# Total GULP energy -144860.668617 kJ/mol
# GULP energy per Si atom -5571.564178 kJ/mol
# Density = 1.856725 g / cm^3
# Si number density = 18.609607 Si / 1000 Ang^3
#
#
#
# Elastic Constant Matrix: (Units=GPa)
#
#
# Indices 1 2 3 4 5 6 
#
# 1 102.0331 23.4835 26.8415 0.0000 0.0000 0.0000
# 2 23.4835 67.5877 16.0172 0.0000 0.0000 0.0000
# 3 26.8415 16.0172 74.1413 0.0000 0.0000 0.0000
# 4 0.0000 0.0000 0.0000 -45.3463 0.0000 0.0000
# 5 0.0000 0.0000 0.0000 0.0000 105.4449 0.0000
# 6 0.0000 0.0000 0.0000 0.0000 0.0000 13.4822
#
#
#
# Elastic Compliance Matrix: (Units=1/GPa)
#
#
# Indices 1 2 3 4 5 6 
#
# 1 0.011437 -0.003154 -0.003459 0.000000 0.000000 0.000000
# 2 -0.003154 0.016464 -0.002415 0.000000 0.000000 0.000000
# 3 -0.003459 -0.002415 0.015262 0.000000 0.000000 0.000000
# 4 0.000000 0.000000 0.000000 -0.022053 0.000000 0.000000
# 5 0.000000 0.000000 0.000000 0.000000 0.009484 0.000000
# 6 0.000000 0.000000 0.000000 0.000000 0.000000 0.074172
#
#
# Mechanical properties :
#
#
# Convention : Reuss Voigt Hill
#
# Bulk Modulus (GPa) = 39.83070 41.82738 40.82904
# Shear Modulus (GPa) = 38.11275 26.54415 32.32845
#
# Velocity S-wave (km/s) = 4.53041 3.78083 4.17248
# Velocity P-wave (km/s) = 6.98684 6.44861 6.72311
#
# Compressibility (1/GPa) = 0.02510626
#
# Stress axis : x y z
#
# Youngs Moduli (GPa) = 87.43861 60.73954 65.52326
#
# Poissons Ratio (x) = 0.19157 0.22665
# Poissons Ratio (y) = 0.27578 0.15823
# Poissons Ratio (z) = 0.30245 0.14668
#
# Static dielectric constant tensor:
#      x y z
#    x 1.658790 0.000000 0.000000 
#    y 0.000000 1.638110 0.000000 
#    z 0.000000 0.000000 1.718410 
# 
# From -- ./inp_files/37276.got.cif
#   From: 2010.05.17/outbox.cif.g08.bks.cpg/sg22_19_cif.got.tgz:37276.got - 2010.06.03 23:40:54.
