data_PCOD9326224
_publ_section_title
;
Structure prediction by ZEFSAII (Michael W. Deem and Ramdas Pophale) SiO2 
 PCOD9326224
Probable space group: F 2 2 2
;
_chemical_formula_sum "Si O2"
_cell_formula_units_Z 112
_cell_length_a 17.586544
_cell_length_b 23.587942
_cell_length_c 13.415246
_cell_angle_alpha 90.000000
_cell_angle_beta 90.000000
_cell_angle_gamma 90.000000
_cell_volume 5565.051594
_symmetry_space_group_name_H-M "F 2 2 2"
_symmetry_group_IT_number 22
_symmetry_cell_setting 'orthorhombic'
loop_
_space_group_symop_operation_xyz
x,y,z
-x,-y,z
x,-y,-z
-x,y,-z
x,1/2+y,1/2+z
-x,1/2-y,1/2+z
x,1/2-y,1/2-z
-x,1/2+y,1/2-z
1/2+x,y,1/2+z
1/2-x,-y,1/2+z
1/2+x,-y,1/2-z
1/2-x,y,1/2-z
1/2+x,1/2+y,z
1/2-x,1/2-y,z
1/2+x,1/2-y,-z
1/2-x,1/2+y,-z
loop_
_atom_site_type_symbol
_atom_site_label
_atom_site_fract_x
_atom_site_fract_y
_atom_site_fract_z
Si Si1 0.206047 0.968728 0.153159
Si Si2 0.549766 0.449571 0.259069
Si Si3 0.189439 0.800589 0.541359
Si Si4 0.963549 0.747411 0.112041
Si Si5 0.939700 0.149649 0.408403
Si Si6 0.215760 0.588853 0.560771
Si Si7 0.543937 0.876192 0.394855
O O1 0.250000 0.947316 0.250000
O O2 0.119228 0.971015 0.190947
O O3 0.215948 0.929554 0.055925
O O4 0.234095 0.031656 0.121972
O O5 0.500000 0.500000 0.304404
O O6 0.575043 0.405912 0.344198
O O7 0.494547 0.416576 0.184508
O O8 0.250000 0.750000 0.520583
O O9 0.122621 0.775423 0.610777
O O10 0.138371 0.823606 0.449360
O O11 0.231187 0.856946 0.580334
O O12 0.961522 0.811897 0.143243
O O13 0.018277 0.699006 0.154676
O O14 0.000000 0.751365 0.000000
O O15 0.000000 0.136697 0.500000
O O16 0.130647 0.607326 0.586887
O O17 0.500000 0.881184 0.500000
#
# Coordination Sequence:
#
# PCOD9326224 Si02
#       7
#    16  16  16  16  16  16  16
#     4  11  25  41  60  94 133 164 215 261 317 374
#     4  12  24  39  64  90 124 167 214 265 311 378
#     4  10  18  36  67  91 122 165 207 250 324 383
#     4   8  18  36  60  90 122 160 203 255 312 386
#     4   9  22  41  61  91 126 163 210 257 318 388
#     4  11  22  39  65  93 125 171 205 262 319 372
#     4  11  20  37  65  93 123 156 208 260 316 373
#
# _framework density 20.125599000000001
#
# number of rings (size 3 to 8) (size 9 to 14) (size 15 to 20)
#    0.000    2.000    4.286    0.857    0.000    3.429 
#    0.000    0.000    0.000    6.857    0.000    0.000 
#    0.000    0.000    0.000    0.000    0.000    0.000 
#
# Total GULP energy -156131.720601 kJ/mol
# GULP energy per Si atom -5576.132879 kJ/mol
# Density = 2.007979 g / cm^3
# Si number density = 20.125599 Si / 1000 Ang^3
#
#
#
# Elastic Constant Matrix: (Units=GPa)
#
#
# Indices 1 2 3 4 5 6 
#
# 1 98.4149 25.2536 -2.6656 0.0000 0.0000 0.0000
# 2 25.2536 111.9214 9.6388 0.0000 0.0000 0.0000
# 3 -2.6656 9.6388 51.5910 0.0000 0.0000 0.0000
# 4 0.0000 0.0000 0.0000 4.9457 0.0000 0.0000
# 5 0.0000 0.0000 0.0000 0.0000 19.4828 0.0000
# 6 0.0000 0.0000 0.0000 0.0000 0.0000 37.7724
#
#
#
# Elastic Compliance Matrix: (Units=1/GPa)
#
#
# Indices 1 2 3 4 5 6 
#
# 1 0.010839 -0.002535 0.001034 0.000000 0.000000 0.000000
# 2 -0.002535 0.009674 -0.001938 0.000000 0.000000 0.000000
# 3 0.001034 -0.001938 0.019799 0.000000 0.000000 0.000000
# 4 0.000000 0.000000 0.000000 0.202195 0.000000 0.000000
# 5 0.000000 0.000000 0.000000 0.000000 0.051327 0.000000
# 6 0.000000 0.000000 0.000000 0.000000 0.000000 0.026474
#
#
# Mechanical properties :
#
#
# Convention : Reuss Voigt Hill
#
# Bulk Modulus (GPa) = 29.91056 36.26453 33.08755
# Shear Modulus (GPa) = 14.77838 27.75355 21.26597
#
# Velocity S-wave (km/s) = 2.71275 3.71754 3.25416
# Velocity P-wave (km/s) = 4.97054 6.04028 5.53133
#
# Compressibility (1/GPa) = 0.03343300
#
# Stress axis : x y z
#
# Youngs Moduli (GPa) = 92.25519 103.37289 50.50821
#
# Poissons Ratio (x) = 0.26203 -0.05221
# Poissons Ratio (y) = 0.23385 0.09790
# Poissons Ratio (z) = -0.09536 0.20037
#
# Static dielectric constant tensor:
#      x y z
#    x 1.703160 0.000000 0.000000 
#    y 0.000000 1.727370 0.000000 
#    z 0.000000 0.000000 1.734620 
# 
# From -- ./inp_files/29622.got.cif
#   From: 2010.05.17/outbox.cif.g08.bks.cpg/sg22_15_cif.got.tgz:29622.got - 2010.06.03 23:40:54.
