data_PCOD9326072
_publ_section_title
;
Structure prediction by ZEFSAII (Michael W. Deem and Ramdas Pophale) SiO2 
 PCOD9326072
Probable space group: F 2 2 2
;
_chemical_formula_sum "Si O2"
_cell_formula_units_Z 80
_cell_length_a 8.510148
_cell_length_b 30.292518
_cell_length_c 16.057635
_cell_angle_alpha 90.000000
_cell_angle_beta 90.000000
_cell_angle_gamma 90.000000
_cell_volume 4139.558930
_symmetry_space_group_name_H-M "F 2 2 2"
_symmetry_group_IT_number 22
_symmetry_cell_setting 'orthorhombic'
loop_
_space_group_symop_operation_xyz
x,y,z
-x,-y,z
x,-y,-z
-x,y,-z
x,1/2+y,1/2+z
-x,1/2-y,1/2+z
x,1/2-y,1/2-z
-x,1/2+y,1/2-z
1/2+x,y,1/2+z
1/2-x,-y,1/2+z
1/2+x,-y,1/2-z
1/2-x,y,1/2-z
1/2+x,1/2+y,z
1/2-x,1/2-y,z
1/2+x,1/2-y,-z
1/2-x,1/2+y,-z
loop_
_atom_site_type_symbol
_atom_site_label
_atom_site_fract_x
_atom_site_fract_y
_atom_site_fract_z
Si Si1 0.941229 0.547779 0.095317
Si Si2 0.565249 0.545938 0.095108
Si Si3 0.367670 0.373578 0.671781
Si Si4 0.558290 0.360335 0.093684
Si Si5 0.936719 0.198558 0.760239
O O1 0.752929 0.547191 0.096159
O O2 0.000000 0.500000 0.124324
O O3 0.021002 0.585799 0.149560
O O4 0.000000 0.553213 0.000000
O O5 0.500000 0.500000 0.132875
O O6 0.504375 0.592577 0.129454
O O7 0.500000 0.545976 0.000000
O O8 0.250000 0.381513 0.750000
O O9 0.246387 0.363603 0.597428
O O10 0.471872 0.331294 0.693604
O O11 0.494246 0.321457 0.151909
O O12 0.500000 0.355403 0.000000
O O13 0.975169 0.250000 0.750000
O O14 0.750000 0.193100 0.750000
#
# Coordination Sequence:
#
# PCOD9326072 Si02
#       5
#    16  16  16  16  16
#     4  11  20  34  58  87 118 156 201 240 282 339
#     4  10  18  31  53  84 120 152 187 238 288 328
#     4  10  22  39  60  86 118 155 193 236 295 351
#     4  10  20  37  60  87 118 151 194 240 283 339
#     4  10  22  42  62  84 117 153 188 236 299 354
#
# _framework density 19.325731000000001
#
# number of rings (size 3 to 8) (size 9 to 14) (size 15 to 20)
#    0.000    1.800    0.000    7.200    0.000    3.600 
#    0.000   14.000    0.000    0.000    0.000    0.000 
#    0.000    0.000    0.000    0.000    0.000    0.000 
#
# Total GULP energy -111689.398473 kJ/mol
# GULP energy per Si atom -5584.469924 kJ/mol
# Density = 1.928175 g / cm^3
# Si number density = 19.325731 Si / 1000 Ang^3
#
#
#
# Elastic Constant Matrix: (Units=GPa)
#
#
# Indices 1 2 3 4 5 6 
#
# 1 180.0128 103.7847 39.1197 0.0000 0.0000 0.0000
# 2 103.7847 204.8115 56.2089 0.0000 0.0000 0.0000
# 3 39.1197 56.2089 48.4936 0.0000 0.0000 0.0000
# 4 0.0000 0.0000 0.0000 26.9930 0.0000 0.0000
# 5 0.0000 0.0000 0.0000 0.0000 32.4277 0.0000
# 6 0.0000 0.0000 0.0000 0.0000 0.0000 37.5066
#
#
#
# Elastic Compliance Matrix: (Units=1/GPa)
#
#
# Indices 1 2 3 4 5 6 
#
# 1 0.008065 -0.003375 -0.002594 0.000000 0.000000 0.000000
# 2 -0.003375 0.008572 -0.007214 0.000000 0.000000 0.000000
# 3 -0.002594 -0.007214 0.031076 0.000000 0.000000 0.000000
# 4 0.000000 0.000000 0.000000 0.037047 0.000000 0.000000
# 5 0.000000 0.000000 0.000000 0.000000 0.030838 0.000000
# 6 0.000000 0.000000 0.000000 0.000000 0.000000 0.026662
#
#
# Mechanical properties :
#
#
# Convention : Reuss Voigt Hill
#
# Bulk Modulus (GPa) = 46.84465 92.39382 69.61924
# Shear Modulus (GPa) = 28.45112 34.99909 31.72510
#
# Velocity S-wave (km/s) = 3.84107 4.26021 4.05606
# Velocity P-wave (km/s) = 6.63053 8.49186 7.61826
#
# Compressibility (1/GPa) = 0.02134716
#
# Stress axis : x y z
#
# Youngs Moduli (GPa) = 124.00011 116.65390 32.17960
#
# Poissons Ratio (x) = 0.39366 0.08348
# Poissons Ratio (y) = 0.41845 0.23214
# Poissons Ratio (z) = 0.32167 0.84153
#
# Static dielectric constant tensor:
#      x y z
#    x 1.679420 0.000000 0.000000 
#    y 0.000000 1.676330 0.000000 
#    z 0.000000 0.000000 1.704560 
# 
# From -- ./inp_files/14658.got.cif
#   From: 2010.05.17/outbox.cif.g08.bks.cpg/sg22_8_cif.got.tgz:14658.got - 2010.06.03 23:40:54.
