data_PCOD9326227
_publ_section_title
;
Structure prediction by ZEFSAII (Michael W. Deem and Ramdas Pophale) SiO2 
 PCOD9326227
Probable space group: F 2 2 2
;
_chemical_formula_sum "Si O2"
_cell_formula_units_Z 72
_cell_length_a 13.604677
_cell_length_b 14.293570
_cell_length_c 15.903203
_cell_angle_alpha 90.000000
_cell_angle_beta 90.000000
_cell_angle_gamma 90.000000
_cell_volume 3092.527362
_symmetry_space_group_name_H-M "F 2 2 2"
_symmetry_group_IT_number 22
_symmetry_cell_setting 'orthorhombic'
loop_
_space_group_symop_operation_xyz
x,y,z
-x,-y,z
x,-y,-z
-x,y,-z
x,1/2+y,1/2+z
-x,1/2-y,1/2+z
x,1/2-y,1/2-z
-x,1/2+y,1/2-z
1/2+x,y,1/2+z
1/2-x,-y,1/2+z
1/2+x,-y,1/2-z
1/2-x,y,1/2-z
1/2+x,1/2+y,z
1/2-x,1/2-y,z
1/2+x,1/2-y,-z
1/2-x,1/2+y,-z
loop_
_atom_site_type_symbol
_atom_site_label
_atom_site_fract_x
_atom_site_fract_y
_atom_site_fract_z
Si Si1 0.052288 0.162286 0.695229
Si Si2 0.398047 0.474050 0.845100
Si Si3 0.293367 0.104105 0.915837
Si Si4 0.250000 0.384718 0.250000
Si Si5 0.633500 0.611280 0.402142
O O1 0.019637 0.250000 0.750000
O O2 0.064416 0.083626 0.765193
O O3 0.158881 0.171904 0.652614
O O4 0.978655 0.133901 0.620138
O O5 0.500000 0.500000 0.890327
O O6 0.321410 0.415893 0.901813
O O7 0.331309 0.554776 0.802210
O O8 0.344590 0.001160 0.900187
O O9 0.324091 0.138429 0.007715
O O10 0.310258 0.339461 0.325079
#
# Coordination Sequence:
#
# PCOD9326227 Si02
#       5
#    16  16  16   8  16
#     4  12  22  35  63  94 131 176 219 263 330 402
#     4  11  19  37  65  96 129 165 220 276 337 399
#     4  10  21  38  68  99 126 164 220 288 335 388
#     4  10  18  36  68  90 122 162 214 284 340 382
#     4  10  20  39  67  95 120 167 224 278 328 398
#
# _framework density 23.281927
#
# number of rings (size 3 to 8) (size 9 to 14) (size 15 to 20)
#    0.000    1.333    6.667    1.333    0.000    3.556 
#    0.000    9.444   14.667    0.000    0.000    0.000 
#    0.000    0.000    0.000    0.000    0.000    0.000 
#
# Total GULP energy -100472.667641 kJ/mol
# GULP energy per Si atom -5581.814869 kJ/mol
# Density = 2.322894 g / cm^3
# Si number density = 23.281927 Si / 1000 Ang^3
#
#
#
# Elastic Constant Matrix: (Units=GPa)
#
#
# Indices 1 2 3 4 5 6 
#
# 1 200.7816 26.5715 54.5608 0.0000 0.0000 0.0000
# 2 26.5715 24.9566 12.4027 0.0000 0.0000 0.0000
# 3 54.5608 12.4027 129.6744 0.0000 0.0000 0.0000
# 4 0.0000 0.0000 0.0000 13.7883 0.0000 0.0000
# 5 0.0000 0.0000 0.0000 0.0000 16.4503 0.0000
# 6 0.0000 0.0000 0.0000 0.0000 0.0000 -6.7439
#
#
#
# Elastic Compliance Matrix: (Units=1/GPa)
#
#
# Indices 1 2 3 4 5 6 
#
# 1 0.006303 -0.005662 -0.002111 0.000000 0.000000 0.000000
# 2 -0.005662 0.047156 -0.002128 0.000000 0.000000 0.000000
# 3 -0.002111 -0.002128 0.008803 0.000000 0.000000 0.000000
# 4 0.000000 0.000000 0.000000 0.072525 0.000000 0.000000
# 5 0.000000 0.000000 0.000000 0.000000 0.060789 0.000000
# 6 0.000000 0.000000 0.000000 0.000000 0.000000 -0.148282
#
#
# Mechanical properties :
#
#
# Convention : Reuss Voigt Hill
#
# Bulk Modulus (GPa) = 23.55109 60.27583 41.91346
# Shear Modulus (GPa) = 61.53827 22.15745 41.84786
#
# Velocity S-wave (km/s) = 5.14676 3.08831 4.24422
# Velocity P-wave (km/s) = 6.74214 6.21793 6.48533
#
# Compressibility (1/GPa) = 0.04246088
#
# Stress axis : x y z
#
# Youngs Moduli (GPa) = 158.64357 21.20632 113.59542
#
# Poissons Ratio (x) = 0.12008 0.23976
# Poissons Ratio (y) = 0.89830 0.24170
# Poissons Ratio (z) = 0.33483 0.04512
#
# Static dielectric constant tensor:
#      x y z
#    x 1.969230 0.000000 0.000000 
#    y 0.000000 2.176250 0.000000 
#    z 0.000000 0.000000 1.901730 
# 
# From -- ./inp_files/36978.got.cif
#   From: 2010.05.17/outbox.cif.g08.bks.cpg/sg22_19_cif.got.tgz:36978.got - 2010.06.03 23:40:54.
