data_PCOD9326267
_publ_section_title
;
Structure prediction by ZEFSAII (Michael W. Deem and Ramdas Pophale) SiO2 
 PCOD9326267
Probable space group: F 2 2 2
;
_chemical_formula_sum "Si O2"
_cell_formula_units_Z 104
_cell_length_a 7.797044
_cell_length_b 22.644157
_cell_length_c 28.837998
_cell_angle_alpha 90.000000
_cell_angle_beta 90.000000
_cell_angle_gamma 90.000000
_cell_volume 5091.564499
_symmetry_space_group_name_H-M "F 2 2 2"
_symmetry_group_IT_number 22
_symmetry_cell_setting 'orthorhombic'
loop_
_space_group_symop_operation_xyz
x,y,z
-x,-y,z
x,-y,-z
-x,y,-z
x,1/2+y,1/2+z
-x,1/2-y,1/2+z
x,1/2-y,1/2-z
-x,1/2+y,1/2-z
1/2+x,y,1/2+z
1/2-x,-y,1/2+z
1/2+x,-y,1/2-z
1/2-x,y,1/2-z
1/2+x,1/2+y,z
1/2-x,1/2-y,z
1/2+x,1/2-y,-z
1/2-x,1/2+y,-z
loop_
_atom_site_type_symbol
_atom_site_label
_atom_site_fract_x
_atom_site_fract_y
_atom_site_fract_z
Si Si1 0.930194 0.816076 0.266318
Si Si2 0.293983 0.931870 0.993483
Si Si3 0.845486 0.903689 0.791357
Si Si4 0.152891 0.186452 0.538623
Si Si5 0.552022 0.356873 0.358387
Si Si6 0.162559 0.541102 0.895725
Si Si7 0.500000 0.000000 0.348490
O O1 0.936911 0.750000 0.250000
O O2 0.750000 0.842338 0.250000
O O3 0.071741 0.852170 0.238680
O O4 0.961501 0.815185 0.321143
O O5 0.267867 0.921807 0.939204
O O6 0.500000 0.934531 0.000000
O O7 0.242645 0.873807 0.022960
O O8 0.228736 0.000000 0.000000
O O9 0.750000 0.939952 0.750000
O O10 0.722571 0.879137 0.831874
O O11 0.985821 0.942948 0.816476
O O12 0.250000 0.250000 0.539090
O O13 0.087775 0.170319 0.590821
O O14 0.000000 0.191401 0.500000
O O15 0.425937 0.412971 0.361716
O O16 0.322989 0.504631 0.876909
O O17 0.000000 0.500000 0.910068
#
# Coordination Sequence:
#
# PCOD9326267 Si02
#       7
#    16  16  16  16  16  16   8
#     4  10  23  44  64  96 132 179 235 294 347 416
#     4  10  18  39  72  91 131 187 230 280 355 420
#     4  10  24  41  64  98 134 177 230 286 352 424
#     4  11  24  45  67 104 138 188 238 291 360 425
#     4  11  22  42  72  93 132 192 226 290 354 418
#     4  12  21  41  69  99 139 180 230 287 354 423
#     4  12  26  38  67 110 134 174 237 290 350 438
#
# _framework density 20.425941000000002
#
# number of rings (size 3 to 8) (size 9 to 14) (size 15 to 20)
#    0.000    1.231    6.154    0.923    2.154    5.231 
#    5.538    0.385    0.000    0.000    0.000    0.000 
#    0.000    0.000    0.000    0.000    0.000    0.000 
#
# Total GULP energy -144788.630177 kJ/mol
# GULP energy per Si atom -5568.793468 kJ/mol
# Density = 2.037945 g / cm^3
# Si number density = 20.425941 Si / 1000 Ang^3
#
#
#
# Elastic Constant Matrix: (Units=GPa)
#
#
# Indices 1 2 3 4 5 6 
#
# 1 81.3821 29.8780 42.2101 0.0000 0.0000 0.0000
# 2 29.8780 106.5721 43.7146 0.0000 0.0000 0.0000
# 3 42.2101 43.7146 150.6097 0.0000 0.0000 0.0000
# 4 0.0000 0.0000 0.0000 35.1530 0.0000 0.0000
# 5 0.0000 0.0000 0.0000 0.0000 1.8786 0.0000
# 6 0.0000 0.0000 0.0000 0.0000 0.0000 24.8948
#
#
#
# Elastic Compliance Matrix: (Units=1/GPa)
#
#
# Indices 1 2 3 4 5 6 
#
# 1 0.015096 -0.002834 -0.003408 0.000000 0.000000 0.000000
# 2 -0.002834 0.011184 -0.002452 0.000000 0.000000 0.000000
# 3 -0.003408 -0.002452 0.008306 0.000000 0.000000 0.000000
# 4 0.000000 0.000000 0.000000 0.028447 0.000000 0.000000
# 5 0.000000 0.000000 0.000000 0.000000 0.532313 0.000000
# 6 0.000000 0.000000 0.000000 0.000000 0.000000 0.040169
#
#
# Mechanical properties :
#
#
# Convention : Reuss Voigt Hill
#
# Bulk Modulus (GPa) = 58.14713 63.35215 60.74964
# Shear Modulus (GPa) = 7.59145 27.23603 17.41374
#
# Velocity S-wave (km/s) = 1.92993 3.65554 2.92298
# Velocity P-wave (km/s) = 5.78751 6.99287 6.41855
#
# Compressibility (1/GPa) = 0.01719775
#
# Stress axis : x y z
#
# Youngs Moduli (GPa) = 66.24295 89.41685 120.38802
#
# Poissons Ratio (x) = 0.25343 0.41030
# Poissons Ratio (y) = 0.18775 0.29516
# Poissons Ratio (z) = 0.22577 0.21923
#
# Static dielectric constant tensor:
#      x y z
#    x 1.630600 0.000000 0.000000 
#    y 0.000000 1.759130 0.000000 
#    z 0.000000 0.000000 1.757750 
# 
# From -- ./inp_files/55617.got.cif
#   From: 2010.05.17/outbox.cif.g08.bks.cpg/sg22_28_cif.got.tgz:55617.got - 2010.06.03 23:40:54.
