data_PCOD9326389
_publ_section_title
;
Structure prediction by ZEFSAII (Michael W. Deem and Ramdas Pophale) SiO2 
 PCOD9326389
Probable space group: F 2 2 2
;
_chemical_formula_sum "Si O2"
_cell_formula_units_Z 120
_cell_length_a 23.582939
_cell_length_b 12.179742
_cell_length_c 21.601061
_cell_angle_alpha 90.000000
_cell_angle_beta 90.000000
_cell_angle_gamma 90.000000
_cell_volume 6204.561588
_symmetry_space_group_name_H-M "F 2 2 2"
_symmetry_group_IT_number 22
_symmetry_cell_setting 'orthorhombic'
loop_
_space_group_symop_operation_xyz
x,y,z
-x,-y,z
x,-y,-z
-x,y,-z
x,1/2+y,1/2+z
-x,1/2-y,1/2+z
x,1/2-y,1/2-z
-x,1/2+y,1/2-z
1/2+x,y,1/2+z
1/2-x,-y,1/2+z
1/2+x,-y,1/2-z
1/2-x,y,1/2-z
1/2+x,1/2+y,z
1/2-x,1/2-y,z
1/2+x,1/2-y,-z
1/2-x,1/2+y,-z
loop_
_atom_site_type_symbol
_atom_site_label
_atom_site_fract_x
_atom_site_fract_y
_atom_site_fract_z
Si Si1 0.750000 0.250000 0.649272
Si Si2 0.675620 0.055679 0.866263
Si Si3 0.363572 0.897402 0.452580
Si Si4 0.563931 0.973494 0.355175
Si Si5 0.174968 0.063815 0.218195
Si Si6 0.944281 0.946321 0.432266
Si Si7 0.264075 0.126560 0.641043
Si Si8 0.052497 0.699246 0.538152
O O1 0.711113 0.336788 0.611805
O O2 0.792280 0.331188 0.688120
O O3 0.676047 0.069294 0.791794
O O4 0.613096 0.049560 0.893407
O O5 0.709311 0.943411 0.879117
O O6 0.306789 0.866814 0.417022
O O7 0.392676 0.805432 0.494345
O O8 0.355559 0.000000 0.500000
O O9 0.408246 0.932730 0.398998
O O10 0.610133 0.945223 0.303609
O O11 0.561691 0.870803 0.401111
O O12 0.500000 0.000000 0.334763
O O13 0.205640 0.953862 0.191434
O O14 0.960667 0.821271 0.443355
O O15 0.935336 0.000000 0.500000
O O16 0.000000 0.000000 0.402433
O O17 0.250000 0.250000 0.662436
O O18 0.000000 0.649433 0.500000
#
# Coordination Sequence:
#
# PCOD9326389 Si02
#       8
#     8  16  16  16  16  16  16  16
#     4  10  19  40  68  94 114 150 208 258 305 354
#     4  11  23  40  65  85 119 162 199 253 310 350
#     4   9  20  35  57  90 118 150 197 249 296 348
#     4  10  19  33  59  93 119 146 196 245 304 353
#     4  10  21  38  62  92 119 152 203 255 299 364
#     4  11  25  42  57  83 118 162 207 236 289 375
#     4  10  22  38  60  88 123 158 198 245 299 366
#     4  11  19  35  62  82 113 159 193 241 297 348
#
# _framework density 19.340609000000001
#
# number of rings (size 3 to 8) (size 9 to 14) (size 15 to 20)
#    0.000    1.733    2.667    3.200    1.867    3.200 
#    0.000    0.000    2.933    0.000    0.000    0.000 
#    0.000    0.000    0.000    0.000    0.000    0.000 
#
# Total GULP energy -167420.927857 kJ/mol
# GULP energy per Si atom -5580.697595 kJ/mol
# Density = 1.929659 g / cm^3
# Si number density = 19.340609 Si / 1000 Ang^3
#
#
#
# Elastic Constant Matrix: (Units=GPa)
#
#
# Indices 1 2 3 4 5 6 
#
# 1 151.3279 39.7736 34.9182 0.0000 0.0000 0.0000
# 2 39.7736 109.5939 4.1843 0.0000 0.0000 0.0000
# 3 34.9182 4.1843 28.8899 0.0000 0.0000 0.0000
# 4 0.0000 0.0000 0.0000 1.4859 0.0000 0.0000
# 5 0.0000 0.0000 0.0000 0.0000 37.5408 0.0000
# 6 0.0000 0.0000 0.0000 0.0000 0.0000 18.9648
#
#
#
# Elastic Compliance Matrix: (Units=1/GPa)
#
#
# Indices 1 2 3 4 5 6 
#
# 1 0.010197 -0.003248 -0.011855 0.000000 0.000000 0.000000
# 2 -0.003248 0.010210 0.002447 0.000000 0.000000 0.000000
# 3 -0.011855 0.002447 0.048588 0.000000 0.000000 0.000000
# 4 0.000000 0.000000 0.000000 0.672973 0.000000 0.000000
# 5 0.000000 0.000000 0.000000 0.000000 0.026638 0.000000
# 6 0.000000 0.000000 0.000000 0.000000 0.000000 0.052729
#
#
# Mechanical properties :
#
#
# Convention : Reuss Voigt Hill
#
# Bulk Modulus (GPa) = 22.89165 49.72931 36.31048
# Shear Modulus (GPa) = 5.80580 25.66068 15.73324
#
# Velocity S-wave (km/s) = 1.73447 3.64645 2.85526
# Velocity P-wave (km/s) = 3.98409 6.59522 5.44839
#
# Compressibility (1/GPa) = 0.04368405
#
# Stress axis : x y z
#
# Youngs Moduli (GPa) = 98.06523 97.94336 20.58117
#
# Poissons Ratio (x) = 0.31814 0.24398
# Poissons Ratio (y) = 0.31853 -0.05037
# Poissons Ratio (z) = 1.16253 -0.23968
#
# Static dielectric constant tensor:
#      x y z
#    x 1.725990 0.000000 0.000000 
#    y 0.000000 1.687690 0.000000 
#    z 0.000000 0.000000 1.690090 
# 
# From -- ./inp_files/48322.got.cif
#   From: 2010.05.17/outbox.cif.g08.bks.cpg/sg22_25_cif.got.tgz:48322.got - 2010.06.03 23:40:54.
