data_PCOD9326540
_publ_section_title
;
Structure prediction by ZEFSAII (Michael W. Deem and Ramdas Pophale) SiO2 
 PCOD9326540
Probable space group: F 2 2 2
;
_chemical_formula_sum "Si O2"
_cell_formula_units_Z 100
_cell_length_a 20.351193
_cell_length_b 28.050530
_cell_length_c 8.702695
_cell_angle_alpha 90.000000
_cell_angle_beta 90.000000
_cell_angle_gamma 90.000000
_cell_volume 4968.035696
_symmetry_space_group_name_H-M "F 2 2 2"
_symmetry_group_IT_number 22
_symmetry_cell_setting 'orthorhombic'
loop_
_space_group_symop_operation_xyz
x,y,z
-x,-y,z
x,-y,-z
-x,y,-z
x,1/2+y,1/2+z
-x,1/2-y,1/2+z
x,1/2-y,1/2-z
-x,1/2+y,1/2-z
1/2+x,y,1/2+z
1/2-x,-y,1/2+z
1/2+x,-y,1/2-z
1/2-x,y,1/2-z
1/2+x,1/2+y,z
1/2-x,1/2-y,z
1/2+x,1/2-y,-z
1/2-x,1/2+y,-z
loop_
_atom_site_type_symbol
_atom_site_label
_atom_site_fract_x
_atom_site_fract_y
_atom_site_fract_z
Si Si1 0.745002 0.868262 0.063225
Si Si2 0.935429 0.419963 0.209731
Si Si3 0.130811 0.204278 0.418417
Si Si4 0.000000 0.500000 0.000000
Si Si5 0.299452 0.458945 0.620376
Si Si6 0.500000 0.127545 0.500000
Si Si7 0.870050 0.809293 0.059118
Si Si8 0.000000 0.158884 0.500000
O O1 0.750000 0.873892 0.250000
O O2 0.683108 0.834260 0.020828
O O3 0.811256 0.842953 0.004802
O O4 0.734907 0.918737 0.983425
O O5 0.858683 0.432149 0.209063
O O6 0.962936 0.464888 0.115800
O O7 0.971042 0.407325 0.368760
O O8 0.956440 0.374349 0.109247
O O9 0.146040 0.201840 0.237130
O O10 0.133560 0.255275 0.503500
O O11 0.054487 0.190104 0.418689
O O12 0.321222 0.500000 0.500000
O O13 0.250000 0.478290 0.750000
O O14 0.561202 0.162456 0.543627
#
# Coordination Sequence:
#
# PCOD9326540 Si02
#       8
#    16  16  16   4  16   8  16   8
#     4  10  21  39  66  93 129 177 230 279 336 393
#     4  11  24  43  69  93 133 172 218 283 338 405
#     4  10  19  36  63  91 132 179 228 271 329 398
#     4  10  24  46  70  92 124 170 230 262 346 430
#     4  12  25  46  67  98 133 175 227 281 347 414
#     4  12  23  41  63 100 134 172 216 282 349 390
#     4  10  21  36  59  98 133 172 225 279 327 400
#     4  11  19  39  66  92 124 182 221 270 336 414
#
# _framework density 20.128681
#
# number of rings (size 3 to 8) (size 9 to 14) (size 15 to 20)
#    0.000    1.280    4.000    2.400    0.000    2.240 
#    5.760    0.000    0.000    0.960    0.000    0.000 
#    0.000    0.000    0.000    0.000    0.000    0.000 
#
# Total GULP energy -139260.535247 kJ/mol
# GULP energy per Si atom -5570.421410 kJ/mol
# Density = 2.008287 g / cm^3
# Si number density = 20.128681 Si / 1000 Ang^3
#
#
#
# Elastic Constant Matrix: (Units=GPa)
#
#
# Indices 1 2 3 4 5 6 
#
# 1 101.6621 29.3741 15.4897 0.0000 0.0000 0.0001
# 2 29.3741 107.8195 25.9932 0.0000 0.0000 0.0000
# 3 15.4897 25.9932 67.4178 0.0001 -0.0001 0.0002
# 4 0.0000 0.0000 0.0001 19.2466 0.0000 0.0002
# 5 0.0000 0.0000 -0.0001 0.0000 20.6407 -0.0001
# 6 0.0001 0.0000 0.0002 0.0002 -0.0001 72.8139
#
#
#
# Elastic Compliance Matrix: (Units=1/GPa)
#
#
# Indices 1 2 3 4 5 6 
#
# 1 0.010810 -0.002587 -0.001486 0.000000 0.000000 0.000000
# 2 -0.002587 0.010844 -0.003587 0.000000 0.000000 0.000000
# 3 -0.001486 -0.003587 0.016557 0.000000 0.000000 0.000000
# 4 0.000000 0.000000 0.000000 0.051957 0.000000 0.000000
# 5 0.000000 0.000000 0.000000 0.000000 0.048448 0.000000
# 6 0.000000 0.000000 0.000000 0.000000 0.000000 0.013734
#
#
# Mechanical properties :
#
#
# Convention : Reuss Voigt Hill
#
# Bulk Modulus (GPa) = 43.68331 46.51259 45.09795
# Shear Modulus (GPa) = 28.52235 36.27640 32.39937
#
# Velocity S-wave (km/s) = 3.76839 4.24987 4.01635
# Velocity P-wave (km/s) = 6.37836 6.87311 6.63035
#
# Compressibility (1/GPa) = 0.02289204
#
# Stress axis : x y z
#
# Youngs Moduli (GPa) = 92.50335 92.21535 60.39648
#
# Poissons Ratio (x) = 0.23854 0.08977
# Poissons Ratio (y) = 0.23929 0.21662
# Poissons Ratio (z) = 0.13750 0.33075
#
# Static dielectric constant tensor:
#      x y z
#    x 1.731900 0.000000 0.000000 
#    y 0.000000 1.738070 0.000000 
#    z 0.000000 0.000000 1.739960 
# 
# From -- ./inp_files/12989.got.cif
#   From: 2010.05.17/outbox.cif.g08.bks.cpg/sg22_7_cif.got.tgz:12989.got - 2010.06.03 23:40:54.
