data_PCOD9326475
_publ_section_title
;
Structure prediction by ZEFSAII (Michael W. Deem and Ramdas Pophale) SiO2 
 PCOD9326475
Probable space group: F 2 2 2
;
_chemical_formula_sum "Si O2"
_cell_formula_units_Z 72
_cell_length_a 21.614717
_cell_length_b 10.787032
_cell_length_c 18.090425
_cell_angle_alpha 90.000000
_cell_angle_beta 90.000000
_cell_angle_gamma 90.000000
_cell_volume 4217.938961
_symmetry_space_group_name_H-M "F 2 2 2"
_symmetry_group_IT_number 22
_symmetry_cell_setting 'orthorhombic'
loop_
_space_group_symop_operation_xyz
x,y,z
-x,-y,z
x,-y,-z
-x,y,-z
x,1/2+y,1/2+z
-x,1/2-y,1/2+z
x,1/2-y,1/2-z
-x,1/2+y,1/2-z
1/2+x,y,1/2+z
1/2-x,-y,1/2+z
1/2+x,-y,1/2-z
1/2-x,y,1/2-z
1/2+x,1/2+y,z
1/2-x,1/2-y,z
1/2+x,1/2-y,-z
1/2-x,1/2+y,-z
loop_
_atom_site_type_symbol
_atom_site_label
_atom_site_fract_x
_atom_site_fract_y
_atom_site_fract_z
Si Si1 0.312521 0.411292 0.430922
Si Si2 0.552309 0.102374 0.877700
Si Si3 0.500000 0.708570 0.000000
Si Si4 0.109971 0.250000 0.250000
Si Si5 0.681875 0.364669 0.886601
Si Si6 0.901910 0.500000 0.500000
O O1 0.298524 0.500000 0.500000
O O2 0.380596 0.449032 0.403212
O O3 0.318247 0.261035 0.437681
O O4 0.251605 0.415617 0.379262
O O5 0.567018 0.162189 0.798927
O O6 0.500000 0.000000 0.874730
O O7 0.527676 0.205499 0.935378
O O8 0.445182 0.615337 0.022856
O O9 0.152453 0.322810 0.309121
O O10 0.639794 0.460200 0.930886
#
# Coordination Sequence:
#
# PCOD9326475 Si02
#       6
#    16  16   8   8  16   8
#     4  10  19  35  59  88 116 148 195 251 303 358
#     4  11  23  37  60  85 122 157 198 248 314 372
#     4  11  21  36  58  88 119 153 198 246 302 363
#     4  10  22  41  56  88 118 165 200 252 310 369
#     4  10  21  36  60  87 117 151 202 250 304 355
#     4  11  20  36  58  88 115 158 196 254 289 366
#
# _framework density 17.069948
#
# number of rings (size 3 to 8) (size 9 to 14) (size 15 to 20)
#    0.000    1.556    5.556    1.667    0.000    8.889 
#    0.000    0.000    0.000    0.000    0.000    0.000 
#    0.000    0.000    0.000    0.000    0.000    0.000 
#
# Total GULP energy -100230.387974 kJ/mol
# GULP energy per Si atom -5568.354887 kJ/mol
# Density = 1.703110 g / cm^3
# Si number density = 17.069948 Si / 1000 Ang^3
#
#
#
# Elastic Constant Matrix: (Units=GPa)
#
#
# Indices 1 2 3 4 5 6 
#
# 1 172.8588 67.5872 54.7651 0.0000 0.0000 0.0000
# 2 67.5872 82.9625 66.4177 0.0000 0.0000 0.0000
# 3 54.7651 66.4177 96.5744 0.0000 0.0000 0.0000
# 4 0.0000 0.0000 0.0000 28.7843 0.0000 0.0000
# 5 0.0000 0.0000 0.0000 0.0000 20.8131 0.0000
# 6 0.0000 0.0000 0.0000 0.0000 0.0000 29.1802
#
#
#
# Elastic Compliance Matrix: (Units=1/GPa)
#
#
# Indices 1 2 3 4 5 6 
#
# 1 0.008490 -0.006814 -0.000128 0.000000 0.000000 0.000000
# 2 -0.006814 0.032289 -0.018342 0.000000 0.000000 0.000000
# 3 -0.000128 -0.018342 0.023042 0.000000 0.000000 0.000000
# 4 0.000000 0.000000 0.000000 0.034741 0.000000 0.000000
# 5 0.000000 0.000000 0.000000 0.000000 0.048047 0.000000
# 6 0.000000 0.000000 0.000000 0.000000 0.000000 0.034270
#
#
# Mechanical properties :
#
#
# Convention : Reuss Voigt Hill
#
# Bulk Modulus (GPa) = 75.45948 81.10398 78.28173
# Shear Modulus (GPa) = 21.19855 26.66392 23.93123
#
# Velocity S-wave (km/s) = 3.52783 3.95655 3.74833
# Velocity P-wave (km/s) = 7.80360 8.27576 8.04315
#
# Compressibility (1/GPa) = 0.01325214
#
# Stress axis : x y z
#
# Youngs Moduli (GPa) = 117.78746 30.97027 43.39844
#
# Poissons Ratio (x) = 0.21102 0.00557
# Poissons Ratio (y) = 0.80256 0.79603
# Poissons Ratio (z) = 0.01513 0.56807
#
# Static dielectric constant tensor:
#      x y z
#    x 1.617630 0.000000 0.000000 
#    y 0.000000 1.584760 0.000000 
#    z 0.000000 0.000000 1.563900 
# 
# From -- ./inp_files/22489.got.cif
#   From: 2010.05.17/outbox.cif.g08.bks.cpg/sg22_12_cif.got.tgz:22489.got - 2010.06.03 23:40:54.
