data_PCOD9326820
_publ_section_title
;
Structure prediction by ZEFSAII (Michael W. Deem and Ramdas Pophale) SiO2 
 PCOD9326820
Probable space group: F 2 2 2
;
_chemical_formula_sum "Si O2"
_cell_formula_units_Z 64
_cell_length_a 12.449967
_cell_length_b 17.109203
_cell_length_c 13.384255
_cell_angle_alpha 90.000000
_cell_angle_beta 90.000000
_cell_angle_gamma 90.000000
_cell_volume 2850.966944
_symmetry_space_group_name_H-M "F 2 2 2"
_symmetry_group_IT_number 22
_symmetry_cell_setting 'orthorhombic'
loop_
_space_group_symop_operation_xyz
x,y,z
-x,-y,z
x,-y,-z
-x,y,-z
x,1/2+y,1/2+z
-x,1/2-y,1/2+z
x,1/2-y,1/2-z
-x,1/2+y,1/2-z
1/2+x,y,1/2+z
1/2-x,-y,1/2+z
1/2+x,-y,1/2-z
1/2-x,y,1/2-z
1/2+x,1/2+y,z
1/2-x,1/2-y,z
1/2+x,1/2-y,-z
1/2-x,1/2+y,-z
loop_
_atom_site_type_symbol
_atom_site_label
_atom_site_fract_x
_atom_site_fract_y
_atom_site_fract_z
Si Si1 0.282068 0.127244 0.148466
Si Si2 0.257152 0.159518 0.910639
Si Si3 0.119906 0.485035 0.618288
Si Si4 0.515750 0.592868 0.613056
O O1 0.250000 0.169773 0.250000
O O2 0.409642 0.121978 0.165466
O O3 0.212627 0.045960 0.150675
O O4 0.262258 0.155136 0.033598
O O5 0.250000 0.250000 0.882976
O O6 0.160599 0.103956 0.873753
O O7 0.364809 0.120683 0.864334
O O8 0.111945 0.500000 0.500000
O O9 0.000000 0.500000 0.661142
O O10 0.500000 0.500000 0.611386
O O11 0.500000 0.621640 0.500000
#
# Coordination Sequence:
#
# PCOD9326820 Si02
#       4
#    16  16  16  16
#     4  10  20  35  58  91 122 156 199 251 304 359
#     4  10  20  37  63  90 117 155 205 252 296 356
#     4   9  18  36  57  83 115 158 208 243 288 362
#     4   9  16  33  60  88 111 155 212 245 283 359
#
# _framework density 22.448525
#
# number of rings (size 3 to 8) (size 9 to 14) (size 15 to 20)
#    0.000    2.500    2.500    0.000    0.000    1.500 
#   27.000    0.000    0.000    0.750    0.000    0.000 
#    0.000    0.000    0.000    0.000    0.000    0.000 
#
# Total GULP energy -89104.814232 kJ/mol
# GULP energy per Si atom -5569.050889 kJ/mol
# Density = 2.239743 g / cm^3
# Si number density = 22.448525 Si / 1000 Ang^3
#
#
#
# Elastic Constant Matrix: (Units=GPa)
#
#
# Indices 1 2 3 4 5 6 
#
# 1 186.0002 85.4695 33.2781 0.0000 0.0000 0.0000
# 2 85.4695 166.3768 4.5361 0.0000 0.0000 0.0000
# 3 33.2781 4.5361 106.1985 0.0000 0.0000 0.0000
# 4 0.0000 0.0000 0.0000 -14.5151 0.0000 0.0000
# 5 0.0000 0.0000 0.0000 0.0000 5.7741 0.0000
# 6 0.0000 0.0000 0.0000 0.0000 0.0000 14.0491
#
#
#
# Elastic Compliance Matrix: (Units=1/GPa)
#
#
# Indices 1 2 3 4 5 6 
#
# 1 0.007515 -0.003801 -0.002193 0.000000 0.000000 0.000000
# 2 -0.003801 0.007940 0.000852 0.000000 0.000000 0.000000
# 3 -0.002193 0.000852 0.010067 0.000000 0.000000 0.000000
# 4 0.000000 0.000000 0.000000 -0.068894 0.000000 0.000000
# 5 0.000000 0.000000 0.000000 0.000000 0.173188 0.000000
# 6 0.000000 0.000000 0.000000 0.000000 0.000000 0.071179
#
#
# Mechanical properties :
#
#
# Convention : Reuss Voigt Hill
#
# Bulk Modulus (GPa) = 65.62174 78.34922 71.98548
# Shear Modulus (GPa) = 23.10981 23.41439 23.26210
#
# Velocity S-wave (km/s) = 3.21200 3.23309 3.22256
# Velocity P-wave (km/s) = 6.56136 6.99390 6.78108
#
# Compressibility (1/GPa) = 0.01523885
#
# Stress axis : x y z
#
# Youngs Moduli (GPa) = 133.06442 125.94847 99.33437
#
# Poissons Ratio (x) = 0.47871 0.21780
# Poissons Ratio (y) = 0.50576 -0.08462
# Poissons Ratio (z) = 0.29176 -0.10729
#
# Static dielectric constant tensor:
#      x y z
#    x 1.756260 0.000000 0.000000 
#    y 0.000000 2.036350 0.000000 
#    z 0.000000 0.000000 1.869920 
# 
# From -- ./inp_files/19372.got.cif
#   From: 2010.05.17/outbox.cif.g08.bks.cpg/sg22_10_cif.got.tgz:19372.got - 2010.06.03 23:40:54.
