data_PCOD9326772
_publ_section_title
;
Structure prediction by ZEFSAII (Michael W. Deem and Ramdas Pophale) SiO2 
 PCOD9326772
Probable space group: F 2 2 2
;
_chemical_formula_sum "Si O2"
_cell_formula_units_Z 100
_cell_length_a 9.740436
_cell_length_b 20.707297
_cell_length_c 24.500201
_cell_angle_alpha 90.000000
_cell_angle_beta 90.000000
_cell_angle_gamma 90.000000
_cell_volume 4941.644020
_symmetry_space_group_name_H-M "F 2 2 2"
_symmetry_group_IT_number 22
_symmetry_cell_setting 'orthorhombic'
loop_
_space_group_symop_operation_xyz
x,y,z
-x,-y,z
x,-y,-z
-x,y,-z
x,1/2+y,1/2+z
-x,1/2-y,1/2+z
x,1/2-y,1/2-z
-x,1/2+y,1/2-z
1/2+x,y,1/2+z
1/2-x,-y,1/2+z
1/2+x,-y,1/2-z
1/2-x,y,1/2-z
1/2+x,1/2+y,z
1/2-x,1/2-y,z
1/2+x,1/2-y,-z
1/2-x,1/2+y,-z
loop_
_atom_site_type_symbol
_atom_site_label
_atom_site_fract_x
_atom_site_fract_y
_atom_site_fract_z
Si Si1 0.714212 0.948122 0.187672
Si Si2 0.277327 0.083061 0.863658
Si Si3 0.000000 0.000000 0.500000
Si Si4 0.985967 0.872218 0.153845
Si Si5 0.982281 0.124922 0.558504
Si Si6 0.963749 0.354865 0.218701
Si Si7 0.404758 0.735667 0.640636
O O1 0.750000 0.968701 0.250000
O O2 0.580974 0.903941 0.195446
O O3 0.842801 0.910457 0.161106
O O4 0.686494 0.010202 0.151680
O O5 0.114639 0.090001 0.871397
O O6 0.372951 0.108594 0.912376
O O7 0.324501 0.123870 0.810486
O O8 0.925476 0.946675 0.460350
O O9 0.026582 0.858353 0.216891
O O10 0.964309 0.804648 0.122740
O O11 0.000000 0.158135 0.500000
O O12 0.908602 0.176924 0.597246
O O13 0.008226 0.287752 0.192302
O O14 0.250000 0.750000 0.658201
#
# Coordination Sequence:
#
# PCOD9326772 Si02
#       7
#    16  16   4  16  16  16  16
#     4  10  20  34  56  89 132 177 210 246 304 377
#     4  11  22  36  61  91 125 163 219 268 319 362
#     4   8  20  44  68  92 110 144 218 276 334 396
#     4  11  22  36  55  93 137 166 203 256 310 376
#     4   9  23  42  65  93 111 154 210 275 327 384
#     4  10  21  34  58  86 127 181 213 248 292 379
#     4  11  22  39  61  90 123 173 214 246 316 387
#
# _framework density 20.236180000000001
#
# number of rings (size 3 to 8) (size 9 to 14) (size 15 to 20)
#    0.480    1.280    1.600    2.880    4.480    5.760 
#    2.880    3.200    0.000    0.000    0.000    0.000 
#    0.000    0.000    0.000    0.000    0.000    0.000 
#
# Total GULP energy -139296.804130 kJ/mol
# GULP energy per Si atom -5571.872165 kJ/mol
# Density = 2.019012 g / cm^3
# Si number density = 20.236180 Si / 1000 Ang^3
#
#
#
# Elastic Constant Matrix: (Units=GPa)
#
#
# Indices 1 2 3 4 5 6 
#
# 1 91.1041 25.7053 1.8532 0.0000 0.0000 0.0000
# 2 25.7053 87.5426 24.4744 0.0000 0.0000 0.0000
# 3 1.8532 24.4744 68.7416 0.0000 0.0000 0.0000
# 4 0.0000 0.0000 0.0000 31.4513 0.0000 0.0000
# 5 0.0000 0.0000 0.0000 0.0000 11.9551 0.0000
# 6 0.0000 0.0000 0.0000 0.0000 0.0000 19.6949
#
#
#
# Elastic Compliance Matrix: (Units=1/GPa)
#
#
# Indices 1 2 3 4 5 6 
#
# 1 0.012034 -0.003823 0.001037 0.000000 0.000000 0.000000
# 2 -0.003823 0.013901 -0.004846 0.000000 0.000000 0.000000
# 3 0.001037 -0.004846 0.016245 0.000000 0.000000 0.000000
# 4 0.000000 0.000000 0.000000 0.031795 0.000000 0.000000
# 5 0.000000 0.000000 0.000000 0.000000 0.083646 0.000000
# 6 0.000000 0.000000 0.000000 0.000000 0.000000 0.050775
#
#
# Mechanical properties :
#
#
# Convention : Reuss Voigt Hill
#
# Bulk Modulus (GPa) = 37.15527 39.05044 38.10286
# Shear Modulus (GPa) = 21.49321 25.64397 23.56859
#
# Velocity S-wave (km/s) = 3.26255 3.56368 3.41644
# Velocity P-wave (km/s) = 5.70903 6.02265 5.86794
#
# Compressibility (1/GPa) = 0.02691408
#
# Stress axis : x y z
#
# Youngs Moduli (GPa) = 83.09666 71.93979 61.55888
#
# Poissons Ratio (x) = 0.27506 -0.06383
# Poissons Ratio (y) = 0.31772 0.29831
# Poissons Ratio (z) = -0.08616 0.34862
#
# Static dielectric constant tensor:
#      x y z
#    x 1.723840 0.000000 0.000000 
#    y 0.000000 1.745810 0.000000 
#    z 0.000000 0.000000 1.751070 
# 
# From -- ./inp_files/51972.got.cif
#   From: 2010.05.17/outbox.cif.g08.bks.cpg/sg22_26_cif.got.tgz:51972.got - 2010.06.03 23:40:54.
