data_PCOD9326590
_publ_section_title
;
Structure prediction by ZEFSAII (Michael W. Deem and Ramdas Pophale) SiO2 
 PCOD9326590
Probable space group: F 2 2 2
;
_chemical_formula_sum "Si O2"
_cell_formula_units_Z 120
_cell_length_a 13.786812
_cell_length_b 20.523946
_cell_length_c 18.804081
_cell_angle_alpha 90.000000
_cell_angle_beta 90.000000
_cell_angle_gamma 90.000000
_cell_volume 5320.798717
_symmetry_space_group_name_H-M "F 2 2 2"
_symmetry_group_IT_number 22
_symmetry_cell_setting 'orthorhombic'
loop_
_space_group_symop_operation_xyz
x,y,z
-x,-y,z
x,-y,-z
-x,y,-z
x,1/2+y,1/2+z
-x,1/2-y,1/2+z
x,1/2-y,1/2-z
-x,1/2+y,1/2-z
1/2+x,y,1/2+z
1/2-x,-y,1/2+z
1/2+x,-y,1/2-z
1/2-x,y,1/2-z
1/2+x,1/2+y,z
1/2-x,1/2-y,z
1/2+x,1/2-y,-z
1/2-x,1/2+y,-z
loop_
_atom_site_type_symbol
_atom_site_label
_atom_site_fract_x
_atom_site_fract_y
_atom_site_fract_z
Si Si1 0.000000 0.106489 0.000000
Si Si2 0.316557 0.337743 0.528540
Si Si3 0.535757 0.204318 0.685261
Si Si4 0.720561 0.999917 0.332032
Si Si5 0.445455 0.068983 0.729581
Si Si6 0.873618 0.290824 0.416424
Si Si7 0.409685 0.951072 0.106880
Si Si8 0.665413 0.376941 0.907947
O O1 0.915067 0.078701 0.950970
O O2 0.061707 0.152436 0.948722
O O3 0.234337 0.321081 0.589333
O O4 0.367771 0.267794 0.526595
O O5 0.391567 0.393044 0.551818
O O6 0.253358 0.358111 0.460228
O O7 0.568035 0.250000 0.750000
O O8 0.505637 0.132476 0.711521
O O9 0.435808 0.232522 0.651018
O O10 0.616550 0.187630 0.625686
O O11 0.750000 0.002958 0.250000
O O12 0.693654 0.925623 0.346015
O O13 0.637352 0.055144 0.329735
O O14 0.806113 0.012864 0.387775
O O15 0.417528 0.076649 0.812582
O O16 0.500000 0.000000 0.728554
O O17 0.500000 0.000000 0.093662
#
# Coordination Sequence:
#
# PCOD9326590 Si02
#       8
#     8  16  16  16  16  16  16  16
#     4   8  18  38  62  89 119 160 224 272 342 396
#     4  10  20  40  62  89 133 180 231 278 348 420
#     4  11  21  37  66 107 135 166 226 289 355 427
#     4  10  21  40  62  93 136 178 224 276 350 414
#     4  10  19  37  66  98 138 179 216 280 360 416
#     4   9  19  37  62  88 128 171 215 278 347 410
#     4  10  22  39  61  93 132 180 228 281 341 419
#     4  10  21  40  63  93 130 175 225 288 335 416
#
# _framework density 22.553004999999999
#
# number of rings (size 3 to 8) (size 9 to 14) (size 15 to 20)
#    0.000    2.133    1.333    1.600    0.000    0.533 
#    2.400   11.333    0.000    0.000    0.000    0.000 
#    0.000    0.000    0.000    0.000    0.000    0.000 
#
# Total GULP energy -167156.178476 kJ/mol
# GULP energy per Si atom -5571.872616 kJ/mol
# Density = 2.250167 g / cm^3
# Si number density = 22.553005 Si / 1000 Ang^3
#
#
#
# Elastic Constant Matrix: (Units=GPa)
#
#
# Indices 1 2 3 4 5 6 
#
# 1 65.9687 37.8311 24.7223 0.0000 0.0000 0.0000
# 2 37.8311 99.3080 39.1146 0.0000 0.0000 0.0000
# 3 24.7223 39.1146 69.4617 0.0000 0.0000 0.0000
# 4 0.0000 0.0000 0.0000 6.3376 0.0000 0.0000
# 5 0.0000 0.0000 0.0000 0.0000 17.6854 0.0000
# 6 0.0000 0.0000 0.0000 0.0000 0.0000 15.4179
#
#
#
# Elastic Compliance Matrix: (Units=1/GPa)
#
#
# Indices 1 2 3 4 5 6 
#
# 1 0.020091 -0.006216 -0.003651 0.000000 0.000000 0.000000
# 2 -0.006216 0.014863 -0.006157 0.000000 0.000000 0.000000
# 3 -0.003651 -0.006157 0.019163 0.000000 0.000000 0.000000
# 4 0.000000 0.000000 0.000000 0.157788 0.000000 0.000000
# 5 0.000000 0.000000 0.000000 0.000000 0.056544 0.000000
# 6 0.000000 0.000000 0.000000 0.000000 0.000000 0.064860
#
#
# Mechanical properties :
#
#
# Convention : Reuss Voigt Hill
#
# Bulk Modulus (GPa) = 45.31052 48.67493 46.99272
# Shear Modulus (GPa) = 13.41517 16.75954 15.08736
#
# Velocity S-wave (km/s) = 2.44156 2.72898 2.58926
# Velocity P-wave (km/s) = 5.29930 5.61775 5.46084
#
# Compressibility (1/GPa) = 0.02206993
#
# Stress axis : x y z
#
# Youngs Moduli (GPa) = 49.77248 67.28257 52.18450
#
# Poissons Ratio (x) = 0.41822 0.19050
# Poissons Ratio (y) = 0.30938 0.32130
# Poissons Ratio (z) = 0.18170 0.41426
#
# Static dielectric constant tensor:
#      x y z
#    x 2.026420 0.000000 0.000000 
#    y 0.000000 1.831200 0.000000 
#    z 0.000000 0.000000 1.897320 
# 
# From -- ./inp_files/43774.got.cif
#   From: 2010.05.17/outbox.cif.g08.bks.cpg/sg22_22_cif.got.tgz:43774.got - 2010.06.03 23:40:54.
