data_PCOD9326035
_publ_section_title
;
Structure prediction by ZEFSAII (Michael W. Deem and Ramdas Pophale) SiO2 
 PCOD9326035
Probable space group: F 2 2 2
;
_chemical_formula_sum "Si O2"
_cell_formula_units_Z 104
_cell_length_a 20.693369
_cell_length_b 19.223785
_cell_length_c 13.761067
_cell_angle_alpha 90.000000
_cell_angle_beta 90.000000
_cell_angle_gamma 90.000000
_cell_volume 5474.219560
_symmetry_space_group_name_H-M "F 2 2 2"
_symmetry_group_IT_number 22
_symmetry_cell_setting 'orthorhombic'
loop_
_space_group_symop_operation_xyz
x,y,z
-x,-y,z
x,-y,-z
-x,y,-z
x,1/2+y,1/2+z
-x,1/2-y,1/2+z
x,1/2-y,1/2-z
-x,1/2+y,1/2-z
1/2+x,y,1/2+z
1/2-x,-y,1/2+z
1/2+x,-y,1/2-z
1/2-x,y,1/2-z
1/2+x,1/2+y,z
1/2-x,1/2-y,z
1/2+x,1/2-y,-z
1/2-x,1/2+y,-z
loop_
_atom_site_type_symbol
_atom_site_label
_atom_site_fract_x
_atom_site_fract_y
_atom_site_fract_z
Si Si1 0.000000 0.164556 0.500000
Si Si2 0.111638 0.669737 0.872410
Si Si3 0.283770 0.674122 0.465818
Si Si4 0.587831 0.835201 0.345765
Si Si5 0.396553 0.734657 0.361686
Si Si6 0.475343 0.571096 0.111655
Si Si7 0.850859 0.621435 0.542907
O O1 0.945829 0.130673 0.569332
O O2 0.956673 0.207469 0.423464
O O3 0.093669 0.752870 0.869233
O O4 0.116391 0.650261 0.760297
O O5 0.175808 0.661570 0.936124
O O6 0.250000 0.750000 0.475797
O O7 0.336628 0.681580 0.379941
O O8 0.226090 0.619738 0.449207
O O9 0.513734 0.863107 0.344580
O O10 0.626620 0.874904 0.430693
O O11 0.409416 0.750000 0.250000
O O12 0.373192 0.805163 0.411977
O O13 0.500000 0.500000 0.158352
O O14 0.398059 0.570556 0.102049
O O15 0.500000 0.572601 0.000000
#
# Coordination Sequence:
#
# PCOD9326035 Si02
#       7
#     8  16  16  16  16  16  16
#     4  10  18  28  40  66 104 136 166 200 254 318
#     4  10  19  28  45  73 109 136 162 204 263 347
#     4   9  17  32  41  69 106 140 167 197 247 330
#     4  10  18  29  48  71 104 135 166 208 274 310
#     4  10  20  28  45  68 106 143 168 204 256 327
#     4   9  19  33  50  74 101 131 181 228 269 301
#     4  10  18  30  48  69 103 137 166 215 260 312
#
# _framework density 18.998141
#
# number of rings (size 3 to 8) (size 9 to 14) (size 15 to 20)
#    0.000    2.308    4.615    0.923    6.462    3.385 
#    0.000    0.000    0.000    0.000    0.000   17.769 
#    0.000    0.000    0.000    0.000    0.000    0.000 
#
# Total GULP energy -144738.278931 kJ/mol
# GULP energy per Si atom -5566.856882 kJ/mol
# Density = 1.895490 g / cm^3
# Si number density = 18.998141 Si / 1000 Ang^3
#
#
#
# Elastic Constant Matrix: (Units=GPa)
#
#
# Indices 1 2 3 4 5 6 
#
# 1 148.9281 20.8013 37.4781 0.0000 0.0000 0.0000
# 2 20.8013 25.7721 1.3052 0.0000 0.0000 0.0000
# 3 37.4781 1.3052 106.0430 0.0000 0.0000 0.0000
# 4 0.0000 0.0000 0.0000 2.2433 0.0000 0.0000
# 5 0.0000 0.0000 0.0000 0.0000 12.0926 0.0000
# 6 0.0000 0.0000 0.0000 0.0000 0.0000 14.2141
#
#
#
# Elastic Compliance Matrix: (Units=1/GPa)
#
#
# Indices 1 2 3 4 5 6 
#
# 1 0.008360 -0.006602 -0.002873 0.000000 0.000000 0.000000
# 2 -0.006602 0.044040 0.001791 0.000000 0.000000 0.000000
# 3 -0.002873 0.001791 0.010424 0.000000 0.000000 0.000000
# 4 0.000000 0.000000 0.000000 0.445763 0.000000 0.000000
# 5 0.000000 0.000000 0.000000 0.000000 0.082695 0.000000
# 6 0.000000 0.000000 0.000000 0.000000 0.000000 0.070353
#
#
# Mechanical properties :
#
#
# Convention : Reuss Voigt Hill
#
# Bulk Modulus (GPa) = 21.07259 44.43470 32.75365
# Shear Modulus (GPa) = 7.21688 20.45393 13.83541
#
# Velocity S-wave (km/s) = 1.95115 3.28476 2.70154
# Velocity P-wave (km/s) = 4.02393 6.15028 5.19701
#
# Compressibility (1/GPa) = 0.04745500
#
# Stress axis : x y z
#
# Youngs Moduli (GPa) = 119.61961 22.70687 95.93625
#
# Poissons Ratio (x) = 0.14991 0.27565
# Poissons Ratio (y) = 0.78972 -0.17185
# Poissons Ratio (z) = 0.34370 -0.04067
#
# Static dielectric constant tensor:
#      x y z
#    x 1.739750 0.000000 0.000000 
#    y 0.000000 1.715610 0.000000 
#    z 0.000000 0.000000 1.663810 
# 
# From -- ./inp_files/31841.got.cif
#   From: 2010.05.17/outbox.cif.g08.bks.cpg/sg22_16_cif.got.tgz:31841.got - 2010.06.03 23:40:54.
