data_PCOD9326390
_publ_section_title
;
Structure prediction by ZEFSAII (Michael W. Deem and Ramdas Pophale) SiO2 
 PCOD9326390
Probable space group: F 2 2 2
;
_chemical_formula_sum "Si O2"
_cell_formula_units_Z 48
_cell_length_a 5.317123
_cell_length_b 13.895348
_cell_length_c 26.750443
_cell_angle_alpha 90.000000
_cell_angle_beta 90.000000
_cell_angle_gamma 90.000000
_cell_volume 1976.410322
_symmetry_space_group_name_H-M "F 2 2 2"
_symmetry_group_IT_number 22
_symmetry_cell_setting 'orthorhombic'
loop_
_space_group_symop_operation_xyz
x,y,z
-x,-y,z
x,-y,-z
-x,y,-z
x,1/2+y,1/2+z
-x,1/2-y,1/2+z
x,1/2-y,1/2-z
-x,1/2+y,1/2-z
1/2+x,y,1/2+z
1/2-x,-y,1/2+z
1/2+x,-y,1/2-z
1/2-x,y,1/2-z
1/2+x,1/2+y,z
1/2-x,1/2-y,z
1/2+x,1/2-y,-z
1/2-x,1/2+y,-z
loop_
_atom_site_type_symbol
_atom_site_label
_atom_site_fract_x
_atom_site_fract_y
_atom_site_fract_z
Si Si1 0.250000 0.059651 0.750000
Si Si2 0.793794 0.106652 0.898811
Si Si3 0.500000 0.186026 0.500000
Si Si4 0.787018 0.612220 0.858674
O O1 0.157341 0.112877 0.700078
O O2 0.500000 0.000000 0.734257
O O3 0.517481 0.149898 0.891493
O O4 0.009707 0.153556 0.865029
O O5 0.752326 0.997457 0.879397
O O6 0.902314 0.120677 0.954125
O O7 0.250000 0.250000 0.512156
#
# Coordination Sequence:
#
# PCOD9326390 Si02
#       4
#     8  16   8  16
#     4  12  16  30  54  96 136 144 172 214 310 408
#     4  10  20  36  55  82 116 150 195 243 294 348
#     4  12  26  43  58  77 110 170 224 252 282 332
#     4  10  19  33  59  94 122 146 175 236 312 364
#
# _framework density 24.286453999999999
#
# number of rings (size 3 to 8) (size 9 to 14) (size 15 to 20)
#    0.000    1.333    6.667    2.000    0.000    2.667 
#    0.000    6.667    0.000    0.000    0.000   28.000 
#    0.000    0.000    0.000    0.000    0.000    0.000 
#
# Total GULP energy -66915.844140 kJ/mol
# GULP energy per Si atom -5576.320345 kJ/mol
# Density = 2.423118 g / cm^3
# Si number density = 24.286454 Si / 1000 Ang^3
#
#
#
# Elastic Constant Matrix: (Units=GPa)
#
#
# Indices 1 2 3 4 5 6 
#
# 1 223.4914 2.4086 35.0924 0.0000 0.0000 0.0000
# 2 2.4086 100.2107 16.5381 0.0000 0.0000 0.0000
# 3 35.0924 16.5381 193.5285 0.0000 0.0000 0.0000
# 4 0.0000 0.0000 0.0000 3.9454 0.0000 0.0000
# 5 0.0000 0.0000 0.0000 0.0000 35.6022 0.0000
# 6 0.0000 0.0000 0.0000 0.0000 0.0000 -2.8841
#
#
#
# Elastic Compliance Matrix: (Units=1/GPa)
#
#
# Indices 1 2 3 4 5 6 
#
# 1 0.004606 0.000028 -0.000837 0.000000 0.000000 0.000000
# 2 0.000028 0.010122 -0.000870 0.000000 0.000000 0.000000
# 3 -0.000837 -0.000870 0.005393 0.000000 0.000000 0.000000
# 4 0.000000 0.000000 0.000000 0.253462 0.000000 0.000000
# 5 0.000000 0.000000 0.000000 0.000000 0.028088 0.000000
# 6 0.000000 0.000000 0.000000 0.000000 0.000000 -0.346728
#
#
# Mechanical properties :
#
#
# Convention : Reuss Voigt Hill
#
# Bulk Modulus (GPa) = 59.66207 69.47874 64.57041
# Shear Modulus (GPa) = -138.46372 38.21213 -50.12579
#
# Velocity S-wave (km/s) = -7.55887 3.97090 -4.54799
# Velocity P-wave (km/s) = 7.18072 7.04941 0.96655
#
# Compressibility (1/GPa) = 0.01676107
#
# Stress axis : x y z
#
# Youngs Moduli (GPa) = 217.12453 98.79584 185.41169
#
# Poissons Ratio (x) = -0.00272 0.15528
# Poissons Ratio (y) = -0.00597 0.16130
# Poissons Ratio (z) = 0.18184 0.08595
#
# Static dielectric constant tensor:
#      x y z
#    x 1.323820 0.000000 0.000000 
#    y 0.000000 2.463030 0.000000 
#    z 0.000000 0.000000 1.900350 
# 
# From -- ./inp_files/3265.got.cif
#   From: 2010.05.17/outbox.cif.g08.bks.cpg/sg22_2_cif.got.tgz:3265.got - 2010.06.03 23:40:54.
