data_PCOD9326212
_publ_section_title
;
Structure prediction by ZEFSAII (Michael W. Deem and Ramdas Pophale) SiO2 
 PCOD9326212
Probable space group: F 2 2 2
;
_chemical_formula_sum "Si O2"
_cell_formula_units_Z 80
_cell_length_a 10.512805
_cell_length_b 16.646389
_cell_length_c 24.128987
_cell_angle_alpha 90.000000
_cell_angle_beta 90.000000
_cell_angle_gamma 90.000000
_cell_volume 4222.578552
_symmetry_space_group_name_H-M "F 2 2 2"
_symmetry_group_IT_number 22
_symmetry_cell_setting 'orthorhombic'
loop_
_space_group_symop_operation_xyz
x,y,z
-x,-y,z
x,-y,-z
-x,y,-z
x,1/2+y,1/2+z
-x,1/2-y,1/2+z
x,1/2-y,1/2-z
-x,1/2+y,1/2-z
1/2+x,y,1/2+z
1/2-x,-y,1/2+z
1/2+x,-y,1/2-z
1/2-x,y,1/2-z
1/2+x,1/2+y,z
1/2-x,1/2-y,z
1/2+x,1/2-y,-z
1/2-x,1/2+y,-z
loop_
_atom_site_type_symbol
_atom_site_label
_atom_site_fract_x
_atom_site_fract_y
_atom_site_fract_z
Si Si1 0.250000 0.750000 0.533010
Si Si2 0.064550 0.085475 0.307431
Si Si3 0.388201 0.148218 0.545011
Si Si4 0.000000 0.500000 0.596604
Si Si5 0.967522 0.237960 0.623130
Si Si6 0.133135 0.385479 0.316257
O O1 0.269305 0.824295 0.491017
O O2 0.133279 0.771531 0.573186
O O3 0.002967 0.155311 0.345392
O O4 0.059101 0.098044 0.240972
O O5 0.217533 0.093504 0.315322
O O6 0.000000 0.000000 0.320434
O O7 0.500000 0.159159 0.500000
O O8 0.402435 0.056275 0.563247
O O9 0.418553 0.209324 0.595790
O O10 0.924458 0.438554 0.634828
O O11 0.894803 0.294013 0.667504
#
# Coordination Sequence:
#
# PCOD9326212 Si02
#       6
#     8  16  16   8  16  16
#     4  10  18  36  57  82 107 152 194 238 268 342
#     4  11  21  34  56  86 114 143 184 236 283 339
#     4   9  20  33  56  80 110 142 193 233 274 330
#     4  10  19  36  56  84 108 148 183 236 282 328
#     4  10  19  36  59  81 111 150 192 231 281 337
#     4  10  20  36  57  82 111 148 188 227 283 351
#
# _framework density 18.945768999999999
#
# number of rings (size 3 to 8) (size 9 to 14) (size 15 to 20)
#    0.000    2.000    3.000    0.900    0.000    3.200 
#    0.000    0.000    4.400    4.200    0.000    0.000 
#    0.000    0.000    0.000    0.000    0.000    0.000 
#
# Total GULP energy -111378.286328 kJ/mol
# GULP energy per Si atom -5568.914316 kJ/mol
# Density = 1.890265 g / cm^3
# Si number density = 18.945769 Si / 1000 Ang^3
#
#
#
# Elastic Constant Matrix: (Units=GPa)
#
#
# Indices 1 2 3 4 5 6 
#
# 1 10.4045 17.0359 6.5910 0.0000 0.0000 0.0000
# 2 17.0359 159.5156 62.9017 0.0000 0.0000 0.0000
# 3 6.5910 62.9017 79.3560 0.0000 0.0000 0.0000
# 4 0.0000 0.0000 0.0000 43.3261 0.0000 0.0000
# 5 0.0000 0.0000 0.0000 0.0000 -64.3614 0.0000
# 6 0.0000 0.0000 0.0000 0.0000 0.0000 24.3422
#
#
#
# Elastic Compliance Matrix: (Units=1/GPa)
#
#
# Indices 1 2 3 4 5 6 
#
# 1 0.116484 -0.012547 0.000271 0.000000 0.000000 0.000000
# 2 -0.012547 0.010471 -0.007258 0.000000 0.000000 0.000000
# 3 0.000271 -0.007258 0.018332 0.000000 0.000000 0.000000
# 4 0.000000 0.000000 0.000000 0.023081 0.000000 0.000000
# 5 0.000000 0.000000 0.000000 0.000000 -0.015537 0.000000
# 6 0.000000 0.000000 0.000000 0.000000 0.000000 0.041081
#
#
# Mechanical properties :
#
#
# Convention : Reuss Voigt Hill
#
# Bulk Modulus (GPa) = 9.41451 46.92593 28.17022
# Shear Modulus (GPa) = 18.62989 11.51121 15.07055
#
# Velocity S-wave (km/s) = 3.13921 2.46760 2.82345
# Velocity P-wave (km/s) = 4.25670 5.73943 5.05275
#
# Compressibility (1/GPa) = 0.10621902
#
# Stress axis : x y z
#
# Youngs Moduli (GPa) = 8.58484 95.50297 54.55008
#
# Poissons Ratio (x) = 1.19827 -0.01476
# Poissons Ratio (y) = 0.10771 0.39591
# Poissons Ratio (z) = -0.00232 0.69313
#
# Static dielectric constant tensor:
#      x y z
#    x 1.690910 0.000000 0.000000 
#    y 0.000000 2.740390 0.000000 
#    z 0.000000 0.000000 1.688720 
# 
# From -- ./inp_files/21520.got.cif
#   From: 2010.05.17/outbox.cif.g08.bks.cpg/sg22_11_cif.got.tgz:21520.got - 2010.06.03 23:40:54.
