data_PCOD9326706
_publ_section_title
;
Structure prediction by ZEFSAII (Michael W. Deem and Ramdas Pophale) SiO2 
 PCOD9326706
Probable space group: F 2 2 2
;
_chemical_formula_sum "Si O2"
_cell_formula_units_Z 56
_cell_length_a 27.490722
_cell_length_b 5.305734
_cell_length_c 18.592590
_cell_angle_alpha 90.000000
_cell_angle_beta 90.000000
_cell_angle_gamma 90.000000
_cell_volume 2711.886515
_symmetry_space_group_name_H-M "F 2 2 2"
_symmetry_group_IT_number 22
_symmetry_cell_setting 'orthorhombic'
loop_
_space_group_symop_operation_xyz
x,y,z
-x,-y,z
x,-y,-z
-x,y,-z
x,1/2+y,1/2+z
-x,1/2-y,1/2+z
x,1/2-y,1/2-z
-x,1/2+y,1/2-z
1/2+x,y,1/2+z
1/2-x,-y,1/2+z
1/2+x,-y,1/2-z
1/2-x,y,1/2-z
1/2+x,1/2+y,z
1/2-x,1/2-y,z
1/2+x,1/2-y,-z
1/2-x,1/2+y,-z
loop_
_atom_site_type_symbol
_atom_site_label
_atom_site_fract_x
_atom_site_fract_y
_atom_site_fract_z
Si Si1 0.166604 0.000000 0.500000
Si Si2 0.023172 0.248947 0.165714
Si Si3 0.694794 0.734498 0.642546
Si Si4 0.636619 0.751826 0.138837
O O1 0.196164 0.165924 0.557130
O O2 0.137022 0.181159 0.446534
O O3 0.008700 0.250000 0.250000
O O4 0.081199 0.241501 0.162615
O O5 0.000000 0.500000 0.133023
O O6 0.000000 0.000000 0.132225
O O7 0.750000 0.750000 0.668319
O O8 0.665074 0.492827 0.672701
O O9 0.665583 0.993630 0.651479
#
# Coordination Sequence:
#
# PCOD9326706 Si02
#       4
#     8  16  16  16
#     4   8  22  28  55  74 118 134 187 194 272 294
#     4  10  21  39  62  79  96 134 185 227 267 312
#     4  10  20  31  53  79 110 145 177 206 251 315
#     4  10  20  33  53  79 110 133 179 220 259 306
#
# _framework density 20.649832
#
# number of rings (size 3 to 8) (size 9 to 14) (size 15 to 20)
#    1.714    0.571    0.000    3.429    4.000    0.000 
#    0.000    0.714    0.000    5.143    0.000    0.000 
#    0.000    0.000    0.000    0.000    0.000    0.000 
#
# Total GULP energy -77973.052170 kJ/mol
# GULP energy per Si atom -5569.503726 kJ/mol
# Density = 2.060283 g / cm^3
# Si number density = 20.649832 Si / 1000 Ang^3
#
#
#
# Elastic Constant Matrix: (Units=GPa)
#
#
# Indices 1 2 3 4 5 6 
#
# 1 115.3873 109.1596 -32.1246 0.0003 0.0000 0.0002
# 2 109.1596 240.2435 1.7981 -0.0004 0.0004 0.0012
# 3 -32.1246 1.7981 54.8076 -0.0002 0.0001 0.0004
# 4 0.0003 -0.0004 -0.0002 -19.2489 0.0002 0.0011
# 5 0.0000 0.0004 0.0001 0.0002 25.8070 0.0000
# 6 0.0002 0.0012 0.0004 0.0011 0.0000 29.4758
#
#
#
# Elastic Compliance Matrix: (Units=1/GPa)
#
#
# Indices 1 2 3 4 5 6 
#
# 1 0.021747 -0.009979 0.013074 0.000000 0.000000 0.000000
# 2 -0.009979 0.008742 -0.006136 0.000000 0.000000 0.000000
# 3 0.013074 -0.006136 0.026110 0.000000 0.000000 0.000000
# 4 0.000000 0.000000 0.000000 -0.051951 0.000000 0.000002
# 5 0.000000 0.000000 0.000000 0.000000 0.038749 0.000000
# 6 0.000000 0.000000 0.000000 0.000002 0.000000 0.033926
#
#
# Mechanical properties :
#
#
# Convention : Reuss Voigt Hill
#
# Bulk Modulus (GPa) = 19.79517 63.12273 41.45895
# Shear Modulus (GPa) = 49.87816 29.31379 39.59598
#
# Velocity S-wave (km/s) = 4.92003 3.77180 4.38367
# Velocity P-wave (km/s) = 6.47167 7.04295 6.76335
#
# Compressibility (1/GPa) = 0.05051736
#
# Stress axis : x y z
#
# Youngs Moduli (GPa) = 45.98421 114.38410 38.29956
#
# Poissons Ratio (x) = 1.14142 -0.50072
# Poissons Ratio (y) = 0.45887 0.23500
# Poissons Ratio (z) = -0.60119 0.70184
#
# Static dielectric constant tensor:
#      x y z
#    x 1.669040 0.000000 0.000000 
#    y 0.000000 1.704180 0.000000 
#    z 0.000000 0.000000 1.753780 
# 
# From -- ./inp_files/3636.got.cif
#   From: 2010.05.17/outbox.cif.g08.bks.cpg/sg22_2_cif.got.tgz:3636.got - 2010.06.03 23:40:54.
