data_PCOD9326240
_publ_section_title
;
Structure prediction by ZEFSAII (Michael W. Deem and Ramdas Pophale) SiO2 
 PCOD9326240
Probable space group: F 2 2 2
;
_chemical_formula_sum "Si O2"
_cell_formula_units_Z 80
_cell_length_a 9.525445
_cell_length_b 26.691985
_cell_length_c 15.686136
_cell_angle_alpha 90.000000
_cell_angle_beta 90.000000
_cell_angle_gamma 90.000000
_cell_volume 3988.247686
_symmetry_space_group_name_H-M "F 2 2 2"
_symmetry_group_IT_number 22
_symmetry_cell_setting 'orthorhombic'
loop_
_space_group_symop_operation_xyz
x,y,z
-x,-y,z
x,-y,-z
-x,y,-z
x,1/2+y,1/2+z
-x,1/2-y,1/2+z
x,1/2-y,1/2-z
-x,1/2+y,1/2-z
1/2+x,y,1/2+z
1/2-x,-y,1/2+z
1/2+x,-y,1/2-z
1/2-x,y,1/2-z
1/2+x,1/2+y,z
1/2-x,1/2-y,z
1/2+x,1/2-y,-z
1/2-x,1/2+y,-z
loop_
_atom_site_type_symbol
_atom_site_label
_atom_site_fract_x
_atom_site_fract_y
_atom_site_fract_z
Si Si1 0.917210 0.756918 0.083111
Si Si2 0.098578 0.862747 0.846346
Si Si3 0.223270 0.000000 0.500000
Si Si4 0.934880 0.155931 0.660198
Si Si5 0.137833 0.473288 0.328174
Si Si6 0.000000 0.588670 0.000000
O O1 0.750000 0.750000 0.070497
O O2 0.954690 0.814352 0.103217
O O3 0.957957 0.715404 0.152750
O O4 0.000000 0.741150 0.000000
O O5 0.026165 0.861623 0.753863
O O6 0.266354 0.852295 0.843309
O O7 0.091598 0.920457 0.870604
O O8 0.303336 0.003195 0.590292
O O9 0.130041 0.949562 0.506287
O O10 0.000806 0.124025 0.583518
O O11 0.250000 0.466177 0.250000
O O12 0.000000 0.500000 0.291778
#
# Coordination Sequence:
#
# PCOD9326240 Si02
#       6
#    16  16   8  16  16   8
#     4  10  21  36  62  93 121 161 203 255 313 379
#     4  10  20  38  61  89 125 160 205 262 312 373
#     4  11  25  40  62  96 130 170 210 268 330 384
#     4  10  18  37  62  94 118 160 209 258 304 376
#     4  12  26  44  66  93 129 169 220 271 325 388
#     4  11  20  36  70  92 126 164 215 260 318 380
#
# _framework density 20.058935999999999
#
# number of rings (size 3 to 8) (size 9 to 14) (size 15 to 20)
#    0.000    1.400    5.000    0.900    5.600    4.000 
#    0.000    0.000    0.000    1.200    0.000    0.000 
#    0.000    0.000    0.000    0.000    0.000    0.000 
#
# Total GULP energy -111417.628122 kJ/mol
# GULP energy per Si atom -5570.881406 kJ/mol
# Density = 2.001328 g / cm^3
# Si number density = 20.058936 Si / 1000 Ang^3
#
#
#
# Elastic Constant Matrix: (Units=GPa)
#
#
# Indices 1 2 3 4 5 6 
#
# 1 33.7571 23.4728 17.8877 0.0000 0.0000 0.0000
# 2 23.4728 108.6606 3.3267 0.0000 0.0000 0.0000
# 3 17.8877 3.3267 75.1325 0.0000 0.0000 0.0000
# 4 0.0000 0.0000 0.0000 1.7423 0.0000 0.0000
# 5 0.0000 0.0000 0.0000 0.0000 29.5986 0.0000
# 6 0.0000 0.0000 0.0000 0.0000 0.0000 6.8005
#
#
#
# Elastic Compliance Matrix: (Units=1/GPa)
#
#
# Indices 1 2 3 4 5 6 
#
# 1 0.040391 -0.008442 -0.009243 0.000000 0.000000 0.000000
# 2 -0.008442 0.010980 0.001524 0.000000 0.000000 0.000000
# 3 -0.009243 0.001524 0.015443 0.000000 0.000000 0.000000
# 4 0.000000 0.000000 0.000000 0.573943 0.000000 0.000000
# 5 0.000000 0.000000 0.000000 0.000000 0.033785 0.000000
# 6 0.000000 0.000000 0.000000 0.000000 0.000000 0.147047
#
#
# Mechanical properties :
#
#
# Convention : Reuss Voigt Hill
#
# Bulk Modulus (GPa) = 28.99233 34.10271 31.54752
# Shear Modulus (GPa) = 5.77761 19.15249 12.46505
#
# Velocity S-wave (km/s) = 1.69899 3.09335 2.49554
# Velocity P-wave (km/s) = 4.28179 5.45863 4.90563
#
# Compressibility (1/GPa) = 0.03449188
#
# Stress axis : x y z
#
# Youngs Moduli (GPa) = 24.75772 91.07437 64.75481
#
# Poissons Ratio (x) = 0.76888 0.59851
# Poissons Ratio (y) = 0.20901 -0.09867
# Poissons Ratio (z) = 0.22883 -0.13878
#
# Static dielectric constant tensor:
#      x y z
#    x 1.817170 0.000000 0.000000 
#    y 0.000000 1.722120 0.000000 
#    z 0.000000 0.000000 1.710500 
# 
# From -- ./inp_files/28146.got.cif
#   From: 2010.05.17/outbox.cif.g08.bks.cpg/sg22_15_cif.got.tgz:28146.got - 2010.06.03 23:40:54.
