data_PCOD9326376
_publ_section_title
;
Structure prediction by ZEFSAII (Michael W. Deem and Ramdas Pophale) SiO2 
 PCOD9326376
Probable space group: F 2 2 2
;
_chemical_formula_sum "Si O2"
_cell_formula_units_Z 120
_cell_length_a 29.724776
_cell_length_b 15.230729
_cell_length_c 14.131246
_cell_angle_alpha 90.000000
_cell_angle_beta 90.000000
_cell_angle_gamma 90.000000
_cell_volume 6397.639112
_symmetry_space_group_name_H-M "F 2 2 2"
_symmetry_group_IT_number 22
_symmetry_cell_setting 'orthorhombic'
loop_
_space_group_symop_operation_xyz
x,y,z
-x,-y,z
x,-y,-z
-x,y,-z
x,1/2+y,1/2+z
-x,1/2-y,1/2+z
x,1/2-y,1/2-z
-x,1/2+y,1/2-z
1/2+x,y,1/2+z
1/2-x,-y,1/2+z
1/2+x,-y,1/2-z
1/2-x,y,1/2-z
1/2+x,1/2+y,z
1/2-x,1/2-y,z
1/2+x,1/2-y,-z
1/2-x,1/2+y,-z
loop_
_atom_site_type_symbol
_atom_site_label
_atom_site_fract_x
_atom_site_fract_y
_atom_site_fract_z
Si Si1 0.902385 0.603664 0.011569
Si Si2 0.072640 0.163579 0.693016
Si Si3 0.296798 0.358698 0.032495
Si Si4 0.093358 0.481431 0.294274
Si Si5 0.131278 0.500000 0.500000
Si Si6 0.829040 0.151035 0.754131
Si Si7 0.300574 0.845441 0.949889
Si Si8 0.522682 0.092352 0.836203
O O1 0.910625 0.655441 0.914487
O O2 0.909727 0.500000 0.000000
O O3 0.849774 0.615777 0.033833
O O4 0.939720 0.627766 0.090810
O O5 0.085714 0.250000 0.750000
O O6 0.018632 0.155764 0.683856
O O7 0.090363 0.077756 0.748713
O O8 0.334908 0.417836 0.985047
O O9 0.305796 0.364506 0.145265
O O10 0.301782 0.255030 0.014008
O O11 0.245492 0.385876 0.009981
O O12 0.102225 0.485204 0.405928
O O13 0.133601 0.424474 0.248623
O O14 0.048228 0.433204 0.260231
O O15 0.849685 0.250000 0.750000
O O16 0.796428 0.151691 0.664272
O O17 0.500000 0.000000 0.871837
#
# Coordination Sequence:
#
# PCOD9326376 Si02
#       8
#    16  16  16  16   8  16  16  16
#     4  12  21  37  67  91 115 158 210 263 306 359
#     4  11  25  40  59  90 124 161 196 252 314 366
#     4   9  20  34  53  82 124 157 187 246 300 359
#     4  10  20  39  60  83 121 156 201 244 303 367
#     4  10  22  38  57  82 116 170 191 228 306 372
#     4   9  16  32  57  87 115 150 197 254 308 350
#     4  10  19  33  56  90 114 146 200 252 300 352
#     4  10  20  40  63  86 116 150 202 269 311 352
#
# _framework density 18.756919
#
# number of rings (size 3 to 8) (size 9 to 14) (size 15 to 20)
#    0.000    1.867    4.000    0.800    2.800    2.133 
#    2.400    4.333    0.000    0.000    0.000    0.000 
#    0.000    0.000    0.000    0.000    0.000    0.000 
#
# Total GULP energy -167199.196187 kJ/mol
# GULP energy per Si atom -5573.306540 kJ/mol
# Density = 1.871423 g / cm^3
# Si number density = 18.756919 Si / 1000 Ang^3
#
#
#
# Elastic Constant Matrix: (Units=GPa)
#
#
# Indices 1 2 3 4 5 6 
#
# 1 108.5171 23.1416 38.4514 0.0000 0.0000 0.0000
# 2 23.1416 55.0947 19.0026 0.0000 0.0000 0.0000
# 3 38.4514 19.0026 89.5521 0.0000 0.0000 0.0000
# 4 0.0000 0.0000 0.0000 23.5748 0.0000 0.0000
# 5 0.0000 0.0000 0.0000 0.0000 12.0403 0.0000
# 6 0.0000 0.0000 0.0000 0.0000 0.0000 25.4014
#
#
#
# Elastic Compliance Matrix: (Units=1/GPa)
#
#
# Indices 1 2 3 4 5 6 
#
# 1 0.011414 -0.003349 -0.004190 0.000000 0.000000 0.000000
# 2 -0.003349 0.020567 -0.002926 0.000000 0.000000 0.000000
# 3 -0.004190 -0.002926 0.013587 0.000000 0.000000 0.000000
# 4 0.000000 0.000000 0.000000 0.042418 0.000000 0.000000
# 5 0.000000 0.000000 0.000000 0.000000 0.083055 0.000000
# 6 0.000000 0.000000 0.000000 0.000000 0.000000 0.039368
#
#
# Mechanical properties :
#
#
# Convention : Reuss Voigt Hill
#
# Bulk Modulus (GPa) = 40.59017 46.03947 43.31482
# Shear Modulus (GPa) = 20.87235 23.70783 22.29009
#
# Velocity S-wave (km/s) = 3.33946 3.55907 3.45101
# Velocity P-wave (km/s) = 6.04619 6.44111 6.24677
#
# Compressibility (1/GPa) = 0.02463650
#
# Stress axis : x y z
#
# Youngs Moduli (GPa) = 87.61102 48.62268 73.60092
#
# Poissons Ratio (x) = 0.16284 0.30841
# Poissons Ratio (y) = 0.29341 0.21537
# Poissons Ratio (z) = 0.36711 0.14228
#
# Static dielectric constant tensor:
#      x y z
#    x 1.673360 0.000000 0.000000 
#    y 0.000000 1.676710 0.000000 
#    z 0.000000 0.000000 1.664350 
# 
# From -- ./inp_files/33625.got.cif
#   From: 2010.05.17/outbox.cif.g08.bks.cpg/sg22_17_cif.got.tgz:33625.got - 2010.06.03 23:40:54.
