data_PCOD9326605
_publ_section_title
;
Structure prediction by ZEFSAII (Michael W. Deem and Ramdas Pophale) SiO2 
 PCOD9326605
Probable space group: F 2 2 2
;
_chemical_formula_sum "Si O2"
_cell_formula_units_Z 88
_cell_length_a 11.618371
_cell_length_b 15.353934
_cell_length_c 22.170674
_cell_angle_alpha 90.000000
_cell_angle_beta 90.000000
_cell_angle_gamma 90.000000
_cell_volume 3954.975576
_symmetry_space_group_name_H-M "F 2 2 2"
_symmetry_group_IT_number 22
_symmetry_cell_setting 'orthorhombic'
loop_
_space_group_symop_operation_xyz
x,y,z
-x,-y,z
x,-y,-z
-x,y,-z
x,1/2+y,1/2+z
-x,1/2-y,1/2+z
x,1/2-y,1/2-z
-x,1/2+y,1/2-z
1/2+x,y,1/2+z
1/2-x,-y,1/2+z
1/2+x,-y,1/2-z
1/2-x,y,1/2-z
1/2+x,1/2+y,z
1/2-x,1/2-y,z
1/2+x,1/2-y,-z
1/2-x,1/2+y,-z
loop_
_atom_site_type_symbol
_atom_site_label
_atom_site_fract_x
_atom_site_fract_y
_atom_site_fract_z
Si Si1 0.383542 0.763540 0.128811
Si Si2 0.750000 0.750000 0.108114
Si Si3 0.000000 0.500000 0.337892
Si Si4 0.194467 0.500000 0.000000
Si Si5 0.917583 0.822591 0.201007
Si Si6 0.948370 0.874552 0.434448
Si Si7 0.099719 0.105152 0.950240
O O1 0.250000 0.750000 0.144528
O O2 0.462556 0.718427 0.178631
O O3 0.450064 0.853705 0.113463
O O4 0.398749 0.704971 0.068969
O O5 0.821612 0.816802 0.149150
O O6 0.848513 0.696503 0.075280
O O7 0.942006 0.573904 0.295454
O O8 0.921137 0.448780 0.387829
O O9 0.118707 0.465870 0.056076
O O10 0.280267 0.575597 0.021539
O O11 0.880217 0.750000 0.250000
O O12 0.000000 0.863001 0.500000
O O13 0.000000 0.091707 0.000000
#
# Coordination Sequence:
#
# PCOD9326605 Si02
#       7
#    16   8   8   8  16  16  16
#     4  10  23  40  61  91 133 178 226 271 335 410
#     4  10  23  42  68  96 134 174 229 280 340 414
#     4  10  19  38  62 102 132 166 231 278 332 420
#     4  12  22  34  58  92 142 175 219 264 328 378
#     4  10  22  42  74  96 128 170 231 295 350 401
#     4  11  24  36  57  92 133 179 214 263 327 399
#     4  11  20  34  62  98 136 186 222 265 329 428
#
# _framework density 22.250453
#
# number of rings (size 3 to 8) (size 9 to 14) (size 15 to 20)
#    0.000    1.455    1.818    3.273    8.909    0.364 
#    0.000    0.000   40.000    0.000    0.000    0.000 
#    0.000    0.000    0.000    0.000    0.000    0.000 
#
# Total GULP energy -122585.596536 kJ/mol
# GULP energy per Si atom -5572.072570 kJ/mol
# Density = 2.219981 g / cm^3
# Si number density = 22.250453 Si / 1000 Ang^3
#
#
#
# Elastic Constant Matrix: (Units=GPa)
#
#
# Indices 1 2 3 4 5 6 
#
# 1 156.4911 20.2432 16.0483 0.0000 0.0000 0.0000
# 2 20.2432 107.2322 15.8522 0.0000 0.0000 0.0000
# 3 16.0483 15.8522 33.5330 0.0000 0.0000 0.0000
# 4 0.0000 0.0000 0.0000 22.1032 0.0000 0.0000
# 5 0.0000 0.0000 0.0000 0.0000 8.2620 0.0000
# 6 0.0000 0.0000 0.0000 0.0000 0.0000 9.8863
#
#
#
# Elastic Compliance Matrix: (Units=1/GPa)
#
#
# Indices 1 2 3 4 5 6 
#
# 1 0.006793 -0.000862 -0.002844 0.000000 0.000000 0.000000
# 2 -0.000862 0.010136 -0.004379 0.000000 0.000000 0.000000
# 3 -0.002844 -0.004379 0.033252 0.000000 0.000000 0.000000
# 4 0.000000 0.000000 0.000000 0.045242 0.000000 0.000000
# 5 0.000000 0.000000 0.000000 0.000000 0.121036 0.000000
# 6 0.000000 0.000000 0.000000 0.000000 0.000000 0.101150
#
#
# Mechanical properties :
#
#
# Convention : Reuss Voigt Hill
#
# Bulk Modulus (GPa) = 29.40131 44.61598 37.00864
# Shear Modulus (GPa) = 14.48785 24.39112 19.43948
#
# Velocity S-wave (km/s) = 2.55449 3.31449 2.95899
# Velocity P-wave (km/s) = 4.68434 5.89433 5.32382
#
# Compressibility (1/GPa) = 0.03401209
#
# Stress axis : x y z
#
# Youngs Moduli (GPa) = 147.20454 98.66187 30.07309
#
# Poissons Ratio (x) = 0.08505 0.08552
# Poissons Ratio (y) = 0.12690 0.13169
# Poissons Ratio (z) = 0.41859 0.43203
#
# Static dielectric constant tensor:
#      x y z
#    x 1.905250 0.000000 0.000000 
#    y 0.000000 1.941200 0.000000 
#    z 0.000000 0.000000 1.855160 
# 
# From -- ./inp_files/48073.got.cif
#   From: 2010.05.17/outbox.cif.g08.bks.cpg/sg22_25_cif.got.tgz:48073.got - 2010.06.03 23:40:54.
