data_PCOD9326843
_publ_section_title
;
Structure prediction by ZEFSAII (Michael W. Deem and Ramdas Pophale) SiO2 
 PCOD9326843
Probable space group: F 2 2 2
;
_chemical_formula_sum "Si O2"
_cell_formula_units_Z 88
_cell_length_a 12.470846
_cell_length_b 27.431785
_cell_length_c 12.458983
_cell_angle_alpha 90.000000
_cell_angle_beta 90.000000
_cell_angle_gamma 90.000000
_cell_volume 4262.187762
_symmetry_space_group_name_H-M "F 2 2 2"
_symmetry_group_IT_number 22
_symmetry_cell_setting 'orthorhombic'
loop_
_space_group_symop_operation_xyz
x,y,z
-x,-y,z
x,-y,-z
-x,y,-z
x,1/2+y,1/2+z
-x,1/2-y,1/2+z
x,1/2-y,1/2-z
-x,1/2+y,1/2-z
1/2+x,y,1/2+z
1/2-x,-y,1/2+z
1/2+x,-y,1/2-z
1/2-x,y,1/2-z
1/2+x,1/2+y,z
1/2-x,1/2-y,z
1/2+x,1/2-y,-z
1/2-x,1/2+y,-z
loop_
_atom_site_type_symbol
_atom_site_label
_atom_site_fract_x
_atom_site_fract_y
_atom_site_fract_z
Si Si1 0.175779 0.850258 0.000824
Si Si2 0.866883 0.196366 0.795084
Si Si3 0.917016 0.447246 0.597748
Si Si4 0.761850 0.000000 0.500000
Si Si5 0.618478 0.601195 0.549334
Si Si6 0.051234 0.119436 0.781178
O O1 0.139623 0.805765 0.925804
O O2 0.140331 0.896599 0.929950
O O3 0.302764 0.856424 0.007597
O O4 0.117359 0.860676 0.114876
O O5 0.887386 0.250000 0.750000
O O6 0.750000 0.181000 0.750000
O O7 0.960152 0.159740 0.759190
O O8 0.822987 0.486866 0.595813
O O9 0.000000 0.453709 0.500000
O O10 0.991585 0.432455 0.696033
O O11 0.830364 0.048050 0.476285
O O12 0.500000 0.603680 0.500000
O O13 0.618946 0.609900 0.676342
#
# Coordination Sequence:
#
# PCOD9326843 Si02
#       6
#    16  16  16   8  16  16
#     4   9  19  38  61  86 120 158 202 255 312 377
#     4  10  20  37  63  96 123 154 201 248 305 387
#     4   8  16  33  57  80 109 154 202 247 298 369
#     4  10  20  36  54  84 126 160 208 266 312 364
#     4  11  22  38  58  84 123 168 214 265 321 374
#     4  10  20  39  64  86 118 165 209 256 321 378
#
# _framework density 20.646671999999999
#
# number of rings (size 3 to 8) (size 9 to 14) (size 15 to 20)
#    0.000    2.364    0.000    3.818    0.000    0.000 
#    0.000   27.273    0.000    5.455    0.000    0.000 
#    0.000    0.000    0.000    0.000    0.000    0.000 
#
# Total GULP energy -122533.827322 kJ/mol
# GULP energy per Si atom -5569.719424 kJ/mol
# Density = 2.059968 g / cm^3
# Si number density = 20.646672 Si / 1000 Ang^3
#
#
#
# Elastic Constant Matrix: (Units=GPa)
#
#
# Indices 1 2 3 4 5 6 
#
# 1 104.2037 35.8338 16.0169 0.0000 0.0000 0.0000
# 2 35.8338 75.0402 26.5753 0.0000 0.0000 0.0000
# 3 16.0169 26.5753 84.8091 0.0000 0.0000 0.0000
# 4 0.0000 0.0000 0.0000 5.2302 0.0000 0.0000
# 5 0.0000 0.0000 0.0000 0.0000 26.3144 0.0000
# 6 0.0000 0.0000 0.0000 0.0000 0.0000 20.4710
#
#
#
# Elastic Compliance Matrix: (Units=1/GPa)
#
#
# Indices 1 2 3 4 5 6 
#
# 1 0.011501 -0.005313 -0.000507 0.000000 0.000000 0.000000
# 2 -0.005313 0.017444 -0.004463 0.000000 0.000000 0.000000
# 3 -0.000507 -0.004463 0.013285 0.000000 0.000000 0.000000
# 4 0.000000 0.000000 0.000000 0.191197 0.000000 0.000000
# 5 0.000000 0.000000 0.000000 0.000000 0.038002 0.000000
# 6 0.000000 0.000000 0.000000 0.000000 0.000000 0.048850
#
#
# Mechanical properties :
#
#
# Convention : Reuss Voigt Hill
#
# Bulk Modulus (GPa) = 46.15727 46.76723 46.46225
# Shear Modulus (GPa) = 14.36509 22.77825 18.57167
#
# Velocity S-wave (km/s) = 2.64058 3.32511 3.00242
# Velocity P-wave (km/s) = 5.63039 6.11900 5.87977
#
# Compressibility (1/GPa) = 0.02166506
#
# Stress axis : x y z
#
# Youngs Moduli (GPa) = 86.94525 57.32780 75.27041
#
# Poissons Ratio (x) = 0.30456 0.03819
# Poissons Ratio (y) = 0.46190 0.33591
# Poissons Ratio (z) = 0.04412 0.25584
#
# Static dielectric constant tensor:
#      x y z
#    x 1.784020 0.000000 0.000000 
#    y 0.000000 1.812960 0.000000 
#    z 0.000000 0.000000 1.794490 
# 
# From -- ./inp_files/18392.got.cif
#   From: 2010.05.17/outbox.cif.g08.bks.cpg/sg22_10_cif.got.tgz:18392.got - 2010.06.03 23:40:54.
