data_PCOD9326096
_publ_section_title
;
Structure prediction by ZEFSAII (Michael W. Deem and Ramdas Pophale) SiO2 
 PCOD9326096
Probable space group: F 2 2 2
;
_chemical_formula_sum "Si O2"
_cell_formula_units_Z 120
_cell_length_a 13.801686
_cell_length_b 33.320771
_cell_length_c 13.930863
_cell_angle_alpha 90.000000
_cell_angle_beta 90.000000
_cell_angle_gamma 90.000000
_cell_volume 6406.564542
_symmetry_space_group_name_H-M "F 2 2 2"
_symmetry_group_IT_number 22
_symmetry_cell_setting 'orthorhombic'
loop_
_space_group_symop_operation_xyz
x,y,z
-x,-y,z
x,-y,-z
-x,y,-z
x,1/2+y,1/2+z
-x,1/2-y,1/2+z
x,1/2-y,1/2-z
-x,1/2+y,1/2-z
1/2+x,y,1/2+z
1/2-x,-y,1/2+z
1/2+x,-y,1/2-z
1/2-x,y,1/2-z
1/2+x,1/2+y,z
1/2-x,1/2-y,z
1/2+x,1/2-y,-z
1/2-x,1/2+y,-z
loop_
_atom_site_type_symbol
_atom_site_label
_atom_site_fract_x
_atom_site_fract_y
_atom_site_fract_z
Si Si1 0.142598 0.478873 0.706429
Si Si2 0.251177 0.702163 0.135292
Si Si3 0.414741 0.143836 0.579266
Si Si4 0.362010 0.431738 0.227131
Si Si5 0.110054 0.641805 0.037434
Si Si6 0.044646 0.602429 0.227559
Si Si7 0.723825 0.912007 0.468692
Si Si8 0.789477 0.500000 0.500000
O O1 0.250000 0.472857 0.750000
O O2 0.108358 0.522146 0.743789
O O3 0.083024 0.439979 0.732886
O O4 0.149417 0.487574 0.592971
O O5 0.250000 0.691664 0.250000
O O6 0.250000 0.750000 0.127782
O O7 0.346966 0.682929 0.087308
O O8 0.161710 0.681781 0.078420
O O9 0.500000 0.146833 0.500000
O O10 0.448761 0.134343 0.686886
O O11 0.342192 0.107037 0.552410
O O12 0.250000 0.429175 0.250000
O O13 0.431236 0.404351 0.288875
O O14 0.355581 0.416905 0.116923
O O15 0.100528 0.614101 0.132362
O O16 0.185814 0.618793 0.967073
O O17 0.000000 0.647677 0.000000
O O18 0.763618 0.957761 0.478792
#
# Coordination Sequence:
#
# PCOD9326096 Si02
#       8
#    16  16  16  16  16  16  16   8
#     4  10  21  33  52  79 114 158 205 256 313 345
#     4  10  22  42  68  95 123 155 194 242 304 375
#     4  11  21  36  59  94 116 151 192 247 305 359
#     4  10  21  36  50  74 117 162 204 249 295 347
#     4  11  24  40  63  91 120 161 203 246 306 370
#     4  12  21  35  58  86 116 158 202 258 294 362
#     4  10  20  35  53  81 117 154 202 247 295 350
#     4  10  18  32  52  78 116 156 200 260 300 344
#
# _framework density 18.730786999999999
#
# number of rings (size 3 to 8) (size 9 to 14) (size 15 to 20)
#    0.000    1.467    4.000    2.000    1.867    0.533 
#    0.000    2.667    0.000    0.000    0.000    0.933 
#    0.000    0.000    0.000    0.000    0.000    0.000 
#
# Total GULP energy -167066.562835 kJ/mol
# GULP energy per Si atom -5568.885428 kJ/mol
# Density = 1.868816 g / cm^3
# Si number density = 18.730787 Si / 1000 Ang^3
#
#
#
# Elastic Constant Matrix: (Units=GPa)
#
#
# Indices 1 2 3 4 5 6 
#
# 1 92.1089 45.1052 18.9180 0.0000 0.0000 0.0000
# 2 45.1052 102.3513 21.0215 0.0000 0.0000 0.0000
# 3 18.9180 21.0215 57.1078 0.0000 0.0000 0.0000
# 4 0.0000 0.0000 0.0000 24.2381 0.0000 0.0000
# 5 0.0000 0.0000 0.0000 0.0000 24.3188 0.0000
# 6 0.0000 0.0000 0.0000 0.0000 0.0000 21.8345
#
#
#
# Elastic Compliance Matrix: (Units=1/GPa)
#
#
# Indices 1 2 3 4 5 6 
#
# 1 0.014191 -0.005721 -0.002595 0.000000 0.000000 0.000000
# 2 -0.005721 0.012876 -0.002844 0.000000 0.000000 0.000000
# 3 -0.002595 -0.002844 0.019417 0.000000 0.000000 0.000000
# 4 0.000000 0.000000 0.000000 0.041257 0.000000 0.000000
# 5 0.000000 0.000000 0.000000 0.000000 0.041120 0.000000
# 6 0.000000 0.000000 0.000000 0.000000 0.000000 0.045799
#
#
# Mechanical properties :
#
#
# Convention : Reuss Voigt Hill
#
# Bulk Modulus (GPa) = 41.38511 46.85083 44.11797
# Shear Modulus (GPa) = 24.38587 25.17983 24.78285
#
# Velocity S-wave (km/s) = 3.61212 3.67045 3.64140
# Velocity P-wave (km/s) = 6.28802 6.55972 6.42531
#
# Compressibility (1/GPa) = 0.02416328
#
# Stress axis : x y z
#
# Youngs Moduli (GPa) = 70.46603 77.66610 51.50001
#
# Poissons Ratio (x) = 0.44432 0.13365
# Poissons Ratio (y) = 0.40313 0.14649
# Poissons Ratio (z) = 0.18287 0.22091
#
# Static dielectric constant tensor:
#      x y z
#    x 1.728420 0.000000 0.000000 
#    y 0.000000 1.642360 0.000000 
#    z 0.000000 0.000000 1.751790 
# 
# From -- ./inp_files/29857.got.cif
#   From: 2010.05.17/outbox.cif.g08.bks.cpg/sg22_15_cif.got.tgz:29857.got - 2010.06.03 23:40:54.
