data_PCOD9326658
_publ_section_title
;
Structure prediction by ZEFSAII (Michael W. Deem and Ramdas Pophale) SiO2 
 PCOD9326658
Probable space group: F 2 2 2
;
_chemical_formula_sum "Si O2"
_cell_formula_units_Z 120
_cell_length_a 12.601232
_cell_length_b 22.974376
_cell_length_c 20.314019
_cell_angle_alpha 90.000000
_cell_angle_beta 90.000000
_cell_angle_gamma 90.000000
_cell_volume 5881.019050
_symmetry_space_group_name_H-M "F 2 2 2"
_symmetry_group_IT_number 22
_symmetry_cell_setting 'orthorhombic'
loop_
_space_group_symop_operation_xyz
x,y,z
-x,-y,z
x,-y,-z
-x,y,-z
x,1/2+y,1/2+z
-x,1/2-y,1/2+z
x,1/2-y,1/2-z
-x,1/2+y,1/2-z
1/2+x,y,1/2+z
1/2-x,-y,1/2+z
1/2+x,-y,1/2-z
1/2-x,y,1/2-z
1/2+x,1/2+y,z
1/2-x,1/2-y,z
1/2+x,1/2-y,-z
1/2-x,1/2+y,-z
loop_
_atom_site_type_symbol
_atom_site_label
_atom_site_fract_x
_atom_site_fract_y
_atom_site_fract_z
Si Si1 0.089837 0.259158 0.391134
Si Si2 0.379043 0.926915 0.147300
Si Si3 0.883473 0.343281 0.493099
Si Si4 0.250344 0.667923 0.673919
Si Si5 0.616631 0.563251 0.360468
Si Si6 0.750000 0.850883 0.750000
Si Si7 0.141344 0.715740 0.358530
Si Si8 0.298635 0.066705 0.000132
O O1 0.108845 0.282021 0.465934
O O2 0.134599 0.315573 0.352354
O O3 0.165212 0.206574 0.368256
O O4 0.968250 0.249284 0.370175
O O5 0.502225 0.913356 0.160860
O O6 0.304774 0.889641 0.194241
O O7 0.348758 0.918725 0.070577
O O8 0.368941 0.996255 0.158974
O O9 0.865797 0.331470 0.416405
O O10 0.791158 0.385861 0.516270
O O11 0.000000 0.370348 0.500000
O O12 0.250000 0.684427 0.750000
O O13 0.288792 0.602448 0.666343
O O14 0.618714 0.566734 0.439958
O O15 0.838946 0.812241 0.787120
O O16 0.250000 0.750000 0.371378
O O17 0.256242 0.000000 0.000000
#
# Coordination Sequence:
#
# PCOD9326658 Si02
#       8
#    16  16  16  16  16   8  16  16
#     4  10  23  43  61  92 126 163 212 259 316 378
#     4  10  23  41  63  98 128 165 214 268 320 387
#     4  10  21  41  62  91 128 160 208 268 317 380
#     4  11  24  38  65  92 125 167 205 263 317 384
#     4  10  22  41  68  93 125 166 216 271 320 375
#     4  12  25  42  64  90 134 171 206 260 320 390
#     4  11  26  41  64  91 126 171 211 260 316 385
#     4  10  19  39  68  94 122 160 214 269 324 371
#
# _framework density 20.404627000000001
#
# number of rings (size 3 to 8) (size 9 to 14) (size 15 to 20)
#    0.000    1.600    2.667    1.400    6.533    2.933 
#    0.000    1.333    0.000    0.000    0.000    0.000 
#    0.000    0.000    0.000    0.000    0.000    0.000 
#
# Total GULP energy -167411.496751 kJ/mol
# GULP energy per Si atom -5580.383225 kJ/mol
# Density = 2.035818 g / cm^3
# Si number density = 20.404627 Si / 1000 Ang^3
#
#
#
# Elastic Constant Matrix: (Units=GPa)
#
#
# Indices 1 2 3 4 5 6 
#
# 1 93.0108 19.4129 2.1569 0.0000 0.0000 0.0000
# 2 19.4129 40.6349 9.4765 0.0000 0.0000 0.0000
# 3 2.1569 9.4765 85.7859 0.0000 0.0000 0.0000
# 4 0.0000 0.0000 0.0000 12.7665 0.0000 0.0000
# 5 0.0000 0.0000 0.0000 0.0000 26.8369 0.0000
# 6 0.0000 0.0000 0.0000 0.0000 0.0000 27.2137
#
#
#
# Elastic Compliance Matrix: (Units=1/GPa)
#
#
# Indices 1 2 3 4 5 6 
#
# 1 0.011952 -0.005789 0.000339 0.000000 0.000000 0.000000
# 2 -0.005789 0.028064 -0.002955 0.000000 0.000000 0.000000
# 3 0.000339 -0.002955 0.011975 0.000000 0.000000 0.000000
# 4 0.000000 0.000000 0.000000 0.078330 0.000000 0.000000
# 5 0.000000 0.000000 0.000000 0.000000 0.037262 0.000000
# 6 0.000000 0.000000 0.000000 0.000000 0.000000 0.036746
#
#
# Mechanical properties :
#
#
# Convention : Reuss Voigt Hill
#
# Bulk Modulus (GPa) = 28.42398 31.28049 29.85223
# Shear Modulus (GPa) = 21.47166 25.92244 23.69705
#
# Velocity S-wave (km/s) = 3.24743 3.56816 3.41157
# Velocity P-wave (km/s) = 5.29353 5.68675 5.49366
#
# Compressibility (1/GPa) = 0.03518157
#
# Stress axis : x y z
#
# Youngs Moduli (GPa) = 83.66928 35.63278 83.50872
#
# Poissons Ratio (x) = 0.20628 -0.02831
# Poissons Ratio (y) = 0.48435 0.24674
# Poissons Ratio (z) = -0.02836 0.10528
#
# Static dielectric constant tensor:
#      x y z
#    x 1.739720 0.000000 0.000000 
#    y 0.000000 1.746210 0.000000 
#    z 0.000000 0.000000 1.753540 
# 
# From -- ./inp_files/42933.got.cif
#   From: 2010.05.17/outbox.cif.g08.bks.cpg/sg22_22_cif.got.tgz:42933.got - 2010.06.03 23:40:54.
