data_PCOD9326093
_publ_section_title
;
Structure prediction by ZEFSAII (Michael W. Deem and Ramdas Pophale) SiO2 
 PCOD9326093
Probable space group: F 2 2 2
;
_chemical_formula_sum "Si O2"
_cell_formula_units_Z 104
_cell_length_a 15.207048
_cell_length_b 21.900490
_cell_length_c 16.927768
_cell_angle_alpha 90.000000
_cell_angle_beta 90.000000
_cell_angle_gamma 90.000000
_cell_volume 5637.654370
_symmetry_space_group_name_H-M "F 2 2 2"
_symmetry_group_IT_number 22
_symmetry_cell_setting 'orthorhombic'
loop_
_space_group_symop_operation_xyz
x,y,z
-x,-y,z
x,-y,-z
-x,y,-z
x,1/2+y,1/2+z
-x,1/2-y,1/2+z
x,1/2-y,1/2-z
-x,1/2+y,1/2-z
1/2+x,y,1/2+z
1/2-x,-y,1/2+z
1/2+x,-y,1/2-z
1/2-x,y,1/2-z
1/2+x,1/2+y,z
1/2-x,1/2-y,z
1/2+x,1/2-y,-z
1/2-x,1/2+y,-z
loop_
_atom_site_type_symbol
_atom_site_label
_atom_site_fract_x
_atom_site_fract_y
_atom_site_fract_z
Si Si1 0.750000 0.750000 0.465752
Si Si2 0.174040 0.932734 0.134427
Si Si3 0.871048 0.068767 0.873066
Si Si4 0.633849 0.447627 0.320095
Si Si5 0.901064 0.163406 0.015461
Si Si6 0.555235 0.079684 0.795297
Si Si7 0.285290 0.845184 0.830711
O O1 0.830793 0.718535 0.511356
O O2 0.720123 0.696416 0.406854
O O3 0.281028 0.930984 0.128098
O O4 0.156991 0.935621 0.228261
O O5 0.124144 0.877394 0.091901
O O6 0.140698 0.998500 0.103242
O O7 0.940261 0.072845 0.800438
O O8 0.778374 0.095537 0.840337
O O9 0.891699 0.114096 0.944133
O O10 0.604386 0.518492 0.325944
O O11 0.541150 0.414024 0.331214
O O12 0.000000 0.186547 0.000000
O O13 0.615646 0.135621 0.817169
O O14 0.250000 0.815876 0.750000
#
# Coordination Sequence:
#
# PCOD9326093 Si02
#       7
#     8  16  16  16  16  16  16
#     4  10  23  40  52  73 100 142 186 228 262 301
#     4  10  18  32  51  81 116 142 166 214 279 323
#     4   9  17  30  53  83 113 134 167 214 276 325
#     4   9  17  28  50  83 115 137 167 209 269 340
#     4  11  23  38  55  74 104 145 188 225 262 321
#     4   9  15  28  51  83 111 137 166 214 270 330
#     4   9  16  31  55  79 105 131 169 226 272 311
#
# _framework density 18.447388
#
# number of rings (size 3 to 8) (size 9 to 14) (size 15 to 20)
#    0.000    2.462    1.538    1.615    0.000    2.462 
#    2.769    0.000    0.000    1.846    0.000    0.000 
#    0.000    0.000    0.000    0.000    0.000    0.000 
#
# Total GULP energy -144777.939005 kJ/mol
# GULP energy per Si atom -5568.382269 kJ/mol
# Density = 1.840540 g / cm^3
# Si number density = 18.447388 Si / 1000 Ang^3
#
#
#
# Elastic Constant Matrix: (Units=GPa)
#
#
# Indices 1 2 3 4 5 6 
#
# 1 124.3609 34.6855 6.0531 0.0000 0.0000 0.0000
# 2 34.6855 68.8641 4.5834 0.0000 0.0000 0.0000
# 3 6.0531 4.5834 16.7373 0.0000 0.0000 0.0000
# 4 0.0000 0.0000 0.0000 10.8060 0.0000 0.0000
# 5 0.0000 0.0000 0.0000 0.0000 18.3561 0.0000
# 6 0.0000 0.0000 0.0000 0.0000 0.0000 17.0014
#
#
#
# Elastic Compliance Matrix: (Units=1/GPa)
#
#
# Indices 1 2 3 4 5 6 
#
# 1 0.009431 -0.004607 -0.002149 0.000000 0.000000 0.000000
# 2 -0.004607 0.017042 -0.003001 0.000000 0.000000 0.000000
# 3 -0.002149 -0.003001 0.061346 0.000000 0.000000 0.000000
# 4 0.000000 0.000000 0.000000 0.092541 0.000000 0.000000
# 5 0.000000 0.000000 0.000000 0.000000 0.054478 0.000000
# 6 0.000000 0.000000 0.000000 0.000000 0.000000 0.058819
#
#
# Mechanical properties :
#
#
# Convention : Reuss Voigt Hill
#
# Bulk Modulus (GPa) = 14.64026 33.40070 24.02048
# Shear Modulus (GPa) = 14.88374 20.20871 17.54622
#
# Velocity S-wave (km/s) = 2.84354 3.31339 3.08742
# Velocity P-wave (km/s) = 4.32833 5.72567 5.07532
#
# Compressibility (1/GPa) = 0.06830478
#
# Stress axis : x y z
#
# Youngs Moduli (GPa) = 106.03716 58.68019 16.30103
#
# Poissons Ratio (x) = 0.27034 0.03503
# Poissons Ratio (y) = 0.48851 0.04891
# Poissons Ratio (z) = 0.22788 0.17607
#
# Static dielectric constant tensor:
#      x y z
#    x 1.695240 0.000000 0.000000 
#    y 0.000000 1.629250 0.000000 
#    z 0.000000 0.000000 1.650290 
# 
# From -- ./inp_files/37255.got.cif
#   From: 2010.05.17/outbox.cif.g08.bks.cpg/sg22_19_cif.got.tgz:37255.got - 2010.06.03 23:40:54.
