data_PCOD9326806
_publ_section_title
;
Structure prediction by ZEFSAII (Michael W. Deem and Ramdas Pophale) SiO2 
 PCOD9326806
Probable space group: F 2 2 2
;
_chemical_formula_sum "Si O2"
_cell_formula_units_Z 72
_cell_length_a 7.716544
_cell_length_b 23.426314
_cell_length_c 18.302979
_cell_angle_alpha 90.000000
_cell_angle_beta 90.000000
_cell_angle_gamma 90.000000
_cell_volume 3308.632858
_symmetry_space_group_name_H-M "F 2 2 2"
_symmetry_group_IT_number 22
_symmetry_cell_setting 'orthorhombic'
loop_
_space_group_symop_operation_xyz
x,y,z
-x,-y,z
x,-y,-z
-x,y,-z
x,1/2+y,1/2+z
-x,1/2-y,1/2+z
x,1/2-y,1/2-z
-x,1/2+y,1/2-z
1/2+x,y,1/2+z
1/2-x,-y,1/2+z
1/2+x,-y,1/2-z
1/2-x,y,1/2-z
1/2+x,1/2+y,z
1/2-x,1/2-y,z
1/2+x,1/2-y,-z
1/2-x,1/2+y,-z
loop_
_atom_site_type_symbol
_atom_site_label
_atom_site_fract_x
_atom_site_fract_y
_atom_site_fract_z
Si Si1 0.700426 0.688120 0.025646
Si Si2 0.750000 0.750000 0.250000
Si Si3 0.250000 0.250000 0.750000
Si Si4 0.318983 0.662040 0.370418
Si Si5 0.553686 0.936318 0.781645
Si Si6 0.084888 0.144924 0.165032
O O1 0.750000 0.750000 0.055782
O O2 0.698501 0.642272 0.091177
O O3 0.500000 0.690901 0.000000
O O4 0.822256 0.679001 0.954949
O O5 0.858246 0.795938 0.202534
O O6 0.352235 0.290410 0.692264
O O7 0.431332 0.607668 0.348626
O O8 0.115580 0.649897 0.358003
O O9 0.750000 0.937898 0.750000
O O10 0.426853 0.907374 0.721570
O O11 0.500000 0.000000 0.800263
#
# Coordination Sequence:
#
# PCOD9326806 Si02
#       6
#    16   4   4  16  16  16
#     4  10  20  35  56  89 131 161 191 242 322 379
#     4  12  22  30  56  96 132 152 194 254 316 360
#     4  12  14  30  58  94 116 152 200 238 306 376
#     4  10  20  35  62  88 123 163 202 247 309 377
#     4  10  22  40  62  91 117 163 218 257 296 357
#     4  10  21  36  55  92 128 158 197 256 305 371
#
# _framework density 21.761254999999998
#
# number of rings (size 3 to 8) (size 9 to 14) (size 15 to 20)
#    0.000    1.778    5.556    0.667    1.556    0.000 
#    0.000    0.000    0.000   16.667   11.556    0.000 
#    0.000    0.000    0.000    0.000    0.000    0.000 
#
# Total GULP energy -100435.886188 kJ/mol
# GULP energy per Si atom -5579.771455 kJ/mol
# Density = 2.171172 g / cm^3
# Si number density = 21.761255 Si / 1000 Ang^3
#
#
#
# Elastic Constant Matrix: (Units=GPa)
#
#
# Indices 1 2 3 4 5 6 
#
# 1 67.9813 34.9900 51.6471 0.0000 0.0000 0.0000
# 2 34.9900 157.5128 72.1976 0.0000 0.0000 0.0000
# 3 51.6471 72.1976 154.6838 0.0000 0.0000 0.0000
# 4 0.0000 0.0000 0.0000 14.9388 0.0000 0.0000
# 5 0.0000 0.0000 0.0000 0.0000 18.4413 0.0000
# 6 0.0000 0.0000 0.0000 0.0000 0.0000 40.8393
#
#
#
# Elastic Compliance Matrix: (Units=1/GPa)
#
#
# Indices 1 2 3 4 5 6 
#
# 1 0.020088 -0.001766 -0.005883 0.000000 0.000000 0.000000
# 2 -0.001766 0.008232 -0.003253 0.000000 0.000000 0.000000
# 3 -0.005883 -0.003253 0.009947 0.000000 0.000000 0.000000
# 4 0.000000 0.000000 0.000000 0.066940 0.000000 0.000000
# 5 0.000000 0.000000 0.000000 0.000000 0.054226 0.000000
# 6 0.000000 0.000000 0.000000 0.000000 0.000000 0.024486
#
#
# Mechanical properties :
#
#
# Convention : Reuss Voigt Hill
#
# Bulk Modulus (GPa) = 60.73715 77.53860 69.13787
# Shear Modulus (GPa) = 23.67304 29.60008 26.63656
#
# Velocity S-wave (km/s) = 3.30184 3.69212 3.50242
# Velocity P-wave (km/s) = 6.51978 7.34060 6.94233
#
# Compressibility (1/GPa) = 0.01646439
#
# Stress axis : x y z
#
# Youngs Moduli (GPa) = 49.78014 121.48019 100.53101
#
# Poissons Ratio (x) = 0.21452 0.59143
# Poissons Ratio (y) = 0.08791 0.32698
# Poissons Ratio (z) = 0.29286 0.39512
#
# Static dielectric constant tensor:
#      x y z
#    x 1.872540 0.000000 0.000000 
#    y 0.000000 1.748710 0.000000 
#    z 0.000000 0.000000 1.867080 
# 
# From -- ./inp_files/35010.got.cif
#   From: 2010.05.17/outbox.cif.g08.bks.cpg/sg22_18_cif.got.tgz:35010.got - 2010.06.03 23:40:54.
