data_PCOD9326048
_publ_section_title
;
Structure prediction by ZEFSAII (Michael W. Deem and Ramdas Pophale) SiO2 
 PCOD9326048
Probable space group: F 2 2 2
;
_chemical_formula_sum "Si O2"
_cell_formula_units_Z 120
_cell_length_a 25.466994
_cell_length_b 22.756689
_cell_length_c 11.416205
_cell_angle_alpha 90.000000
_cell_angle_beta 90.000000
_cell_angle_gamma 90.000000
_cell_volume 6616.198387
_symmetry_space_group_name_H-M "F 2 2 2"
_symmetry_group_IT_number 22
_symmetry_cell_setting 'orthorhombic'
loop_
_space_group_symop_operation_xyz
x,y,z
-x,-y,z
x,-y,-z
-x,y,-z
x,1/2+y,1/2+z
-x,1/2-y,1/2+z
x,1/2-y,1/2-z
-x,1/2+y,1/2-z
1/2+x,y,1/2+z
1/2-x,-y,1/2+z
1/2+x,-y,1/2-z
1/2-x,y,1/2-z
1/2+x,1/2+y,z
1/2-x,1/2-y,z
1/2+x,1/2-y,-z
1/2-x,1/2+y,-z
loop_
_atom_site_type_symbol
_atom_site_label
_atom_site_fract_x
_atom_site_fract_y
_atom_site_fract_z
Si Si1 0.920099 0.272626 0.504710
Si Si2 0.546653 0.957040 0.661041
Si Si3 0.562401 0.838619 0.132587
Si Si4 0.405456 0.970372 0.874109
Si Si5 0.158886 0.691845 0.691220
Si Si6 0.864417 0.000000 0.000000
Si Si7 0.512039 0.823559 0.672957
Si Si8 0.807675 0.062916 0.786879
O O1 0.926584 0.202902 0.522692
O O2 0.865673 0.292870 0.564063
O O3 0.935802 0.292603 0.375508
O O4 0.964213 0.303705 0.588077
O O5 0.595691 0.958474 0.572325
O O6 0.522783 0.892689 0.664957
O O7 0.500000 0.000000 0.623530
O O8 0.566553 0.984786 0.783991
O O9 0.563194 0.908409 0.114510
O O10 0.609365 0.823483 0.223573
O O11 0.509920 0.815499 0.196463
O O12 0.350071 0.953155 0.813673
O O13 0.399621 0.000000 0.000000
O O14 0.183050 0.750000 0.750000
O O15 0.192394 0.633010 0.691676
O O16 0.829599 0.033603 0.905151
O O17 0.750000 0.042856 0.750000
#
# Coordination Sequence:
#
# PCOD9326048 Si02
#       8
#    16  16  16  16  16   8  16  16
#     4   9  18  29  50  73 104 149 172 233 272 312
#     4  11  21  34  55  83 112 146 184 231 270 323
#     4   9  17  35  48  71 109 145 187 219 270 327
#     4  10  22  40  55  77 113 154 187 227 280 340
#     4   8  15  30  52  76 109 134 171 227 288 330
#     4  10  23  34  54  84 112 144 187 230 282 332
#     4  10  18  30  48  73 101 140 191 217 265 311
#     4  10  21  36  58  83 108 143 184 237 286 337
#
# _framework density 18.137304
#
# number of rings (size 3 to 8) (size 9 to 14) (size 15 to 20)
#    0.000    2.400    1.333    2.200    6.533    0.533 
#    7.200    0.000    0.000    0.000    0.000    0.000 
#    0.000    0.000    0.267    0.000    0.000    0.000 
#
# Total GULP energy -167259.665584 kJ/mol
# GULP energy per Si atom -5575.322186 kJ/mol
# Density = 1.809602 g / cm^3
# Si number density = 18.137304 Si / 1000 Ang^3
#
#
#
# Elastic Constant Matrix: (Units=GPa)
#
#
# Indices 1 2 3 4 5 6 
#
# 1 70.3465 17.0421 35.5336 0.0000 0.0000 0.0000
# 2 17.0421 91.5129 36.7702 0.0000 0.0000 0.0000
# 3 35.5336 36.7702 91.5063 0.0000 0.0000 0.0000
# 4 0.0000 0.0000 0.0000 11.7370 0.0000 0.0000
# 5 0.0000 0.0000 0.0000 0.0000 13.3384 0.0000
# 6 0.0000 0.0000 0.0000 0.0000 0.0000 10.6601
#
#
#
# Elastic Compliance Matrix: (Units=1/GPa)
#
#
# Indices 1 2 3 4 5 6 
#
# 1 0.017715 -0.000638 -0.006623 0.000000 0.000000 0.000000
# 2 -0.000638 0.013054 -0.004998 0.000000 0.000000 0.000000
# 3 -0.006623 -0.004998 0.015508 0.000000 0.000000 0.000000
# 4 0.000000 0.000000 0.000000 0.085200 0.000000 0.000000
# 5 0.000000 0.000000 0.000000 0.000000 0.074972 0.000000
# 6 0.000000 0.000000 0.000000 0.000000 0.000000 0.093808
#
#
# Mechanical properties :
#
#
# Convention : Reuss Voigt Hill
#
# Bulk Modulus (GPa) = 45.95480 48.00639 46.98060
# Shear Modulus (GPa) = 15.05892 18.08175 16.57034
#
# Velocity S-wave (km/s) = 2.88457 3.16086 3.02587
# Velocity P-wave (km/s) = 6.04041 6.31246 6.17793
#
# Compressibility (1/GPa) = 0.02176051
#
# Stress axis : x y z
#
# Youngs Moduli (GPa) = 56.44863 76.60236 64.48162
#
# Poissons Ratio (x) = 0.04887 0.42705
# Poissons Ratio (y) = 0.03601 0.32228
# Poissons Ratio (z) = 0.37385 0.38286
#
# Static dielectric constant tensor:
#      x y z
#    x 1.626770 0.000000 0.000000 
#    y 0.000000 1.650180 0.000000 
#    z 0.000000 0.000000 1.656450 
# 
# From -- ./inp_files/24805.got.cif
#   From: 2010.05.17/outbox.cif.g08.bks.cpg/sg22_13_cif.got.tgz:24805.got - 2010.06.03 23:40:54.
