data_PCOD9326628
_publ_section_title
;
Structure prediction by ZEFSAII (Michael W. Deem and Ramdas Pophale) SiO2 
 PCOD9326628
Probable space group: F 2 2 2
;
_chemical_formula_sum "Si O2"
_cell_formula_units_Z 80
_cell_length_a 11.369438
_cell_length_b 21.976657
_cell_length_c 14.841005
_cell_angle_alpha 90.000000
_cell_angle_beta 90.000000
_cell_angle_gamma 90.000000
_cell_volume 3708.206741
_symmetry_space_group_name_H-M "F 2 2 2"
_symmetry_group_IT_number 22
_symmetry_cell_setting 'orthorhombic'
loop_
_space_group_symop_operation_xyz
x,y,z
-x,-y,z
x,-y,-z
-x,y,-z
x,1/2+y,1/2+z
-x,1/2-y,1/2+z
x,1/2-y,1/2-z
-x,1/2+y,1/2-z
1/2+x,y,1/2+z
1/2-x,-y,1/2+z
1/2+x,-y,1/2-z
1/2-x,y,1/2-z
1/2+x,1/2+y,z
1/2-x,1/2-y,z
1/2+x,1/2-y,-z
1/2-x,1/2+y,-z
loop_
_atom_site_type_symbol
_atom_site_label
_atom_site_fract_x
_atom_site_fract_y
_atom_site_fract_z
Si Si1 0.802484 0.401346 0.651001
Si Si2 0.365327 0.596414 0.479519
Si Si3 0.532799 0.150710 0.393876
Si Si4 0.124786 0.230146 0.553341
Si Si5 0.696358 0.536926 0.849605
O O1 0.750000 0.401811 0.750000
O O2 0.707587 0.391697 0.571605
O O3 0.854310 0.469420 0.635339
O O4 0.905976 0.352567 0.650843
O O5 0.500000 0.582034 0.500000
O O6 0.360122 0.659626 0.422540
O O7 0.301720 0.545966 0.420467
O O8 0.500000 0.144519 0.500000
O O9 0.600673 0.214087 0.378701
O O10 0.608998 0.092743 0.365848
O O11 0.250000 0.250000 0.508307
O O12 0.000000 0.229082 0.500000
O O13 0.750000 0.539930 0.750000
#
# Coordination Sequence:
#
# PCOD9326628 Si02
#       5
#    16  16  16  16  16
#     4  11  25  42  65 100 138 177 226 279 336 411
#     4  11  23  41  65  93 135 179 225 279 348 402
#     4  11  21  41  70  94 128 174 231 279 340 395
#     4  10  19  38  68  94 127 178 223 279 334 400
#     4  11  24  40  64  99 137 176 224 279 341 407
#
# _framework density 21.57377
#
# number of rings (size 3 to 8) (size 9 to 14) (size 15 to 20)
#    0.000    1.200    4.000    2.400    2.800    2.400 
#    0.000    2.000    4.400   16.200    0.000    0.000 
#    0.000    0.000    0.000    0.000    0.000    0.000 
#
# Total GULP energy -111574.015690 kJ/mol
# GULP energy per Si atom -5578.700785 kJ/mol
# Density = 2.152467 g / cm^3
# Si number density = 21.573770 Si / 1000 Ang^3
#
#
#
# Elastic Constant Matrix: (Units=GPa)
#
#
# Indices 1 2 3 4 5 6 
#
# 1 111.9574 18.1886 28.0340 0.0000 0.0000 0.0000
# 2 18.1886 100.1489 24.0860 0.0000 0.0000 0.0000
# 3 28.0340 24.0860 70.1571 0.0000 0.0000 0.0000
# 4 0.0000 0.0000 0.0000 5.8775 0.0000 0.0000
# 5 0.0000 0.0000 0.0000 0.0000 12.7827 0.0000
# 6 0.0000 0.0000 0.0000 0.0000 0.0000 -72.4621
#
#
#
# Elastic Compliance Matrix: (Units=1/GPa)
#
#
# Indices 1 2 3 4 5 6 
#
# 1 0.010004 -0.000933 -0.003677 0.000000 0.000000 0.000000
# 2 -0.000933 0.010971 -0.003394 0.000000 0.000000 0.000000
# 3 -0.003677 -0.003394 0.016888 0.000000 0.000000 0.000000
# 4 0.000000 0.000000 0.000000 0.170140 0.000000 0.000000
# 5 0.000000 0.000000 0.000000 0.000000 0.078231 0.000000
# 6 0.000000 0.000000 0.000000 0.000000 0.000000 -0.013800
#
#
# Mechanical properties :
#
#
# Convention : Reuss Voigt Hill
#
# Bulk Modulus (GPa) = 45.75439 46.98673 46.37056
# Shear Modulus (GPa) = 16.90755 3.36995 10.13875
#
# Velocity S-wave (km/s) = 2.80252 1.25118 2.17020
# Velocity P-wave (km/s) = 5.63263 4.89021 5.27450
#
# Compressibility (1/GPa) = 0.02185583
#
# Stress axis : x y z
#
# Youngs Moduli (GPa) = 99.95712 91.15188 59.21249
#
# Poissons Ratio (x) = 0.08500 0.21775
# Poissons Ratio (y) = 0.09321 0.20095
# Poissons Ratio (z) = 0.36759 0.30935
#
# Static dielectric constant tensor:
#      x y z
#    x 1.837000 0.000000 0.000000 
#    y 0.000000 1.828540 0.000000 
#    z 0.000000 0.000000 1.905580 
# 
# From -- ./inp_files/19809.got.cif
#   From: 2010.05.17/outbox.cif.g08.bks.cpg/sg22_10_cif.got.tgz:19809.got - 2010.06.03 23:40:54.
