data_PCOD9326443
_publ_section_title
;
Structure prediction by ZEFSAII (Michael W. Deem and Ramdas Pophale) SiO2 
 PCOD9326443
Probable space group: F 2 2 2
;
_chemical_formula_sum "Si O2"
_cell_formula_units_Z 84
_cell_length_a 10.540997
_cell_length_b 32.346626
_cell_length_c 12.201564
_cell_angle_alpha 90.000000
_cell_angle_beta 90.000000
_cell_angle_gamma 90.000000
_cell_volume 4160.314659
_symmetry_space_group_name_H-M "F 2 2 2"
_symmetry_group_IT_number 22
_symmetry_cell_setting 'orthorhombic'
loop_
_space_group_symop_operation_xyz
x,y,z
-x,-y,z
x,-y,-z
-x,y,-z
x,1/2+y,1/2+z
-x,1/2-y,1/2+z
x,1/2-y,1/2-z
-x,1/2+y,1/2-z
1/2+x,y,1/2+z
1/2-x,-y,1/2+z
1/2+x,-y,1/2-z
1/2-x,y,1/2-z
1/2+x,1/2+y,z
1/2-x,1/2-y,z
1/2+x,1/2-y,-z
1/2-x,1/2+y,-z
loop_
_atom_site_type_symbol
_atom_site_label
_atom_site_fract_x
_atom_site_fract_y
_atom_site_fract_z
Si Si1 0.211890 0.705002 0.379183
Si Si2 0.883721 0.630909 0.916705
Si Si3 0.281463 0.560783 0.549461
Si Si4 0.000000 0.926874 0.000000
Si Si5 0.750000 0.122695 0.750000
Si Si6 0.510480 0.145422 0.324364
Si Si7 0.500000 0.500000 0.500000
O O1 0.250000 0.705823 0.250000
O O2 0.250000 0.750000 0.422499
O O3 0.290013 0.668930 0.438117
O O4 0.070285 0.686586 0.376485
O O5 0.923040 0.635105 0.790950
O O6 0.819297 0.587277 0.942566
O O7 0.000000 0.634265 0.000000
O O8 0.131833 0.549590 0.531784
O O9 0.289077 0.592318 0.651104
O O10 0.395962 0.528003 0.564532
O O11 0.974036 0.894674 0.900942
O O12 0.636044 0.149675 0.704555
#
# Coordination Sequence:
#
# PCOD9326443 Si02
#       7
#    16  16  16   8   8  16   4
#     4   9  19  35  57  86 121 163 214 260 303 365
#     4  11  19  37  61  87 115 163 213 250 305 380
#     4  11  22  40  63  92 123 161 206 259 312 375
#     4  10  22  37  60  93 120 158 203 256 314 369
#     4  10  20  38  60  93 122 158 204 262 313 380
#     4  10  19  34  62  87 119 160 206 255 307 374
#     4  12  24  42  64  86 124 168 206 256 300 390
#
# _framework density 20.19078
#
# number of rings (size 3 to 8) (size 9 to 14) (size 15 to 20)
#    0.000    1.714    4.762    0.000    0.000    0.381 
#    1.714    5.714    0.000    8.000    0.000    0.000 
#    0.000    0.000    0.000    0.000    0.000    0.000 
#
# Total GULP energy -116987.366368 kJ/mol
# GULP energy per Si atom -5570.826970 kJ/mol
# Density = 2.014483 g / cm^3
# Si number density = 20.190780 Si / 1000 Ang^3
#
#
#
# Elastic Constant Matrix: (Units=GPa)
#
#
# Indices 1 2 3 4 5 6 
#
# 1 178.3351 64.1711 20.4935 0.0000 0.0000 0.0000
# 2 64.1711 83.2772 9.4441 0.0000 0.0000 0.0000
# 3 20.4935 9.4441 67.0930 0.0000 0.0000 0.0000
# 4 0.0000 0.0000 0.0000 14.4678 0.0000 0.0000
# 5 0.0000 0.0000 0.0000 0.0000 20.0858 0.0000
# 6 0.0000 0.0000 0.0000 0.0000 0.0000 26.8764
#
#
#
# Elastic Compliance Matrix: (Units=1/GPa)
#
#
# Indices 1 2 3 4 5 6 
#
# 1 0.007921 -0.005924 -0.001586 0.000000 0.000000 0.000000
# 2 -0.005924 0.016633 -0.000532 0.000000 0.000000 0.000000
# 3 -0.001586 -0.000532 0.015464 0.000000 0.000000 0.000000
# 4 0.000000 0.000000 0.000000 0.069119 0.000000 0.000000
# 5 0.000000 0.000000 0.000000 0.000000 0.049786 0.000000
# 6 0.000000 0.000000 0.000000 0.000000 0.000000 0.037207
#
#
# Mechanical properties :
#
#
# Convention : Reuss Voigt Hill
#
# Bulk Modulus (GPa) = 41.77922 57.43586 49.60754
# Shear Modulus (GPa) = 22.70735 27.92579 25.31657
#
# Velocity S-wave (km/s) = 3.35720 3.72303 3.54484
# Velocity P-wave (km/s) = 5.98038 6.85490 6.43252
#
# Compressibility (1/GPa) = 0.02393534
#
# Stress axis : x y z
#
# Youngs Moduli (GPa) = 126.24111 60.12009 64.66683
#
# Poissons Ratio (x) = 0.35616 0.10254
# Poissons Ratio (y) = 0.74787 0.03439
# Poissons Ratio (z) = 0.20018 0.03197
#
# Static dielectric constant tensor:
#      x y z
#    x 1.789890 0.000000 0.000000 
#    y 0.000000 1.725500 0.000000 
#    z 0.000000 0.000000 1.723260 
# 
# From -- ./inp_files/18456.got.cif
#   From: 2010.05.17/outbox.cif.g08.bks.cpg/sg22_10_cif.got.tgz:18456.got - 2010.06.03 23:40:54.
