data_PCOD9326168
_publ_section_title
;
Structure prediction by ZEFSAII (Michael W. Deem and Ramdas Pophale) SiO2 
 PCOD9326168
Probable space group: F 2 2 2
;
_chemical_formula_sum "Si O2"
_cell_formula_units_Z 80
_cell_length_a 24.517445
_cell_length_b 14.984404
_cell_length_c 10.983584
_cell_angle_alpha 90.000000
_cell_angle_beta 90.000000
_cell_angle_gamma 90.000000
_cell_volume 4035.141412
_symmetry_space_group_name_H-M "F 2 2 2"
_symmetry_group_IT_number 22
_symmetry_cell_setting 'orthorhombic'
loop_
_space_group_symop_operation_xyz
x,y,z
-x,-y,z
x,-y,-z
-x,y,-z
x,1/2+y,1/2+z
-x,1/2-y,1/2+z
x,1/2-y,1/2-z
-x,1/2+y,1/2-z
1/2+x,y,1/2+z
1/2-x,-y,1/2+z
1/2+x,-y,1/2-z
1/2-x,y,1/2-z
1/2+x,1/2+y,z
1/2-x,1/2-y,z
1/2+x,1/2-y,-z
1/2-x,1/2+y,-z
loop_
_atom_site_type_symbol
_atom_site_label
_atom_site_fract_x
_atom_site_fract_y
_atom_site_fract_z
Si Si1 0.641084 0.160261 0.186703
Si Si2 0.938802 0.894634 0.474562
Si Si3 0.848613 0.645171 0.213756
Si Si4 0.802276 0.481420 0.339762
Si Si5 0.265786 0.652065 0.498349
O O1 0.624384 0.250000 0.250000
O O2 0.650808 0.080674 0.280455
O O3 0.599652 0.142041 0.079651
O O4 0.699168 0.172890 0.121503
O O5 0.908214 0.873549 0.346603
O O6 0.000000 0.860786 0.500000
O O7 0.939622 0.000000 0.500000
O O8 0.844799 0.750000 0.250000
O O9 0.829905 0.580230 0.323951
O O10 0.806442 0.618489 0.104071
O O11 0.750000 0.484907 0.250000
O O12 0.778606 0.420523 0.452919
O O13 0.250000 0.750000 0.544035
#
# Coordination Sequence:
#
# PCOD9326168 Si02
#       5
#    16  16  16  16  16
#     4  10  18  34  59  90 113 157 213 251 306 372
#     4  10  21  40  65  90 119 159 215 277 323 373
#     4  11  25  42  58  91 130 167 210 259 314 378
#     4  10  21  35  57  85 123 164 203 245 302 362
#     4  10  21  36  58  85 124 164 205 250 297 368
#
# _framework density 19.825824000000001
#
# number of rings (size 3 to 8) (size 9 to 14) (size 15 to 20)
#    0.000    1.800    4.000    0.000    2.800    0.800 
#    0.000    0.000    0.000    0.000    0.000    1.400 
#    0.000    0.000    0.000    0.000    0.000    0.000 
#
# Total GULP energy -111372.872337 kJ/mol
# GULP energy per Si atom -5568.643617 kJ/mol
# Density = 1.978070 g / cm^3
# Si number density = 19.825824 Si / 1000 Ang^3
#
#
#
# Elastic Constant Matrix: (Units=GPa)
#
#
# Indices 1 2 3 4 5 6 
#
# 1 106.2904 37.3320 45.3371 0.0000 0.0000 0.0000
# 2 37.3320 118.6700 27.9531 0.0000 0.0000 0.0000
# 3 45.3371 27.9531 72.3295 0.0000 0.0000 0.0000
# 4 0.0000 0.0000 0.0000 20.3512 0.0000 0.0000
# 5 0.0000 0.0000 0.0000 0.0000 23.0047 0.0000
# 6 0.0000 0.0000 0.0000 0.0000 0.0000 44.6928
#
#
#
# Elastic Compliance Matrix: (Units=1/GPa)
#
#
# Indices 1 2 3 4 5 6 
#
# 1 0.013471 -0.002474 -0.007488 0.000000 0.000000 0.000000
# 2 -0.002474 0.009725 -0.002208 0.000000 0.000000 0.000000
# 3 -0.007488 -0.002208 0.019372 0.000000 0.000000 0.000000
# 4 0.000000 0.000000 0.000000 0.049137 0.000000 0.000000
# 5 0.000000 0.000000 0.000000 0.000000 0.043469 0.000000
# 6 0.000000 0.000000 0.000000 0.000000 0.000000 0.022375
#
#
# Mechanical properties :
#
#
# Convention : Reuss Voigt Hill
#
# Bulk Modulus (GPa) = 54.85620 57.61491 56.23555
# Shear Modulus (GPa) = 26.60071 30.05423 28.32747
#
# Velocity S-wave (km/s) = 3.66692 3.89770 3.78407
# Velocity P-wave (km/s) = 6.75704 7.02707 6.89338
#
# Compressibility (1/GPa) = 0.01822948
#
# Stress axis : x y z
#
# Youngs Moduli (GPa) = 74.23409 102.82720 51.62047
#
# Poissons Ratio (x) = 0.25440 0.38651
# Poissons Ratio (y) = 0.18366 0.11396
# Poissons Ratio (z) = 0.55584 0.22701
#
# Static dielectric constant tensor:
#      x y z
#    x 1.751280 0.000000 0.000000 
#    y 0.000000 1.724630 0.000000 
#    z 0.000000 0.000000 1.653400 
# 
# From -- ./inp_files/19819.got.cif
#   From: 2010.05.17/outbox.cif.g08.bks.cpg/sg22_10_cif.got.tgz:19819.got - 2010.06.03 23:40:54.
