data_PCOD9326426
_publ_section_title
;
Structure prediction by ZEFSAII (Michael W. Deem and Ramdas Pophale) SiO2 
 PCOD9326426
Probable space group: F 2 2 2
;
_chemical_formula_sum "Si O2"
_cell_formula_units_Z 116
_cell_length_a 29.562179
_cell_length_b 7.881691
_cell_length_c 19.448144
_cell_angle_alpha 90.000000
_cell_angle_beta 90.000000
_cell_angle_gamma 90.000000
_cell_volume 4531.416777
_symmetry_space_group_name_H-M "F 2 2 2"
_symmetry_group_IT_number 22
_symmetry_cell_setting 'orthorhombic'
loop_
_space_group_symop_operation_xyz
x,y,z
-x,-y,z
x,-y,-z
-x,y,-z
x,1/2+y,1/2+z
-x,1/2-y,1/2+z
x,1/2-y,1/2-z
-x,1/2+y,1/2-z
1/2+x,y,1/2+z
1/2-x,-y,1/2+z
1/2+x,-y,1/2-z
1/2-x,y,1/2-z
1/2+x,1/2+y,z
1/2-x,1/2-y,z
1/2+x,1/2-y,-z
1/2-x,1/2+y,-z
loop_
_atom_site_type_symbol
_atom_site_label
_atom_site_fract_x
_atom_site_fract_y
_atom_site_fract_z
Si Si1 0.493755 0.296004 0.830192
Si Si2 0.137046 0.427314 0.207398
Si Si3 0.220532 0.105335 0.375288
Si Si4 0.599130 0.415816 0.162539
Si Si5 0.339322 0.291641 0.008962
Si Si6 0.922190 0.226011 0.592011
Si Si7 0.250000 0.750000 0.250000
Si Si8 0.200263 0.638329 0.382396
O O1 0.500000 0.500000 0.832351
O O2 0.504846 0.250000 0.750000
O O3 0.440385 0.279505 0.845211
O O4 0.524692 0.205204 0.888382
O O5 0.143018 0.250000 0.250000
O O6 0.185624 0.481491 0.177469
O O7 0.110141 0.548142 0.258267
O O8 0.105127 0.396090 0.142431
O O9 0.250000 0.250000 0.337418
O O10 0.311710 0.289291 0.427392
O O11 0.259776 0.987632 0.407026
O O12 0.584369 0.587276 0.124216
O O13 0.648010 0.394597 0.131076
O O14 0.309782 0.229066 0.943955
O O15 0.337945 0.500000 0.000000
O O16 0.391947 0.235672 0.021769
O O17 0.218418 0.658582 0.305232
#
# Coordination Sequence:
#
# PCOD9326426 Si02
#       8
#    16  16  16  16  16  16   4  16
#     4  10  20  35  62  97 133 184 232 284 364 430
#     4   9  17  30  54  89 129 170 220 286 329 398
#     4  11  21  36  65  96 125 183 239 277 342 428
#     4  10  19  34  58  88 136 174 218 283 349 405
#     4  11  21  39  65  97 134 177 226 291 347 415
#     4   9  17  34  57  91 126 163 222 283 337 408
#     4  12  32  44  62  92 136 184 226 294 344 420
#     4  12  25  44  61  93 137 180 226 282 355 413
#
# _framework density 25.599059
#
# number of rings (size 3 to 8) (size 9 to 14) (size 15 to 20)
#    0.000    1.655    2.759    4.552    1.931    1.379 
#    0.000    0.690    0.000    0.000    0.000    0.000 
#    0.000    1.103    0.000    0.000    0.000    0.000 
#
# Total GULP energy -161501.345209 kJ/mol
# GULP energy per Si atom -5569.011904 kJ/mol
# Density = 2.554079 g / cm^3
# Si number density = 25.599059 Si / 1000 Ang^3
#
#
#
# Elastic Constant Matrix: (Units=GPa)
#
#
# Indices 1 2 3 4 5 6 
#
# 1 226.2475 44.8852 42.3211 0.0000 -0.0005 0.0000
# 2 44.8852 38.0714 28.3379 0.0000 -0.0012 0.0000
# 3 42.3211 28.3379 92.7480 0.0000 0.0000 0.0000
# 4 0.0000 0.0000 0.0000 40.5894 -0.0005 0.0000
# 5 -0.0005 -0.0012 0.0000 -0.0005 125.0357 0.0007
# 6 0.0000 0.0000 0.0000 0.0000 0.0007 21.3821
#
#
#
# Elastic Compliance Matrix: (Units=1/GPa)
#
#
# Indices 1 2 3 4 5 6 
#
# 1 0.005807 -0.006308 -0.000722 0.000000 0.000000 0.000000
# 2 -0.006308 0.040852 -0.009603 0.000000 0.000000 0.000000
# 3 -0.000722 -0.009603 0.014046 0.000000 0.000000 0.000000
# 4 0.000000 0.000000 0.000000 0.024637 0.000000 0.000000
# 5 0.000000 0.000000 0.000000 0.000000 0.007998 0.000000
# 6 0.000000 0.000000 0.000000 0.000000 0.000000 0.046768
#
#
# Mechanical properties :
#
#
# Convention : Reuss Voigt Hill
#
# Bulk Modulus (GPa) = 36.44767 65.35060 50.89913
# Shear Modulus (GPa) = 27.39436 53.50294 40.44865
#
# Velocity S-wave (km/s) = 3.27484 4.57665 3.97934
# Velocity P-wave (km/s) = 5.34492 7.31516 6.40624
#
# Compressibility (1/GPa) = 0.02743660
#
# Stress axis : x y z
#
# Youngs Moduli (GPa) = 172.22062 24.47875 71.19690
#
# Poissons Ratio (x) = 0.15442 0.05141
# Poissons Ratio (y) = 1.08641 0.68372
# Poissons Ratio (z) = 0.12436 0.23508
#
# Static dielectric constant tensor:
#      x y z
#    x 2.178670 0.000000 0.000000 
#    y 0.000000 -3.913660 0.000000 
#    z 0.000000 0.000000 2.206070 
# 
# From -- ./inp_files/40080.got.cif
#   From: 2010.05.17/outbox.cif.g08.bks.cpg/sg22_21_cif.got.tgz:40080.got - 2010.06.03 23:40:54.
