data_PCOD9326596
_publ_section_title
;
Structure prediction by ZEFSAII (Michael W. Deem and Ramdas Pophale) SiO2 
 PCOD9326596
Probable space group: F 2 2 2
;
_chemical_formula_sum "Si O2"
_cell_formula_units_Z 116
_cell_length_a 16.050117
_cell_length_b 12.583039
_cell_length_c 29.796163
_cell_angle_alpha 90.000000
_cell_angle_beta 90.000000
_cell_angle_gamma 90.000000
_cell_volume 6017.610678
_symmetry_space_group_name_H-M "F 2 2 2"
_symmetry_group_IT_number 22
_symmetry_cell_setting 'orthorhombic'
loop_
_space_group_symop_operation_xyz
x,y,z
-x,-y,z
x,-y,-z
-x,y,-z
x,1/2+y,1/2+z
-x,1/2-y,1/2+z
x,1/2-y,1/2-z
-x,1/2+y,1/2-z
1/2+x,y,1/2+z
1/2-x,-y,1/2+z
1/2+x,-y,1/2-z
1/2-x,y,1/2-z
1/2+x,1/2+y,z
1/2-x,1/2-y,z
1/2+x,1/2-y,-z
1/2-x,1/2+y,-z
loop_
_atom_site_type_symbol
_atom_site_label
_atom_site_fract_x
_atom_site_fract_y
_atom_site_fract_z
Si Si1 0.250000 0.250000 0.750000
Si Si2 0.933984 0.240958 0.802307
Si Si3 0.406737 0.457195 0.141554
Si Si4 0.828461 0.528136 0.949234
Si Si5 0.439058 0.100850 0.119644
Si Si6 0.128502 0.967326 0.049934
Si Si7 0.374635 0.675941 0.177759
Si Si8 0.087473 0.735986 0.086009
O O1 0.310844 0.312229 0.782537
O O2 0.911269 0.250000 0.750000
O O3 0.889198 0.146356 0.829685
O O4 0.918698 0.346705 0.832101
O O5 0.031904 0.204891 0.804912
O O6 0.500000 0.500000 0.150073
O O7 0.398679 0.449141 0.088176
O O8 0.357028 0.559267 0.158093
O O9 0.866679 0.445283 0.912698
O O10 0.728816 0.534258 0.947426
O O11 0.865286 0.644256 0.939985
O O12 0.853635 0.500000 0.000000
O O13 0.494188 0.192483 0.095124
O O14 0.500000 0.000000 0.126603
O O15 0.092900 0.851416 0.063337
O O16 0.103742 0.000000 0.000000
O O17 0.368244 0.752376 0.134641
#
# Coordination Sequence:
#
# PCOD9326596 Si02
#       8
#     4  16  16  16  16  16  16  16
#     4  12  20  32  60  96 110 136 194 260 304 348
#     4  10  19  38  56  79 118 160 197 233 290 353
#     4   9  20  38  56  80 119 157 194 241 290 355
#     4  10  21  37  59  88 119 152 191 247 304 351
#     4   9  20  37  59  87 112 151 199 244 294 352
#     4  10  21  37  60  89 114 152 198 242 301 353
#     4   9  20  34  55  88 114 143 190 248 298 341
#     4   9  19  37  58  82 120 151 183 241 295 350
#
# _framework density 19.276754
#
# number of rings (size 3 to 8) (size 9 to 14) (size 15 to 20)
#    0.000    2.483    0.690    1.241    3.862    5.517 
#    2.483    6.207    0.000    0.828    0.000    0.000 
#    0.000    0.000    0.000    0.000    0.000    0.000 
#
# Total GULP energy -161598.991475 kJ/mol
# GULP energy per Si atom -5572.379016 kJ/mol
# Density = 1.923288 g / cm^3
# Si number density = 19.276754 Si / 1000 Ang^3
#
#
#
# Elastic Constant Matrix: (Units=GPa)
#
#
# Indices 1 2 3 4 5 6 
#
# 1 28.6572 24.6851 16.8248 0.0000 0.0000 0.0000
# 2 24.6851 102.8095 81.9042 0.0000 0.0000 0.0000
# 3 16.8248 81.9042 162.7208 0.0000 0.0000 0.0000
# 4 0.0000 0.0000 0.0000 13.4068 0.0000 0.0000
# 5 0.0000 0.0000 0.0000 0.0000 29.2855 0.0000
# 6 0.0000 0.0000 0.0000 0.0000 0.0000 9.6581
#
#
#
# Elastic Compliance Matrix: (Units=1/GPa)
#
#
# Indices 1 2 3 4 5 6 
#
# 1 0.044155 -0.011627 0.001287 0.000000 0.000000 0.000000
# 2 -0.011627 0.019300 -0.008512 0.000000 0.000000 0.000000
# 3 0.001287 -0.008512 0.010297 0.000000 0.000000 0.000000
# 4 0.000000 0.000000 0.000000 0.074589 0.000000 0.000000
# 5 0.000000 0.000000 0.000000 0.000000 0.034147 0.000000
# 6 0.000000 0.000000 0.000000 0.000000 0.000000 0.103540
#
#
# Mechanical properties :
#
#
# Convention : Reuss Voigt Hill
#
# Bulk Modulus (GPa) = 27.74140 60.11287 43.92714
# Shear Modulus (GPa) = 14.89210 21.85496 18.37353
#
# Velocity S-wave (km/s) = 2.78248 3.37077 3.09065
# Velocity P-wave (km/s) = 4.97446 6.81185 5.96433
#
# Compressibility (1/GPa) = 0.03604720
#
# Stress axis : x y z
#
# Youngs Moduli (GPa) = 22.64733 51.81404 97.11593
#
# Poissons Ratio (x) = 0.60245 -0.12498
# Poissons Ratio (y) = 0.26332 0.82667
# Poissons Ratio (z) = -0.02915 0.44105
#
# Static dielectric constant tensor:
#      x y z
#    x 1.729420 0.000000 0.000000 
#    y 0.000000 1.690650 0.000000 
#    z 0.000000 0.000000 1.689180 
# 
# From -- ./inp_files/36489.got.cif
#   From: 2010.05.17/outbox.cif.g08.bks.cpg/sg22_19_cif.got.tgz:36489.got - 2010.06.03 23:40:54.
