data_PCOD9326657
_publ_section_title
;
Structure prediction by ZEFSAII (Michael W. Deem and Ramdas Pophale) SiO2 
 PCOD9326657
Probable space group: F 2 2 2
;
_chemical_formula_sum "Si O2"
_cell_formula_units_Z 52
_cell_length_a 22.423040
_cell_length_b 19.445878
_cell_length_c 5.239415
_cell_angle_alpha 90.000000
_cell_angle_beta 90.000000
_cell_angle_gamma 90.000000
_cell_volume 2284.571988
_symmetry_space_group_name_H-M "F 2 2 2"
_symmetry_group_IT_number 22
_symmetry_cell_setting 'orthorhombic'
loop_
_space_group_symop_operation_xyz
x,y,z
-x,-y,z
x,-y,-z
-x,y,-z
x,1/2+y,1/2+z
-x,1/2-y,1/2+z
x,1/2-y,1/2-z
-x,1/2+y,1/2-z
1/2+x,y,1/2+z
1/2-x,-y,1/2+z
1/2+x,-y,1/2-z
1/2-x,y,1/2-z
1/2+x,1/2+y,z
1/2-x,1/2-y,z
1/2+x,1/2-y,-z
1/2-x,1/2+y,-z
loop_
_atom_site_type_symbol
_atom_site_label
_atom_site_fract_x
_atom_site_fract_y
_atom_site_fract_z
Si Si1 0.887184 0.434701 0.337560
Si Si2 0.071529 0.294443 0.497772
Si Si3 0.782277 0.418317 0.001255
Si Si4 0.000000 0.000000 0.000000
O O1 0.860746 0.500000 0.500000
O O2 0.891342 0.364713 0.496163
O O3 0.852205 0.417961 0.078408
O O4 0.955803 0.457566 0.318001
O O5 0.084231 0.250000 0.750000
O O6 0.000000 0.309182 0.500000
O O7 0.084804 0.250000 0.250000
O O8 0.750000 0.387982 0.250000
O O9 0.770513 0.500000 0.000000
O O10 0.750000 0.390139 0.750000
#
# Coordination Sequence:
#
# PCOD9326657 Si02
#       4
#    16  16  16   4
#     4  10  19  39  67  99 143 175 226 283 344 409
#     4  10  21  38  59  91 137 183 220 262 337 428
#     4  10  21  37  60  91 128 173 226 278 331 390
#     4   8  20  36  66 108 146 176 212 290 362 400
#
# _framework density 22.761375000000001
#
# number of rings (size 3 to 8) (size 9 to 14) (size 15 to 20)
#    0.923    1.231    1.538    2.769    0.000    4.923 
#    0.000    0.769    0.000    0.923    0.000   21.538 
#    0.000    0.000    0.000    0.000    0.000    0.000 
#
# Total GULP energy -72443.551200 kJ/mol
# GULP energy per Si atom -5572.580862 kJ/mol
# Density = 2.270957 g / cm^3
# Si number density = 22.761375 Si / 1000 Ang^3
#
#
#
# Elastic Constant Matrix: (Units=GPa)
#
#
# Indices 1 2 3 4 5 6 
#
# 1 142.4716 27.3537 66.9065 -0.0005 0.0009 -0.0013
# 2 27.3537 126.8531 62.0036 0.0024 0.0009 -0.0016
# 3 66.9065 62.0036 206.4562 0.0075 0.0035 -0.0043
# 4 -0.0005 0.0024 0.0075 10.0505 0.0009 -0.0013
# 5 0.0009 0.0009 0.0035 0.0009 26.1111 -0.0065
# 6 -0.0013 -0.0016 -0.0043 -0.0013 -0.0065 -15.2172
#
#
#
# Elastic Compliance Matrix: (Units=1/GPa)
#
#
# Indices 1 2 3 4 5 6 
#
# 1 0.008312 -0.000558 -0.002526 0.000002 0.000000 0.000000
# 2 -0.000558 0.009277 -0.002605 0.000000 0.000000 0.000000
# 3 -0.002526 -0.002605 0.006445 -0.000004 -0.000001 -0.000001
# 4 0.000002 0.000000 -0.000004 0.099498 -0.000004 -0.000009
# 5 0.000000 0.000000 -0.000001 -0.000004 0.038298 -0.000016
# 6 0.000000 0.000000 -0.000001 -0.000009 -0.000016 -0.065715
#
#
# Mechanical properties :
#
#
# Convention : Reuss Voigt Hill
#
# Bulk Modulus (GPa) = 79.01733 87.58982 83.30358
# Shear Modulus (GPa) = 44.75806 25.49002 35.12404
#
# Velocity S-wave (km/s) = 4.43923 3.35009 3.93255
# Velocity P-wave (km/s) = 7.81451 7.31638 7.56954
#
# Compressibility (1/GPa) = 0.01265545
#
# Stress axis : x y z
#
# Youngs Moduli (GPa) = 120.30212 107.79558 155.16370
#
# Poissons Ratio (x) = 0.06011 0.39200
# Poissons Ratio (y) = 0.06708 0.40425
# Poissons Ratio (z) = 0.30393 0.28084
#
# Static dielectric constant tensor:
#      x y z
#    x 1.940860 0.000000 0.000000 
#    y 0.000000 1.821540 0.000000 
#    z 0.000000 0.000000 1.889310 
# 
# From -- ./inp_files/3300.got.cif
#   From: 2010.05.17/outbox.cif.g08.bks.cpg/sg22_2_cif.got.tgz:3300.got - 2010.06.03 23:40:54.
