data_PCOD9326195
_publ_section_title
;
Structure prediction by ZEFSAII (Michael W. Deem and Ramdas Pophale) SiO2 
 PCOD9326195
Probable space group: F 2 2 2
;
_chemical_formula_sum "Si O2"
_cell_formula_units_Z 80
_cell_length_a 11.384996
_cell_length_b 25.629040
_cell_length_c 14.453548
_cell_angle_alpha 90.000000
_cell_angle_beta 90.000000
_cell_angle_gamma 90.000000
_cell_volume 4217.350442
_symmetry_space_group_name_H-M "F 2 2 2"
_symmetry_group_IT_number 22
_symmetry_cell_setting 'orthorhombic'
loop_
_space_group_symop_operation_xyz
x,y,z
-x,-y,z
x,-y,-z
-x,y,-z
x,1/2+y,1/2+z
-x,1/2-y,1/2+z
x,1/2-y,1/2-z
-x,1/2+y,1/2-z
1/2+x,y,1/2+z
1/2-x,-y,1/2+z
1/2+x,-y,1/2-z
1/2-x,y,1/2-z
1/2+x,1/2+y,z
1/2-x,1/2-y,z
1/2+x,1/2-y,-z
1/2-x,1/2+y,-z
loop_
_atom_site_type_symbol
_atom_site_label
_atom_site_fract_x
_atom_site_fract_y
_atom_site_fract_z
Si Si1 0.605181 0.541917 0.268567
Si Si2 0.021500 0.400593 0.610767
Si Si3 0.251764 0.029563 0.903066
Si Si4 0.108901 0.690011 0.255134
Si Si5 0.037338 0.386915 0.899066
O O1 0.500000 0.500000 0.265311
O O2 0.585536 0.573536 0.170596
O O3 0.708584 0.512097 0.325992
O O4 0.566314 0.584433 0.344641
O O5 0.131996 0.440343 0.621337
O O6 0.059775 0.346283 0.660806
O O7 0.000000 0.395545 0.500000
O O8 0.354782 0.072415 0.906538
O O9 0.239757 0.000000 0.000000
O O10 0.069754 0.750000 0.250000
O O11 0.250000 0.688804 0.250000
O O12 0.070812 0.661555 0.162290
O O13 0.000000 0.371442 0.000000
#
# Coordination Sequence:
#
# PCOD9326195 Si02
#       5
#    16  16  16  16  16
#     4   9  21  34  55  82 121 165 205 237 294 364
#     4  11  25  42  58  93 131 163 213 257 313 384
#     4  11  21  37  59  85 128 172 198 255 300 368
#     4  10  21  41  66  88 118 162 211 271 324 362
#     4  10  18  35  59  92 114 156 216 254 295 377
#
# _framework density 18.969255
#
# number of rings (size 3 to 8) (size 9 to 14) (size 15 to 20)
#    0.000    1.800    4.000    0.000    2.800    0.800 
#    0.000    0.000    0.000    0.000    0.000    1.400 
#    0.000    0.000    0.000    0.000    0.000    0.000 
#
# Total GULP energy -111482.215050 kJ/mol
# GULP energy per Si atom -5574.110752 kJ/mol
# Density = 1.892608 g / cm^3
# Si number density = 18.969255 Si / 1000 Ang^3
#
#
#
# Elastic Constant Matrix: (Units=GPa)
#
#
# Indices 1 2 3 4 5 6 
#
# 1 63.6201 49.6425 44.7548 0.0000 0.0000 0.0000
# 2 49.6425 162.3979 84.4365 0.0000 0.0000 0.0000
# 3 44.7548 84.4365 192.7998 0.0000 0.0000 0.0000
# 4 0.0000 0.0000 0.0000 -4.6664 0.0000 0.0000
# 5 0.0000 0.0000 0.0000 0.0000 30.1382 0.0000
# 6 0.0000 0.0000 0.0000 0.0000 0.0000 26.0561
#
#
#
# Elastic Compliance Matrix: (Units=1/GPa)
#
#
# Indices 1 2 3 4 5 6 
#
# 1 0.021723 -0.005203 -0.002764 0.000000 0.000000 0.000000
# 2 -0.005203 0.009220 -0.002830 0.000000 0.000000 0.000000
# 3 -0.002764 -0.002830 0.007068 0.000000 0.000000 0.000000
# 4 0.000000 0.000000 0.000000 -0.214300 0.000000 0.000000
# 5 0.000000 0.000000 0.000000 0.000000 0.033180 0.000000
# 6 0.000000 0.000000 0.000000 0.000000 0.000000 0.038379
#
#
# Mechanical properties :
#
#
# Convention : Reuss Voigt Hill
#
# Bulk Modulus (GPa) = 60.91592 86.27615 73.59604
# Shear Modulus (GPa) = -64.37877 26.30453 -19.03712
#
# Velocity S-wave (km/s) = -5.83199 3.72787 -3.17137
# Velocity P-wave (km/s) = 3.62862 8.00689 5.04695
#
# Compressibility (1/GPa) = 0.01641607
#
# Stress axis : x y z
#
# Youngs Moduli (GPa) = 46.03496 108.46400 141.49049
#
# Poissons Ratio (x) = 0.56437 0.39104
# Poissons Ratio (y) = 0.23953 0.40040
# Poissons Ratio (z) = 0.12723 0.30694
#
# Static dielectric constant tensor:
#      x y z
#    x 3.309250 0.000000 0.000000 
#    y 0.000000 1.633730 0.000000 
#    z 0.000000 0.000000 1.707860 
# 
# From -- ./inp_files/19842.got.cif
#   From: 2010.05.17/outbox.cif.g08.bks.cpg/sg22_10_cif.got.tgz:19842.got - 2010.06.03 23:40:54.
