data_PCOD9326756
_publ_section_title
;
Structure prediction by ZEFSAII (Michael W. Deem and Ramdas Pophale) SiO2 
 PCOD9326756
Probable space group: F 2 2 2
;
_chemical_formula_sum "Si O2"
_cell_formula_units_Z 128
_cell_length_a 12.391841
_cell_length_b 22.867075
_cell_length_c 24.425736
_cell_angle_alpha 90.000000
_cell_angle_beta 90.000000
_cell_angle_gamma 90.000000
_cell_volume 6921.402530
_symmetry_space_group_name_H-M "F 2 2 2"
_symmetry_group_IT_number 22
_symmetry_cell_setting 'orthorhombic'
loop_
_space_group_symop_operation_xyz
x,y,z
-x,-y,z
x,-y,-z
-x,y,-z
x,1/2+y,1/2+z
-x,1/2-y,1/2+z
x,1/2-y,1/2-z
-x,1/2+y,1/2-z
1/2+x,y,1/2+z
1/2-x,-y,1/2+z
1/2+x,-y,1/2-z
1/2-x,y,1/2-z
1/2+x,1/2+y,z
1/2-x,1/2-y,z
1/2+x,1/2-y,-z
1/2-x,1/2+y,-z
loop_
_atom_site_type_symbol
_atom_site_label
_atom_site_fract_x
_atom_site_fract_y
_atom_site_fract_z
Si Si1 0.291735 0.035525 0.944603
Si Si2 0.271109 0.643535 0.688294
Si Si3 0.968847 0.623468 0.937855
Si Si4 0.623286 0.679095 0.743622
Si Si5 0.524393 0.848169 0.344140
Si Si6 0.955888 0.063958 0.060270
Si Si7 0.024081 0.290885 0.144299
Si Si8 0.902567 0.540132 0.145980
O O1 0.351057 0.096860 0.936206
O O2 0.168627 0.050988 0.948296
O O3 0.322445 0.998111 0.891212
O O4 0.325733 0.000000 0.000000
O O5 0.250000 0.663387 0.750000
O O6 0.151845 0.638107 0.662923
O O7 0.354742 0.688287 0.659671
O O8 0.334810 0.581595 0.686003
O O9 0.988839 0.687297 0.914983
O O10 0.040081 0.582187 0.898557
O O11 0.000000 0.617986 0.000000
O O12 0.622897 0.750000 0.750000
O O13 0.750000 0.661295 0.750000
O O14 0.549337 0.646618 0.789051
O O15 0.558807 0.675476 0.685933
O O16 0.480610 0.888001 0.393509
O O17 0.516959 0.778472 0.353500
O O18 0.000000 0.000000 0.076915
O O19 0.000000 0.080340 0.000000
O O20 0.000000 0.500000 0.169311
#
# Coordination Sequence:
#
# PCOD9326756 Si02
#       8
#    16  16  16  16  16  16  16  16
#     4  11  19  36  62  83 111 160 206 246 296 373
#     4  11  21  38  64  91 121 160 210 262 308 376
#     4  10  20  33  60  91 118 148 197 255 309 366
#     4   9  19  37  60  85 117 158 202 248 304 375
#     4  11  23  39  63  87 122 166 206 255 316 375
#     4  11  24  40  58  85 119 162 208 249 299 377
#     4  10  22  38  60  94 123 154 206 261 314 374
#     4   9  20  36  59  88 121 152 203 257 309 356
#
# _framework density 18.493361
#
# number of rings (size 3 to 8) (size 9 to 14) (size 15 to 20)
#    0.000    1.750    3.750    1.125    1.750    1.000 
#    0.000    1.875    0.000    0.000    0.000    0.000 
#    0.000    0.000    0.000    0.000    0.000    0.000 
#
# Total GULP energy -178272.654739 kJ/mol
# GULP energy per Si atom -5571.020461 kJ/mol
# Density = 1.845127 g / cm^3
# Si number density = 18.493361 Si / 1000 Ang^3
#
#
#
# Elastic Constant Matrix: (Units=GPa)
#
#
# Indices 1 2 3 4 5 6 
#
# 1 112.5489 23.3522 22.5668 0.0000 0.0000 0.0000
# 2 23.3522 69.7623 24.9953 0.0000 0.0000 0.0000
# 3 22.5668 24.9953 34.9101 0.0000 0.0000 0.0000
# 4 0.0000 0.0000 0.0000 42.0648 0.0000 0.0000
# 5 0.0000 0.0000 0.0000 0.0000 19.5237 0.0000
# 6 0.0000 0.0000 0.0000 0.0000 0.0000 5.4372
#
#
#
# Elastic Compliance Matrix: (Units=1/GPa)
#
#
# Indices 1 2 3 4 5 6 
#
# 1 0.010313 -0.001431 -0.005642 0.000000 0.000000 0.000000
# 2 -0.001431 0.019479 -0.013022 0.000000 0.000000 0.000000
# 3 -0.005642 -0.013022 0.041616 0.000000 0.000000 0.000000
# 4 0.000000 0.000000 0.000000 0.023773 0.000000 0.000000
# 5 0.000000 0.000000 0.000000 0.000000 0.051220 0.000000
# 6 0.000000 0.000000 0.000000 0.000000 0.000000 0.183917
#
#
# Mechanical properties :
#
#
# Convention : Reuss Voigt Hill
#
# Bulk Modulus (GPa) = 32.03257 39.89441 35.96349
# Shear Modulus (GPa) = 13.12632 23.15895 18.14263
#
# Velocity S-wave (km/s) = 2.66707 3.54260 3.13555
# Velocity P-wave (km/s) = 5.18103 6.19294 5.70945
#
# Compressibility (1/GPa) = 0.03121823
#
# Stress axis : x y z
#
# Youngs Moduli (GPa) = 96.96313 51.33748 24.02920
#
# Poissons Ratio (x) = 0.07344 0.13558
# Poissons Ratio (y) = 0.13872 0.31291
# Poissons Ratio (z) = 0.54711 0.66851
#
# Static dielectric constant tensor:
#      x y z
#    x 1.621510 0.000000 0.000000 
#    y 0.000000 1.659750 0.000000 
#    z 0.000000 0.000000 1.655550 
# 
# From -- ./inp_files/48401.got.cif
#   From: 2010.05.17/outbox.cif.g08.bks.cpg/sg22_25_cif.got.tgz:48401.got - 2010.06.03 23:40:54.
