data_PCOD9326663
_publ_section_title
;
Structure prediction by ZEFSAII (Michael W. Deem and Ramdas Pophale) SiO2 
 PCOD9326663
Probable space group: F 2 2 2
;
_chemical_formula_sum "Si O2"
_cell_formula_units_Z 68
_cell_length_a 19.863518
_cell_length_b 5.293451
_cell_length_c 31.895276
_cell_angle_alpha 90.000000
_cell_angle_beta 90.000000
_cell_angle_gamma 90.000000
_cell_volume 3353.678527
_symmetry_space_group_name_H-M "F 2 2 2"
_symmetry_group_IT_number 22
_symmetry_cell_setting 'orthorhombic'
loop_
_space_group_symop_operation_xyz
x,y,z
-x,-y,z
x,-y,-z
-x,y,-z
x,1/2+y,1/2+z
-x,1/2-y,1/2+z
x,1/2-y,1/2-z
-x,1/2+y,1/2-z
1/2+x,y,1/2+z
1/2-x,-y,1/2+z
1/2+x,-y,1/2-z
1/2-x,y,1/2-z
1/2+x,1/2+y,z
1/2-x,1/2-y,z
1/2+x,1/2-y,-z
1/2-x,1/2+y,-z
loop_
_atom_site_type_symbol
_atom_site_label
_atom_site_fract_x
_atom_site_fract_y
_atom_site_fract_z
Si Si1 0.421662 0.500322 0.624825
Si Si2 0.295568 0.000000 0.500000
Si Si3 0.250000 0.750000 0.145365
Si Si4 0.358031 0.109950 0.791944
Si Si5 0.250000 0.250000 0.250000
Si Si6 0.654274 0.003835 0.592197
O O1 0.500000 0.500000 0.614096
O O2 0.412853 0.491152 0.675666
O O3 0.385694 0.254169 0.604619
O O4 0.384178 0.752792 0.609765
O O5 0.250000 0.250000 0.503365
O O6 0.338105 0.979381 0.542480
O O7 0.312112 0.721485 0.177486
O O8 0.271151 0.529692 0.112996
O O9 0.382133 0.250000 0.750000
O O10 0.301957 0.909655 0.777579
#
# Coordination Sequence:
#
# PCOD9326663 Si02
#       6
#    16   8   8  16   4  16
#     4  11  26  47  65  93 135 191 237 276 326 415
#     4  12  24  42  69 114 145 162 216 286 360 434
#     4  10  19  40  60  97 132 168 207 272 351 412
#     4  11  22  37  60  93 128 169 221 280 343 399
#     4  12  18  36  60  92 124 160 208 286 350 404
#     4  11  24  43  71  99 137 177 218 283 353 413
#
# _framework density 20.276240999999999
#
# number of rings (size 3 to 8) (size 9 to 14) (size 15 to 20)
#    0.000    0.941    3.529    3.529    6.588    0.000 
#    2.118    3.529    0.000    0.000    0.000    0.000 
#    0.000    0.000    0.000    0.000    0.000    0.000 
#
# Total GULP energy -94742.929178 kJ/mol
# GULP energy per Si atom -5573.113481 kJ/mol
# Density = 2.023009 g / cm^3
# Si number density = 20.276241 Si / 1000 Ang^3
#
#
#
# Elastic Constant Matrix: (Units=GPa)
#
#
# Indices 1 2 3 4 5 6 
#
# 1 84.5801 51.6407 35.2621 0.0000 0.0000 -0.0001
# 2 51.6407 150.7625 53.0080 -0.0001 0.0003 -0.0007
# 3 35.2621 53.0080 179.7455 0.0000 0.0000 0.0000
# 4 0.0000 -0.0001 0.0000 19.1044 0.0001 0.0000
# 5 0.0000 0.0003 0.0000 0.0001 18.1407 -0.0001
# 6 -0.0001 -0.0007 0.0000 0.0000 -0.0001 23.2908
#
#
#
# Elastic Compliance Matrix: (Units=1/GPa)
#
#
# Indices 1 2 3 4 5 6 
#
# 1 0.015367 -0.004690 -0.001632 0.000000 0.000000 0.000000
# 2 -0.004690 0.008832 -0.001684 0.000000 0.000000 0.000000
# 3 -0.001632 -0.001684 0.006380 0.000000 0.000000 0.000000
# 4 0.000000 0.000000 0.000000 0.052344 0.000000 0.000000
# 5 0.000000 0.000000 0.000000 0.000000 0.055125 0.000000
# 6 0.000000 0.000000 0.000000 0.000000 0.000000 0.042935
#
#
# Mechanical properties :
#
#
# Convention : Reuss Voigt Hill
#
# Bulk Modulus (GPa) = 68.64907 77.21218 72.93063
# Shear Modulus (GPa) = 24.77085 30.45233 27.61159
#
# Velocity S-wave (km/s) = 3.49903 3.87960 3.69422
# Velocity P-wave (km/s) = 7.08905 7.63094 7.36498
#
# Compressibility (1/GPa) = 0.01456684
#
# Stress axis : x y z
#
# Youngs Moduli (GPa) = 65.07548 113.22923 156.73383
#
# Poissons Ratio (x) = 0.53104 0.25572
# Poissons Ratio (y) = 0.30520 0.26401
# Poissons Ratio (z) = 0.10617 0.19073
#
# Static dielectric constant tensor:
#      x y z
#    x 1.751860 0.000000 0.000000 
#    y 0.000000 1.697960 0.000000 
#    z 0.000000 0.000000 1.771360 
# 
# From -- ./inp_files/3840.got.cif
#   From: 2010.05.17/outbox.cif.g08.bks.cpg/sg22_2_cif.got.tgz:3840.got - 2010.06.03 23:40:54.
