data_PCOD9326501
_publ_section_title
;
Structure prediction by ZEFSAII (Michael W. Deem and Ramdas Pophale) SiO2 
 PCOD9326501
Probable space group: F 2 2 2
;
_chemical_formula_sum "Si O2"
_cell_formula_units_Z 44
_cell_length_a 13.513906
_cell_length_b 21.688994
_cell_length_c 7.023673
_cell_angle_alpha 90.000000
_cell_angle_beta 90.000000
_cell_angle_gamma 90.000000
_cell_volume 2058.659811
_symmetry_space_group_name_H-M "F 2 2 2"
_symmetry_group_IT_number 22
_symmetry_cell_setting 'orthorhombic'
loop_
_space_group_symop_operation_xyz
x,y,z
-x,-y,z
x,-y,-z
-x,y,-z
x,1/2+y,1/2+z
-x,1/2-y,1/2+z
x,1/2-y,1/2-z
-x,1/2+y,1/2-z
1/2+x,y,1/2+z
1/2-x,-y,1/2+z
1/2+x,-y,1/2-z
1/2-x,y,1/2-z
1/2+x,1/2+y,z
1/2-x,1/2-y,z
1/2+x,1/2-y,-z
1/2-x,1/2+y,-z
loop_
_atom_site_type_symbol
_atom_site_label
_atom_site_fract_x
_atom_site_fract_y
_atom_site_fract_z
Si Si1 0.750000 0.750000 0.750000
Si Si2 0.109744 0.482843 0.727378
Si Si3 0.883481 0.354006 0.436657
Si Si4 0.250000 0.583025 0.750000
O O1 0.826426 0.706136 0.636004
O O2 0.119688 0.500000 0.500000
O O3 0.124740 0.409282 0.721206
O O4 0.175192 0.532797 0.837040
O O5 0.000000 0.500000 0.779860
O O6 0.817251 0.376498 0.613708
O O7 0.000000 0.347999 0.500000
#
# Coordination Sequence:
#
# PCOD9326501 Si02
#       4
#     4  16  16   8
#     4  12  30  42  64  94 134 190 236 258 308 396
#     4   9  15  34  65  96 125 159 196 272 346 377
#     4  11  23  45  66  93 138 176 221 273 325 390
#     4  10  19  35  74  95 125 174 210 266 352 380
#
# _framework density 21.373128000000001
#
# number of rings (size 3 to 8) (size 9 to 14) (size 15 to 20)
#    0.000    1.818    7.273    1.091    0.000    3.636 
#    0.000    0.000   16.000    0.000    0.000    0.000 
#    0.000    0.000    0.000    0.000    0.000    0.000 
#
# Total GULP energy -61259.692069 kJ/mol
# GULP energy per Si atom -5569.062915 kJ/mol
# Density = 2.132448 g / cm^3
# Si number density = 21.373128 Si / 1000 Ang^3
#
#
#
# Elastic Constant Matrix: (Units=GPa)
#
#
# Indices 1 2 3 4 5 6 
#
# 1 241.4240 101.4903 55.6922 0.0000 0.0000 0.0000
# 2 101.4903 195.0244 63.7534 0.0000 0.0000 0.0000
# 3 55.6922 63.7534 76.0617 0.0000 0.0000 0.0000
# 4 0.0000 0.0000 0.0000 60.7301 0.0000 0.0000
# 5 0.0000 0.0000 0.0000 0.0000 20.3839 0.0000
# 6 0.0000 0.0000 0.0000 0.0000 0.0000 44.5637
#
#
#
# Elastic Compliance Matrix: (Units=1/GPa)
#
#
# Indices 1 2 3 4 5 6 
#
# 1 0.005573 -0.002157 -0.002272 0.000000 0.000000 0.000000
# 2 -0.002157 0.007898 -0.005040 0.000000 0.000000 0.000000
# 3 -0.002272 -0.005040 0.019036 0.000000 0.000000 0.000000
# 4 0.000000 0.000000 0.000000 0.016466 0.000000 0.000000
# 5 0.000000 0.000000 0.000000 0.000000 0.049058 0.000000
# 6 0.000000 0.000000 0.000000 0.000000 0.000000 0.022440
#
#
# Mechanical properties :
#
#
# Convention : Reuss Voigt Hill
#
# Bulk Modulus (GPa) = 73.70965 106.04243 89.87604
# Shear Modulus (GPa) = 34.73823 44.57382 39.65603
#
# Velocity S-wave (km/s) = 4.03590 4.57169 4.31213
# Velocity P-wave (km/s) = 7.50200 8.80850 8.18137
#
# Compressibility (1/GPa) = 0.01356674
#
# Stress axis : x y z
#
# Youngs Moduli (GPa) = 179.42872 126.61517 52.53302
#
# Poissons Ratio (x) = 0.27317 0.11937
# Poissons Ratio (y) = 0.38711 0.26478
# Poissons Ratio (z) = 0.40773 0.63817
#
# Static dielectric constant tensor:
#      x y z
#    x 1.329940 0.000000 0.000000 
#    y 0.000000 1.806010 0.000000 
#    z 0.000000 0.000000 1.908500 
# 
# From -- ./inp_files/9137.got.cif
#   From: 2010.05.17/outbox.cif.g08.bks.cpg/sg22_5_cif.got.tgz:9137.got - 2010.06.03 23:40:54.
