data_PCOD9326358
_publ_section_title
;
Structure prediction by ZEFSAII (Michael W. Deem and Ramdas Pophale) SiO2 
 PCOD9326358
Probable space group: F 2 2 2
;
_chemical_formula_sum "Si O2"
_cell_formula_units_Z 88
_cell_length_a 36.769116
_cell_length_b 25.245974
_cell_length_c 5.086367
_cell_angle_alpha 90.000000
_cell_angle_beta 90.000000
_cell_angle_gamma 90.000000
_cell_volume 4721.532813
_symmetry_space_group_name_H-M "F 2 2 2"
_symmetry_group_IT_number 22
_symmetry_cell_setting 'orthorhombic'
loop_
_space_group_symop_operation_xyz
x,y,z
-x,-y,z
x,-y,-z
-x,y,-z
x,1/2+y,1/2+z
-x,1/2-y,1/2+z
x,1/2-y,1/2-z
-x,1/2+y,1/2-z
1/2+x,y,1/2+z
1/2-x,-y,1/2+z
1/2+x,-y,1/2-z
1/2-x,y,1/2-z
1/2+x,1/2+y,z
1/2-x,1/2-y,z
1/2+x,1/2-y,-z
1/2-x,1/2+y,-z
loop_
_atom_site_type_symbol
_atom_site_label
_atom_site_fract_x
_atom_site_fract_y
_atom_site_fract_z
Si Si1 0.162772 0.686462 0.765043
Si Si2 0.404301 0.124836 0.498338
Si Si3 0.000000 0.885813 0.500000
Si Si4 0.574286 0.562509 0.519665
Si Si5 0.791031 0.813810 0.772130
Si Si6 0.036627 0.299947 0.382442
O O1 0.155477 0.750000 0.750000
O O2 0.128794 0.654973 0.643944
O O3 0.194909 0.674537 0.561332
O O4 0.178718 0.671573 0.051807
O O5 0.400091 0.091137 0.764082
O O6 0.434579 0.169990 0.563376
O O7 0.418869 0.086278 0.269278
O O8 0.032804 0.922384 0.396047
O O9 0.019827 0.845964 0.700600
O O10 0.579111 0.500000 0.500000
O O11 0.788873 0.750000 0.750000
O O12 0.750000 0.834918 0.750000
O O13 0.056041 0.250000 0.250000
O O14 0.000000 0.275608 0.500000
#
# Coordination Sequence:
#
# PCOD9326358 Si02
#       6
#    16  16   8  16  16  16
#     4  10  19  33  51  81 116 151 181 216 265 323
#     4  11  23  37  55  79 109 142 185 235 281 340
#     4  10  21  36  52  76 100 134 183 240 284 340
#     4  11  23  39  57  75 100 136 186 244 300 337
#     4   9  17  30  51  78 114 154 186 210 246 310
#     4  11  20  34  52  76 109 146 185 226 278 335
#
# _framework density 18.638017000000001
#
# number of rings (size 3 to 8) (size 9 to 14) (size 15 to 20)
#    0.000    1.636    2.727    3.000    0.000    2.182 
#    0.000    4.545    0.000    0.000    0.000    0.000 
#    0.000   40.727    0.000    0.000    0.000    0.000 
#
# Total GULP energy -122552.465333 kJ/mol
# GULP energy per Si atom -5570.566606 kJ/mol
# Density = 1.859560 g / cm^3
# Si number density = 18.638017 Si / 1000 Ang^3
#
#
#
# Elastic Constant Matrix: (Units=GPa)
#
#
# Indices 1 2 3 4 5 6 
#
# 1 58.8462 20.9414 -10.6940 -0.0174 -0.0081 0.0021
# 2 20.9414 83.7178 17.4034 -0.0219 -0.0117 0.0146
# 3 -10.6940 17.4034 65.4475 -0.0157 -0.0146 -0.0127
# 4 -0.0174 -0.0219 -0.0157 24.9681 -0.0093 0.0020
# 5 -0.0081 -0.0117 -0.0146 -0.0093 18.6529 0.0066
# 6 0.0021 0.0146 -0.0127 0.0020 0.0066 23.0003
#
#
#
# Elastic Compliance Matrix: (Units=1/GPa)
#
#
# Indices 1 2 3 4 5 6 
#
# 1 0.020022 -0.006021 0.004873 0.000012 0.000009 0.000005
# 2 -0.006021 0.014455 -0.004828 0.000005 0.000003 -0.000011
# 3 0.004873 -0.004828 0.017359 0.000010 0.000013 0.000012
# 4 0.000012 0.000005 0.000010 0.040051 0.000020 -0.000003
# 5 0.000009 0.000003 0.000013 0.000020 0.053611 -0.000015
# 6 0.000005 -0.000011 0.000012 -0.000003 -0.000015 0.043478
#
#
# Mechanical properties :
#
#
# Convention : Reuss Voigt Hill
#
# Bulk Modulus (GPa) = 25.07309 29.25702 27.16505
# Shear Modulus (GPa) = 23.34027 25.34832 24.34429
#
# Velocity S-wave (km/s) = 3.54262 3.69186 3.61801
# Velocity P-wave (km/s) = 5.49685 5.82278 5.66216
#
# Compressibility (1/GPa) = 0.03988340
#
# Stress axis : x y z
#
# Youngs Moduli (GPa) = 49.94579 69.18202 57.60591
#
# Poissons Ratio (x) = 0.41656 -0.28069
# Poissons Ratio (y) = 0.30073 0.27810
# Poissons Ratio (z) = -0.24337 0.33398
#
# Static dielectric constant tensor:
#      x y z
#    x 1.682950 0.000010 -0.000010 
#    y 0.000010 1.646210 -0.000020 
#    z -0.000010 -0.000020 1.702690 
# 
# From -- ./inp_files/6445.got.cif
#   From: 2010.05.17/outbox.cif.g08.bks.cpg/sg22_4_cif.got.tgz:6445.got - 2010.06.03 23:40:54.
