data_PCOD9326190
_publ_section_title
;
Structure prediction by ZEFSAII (Michael W. Deem and Ramdas Pophale) SiO2 
 PCOD9326190
Probable space group: F 2 2 2
;
_chemical_formula_sum "Si O2"
_cell_formula_units_Z 112
_cell_length_a 13.645171
_cell_length_b 12.249234
_cell_length_c 33.581134
_cell_angle_alpha 90.000000
_cell_angle_beta 90.000000
_cell_angle_gamma 90.000000
_cell_volume 5612.847872
_symmetry_space_group_name_H-M "F 2 2 2"
_symmetry_group_IT_number 22
_symmetry_cell_setting 'orthorhombic'
loop_
_space_group_symop_operation_xyz
x,y,z
-x,-y,z
x,-y,-z
-x,y,-z
x,1/2+y,1/2+z
-x,1/2-y,1/2+z
x,1/2-y,1/2-z
-x,1/2+y,1/2-z
1/2+x,y,1/2+z
1/2-x,-y,1/2+z
1/2+x,-y,1/2-z
1/2-x,y,1/2-z
1/2+x,1/2+y,z
1/2-x,1/2-y,z
1/2+x,1/2-y,-z
1/2-x,1/2+y,-z
loop_
_atom_site_type_symbol
_atom_site_label
_atom_site_fract_x
_atom_site_fract_y
_atom_site_fract_z
Si Si1 0.528263 0.251132 0.457774
Si Si2 0.111564 0.238147 0.336320
Si Si3 0.444225 0.614198 0.378020
Si Si4 0.107229 0.940482 0.083748
Si Si5 0.769636 0.372210 0.343491
Si Si6 0.668622 0.169008 0.576981
Si Si7 0.776423 0.411729 0.703888
O O1 0.500000 0.302424 0.500000
O O2 0.550444 0.333052 0.421911
O O3 0.602836 0.148808 0.451610
O O4 0.427459 0.190672 0.447781
O O5 0.146425 0.289715 0.378286
O O6 0.128325 0.337271 0.305622
O O7 0.186961 0.145195 0.320855
O O8 0.005987 0.188275 0.346492
O O9 0.500000 0.500000 0.378996
O O10 0.332824 0.599871 0.365092
O O11 0.143928 0.878801 0.123480
O O12 0.183122 0.039642 0.077105
O O13 0.000000 0.000000 0.089879
O O14 0.750000 0.250000 0.328060
O O15 0.789743 0.465702 0.311388
O O16 0.750000 0.250000 0.560922
O O17 0.750000 0.406721 0.750000
#
# Coordination Sequence:
#
# PCOD9326190 Si02
#       7
#    16  16  16  16  16  16  16
#     4  10  23  41  61  90 129 165 219 268 327 379
#     4  10  18  37  66  92 123 163 223 262 306 391
#     4  11  23  40  69  91 129 177 216 266 332 396
#     4  10  21  39  66  91 125 170 220 264 321 386
#     4  12  23  40  67  95 133 170 218 262 334 415
#     4  10  18  34  64  93 115 163 215 260 308 384
#     4  11  22  38  68  98 129 166 220 282 325 377
#
# _framework density 19.954221
#
# number of rings (size 3 to 8) (size 9 to 14) (size 15 to 20)
#    0.000    1.429    5.714    0.857    2.000    3.143 
#    2.571    0.000   12.571    0.000    0.000    0.000 
#    0.000    0.000    0.000    0.000    0.000    0.000 
#
# Total GULP energy -156032.899104 kJ/mol
# GULP energy per Si atom -5572.603539 kJ/mol
# Density = 1.990880 g / cm^3
# Si number density = 19.954221 Si / 1000 Ang^3
#
#
#
# Elastic Constant Matrix: (Units=GPa)
#
#
# Indices 1 2 3 4 5 6 
#
# 1 53.5155 19.5520 11.1888 0.0000 0.0000 0.0000
# 2 19.5520 131.6651 19.3249 0.0000 0.0000 0.0000
# 3 11.1888 19.3249 80.5420 0.0000 0.0000 0.0000
# 4 0.0000 0.0000 0.0000 18.6625 0.0000 0.0000
# 5 0.0000 0.0000 0.0000 0.0000 13.2797 0.0000
# 6 0.0000 0.0000 0.0000 0.0000 0.0000 30.8711
#
#
#
# Elastic Compliance Matrix: (Units=1/GPa)
#
#
# Indices 1 2 3 4 5 6 
#
# 1 0.020112 -0.002671 -0.002153 0.000000 0.000000 0.000000
# 2 -0.002671 0.008227 -0.001603 0.000000 0.000000 0.000000
# 3 -0.002153 -0.001603 0.013100 0.000000 0.000000 0.000000
# 4 0.000000 0.000000 0.000000 0.053583 0.000000 0.000000
# 5 0.000000 0.000000 0.000000 0.000000 0.075303 0.000000
# 6 0.000000 0.000000 0.000000 0.000000 0.000000 0.032393
#
#
# Mechanical properties :
#
#
# Convention : Reuss Voigt Hill
#
# Bulk Modulus (GPa) = 34.98317 40.65043 37.81680
# Shear Modulus (GPa) = 22.21245 26.93980 24.57612
#
# Velocity S-wave (km/s) = 3.34004 3.67833 3.51326
# Velocity P-wave (km/s) = 5.69599 6.20131 5.95401
#
# Compressibility (1/GPa) = 0.02858517
#
# Stress axis : x y z
#
# Youngs Moduli (GPa) = 49.72142 121.55295 76.33818
#
# Poissons Ratio (x) = 0.32462 0.16437
# Poissons Ratio (y) = 0.13278 0.12236
# Poissons Ratio (z) = 0.10706 0.19484
#
# Static dielectric constant tensor:
#      x y z
#    x 1.757840 0.000000 0.000000 
#    y 0.000000 1.792080 0.000000 
#    z 0.000000 0.000000 1.711950 
# 
# From -- ./inp_files/56463.got.cif
#   From: 2010.05.17/outbox.cif.g08.bks.cpg/sg22_29_cif.got.tgz:56463.got - 2010.06.03 23:40:54.
