data_PCOD9326829
_publ_section_title
;
Structure prediction by ZEFSAII (Michael W. Deem and Ramdas Pophale) SiO2 
 PCOD9326829
Probable space group: F 2 2 2
;
_chemical_formula_sum "Si O2"
_cell_formula_units_Z 116
_cell_length_a 9.227431
_cell_length_b 24.335667
_cell_length_c 25.157264
_cell_angle_alpha 90.000000
_cell_angle_beta 90.000000
_cell_angle_gamma 90.000000
_cell_volume 5649.206728
_symmetry_space_group_name_H-M "F 2 2 2"
_symmetry_group_IT_number 22
_symmetry_cell_setting 'orthorhombic'
loop_
_space_group_symop_operation_xyz
x,y,z
-x,-y,z
x,-y,-z
-x,y,-z
x,1/2+y,1/2+z
-x,1/2-y,1/2+z
x,1/2-y,1/2-z
-x,1/2+y,1/2-z
1/2+x,y,1/2+z
1/2-x,-y,1/2+z
1/2+x,-y,1/2-z
1/2-x,y,1/2-z
1/2+x,1/2+y,z
1/2-x,1/2-y,z
1/2+x,1/2-y,-z
1/2-x,1/2+y,-z
loop_
_atom_site_type_symbol
_atom_site_label
_atom_site_fract_x
_atom_site_fract_y
_atom_site_fract_z
Si Si1 0.724984 0.190937 0.812670
Si Si2 0.827306 0.082286 0.576930
Si Si3 0.451779 0.888072 0.632725
Si Si4 0.716687 0.814783 0.601147
Si Si5 0.500000 0.500000 0.500000
Si Si6 0.534262 0.124117 0.163378
Si Si7 0.086672 0.055202 0.766367
Si Si8 0.163800 0.802436 0.515776
O O1 0.750000 0.192463 0.750000
O O2 0.750000 0.250000 0.836319
O O3 0.832909 0.145369 0.834003
O O4 0.563335 0.177111 0.828429
O O5 0.657387 0.076922 0.594310
O O6 0.894730 0.038640 0.535761
O O7 0.939230 0.083233 0.626673
O O8 0.838840 0.143868 0.552431
O O9 0.557238 0.841574 0.607702
O O10 0.547196 0.923309 0.674574
O O11 0.750000 0.750000 0.615723
O O12 0.759128 0.818382 0.539446
O O13 0.821038 0.855084 0.635022
O O14 0.547829 0.099966 0.222027
O O15 0.250000 0.042255 0.750000
O O16 0.000000 0.000000 0.758014
O O17 0.250000 0.750000 0.537816
O O18 0.000000 0.786636 0.500000
#
# Coordination Sequence:
#
# PCOD9326829 Si02
#       8
#    16  16  16  16   4  16  16  16
#     4  10  20  35  61  94 135 174 213 261 321 402
#     4  11  26  43  77  99 143 181 241 293 356 440
#     4  11  25  45  65 106 138 180 230 289 342 414
#     4  11  23  41  69 101 142 181 225 282 358 422
#     4  12  24  52  72 114 140 196 242 298 388 434
#     4  11  22  43  66  98 133 180 226 278 335 422
#     4  12  28  46  70  94 133 181 237 294 347 416
#     4  11  24  44  69 105 139 189 238 293 356 430
#
# _framework density 20.533856
#
# number of rings (size 3 to 8) (size 9 to 14) (size 15 to 20)
#    0.000    0.966    4.828    0.828    8.690    2.207 
#    2.483    0.690    0.000    0.828    0.000    0.000 
#    0.000    0.000    0.000    0.000    0.000    0.000 
#
# Total GULP energy -161789.858164 kJ/mol
# GULP energy per Si atom -5578.960626 kJ/mol
# Density = 2.048712 g / cm^3
# Si number density = 20.533856 Si / 1000 Ang^3
#
#
#
# Elastic Constant Matrix: (Units=GPa)
#
#
# Indices 1 2 3 4 5 6 
#
# 1 140.0101 43.8722 39.6419 0.0000 0.0000 0.0000
# 2 43.8722 77.7868 23.6056 0.0000 0.0000 0.0000
# 3 39.6419 23.6056 85.4541 0.0000 0.0000 0.0000
# 4 0.0000 0.0000 0.0000 6.2278 0.0000 0.0000
# 5 0.0000 0.0000 0.0000 0.0000 25.9099 0.0000
# 6 0.0000 0.0000 0.0000 0.0000 0.0000 60.3283
#
#
#
# Elastic Compliance Matrix: (Units=1/GPa)
#
#
# Indices 1 2 3 4 5 6 
#
# 1 0.009397 -0.004341 -0.003160 0.000000 0.000000 0.000000
# 2 -0.004341 0.016037 -0.002416 0.000000 0.000000 0.000000
# 3 -0.003160 -0.002416 0.013836 0.000000 0.000000 0.000000
# 4 0.000000 0.000000 0.000000 0.160571 0.000000 0.000000
# 5 0.000000 0.000000 0.000000 0.000000 0.038595 0.000000
# 6 0.000000 0.000000 0.000000 0.000000 0.000000 0.016576
#
#
# Mechanical properties :
#
#
# Convention : Reuss Voigt Hill
#
# Bulk Modulus (GPa) = 51.45328 57.49891 54.47610
# Shear Modulus (GPa) = 17.77293 31.56862 24.67078
#
# Velocity S-wave (km/s) = 2.94520 3.92521 3.46998
# Velocity P-wave (km/s) = 6.05622 6.97179 6.53007
#
# Compressibility (1/GPa) = 0.01943511
#
# Stress axis : x y z
#
# Youngs Moduli (GPa) = 106.41211 62.35450 72.27696
#
# Poissons Ratio (x) = 0.27069 0.22841
# Poissons Ratio (y) = 0.46195 0.17464
# Poissons Ratio (z) = 0.33629 0.15066
#
# Static dielectric constant tensor:
#      x y z
#    x 1.744330 0.000000 0.000000 
#    y 0.000000 1.721690 0.000000 
#    z 0.000000 0.000000 1.732180 
# 
# From -- ./inp_files/52142.got.cif
#   From: 2010.05.17/outbox.cif.g08.bks.cpg/sg22_27_cif.got.tgz:52142.got - 2010.06.03 23:40:54.
