data_PCOD9326626
_publ_section_title
;
Structure prediction by ZEFSAII (Michael W. Deem and Ramdas Pophale) SiO2 
 PCOD9326626
Probable space group: F 2 2 2
;
_chemical_formula_sum "Si O2"
_cell_formula_units_Z 96
_cell_length_a 13.387010
_cell_length_b 10.867668
_cell_length_c 31.884120
_cell_angle_alpha 90.000000
_cell_angle_beta 90.000000
_cell_angle_gamma 90.000000
_cell_volume 4638.679697
_symmetry_space_group_name_H-M "F 2 2 2"
_symmetry_group_IT_number 22
_symmetry_cell_setting 'orthorhombic'
loop_
_space_group_symop_operation_xyz
x,y,z
-x,-y,z
x,-y,-z
-x,y,-z
x,1/2+y,1/2+z
-x,1/2-y,1/2+z
x,1/2-y,1/2-z
-x,1/2+y,1/2-z
1/2+x,y,1/2+z
1/2-x,-y,1/2+z
1/2+x,-y,1/2-z
1/2-x,y,1/2-z
1/2+x,1/2+y,z
1/2-x,1/2-y,z
1/2+x,1/2-y,-z
1/2-x,1/2+y,-z
loop_
_atom_site_type_symbol
_atom_site_label
_atom_site_fract_x
_atom_site_fract_y
_atom_site_fract_z
Si Si1 0.958466 0.179041 0.790008
Si Si2 0.500000 0.500000 0.074506
Si Si3 0.038257 0.753419 0.122219
Si Si4 0.049424 0.136315 0.458362
Si Si5 0.832552 0.947718 0.786357
Si Si6 0.750000 0.750000 0.648916
Si Si7 0.250000 0.250000 0.488959
Si Si8 0.850041 0.000000 0.000000
O O1 0.917032 0.250000 0.750000
O O2 0.989888 0.252658 0.831636
O O3 0.063718 0.120300 0.773682
O O4 0.876500 0.077025 0.801979
O O5 0.534653 0.392462 0.105186
O O6 0.413084 0.464505 0.041526
O O7 0.152810 0.711950 0.123465
O O8 0.980547 0.681742 0.086928
O O9 0.164824 0.174238 0.463686
O O10 0.000000 0.198097 0.500000
O O11 0.000000 0.000000 0.459456
O O12 0.750000 0.959475 0.750000
O O13 0.784617 0.862849 0.821957
O O14 0.203415 0.370063 0.512358
#
# Coordination Sequence:
#
# PCOD9326626 Si02
#       8
#    16   8  16  16  16   8   8   8
#     4  10  22  41  63  96 136 177 218 288 344 407
#     4  11  22  40  68  98 140 174 230 288 343 414
#     4  11  22  42  67 100 138 174 235 286 349 426
#     4  11  25  47  69 100 145 190 240 300 362 433
#     4  10  19  38  67  95 127 174 227 272 340 414
#     4  10  21  37  66 100 125 174 221 290 333 423
#     4  12  24  45  72 108 142 202 236 308 370 443
#     4  11  24  42  71 104 138 190 241 290 367 432
#
# _framework density 20.695544000000002
#
# number of rings (size 3 to 8) (size 9 to 14) (size 15 to 20)
#    0.000    1.333    1.667    6.250    0.000    4.333 
#    9.000    0.000    0.000    0.000    0.000    0.000 
#    0.000    0.000    0.000    0.000    0.000    0.000 
#
# Total GULP energy -133698.477335 kJ/mol
# GULP energy per Si atom -5570.769889 kJ/mol
# Density = 2.064844 g / cm^3
# Si number density = 20.695544 Si / 1000 Ang^3
#
#
#
# Elastic Constant Matrix: (Units=GPa)
#
#
# Indices 1 2 3 4 5 6 
#
# 1 112.2860 25.4349 30.3462 0.0000 0.0000 0.0000
# 2 25.4349 79.8518 5.7081 0.0000 0.0000 0.0000
# 3 30.3462 5.7081 91.5234 0.0000 0.0000 0.0000
# 4 0.0000 0.0000 0.0000 17.2149 0.0000 0.0000
# 5 0.0000 0.0000 0.0000 0.0000 24.4223 0.0000
# 6 0.0000 0.0000 0.0000 0.0000 0.0000 25.0667
#
#
#
# Elastic Compliance Matrix: (Units=1/GPa)
#
#
# Indices 1 2 3 4 5 6 
#
# 1 0.010498 -0.003109 -0.003287 0.000000 0.000000 0.000000
# 2 -0.003109 0.013500 0.000189 0.000000 0.000000 0.000000
# 3 -0.003287 0.000189 0.012004 0.000000 0.000000 0.000000
# 4 0.000000 0.000000 0.000000 0.058089 0.000000 0.000000
# 5 0.000000 0.000000 0.000000 0.000000 0.040946 0.000000
# 6 0.000000 0.000000 0.000000 0.000000 0.000000 0.039894
#
#
# Mechanical properties :
#
#
# Convention : Reuss Voigt Hill
#
# Bulk Modulus (GPa) = 42.39387 45.18219 43.78803
# Shear Modulus (GPa) = 25.61360 28.15224 26.88292
#
# Velocity S-wave (km/s) = 3.52183 3.69223 3.60803
# Velocity P-wave (km/s) = 6.08824 6.32898 6.20978
#
# Compressibility (1/GPa) = 0.02358832
#
# Stress axis : x y z
#
# Youngs Moduli (GPa) = 95.25222 74.07396 83.30374
#
# Poissons Ratio (x) = 0.23030 0.27382
# Poissons Ratio (y) = 0.29615 -0.01574
# Poissons Ratio (z) = 0.31310 -0.01399
#
# Static dielectric constant tensor:
#      x y z
#    x 1.802410 0.000000 0.000000 
#    y 0.000000 1.809260 0.000000 
#    z 0.000000 0.000000 1.706670 
# 
# From -- ./inp_files/56432.got.cif
#   From: 2010.05.17/outbox.cif.g08.bks.cpg/sg22_29_cif.got.tgz:56432.got - 2010.06.03 23:40:54.
