data_PCOD9326769
_publ_section_title
;
Structure prediction by ZEFSAII (Michael W. Deem and Ramdas Pophale) SiO2 
 PCOD9326769
Probable space group: F 2 2 2
;
_chemical_formula_sum "Si O2"
_cell_formula_units_Z 88
_cell_length_a 20.867025
_cell_length_b 24.717548
_cell_length_c 8.496848
_cell_angle_alpha 90.000000
_cell_angle_beta 90.000000
_cell_angle_gamma 90.000000
_cell_volume 4382.518639
_symmetry_space_group_name_H-M "F 2 2 2"
_symmetry_group_IT_number 22
_symmetry_cell_setting 'orthorhombic'
loop_
_space_group_symop_operation_xyz
x,y,z
-x,-y,z
x,-y,-z
-x,y,-z
x,1/2+y,1/2+z
-x,1/2-y,1/2+z
x,1/2-y,1/2-z
-x,1/2+y,1/2-z
1/2+x,y,1/2+z
1/2-x,-y,1/2+z
1/2+x,-y,1/2-z
1/2-x,y,1/2-z
1/2+x,1/2+y,z
1/2-x,1/2-y,z
1/2+x,1/2-y,-z
1/2-x,1/2+y,-z
loop_
_atom_site_type_symbol
_atom_site_label
_atom_site_fract_x
_atom_site_fract_y
_atom_site_fract_z
Si Si1 0.077010 0.641194 0.014955
Si Si2 0.000000 0.082154 0.000000
Si Si3 0.316685 0.531144 0.836696
Si Si4 0.116965 0.136774 0.159884
Si Si5 0.065509 0.531570 0.210530
Si Si6 0.070662 0.258473 0.440736
O O1 0.113099 0.637455 0.848560
O O2 0.089548 0.705720 0.044537
O O3 0.086327 0.586772 0.119348
O O4 0.000000 0.641112 0.000000
O O5 0.046252 0.049385 0.886064
O O6 0.953273 0.115270 0.888295
O O7 0.250000 0.523837 0.750000
O O8 0.329848 0.593343 0.879261
O O9 0.375319 0.509378 0.727763
O O10 0.316863 0.500000 0.000000
O O11 0.121145 0.192539 0.063845
O O12 0.000000 0.500000 0.157758
O O13 0.063415 0.250000 0.250000
O O14 0.000000 0.274517 0.500000
#
# Coordination Sequence:
#
# PCOD9326769 Si02
#       6
#    16   8  16  16  16  16
#     4  10  20  34  55  97 128 160 201 259 319 372
#     4  12  19  36  60  92 122 168 207 260 304 384
#     4  12  27  43  61  90 124 168 212 260 320 386
#     4  11  21  37  60  86 126 165 207 255 315 371
#     4  12  22  39  63  93 131 166 211 258 321 387
#     4   9  19  33  56  89 129 160 203 256 316 373
#
# _framework density 20.079777
#
# number of rings (size 3 to 8) (size 9 to 14) (size 15 to 20)
#    0.000    1.091    6.364    0.273    2.545    1.818 
#    0.000    0.000    0.000    4.909    0.000    1.273 
#    0.000    0.000    0.000    0.000    0.000    0.000 
#
# Total GULP energy -122488.540574 kJ/mol
# GULP energy per Si atom -5567.660935 kJ/mol
# Density = 2.003407 g / cm^3
# Si number density = 20.079777 Si / 1000 Ang^3
#
#
#
# Elastic Constant Matrix: (Units=GPa)
#
#
# Indices 1 2 3 4 5 6 
#
# 1 77.5704 33.9512 15.9794 -0.0005 0.0003 -0.0003
# 2 33.9512 159.2359 49.4984 -0.0004 0.0004 -0.0001
# 3 15.9794 49.4984 51.6280 -0.0020 0.0013 -0.0014
# 4 -0.0005 -0.0004 -0.0020 7.5130 0.0009 -0.0006
# 5 0.0003 0.0004 0.0013 0.0009 13.0631 0.0004
# 6 -0.0003 -0.0001 -0.0014 -0.0006 0.0004 -13.2989
#
#
#
# Elastic Compliance Matrix: (Units=1/GPa)
#
#
# Indices 1 2 3 4 5 6 
#
# 1 0.014384 -0.002398 -0.002153 0.000000 0.000000 0.000000
# 2 -0.002398 0.009346 -0.008218 -0.000002 0.000001 0.000001
# 3 -0.002153 -0.008218 0.027915 0.000007 -0.000002 -0.000003
# 4 0.000000 -0.000002 0.000007 0.133103 -0.000009 -0.000006
# 5 0.000000 0.000001 -0.000002 -0.000009 0.076552 0.000002
# 6 0.000000 0.000001 -0.000003 -0.000006 0.000002 -0.075194
#
#
# Mechanical properties :
#
#
# Convention : Reuss Voigt Hill
#
# Bulk Modulus (GPa) = 38.30413 54.14359 46.22386
# Shear Modulus (GPa) = 22.69144 14.05577 18.37360
#
# Velocity S-wave (km/s) = 3.36529 2.64861 3.02823
# Velocity P-wave (km/s) = 5.84958 6.03128 5.94113
#
# Compressibility (1/GPa) = 0.02610685
#
# Stress axis : x y z
#
# Youngs Moduli (GPa) = 69.51932 106.99961 35.82283
#
# Poissons Ratio (x) = 0.25654 0.07714
# Poissons Ratio (y) = 0.16668 0.29440
# Poissons Ratio (z) = 0.14971 0.87935
#
# Static dielectric constant tensor:
#      x y z
#    x 1.663610 0.000000 0.000000 
#    y 0.000000 1.892690 0.000000 
#    z 0.000000 0.000000 1.754940 
# 
# From -- ./inp_files/12638.got.cif
#   From: 2010.05.17/outbox.cif.g08.bks.cpg/sg22_7_cif.got.tgz:12638.got - 2010.06.03 23:40:54.
