data_PCOD9326258
_publ_section_title
;
Structure prediction by ZEFSAII (Michael W. Deem and Ramdas Pophale) SiO2 
 PCOD9326258
Probable space group: F 2 2 2
;
_chemical_formula_sum "Si O2"
_cell_formula_units_Z 88
_cell_length_a 22.299028
_cell_length_b 14.903638
_cell_length_c 12.105135
_cell_angle_alpha 90.000000
_cell_angle_beta 90.000000
_cell_angle_gamma 90.000000
_cell_volume 4022.979906
_symmetry_space_group_name_H-M "F 2 2 2"
_symmetry_group_IT_number 22
_symmetry_cell_setting 'orthorhombic'
loop_
_space_group_symop_operation_xyz
x,y,z
-x,-y,z
x,-y,-z
-x,y,-z
x,1/2+y,1/2+z
-x,1/2-y,1/2+z
x,1/2-y,1/2-z
-x,1/2+y,1/2-z
1/2+x,y,1/2+z
1/2-x,-y,1/2+z
1/2+x,-y,1/2-z
1/2-x,y,1/2-z
1/2+x,1/2+y,z
1/2-x,1/2-y,z
1/2+x,1/2-y,-z
1/2-x,1/2+y,-z
loop_
_atom_site_type_symbol
_atom_site_label
_atom_site_fract_x
_atom_site_fract_y
_atom_site_fract_z
Si Si1 0.089971 0.357729 0.770382
Si Si2 0.317161 0.350033 0.919597
Si Si3 0.815395 0.643309 0.946714
Si Si4 0.000000 0.500000 0.683153
Si Si5 0.878411 0.065405 0.901202
Si Si6 0.181227 0.151750 0.289755
O O1 0.077179 0.250000 0.750000
O O2 0.137669 0.382652 0.674196
O O3 0.124559 0.384579 0.882778
O O4 0.032826 0.421036 0.751061
O O5 0.251239 0.395125 0.919872
O O6 0.309571 0.244327 0.900439
O O7 0.352012 0.347943 0.036781
O O8 0.821495 0.640081 0.078744
O O9 0.948464 0.452028 0.611077
O O10 0.853338 0.075562 0.778448
O O11 0.855323 0.000000 0.000000
O O12 0.158907 0.250000 0.250000
O O13 0.250000 0.146818 0.250000
#
# Coordination Sequence:
#
# PCOD9326258 Si02
#       6
#    16  16  16   8  16  16
#     4  10  23  42  69 102 140 189 233 289 360 413
#     4  10  18  38  70 103 138 173 224 287 363 425
#     4  10  19  39  68 107 141 172 222 290 360 440
#     4  12  27  46  67  96 134 187 253 280 320 424
#     4  12  24  41  64  97 133 178 231 292 339 398
#     4  11  20  40  70 104 135 175 229 289 360 430
#
# _framework density 21.874333
#
# number of rings (size 3 to 8) (size 9 to 14) (size 15 to 20)
#    0.000    1.273    5.455    1.909    0.000    2.909 
#    3.273    2.727    0.000    0.000    0.000    0.000 
#    0.000    0.000    0.000    0.000    0.000    0.000 
#
# Total GULP energy -122511.349489 kJ/mol
# GULP energy per Si atom -5568.697704 kJ/mol
# Density = 2.182455 g / cm^3
# Si number density = 21.874333 Si / 1000 Ang^3
#
#
#
# Elastic Constant Matrix: (Units=GPa)
#
#
# Indices 1 2 3 4 5 6 
#
# 1 126.0388 54.6853 41.7361 0.0000 0.0000 0.0000
# 2 54.6853 78.1330 32.8690 0.0000 0.0000 0.0000
# 3 41.7361 32.8690 142.0912 0.0000 0.0000 0.0000
# 4 0.0000 0.0000 0.0000 28.8803 0.0000 0.0000
# 5 0.0000 0.0000 0.0000 0.0000 39.6074 0.0000
# 6 0.0000 0.0000 0.0000 0.0000 0.0000 42.1513
#
#
#
# Elastic Compliance Matrix: (Units=1/GPa)
#
#
# Indices 1 2 3 4 5 6 
#
# 1 0.011761 -0.007509 -0.001717 0.000000 0.000000 0.000000
# 2 -0.007509 0.018973 -0.002183 0.000000 0.000000 0.000000
# 3 -0.001717 -0.002183 0.008047 0.000000 0.000000 0.000000
# 4 0.000000 0.000000 0.000000 0.034626 0.000000 0.000000
# 5 0.000000 0.000000 0.000000 0.000000 0.025248 0.000000
# 6 0.000000 0.000000 0.000000 0.000000 0.000000 0.023724
#
#
# Mechanical properties :
#
#
# Convention : Reuss Voigt Hill
#
# Bulk Modulus (GPa) = 62.65105 67.20486 64.92796
# Shear Modulus (GPa) = 33.21874 36.59264 34.90569
#
# Velocity S-wave (km/s) = 3.90117 4.09450 3.99900
# Velocity P-wave (km/s) = 6.99969 7.28993 7.14628
#
# Compressibility (1/GPa) = 0.01596142
#
# Stress axis : x y z
#
# Youngs Moduli (GPa) = 85.02922 52.70773 124.26615
#
# Poissons Ratio (x) = 0.39577 0.21342
# Poissons Ratio (y) = 0.63847 0.27131
# Poissons Ratio (z) = 0.14604 0.11507
#
# Static dielectric constant tensor:
#      x y z
#    x 1.842320 0.000000 0.000000 
#    y 0.000000 2.276560 0.000000 
#    z 0.000000 0.000000 1.907080 
# 
# From -- ./inp_files/22599.got.cif
#   From: 2010.05.17/outbox.cif.g08.bks.cpg/sg22_12_cif.got.tgz:22599.got - 2010.06.03 23:40:54.
