data_PCOD9326539
_publ_section_title
;
Structure prediction by ZEFSAII (Michael W. Deem and Ramdas Pophale) SiO2 
 PCOD9326539
Probable space group: F 2 2 2
;
_chemical_formula_sum "Si O2"
_cell_formula_units_Z 112
_cell_length_a 13.354456
_cell_length_b 19.356391
_cell_length_c 25.047822
_cell_angle_alpha 90.000000
_cell_angle_beta 90.000000
_cell_angle_gamma 90.000000
_cell_volume 6474.713502
_symmetry_space_group_name_H-M "F 2 2 2"
_symmetry_group_IT_number 22
_symmetry_cell_setting 'orthorhombic'
loop_
_space_group_symop_operation_xyz
x,y,z
-x,-y,z
x,-y,-z
-x,y,-z
x,1/2+y,1/2+z
-x,1/2-y,1/2+z
x,1/2-y,1/2-z
-x,1/2+y,1/2-z
1/2+x,y,1/2+z
1/2-x,-y,1/2+z
1/2+x,-y,1/2-z
1/2-x,y,1/2-z
1/2+x,1/2+y,z
1/2-x,1/2-y,z
1/2+x,1/2-y,-z
1/2-x,1/2+y,-z
loop_
_atom_site_type_symbol
_atom_site_label
_atom_site_fract_x
_atom_site_fract_y
_atom_site_fract_z
Si Si1 0.955198 0.567994 0.713808
Si Si2 0.033167 0.722420 0.810166
Si Si3 0.389304 0.024230 0.439026
Si Si4 0.754478 0.036426 0.150048
Si Si5 0.893003 0.353461 0.633613
Si Si6 0.162391 0.838284 0.292939
Si Si7 0.696572 0.605910 0.308029
O O1 0.856127 0.542335 0.684040
O O2 0.917258 0.621099 0.756819
O O3 0.000000 0.500000 0.739707
O O4 0.034180 0.602346 0.673360
O O5 0.055030 0.750000 0.750000
O O6 0.072079 0.775655 0.855237
O O7 0.096966 0.651512 0.813128
O O8 0.911665 0.719634 0.815841
O O9 0.392046 0.105554 0.422744
O O10 0.500000 0.000000 0.420767
O O11 0.380774 0.000000 0.500000
O O12 0.299065 0.987329 0.406710
O O13 0.702736 0.110073 0.161338
O O14 0.688800 0.973890 0.173903
O O15 0.780342 0.360277 0.654308
O O16 0.250000 0.822048 0.250000
O O17 0.750000 0.607633 0.250000
#
# Coordination Sequence:
#
# PCOD9326539 Si02
#       7
#    16  16  16  16  16  16  16
#     4  11  16  31  50  76 116 146 182 228 274 320
#     4  12  23  33  46  76 120 165 189 211 259 351
#     4  10  19  36  63  88 100 129 185 259 308 319
#     4  10  20  33  51  83 106 145 187 244 283 323
#     4  11  20  33  52  81 118 143 184 234 280 340
#     4  10  23  33  48  74 116 165 195 215 264 343
#     4  11  19  30  50  78 115 154 188 223 270 331
#
# _framework density 17.298062999999999
#
# number of rings (size 3 to 8) (size 9 to 14) (size 15 to 20)
#    0.000    1.286    7.143    1.714    2.000    0.286 
#    0.000    0.000    0.000    0.000   29.714    4.000 
#    0.000    0.000    0.000    0.000    0.000    0.000 
#
# Total GULP energy -155926.034479 kJ/mol
# GULP energy per Si atom -5568.786946 kJ/mol
# Density = 1.725869 g / cm^3
# Si number density = 17.298063 Si / 1000 Ang^3
#
#
#
# Elastic Constant Matrix: (Units=GPa)
#
#
# Indices 1 2 3 4 5 6 
#
# 1 83.0051 26.4013 20.4695 0.0000 0.0000 0.0000
# 2 26.4013 64.1739 27.6777 0.0000 0.0000 0.0000
# 3 20.4695 27.6777 65.1735 0.0000 0.0000 0.0000
# 4 0.0000 0.0000 0.0000 16.3395 0.0000 0.0000
# 5 0.0000 0.0000 0.0000 0.0000 17.3386 0.0000
# 6 0.0000 0.0000 0.0000 0.0000 0.0000 37.2075
#
#
#
# Elastic Compliance Matrix: (Units=1/GPa)
#
#
# Indices 1 2 3 4 5 6 
#
# 1 0.014166 -0.004785 -0.002417 0.000000 0.000000 0.000000
# 2 -0.004785 0.020693 -0.007285 0.000000 0.000000 0.000000
# 3 -0.002417 -0.007285 0.019196 0.000000 0.000000 0.000000
# 4 0.000000 0.000000 0.000000 0.061201 0.000000 0.000000
# 5 0.000000 0.000000 0.000000 0.000000 0.057675 0.000000
# 6 0.000000 0.000000 0.000000 0.000000 0.000000 0.026876
#
#
# Mechanical properties :
#
#
# Convention : Reuss Voigt Hill
#
# Bulk Modulus (GPa) = 39.87088 40.16104 40.01596
# Shear Modulus (GPa) = 21.08439 23.36408 22.22423
#
# Velocity S-wave (km/s) = 3.49504 3.67914 3.58827
# Velocity P-wave (km/s) = 6.27587 6.42772 6.35225
#
# Compressibility (1/GPa) = 0.02508096
#
# Stress axis : x y z
#
# Youngs Moduli (GPa) = 70.59385 48.32474 52.09285
#
# Poissons Ratio (x) = 0.23125 0.12590
# Poissons Ratio (y) = 0.33782 0.37950
# Poissons Ratio (z) = 0.17061 0.35205
#
# Static dielectric constant tensor:
#      x y z
#    x 1.629690 0.000000 0.000000 
#    y 0.000000 1.712200 0.000000 
#    z 0.000000 0.000000 1.588690 
# 
# From -- ./inp_files/43003.got.cif
#   From: 2010.05.17/outbox.cif.g08.bks.cpg/sg22_22_cif.got.tgz:43003.got - 2010.06.03 23:40:54.
