data_PCOD9326422
_publ_section_title
;
Structure prediction by ZEFSAII (Michael W. Deem and Ramdas Pophale) SiO2 
 PCOD9326422
Probable space group: F 2 2 2
;
_chemical_formula_sum "Si O2"
_cell_formula_units_Z 80
_cell_length_a 10.592547
_cell_length_b 14.577527
_cell_length_c 22.288720
_cell_angle_alpha 90.000000
_cell_angle_beta 90.000000
_cell_angle_gamma 90.000000
_cell_volume 3441.671239
_symmetry_space_group_name_H-M "F 2 2 2"
_symmetry_group_IT_number 22
_symmetry_cell_setting 'orthorhombic'
loop_
_space_group_symop_operation_xyz
x,y,z
-x,-y,z
x,-y,-z
-x,y,-z
x,1/2+y,1/2+z
-x,1/2-y,1/2+z
x,1/2-y,1/2-z
-x,1/2+y,1/2-z
1/2+x,y,1/2+z
1/2-x,-y,1/2+z
1/2+x,-y,1/2-z
1/2-x,y,1/2-z
1/2+x,1/2+y,z
1/2-x,1/2-y,z
1/2+x,1/2-y,-z
1/2-x,1/2+y,-z
loop_
_atom_site_type_symbol
_atom_site_label
_atom_site_fract_x
_atom_site_fract_y
_atom_site_fract_z
Si Si1 0.617385 0.690482 0.544897
Si Si2 0.207446 0.852465 0.680287
Si Si3 0.048472 0.903962 0.270448
Si Si4 0.768451 0.962595 0.623364
Si Si5 0.118267 0.806142 0.153672
O O1 0.500000 0.684176 0.500000
O O2 0.750000 0.750000 0.529828
O O3 0.656154 0.588633 0.569780
O O4 0.560378 0.746575 0.601238
O O5 0.250000 0.870501 0.750000
O O6 0.250000 0.750000 0.665561
O O7 0.058328 0.865482 0.686082
O O8 0.248251 0.929427 0.632181
O O9 0.164268 0.931817 0.313359
O O10 0.064728 0.832340 0.217585
O O11 0.000000 0.000000 0.244180
O O12 0.640927 0.905642 0.624619
O O13 0.250000 0.750000 0.164204
#
# Coordination Sequence:
#
# PCOD9326422 Si02
#       5
#    16  16  16  16  16
#     4   9  20  38  64  97 128 169 230 284 335 398
#     4  10  21  33  51  87 136 173 205 254 323 402
#     4  10  19  34  57  91 131 167 203 253 324 404
#     4   9  18  35  58  86 124 169 213 264 325 401
#     4   9  19  33  58  89 123 165 211 260 323 403
#
# _framework density 23.244520999999999
#
# number of rings (size 3 to 8) (size 9 to 14) (size 15 to 20)
#    0.000    3.000    0.000    3.000    0.000   12.800 
#    0.000    4.000    0.000    6.000    0.000   39.200 
#    0.000    1.600    0.000    0.000    0.000    0.000 
#
# Total GULP energy -111400.560266 kJ/mol
# GULP energy per Si atom -5570.028013 kJ/mol
# Density = 2.319162 g / cm^3
# Si number density = 23.244521 Si / 1000 Ang^3
#
#
#
# Elastic Constant Matrix: (Units=GPa)
#
#
# Indices 1 2 3 4 5 6 
#
# 1 27.5916 41.4812 36.5092 0.0000 0.0000 0.0000
# 2 41.4812 220.9277 74.9605 0.0000 0.0000 0.0000
# 3 36.5092 74.9605 73.3591 0.0000 0.0000 0.0000
# 4 0.0000 0.0000 0.0000 11.0831 0.0000 0.0000
# 5 0.0000 0.0000 0.0000 0.0000 32.5302 0.0000
# 6 0.0000 0.0000 0.0000 0.0000 0.0000 22.7717
#
#
#
# Elastic Compliance Matrix: (Units=1/GPa)
#
#
# Indices 1 2 3 4 5 6 
#
# 1 0.107515 -0.003110 -0.050330 0.000000 0.000000 0.000000
# 2 -0.003110 0.007018 -0.005624 0.000000 0.000000 0.000000
# 3 -0.050330 -0.005624 0.044426 0.000000 0.000000 0.000000
# 4 0.000000 0.000000 0.000000 0.090228 0.000000 0.000000
# 5 0.000000 0.000000 0.000000 0.000000 0.030741 0.000000
# 6 0.000000 0.000000 0.000000 0.000000 0.000000 0.043914
#
#
# Mechanical properties :
#
#
# Convention : Reuss Voigt Hill
#
# Bulk Modulus (GPa) = 24.49058 69.75336 47.12197
# Shear Modulus (GPa) = 10.97502 24.53883 17.75693
#
# Velocity S-wave (km/s) = 2.17527 3.25265 2.76691
# Velocity P-wave (km/s) = 4.10707 6.64680 5.52485
#
# Compressibility (1/GPa) = 0.04083203
#
# Stress axis : x y z
#
# Youngs Moduli (GPa) = 9.30106 142.48080 22.50922
#
# Poissons Ratio (x) = 0.44312 1.13288
# Poissons Ratio (y) = 0.02893 0.12659
# Poissons Ratio (z) = 0.46812 0.80130
#
# Static dielectric constant tensor:
#      x y z
#    x 2.024080 0.000000 0.000000 
#    y 0.000000 2.025040 0.000000 
#    z 0.000000 0.000000 1.894920 
# 
# From -- ./inp_files/47949.got.cif
#   From: 2010.05.17/outbox.cif.g08.bks.cpg/sg22_24_cif.got.tgz:47949.got - 2010.06.03 23:40:54.
