data_PCOD9326025
_publ_section_title
;
Structure prediction by ZEFSAII (Michael W. Deem and Ramdas Pophale) SiO2 
 PCOD9326025
Probable space group: F 2 2 2
;
_chemical_formula_sum "Si O2"
_cell_formula_units_Z 60
_cell_length_a 12.517065
_cell_length_b 8.621375
_cell_length_c 25.051566
_cell_angle_alpha 90.000000
_cell_angle_beta 90.000000
_cell_angle_gamma 90.000000
_cell_volume 2703.422491
_symmetry_space_group_name_H-M "F 2 2 2"
_symmetry_group_IT_number 22
_symmetry_cell_setting 'orthorhombic'
loop_
_space_group_symop_operation_xyz
x,y,z
-x,-y,z
x,-y,-z
-x,y,-z
x,1/2+y,1/2+z
-x,1/2-y,1/2+z
x,1/2-y,1/2-z
-x,1/2+y,1/2-z
1/2+x,y,1/2+z
1/2-x,-y,1/2+z
1/2+x,-y,1/2-z
1/2-x,y,1/2-z
1/2+x,1/2+y,z
1/2-x,1/2-y,z
1/2+x,1/2-y,-z
1/2-x,1/2+y,-z
loop_
_atom_site_type_symbol
_atom_site_label
_atom_site_fract_x
_atom_site_fract_y
_atom_site_fract_z
Si Si1 0.500000 0.000000 0.394924
Si Si2 0.285409 0.004245 0.830614
Si Si3 0.775595 0.933986 0.942896
Si Si4 0.571498 0.288540 0.190392
Si Si5 0.250000 0.750000 0.750000
O O1 0.599223 0.040817 0.431801
O O2 0.489868 0.142089 0.352499
O O3 0.273274 0.971472 0.893105
O O4 0.378115 0.129246 0.828360
O O5 0.174346 0.091029 0.811051
O O6 0.308540 0.864681 0.791024
O O7 0.750000 0.750000 0.937859
O O8 0.743451 0.000000 0.000000
O O9 0.534264 0.250000 0.250000
#
# Coordination Sequence:
#
# PCOD9326025 Si02
#       5
#     8  16  16  16   4
#     4  10  21  40  68  98 136 188 241 296 372 426
#     4  10  19  36  63  97 143 185 245 290 358 447
#     4  11  23  43  70 101 138 188 250 305 365 435
#     4  10  17  38  62  92 137 189 224 298 362 425
#     4  12  20  30  64 108 140 186 242 286 352 446
#
# _framework density 22.194089999999999
#
# number of rings (size 3 to 8) (size 9 to 14) (size 15 to 20)
#    0.000    1.600    8.000    1.200    1.867    0.000 
#    9.600    0.000    0.000    9.600    0.000    0.000 
#    0.000    0.000    0.000    0.000    0.000    0.000 
#
# Total GULP energy -83729.512613 kJ/mol
# GULP energy per Si atom -5581.967508 kJ/mol
# Density = 2.214358 g / cm^3
# Si number density = 22.194090 Si / 1000 Ang^3
#
#
#
# Elastic Constant Matrix: (Units=GPa)
#
#
# Indices 1 2 3 4 5 6 
#
# 1 64.8944 37.9615 22.6126 0.0000 0.0000 0.0000
# 2 37.9615 110.1713 59.0168 0.0000 0.0000 0.0000
# 3 22.6126 59.0168 195.5759 0.0000 0.0000 0.0000
# 4 0.0000 0.0000 0.0000 39.9403 0.0000 0.0000
# 5 0.0000 0.0000 0.0000 0.0000 7.3056 0.0000
# 6 0.0000 0.0000 0.0000 0.0000 0.0000 37.8984
#
#
#
# Elastic Compliance Matrix: (Units=1/GPa)
#
#
# Indices 1 2 3 4 5 6 
#
# 1 0.019312 -0.006510 -0.000268 0.000000 0.000000 0.000000
# 2 -0.006510 0.013022 -0.003177 0.000000 0.000000 0.000000
# 3 -0.000268 -0.003177 0.006103 0.000000 0.000000 0.000000
# 4 0.000000 0.000000 0.000000 0.025037 0.000000 0.000000
# 5 0.000000 0.000000 0.000000 0.000000 0.136881 0.000000
# 6 0.000000 0.000000 0.000000 0.000000 0.000000 0.026386
#
#
# Mechanical properties :
#
#
# Convention : Reuss Voigt Hill
#
# Bulk Modulus (GPa) = 53.98026 67.75813 60.86919
# Shear Modulus (GPa) = 19.77643 33.76557 26.77100
#
# Velocity S-wave (km/s) = 2.98831 3.90471 3.47684
# Velocity P-wave (km/s) = 6.02340 7.13619 6.60328
#
# Compressibility (1/GPa) = 0.01852529
#
# Stress axis : x y z
#
# Youngs Moduli (GPa) = 51.78244 76.79451 163.86155
#
# Poissons Ratio (x) = 0.49997 0.04395
# Poissons Ratio (y) = 0.33713 0.52054
# Poissons Ratio (z) = 0.01389 0.24395
#
# Static dielectric constant tensor:
#      x y z
#    x 1.931050 0.000000 0.000000 
#    y 0.000000 1.857440 0.000000 
#    z 0.000000 0.000000 1.824010 
# 
# From -- ./inp_files/48599.got.cif
#   From: 2010.05.17/outbox.cif.g08.bks.cpg/sg22_25_cif.got.tgz:48599.got - 2010.06.03 23:40:54.
