data_PCOD9326302
_publ_section_title
;
Structure prediction by ZEFSAII (Michael W. Deem and Ramdas Pophale) SiO2 
 PCOD9326302
Probable space group: F 2 2 2
;
_chemical_formula_sum "Si O2"
_cell_formula_units_Z 80
_cell_length_a 15.023478
_cell_length_b 10.081159
_cell_length_c 26.023475
_cell_angle_alpha 90.000000
_cell_angle_beta 90.000000
_cell_angle_gamma 90.000000
_cell_volume 3941.361216
_symmetry_space_group_name_H-M "F 2 2 2"
_symmetry_group_IT_number 22
_symmetry_cell_setting 'orthorhombic'
loop_
_space_group_symop_operation_xyz
x,y,z
-x,-y,z
x,-y,-z
-x,y,-z
x,1/2+y,1/2+z
-x,1/2-y,1/2+z
x,1/2-y,1/2-z
-x,1/2+y,1/2-z
1/2+x,y,1/2+z
1/2-x,-y,1/2+z
1/2+x,-y,1/2-z
1/2-x,y,1/2-z
1/2+x,1/2+y,z
1/2-x,1/2-y,z
1/2+x,1/2-y,-z
1/2-x,1/2+y,-z
loop_
_atom_site_type_symbol
_atom_site_label
_atom_site_fract_x
_atom_site_fract_y
_atom_site_fract_z
Si Si1 0.399732 0.001493 0.659473
Si Si2 0.896495 0.791152 0.356476
Si Si3 0.152153 0.007084 0.727562
Si Si4 0.613005 0.786196 0.859364
Si Si5 0.108436 0.501620 0.941613
O O1 0.359419 0.857775 0.647483
O O2 0.500000 0.000000 0.637815
O O3 0.405253 0.016946 0.720956
O O4 0.353790 0.135167 0.639570
O O5 0.867743 0.870073 0.407461
O O6 0.004642 0.783850 0.356370
O O7 0.871904 0.881478 0.307673
O O8 0.250000 0.993699 0.750000
O O9 0.143378 0.135037 0.691265
O O10 0.636696 0.873537 0.908783
O O11 0.000000 0.500000 0.942931
O O12 0.140708 0.500000 0.000000
#
# Coordination Sequence:
#
# PCOD9326302 Si02
#       5
#    16  16  16  16  16
#     4  10  19  31  47  68  98 132 160 194 241 289
#     4   9  18  32  49  71  98 128 163 198 237 288
#     4  11  21  31  46  70  98 131 165 198 235 284
#     4   9  18  32  49  71  98 128 163 198 237 288
#     4   8  14  28  50  72  94 122 157 197 240 286
#
# _framework density 20.297557000000001
#
# number of rings (size 3 to 8) (size 9 to 14) (size 15 to 20)
#    0.000    2.600    0.000    4.200    0.000    6.400 
#    0.000    1.000    0.000    6.000    0.000   22.400 
#    0.000    0.000    0.000    0.000    0.000   12.800 
#
# Total GULP energy -111641.873285 kJ/mol
# GULP energy per Si atom -5582.093664 kJ/mol
# Density = 2.025136 g / cm^3
# Si number density = 20.297557 Si / 1000 Ang^3
#
#
#
# Elastic Constant Matrix: (Units=GPa)
#
#
# Indices 1 2 3 4 5 6 
#
# 1 36.7551 -13.6267 -6.7050 0.0000 0.0000 0.0000
# 2 -13.6267 170.9289 57.3972 0.0000 0.0000 0.0000
# 3 -6.7050 57.3972 125.3962 0.0000 0.0000 0.0000
# 4 0.0000 0.0000 0.0000 7.1105 0.0000 0.0000
# 5 0.0000 0.0000 0.0000 0.0000 7.0600 0.0000
# 6 0.0000 0.0000 0.0000 0.0000 0.0000 3.6629
#
#
#
# Elastic Compliance Matrix: (Units=1/GPa)
#
#
# Indices 1 2 3 4 5 6 
#
# 1 0.028069 0.002049 0.000563 0.000000 0.000000 0.000000
# 2 0.002049 0.007062 -0.003123 0.000000 0.000000 0.000000
# 3 0.000563 -0.003123 0.009434 0.000000 0.000000 0.000000
# 4 0.000000 0.000000 0.000000 0.140638 0.000000 0.000000
# 5 0.000000 0.000000 0.000000 0.000000 0.141644 0.000000
# 6 0.000000 0.000000 0.000000 0.000000 0.000000 0.273007
#
#
# Mechanical properties :
#
#
# Convention : Reuss Voigt Hill
#
# Bulk Modulus (GPa) = 22.96555 45.24571 34.10563
# Shear Modulus (GPa) = 8.12491 23.30098 15.71295
#
# Velocity S-wave (km/s) = 2.00290 3.39185 2.78534
# Velocity P-wave (km/s) = 4.08507 6.13833 5.21377
#
# Compressibility (1/GPa) = 0.04354349
#
# Stress axis : x y z
#
# Youngs Moduli (GPa) = 35.62604 141.59419 105.99535
#
# Poissons Ratio (x) = -0.29007 -0.05969
# Poissons Ratio (y) = -0.07298 0.33104
# Poissons Ratio (z) = -0.02006 0.44222
#
# Static dielectric constant tensor:
#      x y z
#    x 1.818400 0.000000 0.000000 
#    y 0.000000 1.752160 0.000000 
#    z 0.000000 0.000000 1.671760 
# 
# From -- ./inp_files/14663.got.cif
#   From: 2010.05.17/outbox.cif.g08.bks.cpg/sg22_8_cif.got.tgz:14663.got - 2010.06.03 23:40:54.
