data_PCOD9326965
_publ_section_title
;
Structure prediction by ZEFSAII (Michael W. Deem and Ramdas Pophale) SiO2 
 PCOD9326965
Probable space group: F 2 2 2
;
_chemical_formula_sum "Si O2"
_cell_formula_units_Z 80
_cell_length_a 15.084255
_cell_length_b 8.258242
_cell_length_c 30.504696
_cell_angle_alpha 90.000000
_cell_angle_beta 90.000000
_cell_angle_gamma 90.000000
_cell_volume 3799.952538
_symmetry_space_group_name_H-M "F 2 2 2"
_symmetry_group_IT_number 22
_symmetry_cell_setting 'orthorhombic'
loop_
_space_group_symop_operation_xyz
x,y,z
-x,-y,z
x,-y,-z
-x,y,-z
x,1/2+y,1/2+z
-x,1/2-y,1/2+z
x,1/2-y,1/2-z
-x,1/2+y,1/2-z
1/2+x,y,1/2+z
1/2-x,-y,1/2+z
1/2+x,-y,1/2-z
1/2-x,y,1/2-z
1/2+x,1/2+y,z
1/2-x,1/2-y,z
1/2+x,1/2-y,-z
1/2-x,1/2+y,-z
loop_
_atom_site_type_symbol
_atom_site_label
_atom_site_fract_x
_atom_site_fract_y
_atom_site_fract_z
Si Si1 0.503824 0.697063 0.049897
Si Si2 0.078283 0.638637 0.792541
Si Si3 0.153985 0.827675 0.293173
Si Si4 0.351328 0.803058 0.384360
Si Si5 0.147870 0.691497 0.620995
O O1 0.500000 0.500000 0.048787
O O2 0.416819 0.747031 0.076899
O O3 0.591028 0.741845 0.077990
O O4 0.500000 0.755743 0.000000
O O5 0.072875 0.750000 0.750000
O O6 0.161840 0.518238 0.788265
O O7 0.096513 0.739234 0.836499
O O8 0.000000 0.500000 0.794129
O O9 0.111411 0.750000 0.250000
O O10 0.250000 0.750000 0.295860
O O11 0.113415 0.777973 0.339572
O O12 0.250000 0.750000 0.392400
O O13 0.353104 0.996301 0.377785
O O14 0.250000 0.750000 0.619928
#
# Coordination Sequence:
#
# PCOD9326965 Si02
#       5
#    16  16  16  16  16
#     4   9  20  39  62  88 122 165 212 264 322 384
#     4  12  26  42  63  92 129 169 217 266 319 381
#     4  10  20  37  60  86 121 159 199 247 306 370
#     4  10  20  38  64  92 127 168 209 259 322 384
#     4  11  23  39  64  96 129 167 216 267 322 385
#
# _framework density 21.052893999999998
#
# number of rings (size 3 to 8) (size 9 to 14) (size 15 to 20)
#    0.000    1.600    0.000    5.400    0.000    5.200 
#    0.000    0.000    0.000   13.800    0.000    0.000 
#    0.000    0.000    0.000    0.000    0.000    0.000 
#
# Total GULP energy -111661.553554 kJ/mol
# GULP energy per Si atom -5583.077678 kJ/mol
# Density = 2.100498 g / cm^3
# Si number density = 21.052894 Si / 1000 Ang^3
#
#
#
# Elastic Constant Matrix: (Units=GPa)
#
#
# Indices 1 2 3 4 5 6 
#
# 1 144.1985 46.3427 90.5571 0.0000 0.0000 0.0000
# 2 46.3427 101.2045 57.4768 0.0000 0.0000 0.0000
# 3 90.5571 57.4768 239.7621 0.0000 0.0000 0.0000
# 4 0.0000 0.0000 0.0000 24.9627 0.0000 0.0000
# 5 0.0000 0.0000 0.0000 0.0000 84.9184 0.0000
# 6 0.0000 0.0000 0.0000 0.0000 0.0000 164.8865
#
#
#
# Elastic Compliance Matrix: (Units=1/GPa)
#
#
# Indices 1 2 3 4 5 6 
#
# 1 0.009704 -0.002734 -0.003010 0.000000 0.000000 0.000000
# 2 -0.002734 0.012209 -0.001894 0.000000 0.000000 0.000000
# 3 -0.003010 -0.001894 0.005762 0.000000 0.000000 0.000000
# 4 0.000000 0.000000 0.000000 0.040060 0.000000 0.000000
# 5 0.000000 0.000000 0.000000 0.000000 0.011776 0.000000
# 6 0.000000 0.000000 0.000000 0.000000 0.000000 0.006065
#
#
# Mechanical properties :
#
#
# Convention : Reuss Voigt Hill
#
# Bulk Modulus (GPa) = 80.65632 97.10203 88.87917
# Shear Modulus (GPa) = 47.62692 74.33943 60.98317
#
# Velocity S-wave (km/s) = 4.76147 5.94873 5.38791
# Velocity P-wave (km/s) = 8.28392 9.66469 9.00082
#
# Compressibility (1/GPa) = 0.01239828
#
# Stress axis : x y z
#
# Youngs Moduli (GPa) = 103.05438 81.90902 173.56461
#
# Poissons Ratio (x) = 0.22395 0.52235
# Poissons Ratio (y) = 0.28177 0.32874
# Poissons Ratio (z) = 0.31015 0.15514
#
# Static dielectric constant tensor:
#      x y z
#    x 1.918410 0.000000 0.000000 
#    y 0.000000 1.789660 0.000000 
#    z 0.000000 0.000000 1.577110 
# 
# From -- ./inp_files/53465.got.cif
#   From: 2010.05.17/outbox.cif.g08.bks.cpg/sg22_27_cif.got.tgz:53465.got - 2010.06.03 23:40:54.
