data_PCOD9326209
_publ_section_title
;
Structure prediction by ZEFSAII (Michael W. Deem and Ramdas Pophale) SiO2 
 PCOD9326209
Probable space group: F 2 2 2
;
_chemical_formula_sum "Si O2"
_cell_formula_units_Z 96
_cell_length_a 21.013299
_cell_length_b 21.318492
_cell_length_c 11.387405
_cell_angle_alpha 90.000000
_cell_angle_beta 90.000000
_cell_angle_gamma 90.000000
_cell_volume 5101.236846
_symmetry_space_group_name_H-M "F 2 2 2"
_symmetry_group_IT_number 22
_symmetry_cell_setting 'orthorhombic'
loop_
_space_group_symop_operation_xyz
x,y,z
-x,-y,z
x,-y,-z
-x,y,-z
x,1/2+y,1/2+z
-x,1/2-y,1/2+z
x,1/2-y,1/2-z
-x,1/2+y,1/2-z
1/2+x,y,1/2+z
1/2-x,-y,1/2+z
1/2+x,-y,1/2-z
1/2-x,y,1/2-z
1/2+x,1/2+y,z
1/2-x,1/2-y,z
1/2+x,1/2-y,-z
1/2-x,1/2+y,-z
loop_
_atom_site_type_symbol
_atom_site_label
_atom_site_fract_x
_atom_site_fract_y
_atom_site_fract_z
Si Si1 0.794062 0.805869 0.452910
Si Si2 0.089621 0.679975 0.805861
Si Si3 0.938957 0.392124 0.586777
Si Si4 0.143249 0.000000 0.000000
Si Si5 0.710367 0.612872 0.867362
Si Si6 0.000000 0.275349 0.000000
Si Si7 0.883802 0.291178 0.423719
O O1 0.750000 0.750000 0.402694
O O2 0.839210 0.834981 0.352594
O O3 0.752524 0.853404 0.530869
O O4 0.839545 0.766970 0.542762
O O5 0.092073 0.750000 0.750000
O O6 0.055444 0.631713 0.718728
O O7 0.046880 0.685563 0.921064
O O8 0.902571 0.457399 0.579757
O O9 0.892819 0.338129 0.533937
O O10 0.000000 0.394977 0.500000
O O11 0.182988 0.048763 0.921551
O O12 0.750000 0.602109 0.750000
O O13 0.653387 0.662825 0.836478
O O14 0.955595 0.234178 0.088332
#
# Coordination Sequence:
#
# PCOD9326209 Si02
#       7
#    16  16  16   8  16   8  16
#     4   9  19  35  54  90 130 158 197 243 315 394
#     4  11  20  35  58  95 132 162 197 251 332 385
#     4  11  20  40  61  89 121 163 212 259 307 381
#     4  10  25  42  62  84 110 167 244 250 302 364
#     4  10  22  41  58  86 120 166 219 262 310 367
#     4  10  18  36  54  99 131 156 196 240 326 404
#     4   9  17  35  55  88 128 154 194 241 313 389
#
# _framework density 18.818966
#
# number of rings (size 3 to 8) (size 9 to 14) (size 15 to 20)
#    0.000    2.000    4.167    0.250    0.000    4.667 
#   21.000    0.000    0.000    0.000    0.000    0.000 
#    0.000    0.000    0.000    0.000    0.000    0.000 
#
# Total GULP energy -133639.891483 kJ/mol
# GULP energy per Si atom -5568.328812 kJ/mol
# Density = 1.877613 g / cm^3
# Si number density = 18.818966 Si / 1000 Ang^3
#
#
#
# Elastic Constant Matrix: (Units=GPa)
#
#
# Indices 1 2 3 4 5 6 
#
# 1 122.1339 49.9095 48.9696 0.0000 0.0000 0.0000
# 2 49.9095 101.9312 41.2058 0.0000 0.0000 0.0000
# 3 48.9696 41.2058 89.2782 0.0000 0.0000 0.0000
# 4 0.0000 0.0000 0.0000 17.0581 0.0000 0.0000
# 5 0.0000 0.0000 0.0000 0.0000 28.1038 0.0000
# 6 0.0000 0.0000 0.0000 0.0000 0.0000 31.3844
#
#
#
# Elastic Compliance Matrix: (Units=1/GPa)
#
#
# Indices 1 2 3 4 5 6 
#
# 1 0.011590 -0.003817 -0.004595 0.000000 0.000000 0.000000
# 2 -0.003817 0.013318 -0.004053 0.000000 0.000000 0.000000
# 3 -0.004595 -0.004053 0.015592 0.000000 0.000000 0.000000
# 4 0.000000 0.000000 0.000000 0.058623 0.000000 0.000000
# 5 0.000000 0.000000 0.000000 0.000000 0.035582 0.000000
# 6 0.000000 0.000000 0.000000 0.000000 0.000000 0.031863
#
#
# Mechanical properties :
#
#
# Convention : Reuss Voigt Hill
#
# Bulk Modulus (GPa) = 64.23060 65.94590 65.08825
# Shear Modulus (GPa) = 25.42070 26.85984 26.14027
#
# Velocity S-wave (km/s) = 3.67931 3.78203 3.73102
# Velocity P-wave (km/s) = 7.22874 7.36138 7.29536
#
# Compressibility (1/GPa) = 0.01556890
#
# Stress axis : x y z
#
# Youngs Moduli (GPa) = 86.27980 75.08577 64.13453
#
# Poissons Ratio (x) = 0.28663 0.29473
# Poissons Ratio (y) = 0.32936 0.25994
# Poissons Ratio (z) = 0.39649 0.30433
#
# Static dielectric constant tensor:
#      x y z
#    x 1.725260 0.000000 0.000000 
#    y 0.000000 1.647750 0.000000 
#    z 0.000000 0.000000 1.692170 
# 
# From -- ./inp_files/22857.got.cif
#   From: 2010.05.17/outbox.cif.g08.bks.cpg/sg22_12_cif.got.tgz:22857.got - 2010.06.03 23:40:54.
