data_PCOD9326329
_publ_section_title
;
Structure prediction by ZEFSAII (Michael W. Deem and Ramdas Pophale) SiO2 
 PCOD9326329
Probable space group: F 2 2 2
;
_chemical_formula_sum "Si O2"
_cell_formula_units_Z 112
_cell_length_a 35.210122
_cell_length_b 5.340358
_cell_length_c 32.303714
_cell_angle_alpha 90.000000
_cell_angle_beta 90.000000
_cell_angle_gamma 90.000000
_cell_volume 6074.217772
_symmetry_space_group_name_H-M "F 2 2 2"
_symmetry_group_IT_number 22
_symmetry_cell_setting 'orthorhombic'
loop_
_space_group_symop_operation_xyz
x,y,z
-x,-y,z
x,-y,-z
-x,y,-z
x,1/2+y,1/2+z
-x,1/2-y,1/2+z
x,1/2-y,1/2-z
-x,1/2+y,1/2-z
1/2+x,y,1/2+z
1/2-x,-y,1/2+z
1/2+x,-y,1/2-z
1/2-x,y,1/2-z
1/2+x,1/2+y,z
1/2-x,1/2-y,z
1/2+x,1/2-y,-z
1/2-x,1/2+y,-z
loop_
_atom_site_type_symbol
_atom_site_label
_atom_site_fract_x
_atom_site_fract_y
_atom_site_fract_z
Si Si1 0.978677 0.254347 0.300216
Si Si2 0.316901 0.243263 0.411046
Si Si3 0.233558 0.494383 0.203489
Si Si4 0.791591 0.243971 0.452894
Si Si5 0.133550 0.750155 0.987089
Si Si6 0.889761 0.177253 0.201547
Si Si7 0.153101 0.158839 0.320475
O O1 0.981385 0.250000 0.250000
O O2 0.934293 0.299949 0.308893
O O3 0.000000 0.500000 0.315708
O O4 0.000000 0.000000 0.314311
O O5 0.295198 0.492276 0.425970
O O6 0.354660 0.246333 0.439657
O O7 0.328739 0.260644 0.363895
O O8 0.296368 0.987488 0.424126
O O9 0.250000 0.498087 0.250000
O O10 0.250000 0.250000 0.181216
O O11 0.188929 0.441431 0.206381
O O12 0.250000 0.750000 0.184193
O O13 0.750000 0.250000 0.473168
O O14 0.826534 0.248653 0.485701
O O15 0.112983 0.500000 0.000000
O O16 0.112911 0.000000 0.000000
O O17 0.885382 0.250000 0.250000
O O18 0.870863 0.403778 0.175900
O O19 0.870708 0.901612 0.195319
#
# Coordination Sequence:
#
# PCOD9326329 Si02
#       7
#    16  16  16  16  16  16  16
#     4   9  17  33  56  83 112 128 152 198 249 310
#     4  10  21  33  46  69  96 124 155 209 263 300
#     4  10  23  38  53  64  82 123 177 237 285 302
#     4  10  19  32  51  69  93 121 160 208 268 338
#     4   8  16  29  46  67  89 119 154 186 253 321
#     4  11  24  37  59  82 100 138 176 210 260 320
#     4  12  24  38  54  74 103 131 182 230 266 315
#
# _framework density 18.438586999999998
#
# number of rings (size 3 to 8) (size 9 to 14) (size 15 to 20)
#    0.000    2.000    0.000    3.429    6.000    9.143 
#    0.000    0.000    0.000    0.000    0.000    0.000 
#    0.000    0.000    0.000    0.000    0.000  450.000 
#
# Total GULP energy -156047.546932 kJ/mol
# GULP energy per Si atom -5573.126676 kJ/mol
# Density = 1.839662 g / cm^3
# Si number density = 18.438587 Si / 1000 Ang^3
#
#
#
# Elastic Constant Matrix: (Units=GPa)
#
#
# Indices 1 2 3 4 5 6 
#
# 1 96.2692 53.8816 12.0896 -0.0037 0.0157 -0.0050
# 2 53.8816 195.9617 7.2120 0.0002 0.1438 0.0259
# 3 12.0896 7.2120 55.1150 0.0033 0.0035 -0.0031
# 4 -0.0037 0.0002 0.0033 19.6027 0.0225 0.0080
# 5 0.0157 0.1438 0.0035 0.0225 5.6119 -0.0079
# 6 -0.0050 0.0259 -0.0031 0.0080 -0.0079 29.3451
#
#
#
# Elastic Compliance Matrix: (Units=1/GPa)
#
#
# Indices 1 2 3 4 5 6 
#
# 1 0.012564 -0.003369 -0.002315 0.000003 0.000053 0.000005
# 2 -0.003369 0.006031 -0.000050 -0.000001 -0.000145 -0.000006
# 3 -0.002315 -0.000050 0.018658 -0.000004 -0.000004 0.000002
# 4 0.000003 -0.000001 -0.000004 0.051014 -0.000205 -0.000014
# 5 0.000053 -0.000145 -0.000004 -0.000205 0.178198 0.000048
# 6 0.000005 -0.000006 0.000002 -0.000014 0.000048 0.034077
#
#
# Mechanical properties :
#
#
# Convention : Reuss Voigt Hill
#
# Bulk Modulus (GPa) = 38.78298 54.85694 46.81996
# Shear Modulus (GPa) = 15.59544 29.18945 22.39245
#
# Velocity S-wave (km/s) = 2.91143 3.98309 3.48865
# Velocity P-wave (km/s) = 5.69044 7.13926 6.45563
#
# Compressibility (1/GPa) = 0.02578451
#
# Stress axis : x y z
#
# Youngs Moduli (GPa) = 79.59160 165.79739 53.59560
#
# Poissons Ratio (x) = 0.55865 0.12408
# Poissons Ratio (y) = 0.26818 0.00269
# Poissons Ratio (z) = 0.18426 0.00831
#
# Static dielectric constant tensor:
#      x y z
#    x 1.662680 -0.000070 0.000010 
#    y -0.000070 1.672690 0.000000 
#    z 0.000010 0.000000 1.628360 
# 
# From -- ./inp_files/57361.got.cif
#   From: 2010.05.17/outbox.cif.g08.bks.cpg/sg22_29_cif.got.tgz:57361.got - 2010.06.03 23:40:54.
