data_PCOD9326534
_publ_section_title
;
Structure prediction by ZEFSAII (Michael W. Deem and Ramdas Pophale) SiO2 
 PCOD9326534
Probable space group: F 2 2 2
;
_chemical_formula_sum "Si O2"
_cell_formula_units_Z 80
_cell_length_a 13.290957
_cell_length_b 19.115626
_cell_length_c 16.085769
_cell_angle_alpha 90.000000
_cell_angle_beta 90.000000
_cell_angle_gamma 90.000000
_cell_volume 4086.830309
_symmetry_space_group_name_H-M "F 2 2 2"
_symmetry_group_IT_number 22
_symmetry_cell_setting 'orthorhombic'
loop_
_space_group_symop_operation_xyz
x,y,z
-x,-y,z
x,-y,-z
-x,y,-z
x,1/2+y,1/2+z
-x,1/2-y,1/2+z
x,1/2-y,1/2-z
-x,1/2+y,1/2-z
1/2+x,y,1/2+z
1/2-x,-y,1/2+z
1/2+x,-y,1/2-z
1/2-x,y,1/2-z
1/2+x,1/2+y,z
1/2-x,1/2-y,z
1/2+x,1/2-y,-z
1/2-x,1/2+y,-z
loop_
_atom_site_type_symbol
_atom_site_label
_atom_site_fract_x
_atom_site_fract_y
_atom_site_fract_z
Si Si1 0.290060 0.999828 0.872765
Si Si2 0.000000 0.142640 0.000000
Si Si3 0.770547 0.607227 0.491548
Si Si4 0.591263 0.456257 0.224405
Si Si5 0.250000 0.750000 0.414661
Si Si6 0.949481 0.702370 0.675636
O O1 0.386156 0.014992 0.816571
O O2 0.191549 0.023877 0.823413
O O3 0.268349 0.920842 0.903007
O O4 0.286574 0.054611 0.947372
O O5 0.892886 0.101659 0.000672
O O6 0.995999 0.186971 0.913364
O O7 0.743646 0.683508 0.524635
O O8 0.500000 0.500000 0.187118
O O9 0.572169 0.374043 0.214890
O O10 0.154049 0.738349 0.355467
O O11 0.994220 0.750000 0.750000
#
# Coordination Sequence:
#
# PCOD9326534 Si02
#       6
#    16   8  16  16   8  16
#     4  10  21  35  62  90 122 167 209 261 329 379
#     4  10  20  37  60  98 121 168 214 274 328 375
#     4  10  20  37  60  89 124 162 216 264 319 394
#     4  11  22  40  60  93 128 166 218 268 327 392
#     4  10  19  36  62  89 122 160 211 262 328 376
#     4  11  22  37  65  95 127 166 216 277 327 388
#
# _framework density 19.575073
#
# number of rings (size 3 to 8) (size 9 to 14) (size 15 to 20)
#    0.000    1.600    4.000    2.700    2.800    0.800 
#    7.200    2.000    0.000    0.000    0.000    0.000 
#    0.000    0.000    0.000    0.000    0.000    0.000 
#
# Total GULP energy -111342.860184 kJ/mol
# GULP energy per Si atom -5567.143009 kJ/mol
# Density = 1.953052 g / cm^3
# Si number density = 19.575073 Si / 1000 Ang^3
#
#
#
# Elastic Constant Matrix: (Units=GPa)
#
#
# Indices 1 2 3 4 5 6 
#
# 1 32.7651 10.1865 -3.9191 0.0000 0.0000 0.0000
# 2 10.1865 117.5438 39.4919 0.0000 0.0000 0.0000
# 3 -3.9191 39.4919 95.3711 0.0000 0.0000 0.0000
# 4 0.0000 0.0000 0.0000 49.5086 0.0000 0.0000
# 5 0.0000 0.0000 0.0000 0.0000 22.4412 0.0000
# 6 0.0000 0.0000 0.0000 0.0000 0.0000 3.9743
#
#
#
# Elastic Compliance Matrix: (Units=1/GPa)
#
#
# Indices 1 2 3 4 5 6 
#
# 1 0.032025 -0.003737 0.002864 0.000000 0.000000 0.000000
# 2 -0.003737 0.010319 -0.004426 0.000000 0.000000 0.000000
# 3 0.002864 -0.004426 0.012436 0.000000 0.000000 0.000000
# 4 0.000000 0.000000 0.000000 0.020199 0.000000 0.000000
# 5 0.000000 0.000000 0.000000 0.000000 0.044561 0.000000
# 6 0.000000 0.000000 0.000000 0.000000 0.000000 0.251615
#
#
# Mechanical properties :
#
#
# Convention : Reuss Voigt Hill
#
# Bulk Modulus (GPa) = 22.63523 37.46651 30.05087
# Shear Modulus (GPa) = 12.61098 28.51287 20.56192
#
# Velocity S-wave (km/s) = 2.54094 3.82067 3.24452
# Velocity P-wave (km/s) = 4.49409 6.21650 5.42410
#
# Compressibility (1/GPa) = 0.04417892
#
# Stress axis : x y z
#
# Youngs Moduli (GPa) = 31.22581 96.91328 80.41224
#
# Poissons Ratio (x) = 0.36221 -0.23027
# Poissons Ratio (y) = 0.11670 0.35593
# Poissons Ratio (z) = -0.08942 0.42897
#
# Static dielectric constant tensor:
#      x y z
#    x 1.660850 0.000000 0.000000 
#    y 0.000000 1.706510 0.000000 
#    z 0.000000 0.000000 1.934490 
# 
# From -- ./inp_files/30545.got.cif
#   From: 2010.05.17/outbox.cif.g08.bks.cpg/sg22_16_cif.got.tgz:30545.got - 2010.06.03 23:40:54.
