data_PCOD9326431
_publ_section_title
;
Structure prediction by ZEFSAII (Michael W. Deem and Ramdas Pophale) SiO2 
 PCOD9326431
Probable space group: F 2 2 2
;
_chemical_formula_sum "Si O2"
_cell_formula_units_Z 116
_cell_length_a 24.898952
_cell_length_b 18.459051
_cell_length_c 12.818946
_cell_angle_alpha 90.000000
_cell_angle_beta 90.000000
_cell_angle_gamma 90.000000
_cell_volume 5891.728908
_symmetry_space_group_name_H-M "F 2 2 2"
_symmetry_group_IT_number 22
_symmetry_cell_setting 'orthorhombic'
loop_
_space_group_symop_operation_xyz
x,y,z
-x,-y,z
x,-y,-z
-x,y,-z
x,1/2+y,1/2+z
-x,1/2-y,1/2+z
x,1/2-y,1/2-z
-x,1/2+y,1/2-z
1/2+x,y,1/2+z
1/2-x,-y,1/2+z
1/2+x,-y,1/2-z
1/2-x,y,1/2-z
1/2+x,1/2+y,z
1/2-x,1/2-y,z
1/2+x,1/2-y,-z
1/2-x,1/2+y,-z
loop_
_atom_site_type_symbol
_atom_site_label
_atom_site_fract_x
_atom_site_fract_y
_atom_site_fract_z
Si Si1 0.937962 0.520647 0.112407
Si Si2 0.910030 0.451061 0.335153
Si Si3 0.652803 0.913745 0.383512
Si Si4 0.623730 0.155368 0.842639
Si Si5 0.074348 0.201643 0.071363
Si Si6 0.457206 0.698720 0.151716
Si Si7 0.258111 0.666787 0.623630
Si Si8 0.500000 0.500000 0.000000
O O1 0.917621 0.482615 0.218021
O O2 0.925433 0.605414 0.122941
O O3 0.000000 0.500000 0.109194
O O4 0.913474 0.500000 0.000000
O O5 0.860918 0.501325 0.376816
O O6 0.915287 0.365207 0.323678
O O7 0.958975 0.465071 0.416219
O O8 0.638363 0.874944 0.272268
O O9 0.609976 0.869329 0.451515
O O10 0.712432 0.888804 0.413442
O O11 0.605710 0.237654 0.862811
O O12 0.680817 0.145177 0.900512
O O13 0.019619 0.176813 0.128697
O O14 0.060069 0.233821 0.958221
O O15 0.458732 0.750000 0.250000
O O16 0.250000 0.668657 0.750000
O O17 0.250000 0.750000 0.588095
#
# Coordination Sequence:
#
# PCOD9326431 Si02
#       8
#    16  16  16  16  16  16  16   4
#     4  10  23  37  58  82 117 158 199 237 297 358
#     4  11  22  37  56  84 120 166 199 248 292 358
#     4  10  19  34  59  90 117 150 193 245 306 355
#     4  10  20  34  59  89 121 146 187 246 304 353
#     4  11  22  35  56  87 118 154 195 248 290 359
#     4  11  25  36  52  81 123 163 204 234 289 353
#     4   9  16  31  56  89 119 144 180 245 311 351
#     4  12  20  36  62  80 124 156 200 248 306 352
#
# _framework density 19.688618000000002
#
# number of rings (size 3 to 8) (size 9 to 14) (size 15 to 20)
#    0.000    1.655    2.069    3.724    5.793    1.103 
#    0.000    0.000    4.552    0.000    0.000    1.931 
#    0.000    0.000    0.000    0.000    0.000    0.000 
#
# Total GULP energy -161438.368918 kJ/mol
# GULP energy per Si atom -5566.840308 kJ/mol
# Density = 1.964381 g / cm^3
# Si number density = 19.688618 Si / 1000 Ang^3
#
#
#
# Elastic Constant Matrix: (Units=GPa)
#
#
# Indices 1 2 3 4 5 6 
#
# 1 113.1463 50.3564 9.1576 0.0000 0.0000 0.0000
# 2 50.3564 95.3740 13.1532 0.0000 0.0000 0.0000
# 3 9.1576 13.1532 87.0113 0.0000 0.0000 0.0000
# 4 0.0000 0.0000 0.0000 -8.1107 0.0000 0.0000
# 5 0.0000 0.0000 0.0000 0.0000 8.2325 0.0000
# 6 0.0000 0.0000 0.0000 0.0000 0.0000 30.6857
#
#
#
# Elastic Compliance Matrix: (Units=1/GPa)
#
#
# Indices 1 2 3 4 5 6 
#
# 1 0.011561 -0.006062 -0.000300 0.000000 0.000000 0.000000
# 2 -0.006062 0.013887 -0.001461 0.000000 0.000000 0.000000
# 3 -0.000300 -0.001461 0.011745 0.000000 0.000000 0.000000
# 4 0.000000 0.000000 0.000000 -0.123294 0.000000 0.000000
# 5 0.000000 0.000000 0.000000 0.000000 0.121470 0.000000
# 6 0.000000 0.000000 0.000000 0.000000 0.000000 0.032588
#
#
# Mechanical properties :
#
#
# Convention : Reuss Voigt Hill
#
# Bulk Modulus (GPa) = 46.41379 48.98512 47.69946
# Shear Modulus (GPa) = 55.07398 21.01912 38.04655
#
# Velocity S-wave (km/s) = 5.29464 3.27092 4.40069
# Velocity P-wave (km/s) = 7.81042 6.26093 7.07820
#
# Compressibility (1/GPa) = 0.02154532
#
# Stress axis : x y z
#
# Youngs Moduli (GPa) = 86.50115 72.00737 85.14077
#
# Poissons Ratio (x) = 0.43654 0.02556
# Poissons Ratio (y) = 0.52441 0.12441
# Poissons Ratio (z) = 0.02597 0.10522
#
# Static dielectric constant tensor:
#      x y z
#    x 1.735040 0.000000 0.000000 
#    y 0.000000 1.735350 0.000000 
#    z 0.000000 0.000000 1.780150 
# 
# From -- ./inp_files/24728.got.cif
#   From: 2010.05.17/outbox.cif.g08.bks.cpg/sg22_13_cif.got.tgz:24728.got - 2010.06.03 23:40:54.
