data_PCOD9326882
_publ_section_title
;
Structure prediction by ZEFSAII (Michael W. Deem and Ramdas Pophale) SiO2 
 PCOD9326882
Probable space group: F 2 2 2
;
_chemical_formula_sum "Si O2"
_cell_formula_units_Z 96
_cell_length_a 11.094092
_cell_length_b 19.703752
_cell_length_c 21.117997
_cell_angle_alpha 90.000000
_cell_angle_beta 90.000000
_cell_angle_gamma 90.000000
_cell_volume 4616.293568
_symmetry_space_group_name_H-M "F 2 2 2"
_symmetry_group_IT_number 22
_symmetry_cell_setting 'orthorhombic'
loop_
_space_group_symop_operation_xyz
x,y,z
-x,-y,z
x,-y,-z
-x,y,-z
x,1/2+y,1/2+z
-x,1/2-y,1/2+z
x,1/2-y,1/2-z
-x,1/2+y,1/2-z
1/2+x,y,1/2+z
1/2-x,-y,1/2+z
1/2+x,-y,1/2-z
1/2-x,y,1/2-z
1/2+x,1/2+y,z
1/2-x,1/2-y,z
1/2+x,1/2-y,-z
1/2-x,1/2+y,-z
loop_
_atom_site_type_symbol
_atom_site_label
_atom_site_fract_x
_atom_site_fract_y
_atom_site_fract_z
Si Si1 0.322823 0.099914 0.309811
Si Si2 0.383183 0.867346 0.454249
Si Si3 0.462093 0.250000 0.750000
Si Si4 0.566241 0.780043 0.378537
Si Si5 0.750000 0.250000 0.526311
Si Si6 0.919400 0.597302 0.755270
Si Si7 0.253244 0.042383 0.853352
O O1 0.250000 0.126499 0.250000
O O2 0.347761 0.157716 0.360298
O O3 0.448477 0.081819 0.273590
O O4 0.257854 0.038565 0.346395
O O5 0.500000 0.887731 0.500000
O O6 0.446802 0.816525 0.404212
O O7 0.289644 0.817495 0.489242
O O8 0.307795 0.925503 0.416732
O O9 0.540238 0.256183 0.686738
O O10 0.396604 0.321893 0.750375
O O11 0.632549 0.736141 0.430711
O O12 0.835112 0.564896 0.702765
O O13 0.881024 0.570324 0.825129
#
# Coordination Sequence:
#
# PCOD9326882 Si02
#       7
#    16  16   8  16   8  16  16
#     4  11  22  38  61  95 139 164 206 262 337 408
#     4  10  22  42  60  86 122 169 213 266 312 375
#     4  10  20  36  60  92 128 156 203 267 330 398
#     4  10  23  39  59  89 121 164 205 265 322 384
#     4  10  24  41  58  81 122 164 222 252 314 370
#     4  10  22  35  58  99 128 166 198 268 338 374
#     4  11  21  37  63  91 129 169 207 267 321 387
#
# _framework density 20.795902999999999
#
# number of rings (size 3 to 8) (size 9 to 14) (size 15 to 20)
#    0.000    1.667    5.000    0.500    7.000    1.333 
#    0.000    5.833    0.000    0.000    0.000    0.000 
#    0.000    0.000    0.000    0.000    0.000    0.000 
#
# Total GULP energy -133616.212995 kJ/mol
# GULP energy per Si atom -5567.342208 kJ/mol
# Density = 2.074857 g / cm^3
# Si number density = 20.795903 Si / 1000 Ang^3
#
#
#
# Elastic Constant Matrix: (Units=GPa)
#
#
# Indices 1 2 3 4 5 6 
#
# 1 39.0316 9.3899 16.5415 0.0000 0.0000 0.0000
# 2 9.3899 56.4138 15.1839 0.0000 0.0000 0.0000
# 3 16.5415 15.1839 97.8240 0.0000 0.0000 0.0000
# 4 0.0000 0.0000 0.0000 15.9546 0.0000 0.0000
# 5 0.0000 0.0000 0.0000 0.0000 -66.0786 0.0000
# 6 0.0000 0.0000 0.0000 0.0000 0.0000 18.7584
#
#
#
# Elastic Compliance Matrix: (Units=1/GPa)
#
#
# Indices 1 2 3 4 5 6 
#
# 1 0.028270 -0.003568 -0.004226 0.000000 0.000000 0.000000
# 2 -0.003568 0.018949 -0.002338 0.000000 0.000000 0.000000
# 3 -0.004226 -0.002338 0.011300 0.000000 0.000000 0.000000
# 4 0.000000 0.000000 0.000000 0.062678 0.000000 0.000000
# 5 0.000000 0.000000 0.000000 0.000000 -0.015133 0.000000
# 6 0.000000 0.000000 0.000000 0.000000 0.000000 0.053309
#
#
# Mechanical properties :
#
#
# Convention : Reuss Voigt Hill
#
# Bulk Modulus (GPa) = 26.14070 30.61110 28.37590
# Shear Modulus (GPa) = 25.98903 3.87049 14.92976
#
# Velocity S-wave (km/s) = 3.53897 1.36573 2.68231
# Velocity P-wave (km/s) = 5.41262 4.15195 4.82365
#
# Compressibility (1/GPa) = 0.03825452
#
# Stress axis : x y z
#
# Youngs Moduli (GPa) = 35.37352 52.77250 88.49558
#
# Poissons Ratio (x) = 0.18828 0.37402
# Poissons Ratio (y) = 0.12621 0.20690
# Poissons Ratio (z) = 0.14950 0.12338
#
# Static dielectric constant tensor:
#      x y z
#    x 1.911320 0.000000 0.000000 
#    y 0.000000 2.397090 0.000000 
#    z 0.000000 0.000000 1.801920 
# 
# From -- ./inp_files/42806.got.cif
#   From: 2010.05.17/outbox.cif.g08.bks.cpg/sg22_22_cif.got.tgz:42806.got - 2010.06.03 23:40:54.
