data_PCOD9326692
_publ_section_title
;
Structure prediction by ZEFSAII (Michael W. Deem and Ramdas Pophale) SiO2 
 PCOD9326692
Probable space group: F 2 2 2
;
_chemical_formula_sum "Si O2"
_cell_formula_units_Z 64
_cell_length_a 8.874909
_cell_length_b 11.883451
_cell_length_c 25.051860
_cell_angle_alpha 90.000000
_cell_angle_beta 90.000000
_cell_angle_gamma 90.000000
_cell_volume 2642.083047
_symmetry_space_group_name_H-M "F 2 2 2"
_symmetry_group_IT_number 22
_symmetry_cell_setting 'orthorhombic'
loop_
_space_group_symop_operation_xyz
x,y,z
-x,-y,z
x,-y,-z
-x,y,-z
x,1/2+y,1/2+z
-x,1/2-y,1/2+z
x,1/2-y,1/2-z
-x,1/2+y,1/2-z
1/2+x,y,1/2+z
1/2-x,-y,1/2+z
1/2+x,-y,1/2-z
1/2-x,y,1/2-z
1/2+x,1/2+y,z
1/2-x,1/2-y,z
1/2+x,1/2-y,-z
1/2-x,1/2+y,-z
loop_
_atom_site_type_symbol
_atom_site_label
_atom_site_fract_x
_atom_site_fract_y
_atom_site_fract_z
Si Si1 0.091355 0.810071 0.451309
Si Si2 0.161940 0.515480 0.144245
Si Si3 0.874828 0.675086 0.696952
Si Si4 0.085711 0.380731 0.391727
O O1 0.250000 0.750000 0.465967
O O2 0.127599 0.899574 0.404756
O O3 0.000000 0.863956 0.500000
O O4 0.979339 0.710559 0.431671
O O5 0.283414 0.558407 0.188634
O O6 0.239757 0.408929 0.115666
O O7 0.000000 0.500000 0.171306
O O8 0.897224 0.750000 0.750000
O O9 0.750000 0.750000 0.666292
O O10 0.026182 0.662105 0.665418
O O11 0.000000 0.500000 0.403030
#
# Coordination Sequence:
#
# PCOD9326692 Si02
#       4
#    16  16  16  16
#     4  12  25  45  69 104 145 199 248 316 372 428
#     4  11  24  44  69 107 150 192 243 309 367 453
#     4  10  19  42  76  96 135 189 234 304 368 441
#     4  10  20  44  74  98 137 195 244 291 380 440
#
# _framework density 24.223310000000001
#
# number of rings (size 3 to 8) (size 9 to 14) (size 15 to 20)
#    0.000    1.250    7.500    0.000    3.500    1.000 
#    0.000   16.250    0.000    0.000    0.000    0.000 
#    0.000    0.000    0.000    0.000    0.000    0.000 
#
# Total GULP energy -89179.924585 kJ/mol
# GULP energy per Si atom -5573.745287 kJ/mol
# Density = 2.416818 g / cm^3
# Si number density = 24.223310 Si / 1000 Ang^3
#
#
#
# Elastic Constant Matrix: (Units=GPa)
#
#
# Indices 1 2 3 4 5 6 
#
# 1 126.7965 35.8670 38.3904 0.0000 0.0000 0.0000
# 2 35.8670 84.7223 46.4158 0.0000 0.0000 0.0000
# 3 38.3904 46.4158 121.7832 0.0000 0.0000 0.0000
# 4 0.0000 0.0000 0.0000 16.8445 0.0000 0.0000
# 5 0.0000 0.0000 0.0000 0.0000 33.7732 0.0000
# 6 0.0000 0.0000 0.0000 0.0000 0.0000 47.1220
#
#
#
# Elastic Compliance Matrix: (Units=1/GPa)
#
#
# Indices 1 2 3 4 5 6 
#
# 1 0.009262 -0.002934 -0.001801 0.000000 0.000000 0.000000
# 2 -0.002934 0.015848 -0.005115 0.000000 0.000000 0.000000
# 3 -0.001801 -0.005115 0.010729 0.000000 0.000000 0.000000
# 4 0.000000 0.000000 0.000000 0.059366 0.000000 0.000000
# 5 0.000000 0.000000 0.000000 0.000000 0.029609 0.000000
# 6 0.000000 0.000000 0.000000 0.000000 0.000000 0.021222
#
#
# Mechanical properties :
#
#
# Convention : Reuss Voigt Hill
#
# Bulk Modulus (GPa) = 61.96899 63.84981 62.90940
# Shear Modulus (GPa) = 29.21986 33.72319 31.47152
#
# Velocity S-wave (km/s) = 3.47691 3.73524 3.60839
# Velocity P-wave (km/s) = 6.46192 6.70960 6.58693
#
# Compressibility (1/GPa) = 0.01613710
#
# Stress axis : x y z
#
# Youngs Moduli (GPa) = 107.96735 63.10006 93.20727
#
# Poissons Ratio (x) = 0.18514 0.16791
# Poissons Ratio (y) = 0.31679 0.47678
# Poissons Ratio (z) = 0.19450 0.32277
#
# Static dielectric constant tensor:
#      x y z
#    x 1.989340 0.000000 0.000000 
#    y 0.000000 2.106360 0.000000 
#    z 0.000000 0.000000 1.988660 
# 
# From -- ./inp_files/55352.got.cif
#   From: 2010.05.17/outbox.cif.g08.bks.cpg/sg22_28_cif.got.tgz:55352.got - 2010.06.03 23:40:54.
