data_PCOD9326788
_publ_section_title
;
Structure prediction by ZEFSAII (Michael W. Deem and Ramdas Pophale) SiO2 
 PCOD9326788
Probable space group: F 2 2 2
;
_chemical_formula_sum "Si O2"
_cell_formula_units_Z 48
_cell_length_a 23.224306
_cell_length_b 18.806000
_cell_length_c 5.066373
_cell_angle_alpha 90.000000
_cell_angle_beta 90.000000
_cell_angle_gamma 90.000000
_cell_volume 2212.770319
_symmetry_space_group_name_H-M "F 2 2 2"
_symmetry_group_IT_number 22
_symmetry_cell_setting 'orthorhombic'
loop_
_space_group_symop_operation_xyz
x,y,z
-x,-y,z
x,-y,-z
-x,y,-z
x,1/2+y,1/2+z
-x,1/2-y,1/2+z
x,1/2-y,1/2-z
-x,1/2+y,1/2-z
1/2+x,y,1/2+z
1/2-x,-y,1/2+z
1/2+x,-y,1/2-z
1/2-x,y,1/2-z
1/2+x,1/2+y,z
1/2-x,1/2-y,z
1/2+x,1/2-y,-z
1/2-x,1/2+y,-z
loop_
_atom_site_type_symbol
_atom_site_label
_atom_site_fract_x
_atom_site_fract_y
_atom_site_fract_z
Si Si1 0.638255 0.113699 0.499455
Si Si2 0.102499 0.750000 0.250000
Si Si3 0.934907 0.391327 0.013263
Si Si4 0.250000 0.044331 0.250000
O O1 0.640249 0.197737 0.431034
O O2 0.593200 0.101618 0.730811
O O3 0.698979 0.087016 0.605957
O O4 0.608900 0.079340 0.238020
O O5 0.065268 0.807053 0.410754
O O6 0.000000 0.417530 0.000000
O O7 0.225750 0.000000 0.500000
#
# Coordination Sequence:
#
# PCOD9326788 Si02
#       4
#    16   8  16   8
#     4  10  22  38  62  96 126 173 218 269 327 391
#     4   8  22  32  63 100 140 167 198 264 338 418
#     4  10  20  34  62 101 139 167 197 255 344 423
#     4  12  26  48  71  83 124 190 246 280 312 380
#
# _framework density 21.692264000000002
#
# number of rings (size 3 to 8) (size 9 to 14) (size 15 to 20)
#    2.000    0.000    0.000    4.000    4.667    0.000 
#    0.000    5.000    0.000   15.000    0.000    0.000 
#    0.000    0.000    0.000    0.000    0.000    0.000 
#
# Total GULP energy -66845.692376 kJ/mol
# GULP energy per Si atom -5570.474365 kJ/mol
# Density = 2.164289 g / cm^3
# Si number density = 21.692264 Si / 1000 Ang^3
#
#
#
# Elastic Constant Matrix: (Units=GPa)
#
#
# Indices 1 2 3 4 5 6 
#
# 1 171.5311 54.4375 61.7749 0.0010 -0.0011 0.0001
# 2 54.4375 88.4570 36.9468 -0.0016 -0.0011 0.0000
# 3 61.7749 36.9468 157.7200 0.0001 -0.0117 0.0003
# 4 0.0010 -0.0016 0.0001 15.8837 -0.0001 0.0002
# 5 -0.0011 -0.0011 -0.0117 -0.0001 -29.1821 -0.0002
# 6 0.0001 0.0000 0.0003 0.0002 -0.0002 24.9201
#
#
#
# Elastic Compliance Matrix: (Units=1/GPa)
#
#
# Indices 1 2 3 4 5 6 
#
# 1 0.007854 -0.003934 -0.002155 -0.000001 0.000001 0.000000
# 2 -0.003934 0.014501 -0.001856 0.000002 0.000000 0.000000
# 3 -0.002155 -0.001856 0.007619 0.000000 -0.000003 0.000000
# 4 -0.000001 0.000002 0.000000 0.062958 0.000000 -0.000001
# 5 0.000001 0.000000 -0.000003 0.000000 -0.034268 0.000000
# 6 0.000000 0.000000 0.000000 -0.000001 0.000000 0.040128
#
#
# Mechanical properties :
#
#
# Convention : Reuss Voigt Hill
#
# Bulk Modulus (GPa) = 70.99701 80.44738 75.72220
# Shear Modulus (GPa) = 41.88397 19.96091 30.92244
#
# Velocity S-wave (km/s) = 4.39888 3.03675 3.77968
# Velocity P-wave (km/s) = 7.65509 7.03293 7.35060
#
# Compressibility (1/GPa) = 0.01408510
#
# Stress axis : x y z
#
# Youngs Moduli (GPa) = 127.31956 68.96063 131.24753
#
# Poissons Ratio (x) = 0.27126 0.28282
# Poissons Ratio (y) = 0.50082 0.24363
# Poissons Ratio (z) = 0.27435 0.12801
#
# Static dielectric constant tensor:
#      x y z
#    x 1.764820 0.000000 0.000000 
#    y 0.000000 1.865340 0.000000 
#    z 0.000000 0.000000 1.771750 
# 
# From -- ./inp_files/3263.got.cif
#   From: 2010.05.17/outbox.cif.g08.bks.cpg/sg22_2_cif.got.tgz:3263.got - 2010.06.03 23:40:54.
