data_PCOD9326599
_publ_section_title
;
Structure prediction by ZEFSAII (Michael W. Deem and Ramdas Pophale) SiO2 
 PCOD9326599
Probable space group: F 2 2 2
;
_chemical_formula_sum "Si O2"
_cell_formula_units_Z 96
_cell_length_a 25.366983
_cell_length_b 17.442689
_cell_length_c 11.898441
_cell_angle_alpha 90.000000
_cell_angle_beta 90.000000
_cell_angle_gamma 90.000000
_cell_volume 5264.684096
_symmetry_space_group_name_H-M "F 2 2 2"
_symmetry_group_IT_number 22
_symmetry_cell_setting 'orthorhombic'
loop_
_space_group_symop_operation_xyz
x,y,z
-x,-y,z
x,-y,-z
-x,y,-z
x,1/2+y,1/2+z
-x,1/2-y,1/2+z
x,1/2-y,1/2-z
-x,1/2+y,1/2-z
1/2+x,y,1/2+z
1/2-x,-y,1/2+z
1/2+x,-y,1/2-z
1/2-x,y,1/2-z
1/2+x,1/2+y,z
1/2-x,1/2-y,z
1/2+x,1/2-y,-z
1/2-x,1/2+y,-z
loop_
_atom_site_type_symbol
_atom_site_label
_atom_site_fract_x
_atom_site_fract_y
_atom_site_fract_z
Si Si1 0.650860 0.273995 0.377659
Si Si2 0.609375 0.250000 0.750000
Si Si3 0.681404 0.057130 0.158650
Si Si4 0.557464 0.331213 0.541901
Si Si5 0.090197 0.500000 0.000000
Si Si6 0.799496 0.194079 0.915011
Si Si7 0.707320 0.482968 0.885774
O O1 0.637377 0.250000 0.250000
O O2 0.684164 0.351965 0.359470
O O3 0.600594 0.298646 0.453155
O O4 0.682320 0.213244 0.456330
O O5 0.574172 0.301887 0.666104
O O6 0.650004 0.208894 0.664510
O O7 0.678636 0.023540 0.283420
O O8 0.735474 0.022198 0.112904
O O9 0.629986 0.026885 0.096867
O O10 0.500000 0.305988 0.500000
O O11 0.559834 0.423882 0.537633
O O12 0.750000 0.250000 0.891221
O O13 0.783672 0.107675 0.885447
O O14 0.677198 0.500000 0.000000
#
# Coordination Sequence:
#
# PCOD9326599 Si02
#       7
#    16   8  16  16   8  16  16
#     4  10  22  40  56  83 121 154 195 239 292 348
#     4  10  23  38  56  90 118 146 197 242 298 340
#     4  10  21  33  55  78 113 156 186 243 276 343
#     4  10  22  38  63  86 110 149 191 254 301 351
#     4  10  19  38  58  82 116 138 200 236 299 338
#     4  11  23  34  58  84 120 159 190 233 279 347
#     4  11  21  33  52  78 113 155 198 220 279 338
#
# _framework density 18.234712999999999
#
# number of rings (size 3 to 8) (size 9 to 14) (size 15 to 20)
#    0.000    1.667    0.833    3.500   10.500    1.667 
#    0.000    0.000    0.000    0.000    0.000    0.000 
#    0.000    0.000    0.000    0.000    0.000    0.000 
#
# Total GULP energy -133779.786764 kJ/mol
# GULP energy per Si atom -5574.157782 kJ/mol
# Density = 1.819321 g / cm^3
# Si number density = 18.234713 Si / 1000 Ang^3
#
#
#
# Elastic Constant Matrix: (Units=GPa)
#
#
# Indices 1 2 3 4 5 6 
#
# 1 69.5134 34.9310 28.3958 0.0000 0.0000 0.0000
# 2 34.9310 95.3652 38.0691 0.0000 0.0000 0.0000
# 3 28.3958 38.0691 156.3955 0.0000 0.0000 0.0000
# 4 0.0000 0.0000 0.0000 25.8334 0.0000 0.0000
# 5 0.0000 0.0000 0.0000 0.0000 73.7420 0.0000
# 6 0.0000 0.0000 0.0000 0.0000 0.0000 7.9443
#
#
#
# Elastic Compliance Matrix: (Units=1/GPa)
#
#
# Indices 1 2 3 4 5 6 
#
# 1 0.018103 -0.005891 -0.001853 0.000000 0.000000 0.000000
# 2 -0.005891 0.013532 -0.002224 0.000000 0.000000 0.000000
# 3 -0.001853 -0.002224 0.007272 0.000000 0.000000 0.000000
# 4 0.000000 0.000000 0.000000 0.038710 0.000000 0.000000
# 5 0.000000 0.000000 0.000000 0.000000 0.013561 0.000000
# 6 0.000000 0.000000 0.000000 0.000000 0.000000 0.125876
#
#
# Mechanical properties :
#
#
# Convention : Reuss Voigt Hill
#
# Bulk Modulus (GPa) = 52.71466 58.22954 55.47210
# Shear Modulus (GPa) = 20.54967 36.16248 28.35608
#
# Velocity S-wave (km/s) = 3.36065 4.45811 3.94770
# Velocity P-wave (km/s) = 6.63554 7.64868 7.16005
#
# Compressibility (1/GPa) = 0.01897005
#
# Stress axis : x y z
#
# Youngs Moduli (GPa) = 55.23955 73.90012 137.51640
#
# Poissons Ratio (x) = 0.43536 0.25479
# Poissons Ratio (y) = 0.32543 0.30587
# Poissons Ratio (z) = 0.10235 0.16437
#
# Static dielectric constant tensor:
#      x y z
#    x 1.611250 0.000000 0.000000 
#    y 0.000000 1.609860 0.000000 
#    z 0.000000 0.000000 1.511950 
# 
# From -- ./inp_files/23850.got.cif
#   From: 2010.05.17/outbox.cif.g08.bks.cpg/sg22_12_cif.got.tgz:23850.got - 2010.06.03 23:40:54.
