data_PCOD9326367
_publ_section_title
;
Structure prediction by ZEFSAII (Michael W. Deem and Ramdas Pophale) SiO2 
 PCOD9326367
Probable space group: F 2 2 2
;
_chemical_formula_sum "Si O2"
_cell_formula_units_Z 96
_cell_length_a 10.234546
_cell_length_b 23.537002
_cell_length_c 20.552292
_cell_angle_alpha 90.000000
_cell_angle_beta 90.000000
_cell_angle_gamma 90.000000
_cell_volume 4950.852506
_symmetry_space_group_name_H-M "F 2 2 2"
_symmetry_group_IT_number 22
_symmetry_cell_setting 'orthorhombic'
loop_
_space_group_symop_operation_xyz
x,y,z
-x,-y,z
x,-y,-z
-x,y,-z
x,1/2+y,1/2+z
-x,1/2-y,1/2+z
x,1/2-y,1/2-z
-x,1/2+y,1/2-z
1/2+x,y,1/2+z
1/2-x,-y,1/2+z
1/2+x,-y,1/2-z
1/2-x,y,1/2-z
1/2+x,1/2+y,z
1/2-x,1/2-y,z
1/2+x,1/2-y,-z
1/2-x,1/2+y,-z
loop_
_atom_site_type_symbol
_atom_site_label
_atom_site_fract_x
_atom_site_fract_y
_atom_site_fract_z
Si Si1 0.742332 0.434201 0.922454
Si Si2 0.998125 0.565702 0.836479
Si Si3 0.597775 0.744458 0.142189
Si Si4 0.500265 0.642901 0.076808
Si Si5 0.241590 0.932798 0.077793
Si Si6 0.901049 0.842379 0.261231
O O1 0.872933 0.424659 0.880933
O O2 0.629387 0.391024 0.899848
O O3 0.702285 0.500580 0.914586
O O4 0.766901 0.425389 0.999986
O O5 0.010090 0.603451 0.772014
O O6 0.000000 0.500000 0.818362
O O7 0.871653 0.576749 0.880497
O O8 0.750000 0.750000 0.122375
O O9 0.514087 0.710238 0.089749
O O10 0.570936 0.805589 0.173204
O O11 0.578746 0.700946 0.202511
O O12 0.370739 0.610688 0.100128
O O13 0.500000 0.633695 0.000000
O O14 0.750000 0.859244 0.250000
#
# Coordination Sequence:
#
# PCOD9326367 Si02
#       6
#    16  16  16  16  16  16
#     4   9  16  30  52  75 110 154 184 209 264 338
#     4  10  19  33  54  82 110 138 180 230 273 318
#     4   9  18  35  57  75  96 135 182 218 258 324
#     4  10  19  33  54  82 110 138 180 230 273 318
#     4   9  18  30  48  79 114 146 178 221 274 324
#     4   9  18  35  57  75  96 135 182 218 258 324
#
# _framework density 19.390599999999999
#
# number of rings (size 3 to 8) (size 9 to 14) (size 15 to 20)
#    0.000    2.667    0.000    4.000    0.000    4.000 
#    0.000   11.667    0.000    2.000    0.000    0.000 
#    0.000    0.000    0.000    0.000    0.000    0.000 
#
# Total GULP energy -133644.769953 kJ/mol
# GULP energy per Si atom -5568.532081 kJ/mol
# Density = 1.934647 g / cm^3
# Si number density = 19.390600 Si / 1000 Ang^3
#
#
#
# Elastic Constant Matrix: (Units=GPa)
#
#
# Indices 1 2 3 4 5 6 
#
# 1 78.7846 52.5537 12.6246 0.0000 0.0000 0.0000
# 2 52.5537 89.6652 25.5161 0.0000 0.0000 0.0000
# 3 12.6246 25.5161 17.7034 0.0000 0.0000 0.0000
# 4 0.0000 0.0000 0.0000 36.9401 0.0000 0.0000
# 5 0.0000 0.0000 0.0000 0.0000 5.4691 0.0000
# 6 0.0000 0.0000 0.0000 0.0000 0.0000 33.9166
#
#
#
# Elastic Compliance Matrix: (Units=1/GPa)
#
#
# Indices 1 2 3 4 5 6 
#
# 1 0.021069 -0.013687 0.004703 0.000000 0.000000 0.000000
# 2 -0.013687 0.027799 -0.030307 0.000000 0.000000 0.000000
# 3 0.004703 -0.030307 0.096815 0.000000 0.000000 0.000000
# 4 0.000000 0.000000 0.000000 0.027071 0.000000 0.000000
# 5 0.000000 0.000000 0.000000 0.000000 0.182845 0.000000
# 6 0.000000 0.000000 0.000000 0.000000 0.000000 0.029484
#
#
# Mechanical properties :
#
#
# Convention : Reuss Voigt Hill
#
# Bulk Modulus (GPa) = 14.90301 40.83801 27.87051
# Shear Modulus (GPa) = 10.28736 21.62908 15.95822
#
# Velocity S-wave (km/s) = 2.30583 3.34345 2.87189
# Velocity P-wave (km/s) = 3.84597 6.00094 5.03998
#
# Compressibility (1/GPa) = 0.06710055
#
# Stress axis : x y z
#
# Youngs Moduli (GPa) = 47.46212 35.97200 10.32898
#
# Poissons Ratio (x) = 0.49236 -0.04857
# Poissons Ratio (y) = 0.64963 0.31304
# Poissons Ratio (z) = -0.22320 1.09021
#
# Static dielectric constant tensor:
#      x y z
#    x 1.664650 0.000000 0.000000 
#    y 0.000000 1.873580 0.000000 
#    z 0.000000 0.000000 1.750650 
# 
# From -- ./inp_files/12841.got.cif
#   From: 2010.05.17/outbox.cif.g08.bks.cpg/sg22_7_cif.got.tgz:12841.got - 2010.06.03 23:40:54.
