data_PCOD9326919
_publ_section_title
;
Structure prediction by ZEFSAII (Michael W. Deem and Ramdas Pophale) SiO2 
 PCOD9326919
Probable space group: F 2 2 2
;
_chemical_formula_sum "Si O2"
_cell_formula_units_Z 104
_cell_length_a 26.936614
_cell_length_b 16.837067
_cell_length_c 11.683182
_cell_angle_alpha 90.000000
_cell_angle_beta 90.000000
_cell_angle_gamma 90.000000
_cell_volume 5298.715296
_symmetry_space_group_name_H-M "F 2 2 2"
_symmetry_group_IT_number 22
_symmetry_cell_setting 'orthorhombic'
loop_
_space_group_symop_operation_xyz
x,y,z
-x,-y,z
x,-y,-z
-x,y,-z
x,1/2+y,1/2+z
-x,1/2-y,1/2+z
x,1/2-y,1/2-z
-x,1/2+y,1/2-z
1/2+x,y,1/2+z
1/2-x,-y,1/2+z
1/2+x,-y,1/2-z
1/2-x,y,1/2-z
1/2+x,1/2+y,z
1/2-x,1/2-y,z
1/2+x,1/2-y,-z
1/2-x,1/2+y,-z
loop_
_atom_site_type_symbol
_atom_site_label
_atom_site_fract_x
_atom_site_fract_y
_atom_site_fract_z
Si Si1 0.668345 0.243220 0.619510
Si Si2 0.717289 0.176341 0.086653
Si Si3 0.430218 0.337825 0.421028
Si Si4 0.464993 0.825079 0.169856
Si Si5 0.813472 0.910860 0.956665
Si Si6 0.864869 0.403187 0.213720
Si Si7 0.878186 0.500000 0.000000
O O1 0.686219 0.250000 0.750000
O O2 0.699448 0.303752 0.541028
O O3 0.612630 0.279167 0.621126
O O4 0.673024 0.158299 0.551314
O O5 0.750000 0.250000 0.126066
O O6 0.756764 0.105631 0.083332
O O7 0.667910 0.167908 0.160633
O O8 0.449184 0.302940 0.541228
O O9 0.477373 0.349326 0.338513
O O10 0.408898 0.423928 0.456020
O O11 0.460061 0.750000 0.250000
O O12 0.423849 0.888989 0.208211
O O13 0.847395 0.908521 0.843380
O O14 0.817583 0.000000 0.000000
O O15 0.852002 0.470304 0.117393
#
# Coordination Sequence:
#
# PCOD9326919 Si02
#       7
#    16  16  16  16  16  16   8
#     4  11  23  43  67  96 136 177 224 283 334 408
#     4  10  23  42  64  94 124 172 225 274 330 384
#     4  10  21  38  64 101 129 167 219 276 332 408
#     4  10  20  36  64  95 125 166 219 269 331 396
#     4  11  27  42  63  97 137 181 225 277 342 396
#     4  11  23  41  65  93 131 173 219 286 324 406
#     4  10  22  39  70  98 132 172 220 276 345 394
#
# _framework density 19.627399
#
# number of rings (size 3 to 8) (size 9 to 14) (size 15 to 20)
#    0.000    1.538    3.077    1.846    5.385    9.538 
#    2.769    0.000    0.000    0.000    0.000    0.000 
#    0.000    0.000    0.000    0.000    0.000    0.000 
#
# Total GULP energy -144853.023413 kJ/mol
# GULP energy per Si atom -5571.270131 kJ/mol
# Density = 1.958273 g / cm^3
# Si number density = 19.627399 Si / 1000 Ang^3
#
#
#
# Elastic Constant Matrix: (Units=GPa)
#
#
# Indices 1 2 3 4 5 6 
#
# 1 111.0302 28.2238 29.0164 0.0000 0.0000 0.0000
# 2 28.2238 77.1557 40.5295 0.0000 0.0000 0.0000
# 3 29.0164 40.5295 123.7262 0.0000 0.0000 0.0000
# 4 0.0000 0.0000 0.0000 69.4711 0.0000 0.0000
# 5 0.0000 0.0000 0.0000 0.0000 10.0299 0.0000
# 6 0.0000 0.0000 0.0000 0.0000 0.0000 15.3318
#
#
#
# Elastic Compliance Matrix: (Units=1/GPa)
#
#
# Indices 1 2 3 4 5 6 
#
# 1 0.010128 -0.002968 -0.001403 0.000000 0.000000 0.000000
# 2 -0.002968 0.016524 -0.004717 0.000000 0.000000 0.000000
# 3 -0.001403 -0.004717 0.009957 0.000000 0.000000 0.000000
# 4 0.000000 0.000000 0.000000 0.014394 0.000000 0.000000
# 5 0.000000 0.000000 0.000000 0.000000 0.099702 0.000000
# 6 0.000000 0.000000 0.000000 0.000000 0.000000 0.065224
#
#
# Mechanical properties :
#
#
# Convention : Reuss Voigt Hill
#
# Bulk Modulus (GPa) = 54.25028 56.38350 55.31689
# Shear Modulus (GPa) = 20.81178 33.24271 27.02724
#
# Velocity S-wave (km/s) = 3.25982 4.11991 3.71484
# Velocity P-wave (km/s) = 6.47060 7.17083 6.82970
#
# Compressibility (1/GPa) = 0.01843309
#
# Stress axis : x y z
#
# Youngs Moduli (GPa) = 98.74004 60.51739 100.43658
#
# Poissons Ratio (x) = 0.17960 0.14091
# Poissons Ratio (y) = 0.29303 0.47375
# Poissons Ratio (z) = 0.13853 0.28545
#
# Static dielectric constant tensor:
#      x y z
#    x 1.711830 0.000000 0.000000 
#    y 0.000000 1.715910 0.000000 
#    z 0.000000 0.000000 1.727550 
# 
# From -- ./inp_files/24679.got.cif
#   From: 2010.05.17/outbox.cif.g08.bks.cpg/sg22_13_cif.got.tgz:24679.got - 2010.06.03 23:40:54.
