data_PCOD9326262
_publ_section_title
;
Structure prediction by ZEFSAII (Michael W. Deem and Ramdas Pophale) SiO2 
 PCOD9326262
Probable space group: F 2 2 2
;
_chemical_formula_sum "Si O2"
_cell_formula_units_Z 96
_cell_length_a 15.291349
_cell_length_b 21.731151
_cell_length_c 13.543425
_cell_angle_alpha 90.000000
_cell_angle_beta 90.000000
_cell_angle_gamma 90.000000
_cell_volume 4500.461358
_symmetry_space_group_name_H-M "F 2 2 2"
_symmetry_group_IT_number 22
_symmetry_cell_setting 'orthorhombic'
loop_
_space_group_symop_operation_xyz
x,y,z
-x,-y,z
x,-y,-z
-x,y,-z
x,1/2+y,1/2+z
-x,1/2-y,1/2+z
x,1/2-y,1/2-z
-x,1/2+y,1/2-z
1/2+x,y,1/2+z
1/2-x,-y,1/2+z
1/2+x,-y,1/2-z
1/2-x,y,1/2-z
1/2+x,1/2+y,z
1/2-x,1/2-y,z
1/2+x,1/2-y,-z
1/2-x,1/2+y,-z
loop_
_atom_site_type_symbol
_atom_site_label
_atom_site_fract_x
_atom_site_fract_y
_atom_site_fract_z
Si Si1 0.078225 0.250000 0.750000
Si Si2 0.987446 0.645546 0.613083
Si Si3 0.750000 0.049013 0.250000
Si Si4 0.386424 0.134665 0.866231
Si Si5 0.655079 0.048034 0.433855
Si Si6 0.549667 0.934245 0.228019
Si Si7 0.335318 0.065776 0.043922
O O1 0.023576 0.294254 0.678596
O O2 0.127750 0.202692 0.677163
O O3 0.898870 0.604876 0.607684
O O4 0.000000 0.661931 0.500000
O O5 0.056425 0.600387 0.666976
O O6 0.685418 0.091313 0.185850
O O7 0.694062 0.016608 0.334820
O O8 0.479478 0.108511 0.830622
O O9 0.377860 0.121734 0.982398
O O10 0.734509 0.067216 0.506956
O O11 0.601865 0.000000 0.500000
O O12 0.634381 0.935852 0.157320
O O13 0.500000 0.000000 0.238319
O O14 0.369039 0.000000 0.000000
#
# Coordination Sequence:
#
# PCOD9326262 Si02
#       7
#     8  16   8  16  16  16  16
#     4  10  22  43  60  88 121 170 218 270 310 389
#     4  11  26  43  63  94 127 174 221 267 333 398
#     4  10  18  39  58  94 124 168 219 258 330 380
#     4  10  20  34  61  86 125 160 211 266 321 370
#     4  10  22  39  60  92 138 170 210 268 331 397
#     4  11  21  35  60  92 129 168 214 260 327 393
#     4  10  20  36  59  94 132 166 212 273 324 385
#
# _framework density 21.331147000000001
#
# number of rings (size 3 to 8) (size 9 to 14) (size 15 to 20)
#    0.000    1.667    5.000    0.500    2.333    3.000 
#    0.000    0.000    0.000    0.000    0.000    4.667 
#    0.000    0.000    0.000    0.000    0.000    0.000 
#
# Total GULP energy -133830.993226 kJ/mol
# GULP energy per Si atom -5576.291384 kJ/mol
# Density = 2.128260 g / cm^3
# Si number density = 21.331147 Si / 1000 Ang^3
#
#
#
# Elastic Constant Matrix: (Units=GPa)
#
#
# Indices 1 2 3 4 5 6 
#
# 1 50.4798 7.7106 31.8778 0.0000 0.0000 0.0000
# 2 7.7106 106.0620 65.8230 0.0000 0.0000 0.0000
# 3 31.8778 65.8230 172.6522 0.0000 0.0000 0.0000
# 4 0.0000 0.0000 0.0000 52.1563 0.0000 0.0000
# 5 0.0000 0.0000 0.0000 0.0000 37.3925 0.0000
# 6 0.0000 0.0000 0.0000 0.0000 0.0000 13.8307
#
#
#
# Elastic Compliance Matrix: (Units=1/GPa)
#
#
# Indices 1 2 3 4 5 6 
#
# 1 0.022548 0.001237 -0.004635 0.000000 0.000000 0.000000
# 2 0.001237 0.012419 -0.004963 0.000000 0.000000 0.000000
# 3 -0.004635 -0.004963 0.008540 0.000000 0.000000 0.000000
# 4 0.000000 0.000000 0.000000 0.019173 0.000000 0.000000
# 5 0.000000 0.000000 0.000000 0.000000 0.026743 0.000000
# 6 0.000000 0.000000 0.000000 0.000000 0.000000 0.072303
#
#
# Mechanical properties :
#
#
# Convention : Reuss Voigt Hill
#
# Bulk Modulus (GPa) = 37.33426 60.00188 48.66807
# Shear Modulus (GPa) = 26.68443 35.59475 31.13959
#
# Velocity S-wave (km/s) = 3.54073 4.08937 3.82490
# Velocity P-wave (km/s) = 5.85286 7.10543 6.50934
#
# Compressibility (1/GPa) = 0.02678505
#
# Stress axis : x y z
#
# Youngs Moduli (GPa) = 44.35025 80.52469 117.09811
#
# Poissons Ratio (x) = -0.09962 0.54273
# Poissons Ratio (y) = -0.05487 0.58115
# Poissons Ratio (z) = 0.20555 0.39964
#
# Static dielectric constant tensor:
#      x y z
#    x 1.872910 0.000000 0.000000 
#    y 0.000000 1.784100 0.000000 
#    z 0.000000 0.000000 1.865800 
# 
# From -- ./inp_files/29551.got.cif
#   From: 2010.05.17/outbox.cif.g08.bks.cpg/sg22_15_cif.got.tgz:29551.got - 2010.06.03 23:40:54.
