data_PCOD9326642
_publ_section_title
;
Structure prediction by ZEFSAII (Michael W. Deem and Ramdas Pophale) SiO2 
 PCOD9326642
Probable space group: F 2 2 2
;
_chemical_formula_sum "Si O2"
_cell_formula_units_Z 92
_cell_length_a 19.020914
_cell_length_b 8.571819
_cell_length_c 30.517585
_cell_angle_alpha 90.000000
_cell_angle_beta 90.000000
_cell_angle_gamma 90.000000
_cell_volume 4975.704002
_symmetry_space_group_name_H-M "F 2 2 2"
_symmetry_group_IT_number 22
_symmetry_cell_setting 'orthorhombic'
loop_
_space_group_symop_operation_xyz
x,y,z
-x,-y,z
x,-y,-z
-x,y,-z
x,1/2+y,1/2+z
-x,1/2-y,1/2+z
x,1/2-y,1/2-z
-x,1/2+y,1/2-z
1/2+x,y,1/2+z
1/2-x,-y,1/2+z
1/2+x,-y,1/2-z
1/2-x,y,1/2-z
1/2+x,1/2+y,z
1/2-x,1/2-y,z
1/2+x,1/2-y,-z
1/2-x,1/2+y,-z
loop_
_atom_site_type_symbol
_atom_site_label
_atom_site_fract_x
_atom_site_fract_y
_atom_site_fract_z
Si Si1 0.151114 0.636567 0.867416
Si Si2 0.031962 0.331996 0.205941
Si Si3 0.250000 0.750000 0.433643
Si Si4 0.799447 0.026360 0.869160
Si Si5 0.894657 0.362922 0.067426
Si Si6 0.000000 0.000000 0.500000
Si Si7 0.060349 0.126980 0.855564
O O1 0.093037 0.653027 0.830054
O O2 0.170405 0.807822 0.886211
O O3 0.224359 0.568559 0.847860
O O4 0.122834 0.518326 0.904274
O O5 0.057309 0.250000 0.250000
O O6 0.000000 0.500000 0.216167
O O7 0.970835 0.229592 0.183465
O O8 0.223309 0.604222 0.404280
O O9 0.178211 0.807889 0.455253
O O10 0.865413 0.953702 0.843425
O O11 0.951809 0.396867 0.031296
O O12 0.922944 0.237153 0.102751
O O13 0.000000 0.000000 0.866154
#
# Coordination Sequence:
#
# PCOD9326642 Si02
#       7
#    16  16   8  16  16   4  16
#     4  10  19  39  62  85 115 157 206 245 305 365
#     4  12  24  38  58  88 123 161 198 252 309 372
#     4   8  18  38  60  86 119 152 202 250 309 372
#     4   9  19  33  63  91 108 149 207 253 293 369
#     4  10  21  39  61  89 119 163 202 253 307 368
#     4  12  24  36  62  92 132 158 206 252 312 360
#     4  11  20  37  65  86 116 154 207 252 306 367
#
# _framework density 18.489846
#
# number of rings (size 3 to 8) (size 9 to 14) (size 15 to 20)
#    0.000    1.739    3.478    1.565    0.000    0.000 
#    0.000    5.652    0.000    1.043    0.000    0.000 
#    0.000    0.000    0.000    0.000    0.000    0.000 
#
# Total GULP energy -128152.601479 kJ/mol
# GULP energy per Si atom -5571.852238 kJ/mol
# Density = 1.844776 g / cm^3
# Si number density = 18.489846 Si / 1000 Ang^3
#
#
#
# Elastic Constant Matrix: (Units=GPa)
#
#
# Indices 1 2 3 4 5 6 
#
# 1 134.4442 43.1140 36.0129 0.0000 0.0000 0.0000
# 2 43.1140 116.2609 25.1427 0.0000 0.0000 0.0000
# 3 36.0129 25.1427 50.6549 0.0000 0.0000 0.0000
# 4 0.0000 0.0000 0.0000 -8.3645 0.0000 0.0000
# 5 0.0000 0.0000 0.0000 0.0000 -24.9560 0.0000
# 6 0.0000 0.0000 0.0000 0.0000 0.0000 38.9184
#
#
#
# Elastic Compliance Matrix: (Units=1/GPa)
#
#
# Indices 1 2 3 4 5 6 
#
# 1 0.009737 -0.002368 -0.005747 0.000000 0.000000 0.000000
# 2 -0.002368 0.010212 -0.003385 0.000000 0.000000 0.000000
# 3 -0.005747 -0.003385 0.025507 0.000000 0.000000 0.000000
# 4 0.000000 0.000000 0.000000 -0.119552 0.000000 0.000000
# 5 0.000000 0.000000 0.000000 0.000000 -0.040071 0.000000
# 6 0.000000 0.000000 0.000000 0.000000 0.000000 0.025695
#
#
# Mechanical properties :
#
#
# Convention : Reuss Voigt Hill
#
# Bulk Modulus (GPa) = 44.53197 56.65546 50.59372
# Shear Modulus (GPa) = -86.22639 14.25892 -35.98373
#
# Velocity S-wave (km/s) = -6.83635 2.78002 -4.41629
# Velocity P-wave (km/s) = 6.17879 6.40411 1.19062
#
# Compressibility (1/GPa) = 0.02245578
#
# Stress axis : x y z
#
# Youngs Moduli (GPa) = 102.70301 97.92873 39.20422
#
# Poissons Ratio (x) = 0.23189 0.22531
# Poissons Ratio (y) = 0.24319 0.13271
# Poissons Ratio (z) = 0.59024 0.33149
#
# Static dielectric constant tensor:
#      x y z
#    x 1.667780 0.000000 0.000000 
#    y 0.000000 1.694400 0.000000 
#    z 0.000000 0.000000 1.577360 
# 
# From -- ./inp_files/46004.got.cif
#   From: 2010.05.17/outbox.cif.g08.bks.cpg/sg22_24_cif.got.tgz:46004.got - 2010.06.03 23:40:54.
