data_PCOD9326439
_publ_section_title
;
Structure prediction by ZEFSAII (Michael W. Deem and Ramdas Pophale) SiO2 
 PCOD9326439
Probable space group: F 2 2 2
;
_chemical_formula_sum "Si O2"
_cell_formula_units_Z 88
_cell_length_a 12.763888
_cell_length_b 17.928921
_cell_length_c 16.817082
_cell_angle_alpha 90.000000
_cell_angle_beta 90.000000
_cell_angle_gamma 90.000000
_cell_volume 3848.467117
_symmetry_space_group_name_H-M "F 2 2 2"
_symmetry_group_IT_number 22
_symmetry_cell_setting 'orthorhombic'
loop_
_space_group_symop_operation_xyz
x,y,z
-x,-y,z
x,-y,-z
-x,y,-z
x,1/2+y,1/2+z
-x,1/2-y,1/2+z
x,1/2-y,1/2-z
-x,1/2+y,1/2-z
1/2+x,y,1/2+z
1/2-x,-y,1/2+z
1/2+x,-y,1/2-z
1/2-x,y,1/2-z
1/2+x,1/2+y,z
1/2-x,1/2-y,z
1/2+x,1/2-y,-z
1/2-x,1/2+y,-z
loop_
_atom_site_type_symbol
_atom_site_label
_atom_site_fract_x
_atom_site_fract_y
_atom_site_fract_z
Si Si1 0.733753 0.555711 0.665394
Si Si2 0.486301 0.410989 0.596274
Si Si3 0.842328 0.800984 0.854575
Si Si4 0.182818 0.500000 0.500000
Si Si5 0.076633 0.736404 0.837961
Si Si6 0.383274 0.163958 0.475998
O O1 0.750000 0.512512 0.750000
O O2 0.625969 0.599100 0.641382
O O3 0.826798 0.615999 0.677487
O O4 0.753297 0.513864 0.581580
O O5 0.500000 0.500000 0.609372
O O6 0.500000 0.399498 0.500000
O O7 0.564882 0.349775 0.634423
O O8 0.750000 0.750000 0.825519
O O9 0.956525 0.768380 0.839536
O O10 0.818712 0.812296 0.948025
O O11 0.120837 0.425342 0.476619
O O12 0.116503 0.750000 0.750000
O O13 0.139735 0.789906 0.897808
O O14 0.500000 0.187138 0.500000
#
# Coordination Sequence:
#
# PCOD9326439 Si02
#       6
#    16  16  16   8  16  16
#     4  11  23  39  62  96 126 165 218 269 324 381
#     4  11  23  40  63  93 131 169 208 265 333 394
#     4  10  19  34  61  84 116 150 202 260 306 363
#     4  10  21  40  63  86 126 172 212 264 319 382
#     4  11  22  37  60  93 125 160 206 264 326 389
#     4   9  20  37  58  85 112 162 204 249 305 382
#
# _framework density 22.866246
#
# number of rings (size 3 to 8) (size 9 to 14) (size 15 to 20)
#    0.000    1.636    1.818    4.091    0.000    1.455 
#    0.000    0.000    0.000    0.000    0.000    0.000 
#    0.000    0.000    0.000    0.000    0.000    0.000 
#
# Total GULP energy -122519.224991 kJ/mol
# GULP energy per Si atom -5569.055681 kJ/mol
# Density = 2.281420 g / cm^3
# Si number density = 22.866246 Si / 1000 Ang^3
#
#
#
# Elastic Constant Matrix: (Units=GPa)
#
#
# Indices 1 2 3 4 5 6 
#
# 1 33.8468 3.4349 11.8180 0.0000 0.0000 0.0000
# 2 3.4349 118.1474 63.1131 0.0000 0.0000 0.0000
# 3 11.8180 63.1131 219.4198 0.0000 0.0000 0.0000
# 4 0.0000 0.0000 0.0000 18.5991 0.0000 0.0000
# 5 0.0000 0.0000 0.0000 0.0000 10.7735 0.0000
# 6 0.0000 0.0000 0.0000 0.0000 0.0000 22.8569
#
#
#
# Elastic Compliance Matrix: (Units=1/GPa)
#
#
# Indices 1 2 3 4 5 6 
#
# 1 0.030111 -0.000011 -0.001619 0.000000 0.000000 0.000000
# 2 -0.000011 0.010001 -0.002876 0.000000 0.000000 0.000000
# 3 -0.001619 -0.002876 0.005472 0.000000 0.000000 0.000000
# 4 0.000000 0.000000 0.000000 0.053766 0.000000 0.000000
# 5 0.000000 0.000000 0.000000 0.000000 0.092820 0.000000
# 6 0.000000 0.000000 0.000000 0.000000 0.000000 0.043751
#
#
# Mechanical properties :
#
#
# Convention : Reuss Voigt Hill
#
# Bulk Modulus (GPa) = 27.34264 58.68287 43.01275
# Shear Modulus (GPa) = 19.44599 29.98242 24.71420
#
# Velocity S-wave (km/s) = 2.91937 3.62499 3.29114
# Velocity P-wave (km/s) = 4.83189 6.57571 5.77006
#
# Compressibility (1/GPa) = 0.03657291
#
# Stress axis : x y z
#
# Youngs Moduli (GPa) = 33.21026 99.99371 182.75221
#
# Poissons Ratio (x) = 0.00107 0.29582
# Poissons Ratio (y) = 0.00036 0.52559
# Poissons Ratio (z) = 0.05376 0.28758
#
# Static dielectric constant tensor:
#      x y z
#    x 1.905080 0.000000 0.000000 
#    y 0.000000 1.939260 0.000000 
#    z 0.000000 0.000000 1.995610 
# 
# From -- ./inp_files/29288.got.cif
#   From: 2010.05.17/outbox.cif.g08.bks.cpg/sg22_15_cif.got.tgz:29288.got - 2010.06.03 23:40:54.
