data_PCOD9326017
_publ_section_title
;
Structure prediction by ZEFSAII (Michael W. Deem and Ramdas Pophale) SiO2 
 PCOD9326017
Probable space group: F 2 2 2
;
_chemical_formula_sum "Si O2"
_cell_formula_units_Z 104
_cell_length_a 13.804128
_cell_length_b 17.277340
_cell_length_c 20.035122
_cell_angle_alpha 90.000000
_cell_angle_beta 90.000000
_cell_angle_gamma 90.000000
_cell_volume 4778.348805
_symmetry_space_group_name_H-M "F 2 2 2"
_symmetry_group_IT_number 22
_symmetry_cell_setting 'orthorhombic'
loop_
_space_group_symop_operation_xyz
x,y,z
-x,-y,z
x,-y,-z
-x,y,-z
x,1/2+y,1/2+z
-x,1/2-y,1/2+z
x,1/2-y,1/2-z
-x,1/2+y,1/2-z
1/2+x,y,1/2+z
1/2-x,-y,1/2+z
1/2+x,-y,1/2-z
1/2-x,y,1/2-z
1/2+x,1/2+y,z
1/2-x,1/2-y,z
1/2+x,1/2-y,-z
1/2-x,1/2+y,-z
loop_
_atom_site_type_symbol
_atom_site_label
_atom_site_fract_x
_atom_site_fract_y
_atom_site_fract_z
Si Si1 0.434015 0.923387 0.395614
Si Si2 0.620812 0.374717 0.569612
Si Si3 0.000000 0.500000 0.141124
Si Si4 0.857429 0.537546 0.738815
Si Si5 0.710001 0.628815 0.181524
Si Si6 0.417777 0.295439 0.079708
Si Si7 0.268351 0.837277 0.462151
O O1 0.422610 0.919820 0.315869
O O2 0.491961 0.851179 0.424511
O O3 0.325139 0.905631 0.422593
O O4 0.500000 0.000000 0.412263
O O5 0.547344 0.439001 0.591907
O O6 0.705792 0.378803 0.626271
O O7 0.563962 0.294172 0.575039
O O8 0.673247 0.372766 0.497686
O O9 0.083943 0.528649 0.192635
O O10 0.750000 0.571587 0.750000
O O11 0.835291 0.454520 0.702307
O O12 0.750000 0.660607 0.250000
O O13 0.630989 0.683776 0.149785
O O14 0.338445 0.315941 0.024123
O O15 0.250000 0.750000 0.430858
#
# Coordination Sequence:
#
# PCOD9326017 Si02
#       7
#    16  16   8  16  16  16  16
#     4  12  23  42  74 103 133 176 237 294 345 405
#     4  10  22  39  68  94 138 179 223 274 344 416
#     4  12  20  42  70  97 141 184 224 282 336 418
#     4  11  22  41  64  99 144 178 217 291 350 403
#     4  10  17  36  59  92 133 170 211 271 339 392
#     4  10  21  39  62 103 128 166 228 285 340 398
#     4   9  22  45  67  95 138 175 218 291 359 409
#
# _framework density 21.764841000000001
#
# number of rings (size 3 to 8) (size 9 to 14) (size 15 to 20)
#    0.000    1.538    5.385    1.846    0.000    2.462 
#    2.769    0.000    3.385    0.923    0.000    0.000 
#    0.000    0.000    0.000    0.000    0.000    0.000 
#
# Total GULP energy -145078.253044 kJ/mol
# GULP energy per Si atom -5579.932809 kJ/mol
# Density = 2.171530 g / cm^3
# Si number density = 21.764841 Si / 1000 Ang^3
#
#
#
# Elastic Constant Matrix: (Units=GPa)
#
#
# Indices 1 2 3 4 5 6 
#
# 1 100.8447 59.0698 18.0053 0.0000 0.0000 0.0000
# 2 59.0698 99.0749 31.8256 0.0000 0.0000 0.0000
# 3 18.0053 31.8256 54.3938 0.0000 0.0000 0.0000
# 4 0.0000 0.0000 0.0000 -0.3845 0.0000 0.0000
# 5 0.0000 0.0000 0.0000 0.0000 40.5530 0.0000
# 6 0.0000 0.0000 0.0000 0.0000 0.0000 34.8396
#
#
#
# Elastic Compliance Matrix: (Units=1/GPa)
#
#
# Indices 1 2 3 4 5 6 
#
# 1 0.015243 -0.009195 0.000335 0.000000 0.000000 0.000000
# 2 -0.009195 0.017977 -0.007474 0.000000 0.000000 0.000000
# 3 0.000335 -0.007474 0.022647 0.000000 0.000000 0.000000
# 4 0.000000 0.000000 0.000000 -2.600519 0.000000 0.000000
# 5 0.000000 0.000000 0.000000 0.000000 0.024659 0.000000
# 6 0.000000 0.000000 0.000000 0.000000 0.000000 0.028703
#
#
# Mechanical properties :
#
#
# Convention : Reuss Voigt Hill
#
# Bulk Modulus (GPa) = 43.11062 52.45718 47.78390
# Shear Modulus (GPa) = -2.04008 24.69579 11.32786
#
# Velocity S-wave (km/s) = -0.96921 3.37213 2.28385
# Velocity P-wave (km/s) = 4.31254 6.27023 5.38116
#
# Compressibility (1/GPa) = 0.02319614
#
# Stress axis : x y z
#
# Youngs Moduli (GPa) = 65.60513 55.62744 44.15625
#
# Poissons Ratio (x) = 0.51152 -0.01477
# Poissons Ratio (y) = 0.60327 0.33004
# Poissons Ratio (z) = -0.02195 0.41577
#
# Static dielectric constant tensor:
#      x y z
#    x 1.849830 0.000000 0.000000 
#    y 0.000000 1.833120 0.000000 
#    z 0.000000 0.000000 1.785240 
# 
# From -- ./inp_files/43632.got.cif
#   From: 2010.05.17/outbox.cif.g08.bks.cpg/sg22_22_cif.got.tgz:43632.got - 2010.06.03 23:40:54.
