data_PCOD9326664
_publ_section_title
;
Structure prediction by ZEFSAII (Michael W. Deem and Ramdas Pophale) SiO2 
 PCOD9326664
Probable space group: F 2 2 2
;
_chemical_formula_sum "Si O2"
_cell_formula_units_Z 80
_cell_length_a 9.810024
_cell_length_b 27.779446
_cell_length_c 15.207769
_cell_angle_alpha 90.000000
_cell_angle_beta 90.000000
_cell_angle_gamma 90.000000
_cell_volume 4144.376071
_symmetry_space_group_name_H-M "F 2 2 2"
_symmetry_group_IT_number 22
_symmetry_cell_setting 'orthorhombic'
loop_
_space_group_symop_operation_xyz
x,y,z
-x,-y,z
x,-y,-z
-x,y,-z
x,1/2+y,1/2+z
-x,1/2-y,1/2+z
x,1/2-y,1/2-z
-x,1/2+y,1/2-z
1/2+x,y,1/2+z
1/2-x,-y,1/2+z
1/2+x,-y,1/2-z
1/2-x,y,1/2-z
1/2+x,1/2+y,z
1/2-x,1/2-y,z
1/2+x,1/2-y,-z
1/2-x,1/2+y,-z
loop_
_atom_site_type_symbol
_atom_site_label
_atom_site_fract_x
_atom_site_fract_y
_atom_site_fract_z
Si Si1 0.982317 0.556191 0.307096
Si Si2 0.799846 0.665434 0.595507
Si Si3 0.250000 0.609945 0.250000
Si Si4 0.250000 0.625772 0.750000
Si Si5 0.250000 0.250000 0.022495
Si Si6 0.000000 0.093367 0.000000
Si Si7 0.571716 0.289071 0.828714
O O1 0.874219 0.586611 0.248813
O O2 0.000000 0.500000 0.287726
O O3 0.127588 0.579278 0.286927
O O4 0.956108 0.564295 0.412194
O O5 0.703231 0.641480 0.667252
O O6 0.724305 0.704627 0.538609
O O7 0.876164 0.627517 0.532071
O O8 0.922697 0.689970 0.651390
O O9 0.324225 0.665877 0.813302
O O10 0.375797 0.262314 0.084844
O O11 0.574673 0.250000 0.750000
#
# Coordination Sequence:
#
# PCOD9326664 Si02
#       7
#    16  16   8   8   8   8  16
#     4  11  23  40  67  94 117 160 217 274 329 385
#     4  11  23  39  58  89 129 166 208 258 313 376
#     4  10  23  41  60  89 129 164 205 261 330 374
#     4  12  20  40  66  85 129 164 205 261 312 382
#     4  12  21  35  60  90 120 158 212 255 291 374
#     4  10  19  40  62  84 124 156 208 266 323 374
#     4  12  23  39  60  91 125 167 213 249 311 385
#
# _framework density 19.303267999999999
#
# number of rings (size 3 to 8) (size 9 to 14) (size 15 to 20)
#    0.000    0.800    8.000    0.900    2.800    0.000 
#    3.600    0.000    0.000    3.600    0.000   18.200 
#    0.000    0.000    0.000    0.000    0.000    0.000 
#
# Total GULP energy -111427.602632 kJ/mol
# GULP energy per Si atom -5571.380132 kJ/mol
# Density = 1.925933 g / cm^3
# Si number density = 19.303268 Si / 1000 Ang^3
#
#
#
# Elastic Constant Matrix: (Units=GPa)
#
#
# Indices 1 2 3 4 5 6 
#
# 1 47.9428 26.9851 23.0319 0.0000 0.0000 0.0000
# 2 26.9851 126.0961 54.7102 0.0000 0.0000 0.0000
# 3 23.0319 54.7102 96.8045 0.0000 0.0000 0.0000
# 4 0.0000 0.0000 0.0000 17.4724 0.0000 0.0000
# 5 0.0000 0.0000 0.0000 0.0000 21.4608 0.0000
# 6 0.0000 0.0000 0.0000 0.0000 0.0000 21.8309
#
#
#
# Elastic Compliance Matrix: (Units=1/GPa)
#
#
# Indices 1 2 3 4 5 6 
#
# 1 0.024745 -0.003632 -0.003835 0.000000 0.000000 0.000000
# 2 -0.003632 0.011040 -0.005375 0.000000 0.000000 0.000000
# 3 -0.003835 -0.005375 0.014280 0.000000 0.000000 0.000000
# 4 0.000000 0.000000 0.000000 0.057233 0.000000 0.000000
# 5 0.000000 0.000000 0.000000 0.000000 0.046597 0.000000
# 6 0.000000 0.000000 0.000000 0.000000 0.000000 0.045807
#
#
# Mechanical properties :
#
#
# Convention : Reuss Voigt Hill
#
# Bulk Modulus (GPa) = 41.01488 53.36642 47.19065
# Shear Modulus (GPa) = 21.41221 23.22723 22.31972
#
# Velocity S-wave (km/s) = 3.33416 3.47260 3.40408
# Velocity P-wave (km/s) = 6.00965 6.61702 6.32063
#
# Compressibility (1/GPa) = 0.02438139
#
# Stress axis : x y z
#
# Youngs Moduli (GPa) = 40.41295 90.58106 70.02618
#
# Poissons Ratio (x) = 0.32895 0.26854
# Poissons Ratio (y) = 0.14676 0.37641
# Poissons Ratio (z) = 0.15498 0.48690
#
# Static dielectric constant tensor:
#      x y z
#    x 1.658670 0.000000 0.000000 
#    y 0.000000 1.735610 0.000000 
#    z 0.000000 0.000000 1.700580 
# 
# From -- ./inp_files/28323.got.cif
#   From: 2010.05.17/outbox.cif.g08.bks.cpg/sg22_15_cif.got.tgz:28323.got - 2010.06.03 23:40:54.
