data_PCOD9326872
_publ_section_title
;
Structure prediction by ZEFSAII (Michael W. Deem and Ramdas Pophale) SiO2 
 PCOD9326872
Probable space group: F 2 2 2
;
_chemical_formula_sum "Si O2"
_cell_formula_units_Z 112
_cell_length_a 23.248663
_cell_length_b 14.716135
_cell_length_c 14.183348
_cell_angle_alpha 90.000000
_cell_angle_beta 90.000000
_cell_angle_gamma 90.000000
_cell_volume 4852.555422
_symmetry_space_group_name_H-M "F 2 2 2"
_symmetry_group_IT_number 22
_symmetry_cell_setting 'orthorhombic'
loop_
_space_group_symop_operation_xyz
x,y,z
-x,-y,z
x,-y,-z
-x,y,-z
x,1/2+y,1/2+z
-x,1/2-y,1/2+z
x,1/2-y,1/2-z
-x,1/2+y,1/2-z
1/2+x,y,1/2+z
1/2-x,-y,1/2+z
1/2+x,-y,1/2-z
1/2-x,y,1/2-z
1/2+x,1/2+y,z
1/2-x,1/2-y,z
1/2+x,1/2-y,-z
1/2-x,1/2+y,-z
loop_
_atom_site_type_symbol
_atom_site_label
_atom_site_fract_x
_atom_site_fract_y
_atom_site_fract_z
Si Si1 0.150064 0.295135 0.434248
Si Si2 0.527854 0.267621 0.860186
Si Si3 0.328832 0.987607 0.610135
Si Si4 0.271790 0.842805 0.386803
Si Si5 0.343552 0.108438 0.996052
Si Si6 0.447982 0.430973 0.830233
Si Si7 0.461460 0.910016 0.111727
O O1 0.081935 0.305348 0.417684
O O2 0.176164 0.379228 0.372544
O O3 0.177311 0.314139 0.538253
O O4 0.159620 0.186039 0.421232
O O5 0.544478 0.250000 0.750000
O O6 0.473287 0.335021 0.864210
O O7 0.506831 0.170627 0.893592
O O8 0.312274 0.000000 0.500000
O O9 0.293934 0.066368 0.664567
O O10 0.393716 0.022860 0.621781
O O11 0.250000 0.750000 0.340867
O O12 0.214262 0.871592 0.439978
O O13 0.406097 0.118789 0.948364
O O14 0.341858 0.000000 0.000000
O O15 0.500000 0.500000 0.841782
O O16 0.437738 0.420332 0.718396
O O17 0.500000 0.000000 0.094202
#
# Coordination Sequence:
#
# PCOD9326872 Si02
#       7
#    16  16  16  16  16  16  16
#     4  10  20  36  59  89 118 158 202 264 312 373
#     4  10  21  36  56  86 124 162 201 255 318 384
#     4  10  20  36  59  89 120 155 205 264 311 385
#     4   9  21  39  60  87 119 156 200 259 322 369
#     4  11  22  39  60  84 119 164 210 259 310 369
#     4  10  20  38  58  87 127 163 201 255 327 373
#     4  10  23  39  58  85 126 169 209 256 311 388
#
# _framework density 23.080624
#
# number of rings (size 3 to 8) (size 9 to 14) (size 15 to 20)
#    0.000    2.000    1.429    2.143    6.000    2.286 
#    0.000    0.714    0.000    6.429    3.714    0.000 
#    0.000    0.000    0.000    0.000    0.000    0.000 
#
# Total GULP energy -155889.346862 kJ/mol
# GULP energy per Si atom -5567.476674 kJ/mol
# Density = 2.302809 g / cm^3
# Si number density = 23.080624 Si / 1000 Ang^3
#
#
#
# Elastic Constant Matrix: (Units=GPa)
#
#
# Indices 1 2 3 4 5 6 
#
# 1 115.9483 45.1602 42.6412 0.0000 0.0000 0.0000
# 2 45.1602 229.0308 24.2029 0.0000 0.0000 0.0000
# 3 42.6412 24.2029 53.0105 0.0000 0.0000 0.0000
# 4 0.0000 0.0000 0.0000 0.1617 0.0000 0.0000
# 5 0.0000 0.0000 0.0000 0.0000 69.2346 0.0000
# 6 0.0000 0.0000 0.0000 0.0000 0.0000 105.6187
#
#
#
# Elastic Compliance Matrix: (Units=1/GPa)
#
#
# Indices 1 2 3 4 5 6 
#
# 1 0.012719 -0.001499 -0.009547 0.000000 0.000000 0.000000
# 2 -0.001499 0.004764 -0.000969 0.000000 0.000000 0.000000
# 3 -0.009547 -0.000969 0.026986 0.000000 0.000000 0.000000
# 4 0.000000 0.000000 0.000000 6.183022 0.000000 0.000000
# 5 0.000000 0.000000 0.000000 0.000000 0.014444 0.000000
# 6 0.000000 0.000000 0.000000 0.000000 0.000000 0.009468
#
#
# Mechanical properties :
#
#
# Convention : Reuss Voigt Hill
#
# Bulk Modulus (GPa) = 48.92576 69.11092 59.01834
# Shear Modulus (GPa) = 0.79589 54.06869 27.43229
#
# Velocity S-wave (km/s) = 0.58786 4.84529 3.45126
# Velocity P-wave (km/s) = 4.65881 7.83012 6.44264
#
# Compressibility (1/GPa) = 0.02043913
#
# Stress axis : x y z
#
# Youngs Moduli (GPa) = 78.61991 209.89627 37.05588
#
# Poissons Ratio (x) = 0.31466 0.35377
# Poissons Ratio (y) = 0.11786 0.03592
# Poissons Ratio (z) = 0.75058 0.20346
#
# Static dielectric constant tensor:
#      x y z
#    x 1.824680 0.000000 0.000000 
#    y 0.000000 1.696760 0.000000 
#    z 0.000000 0.000000 1.903070 
# 
# From -- ./inp_files/32505.got.cif
#   From: 2010.05.17/outbox.cif.g08.bks.cpg/sg22_17_cif.got.tgz:32505.got - 2010.06.03 23:40:54.
