data_PCOD9326985
_publ_section_title
;
Structure prediction by ZEFSAII (Michael W. Deem and Ramdas Pophale) SiO2 
 PCOD9326985
Probable space group: F 2 2 2
;
_chemical_formula_sum "Si O2"
_cell_formula_units_Z 116
_cell_length_a 26.158149
_cell_length_b 24.261770
_cell_length_c 9.055875
_cell_angle_alpha 90.000000
_cell_angle_beta 90.000000
_cell_angle_gamma 90.000000
_cell_volume 5747.247629
_symmetry_space_group_name_H-M "F 2 2 2"
_symmetry_group_IT_number 22
_symmetry_cell_setting 'orthorhombic'
loop_
_space_group_symop_operation_xyz
x,y,z
-x,-y,z
x,-y,-z
-x,y,-z
x,1/2+y,1/2+z
-x,1/2-y,1/2+z
x,1/2-y,1/2-z
-x,1/2+y,1/2-z
1/2+x,y,1/2+z
1/2-x,-y,1/2+z
1/2+x,-y,1/2-z
1/2-x,y,1/2-z
1/2+x,1/2+y,z
1/2-x,1/2-y,z
1/2+x,1/2-y,-z
1/2-x,1/2+y,-z
loop_
_atom_site_type_symbol
_atom_site_label
_atom_site_fract_x
_atom_site_fract_y
_atom_site_fract_z
Si Si1 0.654276 0.060081 0.428841
Si Si2 0.711781 0.862787 0.366349
Si Si3 0.698755 0.823356 0.974516
Si Si4 0.049936 0.561228 0.567708
Si Si5 0.750000 0.750000 0.750000
Si Si6 0.154164 0.443670 0.924738
Si Si7 0.948321 0.589451 0.096734
Si Si8 0.383834 0.808554 0.809786
O O1 0.697061 0.100016 0.494424
O O2 0.602000 0.084460 0.499704
O O3 0.651289 0.053237 0.252960
O O4 0.662091 0.000000 0.500000
O O5 0.750000 0.893188 0.250000
O O6 0.750557 0.816628 0.425350
O O7 0.660382 0.839422 0.289408
O O8 0.712333 0.792163 0.829057
O O9 0.685884 0.888235 0.959749
O O10 0.648981 0.796710 0.044665
O O11 0.050435 0.500000 0.500000
O O12 0.047565 0.558554 0.744978
O O13 0.000000 0.589889 0.500000
O O14 0.174458 0.500000 0.000000
O O15 0.098253 0.434292 0.998648
O O16 0.929093 0.649722 0.150162
O O17 0.000000 0.588650 0.000000
O O18 0.401218 0.750000 0.750000
#
# Coordination Sequence:
#
# PCOD9326985 Si02
#       8
#    16  16  16  16   4  16  16  16
#     4  11  22  37  60  89 129 175 215 263 321 397
#     4  10  21  39  63  92 127 169 224 274 328 390
#     4  10  23  37  64  93 129 172 227 273 337 393
#     4  10  20  37  62  92 120 159 216 260 309 382
#     4  12  20  40  62  96 132 168 236 300 316 400
#     4  11  24  40  63  95 142 178 217 269 340 411
#     4  11  23  42  66  94 130 169 213 274 332 404
#     4  10  21  41  66  90 121 168 213 280 333 396
#
# _framework density 20.183572999999999
#
# number of rings (size 3 to 8) (size 9 to 14) (size 15 to 20)
#    0.000    1.517    1.379    4.138    3.862    3.862 
#    0.000    0.690    6.069    0.000    0.000    0.000 
#    0.000    0.000    0.000    0.000    0.000    0.000 
#
# Total GULP energy -161683.189905 kJ/mol
# GULP energy per Si atom -5575.282411 kJ/mol
# Density = 2.013763 g / cm^3
# Si number density = 20.183573 Si / 1000 Ang^3
#
#
#
# Elastic Constant Matrix: (Units=GPa)
#
#
# Indices 1 2 3 4 5 6 
#
# 1 85.5183 28.6753 44.0148 -0.0031 0.0003 -0.0015
# 2 28.6753 92.5837 49.8773 -0.0023 0.0011 -0.0003
# 3 44.0148 49.8773 165.6301 -0.0136 0.0030 -0.0043
# 4 -0.0031 -0.0023 -0.0136 21.0013 0.0028 -0.0024
# 5 0.0003 0.0011 0.0030 0.0028 23.4330 0.0019
# 6 -0.0015 -0.0003 -0.0043 -0.0024 0.0019 -1.8050
#
#
#
# Elastic Compliance Matrix: (Units=1/GPa)
#
#
# Indices 1 2 3 4 5 6 
#
# 1 0.014133 -0.002810 -0.002910 0.000000 0.000000 -0.000004
# 2 -0.002810 0.013451 -0.003304 -0.000001 0.000000 0.000008
# 3 -0.002910 -0.003304 0.007806 0.000004 -0.000001 -0.000016
# 4 0.000000 -0.000001 0.000004 0.047616 -0.000006 -0.000063
# 5 0.000000 0.000000 -0.000001 -0.000006 0.042675 0.000044
# 6 -0.000004 0.000008 -0.000016 -0.000063 0.000044 -0.554015
#
#
# Mechanical properties :
#
#
# Convention : Reuss Voigt Hill
#
# Bulk Modulus (GPa) = 57.65956 65.42969 61.54462
# Shear Modulus (GPa) = -12.36075 23.27017 5.45471
#
# Velocity S-wave (km/s) = -2.47739 3.39916 1.64573
# Velocity P-wave (km/s) = 4.52176 6.92051 5.84550
#
# Compressibility (1/GPa) = 0.01734318
#
# Stress axis : x y z
#
# Youngs Moduli (GPa) = 70.75583 74.34245 128.11155
#
# Poissons Ratio (x) = 0.20889 0.37275
# Poissons Ratio (y) = 0.19882 0.42328
# Poissons Ratio (z) = 0.20587 0.24563
#
# Static dielectric constant tensor:
#      x y z
#    x 1.789160 0.000000 0.000000 
#    y 0.000000 1.773280 0.000000 
#    z 0.000000 0.000000 1.784850 
# 
# From -- ./inp_files/14967.got.cif
#   From: 2010.05.17/outbox.cif.g08.bks.cpg/sg22_8_cif.got.tgz:14967.got - 2010.06.03 23:40:54.
