data_PCOD9326993
_publ_section_title
;
Structure prediction by ZEFSAII (Michael W. Deem and Ramdas Pophale) SiO2 
 PCOD9326993
Probable space group: F 2 2 2
;
_chemical_formula_sum "Si O2"
_cell_formula_units_Z 64
_cell_length_a 14.136860
_cell_length_b 7.823137
_cell_length_c 21.371514
_cell_angle_alpha 90.000000
_cell_angle_beta 90.000000
_cell_angle_gamma 90.000000
_cell_volume 2363.573883
_symmetry_space_group_name_H-M "F 2 2 2"
_symmetry_group_IT_number 22
_symmetry_cell_setting 'orthorhombic'
loop_
_space_group_symop_operation_xyz
x,y,z
-x,-y,z
x,-y,-z
-x,y,-z
x,1/2+y,1/2+z
-x,1/2-y,1/2+z
x,1/2-y,1/2-z
-x,1/2+y,1/2-z
1/2+x,y,1/2+z
1/2-x,-y,1/2+z
1/2+x,-y,1/2-z
1/2-x,y,1/2-z
1/2+x,1/2+y,z
1/2-x,1/2-y,z
1/2+x,1/2-y,-z
1/2-x,1/2+y,-z
loop_
_atom_site_type_symbol
_atom_site_label
_atom_site_fract_x
_atom_site_fract_y
_atom_site_fract_z
Si Si1 0.458186 0.253849 0.137423
Si Si2 0.207009 0.441445 0.314597
Si Si3 0.647751 0.802151 0.485177
Si Si4 0.142024 0.387163 0.883613
O O1 0.402163 0.389862 0.179266
O O2 0.436186 0.298563 0.065079
O O3 0.569046 0.239926 0.150815
O O4 0.408244 0.066934 0.135792
O O5 0.250000 0.509715 0.250000
O O6 0.250000 0.250000 0.320262
O O7 0.250042 0.570930 0.365560
O O8 0.750000 0.750000 0.456574
O O9 0.636578 0.674510 0.544300
O O10 0.656579 0.000000 0.500000
#
# Coordination Sequence:
#
# PCOD9326993 Si02
#       4
#    16  16  16  16
#     4  10  20  37  63  96 133 174 224 279 341 419
#     4   9  18  37  68  97 132 185 231 276 341 411
#     4  12  23  37  62  93 131 176 222 284 358 422
#     4  10  21  37  62  97 133 173 224 280 343 416
#
# _framework density 27.077636999999999
#
# number of rings (size 3 to 8) (size 9 to 14) (size 15 to 20)
#    0.000    1.750    0.000    6.750    0.000    4.000 
#    0.000    0.000    0.000   66.750    0.000    0.000 
#    0.000    0.000    0.000    0.000    0.000    0.000 
#
# Total GULP energy -89402.356520 kJ/mol
# GULP energy per Si atom -5587.647283 kJ/mol
# Density = 2.701601 g / cm^3
# Si number density = 27.077637 Si / 1000 Ang^3
#
#
#
# Elastic Constant Matrix: (Units=GPa)
#
#
# Indices 1 2 3 4 5 6 
#
# 1 187.9886 33.3478 19.1366 0.0000 0.0000 0.0000
# 2 33.3478 133.3500 11.8239 0.0000 0.0000 0.0000
# 3 19.1366 11.8239 97.3212 0.0000 0.0000 0.0000
# 4 0.0000 0.0000 0.0000 2.7995 0.0000 0.0000
# 5 0.0000 0.0000 0.0000 0.0000 13.4210 0.0000
# 6 0.0000 0.0000 0.0000 0.0000 0.0000 43.0612
#
#
#
# Elastic Compliance Matrix: (Units=1/GPa)
#
#
# Indices 1 2 3 4 5 6 
#
# 1 0.005652 -0.001329 -0.000950 0.000000 0.000000 0.000000
# 2 -0.001329 0.007893 -0.000698 0.000000 0.000000 0.000000
# 3 -0.000950 -0.000698 0.010547 0.000000 0.000000 0.000000
# 4 0.000000 0.000000 0.000000 0.357209 0.000000 0.000000
# 5 0.000000 0.000000 0.000000 0.000000 0.074510 0.000000
# 6 0.000000 0.000000 0.000000 0.000000 0.000000 0.023223
#
#
# Mechanical properties :
#
#
# Convention : Reuss Voigt Hill
#
# Bulk Modulus (GPa) = 55.13083 60.80849 57.96966
# Shear Modulus (GPa) = 10.18262 35.47978 22.83120
#
# Velocity S-wave (km/s) = 1.94131 3.62373 2.90690
# Velocity P-wave (km/s) = 5.04276 6.32569 5.72031
#
# Compressibility (1/GPa) = 0.01813867
#
# Stress axis : x y z
#
# Youngs Moduli (GPa) = 176.92994 126.68934 94.81564
#
# Poissons Ratio (x) = 0.16840 0.09006
# Poissons Ratio (y) = 0.23518 0.06615
# Poissons Ratio (z) = 0.16806 0.08838
#
# Static dielectric constant tensor:
#      x y z
#    x 2.270060 0.000000 0.000000 
#    y 0.000000 2.247780 0.000000 
#    z 0.000000 0.000000 2.203260 
# 
# From -- ./inp_files/13429.got.cif
#   From: 2010.05.17/outbox.cif.g08.bks.cpg/sg22_7_cif.got.tgz:13429.got - 2010.06.03 23:40:54.
