data_PCOD9326687
_publ_section_title
;
Structure prediction by ZEFSAII (Michael W. Deem and Ramdas Pophale) SiO2 
 PCOD9326687
Probable space group: F 2 2 2
;
_chemical_formula_sum "Si O2"
_cell_formula_units_Z 64
_cell_length_a 15.728836
_cell_length_b 14.122797
_cell_length_c 13.265684
_cell_angle_alpha 90.000000
_cell_angle_beta 90.000000
_cell_angle_gamma 90.000000
_cell_volume 2946.774810
_symmetry_space_group_name_H-M "F 2 2 2"
_symmetry_group_IT_number 22
_symmetry_cell_setting 'orthorhombic'
loop_
_space_group_symop_operation_xyz
x,y,z
-x,-y,z
x,-y,-z
-x,y,-z
x,1/2+y,1/2+z
-x,1/2-y,1/2+z
x,1/2-y,1/2-z
-x,1/2+y,1/2-z
1/2+x,y,1/2+z
1/2-x,-y,1/2+z
1/2+x,-y,1/2-z
1/2-x,y,1/2-z
1/2+x,1/2+y,z
1/2-x,1/2-y,z
1/2+x,1/2-y,-z
1/2-x,1/2+y,-z
loop_
_atom_site_type_symbol
_atom_site_label
_atom_site_fract_x
_atom_site_fract_y
_atom_site_fract_z
Si Si1 0.861764 0.331006 0.563740
Si Si2 0.598797 0.491720 0.779620
Si Si3 0.158181 0.805551 0.157413
Si Si4 0.308242 0.142337 0.149282
O O1 0.899682 0.416910 0.626949
O O2 0.888109 0.307978 0.450478
O O3 0.760983 0.360032 0.560657
O O4 0.864961 0.233631 0.626617
O O5 0.500000 0.500000 0.759141
O O6 0.652784 0.584391 0.809794
O O7 0.639505 0.448566 0.678501
O O8 0.114761 0.750000 0.250000
O O9 0.250000 0.750000 0.146461
O O10 0.250000 0.153304 0.250000
#
# Coordination Sequence:
#
# PCOD9326687 Si02
#       4
#    16  16  16  16
#     4  10  19  41  69  93 120 175 230 265 319 409
#     4  11  24  41  65  98 135 173 216 272 340 408
#     4  11  25  40  59 100 133 166 219 286 338 379
#     4   9  18  37  67  92 115 164 224 264 308 396
#
# _framework density 21.718658999999999
#
# number of rings (size 3 to 8) (size 9 to 14) (size 15 to 20)
#    0.000    1.750    2.500    6.000   10.500    4.000 
#    0.000    1.250    0.000    1.500    0.000    0.000 
#    0.000    0.000    0.000    0.000    0.000    0.000 
#
# Total GULP energy -89069.287274 kJ/mol
# GULP energy per Si atom -5566.830455 kJ/mol
# Density = 2.166923 g / cm^3
# Si number density = 21.718659 Si / 1000 Ang^3
#
#
#
# Elastic Constant Matrix: (Units=GPa)
#
#
# Indices 1 2 3 4 5 6 
#
# 1 46.6746 27.2123 -5.6029 0.0000 0.0000 0.0000
# 2 27.2123 112.4010 20.7710 0.0000 0.0000 0.0000
# 3 -5.6029 20.7710 101.1773 0.0000 0.0000 0.0000
# 4 0.0000 0.0000 0.0000 20.3416 0.0000 0.0000
# 5 0.0000 0.0000 0.0000 0.0000 12.3008 0.0000
# 6 0.0000 0.0000 0.0000 0.0000 0.0000 -6.2107
#
#
#
# Elastic Compliance Matrix: (Units=1/GPa)
#
#
# Indices 1 2 3 4 5 6 
#
# 1 0.025690 -0.006738 0.002806 0.000000 0.000000 0.000000
# 2 -0.006738 0.011015 -0.002634 0.000000 0.000000 0.000000
# 3 0.002806 -0.002634 0.010580 0.000000 0.000000 0.000000
# 4 0.000000 0.000000 0.000000 0.049160 0.000000 0.000000
# 5 0.000000 0.000000 0.000000 0.000000 0.081296 0.000000
# 6 0.000000 0.000000 0.000000 0.000000 0.000000 -0.161012
#
#
# Mechanical properties :
#
#
# Convention : Reuss Voigt Hill
#
# Bulk Modulus (GPa) = 29.28108 38.33484 33.80796
# Shear Modulus (GPa) = 121.22322 19.81116 70.51719
#
# Velocity S-wave (km/s) = 7.47906 3.02350 5.70429
# Velocity P-wave (km/s) = 9.38579 5.46605 7.68020
#
# Compressibility (1/GPa) = 0.03415174
#
# Stress axis : x y z
#
# Youngs Moduli (GPa) = 38.92532 90.78657 94.51923
#
# Poissons Ratio (x) = 0.61173 -0.26522
# Poissons Ratio (y) = 0.26228 0.24900
# Poissons Ratio (z) = -0.10922 0.23917
#
# Static dielectric constant tensor:
#      x y z
#    x 1.859070 0.000000 0.000000 
#    y 0.000000 1.829300 0.000000 
#    z 0.000000 0.000000 1.840370 
# 
# From -- ./inp_files/20845.got.cif
#   From: 2010.05.17/outbox.cif.g08.bks.cpg/sg22_11_cif.got.tgz:20845.got - 2010.06.03 23:40:54.
