data_PCOD9326876
_publ_section_title
;
Structure prediction by ZEFSAII (Michael W. Deem and Ramdas Pophale) SiO2 
 PCOD9326876
Probable space group: F 2 2 2
;
_chemical_formula_sum "Si O2"
_cell_formula_units_Z 116
_cell_length_a 11.137729
_cell_length_b 26.346727
_cell_length_c 18.170159
_cell_angle_alpha 90.000000
_cell_angle_beta 90.000000
_cell_angle_gamma 90.000000
_cell_volume 5331.900614
_symmetry_space_group_name_H-M "F 2 2 2"
_symmetry_group_IT_number 22
_symmetry_cell_setting 'orthorhombic'
loop_
_space_group_symop_operation_xyz
x,y,z
-x,-y,z
x,-y,-z
-x,y,-z
x,1/2+y,1/2+z
-x,1/2-y,1/2+z
x,1/2-y,1/2-z
-x,1/2+y,1/2-z
1/2+x,y,1/2+z
1/2-x,-y,1/2+z
1/2+x,-y,1/2-z
1/2-x,y,1/2-z
1/2+x,1/2+y,z
1/2-x,1/2-y,z
1/2+x,1/2-y,-z
1/2-x,1/2+y,-z
loop_
_atom_site_type_symbol
_atom_site_label
_atom_site_fract_x
_atom_site_fract_y
_atom_site_fract_z
Si Si1 0.846314 0.930954 0.812394
Si Si2 0.107559 0.259270 0.837649
Si Si3 0.755751 0.474014 0.625087
Si Si4 0.566872 0.844377 0.598604
Si Si5 0.103179 0.330822 0.155176
Si Si6 0.750000 0.250000 0.750000
Si Si7 0.908976 0.561496 0.234651
Si Si8 0.192970 0.875731 0.948884
O O1 0.750000 0.934958 0.750000
O O2 0.864114 0.873716 0.837449
O O3 0.964342 0.948369 0.771201
O O4 0.809094 0.969562 0.877635
O O5 0.093264 0.250000 0.750000
O O6 0.250000 0.250000 0.852676
O O7 0.047755 0.213891 0.883510
O O8 0.032561 0.309917 0.859310
O O9 0.824392 0.448395 0.694792
O O10 0.624175 0.470508 0.661280
O O11 0.774233 0.435569 0.558006
O O12 0.650236 0.854712 0.527653
O O13 0.434589 0.868844 0.593263
O O14 0.168653 0.285938 0.199346
O O15 0.096155 0.380374 0.206788
O O16 0.194033 0.346541 0.088413
#
# Coordination Sequence:
#
# PCOD9326876 Si02
#       8
#    16  16  16  16  16   4  16  16
#     4  12  24  35  66  96 135 177 216 278 351 402
#     4  11  25  44  66  95 129 166 218 284 337 397
#     4  10  20  37  63  96 128 170 222 280 330 397
#     4  11  25  43  61  95 135 171 220 273 333 409
#     4  11  22  39  68  95 126 174 219 277 341 394
#     4  12  20  32  66 100 116 152 218 274 336 384
#     4  10  20  36  59  96 132 161 216 279 328 399
#     4  10  23  44  65  90 134 171 218 279 327 403
#
# _framework density 21.755842999999999
#
# number of rings (size 3 to 8) (size 9 to 14) (size 15 to 20)
#    0.000    1.241    3.448    3.724    3.862    0.552 
#    6.207    1.379    0.000    0.000    0.000    1.931 
#    0.000    0.000    0.000    0.000    0.000    0.000 
#
# Total GULP energy -161716.406396 kJ/mol
# GULP energy per Si atom -5576.427807 kJ/mol
# Density = 2.170633 g / cm^3
# Si number density = 21.755843 Si / 1000 Ang^3
#
#
#
# Elastic Constant Matrix: (Units=GPa)
#
#
# Indices 1 2 3 4 5 6 
#
# 1 97.9677 9.5072 19.5663 0.0000 0.0000 0.0000
# 2 9.5072 62.1984 -2.7326 0.0000 0.0000 0.0000
# 3 19.5663 -2.7326 52.0330 0.0000 0.0000 0.0000
# 4 0.0000 0.0000 0.0000 24.5466 0.0000 0.0000
# 5 0.0000 0.0000 0.0000 0.0000 -0.7405 0.0000
# 6 0.0000 0.0000 0.0000 0.0000 0.0000 34.8236
#
#
#
# Elastic Compliance Matrix: (Units=1/GPa)
#
#
# Indices 1 2 3 4 5 6 
#
# 1 0.011259 -0.001911 -0.004334 0.000000 0.000000 0.000000
# 2 -0.001911 0.016439 0.001582 0.000000 0.000000 0.000000
# 3 -0.004334 0.001582 0.020931 0.000000 0.000000 0.000000
# 4 0.000000 0.000000 0.000000 0.040739 0.000000 0.000000
# 5 0.000000 0.000000 0.000000 0.000000 -1.350399 0.000000
# 6 0.000000 0.000000 0.000000 0.000000 0.000000 0.028716
#
#
# Mechanical properties :
#
#
# Convention : Reuss Voigt Hill
#
# Bulk Modulus (GPa) = 25.44355 29.43120 27.43737
# Shear Modulus (GPa) = -4.13262 24.11649 9.99194
#
# Velocity S-wave (km/s) = -1.37973 3.33304 2.14540
# Velocity P-wave (km/s) = 3.03022 5.32630 4.33311
#
# Compressibility (1/GPa) = 0.03930269
#
# Stress axis : x y z
#
# Youngs Moduli (GPa) = 88.82166 60.83009 47.77509
#
# Poissons Ratio (x) = 0.11626 0.20706
# Poissons Ratio (y) = 0.16976 -0.07558
# Poissons Ratio (z) = 0.38495 -0.09624
#
# Static dielectric constant tensor:
#      x y z
#    x 1.610910 0.000000 0.000000 
#    y 0.000000 1.824090 0.000000 
#    z 0.000000 0.000000 1.817840 
# 
# From -- ./inp_files/36424.got.cif
#   From: 2010.05.17/outbox.cif.g08.bks.cpg/sg22_19_cif.got.tgz:36424.got - 2010.06.03 23:40:54.
