data_PCOD9326893
_publ_section_title
;
Structure prediction by ZEFSAII (Michael W. Deem and Ramdas Pophale) SiO2 
 PCOD9326893
Probable space group: F 2 2 2
;
_chemical_formula_sum "Si O2"
_cell_formula_units_Z 88
_cell_length_a 19.806137
_cell_length_b 12.968591
_cell_length_c 14.432079
_cell_angle_alpha 90.000000
_cell_angle_beta 90.000000
_cell_angle_gamma 90.000000
_cell_volume 3706.990474
_symmetry_space_group_name_H-M "F 2 2 2"
_symmetry_group_IT_number 22
_symmetry_cell_setting 'orthorhombic'
loop_
_space_group_symop_operation_xyz
x,y,z
-x,-y,z
x,-y,-z
-x,y,-z
x,1/2+y,1/2+z
-x,1/2-y,1/2+z
x,1/2-y,1/2-z
-x,1/2+y,1/2-z
1/2+x,y,1/2+z
1/2-x,-y,1/2+z
1/2+x,-y,1/2-z
1/2-x,y,1/2-z
1/2+x,1/2+y,z
1/2-x,1/2-y,z
1/2+x,1/2-y,-z
1/2-x,1/2+y,-z
loop_
_atom_site_type_symbol
_atom_site_label
_atom_site_fract_x
_atom_site_fract_y
_atom_site_fract_z
Si Si1 0.257996 0.490505 0.110867
Si Si2 0.603438 0.984863 0.890923
Si Si3 0.182493 0.302712 0.648975
Si Si4 0.604393 0.785915 0.145311
Si Si5 0.750000 0.750000 0.392214
Si Si6 0.039817 0.730607 0.140865
O O1 0.182556 0.532848 0.126872
O O2 0.305704 0.575278 0.156577
O O3 0.262199 0.371022 0.141432
O O4 0.270095 0.500000 0.000000
O O5 0.557756 0.889351 0.867142
O O6 0.589150 0.093181 0.844231
O O7 0.595760 0.000000 0.000000
O O8 0.179780 0.250000 0.750000
O O9 0.250000 0.250000 0.601866
O O10 0.108468 0.284802 0.606818
O O11 0.621025 0.750000 0.250000
O O12 0.670856 0.770538 0.082336
O O13 0.534654 0.741558 0.104014
O O14 0.032551 0.750000 0.250000
#
# Coordination Sequence:
#
# PCOD9326893 Si02
#       6
#    16  16  16  16   8  16
#     4  10  22  38  63  91 125 166 208 258 312 374
#     4  10  21  38  62  90 121 159 206 260 310 363
#     4  10  20  36  61  94 121 156 210 259 303 362
#     4  10  22  39  58  85 124 163 202 255 315 376
#     4  10  23  42  60  86 125 170 206 250 321 390
#     4  10  21  37  60  91 120 155 208 265 309 361
#
# _framework density 23.738934
#
# number of rings (size 3 to 8) (size 9 to 14) (size 15 to 20)
#    0.000    2.000    1.818    0.818    1.273    5.818 
#    3.273    2.727    0.000    1.091    0.000    0.000 
#    0.000    0.000    0.000    0.000    0.000    0.000 
#
# Total GULP energy -122606.887188 kJ/mol
# GULP energy per Si atom -5573.040327 kJ/mol
# Density = 2.368490 g / cm^3
# Si number density = 23.738934 Si / 1000 Ang^3
#
#
#
# Elastic Constant Matrix: (Units=GPa)
#
#
# Indices 1 2 3 4 5 6 
#
# 1 206.5459 66.7598 19.4363 0.0000 0.0000 0.0000
# 2 66.7598 146.8204 36.8999 0.0000 0.0000 0.0000
# 3 19.4363 36.8999 83.9369 0.0000 0.0000 0.0000
# 4 0.0000 0.0000 0.0000 -139.6234 0.0000 0.0000
# 5 0.0000 0.0000 0.0000 0.0000 -16.3694 0.0000
# 6 0.0000 0.0000 0.0000 0.0000 0.0000 38.8103
#
#
#
# Elastic Compliance Matrix: (Units=1/GPa)
#
#
# Indices 1 2 3 4 5 6 
#
# 1 0.005679 -0.002531 -0.000202 0.000000 0.000000 0.000000
# 2 -0.002531 0.008785 -0.003276 0.000000 0.000000 0.000000
# 3 -0.000202 -0.003276 0.013401 0.000000 0.000000 0.000000
# 4 0.000000 0.000000 0.000000 -0.007162 0.000000 0.000000
# 5 0.000000 0.000000 0.000000 0.000000 -0.061089 0.000000
# 6 0.000000 0.000000 0.000000 0.000000 0.000000 0.025766
#
#
# Mechanical properties :
#
#
# Convention : Reuss Voigt Hill
#
# Bulk Modulus (GPa) = 63.10817 75.94392 69.52605
# Shear Modulus (GPa) = 1865.20761 -2.48938 931.35911
#
# Velocity S-wave (km/s) = 28.06105 -1.02515 19.82891
# Velocity P-wave (km/s) = 32.81065 5.53710 23.52868
#
# Compressibility (1/GPa) = 0.01584581
#
# Stress axis : x y z
#
# Youngs Moduli (GPa) = 176.09532 113.82501 74.62283
#
# Poissons Ratio (x) = 0.28813 0.01508
# Poissons Ratio (y) = 0.44576 0.24447
# Poissons Ratio (z) = 0.03560 0.37290
#
# Static dielectric constant tensor:
#      x y z
#    x 2.113800 0.000000 0.000000 
#    y 0.000000 1.875140 0.000000 
#    z 0.000000 0.000000 1.173170 
# 
# From -- ./inp_files/21380.got.cif
#   From: 2010.05.17/outbox.cif.g08.bks.cpg/sg22_11_cif.got.tgz:21380.got - 2010.06.03 23:40:54.
