data_PCOD9326654
_publ_section_title
;
Structure prediction by ZEFSAII (Michael W. Deem and Ramdas Pophale) SiO2 
 PCOD9326654
Probable space group: F 2 2 2
;
_chemical_formula_sum "Si O2"
_cell_formula_units_Z 80
_cell_length_a 12.610003
_cell_length_b 20.921104
_cell_length_c 14.740573
_cell_angle_alpha 90.000000
_cell_angle_beta 90.000000
_cell_angle_gamma 90.000000
_cell_volume 3888.786981
_symmetry_space_group_name_H-M "F 2 2 2"
_symmetry_group_IT_number 22
_symmetry_cell_setting 'orthorhombic'
loop_
_space_group_symop_operation_xyz
x,y,z
-x,-y,z
x,-y,-z
-x,y,-z
x,1/2+y,1/2+z
-x,1/2-y,1/2+z
x,1/2-y,1/2-z
-x,1/2+y,1/2-z
1/2+x,y,1/2+z
1/2-x,-y,1/2+z
1/2+x,-y,1/2-z
1/2-x,y,1/2-z
1/2+x,1/2+y,z
1/2-x,1/2-y,z
1/2+x,1/2-y,-z
1/2-x,1/2+y,-z
loop_
_atom_site_type_symbol
_atom_site_label
_atom_site_fract_x
_atom_site_fract_y
_atom_site_fract_z
Si Si1 0.064346 0.609676 0.693407
Si Si2 0.578481 0.058877 0.157777
Si Si3 0.000000 0.133621 0.000000
Si Si4 0.000000 0.151589 0.500000
Si Si5 0.750000 0.012994 0.750000
Si Si6 0.980431 0.250000 0.750000
Si Si7 0.372224 0.748292 0.074234
O O1 0.156283 0.560990 0.721440
O O2 0.081532 0.684549 0.721930
O O3 0.958379 0.590225 0.747715
O O4 0.045356 0.599465 0.587354
O O5 0.545461 0.107244 0.079020
O O6 0.500000 0.000000 0.141600
O O7 0.696757 0.031969 0.172620
O O8 0.091743 0.179677 0.961142
O O9 0.097349 0.202119 0.493444
O O10 0.055826 0.237036 0.662645
O O11 0.250000 0.750000 0.097358
#
# Coordination Sequence:
#
# PCOD9326654 Si02
#       7
#    16  16   8   8   8   8  16
#     4  10  21  43  64  93 134 167 219 268 336 380
#     4  10  22  41  64  91 130 172 219 273 322 386
#     4   9  22  40  60  92 136 170 201 276 326 386
#     4  11  21  40  61  92 135 172 210 280 326 378
#     4  10  24  43  68  99 120 182 232 264 322 398
#     4  10  19  39  66  96 136 172 199 285 332 388
#     4  10  21  36  61  99 132 169 217 257 335 408
#
# _framework density 20.571968999999999
#
# number of rings (size 3 to 8) (size 9 to 14) (size 15 to 20)
#    0.000    2.000    2.000    0.600    0.000    6.800 
#    0.000    8.500    0.000    0.000    0.000    0.000 
#    0.000    0.000    0.000    0.000    0.000    0.000 
#
# Total GULP energy -111383.507943 kJ/mol
# GULP energy per Si atom -5569.175397 kJ/mol
# Density = 2.052515 g / cm^3
# Si number density = 20.571969 Si / 1000 Ang^3
#
#
#
# Elastic Constant Matrix: (Units=GPa)
#
#
# Indices 1 2 3 4 5 6 
#
# 1 75.4334 24.6749 42.0580 0.0000 0.0000 0.0000
# 2 24.6749 76.9983 23.0680 0.0000 0.0000 0.0000
# 3 42.0580 23.0680 106.1611 0.0000 0.0000 0.0000
# 4 0.0000 0.0000 0.0000 24.6509 0.0000 0.0000
# 5 0.0000 0.0000 0.0000 0.0000 10.0693 0.0000
# 6 0.0000 0.0000 0.0000 0.0000 0.0000 9.9534
#
#
#
# Elastic Compliance Matrix: (Units=1/GPa)
#
#
# Indices 1 2 3 4 5 6 
#
# 1 0.018045 -0.003894 -0.006303 0.000000 0.000000 0.000000
# 2 -0.003894 0.014732 -0.001658 0.000000 0.000000 0.000000
# 3 -0.006303 -0.001658 0.012277 0.000000 0.000000 0.000000
# 4 0.000000 0.000000 0.000000 0.040566 0.000000 0.000000
# 5 0.000000 0.000000 0.000000 0.000000 0.099311 0.000000
# 6 0.000000 0.000000 0.000000 0.000000 0.000000 0.100468
#
#
# Mechanical properties :
#
#
# Convention : Reuss Voigt Hill
#
# Bulk Modulus (GPa) = 46.85361 48.68830 47.77095
# Shear Modulus (GPa) = 15.81156 20.18752 17.99954
#
# Velocity S-wave (km/s) = 2.77537 3.13599 2.96117
# Velocity P-wave (km/s) = 5.75284 6.06888 5.91297
#
# Compressibility (1/GPa) = 0.02134307
#
# Stress axis : x y z
#
# Youngs Moduli (GPa) = 55.41819 67.87890 81.45388
#
# Poissons Ratio (x) = 0.26435 0.51337
# Poissons Ratio (y) = 0.21582 0.13508
# Poissons Ratio (z) = 0.34928 0.11257
#
# Static dielectric constant tensor:
#      x y z
#    x 1.721200 0.000000 0.000000 
#    y 0.000000 1.809170 0.000000 
#    z 0.000000 0.000000 1.822820 
# 
# From -- ./inp_files/28171.got.cif
#   From: 2010.05.17/outbox.cif.g08.bks.cpg/sg22_15_cif.got.tgz:28171.got - 2010.06.03 23:40:54.
