data_PCOD9326087
_publ_section_title
;
Structure prediction by ZEFSAII (Michael W. Deem and Ramdas Pophale) SiO2 
 PCOD9326087
Probable space group: F 2 2 2
;
_chemical_formula_sum "Si O2"
_cell_formula_units_Z 88
_cell_length_a 10.094316
_cell_length_b 19.701003
_cell_length_c 23.288635
_cell_angle_alpha 90.000000
_cell_angle_beta 90.000000
_cell_angle_gamma 90.000000
_cell_volume 4631.367754
_symmetry_space_group_name_H-M "F 2 2 2"
_symmetry_group_IT_number 22
_symmetry_cell_setting 'orthorhombic'
loop_
_space_group_symop_operation_xyz
x,y,z
-x,-y,z
x,-y,-z
-x,y,-z
x,1/2+y,1/2+z
-x,1/2-y,1/2+z
x,1/2-y,1/2-z
-x,1/2+y,1/2-z
1/2+x,y,1/2+z
1/2-x,-y,1/2+z
1/2+x,-y,1/2-z
1/2-x,y,1/2-z
1/2+x,1/2+y,z
1/2-x,1/2-y,z
1/2+x,1/2-y,-z
1/2-x,1/2+y,-z
loop_
_atom_site_type_symbol
_atom_site_label
_atom_site_fract_x
_atom_site_fract_y
_atom_site_fract_z
Si Si1 0.099953 0.749866 0.846210
Si Si2 0.850781 0.305644 0.082908
Si Si3 0.000000 0.000000 0.405548
Si Si4 0.820053 0.092223 0.324506
Si Si5 0.000000 0.902549 0.500000
Si Si6 0.250000 0.477810 0.250000
Si Si7 0.455488 0.641756 0.751943
O O1 0.250000 0.750000 0.870198
O O2 0.102519 0.692565 0.796189
O O3 0.061186 0.819299 0.812298
O O4 0.984182 0.727144 0.889573
O O5 0.750000 0.250000 0.060916
O O6 0.776638 0.347046 0.134241
O O7 0.895957 0.356453 0.033376
O O8 0.076085 0.948719 0.364451
O O9 0.930301 0.949414 0.451281
O O10 0.896894 0.125923 0.270539
O O11 0.732839 0.029722 0.302805
O O12 0.374817 0.428047 0.251941
#
# Coordination Sequence:
#
# PCOD9326087 Si02
#       7
#    16  16   8  16   8   8  16
#     4  10  19  34  56  77 111 155 195 228 271 329
#     4  10  23  40  56  84 113 141 191 245 291 338
#     4   9  16  36  56  82 104 140 190 249 266 330
#     4  10  21  32  51  83 117 150 186 225 284 333
#     4   9  20  36  62  76 104 143 196 242 290 317
#     4  12  18  29  51  76 118 154 188 226 262 346
#     4  10  18  32  49  77 114 157 198 221 258 339
#
# _framework density 19.000867
#
# number of rings (size 3 to 8) (size 9 to 14) (size 15 to 20)
#    0.000    2.000    3.636    0.545    2.545    0.727 
#    0.000    0.000    0.000    0.000    0.000    0.000 
#    0.000    0.000    0.000    0.000    0.000    0.000 
#
# Total GULP energy -122486.195788 kJ/mol
# GULP energy per Si atom -5567.554354 kJ/mol
# Density = 1.895762 g / cm^3
# Si number density = 19.000867 Si / 1000 Ang^3
#
#
#
# Elastic Constant Matrix: (Units=GPa)
#
#
# Indices 1 2 3 4 5 6 
#
# 1 46.0990 20.6529 12.4261 0.0000 0.0000 0.0000
# 2 20.6529 91.6769 20.9720 0.0000 0.0000 0.0000
# 3 12.4261 20.9720 53.4053 0.0000 0.0000 0.0000
# 4 0.0000 0.0000 0.0000 21.1399 0.0000 0.0000
# 5 0.0000 0.0000 0.0000 0.0000 12.0991 0.0000
# 6 0.0000 0.0000 0.0000 0.0000 0.0000 19.8991
#
#
#
# Elastic Compliance Matrix: (Units=1/GPa)
#
#
# Indices 1 2 3 4 5 6 
#
# 1 0.024859 -0.004699 -0.003939 0.000000 0.000000 0.000000
# 2 -0.004699 0.012873 -0.003962 0.000000 0.000000 0.000000
# 3 -0.003939 -0.003962 0.021197 0.000000 0.000000 0.000000
# 4 0.000000 0.000000 0.000000 0.047304 0.000000 0.000000
# 5 0.000000 0.000000 0.000000 0.000000 0.082651 0.000000
# 6 0.000000 0.000000 0.000000 0.000000 0.000000 0.050254
#
#
# Mechanical properties :
#
#
# Convention : Reuss Voigt Hill
#
# Bulk Modulus (GPa) = 29.64748 33.25369 31.45059
# Shear Modulus (GPa) = 18.14356 19.76964 18.95660
#
# Velocity S-wave (km/s) = 3.09347 3.22912 3.16202
# Velocity P-wave (km/s) = 5.32883 5.60732 5.46985
#
# Compressibility (1/GPa) = 0.03372968
#
# Stress axis : x y z
#
# Youngs Moduli (GPa) = 40.22611 77.68319 47.17660
#
# Poissons Ratio (x) = 0.36506 0.18582
# Poissons Ratio (y) = 0.18903 0.18690
# Poissons Ratio (z) = 0.15844 0.30776
#
# Static dielectric constant tensor:
#      x y z
#    x 1.699330 0.000000 0.000000 
#    y 0.000000 1.686270 0.000000 
#    z 0.000000 0.000000 1.690070 
# 
# From -- ./inp_files/42668.got.cif
#   From: 2010.05.17/outbox.cif.g08.bks.cpg/sg22_22_cif.got.tgz:42668.got - 2010.06.03 23:40:54.
