data_PCOD9326362
_publ_section_title
;
Structure prediction by ZEFSAII (Michael W. Deem and Ramdas Pophale) SiO2 
 PCOD9326362
Probable space group: F 2 2 2
;
_chemical_formula_sum "Si O2"
_cell_formula_units_Z 96
_cell_length_a 6.954379
_cell_length_b 24.130027
_cell_length_c 25.281014
_cell_angle_alpha 90.000000
_cell_angle_beta 90.000000
_cell_angle_gamma 90.000000
_cell_volume 4242.390603
_symmetry_space_group_name_H-M "F 2 2 2"
_symmetry_group_IT_number 22
_symmetry_cell_setting 'orthorhombic'
loop_
_space_group_symop_operation_xyz
x,y,z
-x,-y,z
x,-y,-z
-x,y,-z
x,1/2+y,1/2+z
-x,1/2-y,1/2+z
x,1/2-y,1/2-z
-x,1/2+y,1/2-z
1/2+x,y,1/2+z
1/2-x,-y,1/2+z
1/2+x,-y,1/2-z
1/2-x,y,1/2-z
1/2+x,1/2+y,z
1/2-x,1/2-y,z
1/2+x,1/2-y,-z
1/2-x,1/2+y,-z
loop_
_atom_site_type_symbol
_atom_site_label
_atom_site_fract_x
_atom_site_fract_y
_atom_site_fract_z
Si Si1 0.587120 0.124773 0.348385
Si Si2 0.518352 0.814637 0.244250
Si Si3 0.496852 0.704605 0.936810
Si Si4 0.274433 0.985456 0.311783
Si Si5 0.447212 0.327167 0.438825
Si Si6 0.874879 0.898599 0.346774
O O1 0.593475 0.157183 0.292833
O O2 0.614982 0.162620 0.400120
O O3 0.723941 0.071135 0.345440
O O4 0.357437 0.111341 0.349254
O O5 0.463516 0.750000 0.250000
O O6 0.750000 0.813360 0.250000
O O7 0.519623 0.854952 0.192814
O O8 0.546531 0.768449 0.924439
O O9 0.272991 0.691189 0.927879
O O10 0.500000 0.697335 0.000000
O O11 0.250000 0.972639 0.250000
O O12 0.500000 0.000000 0.317257
O O13 0.139643 0.037974 0.326532
O O14 0.500000 0.337170 0.500000
O O15 0.459332 0.382010 0.403699
#
# Coordination Sequence:
#
# PCOD9326362 Si02
#       6
#    16  16  16  16  16  16
#     4   9  17  29  48  73 102 138 176 211 253 310
#     4   9  15  25  46  77 107 132 167 216 260 301
#     4   9  17  31  50  75 106 137 169 210 264 317
#     4  10  19  33  52  75 105 142 181 217 256 307
#     4   9  17  30  51  77 104 134 171 215 261 312
#     4   9  16  28  48  76 105 135 173 215 259 306
#
# _framework density 22.628751000000001
#
# number of rings (size 3 to 8) (size 9 to 14) (size 15 to 20)
#    0.000    2.833    0.000    3.500    0.000    4.000 
#    0.000    3.333    0.000   15.000    0.000   10.500 
#    0.000    0.000    0.000    0.000    0.000    0.000 
#
# Total GULP energy -133707.367263 kJ/mol
# GULP energy per Si atom -5571.140303 kJ/mol
# Density = 2.257725 g / cm^3
# Si number density = 22.628751 Si / 1000 Ang^3
#
#
#
# Elastic Constant Matrix: (Units=GPa)
#
#
# Indices 1 2 3 4 5 6 
#
# 1 80.4458 53.1708 25.3486 0.0000 0.0000 0.0000
# 2 53.1708 177.6907 107.8884 0.0000 0.0000 0.0000
# 3 25.3486 107.8884 114.5320 0.0000 0.0000 0.0000
# 4 0.0000 0.0000 0.0000 40.5428 0.0000 0.0000
# 5 0.0000 0.0000 0.0000 0.0000 33.9547 0.0000
# 6 0.0000 0.0000 0.0000 0.0000 0.0000 44.2908
#
#
#
# Elastic Compliance Matrix: (Units=1/GPa)
#
#
# Indices 1 2 3 4 5 6 
#
# 1 0.015735 -0.006060 0.002226 0.000000 0.000000 0.000000
# 2 -0.006060 0.015481 -0.013242 0.000000 0.000000 0.000000
# 3 0.002226 -0.013242 0.020712 0.000000 0.000000 0.000000
# 4 0.000000 0.000000 0.000000 0.024665 0.000000 0.000000
# 5 0.000000 0.000000 0.000000 0.000000 0.029451 0.000000
# 6 0.000000 0.000000 0.000000 0.000000 0.000000 0.022578
#
#
# Mechanical properties :
#
#
# Convention : Reuss Voigt Hill
#
# Bulk Modulus (GPa) = 56.25465 82.83156 69.54311
# Shear Modulus (GPa) = 29.63848 36.17506 32.90677
#
# Velocity S-wave (km/s) = 3.62300 4.00263 3.81754
# Velocity P-wave (km/s) = 6.51270 7.61875 7.08734
#
# Compressibility (1/GPa) = 0.01777631
#
# Stress axis : x y z
#
# Youngs Moduli (GPa) = 63.55434 64.59473 48.28025
#
# Poissons Ratio (x) = 0.39143 -0.10746
# Poissons Ratio (y) = 0.38512 0.63933
# Poissons Ratio (z) = -0.14146 0.85536
#
# Static dielectric constant tensor:
#      x y z
#    x 1.960870 0.000000 0.000000 
#    y 0.000000 1.884080 0.000000 
#    z 0.000000 0.000000 1.842980 
# 
# From -- ./inp_files/47393.got.cif
#   From: 2010.05.17/outbox.cif.g08.bks.cpg/sg22_24_cif.got.tgz:47393.got - 2010.06.03 23:40:54.
