data_PCOD9326438
_publ_section_title
;
Structure prediction by ZEFSAII (Michael W. Deem and Ramdas Pophale) SiO2 
 PCOD9326438
Probable space group: F 2 2 2
;
_chemical_formula_sum "Si O2"
_cell_formula_units_Z 52
_cell_length_a 6.672555
_cell_length_b 21.384096
_cell_length_c 14.190476
_cell_angle_alpha 90.000000
_cell_angle_beta 90.000000
_cell_angle_gamma 90.000000
_cell_volume 2024.790158
_symmetry_space_group_name_H-M "F 2 2 2"
_symmetry_group_IT_number 22
_symmetry_cell_setting 'orthorhombic'
loop_
_space_group_symop_operation_xyz
x,y,z
-x,-y,z
x,-y,-z
-x,y,-z
x,1/2+y,1/2+z
-x,1/2-y,1/2+z
x,1/2-y,1/2-z
-x,1/2+y,1/2-z
1/2+x,y,1/2+z
1/2-x,-y,1/2+z
1/2+x,-y,1/2-z
1/2-x,y,1/2-z
1/2+x,1/2+y,z
1/2-x,1/2-y,z
1/2+x,1/2-y,-z
1/2-x,1/2+y,-z
loop_
_atom_site_type_symbol
_atom_site_label
_atom_site_fract_x
_atom_site_fract_y
_atom_site_fract_z
Si Si1 0.750000 0.750000 0.750000
Si Si2 0.997392 0.174018 0.599647
Si Si3 0.288245 0.558830 0.055149
Si Si4 0.250000 0.117102 0.250000
Si Si5 0.500000 0.500000 0.225040
O O1 0.888906 0.790975 0.682935
O O2 0.143756 0.116693 0.568686
O O3 0.000000 0.211168 0.500000
O O4 0.785954 0.155666 0.652587
O O5 0.329203 0.526071 0.154634
O O6 0.202443 0.500000 0.000000
O O7 0.500000 0.573854 0.000000
O O8 0.428345 0.066954 0.237637
#
# Coordination Sequence:
#
# PCOD9326438 Si02
#       5
#     4  16  16   8   8
#     4  12  32  52  72 102 140 204 276 322 364 432
#     4  12  27  48  74 104 146 198 259 323 382 452
#     4   9  19  38  69 108 148 192 240 305 398 478
#     4  12  24  40  70 110 152 200 250 312 396 472
#     4  10  19  34  61 104 156 188 230 304 380 478
#
# _framework density 25.681674000000001
#
# number of rings (size 3 to 8) (size 9 to 14) (size 15 to 20)
#    0.000    1.538    0.000    7.385    0.000    7.385 
#    0.000    0.000    0.000    0.000    0.000    0.000 
#    0.000    0.000    0.000    0.000    0.000    0.000 
#
# Total GULP energy -72447.036564 kJ/mol
# GULP energy per Si atom -5572.848966 kJ/mol
# Density = 2.562322 g / cm^3
# Si number density = 25.681674 Si / 1000 Ang^3
#
#
#
# Elastic Constant Matrix: (Units=GPa)
#
#
# Indices 1 2 3 4 5 6 
#
# 1 92.8327 28.7597 41.4732 0.0000 0.0000 0.0000
# 2 28.7597 58.2353 28.3225 0.0000 0.0000 0.0000
# 3 41.4732 28.3225 181.0777 0.0000 0.0000 0.0000
# 4 0.0000 0.0000 0.0000 47.4796 0.0000 0.0000
# 5 0.0000 0.0000 0.0000 0.0000 32.3150 0.0000
# 6 0.0000 0.0000 0.0000 0.0000 0.0000 38.1044
#
#
#
# Elastic Compliance Matrix: (Units=1/GPa)
#
#
# Indices 1 2 3 4 5 6 
#
# 1 0.013493 -0.005585 -0.002217 0.000000 0.000000 0.000000
# 2 -0.005585 0.020898 -0.001989 0.000000 0.000000 0.000000
# 3 -0.002217 -0.001989 0.006341 0.000000 0.000000 0.000000
# 4 0.000000 0.000000 0.000000 0.021062 0.000000 0.000000
# 5 0.000000 0.000000 0.000000 0.000000 0.030945 0.000000
# 6 0.000000 0.000000 0.000000 0.000000 0.000000 0.026244
#
#
# Mechanical properties :
#
#
# Convention : Reuss Voigt Hill
#
# Bulk Modulus (GPa) = 47.28392 58.80629 53.04511
# Shear Modulus (GPa) = 34.33716 39.15249 36.74482
#
# Velocity S-wave (km/s) = 3.66051 3.90876 3.78667
# Velocity P-wave (km/s) = 6.02638 6.58172 6.31016
#
# Compressibility (1/GPa) = 0.02114884
#
# Stress axis : x y z
#
# Youngs Moduli (GPa) = 74.11399 47.85240 157.69511
#
# Poissons Ratio (x) = 0.26727 0.34956
# Poissons Ratio (y) = 0.41395 0.31371
# Poissons Ratio (z) = 0.16429 0.09520
#
# Static dielectric constant tensor:
#      x y z
#    x 2.320530 0.000000 0.000000 
#    y 0.000000 2.005410 0.000000 
#    z 0.000000 0.000000 2.224170 
# 
# From -- ./inp_files/12070.got.cif
#   From: 2010.05.17/outbox.cif.g08.bks.cpg/sg22_7_cif.got.tgz:12070.got - 2010.06.03 23:40:54.
