data_PCOD9326066
_publ_section_title
;
Structure prediction by ZEFSAII (Michael W. Deem and Ramdas Pophale) SiO2 
 PCOD9326066
Probable space group: F 2 2 2
;
_chemical_formula_sum "Si O2"
_cell_formula_units_Z 100
_cell_length_a 19.126722
_cell_length_b 19.855695
_cell_length_c 14.985949
_cell_angle_alpha 90.000000
_cell_angle_beta 90.000000
_cell_angle_gamma 90.000000
_cell_volume 5691.279166
_symmetry_space_group_name_H-M "F 2 2 2"
_symmetry_group_IT_number 22
_symmetry_cell_setting 'orthorhombic'
loop_
_space_group_symop_operation_xyz
x,y,z
-x,-y,z
x,-y,-z
-x,y,-z
x,1/2+y,1/2+z
-x,1/2-y,1/2+z
x,1/2-y,1/2-z
-x,1/2+y,1/2-z
1/2+x,y,1/2+z
1/2-x,-y,1/2+z
1/2+x,-y,1/2-z
1/2-x,y,1/2-z
1/2+x,1/2+y,z
1/2-x,1/2-y,z
1/2+x,1/2-y,-z
1/2-x,1/2+y,-z
loop_
_atom_site_type_symbol
_atom_site_label
_atom_site_fract_x
_atom_site_fract_y
_atom_site_fract_z
Si Si1 0.187174 0.839752 0.407824
Si Si2 0.250000 0.250000 0.250000
Si Si3 0.155381 0.318793 0.560306
Si Si4 0.553276 0.348362 0.692456
Si Si5 0.578371 0.922020 0.024834
Si Si6 0.599253 0.830950 0.746091
Si Si7 0.119439 0.796316 0.860767
O O1 0.169377 0.760974 0.423572
O O2 0.267792 0.851122 0.431021
O O3 0.136758 0.882001 0.471184
O O4 0.165659 0.852689 0.305203
O O5 0.196670 0.212726 0.182640
O O6 0.108562 0.346333 0.641667
O O7 0.123904 0.321363 0.461496
O O8 0.584342 0.405524 0.629402
O O9 0.470260 0.355386 0.703904
O O10 0.578869 0.276130 0.649741
O O11 0.581325 0.346030 0.792866
O O12 0.500000 0.897386 0.000000
O O13 0.582447 0.000000 0.000000
O O14 0.594145 0.750000 0.750000
#
# Coordination Sequence:
#
# PCOD9326066 Si02
#       7
#    16   4  16  16  16  16  16
#     4  10  19  33  52  78 116 140 188 234 277 349
#     4   8  16  28  44  72 114 144 178 204 276 346
#     4  10  20  30  53  81 110 156 173 217 306 359
#     4  10  19  33  49  79 112 143 180 236 282 333
#     4  11  22  36  58  82 106 149 197 240 281 322
#     4  10  18  31  48  77 113 147 178 223 284 344
#     4  10  19  30  51  80 116 149 174 222 301 354
#
# _framework density 17.570741999999999
#
# number of rings (size 3 to 8) (size 9 to 14) (size 15 to 20)
#    0.000    2.080    4.800    1.440    2.240    2.560 
#    0.000    0.000    0.000    3.840    0.000    0.000 
#    0.000    0.000    0.000    0.000    0.000    0.000 
#
# Total GULP energy -139267.850770 kJ/mol
# GULP energy per Si atom -5570.714031 kJ/mol
# Density = 1.753075 g / cm^3
# Si number density = 17.570742 Si / 1000 Ang^3
#
#
#
# Elastic Constant Matrix: (Units=GPa)
#
#
# Indices 1 2 3 4 5 6 
#
# 1 78.6810 25.1342 36.3960 0.0000 0.0000 0.0000
# 2 25.1342 33.6850 28.1155 0.0000 0.0000 0.0000
# 3 36.3960 28.1155 170.4859 0.0000 0.0000 0.0000
# 4 0.0000 0.0000 0.0000 17.0758 0.0000 0.0000
# 5 0.0000 0.0000 0.0000 0.0000 24.8988 0.0000
# 6 0.0000 0.0000 0.0000 0.0000 0.0000 13.0975
#
#
#
# Elastic Compliance Matrix: (Units=1/GPa)
#
#
# Indices 1 2 3 4 5 6 
#
# 1 0.017150 -0.011295 -0.001798 0.000000 0.000000 0.000000
# 2 -0.011295 0.041865 -0.004493 0.000000 0.000000 0.000000
# 3 -0.001798 -0.004493 0.006990 0.000000 0.000000 0.000000
# 4 0.000000 0.000000 0.000000 0.058563 0.000000 0.000000
# 5 0.000000 0.000000 0.000000 0.000000 0.040163 0.000000
# 6 0.000000 0.000000 0.000000 0.000000 0.000000 0.076350
#
#
# Mechanical properties :
#
#
# Convention : Reuss Voigt Hill
#
# Bulk Modulus (GPa) = 32.43378 51.34925 41.89151
# Shear Modulus (GPa) = 17.45017 23.89483 20.67250
#
# Velocity S-wave (km/s) = 3.15483 3.69171 3.43378
# Velocity P-wave (km/s) = 5.63646 6.88908 6.29401
#
# Compressibility (1/GPa) = 0.03083205
#
# Stress axis : x y z
#
# Youngs Moduli (GPa) = 58.31022 23.88647 143.05250
#
# Poissons Ratio (x) = 0.26980 0.25727
# Poissons Ratio (y) = 0.65863 0.64270
# Poissons Ratio (z) = 0.10487 0.10732
#
# Static dielectric constant tensor:
#      x y z
#    x 1.645810 0.000000 0.000000 
#    y 0.000000 1.572180 0.000000 
#    z 0.000000 0.000000 1.634770 
# 
# From -- ./inp_files/30799.got.cif
#   From: 2010.05.17/outbox.cif.g08.bks.cpg/sg22_16_cif.got.tgz:30799.got - 2010.06.03 23:40:54.
