data_PCOD9326761
_publ_section_title
;
Structure prediction by ZEFSAII (Michael W. Deem and Ramdas Pophale) SiO2 
 PCOD9326761
Probable space group: F 2 2 2
;
_chemical_formula_sum "Si O2"
_cell_formula_units_Z 104
_cell_length_a 21.417382
_cell_length_b 8.860704
_cell_length_c 28.195543
_cell_angle_alpha 90.000000
_cell_angle_beta 90.000000
_cell_angle_gamma 90.000000
_cell_volume 5350.755104
_symmetry_space_group_name_H-M "F 2 2 2"
_symmetry_group_IT_number 22
_symmetry_cell_setting 'orthorhombic'
loop_
_space_group_symop_operation_xyz
x,y,z
-x,-y,z
x,-y,-z
-x,y,-z
x,1/2+y,1/2+z
-x,1/2-y,1/2+z
x,1/2-y,1/2-z
-x,1/2+y,1/2-z
1/2+x,y,1/2+z
1/2-x,-y,1/2+z
1/2+x,-y,1/2-z
1/2-x,y,1/2-z
1/2+x,1/2+y,z
1/2-x,1/2-y,z
1/2+x,1/2-y,-z
1/2-x,1/2+y,-z
loop_
_atom_site_type_symbol
_atom_site_label
_atom_site_fract_x
_atom_site_fract_y
_atom_site_fract_z
Si Si1 0.196445 0.991373 0.712462
Si Si2 0.331620 0.500000 0.500000
Si Si3 0.340919 0.789763 0.134310
Si Si4 0.750000 0.250000 0.053537
Si Si5 0.926863 0.460258 0.915355
Si Si6 0.406070 0.784473 0.825655
Si Si7 0.602363 0.061232 0.292994
Si Si8 0.500000 0.000000 0.767275
O O1 0.250000 0.951349 0.750000
O O2 0.204342 0.108338 0.668614
O O3 0.148710 0.069119 0.748646
O O4 0.161988 0.848901 0.689181
O O5 0.284710 0.375474 0.522005
O O6 0.380103 0.440827 0.459879
O O7 0.304905 0.710411 0.091032
O O8 0.393593 0.903544 0.113964
O O9 0.374310 0.666903 0.166045
O O10 0.921308 0.316489 0.880527
O O11 0.000000 0.500000 0.925561
O O12 0.404902 0.611288 0.810579
O O13 0.454487 0.895396 0.798255
O O14 0.537811 0.102860 0.269274
#
# Coordination Sequence:
#
# PCOD9326761 Si02
#       8
#    16   8  16   8  16  16  16   8
#     4  10  20  36  54  78 119 167 212 243 288 357
#     4  10  23  42  70  96 109 164 192 270 330 392
#     4  10  22  37  58  88 118 165 193 257 306 362
#     4  10  22  44  65  90 124 142 205 244 328 388
#     4  10  21  40  65  86 122 152 211 251 319 390
#     4  10  22  36  56  85 117 164 201 259 297 350
#     4  11  23  33  55  86 121 161 209 241 299 343
#     4  10  20  34  52  79 122 161 204 236 284 346
#
# _framework density 19.436509000000001
#
# number of rings (size 3 to 8) (size 9 to 14) (size 15 to 20)
#    0.000    1.846    0.769    3.462    2.154    6.769 
#    0.000    0.000    0.000    0.000    0.000    2.154 
#    0.000    0.000    0.000    0.000    0.000    0.000 
#
# Total GULP energy -144919.560757 kJ/mol
# GULP energy per Si atom -5573.829260 kJ/mol
# Density = 1.939227 g / cm^3
# Si number density = 19.436509 Si / 1000 Ang^3
#
#
#
# Elastic Constant Matrix: (Units=GPa)
#
#
# Indices 1 2 3 4 5 6 
#
# 1 92.9024 25.5064 45.6415 0.0000 0.0000 0.0000
# 2 25.5064 100.0664 51.9895 0.0000 0.0000 -0.0001
# 3 45.6415 51.9895 135.7726 0.0000 0.0000 0.0000
# 4 0.0000 0.0000 0.0000 31.2390 0.0000 0.0000
# 5 0.0000 0.0000 0.0000 0.0000 34.8669 0.0000
# 6 0.0000 -0.0001 0.0000 0.0000 0.0000 18.9924
#
#
#
# Elastic Compliance Matrix: (Units=1/GPa)
#
#
# Indices 1 2 3 4 5 6 
#
# 1 0.013028 -0.001305 -0.003880 0.000000 0.000000 0.000000
# 2 -0.001305 0.012606 -0.004388 0.000000 0.000000 0.000000
# 3 -0.003880 -0.004388 0.010350 0.000000 0.000000 0.000000
# 4 0.000000 0.000000 0.000000 0.032011 0.000000 0.000000
# 5 0.000000 0.000000 0.000000 0.000000 0.028681 0.000000
# 6 0.000000 0.000000 0.000000 0.000000 0.000000 0.052653
#
#
# Mechanical properties :
#
#
# Convention : Reuss Voigt Hill
#
# Bulk Modulus (GPa) = 59.39056 63.89067 61.64062
# Shear Modulus (GPa) = 28.72111 30.72659 29.72385
#
# Velocity S-wave (km/s) = 3.84824 3.98033 3.91484
# Velocity P-wave (km/s) = 7.09703 7.35302 7.22616
#
# Compressibility (1/GPa) = 0.01683769
#
# Stress axis : x y z
#
# Youngs Moduli (GPa) = 76.75514 79.32750 96.61932
#
# Poissons Ratio (x) = 0.10353 0.37488
# Poissons Ratio (y) = 0.10017 0.42400
# Poissons Ratio (z) = 0.29780 0.34811
#
# Static dielectric constant tensor:
#      x y z
#    x 1.863340 0.000000 0.000000 
#    y 0.000000 1.694440 0.000000 
#    z 0.000000 0.000000 1.692630 
# 
# From -- ./inp_files/46051.got.cif
#   From: 2010.05.17/outbox.cif.g08.bks.cpg/sg22_24_cif.got.tgz:46051.got - 2010.06.03 23:40:54.
