data_PCOD9326812
_publ_section_title
;
Structure prediction by ZEFSAII (Michael W. Deem and Ramdas Pophale) SiO2 
 PCOD9326812
Probable space group: F 2 2 2
;
_chemical_formula_sum "Si O2"
_cell_formula_units_Z 116
_cell_length_a 12.834195
_cell_length_b 15.177461
_cell_length_c 30.953797
_cell_angle_alpha 90.000000
_cell_angle_beta 90.000000
_cell_angle_gamma 90.000000
_cell_volume 6029.505411
_symmetry_space_group_name_H-M "F 2 2 2"
_symmetry_group_IT_number 22
_symmetry_cell_setting 'orthorhombic'
loop_
_space_group_symop_operation_xyz
x,y,z
-x,-y,z
x,-y,-z
-x,y,-z
x,1/2+y,1/2+z
-x,1/2-y,1/2+z
x,1/2-y,1/2-z
-x,1/2+y,1/2-z
1/2+x,y,1/2+z
1/2-x,-y,1/2+z
1/2+x,-y,1/2-z
1/2-x,y,1/2-z
1/2+x,1/2+y,z
1/2-x,1/2-y,z
1/2+x,1/2-y,-z
1/2-x,1/2+y,-z
loop_
_atom_site_type_symbol
_atom_site_label
_atom_site_fract_x
_atom_site_fract_y
_atom_site_fract_z
Si Si1 0.564073 0.089622 0.645234
Si Si2 0.230111 0.344667 0.588637
Si Si3 0.750000 0.750000 0.750000
Si Si4 0.613819 0.396821 0.007817
Si Si5 0.225804 0.851703 0.923030
Si Si6 0.627950 0.179678 0.318405
Si Si7 0.625221 0.501258 0.618549
Si Si8 0.737221 0.499254 0.201580
O O1 0.619493 0.123941 0.602389
O O2 0.490796 0.157966 0.670587
O O3 0.500000 0.000000 0.636049
O O4 0.655818 0.059800 0.676676
O O5 0.250000 0.250000 0.567890
O O6 0.148432 0.389012 0.557094
O O7 0.179441 0.323382 0.634639
O O8 0.326081 0.410305 0.596865
O O9 0.659862 0.739125 0.711616
O O10 0.606789 0.500000 0.000000
O O11 0.500000 0.355513 0.000000
O O12 0.699408 0.362548 0.973662
O O13 0.250000 0.750000 0.913589
O O14 0.315423 0.918924 0.905248
O O15 0.682457 0.097018 0.293904
O O16 0.500000 0.500000 0.615455
O O17 0.664903 0.504149 0.668710
O O18 0.750000 0.531877 0.250000
#
# Coordination Sequence:
#
# PCOD9326812 Si02
#       8
#    16  16   4  16  16  16  16  16
#     4   9  20  37  63  84 115 162 202 257 311 364
#     4  11  22  41  61  88 125 160 202 257 314 367
#     4  12  20  36  52  92 130 152 198 252 308 376
#     4  11  23  38  67  93 118 159 209 259 307 371
#     4  11  23  43  62  91 125 160 209 262 309 375
#     4  10  20  35  57  86 121 154 198 254 305 363
#     4  10  23  40  60  88 125 166 203 253 318 375
#     4   9  18  36  56  84 117 152 205 254 301 370
#
# _framework density 19.238726
#
# number of rings (size 3 to 8) (size 9 to 14) (size 15 to 20)
#    0.000    1.793    2.759    2.069    1.931    3.862 
#    0.000    2.759    0.000    3.724    0.000    0.000 
#    0.000    0.000    0.000    0.000    0.000    0.000 
#
# Total GULP energy -161436.717758 kJ/mol
# GULP energy per Si atom -5566.783371 kJ/mol
# Density = 1.919494 g / cm^3
# Si number density = 19.238726 Si / 1000 Ang^3
#
#
#
# Elastic Constant Matrix: (Units=GPa)
#
#
# Indices 1 2 3 4 5 6 
#
# 1 133.3609 27.1573 42.6453 0.0000 0.0000 0.0000
# 2 27.1573 66.6771 13.0852 0.0000 0.0000 0.0000
# 3 42.6453 13.0852 115.9511 0.0000 0.0000 0.0000
# 4 0.0000 0.0000 0.0000 112.6922 0.0000 0.0000
# 5 0.0000 0.0000 0.0000 0.0000 24.2545 0.0000
# 6 0.0000 0.0000 0.0000 0.0000 0.0000 11.6189
#
#
#
# Elastic Compliance Matrix: (Units=1/GPa)
#
#
# Indices 1 2 3 4 5 6 
#
# 1 0.009089 -0.003115 -0.002991 0.000000 0.000000 0.000000
# 2 -0.003115 0.016405 -0.000706 0.000000 0.000000 0.000000
# 3 -0.002991 -0.000706 0.009804 0.000000 0.000000 0.000000
# 4 0.000000 0.000000 0.000000 0.008874 0.000000 0.000000
# 5 0.000000 0.000000 0.000000 0.000000 0.041229 0.000000
# 6 0.000000 0.000000 0.000000 0.000000 0.000000 0.086066
#
#
# Mechanical properties :
#
#
# Convention : Reuss Voigt Hill
#
# Bulk Modulus (GPa) = 46.13771 53.52942 49.83356
# Shear Modulus (GPa) = 25.99876 45.25320 35.62598
#
# Velocity S-wave (km/s) = 3.68010 4.85520 4.30791
# Velocity P-wave (km/s) = 6.48777 7.70161 7.12061
#
# Compressibility (1/GPa) = 0.02167425
#
# Stress axis : x y z
#
# Youngs Moduli (GPa) = 110.01868 60.95758 101.99745
#
# Poissons Ratio (x) = 0.18988 0.30512
# Poissons Ratio (y) = 0.34271 0.07197
# Poissons Ratio (z) = 0.32911 0.04301
#
# Static dielectric constant tensor:
#      x y z
#    x 1.714510 0.000000 0.000000 
#    y 0.000000 1.890050 0.000000 
#    z 0.000000 0.000000 1.695290 
# 
# From -- ./inp_files/56190.got.cif
#   From: 2010.05.17/outbox.cif.g08.bks.cpg/sg22_29_cif.got.tgz:56190.got - 2010.06.03 23:40:54.
