data_PCOD9326963
_publ_section_title
;
Structure prediction by ZEFSAII (Michael W. Deem and Ramdas Pophale) SiO2 
 PCOD9326963
Probable space group: F 2 2 2
;
_chemical_formula_sum "Si O2"
_cell_formula_units_Z 96
_cell_length_a 16.737201
_cell_length_b 23.444863
_cell_length_c 11.559206
_cell_angle_alpha 90.000000
_cell_angle_beta 90.000000
_cell_angle_gamma 90.000000
_cell_volume 4535.848438
_symmetry_space_group_name_H-M "F 2 2 2"
_symmetry_group_IT_number 22
_symmetry_cell_setting 'orthorhombic'
loop_
_space_group_symop_operation_xyz
x,y,z
-x,-y,z
x,-y,-z
-x,y,-z
x,1/2+y,1/2+z
-x,1/2-y,1/2+z
x,1/2-y,1/2-z
-x,1/2+y,1/2-z
1/2+x,y,1/2+z
1/2-x,-y,1/2+z
1/2+x,-y,1/2-z
1/2-x,y,1/2-z
1/2+x,1/2+y,z
1/2-x,1/2-y,z
1/2+x,1/2-y,-z
1/2-x,1/2+y,-z
loop_
_atom_site_type_symbol
_atom_site_label
_atom_site_fract_x
_atom_site_fract_y
_atom_site_fract_z
Si Si1 0.459670 0.352284 0.374159
Si Si2 0.125567 0.037295 0.298361
Si Si3 0.779299 0.928370 0.070358
Si Si4 0.333957 0.930605 0.312976
Si Si5 0.202653 0.190694 0.461904
Si Si6 0.622482 0.813417 0.787858
O O1 0.500000 0.356703 0.500000
O O2 0.439873 0.416223 0.332398
O O3 0.376732 0.317247 0.383269
O O4 0.527388 0.320708 0.301321
O O5 0.165308 0.059055 0.179202
O O6 0.193663 0.042706 0.398155
O O7 0.107415 0.972146 0.260603
O O8 0.819560 0.943620 0.947778
O O9 0.760731 0.861235 0.067545
O O10 0.250000 0.941023 0.250000
O O11 0.352996 0.864338 0.296774
O O12 0.250000 0.250000 0.454225
O O13 0.168638 0.178861 0.590890
O O14 0.642606 0.750000 0.750000
#
# Coordination Sequence:
#
# PCOD9326963 Si02
#       6
#    16  16  16  16  16  16
#     4   9  22  45  61  90 130 168 217 263 322 394
#     4  10  22  39  65  91 127 166 207 265 329 377
#     4  10  20  37  59  97 129 157 207 272 319 369
#     4  12  22  36  64  97 129 163 211 267 324 374
#     4  10  20  37  65  93 123 165 218 270 318 376
#     4  11  24  39  61  90 129 171 215 263 317 387
#
# _framework density 21.164728
#
# number of rings (size 3 to 8) (size 9 to 14) (size 15 to 20)
#    0.000    1.667    3.333    1.500    0.000    2.000 
#    0.000   10.833    0.000    2.000    0.000    0.000 
#    0.000    0.000    0.000    0.000    0.000    0.000 
#
# Total GULP energy -133994.976737 kJ/mol
# GULP energy per Si atom -5583.124031 kJ/mol
# Density = 2.111656 g / cm^3
# Si number density = 21.164728 Si / 1000 Ang^3
#
#
#
# Elastic Constant Matrix: (Units=GPa)
#
#
# Indices 1 2 3 4 5 6 
#
# 1 72.5982 35.0564 13.6106 0.0000 0.0000 0.0000
# 2 35.0564 153.0056 40.1632 0.0000 0.0000 0.0000
# 3 13.6106 40.1632 71.2253 0.0000 0.0000 0.0000
# 4 0.0000 0.0000 0.0000 33.5714 0.0000 0.0000
# 5 0.0000 0.0000 0.0000 0.0000 7.0901 0.0000
# 6 0.0000 0.0000 0.0000 0.0000 0.0000 37.0062
#
#
#
# Elastic Compliance Matrix: (Units=1/GPa)
#
#
# Indices 1 2 3 4 5 6 
#
# 1 0.015565 -0.003269 -0.001131 0.000000 0.000000 0.000000
# 2 -0.003269 0.008358 -0.004088 0.000000 0.000000 0.000000
# 3 -0.001131 -0.004088 0.016561 0.000000 0.000000 0.000000
# 4 0.000000 0.000000 0.000000 0.029787 0.000000 0.000000
# 5 0.000000 0.000000 0.000000 0.000000 0.141041 0.000000
# 6 0.000000 0.000000 0.000000 0.000000 0.000000 0.027023
#
#
# Mechanical properties :
#
#
# Convention : Reuss Voigt Hill
#
# Bulk Modulus (GPa) = 42.53940 52.72106 47.63023
# Shear Modulus (GPa) = 19.00073 29.40013 24.20043
#
# Velocity S-wave (km/s) = 2.99951 3.73112 3.38514
# Velocity P-wave (km/s) = 5.66912 6.59739 6.15079
#
# Compressibility (1/GPa) = 0.02350762
#
# Stress axis : x y z
#
# Youngs Moduli (GPa) = 64.24587 119.64691 60.38166
#
# Poissons Ratio (x) = 0.39118 0.06828
# Poissons Ratio (y) = 0.21005 0.24685
# Poissons Ratio (z) = 0.07265 0.48914
#
# Static dielectric constant tensor:
#      x y z
#    x 1.786260 0.000000 0.000000 
#    y 0.000000 1.806860 0.000000 
#    z 0.000000 0.000000 1.766220 
# 
# From -- ./inp_files/21585.got.cif
#   From: 2010.05.17/outbox.cif.g08.bks.cpg/sg22_11_cif.got.tgz:21585.got - 2010.06.03 23:40:54.
