data_PCOD9326880
_publ_section_title
;
Structure prediction by ZEFSAII (Michael W. Deem and Ramdas Pophale) SiO2 
 PCOD9326880
Probable space group: F 2 2 2
;
_chemical_formula_sum "Si O2"
_cell_formula_units_Z 116
_cell_length_a 30.148817
_cell_length_b 20.906049
_cell_length_c 8.787212
_cell_angle_alpha 90.000000
_cell_angle_beta 90.000000
_cell_angle_gamma 90.000000
_cell_volume 5538.515098
_symmetry_space_group_name_H-M "F 2 2 2"
_symmetry_group_IT_number 22
_symmetry_cell_setting 'orthorhombic'
loop_
_space_group_symop_operation_xyz
x,y,z
-x,-y,z
x,-y,-z
-x,y,-z
x,1/2+y,1/2+z
-x,1/2-y,1/2+z
x,1/2-y,1/2-z
-x,1/2+y,1/2-z
1/2+x,y,1/2+z
1/2-x,-y,1/2+z
1/2+x,-y,1/2-z
1/2-x,y,1/2-z
1/2+x,1/2+y,z
1/2-x,1/2-y,z
1/2+x,1/2-y,-z
1/2-x,1/2+y,-z
loop_
_atom_site_type_symbol
_atom_site_label
_atom_site_fract_x
_atom_site_fract_y
_atom_site_fract_z
Si Si1 0.676921 0.817089 0.527313
Si Si2 0.335299 0.923391 0.994407
Si Si3 0.250000 0.750000 0.250000
Si Si4 0.949710 0.875920 0.998079
Si Si5 0.051404 0.720696 0.989564
Si Si6 0.261518 0.069391 0.430624
Si Si7 0.115507 0.343199 0.261123
Si Si8 0.104809 0.355504 0.764185
O O1 0.715629 0.781736 0.624917
O O2 0.699422 0.883126 0.474105
O O3 0.648575 0.801194 0.371409
O O4 0.637802 0.821763 0.648190
O O5 0.283743 0.905238 0.007956
O O6 0.354583 0.887976 0.846405
O O7 0.364569 0.897868 0.130442
O O8 0.336769 0.000000 0.000000
O O9 0.928457 0.895718 0.839166
O O10 0.950332 0.797581 0.004882
O O11 0.915073 0.888844 0.132505
O O12 0.000000 0.898498 0.000000
O O13 0.079780 0.693831 0.846568
O O14 0.076841 0.692513 0.133730
O O15 0.000000 0.698861 0.000000
O O16 0.250000 0.065512 0.250000
O O17 0.270883 0.000000 0.500000
#
# Coordination Sequence:
#
# PCOD9326880 Si02
#       8
#    16  16   4  16  16  16  16  16
#     4  11  25  43  61  92 130 179 214 248 331 382
#     4  10  22  41  65  89 117 158 206 269 324 369
#     4  12  28  44  62  84 144 196 206 258 308 452
#     4  10  20  36  60  90 121 161 208 256 308 360
#     4  10  20  37  63  93 125 161 209 257 310 366
#     4  11  24  43  70  95 122 160 225 288 318 360
#     4  10  21  38  61  94 125 159 210 265 303 384
#     4  10  22  36  61  88 125 159 201 257 301 385
#
# _framework density 20.944241999999999
#
# number of rings (size 3 to 8) (size 9 to 14) (size 15 to 20)
#    0.000    1.655    1.379    2.483    8.690    2.207 
#    2.483    2.414    0.000   15.724    0.000    0.000 
#    0.000    0.000    0.000    0.000    0.000    0.000 
#
# Total GULP energy -161699.501378 kJ/mol
# GULP energy per Si atom -5575.844875 kJ/mol
# Density = 2.089657 g / cm^3
# Si number density = 20.944242 Si / 1000 Ang^3
#
#
#
# Elastic Constant Matrix: (Units=GPa)
#
#
# Indices 1 2 3 4 5 6 
#
# 1 173.7140 35.8735 65.1357 0.0000 0.0000 0.0000
# 2 35.8735 29.3535 26.0321 -0.0001 0.0000 0.0000
# 3 65.1357 26.0321 143.1291 -0.0003 0.0000 -0.0001
# 4 0.0000 -0.0001 -0.0003 19.4185 0.0000 -0.0001
# 5 0.0000 0.0000 0.0000 0.0000 22.4097 0.0000
# 6 0.0000 0.0000 -0.0001 -0.0001 0.0000 16.5162
#
#
#
# Elastic Compliance Matrix: (Units=1/GPa)
#
#
# Indices 1 2 3 4 5 6 
#
# 1 0.008290 -0.008091 -0.002301 0.000000 0.000000 0.000000
# 2 -0.008091 0.048516 -0.005142 0.000000 0.000000 0.000000
# 3 -0.002301 -0.005142 0.008969 0.000000 0.000000 0.000000
# 4 0.000000 0.000000 0.000000 0.051497 0.000000 0.000000
# 5 0.000000 0.000000 0.000000 0.000000 0.044623 0.000000
# 6 0.000000 0.000000 0.000000 0.000000 0.000000 0.060546
#
#
# Mechanical properties :
#
#
# Convention : Reuss Voigt Hill
#
# Bulk Modulus (GPa) = 28.81260 66.69768 47.75514
# Shear Modulus (GPa) = 18.86226 26.27924 22.57075
#
# Velocity S-wave (km/s) = 3.00425 3.54605 3.28633
# Velocity P-wave (km/s) = 5.08140 6.97714 6.10332
#
# Compressibility (1/GPa) = 0.03470704
#
# Stress axis : x y z
#
# Youngs Moduli (GPa) = 120.62289 20.61190 111.49339
#
# Poissons Ratio (x) = 0.16677 0.25657
# Poissons Ratio (y) = 0.97595 0.57329
# Poissons Ratio (z) = 0.27758 0.10598
#
# Static dielectric constant tensor:
#      x y z
#    x 1.762410 0.000000 0.000000 
#    y 0.000000 1.639330 0.000000 
#    z 0.000000 0.000000 1.804220 
# 
# From -- ./inp_files/14995.got.cif
#   From: 2010.05.17/outbox.cif.g08.bks.cpg/sg22_8_cif.got.tgz:14995.got - 2010.06.03 23:40:54.
