data_PCOD9326354
_publ_section_title
;
Structure prediction by ZEFSAII (Michael W. Deem and Ramdas Pophale) SiO2 
 PCOD9326354
Probable space group: F 2 2 2
;
_chemical_formula_sum "Si O2"
_cell_formula_units_Z 88
_cell_length_a 4.905222
_cell_length_b 29.383022
_cell_length_c 26.467393
_cell_angle_alpha 90.000000
_cell_angle_beta 90.000000
_cell_angle_gamma 90.000000
_cell_volume 3814.751863
_symmetry_space_group_name_H-M "F 2 2 2"
_symmetry_group_IT_number 22
_symmetry_cell_setting 'orthorhombic'
loop_
_space_group_symop_operation_xyz
x,y,z
-x,-y,z
x,-y,-z
-x,y,-z
x,1/2+y,1/2+z
-x,1/2-y,1/2+z
x,1/2-y,1/2-z
-x,1/2+y,1/2-z
1/2+x,y,1/2+z
1/2-x,-y,1/2+z
1/2+x,-y,1/2-z
1/2-x,y,1/2-z
1/2+x,1/2+y,z
1/2-x,1/2-y,z
1/2+x,1/2-y,-z
1/2-x,1/2+y,-z
loop_
_atom_site_type_symbol
_atom_site_label
_atom_site_fract_x
_atom_site_fract_y
_atom_site_fract_z
Si Si1 0.730493 0.072470 0.148081
Si Si2 0.611503 0.669177 0.948536
Si Si3 0.221210 0.134316 0.142229
Si Si4 0.252242 0.433598 0.533682
Si Si5 0.986223 0.219772 0.367088
Si Si6 0.500000 0.000000 0.720107
O O1 0.425462 0.091947 0.146319
O O2 0.774469 0.052500 0.091795
O O3 0.928950 0.115580 0.159101
O O4 0.823719 0.035223 0.187560
O O5 0.357772 0.652045 0.914061
O O6 0.756972 0.621715 0.962465
O O7 0.813447 0.698914 0.914219
O O8 0.500000 0.690955 0.000000
O O9 0.380309 0.177898 0.163801
O O10 0.500000 0.449009 0.500000
O O11 0.000000 0.446419 0.500000
O O12 0.750000 0.250000 0.340760
O O13 0.250000 0.250000 0.381763
O O14 0.250000 0.975928 0.750000
#
# Coordination Sequence:
#
# PCOD9326354 Si02
#       6
#    16  16  16  16  16   8
#     4  11  22  41  69  92 133 174 213 270 340 406
#     4  10  21  33  51  75 121 175 242 290 335 377
#     4  11  20  39  57  84 117 177 223 263 330 403
#     4  10  19  32  59  89 118 173 235 271 312 387
#     4  12  22  36  49  79 126 171 236 294 328 377
#     4  12  28  50  75 112 141 162 204 276 364 434
#
# _framework density 23.068339999999999
#
# number of rings (size 3 to 8) (size 9 to 14) (size 15 to 20)
#    0.000    1.091    5.455    4.364    0.000    0.000 
#    3.273    0.455    0.000    1.091    0.000    0.000 
#    0.000   50.909    0.000    0.000    0.000    0.000 
#
# Total GULP energy -122764.860583 kJ/mol
# GULP energy per Si atom -5580.220936 kJ/mol
# Density = 2.301584 g / cm^3
# Si number density = 23.068340 Si / 1000 Ang^3
#
#
#
# Elastic Constant Matrix: (Units=GPa)
#
#
# Indices 1 2 3 4 5 6 
#
# 1 176.8562 24.5482 25.5723 0.0000 0.0000 0.0000
# 2 24.5482 73.4321 18.1011 0.0000 0.0000 0.0000
# 3 25.5723 18.1011 32.6625 0.0000 0.0000 0.0000
# 4 0.0000 0.0000 0.0000 17.1153 0.0000 0.0000
# 5 0.0000 0.0000 0.0000 0.0000 21.4667 0.0000
# 6 0.0000 0.0000 0.0000 0.0000 0.0000 30.4274
#
#
#
# Elastic Compliance Matrix: (Units=1/GPa)
#
#
# Indices 1 2 3 4 5 6 
#
# 1 0.006446 -0.001055 -0.004462 0.000000 0.000000 0.000000
# 2 -0.001055 0.015945 -0.008011 0.000000 0.000000 0.000000
# 3 -0.004462 -0.008011 0.038549 0.000000 0.000000 0.000000
# 4 0.000000 0.000000 0.000000 0.058427 0.000000 0.000000
# 5 0.000000 0.000000 0.000000 0.000000 0.046584 0.000000
# 6 0.000000 0.000000 0.000000 0.000000 0.000000 0.032865
#
#
# Mechanical properties :
#
#
# Convention : Reuss Voigt Hill
#
# Bulk Modulus (GPa) = 29.51169 46.59932 38.05551
# Shear Modulus (GPa) = 21.08220 28.11715 24.59968
#
# Velocity S-wave (km/s) = 3.02636 3.49501 3.26909
# Velocity P-wave (km/s) = 5.00327 6.04410 5.54815
#
# Compressibility (1/GPa) = 0.03388487
#
# Stress axis : x y z
#
# Youngs Moduli (GPa) = 155.13679 62.71425 25.94099
#
# Poissons Ratio (x) = 0.06616 0.11575
# Poissons Ratio (y) = 0.16366 0.20781
# Poissons Ratio (z) = 0.69223 0.50239
#
# Static dielectric constant tensor:
#      x y z
#    x 1.864990 0.000000 0.000000 
#    y 0.000000 1.955740 0.000000 
#    z 0.000000 0.000000 1.902170 
# 
# From -- ./inp_files/46697.got.cif
#   From: 2010.05.17/outbox.cif.g08.bks.cpg/sg22_24_cif.got.tgz:46697.got - 2010.06.03 23:40:54.
