data_PCOD9326558
_publ_section_title
;
Structure prediction by ZEFSAII (Michael W. Deem and Ramdas Pophale) SiO2 
 PCOD9326558
Probable space group: F 2 2 2
;
_chemical_formula_sum "Si O2"
_cell_formula_units_Z 104
_cell_length_a 23.844615
_cell_length_b 24.011579
_cell_length_c 8.730464
_cell_angle_alpha 90.000000
_cell_angle_beta 90.000000
_cell_angle_gamma 90.000000
_cell_volume 4998.599722
_symmetry_space_group_name_H-M "F 2 2 2"
_symmetry_group_IT_number 22
_symmetry_cell_setting 'orthorhombic'
loop_
_space_group_symop_operation_xyz
x,y,z
-x,-y,z
x,-y,-z
-x,y,-z
x,1/2+y,1/2+z
-x,1/2-y,1/2+z
x,1/2-y,1/2-z
-x,1/2+y,1/2-z
1/2+x,y,1/2+z
1/2-x,-y,1/2+z
1/2+x,-y,1/2-z
1/2-x,y,1/2-z
1/2+x,1/2+y,z
1/2-x,1/2-y,z
1/2+x,1/2-y,-z
1/2-x,1/2+y,-z
loop_
_atom_site_type_symbol
_atom_site_label
_atom_site_fract_x
_atom_site_fract_y
_atom_site_fract_z
Si Si1 0.532140 0.315491 0.145693
Si Si2 0.597951 0.075595 0.363065
Si Si3 0.137993 0.750000 0.250000
Si Si4 0.655958 0.857558 0.908382
Si Si5 0.603858 0.046292 0.698063
Si Si6 0.712366 0.552690 0.398082
Si Si7 0.455028 0.638937 0.615189
O O1 0.548720 0.379925 0.123293
O O2 0.592256 0.285653 0.154677
O O3 0.491555 0.314468 0.294364
O O4 0.500000 0.294101 0.000000
O O5 0.637574 0.101730 0.231609
O O6 0.625483 0.066159 0.530569
O O7 0.576994 0.014365 0.318627
O O8 0.171533 0.796872 0.342678
O O9 0.702122 0.891725 0.002608
O O10 0.600296 0.846843 0.014650
O O11 0.652176 0.038460 0.823800
O O12 0.565148 0.094810 0.760818
O O13 0.731393 0.500000 0.500000
O O14 0.750000 0.562319 0.250000
O O15 0.500000 0.612716 0.500000
#
# Coordination Sequence:
#
# PCOD9326558 Si02
#       7
#    16  16   8  16  16  16  16
#     4  11  22  36  51  86 122 172 235 272 308 379
#     4  10  19  37  54  81 127 168 208 263 322 396
#     4  10  22  36  66  82 131 178 223 278 330 372
#     4  10  22  41  60  94 132 173 221 280 338 397
#     4  10  22  36  56  84 130 166 208 265 335 400
#     4  11  24  41  68 102 132 163 214 279 352 424
#     4  11  20  35  51  82 131 173 225 270 314 388
#
# _framework density 20.805827000000001
#
# number of rings (size 3 to 8) (size 9 to 14) (size 15 to 20)
#    0.000    1.538    6.154    0.000    4.308    0.615 
#    2.769    0.000    0.000    0.000    0.000   22.077 
#    0.000    0.000    0.000    0.000    0.000    0.000 
#
# Total GULP energy -144989.923598 kJ/mol
# GULP energy per Si atom -5576.535523 kJ/mol
# Density = 2.075847 g / cm^3
# Si number density = 20.805827 Si / 1000 Ang^3
#
#
#
# Elastic Constant Matrix: (Units=GPa)
#
#
# Indices 1 2 3 4 5 6 
#
# 1 23.7548 27.0881 18.1428 0.0011 -0.0009 -0.0002
# 2 27.0881 136.8516 57.8895 0.0019 -0.0015 -0.0004
# 3 18.1428 57.8895 125.7861 0.0035 -0.0027 -0.0009
# 4 0.0011 0.0019 0.0035 33.0497 -0.0023 -0.0007
# 5 -0.0009 -0.0015 -0.0027 -0.0023 42.8093 0.0005
# 6 -0.0002 -0.0004 -0.0009 -0.0007 0.0005 10.3535
#
#
#
# Elastic Compliance Matrix: (Units=1/GPa)
#
#
# Indices 1 2 3 4 5 6 
#
# 1 0.055704 -0.009471 -0.003676 -0.000001 0.000001 0.000000
# 2 -0.009471 0.010684 -0.003551 0.000000 0.000000 0.000000
# 3 -0.003676 -0.003551 0.010114 -0.000001 0.000000 0.000001
# 4 -0.000001 0.000000 -0.000001 0.030257 0.000002 0.000002
# 5 0.000001 0.000000 0.000000 0.000002 0.023359 -0.000001
# 6 0.000000 0.000000 0.000001 0.000002 -0.000001 0.096585
#
#
# Mechanical properties :
#
#
# Convention : Reuss Voigt Hill
#
# Bulk Modulus (GPa) = 23.19804 54.73702 38.96753
# Shear Modulus (GPa) = 18.21698 29.46066 23.83882
#
# Velocity S-wave (km/s) = 2.96222 3.76703 3.38860
# Velocity P-wave (km/s) = 4.78264 6.72951 5.83781
#
# Compressibility (1/GPa) = 0.04310710
#
# Stress axis : x y z
#
# Youngs Moduli (GPa) = 17.95197 93.59836 98.86909
#
# Poissons Ratio (x) = 0.88648 0.36341
# Poissons Ratio (y) = 0.17002 0.35108
# Poissons Ratio (z) = 0.06599 0.33236
#
# Static dielectric constant tensor:
#      x y z
#    x 1.737440 0.000000 0.000000 
#    y 0.000000 1.784130 0.000000 
#    z 0.000000 0.000000 1.795790 
# 
# From -- ./inp_files/12967.got.cif
#   From: 2010.05.17/outbox.cif.g08.bks.cpg/sg22_7_cif.got.tgz:12967.got - 2010.06.03 23:40:54.
