data_PCOD9326486
_publ_section_title
;
Structure prediction by ZEFSAII (Michael W. Deem and Ramdas Pophale) SiO2 
 PCOD9326486
Probable space group: F 2 2 2
;
_chemical_formula_sum "Si O2"
_cell_formula_units_Z 52
_cell_length_a 5.089183
_cell_length_b 14.650502
_cell_length_c 27.197556
_cell_angle_alpha 90.000000
_cell_angle_beta 90.000000
_cell_angle_gamma 90.000000
_cell_volume 2027.824909
_symmetry_space_group_name_H-M "F 2 2 2"
_symmetry_group_IT_number 22
_symmetry_cell_setting 'orthorhombic'
loop_
_space_group_symop_operation_xyz
x,y,z
-x,-y,z
x,-y,-z
-x,y,-z
x,1/2+y,1/2+z
-x,1/2-y,1/2+z
x,1/2-y,1/2-z
-x,1/2+y,1/2-z
1/2+x,y,1/2+z
1/2-x,-y,1/2+z
1/2+x,-y,1/2-z
1/2-x,y,1/2-z
1/2+x,1/2+y,z
1/2-x,1/2-y,z
1/2+x,1/2-y,-z
1/2-x,1/2+y,-z
loop_
_atom_site_type_symbol
_atom_site_label
_atom_site_fract_x
_atom_site_fract_y
_atom_site_fract_z
Si Si1 0.973993 0.109972 0.209383
Si Si2 0.681719 0.353139 0.544752
Si Si3 0.995907 0.610623 0.153355
Si Si4 0.000000 0.500000 0.500000
O O1 0.750000 0.137378 0.250000
O O2 0.797041 0.137056 0.162913
O O3 0.273655 0.138857 0.194822
O O4 0.000000 0.000000 0.215644
O O5 0.500000 0.388141 0.500000
O O6 0.750000 0.250000 0.532701
O O7 0.575406 0.356659 0.599534
O O8 0.912104 0.424726 0.540432
O O9 0.000000 0.500000 0.154641
#
# Coordination Sequence:
#
# PCOD9326486 Si02
#       4
#    16  16  16   4
#     4  10  19  35  61 100 139 186 241 303 364 441
#     4  12  27  47  73 106 148 198 249 313 377 452
#     4  10  22  37  66  98 143 188 241 303 370 437
#     4  12  26  48  76 100 148 192 246 304 370 446
#
# _framework density 25.643242000000001
#
# number of rings (size 3 to 8) (size 9 to 14) (size 15 to 20)
#    0.000    1.231    1.538    6.000   10.769    0.000 
#    0.000    0.000    0.000    5.538    0.000    0.000 
#    0.000    0.000    0.000    0.000    0.000    0.000 
#
# Total GULP energy -72417.507976 kJ/mol
# GULP energy per Si atom -5570.577537 kJ/mol
# Density = 2.558488 g / cm^3
# Si number density = 25.643242 Si / 1000 Ang^3
#
#
#
# Elastic Constant Matrix: (Units=GPa)
#
#
# Indices 1 2 3 4 5 6 
#
# 1 123.3886 -6.0978 11.6810 0.0000 0.0000 0.0000
# 2 -6.0978 113.9180 -11.5202 0.0000 0.0000 0.0000
# 3 11.6810 -11.5202 94.7912 0.0000 0.0000 0.0000
# 4 0.0000 0.0000 0.0000 -71.3020 0.0000 0.0000
# 5 0.0000 0.0000 0.0000 0.0000 22.2756 0.0000
# 6 0.0000 0.0000 0.0000 0.0000 0.0000 0.8353
#
#
#
# Elastic Compliance Matrix: (Units=1/GPa)
#
#
# Indices 1 2 3 4 5 6 
#
# 1 0.008213 0.000341 -0.000971 0.000000 0.000000 0.000000
# 2 0.000341 0.008902 0.001040 0.000000 0.000000 0.000000
# 3 -0.000971 0.001040 0.010795 0.000000 0.000000 0.000000
# 4 0.000000 0.000000 0.000000 -0.014025 0.000000 0.000000
# 5 0.000000 0.000000 0.000000 0.000000 0.044892 0.000000
# 6 0.000000 0.000000 0.000000 0.000000 0.000000 1.197154
#
#
# Mechanical properties :
#
#
# Convention : Reuss Voigt Hill
#
# Bulk Modulus (GPa) = 34.80483 35.58044 35.19263
# Shear Modulus (GPa) = 3.95355 12.89744 8.42549
#
# Velocity S-wave (km/s) = 1.24302 2.24510 1.81460
# Velocity P-wave (km/s) = 3.95756 4.54158 4.25959
#
# Compressibility (1/GPa) = 0.02873165
#
# Stress axis : x y z
#
# Youngs Moduli (GPa) = 121.75467 112.33844 92.63145
#
# Poissons Ratio (x) = -0.03836 0.08991
# Poissons Ratio (y) = -0.04158 -0.09631
# Poissons Ratio (z) = 0.11818 -0.11680
#
# Static dielectric constant tensor:
#      x y z
#    x 2.216220 0.000000 0.000000 
#    y 0.000000 2.022960 0.000000 
#    z 0.000000 0.000000 1.833090 
# 
# From -- ./inp_files/5199.got.cif
#   From: 2010.05.17/outbox.cif.g08.bks.cpg/sg22_3_cif.got.tgz:5199.got - 2010.06.03 23:40:54.
