data_PCOD9326582
_publ_section_title
;
Structure prediction by ZEFSAII (Michael W. Deem and Ramdas Pophale) SiO2 
 PCOD9326582
Probable space group: F 2 2 2
;
_chemical_formula_sum "Si O2"
_cell_formula_units_Z 116
_cell_length_a 23.351527
_cell_length_b 26.163592
_cell_length_c 8.773937
_cell_angle_alpha 90.000000
_cell_angle_beta 90.000000
_cell_angle_gamma 90.000000
_cell_volume 5360.523014
_symmetry_space_group_name_H-M "F 2 2 2"
_symmetry_group_IT_number 22
_symmetry_cell_setting 'orthorhombic'
loop_
_space_group_symop_operation_xyz
x,y,z
-x,-y,z
x,-y,-z
-x,y,-z
x,1/2+y,1/2+z
-x,1/2-y,1/2+z
x,1/2-y,1/2-z
-x,1/2+y,1/2-z
1/2+x,y,1/2+z
1/2-x,-y,1/2+z
1/2+x,-y,1/2-z
1/2-x,y,1/2-z
1/2+x,1/2+y,z
1/2-x,1/2-y,z
1/2+x,1/2-y,-z
1/2-x,1/2+y,-z
loop_
_atom_site_type_symbol
_atom_site_label
_atom_site_fract_x
_atom_site_fract_y
_atom_site_fract_z
Si Si1 0.191012 0.055556 0.526336
Si Si2 0.720784 0.375414 0.914592
Si Si3 0.061814 0.256166 0.568646
Si Si4 0.936783 0.124074 0.002891
Si Si5 0.500000 0.000000 0.000000
Si Si6 0.411087 0.043411 0.755206
Si Si7 0.125966 0.936601 0.788079
Si Si8 0.816104 0.263883 0.570038
O O1 0.231366 0.104594 0.528959
O O2 0.150883 0.049123 0.668869
O O3 0.147738 0.063337 0.383847
O O4 0.219757 0.000000 0.500000
O O5 0.750000 0.363854 0.750000
O O6 0.682069 0.425217 0.886928
O O7 0.685435 0.325304 0.956473
O O8 0.060416 0.250000 0.750000
O O9 0.061856 0.316380 0.533415
O O10 0.125762 0.240063 0.505175
O O11 0.000000 0.235969 0.500000
O O12 0.912507 0.090690 0.141080
O O13 0.911797 0.111330 0.837082
O O14 0.000000 0.103058 0.000000
O O15 0.459570 0.965334 0.112207
O O16 0.407900 0.987890 0.676457
O O17 0.819495 0.250000 0.750000
O O18 0.750000 0.250000 0.521178
#
# Coordination Sequence:
#
# PCOD9326582 Si02
#       8
#    16  16  16  16   4  16  16  16
#     4   9  20  37  58  90 130 174 221 266 328 394
#     4  10  19  37  65  95 133 171 220 272 324 406
#     4  11  26  51  70 100 140 179 229 296 363 427
#     4  11  24  40  63  94 127 171 224 269 339 409
#     4  12  20  40  58  80 132 160 218 272 306 380
#     4  11  22  38  61  95 128 174 222 271 325 393
#     4  10  19  39  62  89 131 172 212 269 321 390
#     4  11  22  42  74 108 133 178 235 286 350 418
#
# _framework density 21.639681
#
# number of rings (size 3 to 8) (size 9 to 14) (size 15 to 20)
#    0.000    1.517    4.828    1.655    0.000    3.034 
#    1.241    2.069    0.000    0.000    0.000    0.000 
#    0.000    0.000    0.000    0.000    0.000    0.000 
#
# Total GULP energy -161442.345004 kJ/mol
# GULP energy per Si atom -5566.977414 kJ/mol
# Density = 2.159043 g / cm^3
# Si number density = 21.639681 Si / 1000 Ang^3
#
#
#
# Elastic Constant Matrix: (Units=GPa)
#
#
# Indices 1 2 3 4 5 6 
#
# 1 111.7420 -2.2709 24.3197 0.0002 0.0000 -0.0002
# 2 -2.2709 35.1475 0.5317 0.0002 -0.0003 0.0000
# 3 24.3197 0.5317 50.2969 0.0003 0.0004 -0.0006
# 4 0.0002 0.0002 0.0003 24.9652 -0.0001 -0.0001
# 5 0.0000 -0.0003 0.0004 -0.0001 19.4063 0.0003
# 6 -0.0002 0.0000 -0.0006 -0.0001 0.0003 20.2959
#
#
#
# Elastic Compliance Matrix: (Units=1/GPa)
#
#
# Indices 1 2 3 4 5 6 
#
# 1 0.010020 0.000721 -0.004852 0.000000 0.000000 0.000000
# 2 0.000721 0.028508 -0.000650 0.000000 0.000000 0.000000
# 3 -0.004852 -0.000650 0.022235 0.000000 0.000000 0.000001
# 4 0.000000 0.000000 0.000000 0.040056 0.000000 0.000000
# 5 0.000000 0.000000 0.000000 0.000000 0.051530 -0.000001
# 6 0.000000 0.000000 0.000001 0.000000 -0.000001 0.049271
#
#
# Mechanical properties :
#
#
# Convention : Reuss Voigt Hill
#
# Bulk Modulus (GPa) = 19.53128 26.92746 23.22937
# Shear Modulus (GPa) = 21.90588 24.57388 23.23988
#
# Velocity S-wave (km/s) = 3.18512 3.37351 3.28067
# Velocity P-wave (km/s) = 4.75099 5.25782 5.01082
#
# Compressibility (1/GPa) = 0.05119991
#
# Stress axis : x y z
#
# Youngs Moduli (GPa) = 99.80109 35.07791 44.97397
#
# Poissons Ratio (x) = -0.02528 0.21824
# Poissons Ratio (y) = -0.07194 0.02923
# Poissons Ratio (z) = 0.48428 0.02280
#
# Static dielectric constant tensor:
#      x y z
#    x 1.930360 0.000000 0.000000 
#    y 0.000000 1.788130 0.000000 
#    z 0.000000 0.000000 1.816900 
# 
# From -- ./inp_files/14103.got.cif
#   From: 2010.05.17/outbox.cif.g08.bks.cpg/sg22_8_cif.got.tgz:14103.got - 2010.06.03 23:40:54.
