data_PCOD9326981
_publ_section_title
;
Structure prediction by ZEFSAII (Michael W. Deem and Ramdas Pophale) SiO2 
 PCOD9326981
Probable space group: F 2 2 2
;
_chemical_formula_sum "Si O2"
_cell_formula_units_Z 128
_cell_length_a 23.092071
_cell_length_b 13.371758
_cell_length_c 21.621537
_cell_angle_alpha 90.000000
_cell_angle_beta 90.000000
_cell_angle_gamma 90.000000
_cell_volume 6676.332468
_symmetry_space_group_name_H-M "F 2 2 2"
_symmetry_group_IT_number 22
_symmetry_cell_setting 'orthorhombic'
loop_
_space_group_symop_operation_xyz
x,y,z
-x,-y,z
x,-y,-z
-x,y,-z
x,1/2+y,1/2+z
-x,1/2-y,1/2+z
x,1/2-y,1/2-z
-x,1/2+y,1/2-z
1/2+x,y,1/2+z
1/2-x,-y,1/2+z
1/2+x,-y,1/2-z
1/2-x,y,1/2-z
1/2+x,1/2+y,z
1/2-x,1/2-y,z
1/2+x,1/2-y,-z
1/2-x,1/2+y,-z
loop_
_atom_site_type_symbol
_atom_site_label
_atom_site_fract_x
_atom_site_fract_y
_atom_site_fract_z
Si Si1 0.842060 0.199282 0.876524
Si Si2 0.223618 0.016906 0.182377
Si Si3 0.415839 0.706145 0.319289
Si Si4 0.954529 0.228445 0.677881
Si Si5 0.565014 0.010921 0.872123
Si Si6 0.694841 0.311108 0.135059
Si Si7 0.183893 0.082693 0.410158
Si Si8 0.786335 0.614183 0.497567
O O1 0.812438 0.116788 0.833046
O O2 0.909651 0.207506 0.861902
O O3 0.819677 0.313286 0.871588
O O4 0.824136 0.168138 0.945451
O O5 0.250000 0.020794 0.250000
O O6 0.274994 0.012640 0.131252
O O7 0.188108 0.915443 0.171661
O O8 0.407426 0.750000 0.250000
O O9 0.478867 0.746111 0.339647
O O10 0.420659 0.586409 0.330470
O O11 0.362558 0.746355 0.358502
O O12 0.946811 0.250000 0.750000
O O13 0.940795 0.111495 0.668039
O O14 0.620265 0.035100 0.915862
O O15 0.500000 0.000000 0.900556
O O16 0.750000 0.250000 0.160197
O O17 0.707354 0.337126 0.063831
O O18 0.220256 0.108361 0.471733
O O19 0.806658 0.500000 0.500000
#
# Coordination Sequence:
#
# PCOD9326981 Si02
#       8
#    16  16  16  16  16  16  16  16
#     4  10  21  38  63  88 119 154 209 262 310 372
#     4  11  24  35  55  89 125 158 204 257 312 369
#     4  10  23  39  60  91 131 166 209 249 308 385
#     4   9  20  39  64  93 122 165 205 257 317 368
#     4   9  19  38  62  90 123 161 205 254 306 369
#     4  12  25  39  61  86 122 171 203 250 313 376
#     4  10  20  37  62  88 119 157 201 261 313 366
#     4  11  21  42  60  86 120 160 208 252 313 372
#
# _framework density 19.172201999999999
#
# number of rings (size 3 to 8) (size 9 to 14) (size 15 to 20)
#    0.000    1.750    2.500    3.000    7.000    0.500 
#    0.000    1.250    0.000    1.125    0.000    0.000 
#    0.000    0.000    0.000    0.000    0.000    0.000 
#
# Total GULP energy -178508.639221 kJ/mol
# GULP energy per Si atom -5578.394976 kJ/mol
# Density = 1.912857 g / cm^3
# Si number density = 19.172202 Si / 1000 Ang^3
#
#
#
# Elastic Constant Matrix: (Units=GPa)
#
#
# Indices 1 2 3 4 5 6 
#
# 1 149.5677 55.2687 47.8449 0.0000 0.0000 0.0000
# 2 55.2687 88.2929 26.4694 0.0000 0.0000 0.0000
# 3 47.8449 26.4694 70.8622 0.0000 0.0000 0.0000
# 4 0.0000 0.0000 0.0000 14.4681 0.0000 0.0000
# 5 0.0000 0.0000 0.0000 0.0000 18.9156 0.0000
# 6 0.0000 0.0000 0.0000 0.0000 0.0000 32.1986
#
#
#
# Elastic Compliance Matrix: (Units=1/GPa)
#
#
# Indices 1 2 3 4 5 6 
#
# 1 0.010058 -0.004797 -0.004999 0.000000 0.000000 0.000000
# 2 -0.004797 0.015042 -0.002380 0.000000 0.000000 0.000000
# 3 -0.004999 -0.002380 0.018376 0.000000 0.000000 0.000000
# 4 0.000000 0.000000 0.000000 0.069118 0.000000 0.000000
# 5 0.000000 0.000000 0.000000 0.000000 0.052867 0.000000
# 6 0.000000 0.000000 0.000000 0.000000 0.000000 0.031057
#
#
# Mechanical properties :
#
#
# Convention : Reuss Voigt Hill
#
# Bulk Modulus (GPa) = 52.28976 63.09877 57.69427
# Shear Modulus (GPa) = 22.00279 25.05909 23.53094
#
# Velocity S-wave (km/s) = 3.39136 3.61924 3.50715
# Velocity P-wave (km/s) = 6.53208 7.10269 6.82335
#
# Compressibility (1/GPa) = 0.01912420
#
# Stress axis : x y z
#
# Youngs Moduli (GPa) = 99.42645 66.47921 54.41890
#
# Poissons Ratio (x) = 0.31891 0.27203
# Poissons Ratio (y) = 0.47697 0.12951
# Poissons Ratio (z) = 0.49702 0.15821
#
# Static dielectric constant tensor:
#      x y z
#    x 1.694240 0.000000 0.000000 
#    y 0.000000 1.702380 0.000000 
#    z 0.000000 0.000000 1.654260 
# 
# From -- ./inp_files/50280.got.cif
#   From: 2010.05.17/outbox.cif.g08.bks.cpg/sg22_26_cif.got.tgz:50280.got - 2010.06.03 23:40:54.
