data_PCOD9326009
_publ_section_title
;
Structure prediction by ZEFSAII (Michael W. Deem and Ramdas Pophale) SiO2 
 PCOD9326009
Probable space group: F 2 2 2
;
_chemical_formula_sum "Si O2"
_cell_formula_units_Z 96
_cell_length_a 26.444226
_cell_length_b 8.309999
_cell_length_c 20.430847
_cell_angle_alpha 90.000000
_cell_angle_beta 90.000000
_cell_angle_gamma 90.000000
_cell_volume 4489.709103
_symmetry_space_group_name_H-M "F 2 2 2"
_symmetry_group_IT_number 22
_symmetry_cell_setting 'orthorhombic'
loop_
_space_group_symop_operation_xyz
x,y,z
-x,-y,z
x,-y,-z
-x,y,-z
x,1/2+y,1/2+z
-x,1/2-y,1/2+z
x,1/2-y,1/2-z
-x,1/2+y,1/2-z
1/2+x,y,1/2+z
1/2-x,-y,1/2+z
1/2+x,-y,1/2-z
1/2-x,y,1/2-z
1/2+x,1/2+y,z
1/2-x,1/2-y,z
1/2+x,1/2-y,-z
1/2-x,1/2+y,-z
loop_
_atom_site_type_symbol
_atom_site_label
_atom_site_fract_x
_atom_site_fract_y
_atom_site_fract_z
Si Si1 0.609342 0.500000 0.000000
Si Si2 0.378739 0.138514 0.854064
Si Si3 0.680074 0.879668 0.385153
Si Si4 0.213166 0.020633 0.421929
Si Si5 0.500000 0.500000 0.154118
Si Si6 0.463269 0.269984 0.556267
Si Si7 0.608893 0.010226 0.286606
O O1 0.643661 0.454664 0.939290
O O2 0.574701 0.648847 0.980526
O O3 0.426828 0.114655 0.901992
O O4 0.383221 0.027975 0.790297
O O5 0.380898 0.318589 0.823798
O O6 0.327425 0.104196 0.893402
O O7 0.732303 0.979544 0.386956
O O8 0.691869 0.698405 0.406833
O O9 0.649247 0.890148 0.318147
O O10 0.219772 0.000000 0.500000
O O11 0.492576 0.655645 0.107852
O O12 0.550609 0.525312 0.196177
O O13 0.500000 0.332110 0.500000
#
# Coordination Sequence:
#
# PCOD9326009 Si02
#       7
#     8  16  16  16   8  16  16
#     4  12  17  36  64  98 120 162 225 260 314 410
#     4  10  23  42  61  92 134 169 224 283 332 401
#     4  11  23  39  67  93 128 178 215 274 342 409
#     4  11  25  41  62  99 135 165 217 286 349 401
#     4  10  17  34  62  92 117 156 226 266 310 406
#     4  11  18  34  67  99 125 163 216 276 330 397
#     4  10  22  42  66  90 124 180 226 270 334 412
#
# _framework density 21.382231000000001
#
# number of rings (size 3 to 8) (size 9 to 14) (size 15 to 20)
#    0.000    1.333    5.833    1.000    0.000    2.000 
#    0.000   13.333    0.000    4.000    0.000    0.000 
#    0.000    0.000    0.000    0.000    0.000    0.000 
#
# Total GULP energy -134218.564032 kJ/mol
# GULP energy per Si atom -5592.440168 kJ/mol
# Density = 2.133356 g / cm^3
# Si number density = 21.382231 Si / 1000 Ang^3
#
#
#
# Elastic Constant Matrix: (Units=GPa)
#
#
# Indices 1 2 3 4 5 6 
#
# 1 130.7298 37.1411 48.5492 0.0000 0.0000 0.0000
# 2 37.1411 43.6461 16.7686 0.0000 0.0000 0.0000
# 3 48.5492 16.7686 109.2261 0.0000 0.0000 0.0000
# 4 0.0000 0.0000 0.0000 26.0805 0.0000 0.0000
# 5 0.0000 0.0000 0.0000 0.0000 -15.6183 0.0000
# 6 0.0000 0.0000 0.0000 0.0000 0.0000 52.1050
#
#
#
# Elastic Compliance Matrix: (Units=1/GPa)
#
#
# Indices 1 2 3 4 5 6 
#
# 1 0.011404 -0.008243 -0.003803 0.000000 0.000000 0.000000
# 2 -0.008243 0.030306 -0.000989 0.000000 0.000000 0.000000
# 3 -0.003803 -0.000989 0.010998 0.000000 0.000000 0.000000
# 4 0.000000 0.000000 0.000000 0.038343 0.000000 0.000000
# 5 0.000000 0.000000 0.000000 0.000000 -0.064027 0.000000
# 6 0.000000 0.000000 0.000000 0.000000 0.000000 0.019192
#
#
# Mechanical properties :
#
#
# Convention : Reuss Voigt Hill
#
# Bulk Modulus (GPa) = 37.54146 54.27998 45.91072
# Shear Modulus (GPa) = 61.60415 24.58965 43.09690
#
# Velocity S-wave (km/s) = 5.37340 3.39485 4.49436
# Velocity P-wave (km/s) = 7.48955 6.38806 6.96063
#
# Compressibility (1/GPa) = 0.02663721
#
# Stress axis : x y z
#
# Youngs Moduli (GPa) = 87.69138 32.99699 90.92888
#
# Poissons Ratio (x) = 0.27199 0.34583
# Poissons Ratio (y) = 0.72283 0.08991
# Poissons Ratio (z) = 0.33351 0.03263
#
# Static dielectric constant tensor:
#      x y z
#    x 1.770210 0.000000 0.000000 
#    y 0.000000 1.807320 0.000000 
#    z 0.000000 0.000000 1.777270 
# 
# From -- ./inp_files/50206.got.cif
#   From: 2010.05.17/outbox.cif.g08.bks.cpg/sg22_26_cif.got.tgz:50206.got - 2010.06.03 23:40:54.
