data_PCOD9326547
_publ_section_title
;
Structure prediction by ZEFSAII (Michael W. Deem and Ramdas Pophale) SiO2 
 PCOD9326547
Probable space group: F 2 2 2
;
_chemical_formula_sum "Si O2"
_cell_formula_units_Z 104
_cell_length_a 12.429937
_cell_length_b 25.441328
_cell_length_c 16.649991
_cell_angle_alpha 90.000000
_cell_angle_beta 90.000000
_cell_angle_gamma 90.000000
_cell_volume 5265.294989
_symmetry_space_group_name_H-M "F 2 2 2"
_symmetry_group_IT_number 22
_symmetry_cell_setting 'orthorhombic'
loop_
_space_group_symop_operation_xyz
x,y,z
-x,-y,z
x,-y,-z
-x,y,-z
x,1/2+y,1/2+z
-x,1/2-y,1/2+z
x,1/2-y,1/2-z
-x,1/2+y,1/2-z
1/2+x,y,1/2+z
1/2-x,-y,1/2+z
1/2+x,-y,1/2-z
1/2-x,y,1/2-z
1/2+x,1/2+y,z
1/2-x,1/2-y,z
1/2+x,1/2-y,-z
1/2-x,1/2+y,-z
loop_
_atom_site_type_symbol
_atom_site_label
_atom_site_fract_x
_atom_site_fract_y
_atom_site_fract_z
Si Si1 0.086811 0.180375 0.881824
Si Si2 0.830831 0.799565 0.447063
Si Si3 0.582212 0.106143 0.243992
Si Si4 0.432268 0.798452 0.120012
Si Si5 0.414925 0.955030 0.651558
Si Si6 0.865899 0.643797 0.437284
Si Si7 0.750000 0.480923 0.250000
O O1 0.130572 0.136511 0.821816
O O2 0.109784 0.240126 0.856368
O O3 0.956967 0.173843 0.885993
O O4 0.122133 0.165625 0.972131
O O5 0.750000 0.750000 0.444901
O O6 0.867823 0.810530 0.538194
O O7 0.756009 0.845344 0.412267
O O8 0.941765 0.791473 0.401007
O O9 0.573870 0.153022 0.180352
O O10 0.472188 0.079536 0.277428
O O11 0.657964 0.058406 0.217344
O O12 0.393518 0.916606 0.577293
O O13 0.500000 0.000000 0.630460
O O14 0.308591 0.982806 0.684832
#
# Coordination Sequence:
#
# PCOD9326547 Si02
#       7
#    16  16  16  16  16  16   8
#     4  10  19  37  59  92 123 155 199 247 297 378
#     4  11  20  36  59  88 125 171 197 235 301 370
#     4  10  23  38  62  89 125 158 202 255 316 363
#     4  11  22  36  58  93 134 159 195 246 298 380
#     4   9  21  42  63  90 115 159 215 270 303 351
#     4  10  19  36  65  86 119 159 203 248 307 360
#     4  10  22  42  61  84 117 166 212 260 318 350
#
# _framework density 19.75198
#
# number of rings (size 3 to 8) (size 9 to 14) (size 15 to 20)
#    0.000    1.846    3.077    1.385    4.308    0.000 
#    0.000   13.846    0.000    0.000    0.000    0.000 
#    0.000    0.000    0.000    0.000    0.000    0.000 
#
# Total GULP energy -144962.925485 kJ/mol
# GULP energy per Si atom -5575.497134 kJ/mol
# Density = 1.970702 g / cm^3
# Si number density = 19.751980 Si / 1000 Ang^3
#
#
#
# Elastic Constant Matrix: (Units=GPa)
#
#
# Indices 1 2 3 4 5 6 
#
# 1 92.5064 29.0310 8.8644 0.0000 0.0000 0.0000
# 2 29.0310 138.5906 39.6048 0.0000 0.0000 0.0000
# 3 8.8644 39.6048 33.0665 0.0000 0.0000 0.0000
# 4 0.0000 0.0000 0.0000 29.3088 0.0000 0.0000
# 5 0.0000 0.0000 0.0000 0.0000 7.6823 0.0000
# 6 0.0000 0.0000 0.0000 0.0000 0.0000 31.5837
#
#
#
# Elastic Compliance Matrix: (Units=1/GPa)
#
#
# Indices 1 2 3 4 5 6 
#
# 1 0.011573 -0.002338 -0.000302 0.000000 0.000000 0.000000
# 2 -0.002338 0.011443 -0.013079 0.000000 0.000000 0.000000
# 3 -0.000302 -0.013079 0.045988 0.000000 0.000000 0.000000
# 4 0.000000 0.000000 0.000000 0.034119 0.000000 0.000000
# 5 0.000000 0.000000 0.000000 0.000000 0.130170 0.000000
# 6 0.000000 0.000000 0.000000 0.000000 0.000000 0.031662
#
#
# Mechanical properties :
#
#
# Convention : Reuss Voigt Hill
#
# Bulk Modulus (GPa) = 26.61995 46.57376 36.59685
# Shear Modulus (GPa) = 16.18576 26.15917 21.17246
#
# Velocity S-wave (km/s) = 2.86571 3.64315 3.27756
# Velocity P-wave (km/s) = 4.94531 6.42863 5.73512
#
# Compressibility (1/GPa) = 0.03756581
#
# Stress axis : x y z
#
# Youngs Moduli (GPa) = 86.41031 87.39257 21.74491
#
# Poissons Ratio (x) = 0.20430 0.00657
# Poissons Ratio (y) = 0.20201 0.28439
# Poissons Ratio (z) = 0.02613 1.14297
#
# Static dielectric constant tensor:
#      x y z
#    x 1.742810 0.000000 0.000000 
#    y 0.000000 1.725080 0.000000 
#    z 0.000000 0.000000 1.686610 
# 
# From -- ./inp_files/36375.got.cif
#   From: 2010.05.17/outbox.cif.g08.bks.cpg/sg22_19_cif.got.tgz:36375.got - 2010.06.03 23:40:54.
