data_PCOD9326921
_publ_section_title
;
Structure prediction by ZEFSAII (Michael W. Deem and Ramdas Pophale) SiO2 
 PCOD9326921
Probable space group: F 2 2 2
;
_chemical_formula_sum "Si O2"
_cell_formula_units_Z 88
_cell_length_a 20.705691
_cell_length_b 13.639584
_cell_length_c 13.850954
_cell_angle_alpha 90.000000
_cell_angle_beta 90.000000
_cell_angle_gamma 90.000000
_cell_volume 3911.745037
_symmetry_space_group_name_H-M "F 2 2 2"
_symmetry_group_IT_number 22
_symmetry_cell_setting 'orthorhombic'
loop_
_space_group_symop_operation_xyz
x,y,z
-x,-y,z
x,-y,-z
-x,y,-z
x,1/2+y,1/2+z
-x,1/2-y,1/2+z
x,1/2-y,1/2-z
-x,1/2+y,1/2-z
1/2+x,y,1/2+z
1/2-x,-y,1/2+z
1/2+x,-y,1/2-z
1/2-x,y,1/2-z
1/2+x,1/2+y,z
1/2-x,1/2-y,z
1/2+x,1/2-y,-z
1/2-x,1/2+y,-z
loop_
_atom_site_type_symbol
_atom_site_label
_atom_site_fract_x
_atom_site_fract_y
_atom_site_fract_z
Si Si1 0.842590 0.671712 0.950198
Si Si2 0.697729 0.883392 0.493129
Si Si3 0.605557 0.631509 0.158740
Si Si4 0.000000 0.000000 0.863507
Si Si5 0.071203 0.144664 0.370125
Si Si6 0.562395 0.359030 0.291537
O O1 0.770721 0.636639 0.975060
O O2 0.841423 0.792627 0.954752
O O3 0.870577 0.634800 0.848559
O O4 0.888432 0.628239 0.034032
O O5 0.677552 0.865429 0.381924
O O6 0.684586 0.000000 0.500000
O O7 0.556553 0.566632 0.093105
O O8 0.577677 0.739454 0.147509
O O9 0.600573 0.600872 0.270691
O O10 0.042388 0.073321 0.797457
O O11 0.995484 0.121958 0.368293
O O12 0.558103 0.250000 0.250000
#
# Coordination Sequence:
#
# PCOD9326921 Si02
#       6
#    16  16  16   8  16  16
#     4  10  23  40  60  90 124 167 213 258 316 377
#     4  10  23  40  60  85 125 166 214 260 308 391
#     4   9  18  35  60  88 121 152 204 259 314 370
#     4  10  20  36  64  98 120 158 210 258 319 385
#     4   9  17  38  62  88 119 155 204 263 316 366
#     4  11  21  38  62  91 130 161 204 265 326 387
#
# _framework density 22.496352999999999
#
# number of rings (size 3 to 8) (size 9 to 14) (size 15 to 20)
#    0.000    2.182    3.636    0.545    2.545    3.636 
#    0.000    9.545    0.000    0.000    0.000    0.000 
#    0.000    0.000    0.000    0.000    0.000    0.000 
#
# Total GULP energy -122485.045210 kJ/mol
# GULP energy per Si atom -5567.502055 kJ/mol
# Density = 2.244515 g / cm^3
# Si number density = 22.496353 Si / 1000 Ang^3
#
#
#
# Elastic Constant Matrix: (Units=GPa)
#
#
# Indices 1 2 3 4 5 6 
#
# 1 112.8039 -0.3199 31.9417 0.0000 0.0000 0.0000
# 2 -0.3199 93.9535 -3.8586 0.0000 0.0000 0.0000
# 3 31.9417 -3.8586 34.1964 0.0000 0.0000 0.0000
# 4 0.0000 0.0000 0.0000 15.9523 0.0000 0.0000
# 5 0.0000 0.0000 0.0000 0.0000 31.3595 0.0000
# 6 0.0000 0.0000 0.0000 0.0000 0.0000 16.1049
#
#
#
# Elastic Compliance Matrix: (Units=1/GPa)
#
#
# Indices 1 2 3 4 5 6 
#
# 1 0.012070 -0.000424 -0.011322 0.000000 0.000000 0.000000
# 2 -0.000424 0.010708 0.001604 0.000000 0.000000 0.000000
# 3 -0.011322 0.001604 0.039999 0.000000 0.000000 0.000000
# 4 0.000000 0.000000 0.000000 0.062687 0.000000 0.000000
# 5 0.000000 0.000000 0.000000 0.000000 0.031888 0.000000
# 6 0.000000 0.000000 0.000000 0.000000 0.000000 0.062093
#
#
# Mechanical properties :
#
#
# Convention : Reuss Voigt Hill
#
# Bulk Modulus (GPa) = 23.53277 32.94225 28.23751
# Shear Modulus (GPa) = 19.69341 26.89604 23.29472
#
# Velocity S-wave (km/s) = 2.96193 3.46146 3.22139
# Velocity P-wave (km/s) = 4.70965 5.53631 5.13963
#
# Compressibility (1/GPa) = 0.04249393
#
# Stress axis : x y z
#
# Youngs Moduli (GPa) = 82.85287 93.38812 25.00063
#
# Poissons Ratio (x) = 0.03958 0.28305
# Poissons Ratio (y) = 0.03512 -0.04011
# Poissons Ratio (z) = 0.93803 -0.14981
#
# Static dielectric constant tensor:
#      x y z
#    x 1.819940 0.000000 0.000000 
#    y 0.000000 1.917320 0.000000 
#    z 0.000000 0.000000 1.886070 
# 
# From -- ./inp_files/32416.got.cif
#   From: 2010.05.17/outbox.cif.g08.bks.cpg/sg22_17_cif.got.tgz:32416.got - 2010.06.03 23:40:54.
