data_PCOD9326363
_publ_section_title
;
Structure prediction by ZEFSAII (Michael W. Deem and Ramdas Pophale) SiO2 
 PCOD9326363
Probable space group: F 2 2 2
;
_chemical_formula_sum "Si O2"
_cell_formula_units_Z 80
_cell_length_a 23.484978
_cell_length_b 9.296638
_cell_length_c 18.188614
_cell_angle_alpha 90.000000
_cell_angle_beta 90.000000
_cell_angle_gamma 90.000000
_cell_volume 3971.144447
_symmetry_space_group_name_H-M "F 2 2 2"
_symmetry_group_IT_number 22
_symmetry_cell_setting 'orthorhombic'
loop_
_space_group_symop_operation_xyz
x,y,z
-x,-y,z
x,-y,-z
-x,y,-z
x,1/2+y,1/2+z
-x,1/2-y,1/2+z
x,1/2-y,1/2-z
-x,1/2+y,1/2-z
1/2+x,y,1/2+z
1/2-x,-y,1/2+z
1/2+x,-y,1/2-z
1/2-x,y,1/2-z
1/2+x,1/2+y,z
1/2-x,1/2-y,z
1/2+x,1/2-y,-z
1/2-x,1/2+y,-z
loop_
_atom_site_type_symbol
_atom_site_label
_atom_site_fract_x
_atom_site_fract_y
_atom_site_fract_z
Si Si1 0.000000 0.500000 0.328235
Si Si2 0.086985 0.262833 0.336578
Si Si3 0.757464 0.916737 0.573731
Si Si4 0.194139 0.930617 0.796761
Si Si5 0.126539 0.961298 0.344316
Si Si6 0.568340 0.250000 0.250000
O O1 0.045264 0.388623 0.366980
O O2 0.035769 0.608604 0.277738
O O3 0.071933 0.250000 0.250000
O O4 0.153519 0.312513 0.335204
O O5 0.086933 0.098374 0.365128
O O6 0.750000 0.750000 0.560725
O O7 0.822044 0.948938 0.598812
O O8 0.743195 0.000000 0.500000
O O9 0.717078 0.964944 0.640580
O O10 0.250000 0.889153 0.750000
O O11 0.154213 0.001662 0.735430
O O12 0.098776 0.808958 0.324114
#
# Coordination Sequence:
#
# PCOD9326363 Si02
#       6
#     8  16  16  16  16   8
#     4  12  20  30  54  88 128 144 202 244 316 344
#     4  10  19  33  52  89 118 160 185 244 303 353
#     4  11  25  39  57  89 119 161 198 243 292 363
#     4   9  19  36  58  83 120 155 198 235 292 355
#     4  10  21  36  60  84 122 155 199 240 306 344
#     4  12  18  34  53  88 119 156 184 256 292 360
#
# _framework density 20.145326000000001
#
# number of rings (size 3 to 8) (size 9 to 14) (size 15 to 20)
#    0.000    1.600    5.000    1.200    2.800   11.200 
#    0.000    0.000    0.000    0.000    0.000   11.200 
#    0.000    0.000    0.000    0.000    0.000    0.000 
#
# Total GULP energy -111367.621387 kJ/mol
# GULP energy per Si atom -5568.381069 kJ/mol
# Density = 2.009947 g / cm^3
# Si number density = 20.145326 Si / 1000 Ang^3
#
#
#
# Elastic Constant Matrix: (Units=GPa)
#
#
# Indices 1 2 3 4 5 6 
#
# 1 79.9815 39.2743 0.7878 0.0000 0.0000 0.0000
# 2 39.2743 149.1058 34.3304 0.0000 0.0000 0.0000
# 3 0.7878 34.3304 48.8643 0.0000 0.0000 0.0000
# 4 0.0000 0.0000 0.0000 5.3188 0.0000 0.0000
# 5 0.0000 0.0000 0.0000 0.0000 3.8281 0.0000
# 6 0.0000 0.0000 0.0000 0.0000 0.0000 30.8724
#
#
#
# Elastic Compliance Matrix: (Units=1/GPa)
#
#
# Indices 1 2 3 4 5 6 
#
# 1 0.014712 -0.004558 0.002965 0.000000 0.000000 0.000000
# 2 -0.004558 0.009413 -0.006540 0.000000 0.000000 0.000000
# 3 0.002965 -0.006540 0.025012 0.000000 0.000000 0.000000
# 4 0.000000 0.000000 0.000000 0.188014 0.000000 0.000000
# 5 0.000000 0.000000 0.000000 0.000000 0.261229 0.000000
# 6 0.000000 0.000000 0.000000 0.000000 0.000000 0.032391
#
#
# Mechanical properties :
#
#
# Convention : Reuss Voigt Hill
#
# Bulk Modulus (GPa) = 30.42178 47.41518 38.91848
# Shear Modulus (GPa) = 8.96069 21.57446 15.26758
#
# Velocity S-wave (km/s) = 2.11132 3.27607 2.75593
# Velocity P-wave (km/s) = 4.59103 6.15612 5.43026
#
# Compressibility (1/GPa) = 0.03287118
#
# Stress axis : x y z
#
# Youngs Moduli (GPa) = 67.97309 106.23796 39.98154
#
# Poissons Ratio (x) = 0.48420 -0.11854
# Poissons Ratio (y) = 0.30980 0.26146
# Poissons Ratio (z) = -0.20153 0.69476
#
# Static dielectric constant tensor:
#      x y z
#    x 1.894730 0.000000 0.000000 
#    y 0.000000 1.819190 0.000000 
#    z 0.000000 0.000000 1.659650 
# 
# From -- ./inp_files/40296.got.cif
#   From: 2010.05.17/outbox.cif.g08.bks.cpg/sg22_21_cif.got.tgz:40296.got - 2010.06.03 23:40:54.
