data_PCOD9326884
_publ_section_title
;
Structure prediction by ZEFSAII (Michael W. Deem and Ramdas Pophale) SiO2 
 PCOD9326884
Probable space group: F 2 2 2
;
_chemical_formula_sum "Si O2"
_cell_formula_units_Z 64
_cell_length_a 13.765468
_cell_length_b 16.877097
_cell_length_c 12.639684
_cell_angle_alpha 90.000000
_cell_angle_beta 90.000000
_cell_angle_gamma 90.000000
_cell_volume 2936.465780
_symmetry_space_group_name_H-M "F 2 2 2"
_symmetry_group_IT_number 22
_symmetry_cell_setting 'orthorhombic'
loop_
_space_group_symop_operation_xyz
x,y,z
-x,-y,z
x,-y,-z
-x,y,-z
x,1/2+y,1/2+z
-x,1/2-y,1/2+z
x,1/2-y,1/2-z
-x,1/2+y,1/2-z
1/2+x,y,1/2+z
1/2-x,-y,1/2+z
1/2+x,-y,1/2-z
1/2-x,y,1/2-z
1/2+x,1/2+y,z
1/2-x,1/2-y,z
1/2+x,1/2-y,-z
1/2-x,1/2+y,-z
loop_
_atom_site_type_symbol
_atom_site_label
_atom_site_fract_x
_atom_site_fract_y
_atom_site_fract_z
Si Si1 0.547528 0.581768 0.711977
Si Si2 0.401201 0.586925 0.050535
Si Si3 0.849959 0.661278 0.207757
Si Si4 0.685178 0.403424 0.482045
O O1 0.500000 0.500000 0.672255
O O2 0.599695 0.572239 0.823871
O O3 0.453280 0.630987 0.745852
O O4 0.619727 0.612162 0.621507
O O5 0.297143 0.624722 0.025873
O O6 0.398696 0.500000 0.000000
O O7 0.500000 0.624155 0.000000
O O8 0.844885 0.750000 0.250000
O O9 0.750000 0.620719 0.250000
O O10 0.854562 0.643141 0.083346
O O11 0.683569 0.500000 0.500000
#
# Coordination Sequence:
#
# PCOD9326884 Si02
#       4
#    16  16  16  16
#     4  12  22  39  70 106 140 182 248 319 374 431
#     4  10  20  36  61 105 142 182 230 304 380 434
#     4  11  26  46  66  99 148 200 242 299 385 462
#     4  11  23  38  70 104 142 182 247 319 367 439
#
# _framework density 21.794909000000001
#
# number of rings (size 3 to 8) (size 9 to 14) (size 15 to 20)
#    0.000    1.000    5.000    3.000    3.500    0.000 
#    0.000   12.500    0.000    1.500    0.000    0.000 
#    0.000    0.000    0.000    0.000    0.000    0.000 
#
# Total GULP energy -89234.989312 kJ/mol
# GULP energy per Si atom -5577.186832 kJ/mol
# Density = 2.174530 g / cm^3
# Si number density = 21.794909 Si / 1000 Ang^3
#
#
#
# Elastic Constant Matrix: (Units=GPa)
#
#
# Indices 1 2 3 4 5 6 
#
# 1 67.1721 17.9082 -0.3553 0.0000 0.0000 0.0000
# 2 17.9082 45.3805 13.0101 0.0000 0.0000 0.0000
# 3 -0.3553 13.0101 151.2580 0.0000 0.0000 0.0000
# 4 0.0000 0.0000 0.0000 21.2222 0.0000 0.0000
# 5 0.0000 0.0000 0.0000 0.0000 51.1586 0.0000
# 6 0.0000 0.0000 0.0000 0.0000 0.0000 15.0334
#
#
#
# Elastic Compliance Matrix: (Units=1/GPa)
#
#
# Indices 1 2 3 4 5 6 
#
# 1 0.016694 -0.006766 0.000621 0.000000 0.000000 0.000000
# 2 -0.006766 0.025335 -0.002195 0.000000 0.000000 0.000000
# 3 0.000621 -0.002195 0.006801 0.000000 0.000000 0.000000
# 4 0.000000 0.000000 0.000000 0.047120 0.000000 0.000000
# 5 0.000000 0.000000 0.000000 0.000000 0.019547 0.000000
# 6 0.000000 0.000000 0.000000 0.000000 0.000000 0.066518
#
#
# Mechanical properties :
#
#
# Convention : Reuss Voigt Hill
#
# Bulk Modulus (GPa) = 31.10304 36.10404 33.60354
# Shear Modulus (GPa) = 23.87619 33.03269 28.45444
#
# Velocity S-wave (km/s) = 3.31342 3.89731 3.61717
# Velocity P-wave (km/s) = 5.37960 6.07070 5.73557
#
# Compressibility (1/GPa) = 0.03215120
#
# Stress axis : x y z
#
# Youngs Moduli (GPa) = 59.90082 39.47074 147.02679
#
# Poissons Ratio (x) = 0.26706 -0.09133
# Poissons Ratio (y) = 0.40529 0.32273
# Poissons Ratio (z) = -0.03721 0.08664
#
# Static dielectric constant tensor:
#      x y z
#    x 1.985750 0.000000 0.000000 
#    y 0.000000 1.801850 0.000000 
#    z 0.000000 0.000000 1.997930 
# 
# From -- ./inp_files/19354.got.cif
#   From: 2010.05.17/outbox.cif.g08.bks.cpg/sg22_10_cif.got.tgz:19354.got - 2010.06.03 23:40:54.
