data_PCOD9326817
_publ_section_title
;
Structure prediction by ZEFSAII (Michael W. Deem and Ramdas Pophale) SiO2 
 PCOD9326817
Probable space group: F 2 2 2
;
_chemical_formula_sum "Si O2"
_cell_formula_units_Z 64
_cell_length_a 28.020725
_cell_length_b 13.062139
_cell_length_c 8.165708
_cell_angle_alpha 90.000000
_cell_angle_beta 90.000000
_cell_angle_gamma 90.000000
_cell_volume 2988.735724
_symmetry_space_group_name_H-M "F 2 2 2"
_symmetry_group_IT_number 22
_symmetry_cell_setting 'orthorhombic'
loop_
_space_group_symop_operation_xyz
x,y,z
-x,-y,z
x,-y,-z
-x,y,-z
x,1/2+y,1/2+z
-x,1/2-y,1/2+z
x,1/2-y,1/2-z
-x,1/2+y,1/2-z
1/2+x,y,1/2+z
1/2-x,-y,1/2+z
1/2+x,-y,1/2-z
1/2-x,y,1/2-z
1/2+x,1/2+y,z
1/2-x,1/2-y,z
1/2+x,1/2-y,-z
1/2-x,1/2+y,-z
loop_
_atom_site_type_symbol
_atom_site_label
_atom_site_fract_x
_atom_site_fract_y
_atom_site_fract_z
Si Si1 0.051067 0.617913 0.041992
Si Si2 0.142478 0.712892 0.922436
Si Si3 0.393045 0.910826 0.374735
Si Si4 0.801900 0.871380 0.697613
O O1 0.069867 0.622116 0.230980
O O2 0.046307 0.500000 0.000000
O O3 0.092736 0.653103 0.919993
O O4 0.000000 0.668578 0.000000
O O5 0.160273 0.750000 0.750000
O O6 0.124512 0.812063 0.024395
O O7 0.181939 0.642949 0.010772
O O8 0.343792 0.937545 0.280283
O O9 0.408547 0.000000 0.500000
O O10 0.803500 0.750000 0.750000
O O11 0.750000 0.908649 0.750000
#
# Coordination Sequence:
#
# PCOD9326817 Si02
#       4
#    16  16  16  16
#     4  10  21  38  58  82 110 145 188 232 279 335
#     4  10  20  35  58  85 114 149 184 231 283 330
#     4  10  20  37  57  81 115 151 183 228 280 331
#     4   8  16  34  56  78 112 150 187 229 274 325
#
# _framework density 21.413736
#
# number of rings (size 3 to 8) (size 9 to 14) (size 15 to 20)
#    0.000    2.500    0.000    3.750    0.000    2.000 
#    0.000   25.000    0.000    0.000    0.000    0.000 
#    0.000    0.000    0.000    0.000    0.000    0.000 
#
# Total GULP energy -89075.127180 kJ/mol
# GULP energy per Si atom -5567.195449 kJ/mol
# Density = 2.136500 g / cm^3
# Si number density = 21.413736 Si / 1000 Ang^3
#
#
#
# Elastic Constant Matrix: (Units=GPa)
#
#
# Indices 1 2 3 4 5 6 
#
# 1 145.1782 0.0667 53.4408 0.0000 0.0000 0.0000
# 2 0.0667 27.5374 -1.1355 0.0000 0.0000 0.0000
# 3 53.4408 -1.1355 102.9920 0.0000 0.0000 0.0000
# 4 0.0000 0.0000 0.0000 27.3090 0.0000 0.0000
# 5 0.0000 0.0000 0.0000 0.0000 9.2408 0.0000
# 6 0.0000 0.0000 0.0000 0.0000 0.0000 -3.8446
#
#
#
# Elastic Compliance Matrix: (Units=1/GPa)
#
#
# Indices 1 2 3 4 5 6 
#
# 1 0.008515 -0.000203 -0.004421 0.000000 0.000000 0.000000
# 2 -0.000203 0.036336 0.000506 0.000000 0.000000 0.000000
# 3 -0.004421 0.000506 0.012009 0.000000 0.000000 0.000000
# 4 0.000000 0.000000 0.000000 0.036618 0.000000 0.000000
# 5 0.000000 0.000000 0.000000 0.000000 0.108215 0.000000
# 6 0.000000 0.000000 0.000000 0.000000 0.000000 -0.260108
#
#
# Mechanical properties :
#
#
# Convention : Reuss Voigt Hill
#
# Bulk Modulus (GPa) = 20.56580 42.27239 31.41910
# Shear Modulus (GPa) = -147.18664 21.43010 -62.87827
#
# Velocity S-wave (km/s) = -8.29963 3.16692 -5.42469
# Velocity P-wave (km/s) = 9.06754 5.75814 4.95299
#
# Compressibility (1/GPa) = 0.04862441
#
# Stress axis : x y z
#
# Youngs Moduli (GPa) = 117.43309 27.52124 83.27129
#
# Poissons Ratio (x) = 0.00558 0.36812
# Poissons Ratio (y) = 0.02383 -0.04213
# Poissons Ratio (z) = 0.51915 -0.01392
#
# Static dielectric constant tensor:
#      x y z
#    x 1.859170 0.000000 0.000000 
#    y 0.000000 1.702300 0.000000 
#    z 0.000000 0.000000 2.250050 
# 
# From -- ./inp_files/8504.got.cif
#   From: 2010.05.17/outbox.cif.g08.bks.cpg/sg22_5_cif.got.tgz:8504.got - 2010.06.03 23:40:54.
