data_PCOD9326146
_publ_section_title
;
Structure prediction by ZEFSAII (Michael W. Deem and Ramdas Pophale) SiO2 
 PCOD9326146
Probable space group: F 2 2 2
;
_chemical_formula_sum "Si O2"
_cell_formula_units_Z 68
_cell_length_a 18.182850
_cell_length_b 5.567228
_cell_length_c 25.071927
_cell_angle_alpha 90.000000
_cell_angle_beta 90.000000
_cell_angle_gamma 90.000000
_cell_volume 2537.982823
_symmetry_space_group_name_H-M "F 2 2 2"
_symmetry_group_IT_number 22
_symmetry_cell_setting 'orthorhombic'
loop_
_space_group_symop_operation_xyz
x,y,z
-x,-y,z
x,-y,-z
-x,y,-z
x,1/2+y,1/2+z
-x,1/2-y,1/2+z
x,1/2-y,1/2-z
-x,1/2+y,1/2-z
1/2+x,y,1/2+z
1/2-x,-y,1/2+z
1/2+x,-y,1/2-z
1/2-x,y,1/2-z
1/2+x,1/2+y,z
1/2-x,1/2-y,z
1/2+x,1/2-y,-z
1/2-x,1/2+y,-z
loop_
_atom_site_type_symbol
_atom_site_label
_atom_site_fract_x
_atom_site_fract_y
_atom_site_fract_z
Si Si1 0.005681 0.750196 0.164848
Si Si2 0.332278 0.007328 0.272770
Si Si3 0.500000 0.500000 0.500000
Si Si4 0.352681 0.673113 0.892421
Si Si5 0.876478 0.814744 0.576914
O O1 0.939762 0.777039 0.120957
O O2 0.000000 0.500000 0.193019
O O3 0.081878 0.726309 0.133277
O O4 0.000000 0.000000 0.194111
O O5 0.369452 0.250000 0.250000
O O6 0.250000 0.001378 0.250000
O O7 0.322977 0.079949 0.335210
O O8 0.362855 0.750000 0.250000
O O9 0.442566 0.349982 0.535285
O O10 0.340805 0.446498 0.931210
O O11 0.331124 0.936297 0.915474
#
# Coordination Sequence:
#
# PCOD9326146 Si02
#       5
#    16  16   4  16  16
#     4   8  14  27  42  66  95 147 176 204 259 318
#     4  10  21  37  59  85 108 134 190 265 295 357
#     4  12  20  34  52  90 116 158 216 218 260 322
#     4  10  18  34  50  76 111 152 182 231 308 323
#     4  10  20  30  51  78 115 160 183 236 258 344
#
# _framework density 26.792933999999999
#
# number of rings (size 3 to 8) (size 9 to 14) (size 15 to 20)
#    0.000    2.353    3.529    1.412    0.000    1.882 
#    0.000    0.000    0.000   25.412    0.000    0.000 
#    0.000   75.294    0.000    0.000    0.000    0.000 
#
# Total GULP energy -94760.249726 kJ/mol
# GULP energy per Si atom -5574.132337 kJ/mol
# Density = 2.673195 g / cm^3
# Si number density = 26.792934 Si / 1000 Ang^3
#
#
#
# Elastic Constant Matrix: (Units=GPa)
#
#
# Indices 1 2 3 4 5 6 
#
# 1 73.8479 39.0762 15.6697 0.0000 0.0000 -0.0008
# 2 39.0762 384.8757 53.0700 0.0000 -0.0002 -0.0024
# 3 15.6697 53.0700 94.3251 0.0000 0.0000 -0.0001
# 4 0.0000 0.0000 0.0000 20.4491 0.0003 0.0000
# 5 0.0000 -0.0002 0.0000 0.0003 32.7009 0.0001
# 6 -0.0008 -0.0024 -0.0001 0.0000 0.0001 18.9502
#
#
#
# Elastic Compliance Matrix: (Units=1/GPa)
#
#
# Indices 1 2 3 4 5 6 
#
# 1 0.014563 -0.001241 -0.001721 0.000000 0.000000 0.000000
# 2 -0.001241 0.002923 -0.001438 0.000000 0.000000 0.000000
# 3 -0.001721 -0.001438 0.011697 0.000000 0.000000 0.000000
# 4 0.000000 0.000000 0.000000 0.048902 0.000000 0.000000
# 5 0.000000 0.000000 0.000000 0.000000 0.030580 0.000000
# 6 0.000000 0.000000 0.000000 0.000000 0.000000 0.052770
#
#
# Mechanical properties :
#
#
# Convention : Reuss Voigt Hill
#
# Bulk Modulus (GPa) = 49.06326 85.40894 67.23610
# Shear Modulus (GPa) = 28.24394 44.10222 36.17308
#
# Velocity S-wave (km/s) = 3.25030 4.06154 3.67835
# Velocity P-wave (km/s) = 5.69541 7.34448 6.57188
#
# Compressibility (1/GPa) = 0.02038185
#
# Stress axis : x y z
#
# Youngs Moduli (GPa) = 68.66551 342.16457 85.49460
#
# Poissons Ratio (x) = 0.42473 0.14713
# Poissons Ratio (y) = 0.08524 0.12295
# Poissons Ratio (z) = 0.11817 0.49207
#
# Static dielectric constant tensor:
#      x y z
#    x 2.037480 0.000000 0.000000 
#    y 0.000000 2.288460 0.000000 
#    z 0.000000 0.000000 2.111330 
# 
# From -- ./inp_files/56886.got.cif
#   From: 2010.05.17/outbox.cif.g08.bks.cpg/sg22_29_cif.got.tgz:56886.got - 2010.06.03 23:40:54.
