data_PCOD9326821
_publ_section_title
;
Structure prediction by ZEFSAII (Michael W. Deem and Ramdas Pophale) SiO2 
 PCOD9326821
Probable space group: F 2 2 2
;
_chemical_formula_sum "Si O2"
_cell_formula_units_Z 104
_cell_length_a 18.660053
_cell_length_b 18.225120
_cell_length_c 14.656381
_cell_angle_alpha 90.000000
_cell_angle_beta 90.000000
_cell_angle_gamma 90.000000
_cell_volume 4984.367042
_symmetry_space_group_name_H-M "F 2 2 2"
_symmetry_group_IT_number 22
_symmetry_cell_setting 'orthorhombic'
loop_
_space_group_symop_operation_xyz
x,y,z
-x,-y,z
x,-y,-z
-x,y,-z
x,1/2+y,1/2+z
-x,1/2-y,1/2+z
x,1/2-y,1/2-z
-x,1/2+y,1/2-z
1/2+x,y,1/2+z
1/2-x,-y,1/2+z
1/2+x,-y,1/2-z
1/2-x,y,1/2-z
1/2+x,1/2+y,z
1/2-x,1/2-y,z
1/2+x,1/2-y,-z
1/2-x,1/2+y,-z
loop_
_atom_site_type_symbol
_atom_site_label
_atom_site_fract_x
_atom_site_fract_y
_atom_site_fract_z
Si Si1 0.676413 0.408645 0.592420
Si Si2 0.077751 0.138266 0.778157
Si Si3 0.500000 0.500000 0.806669
Si Si4 0.576614 0.639070 0.258479
Si Si5 0.305501 0.314617 0.900338
Si Si6 0.819715 0.917965 0.617208
Si Si7 0.806285 0.315251 0.615097
O O1 0.621051 0.360383 0.649417
O O2 0.671467 0.494824 0.610924
O O3 0.664311 0.391167 0.486087
O O4 0.756154 0.386686 0.622762
O O5 0.123924 0.190589 0.840849
O O6 0.127373 0.112092 0.694371
O O7 0.003421 0.169413 0.740076
O O8 0.050635 0.067539 0.840474
O O9 0.558359 0.447758 0.757526
O O10 0.625724 0.674537 0.179959
O O11 0.250000 0.250000 0.880184
O O12 0.261840 0.388484 0.871723
O O13 0.323701 0.310794 0.007557
O O14 0.750000 0.250000 0.637426
#
# Coordination Sequence:
#
# PCOD9326821 Si02
#       7
#    16  16   8  16  16  16  16
#     4  10  20  35  59  87 118 161 207 251 300 359
#     4  10  20  37  61  88 123 156 196 249 307 366
#     4   8  20  36  56  98 124 154 192 254 314 370
#     4  10  20  37  61  88 123 156 196 249 307 366
#     4  10  23  41  59  83 120 162 205 252 307 369
#     4  10  20  35  59  87 118 161 207 251 300 359
#     4  10  23  41  59  83 120 162 205 252 307 369
#
# _framework density 20.865238000000002
#
# number of rings (size 3 to 8) (size 9 to 14) (size 15 to 20)
#    0.923    1.231    1.538    0.923    2.154    4.923 
#    0.000    6.154    0.000    5.538    0.000    0.000 
#    0.000    0.000    0.000    0.000    0.000    0.000 
#
# Total GULP energy -144777.504071 kJ/mol
# GULP energy per Si atom -5568.365541 kJ/mol
# Density = 2.081775 g / cm^3
# Si number density = 20.865238 Si / 1000 Ang^3
#
#
#
# Elastic Constant Matrix: (Units=GPa)
#
#
# Indices 1 2 3 4 5 6 
#
# 1 98.0893 -6.2649 53.7476 0.0000 0.0000 0.0000
# 2 -6.2649 43.2102 8.5346 0.0000 0.0000 0.0000
# 3 53.7476 8.5346 76.5319 0.0000 0.0000 0.0000
# 4 0.0000 0.0000 0.0000 -14.6692 0.0000 0.0000
# 5 0.0000 0.0000 0.0000 0.0000 -8.4187 0.0000
# 6 0.0000 0.0000 0.0000 0.0000 0.0000 35.3929
#
#
#
# Elastic Compliance Matrix: (Units=1/GPa)
#
#
# Indices 1 2 3 4 5 6 
#
# 1 0.017610 0.005108 -0.012937 0.000000 0.000000 0.000000
# 2 0.005108 0.025146 -0.006392 0.000000 0.000000 0.000000
# 3 -0.012937 -0.006392 0.022865 0.000000 0.000000 0.000000
# 4 0.000000 0.000000 0.000000 -0.068170 0.000000 0.000000
# 5 0.000000 0.000000 0.000000 0.000000 -0.118784 0.000000
# 6 0.000000 0.000000 0.000000 0.000000 0.000000 0.028254
#
#
# Mechanical properties :
#
#
# Convention : Reuss Voigt Hill
#
# Bulk Modulus (GPa) = 26.89637 36.65178 31.77407
# Shear Modulus (GPa) = -95.70112 13.24861 -41.22625
#
# Velocity S-wave (km/s) = -6.77981 2.52258 -4.44986
# Velocity P-wave (km/s) = 6.95481 5.10770 3.33772
#
# Compressibility (1/GPa) = 0.03717974
#
# Stress axis : x y z
#
# Youngs Moduli (GPa) = 56.78687 39.76817 43.73575
#
# Poissons Ratio (x) = -0.20315 0.56580
# Poissons Ratio (y) = -0.29009 0.27955
# Poissons Ratio (z) = 0.73464 0.25419
#
# Static dielectric constant tensor:
#      x y z
#    x 1.756280 0.000000 0.000000 
#    y 0.000000 1.844590 0.000000 
#    z 0.000000 0.000000 1.725920 
# 
# From -- ./inp_files/30817.got.cif
#   From: 2010.05.17/outbox.cif.g08.bks.cpg/sg22_16_cif.got.tgz:30817.got - 2010.06.03 23:40:54.
