data_PCOD9326908
_publ_section_title
;
Structure prediction by ZEFSAII (Michael W. Deem and Ramdas Pophale) SiO2 
 PCOD9326908
Probable space group: F 2 2 2
;
_chemical_formula_sum "Si O2"
_cell_formula_units_Z 80
_cell_length_a 21.490230
_cell_length_b 21.296359
_cell_length_c 7.593824
_cell_angle_alpha 90.000000
_cell_angle_beta 90.000000
_cell_angle_gamma 90.000000
_cell_volume 3475.417233
_symmetry_space_group_name_H-M "F 2 2 2"
_symmetry_group_IT_number 22
_symmetry_cell_setting 'orthorhombic'
loop_
_space_group_symop_operation_xyz
x,y,z
-x,-y,z
x,-y,-z
-x,y,-z
x,1/2+y,1/2+z
-x,1/2-y,1/2+z
x,1/2-y,1/2-z
-x,1/2+y,1/2-z
1/2+x,y,1/2+z
1/2-x,-y,1/2+z
1/2+x,-y,1/2-z
1/2-x,y,1/2-z
1/2+x,1/2+y,z
1/2-x,1/2-y,z
1/2+x,1/2-y,-z
1/2-x,1/2+y,-z
loop_
_atom_site_type_symbol
_atom_site_label
_atom_site_fract_x
_atom_site_fract_y
_atom_site_fract_z
Si Si1 0.750000 0.346669 0.250000
Si Si2 0.581798 0.250000 0.750000
Si Si3 0.305634 0.173707 0.108114
Si Si4 0.497883 0.372993 0.197595
Si Si5 0.373595 0.581658 0.164611
Si Si6 0.117746 0.059959 0.258623
O O1 0.724586 0.313202 0.421540
O O2 0.692521 0.388798 0.193950
O O3 0.632327 0.216374 0.875803
O O4 0.536259 0.305641 0.812982
O O5 0.250000 0.182738 0.250000
O O6 0.331830 0.102602 0.140198
O O7 0.570478 0.375372 0.241996
O O8 0.451405 0.416247 0.308791
O O9 0.500000 0.400713 0.000000
O O10 0.377220 0.514574 0.261283
O O11 0.376716 0.575622 0.951383
#
# Coordination Sequence:
#
# PCOD9326908 Si02
#       6
#     8   8  16  16  16  16
#     4  12  26  38  69 104 140 173 228 284 344 432
#     4  10  23  42  72  89 132 190 228 294 352 401
#     4  11  23  45  66  99 139 179 227 279 348 413
#     4   9  19  38  64  94 129 177 235 284 342 401
#     4  10  20  36  63 104 137 177 228 278 343 417
#     4   9  19  37  67  93 138 184 222 281 342 407
#
# _framework density 23.018816999999999
#
# number of rings (size 3 to 8) (size 9 to 14) (size 15 to 20)
#    0.000    2.000    2.000    0.900    1.400    4.800 
#    0.000    5.000    0.000    4.800    0.000    0.000 
#    0.000    0.000    0.000    0.000    0.000    0.000 
#
# Total GULP energy -111594.434690 kJ/mol
# GULP energy per Si atom -5579.721734 kJ/mol
# Density = 2.296642 g / cm^3
# Si number density = 23.018817 Si / 1000 Ang^3
#
#
#
# Elastic Constant Matrix: (Units=GPa)
#
#
# Indices 1 2 3 4 5 6 
#
# 1 199.4305 64.3643 32.0527 0.0021 0.0006 0.0005
# 2 64.3643 91.5445 22.2203 0.0002 -0.0001 0.0004
# 3 32.0527 22.2203 84.7254 0.0042 0.0025 0.0019
# 4 0.0021 0.0002 0.0042 89.7161 -0.0039 -0.0032
# 5 0.0006 -0.0001 0.0025 -0.0039 19.8302 -0.0012
# 6 0.0005 0.0004 0.0019 -0.0032 -0.0012 32.2562
#
#
#
# Elastic Compliance Matrix: (Units=1/GPa)
#
#
# Indices 1 2 3 4 5 6 
#
# 1 0.006632 -0.004330 -0.001374 0.000000 0.000000 0.000000
# 2 -0.004330 0.014493 -0.002163 0.000000 0.000000 0.000000
# 3 -0.001374 -0.002163 0.012890 -0.000001 -0.000002 -0.000001
# 4 0.000000 0.000000 -0.000001 0.011146 0.000002 0.000001
# 5 0.000000 0.000000 -0.000002 0.000002 0.050428 0.000002
# 6 0.000000 0.000000 -0.000001 0.000001 0.000002 0.031002
#
#
# Mechanical properties :
#
#
# Convention : Reuss Voigt Hill
#
# Bulk Modulus (GPa) = 54.69732 68.10835 61.40284
# Shear Modulus (GPa) = 33.68859 45.49803 39.59331
#
# Velocity S-wave (km/s) = 3.82975 4.45067 4.15184
# Velocity P-wave (km/s) = 6.58556 7.48757 7.05100
#
# Compressibility (1/GPa) = 0.01828243
#
# Stress axis : x y z
#
# Youngs Moduli (GPa) = 150.77380 68.99924 77.58106
#
# Poissons Ratio (x) = 0.29875 0.10656
# Poissons Ratio (y) = 0.65282 0.16780
# Poissons Ratio (z) = 0.20710 0.14924
#
# Static dielectric constant tensor:
#      x y z
#    x 1.644180 0.000000 0.000000 
#    y 0.000000 1.900290 0.000000 
#    z 0.000000 0.000000 1.907160 
# 
# From -- ./inp_files/12566.got.cif
#   From: 2010.05.17/outbox.cif.g08.bks.cpg/sg22_7_cif.got.tgz:12566.got - 2010.06.03 23:40:54.
