data_PCOD9326024
_publ_section_title
;
Structure prediction by ZEFSAII (Michael W. Deem and Ramdas Pophale) SiO2 
 PCOD9326024
Probable space group: F 2 2 2
;
_chemical_formula_sum "Si O2"
_cell_formula_units_Z 116
_cell_length_a 12.768826
_cell_length_b 27.628831
_cell_length_c 14.853022
_cell_angle_alpha 90.000000
_cell_angle_beta 90.000000
_cell_angle_gamma 90.000000
_cell_volume 5239.963999
_symmetry_space_group_name_H-M "F 2 2 2"
_symmetry_group_IT_number 22
_symmetry_cell_setting 'orthorhombic'
loop_
_space_group_symop_operation_xyz
x,y,z
-x,-y,z
x,-y,-z
-x,y,-z
x,1/2+y,1/2+z
-x,1/2-y,1/2+z
x,1/2-y,1/2-z
-x,1/2+y,1/2-z
1/2+x,y,1/2+z
1/2-x,-y,1/2+z
1/2+x,-y,1/2-z
1/2-x,y,1/2-z
1/2+x,1/2+y,z
1/2-x,1/2-y,z
1/2+x,1/2-y,-z
1/2-x,1/2+y,-z
loop_
_atom_site_type_symbol
_atom_site_label
_atom_site_fract_x
_atom_site_fract_y
_atom_site_fract_z
Si Si1 0.439111 0.089699 0.665490
Si Si2 0.250000 0.250000 0.250000
Si Si3 0.864669 0.594866 0.247508
Si Si4 0.077021 0.311854 0.148292
Si Si5 0.617966 0.871092 0.987348
Si Si6 0.640937 0.174280 0.208315
Si Si7 0.725843 0.947595 0.538477
Si Si8 0.609497 0.511649 0.679084
O O1 0.564873 0.093622 0.662740
O O2 0.392917 0.137381 0.712340
O O3 0.377113 0.077728 0.576151
O O4 0.417345 0.045804 0.736086
O O5 0.170143 0.281947 0.191577
O O6 0.750000 0.615751 0.250000
O O7 0.924817 0.632387 0.183835
O O8 0.854917 0.540730 0.211724
O O9 0.961428 0.293814 0.178907
O O10 0.106613 0.321694 0.044783
O O11 0.652078 0.856084 0.885800
O O12 0.704311 0.910045 0.019274
O O13 0.500000 0.892314 0.000000
O O14 0.750000 0.194606 0.250000
O O15 0.805071 0.961819 0.619816
O O16 0.699119 0.000000 0.500000
O O17 0.500000 0.500000 0.629385
#
# Coordination Sequence:
#
# PCOD9326024 Si02
#       8
#    16   4  16  16  16  16  16  16
#     4  10  19  34  54  88 122 179 224 268 331 381
#     4  12  24  52  74  88 134 156 224 266 368 440
#     4  10  19  35  59  86 113 158 232 268 318 403
#     4  10  23  39  68  99 117 171 212 284 342 414
#     4  10  21  35  60  96 135 168 227 283 329 386
#     4  10  17  37  69  95 131 170 220 267 342 410
#     4  12  22  30  52  87 137 182 226 277 332 376
#     4  10  20  31  52  83 121 173 224 272 304 372
#
# _framework density 22.137557000000001
#
# number of rings (size 3 to 8) (size 9 to 14) (size 15 to 20)
#    0.000    1.655    3.448    2.069    3.862    0.000 
#    0.000    0.345    9.103   21.103    0.000    0.000 
#    0.000    0.000    0.000    0.000    0.000    0.000 
#
# Total GULP energy -161646.933051 kJ/mol
# GULP energy per Si atom -5574.032174 kJ/mol
# Density = 2.208717 g / cm^3
# Si number density = 22.137557 Si / 1000 Ang^3
#
#
#
# Elastic Constant Matrix: (Units=GPa)
#
#
# Indices 1 2 3 4 5 6 
#
# 1 168.5714 25.3584 52.5488 0.0000 0.0000 0.0000
# 2 25.3584 58.5753 15.3512 0.0000 0.0000 0.0000
# 3 52.5488 15.3512 60.7049 0.0000 0.0000 0.0000
# 4 0.0000 0.0000 0.0000 19.2024 0.0000 0.0000
# 5 0.0000 0.0000 0.0000 0.0000 25.2578 0.0000
# 6 0.0000 0.0000 0.0000 0.0000 0.0000 16.9136
#
#
#
# Elastic Compliance Matrix: (Units=1/GPa)
#
#
# Indices 1 2 3 4 5 6 
#
# 1 0.008304 -0.001833 -0.006725 0.000000 0.000000 0.000000
# 2 -0.001833 0.018688 -0.003140 0.000000 0.000000 0.000000
# 3 -0.006725 -0.003140 0.023089 0.000000 0.000000 0.000000
# 4 0.000000 0.000000 0.000000 0.052077 0.000000 0.000000
# 5 0.000000 0.000000 0.000000 0.000000 0.039592 0.000000
# 6 0.000000 0.000000 0.000000 0.000000 0.000000 0.059124
#
#
# Mechanical properties :
#
#
# Convention : Reuss Voigt Hill
#
# Bulk Modulus (GPa) = 37.47198 52.70760 45.08979
# Shear Modulus (GPa) = 21.44414 25.24764 23.34589
#
# Velocity S-wave (km/s) = 3.11573 3.38078 3.25096
# Velocity P-wave (km/s) = 5.46876 6.25303 5.87400
#
# Compressibility (1/GPa) = 0.02668661
#
# Stress axis : x y z
#
# Youngs Moduli (GPa) = 120.41936 53.50969 43.31131
#
# Poissons Ratio (x) = 0.09806 0.29127
# Poissons Ratio (y) = 0.22068 0.13598
# Poissons Ratio (z) = 0.80984 0.16800
#
# Static dielectric constant tensor:
#      x y z
#    x 1.957370 0.000000 0.000000 
#    y 0.000000 1.784910 0.000000 
#    z 0.000000 0.000000 1.899950 
# 
# From -- ./inp_files/36479.got.cif
#   From: 2010.05.17/outbox.cif.g08.bks.cpg/sg22_19_cif.got.tgz:36479.got - 2010.06.03 23:40:54.
