data_PCOD9326238
_publ_section_title
;
Structure prediction by ZEFSAII (Michael W. Deem and Ramdas Pophale) SiO2 
 PCOD9326238
Probable space group: F 2 2 2
;
_chemical_formula_sum "Si O2"
_cell_formula_units_Z 104
_cell_length_a 16.781972
_cell_length_b 15.719151
_cell_length_c 18.431158
_cell_angle_alpha 90.000000
_cell_angle_beta 90.000000
_cell_angle_gamma 90.000000
_cell_volume 4862.109105
_symmetry_space_group_name_H-M "F 2 2 2"
_symmetry_group_IT_number 22
_symmetry_cell_setting 'orthorhombic'
loop_
_space_group_symop_operation_xyz
x,y,z
-x,-y,z
x,-y,-z
-x,y,-z
x,1/2+y,1/2+z
-x,1/2-y,1/2+z
x,1/2-y,1/2-z
-x,1/2+y,1/2-z
1/2+x,y,1/2+z
1/2-x,-y,1/2+z
1/2+x,-y,1/2-z
1/2-x,y,1/2-z
1/2+x,1/2+y,z
1/2-x,1/2-y,z
1/2+x,1/2-y,-z
1/2-x,1/2+y,-z
loop_
_atom_site_type_symbol
_atom_site_label
_atom_site_fract_x
_atom_site_fract_y
_atom_site_fract_z
Si Si1 0.382719 0.440835 0.186131
Si Si2 0.750000 0.250000 0.921797
Si Si3 0.911943 0.983332 0.584511
Si Si4 0.440023 0.129443 0.685839
Si Si5 0.559431 0.687200 0.647007
Si Si6 0.884946 0.182414 0.685701
Si Si7 0.747243 0.931276 0.437736
O O1 0.391017 0.542595 0.183367
O O2 0.469249 0.399692 0.168421
O O3 0.364929 0.400569 0.265242
O O4 0.316138 0.422544 0.126916
O O5 0.819346 0.276396 0.865427
O O6 0.745353 0.335566 0.968813
O O7 0.896376 0.884095 0.600466
O O8 0.922708 0.000000 0.500000
O O9 0.832464 0.039437 0.596281
O O10 0.000000 0.000000 0.620373
O O11 0.419012 0.213487 0.639581
O O12 0.432134 0.159465 0.769082
O O13 0.464158 0.676899 0.636892
O O14 0.902494 0.250000 0.750000
O O15 0.727866 0.000000 0.500000
#
# Coordination Sequence:
#
# PCOD9326238 Si02
#       7
#    16   8  16  16  16  16  16
#     4  10  20  37  62  94 131 156 208 263 328 383
#     4  12  23  38  64  94 130 155 214 268 332 377
#     4  10  23  41  61  86 122 169 220 263 309 378
#     4   9  19  35  62  95 124 165 199 262 333 386
#     4  10  18  37  61  90 127 162 208 255 323 391
#     4  11  19  35  63 101 128 154 200 275 337 374
#     4  11  25  44  60  89 128 173 215 262 316 375
#
# _framework density 21.389894000000002
#
# number of rings (size 3 to 8) (size 9 to 14) (size 15 to 20)
#    0.000    1.692    4.615    1.154    6.462    0.000 
#    5.538    1.538    0.000    1.846    0.000    0.000 
#    0.000    0.000    0.000    0.000    0.000    0.000 
#
# Total GULP energy -144849.821203 kJ/mol
# GULP energy per Si atom -5571.146969 kJ/mol
# Density = 2.134121 g / cm^3
# Si number density = 21.389894 Si / 1000 Ang^3
#
#
#
# Elastic Constant Matrix: (Units=GPa)
#
#
# Indices 1 2 3 4 5 6 
#
# 1 39.2248 33.2220 17.4175 0.0000 0.0000 0.0000
# 2 33.2220 234.0360 37.8031 0.0000 0.0000 0.0000
# 3 17.4175 37.8031 46.5623 0.0000 0.0000 0.0000
# 4 0.0000 0.0000 0.0000 35.5407 0.0000 0.0000
# 5 0.0000 0.0000 0.0000 0.0000 -1.9311 0.0000
# 6 0.0000 0.0000 0.0000 0.0000 0.0000 29.8147
#
#
#
# Elastic Compliance Matrix: (Units=1/GPa)
#
#
# Indices 1 2 3 4 5 6 
#
# 1 0.032343 -0.003035 -0.009634 0.000000 0.000000 0.000000
# 2 -0.003035 0.005203 -0.003089 0.000000 0.000000 0.000000
# 3 -0.009634 -0.003089 0.027588 0.000000 0.000000 0.000000
# 4 0.000000 0.000000 0.000000 0.028137 0.000000 0.000000
# 5 0.000000 0.000000 0.000000 0.000000 -0.517851 0.000000
# 6 0.000000 0.000000 0.000000 0.000000 0.000000 0.033540
#
#
# Mechanical properties :
#
#
# Convention : Reuss Voigt Hill
#
# Bulk Modulus (GPa) = 29.74641 55.18984 42.46813
# Shear Modulus (GPa) = -14.35467 28.11022 6.87778
#
# Velocity S-wave (km/s) = -2.59336 3.62910 1.79511
# Velocity P-wave (km/s) = 2.22926 6.58926 4.91873
#
# Compressibility (1/GPa) = 0.03361750
#
# Stress axis : x y z
#
# Youngs Moduli (GPa) = 30.91890 192.21331 36.24749
#
# Poissons Ratio (x) = 0.58335 0.34922
# Poissons Ratio (y) = 0.09384 0.11195
# Poissons Ratio (z) = 0.29789 0.59367
#
# Static dielectric constant tensor:
#      x y z
#    x 1.836630 0.000000 0.000000 
#    y 0.000000 1.931540 0.000000 
#    z 0.000000 0.000000 1.779620 
# 
# From -- ./inp_files/44273.got.cif
#   From: 2010.05.17/outbox.cif.g08.bks.cpg/sg22_23_cif.got.tgz:44273.got - 2010.06.03 23:40:54.
