data_PCOD9326335
_publ_section_title
;
Structure prediction by ZEFSAII (Michael W. Deem and Ramdas Pophale) SiO2 
 PCOD9326335
Probable space group: F 2 2 2
;
_chemical_formula_sum "Si O2"
_cell_formula_units_Z 96
_cell_length_a 22.704583
_cell_length_b 13.784850
_cell_length_c 17.096859
_cell_angle_alpha 90.000000
_cell_angle_beta 90.000000
_cell_angle_gamma 90.000000
_cell_volume 5350.962466
_symmetry_space_group_name_H-M "F 2 2 2"
_symmetry_group_IT_number 22
_symmetry_cell_setting 'orthorhombic'
loop_
_space_group_symop_operation_xyz
x,y,z
-x,-y,z
x,-y,-z
-x,y,-z
x,1/2+y,1/2+z
-x,1/2-y,1/2+z
x,1/2-y,1/2-z
-x,1/2+y,1/2-z
1/2+x,y,1/2+z
1/2-x,-y,1/2+z
1/2+x,-y,1/2-z
1/2-x,y,1/2-z
1/2+x,1/2+y,z
1/2-x,1/2-y,z
1/2+x,1/2-y,-z
1/2-x,1/2+y,-z
loop_
_atom_site_type_symbol
_atom_site_label
_atom_site_fract_x
_atom_site_fract_y
_atom_site_fract_z
Si Si1 0.025705 0.391982 0.170007
Si Si2 0.549241 0.750741 0.930848
Si Si3 0.623243 0.893279 0.032489
Si Si4 0.311892 0.302609 0.344502
Si Si5 0.119800 0.122945 0.203260
Si Si6 0.068330 0.529730 0.410253
O O1 0.073833 0.398222 0.100591
O O2 0.059151 0.364753 0.249355
O O3 0.000000 0.500000 0.178912
O O4 0.979548 0.313271 0.138842
O O5 0.570998 0.645679 0.904162
O O6 0.500000 0.735384 0.000000
O O7 0.599602 0.817119 0.969367
O O8 0.682224 0.858885 0.075089
O O9 0.629048 0.000000 0.000000
O O10 0.250000 0.250000 0.335568
O O11 0.361811 0.217645 0.345786
O O12 0.330395 0.372029 0.271896
O O13 0.110073 0.030321 0.148595
O O14 0.081368 0.500000 0.500000
O O15 0.000000 0.500000 0.395441
#
# Coordination Sequence:
#
# PCOD9326335 Si02
#       6
#    16  16  16  16  16  16
#     4  10  19  33  53  83 118 159 192 231 285 356
#     4  10  19  32  52  79 120 164 189 227 287 361
#     4  10  19  35  60  83 117 152 192 245 299 349
#     4  10  22  40  63  83 108 148 208 262 297 331
#     4  10  21  35  55  79 112 151 201 246 289 347
#     4  11  21  33  49  79 124 162 191 231 294 354
#
# _framework density 17.940697
#
# number of rings (size 3 to 8) (size 9 to 14) (size 15 to 20)
#    0.000    1.833    3.333    2.500    7.000    0.000 
#    0.000    2.500    0.000    0.000    0.000    0.000 
#    5.000    0.000    0.000    0.000    0.000    0.000 
#
# Total GULP energy -133868.588031 kJ/mol
# GULP energy per Si atom -5577.857835 kJ/mol
# Density = 1.789986 g / cm^3
# Si number density = 17.940697 Si / 1000 Ang^3
#
#
#
# Elastic Constant Matrix: (Units=GPa)
#
#
# Indices 1 2 3 4 5 6 
#
# 1 65.1601 51.9609 42.1573 0.0000 0.0000 0.0000
# 2 51.9609 174.7079 67.7641 0.0000 0.0000 0.0000
# 3 42.1573 67.7641 78.1124 0.0000 0.0000 0.0000
# 4 0.0000 0.0000 0.0000 33.0468 0.0000 0.0000
# 5 0.0000 0.0000 0.0000 0.0000 13.5988 0.0000
# 6 0.0000 0.0000 0.0000 0.0000 0.0000 23.9753
#
#
#
# Elastic Compliance Matrix: (Units=1/GPa)
#
#
# Indices 1 2 3 4 5 6 
#
# 1 0.024774 -0.003289 -0.010517 0.000000 0.000000 0.000000
# 2 -0.003289 0.009063 -0.006088 0.000000 0.000000 0.000000
# 3 -0.010517 -0.006088 0.023759 0.000000 0.000000 0.000000
# 4 0.000000 0.000000 0.000000 0.030260 0.000000 0.000000
# 5 0.000000 0.000000 0.000000 0.000000 0.073536 0.000000
# 6 0.000000 0.000000 0.000000 0.000000 0.000000 0.041710
#
#
# Mechanical properties :
#
#
# Convention : Reuss Voigt Hill
#
# Bulk Modulus (GPa) = 56.15131 71.30503 63.72817
# Shear Modulus (GPa) = 20.09438 24.53073 22.31255
#
# Velocity S-wave (km/s) = 3.35034 3.70174 3.53042
# Velocity P-wave (km/s) = 6.80680 7.62245 7.22614
#
# Compressibility (1/GPa) = 0.01780902
#
# Stress axis : x y z
#
# Youngs Moduli (GPa) = 40.36493 110.33708 42.08862
#
# Poissons Ratio (x) = 0.36287 0.44267
# Poissons Ratio (y) = 0.13275 0.25622
# Poissons Ratio (z) = 0.42454 0.67168
#
# Static dielectric constant tensor:
#      x y z
#    x 1.629520 0.000000 0.000000 
#    y 0.000000 1.614030 0.000000 
#    z 0.000000 0.000000 1.659560 
# 
# From -- ./inp_files/39955.got.cif
#   From: 2010.05.17/outbox.cif.g08.bks.cpg/sg22_20_cif.got.tgz:39955.got - 2010.06.03 23:40:54.
