data_PCOD9326494
_publ_section_title
;
Structure prediction by ZEFSAII (Michael W. Deem and Ramdas Pophale) SiO2 
 PCOD9326494
Probable space group: F 2 2 2
;
_chemical_formula_sum "Si O2"
_cell_formula_units_Z 68
_cell_length_a 9.506296
_cell_length_b 21.090609
_cell_length_c 17.278502
_cell_angle_alpha 90.000000
_cell_angle_beta 90.000000
_cell_angle_gamma 90.000000
_cell_volume 3464.228584
_symmetry_space_group_name_H-M "F 2 2 2"
_symmetry_group_IT_number 22
_symmetry_cell_setting 'orthorhombic'
loop_
_space_group_symop_operation_xyz
x,y,z
-x,-y,z
x,-y,-z
-x,y,-z
x,1/2+y,1/2+z
-x,1/2-y,1/2+z
x,1/2-y,1/2-z
-x,1/2+y,1/2-z
1/2+x,y,1/2+z
1/2-x,-y,1/2+z
1/2+x,-y,1/2-z
1/2-x,y,1/2-z
1/2+x,1/2+y,z
1/2-x,1/2-y,z
1/2+x,1/2-y,-z
1/2-x,1/2+y,-z
loop_
_atom_site_type_symbol
_atom_site_label
_atom_site_fract_x
_atom_site_fract_y
_atom_site_fract_z
Si Si1 0.259523 0.678444 0.900012
Si Si2 0.069111 0.336688 0.664951
Si Si3 0.692586 0.391303 0.445374
Si Si4 0.500000 0.000000 0.000000
Si Si5 0.469958 0.311530 0.667426
O O1 0.250000 0.750000 0.935302
O O2 0.409138 0.659596 0.864755
O O3 0.138653 0.684241 0.835029
O O4 0.230589 0.628950 0.968006
O O5 0.173093 0.377419 0.610827
O O6 0.081156 0.348990 0.756729
O O7 0.087962 0.259996 0.664043
O O8 0.607242 0.457033 0.449440
O O9 0.580030 0.342895 0.410867
#
# Coordination Sequence:
#
# PCOD9326494 Si02
#       5
#    16  16  16   4  16
#     4  10  19  35  62  98 132 158 189 248 323 390
#     4  10  21  34  65 104 127 151 194 259 326 389
#     4  12  22  40  61  80 123 168 226 251 303 366
#     4  12  28  44  62  76 124 192 224 278 312 336
#     4  10  19  37  63  99 135 155 183 252 336 393
#
# _framework density 19.629189
#
# number of rings (size 3 to 8) (size 9 to 14) (size 15 to 20)
#    0.000    1.412    2.353    4.235    0.000    8.471 
#    0.000    2.353   10.353    0.000    0.000    0.000 
#    0.000    0.000    0.000    0.000    0.000    0.000 
#
# Total GULP energy -94690.048606 kJ/mol
# GULP energy per Si atom -5570.002859 kJ/mol
# Density = 1.958451 g / cm^3
# Si number density = 19.629189 Si / 1000 Ang^3
#
#
#
# Elastic Constant Matrix: (Units=GPa)
#
#
# Indices 1 2 3 4 5 6 
#
# 1 152.0181 26.5384 37.2786 0.0000 0.0000 0.0000
# 2 26.5384 52.0002 27.0794 0.0000 0.0000 0.0000
# 3 37.2786 27.0794 89.9752 0.0000 0.0000 0.0000
# 4 0.0000 0.0000 0.0000 -2.8903 0.0000 0.0000
# 5 0.0000 0.0000 0.0000 0.0000 12.3251 0.0000
# 6 0.0000 0.0000 0.0000 0.0000 0.0000 39.8458
#
#
#
# Elastic Compliance Matrix: (Units=1/GPa)
#
#
# Indices 1 2 3 4 5 6 
#
# 1 0.007621 -0.002662 -0.002356 0.000000 0.000000 0.000000
# 2 -0.002662 0.023735 -0.006040 0.000000 0.000000 0.000000
# 3 -0.002356 -0.006040 0.013908 0.000000 0.000000 0.000000
# 4 0.000000 0.000000 0.000000 -0.345983 0.000000 0.000000
# 5 0.000000 0.000000 0.000000 0.000000 0.081135 0.000000
# 6 0.000000 0.000000 0.000000 0.000000 0.000000 0.025097
#
#
# Mechanical properties :
#
#
# Convention : Reuss Voigt Hill
#
# Bulk Modulus (GPa) = 43.20325 52.86514 48.03420
# Shear Modulus (GPa) = -30.36673 23.39591 -3.48541
#
# Velocity S-wave (km/s) = -3.93748 3.45613 -1.33397
# Velocity P-wave (km/s) = 1.17719 6.55109 4.70651
#
# Compressibility (1/GPa) = 0.02314640
#
# Stress axis : x y z
#
# Youngs Moduli (GPa) = 131.22123 42.13195 71.89935
#
# Poissons Ratio (x) = 0.11217 0.16941
# Poissons Ratio (y) = 0.34934 0.43430
# Poissons Ratio (z) = 0.30918 0.25449
#
# Static dielectric constant tensor:
#      x y z
#    x 1.790800 0.000000 0.000000 
#    y 0.000000 1.682750 0.000000 
#    z 0.000000 0.000000 1.689400 
# 
# From -- ./inp_files/11246.got.cif
#   From: 2010.05.17/outbox.cif.g08.bks.cpg/sg22_6_cif.got.tgz:11246.got - 2010.06.03 23:40:54.
