data_PCOD9326606
_publ_section_title
;
Structure prediction by ZEFSAII (Michael W. Deem and Ramdas Pophale) SiO2 
 PCOD9326606
Probable space group: F 2 2 2
;
_chemical_formula_sum "Si O2"
_cell_formula_units_Z 108
_cell_length_a 11.728991
_cell_length_b 16.049539
_cell_length_c 27.653139
_cell_angle_alpha 90.000000
_cell_angle_beta 90.000000
_cell_angle_gamma 90.000000
_cell_volume 5205.562344
_symmetry_space_group_name_H-M "F 2 2 2"
_symmetry_group_IT_number 22
_symmetry_cell_setting 'orthorhombic'
loop_
_space_group_symop_operation_xyz
x,y,z
-x,-y,z
x,-y,-z
-x,y,-z
x,1/2+y,1/2+z
-x,1/2-y,1/2+z
x,1/2-y,1/2-z
-x,1/2+y,1/2-z
1/2+x,y,1/2+z
1/2-x,-y,1/2+z
1/2+x,-y,1/2-z
1/2-x,y,1/2-z
1/2+x,1/2+y,z
1/2-x,1/2-y,z
1/2+x,1/2-y,-z
1/2-x,1/2+y,-z
loop_
_atom_site_type_symbol
_atom_site_label
_atom_site_fract_x
_atom_site_fract_y
_atom_site_fract_z
Si Si1 0.647955 0.366993 0.026844
Si Si2 0.578391 0.582510 0.637912
Si Si3 0.500000 0.500000 0.000000
Si Si4 0.841233 0.544977 0.630514
Si Si5 0.070633 0.107061 0.170500
Si Si6 0.250000 0.117251 0.250000
Si Si7 0.557673 0.712245 0.301161
Si Si8 0.095958 0.673974 0.035759
O O1 0.592085 0.427005 0.986935
O O2 0.636310 0.414670 0.078249
O O3 0.780898 0.354937 0.017701
O O4 0.598046 0.274693 0.034919
O O5 0.500000 0.500000 0.635096
O O6 0.711253 0.560309 0.646073
O O7 0.526458 0.643792 0.677979
O O8 0.576263 0.635153 0.588311
O O9 0.937279 0.581995 0.666981
O O10 0.131368 0.552918 0.629471
O O11 0.144855 0.080444 0.218366
O O12 0.074118 0.206333 0.166070
O O13 0.321305 0.170187 0.210975
O O14 0.515730 0.750000 0.250000
O O15 0.000000 0.643067 0.000000
#
# Coordination Sequence:
#
# PCOD9326606 Si02
#       8
#    16  16   4  16  16   8  16  16
#     4  10  22  39  66  96 133 173 213 287 335 407
#     4  11  24  41  67  97 129 175 229 281 333 418
#     4  12  20  36  66 100 130 160 236 270 332 400
#     4  10  22  40  60  93 129 168 216 276 342 392
#     4  10  19  38  62  85 124 169 215 263 335 397
#     4  10  21  40  62  86 124 169 216 273 330 384
#     4  10  21  41  66  90 128 175 217 278 338 396
#     4  10  22  44  68  93 138 180 218 275 355 409
#
# _framework density 20.747038
#
# number of rings (size 3 to 8) (size 9 to 14) (size 15 to 20)
#    0.000    1.778    0.741    4.667    0.000    4.444 
#   21.333    3.704    9.778    0.000    0.000    0.000 
#    0.000    0.000    0.000    0.000    0.000    0.000 
#
# Total GULP energy -150335.308857 kJ/mol
# GULP energy per Si atom -5567.974402 kJ/mol
# Density = 2.069982 g / cm^3
# Si number density = 20.747038 Si / 1000 Ang^3
#
#
#
# Elastic Constant Matrix: (Units=GPa)
#
#
# Indices 1 2 3 4 5 6 
#
# 1 171.8097 73.9642 71.2681 0.0000 0.0000 0.0000
# 2 73.9642 124.6186 32.7149 0.0000 0.0000 0.0000
# 3 71.2681 32.7149 44.6368 0.0000 0.0000 0.0000
# 4 0.0000 0.0000 0.0000 15.7779 0.0000 0.0000
# 5 0.0000 0.0000 0.0000 0.0000 27.9722 0.0000
# 6 0.0000 0.0000 0.0000 0.0000 0.0000 28.4183
#
#
#
# Elastic Compliance Matrix: (Units=1/GPa)
#
#
# Indices 1 2 3 4 5 6 
#
# 1 0.018751 -0.004049 -0.026972 0.000000 0.000000 0.000000
# 2 -0.004049 0.010811 -0.001459 0.000000 0.000000 0.000000
# 3 -0.026972 -0.001459 0.066535 0.000000 0.000000 0.000000
# 4 0.000000 0.000000 0.000000 0.063380 0.000000 0.000000
# 5 0.000000 0.000000 0.000000 0.000000 0.035750 0.000000
# 6 0.000000 0.000000 0.000000 0.000000 0.000000 0.035189
#
#
# Mechanical properties :
#
#
# Convention : Reuss Voigt Hill
#
# Bulk Modulus (GPa) = 32.11370 77.43994 54.77682
# Shear Modulus (GPa) = 16.35303 25.30819 20.83061
#
# Velocity S-wave (km/s) = 2.81055 3.49642 3.17208
# Velocity P-wave (km/s) = 5.10339 7.32849 6.31472
#
# Compressibility (1/GPa) = 0.03113936
#
# Stress axis : x y z
#
# Youngs Moduli (GPa) = 53.32913 92.50252 15.02958
#
# Poissons Ratio (x) = 0.37453 0.40537
# Poissons Ratio (y) = 0.21592 0.02192
# Poissons Ratio (z) = 1.43837 0.13492
#
# Static dielectric constant tensor:
#      x y z
#    x 1.758960 0.000000 0.000000 
#    y 0.000000 1.770530 0.000000 
#    z 0.000000 0.000000 1.827850 
# 
# From -- ./inp_files/56131.got.cif
#   From: 2010.05.17/outbox.cif.g08.bks.cpg/sg22_29_cif.got.tgz:56131.got - 2010.06.03 23:40:54.
