data_PCOD9326488
_publ_section_title
;
Structure prediction by ZEFSAII (Michael W. Deem and Ramdas Pophale) SiO2 
 PCOD9326488
Probable space group: F 2 2 2
;
_chemical_formula_sum "Si O2"
_cell_formula_units_Z 68
_cell_length_a 29.273011
_cell_length_b 14.005328
_cell_length_c 8.767508
_cell_angle_alpha 90.000000
_cell_angle_beta 90.000000
_cell_angle_gamma 90.000000
_cell_volume 3594.486452
_symmetry_space_group_name_H-M "F 2 2 2"
_symmetry_group_IT_number 22
_symmetry_cell_setting 'orthorhombic'
loop_
_space_group_symop_operation_xyz
x,y,z
-x,-y,z
x,-y,-z
-x,y,-z
x,1/2+y,1/2+z
-x,1/2-y,1/2+z
x,1/2-y,1/2-z
-x,1/2+y,1/2-z
1/2+x,y,1/2+z
1/2-x,-y,1/2+z
1/2+x,-y,1/2-z
1/2-x,y,1/2-z
1/2+x,1/2+y,z
1/2-x,1/2-y,z
1/2+x,1/2-y,-z
1/2-x,1/2+y,-z
loop_
_atom_site_type_symbol
_atom_site_label
_atom_site_fract_x
_atom_site_fract_y
_atom_site_fract_z
Si Si1 0.875999 0.768189 0.570967
Si Si2 0.250000 0.250000 0.250000
Si Si3 0.310976 0.407642 0.415173
Si Si4 0.869080 0.086213 0.884434
Si Si5 0.958677 0.693036 0.397789
O O1 0.876294 0.750000 0.750000
O O2 0.848374 0.862003 0.528483
O O3 0.852850 0.681002 0.475569
O O4 0.927204 0.763132 0.502423
O O5 0.277601 0.323465 0.358981
O O6 0.290136 0.500000 0.500000
O O7 0.338842 0.433826 0.262202
O O8 0.921638 0.113833 0.846112
O O9 0.868432 0.000000 0.000000
O O10 0.974967 0.750000 0.250000
O O11 0.000000 0.656180 0.500000
#
# Coordination Sequence:
#
# PCOD9326488 Si02
#       5
#    16   4  16  16  16
#     4  10  19  39  63  93 125 177 219 267 321 405
#     4  12  24  52  66 106 144 160 214 304 332 410
#     4  12  24  45  74  93 133 176 217 270 347 412
#     4  10  20  39  65  91 130 174 220 270 331 402
#     4  10  19  35  61  89 133 175 225 285 333 375
#
# _framework density 18.917862
#
# number of rings (size 3 to 8) (size 9 to 14) (size 15 to 20)
#    1.412    0.000    4.706    2.118    0.000    1.412 
#    4.235    0.000    0.000    0.706    0.000    0.000 
#    0.000    0.000    0.000    0.000    0.000    0.000 
#
# Total GULP energy -94647.097287 kJ/mol
# GULP energy per Si atom -5567.476311 kJ/mol
# Density = 1.887480 g / cm^3
# Si number density = 18.917862 Si / 1000 Ang^3
#
#
#
# Elastic Constant Matrix: (Units=GPa)
#
#
# Indices 1 2 3 4 5 6 
#
# 1 67.7995 24.3675 22.0288 0.0000 0.0000 0.0000
# 2 24.3675 84.0953 25.4605 0.0000 0.0000 0.0000
# 3 22.0288 25.4605 120.3111 0.0000 0.0000 0.0000
# 4 0.0000 0.0000 0.0000 43.0740 0.0000 0.0000
# 5 0.0000 0.0000 0.0000 0.0000 19.8408 0.0000
# 6 0.0000 0.0000 0.0000 0.0000 0.0000 -260.0050
#
#
#
# Elastic Compliance Matrix: (Units=1/GPa)
#
#
# Indices 1 2 3 4 5 6 
#
# 1 0.016997 -0.004256 -0.002212 0.000000 0.000000 0.000000
# 2 -0.004256 0.013771 -0.002135 0.000000 0.000000 0.000000
# 3 -0.002212 -0.002135 0.009169 0.000000 0.000000 0.000000
# 4 0.000000 0.000000 0.000000 0.023216 0.000000 0.000000
# 5 0.000000 0.000000 0.000000 0.000000 0.050401 0.000000
# 6 0.000000 0.000000 0.000000 0.000000 0.000000 -0.003846
#
#
# Mechanical properties :
#
#
# Convention : Reuss Voigt Hill
#
# Bulk Modulus (GPa) = 43.99030 46.21327 45.10179
# Shear Modulus (GPa) = 37.17762 -26.06144 5.55809
#
# Velocity S-wave (km/s) = 4.43788 -3.71564 1.71592
# Velocity P-wave (km/s) = 7.04014 2.46443 5.27432
#
# Compressibility (1/GPa) = 0.02273229
#
# Stress axis : x y z
#
# Youngs Moduli (GPa) = 58.83237 72.61764 109.06852
#
# Poissons Ratio (x) = 0.30903 0.24122
# Poissons Ratio (y) = 0.25037 0.23286
# Poissons Ratio (z) = 0.13012 0.15504
#
# Static dielectric constant tensor:
#      x y z
#    x 1.679980 0.000000 0.000000 
#    y 0.000000 1.675930 0.000000 
#    z 0.000000 0.000000 1.780350 
# 
# From -- ./inp_files/14436.got.cif
#   From: 2010.05.17/outbox.cif.g08.bks.cpg/sg22_8_cif.got.tgz:14436.got - 2010.06.03 23:40:54.
