data_PCOD9326157
_publ_section_title
;
Structure prediction by ZEFSAII (Michael W. Deem and Ramdas Pophale) SiO2 
 PCOD9326157
Probable space group: F 2 2 2
;
_chemical_formula_sum "Si O2"
_cell_formula_units_Z 80
_cell_length_a 25.156531
_cell_length_b 9.746390
_cell_length_c 16.780728
_cell_angle_alpha 90.000000
_cell_angle_beta 90.000000
_cell_angle_gamma 90.000000
_cell_volume 4114.388872
_symmetry_space_group_name_H-M "F 2 2 2"
_symmetry_group_IT_number 22
_symmetry_cell_setting 'orthorhombic'
loop_
_space_group_symop_operation_xyz
x,y,z
-x,-y,z
x,-y,-z
-x,y,-z
x,1/2+y,1/2+z
-x,1/2-y,1/2+z
x,1/2-y,1/2-z
-x,1/2+y,1/2-z
1/2+x,y,1/2+z
1/2-x,-y,1/2+z
1/2+x,-y,1/2-z
1/2-x,y,1/2-z
1/2+x,1/2+y,z
1/2-x,1/2-y,z
1/2+x,1/2-y,-z
1/2-x,1/2+y,-z
loop_
_atom_site_type_symbol
_atom_site_label
_atom_site_fract_x
_atom_site_fract_y
_atom_site_fract_z
Si Si1 0.126349 0.945027 0.419152
Si Si2 0.445452 0.084080 0.764306
Si Si3 0.306654 0.672784 0.648114
Si Si4 0.849551 0.435937 0.683739
Si Si5 0.689167 0.713489 0.844104
O O1 0.083257 0.947472 0.348458
O O2 0.152642 0.796729 0.405010
O O3 0.101114 0.000000 0.500000
O O4 0.176263 0.049530 0.407960
O O5 0.450707 0.250000 0.750000
O O6 0.500000 0.000000 0.759917
O O7 0.404585 0.010864 0.702973
O O8 0.250000 0.750000 0.640556
O O9 0.317690 0.605245 0.735109
O O10 0.350732 0.792770 0.638598
O O11 0.815730 0.552604 0.642391
O O12 0.674569 0.750000 0.750000
O O13 0.750000 0.750000 0.852593
#
# Coordination Sequence:
#
# PCOD9326157 Si02
#       5
#    16  16  16  16  16
#     4  11  23  41  57  85 129 165 198 239 304 379
#     4  11  23  40  65  90 110 145 204 264 312 356
#     4  10  20  32  55  89 122 159 195 238 289 352
#     4  10  18  34  56  87 117 143 191 256 296 338
#     4  11  19  33  61  89 117 160 202 247 285 345
#
# _framework density 19.443957999999999
#
# number of rings (size 3 to 8) (size 9 to 14) (size 15 to 20)
#    0.000    1.400    6.000    2.400    8.400    1.200 
#    0.000    1.000    0.000    0.000    0.000    0.000 
#    0.000    0.000    0.000    0.000    0.000    0.000 
#
# Total GULP energy -111379.377049 kJ/mol
# GULP energy per Si atom -5568.968852 kJ/mol
# Density = 1.939970 g / cm^3
# Si number density = 19.443958 Si / 1000 Ang^3
#
#
#
# Elastic Constant Matrix: (Units=GPa)
#
#
# Indices 1 2 3 4 5 6 
#
# 1 115.3746 43.4035 3.9686 0.0000 0.0000 0.0000
# 2 43.4035 161.5983 20.1672 0.0000 0.0000 0.0000
# 3 3.9686 20.1672 37.8201 0.0000 0.0000 0.0000
# 4 0.0000 0.0000 0.0000 14.7604 0.0000 0.0000
# 5 0.0000 0.0000 0.0000 0.0000 6.9798 0.0000
# 6 0.0000 0.0000 0.0000 0.0000 0.0000 34.5205
#
#
#
# Elastic Compliance Matrix: (Units=1/GPa)
#
#
# Indices 1 2 3 4 5 6 
#
# 1 0.009647 -0.002641 0.000396 0.000000 0.000000 0.000000
# 2 -0.002641 0.007352 -0.003643 0.000000 0.000000 0.000000
# 3 0.000396 -0.003643 0.028342 0.000000 0.000000 0.000000
# 4 0.000000 0.000000 0.000000 0.067749 0.000000 0.000000
# 5 0.000000 0.000000 0.000000 0.000000 0.143271 0.000000
# 6 0.000000 0.000000 0.000000 0.000000 0.000000 0.028968
#
#
# Mechanical properties :
#
#
# Convention : Reuss Voigt Hill
#
# Bulk Modulus (GPa) = 29.79276 49.98572 39.88924
# Shear Modulus (GPa) = 16.21824 27.73571 21.97698
#
# Velocity S-wave (km/s) = 2.89122 3.78093 3.36560
# Velocity P-wave (km/s) = 5.14793 6.69507 5.97181
#
# Compressibility (1/GPa) = 0.03356521
#
# Stress axis : x y z
#
# Youngs Moduli (GPa) = 103.65747 136.01598 35.28302
#
# Poissons Ratio (x) = 0.35915 -0.01396
# Poissons Ratio (y) = 0.27371 0.12855
# Poissons Ratio (z) = -0.04102 0.49555
#
# Static dielectric constant tensor:
#      x y z
#    x 1.711910 0.000000 0.000000 
#    y 0.000000 1.791590 0.000000 
#    z 0.000000 0.000000 1.803560 
# 
# From -- ./inp_files/39898.got.cif
#   From: 2010.05.17/outbox.cif.g08.bks.cpg/sg22_20_cif.got.tgz:39898.got - 2010.06.03 23:40:54.
