data_PCOD9326301
_publ_section_title
;
Structure prediction by ZEFSAII (Michael W. Deem and Ramdas Pophale) SiO2 
 PCOD9326301
Probable space group: F 2 2 2
;
_chemical_formula_sum "Si O2"
_cell_formula_units_Z 116
_cell_length_a 15.021102
_cell_length_b 14.558660
_cell_length_c 28.098583
_cell_angle_alpha 90.000000
_cell_angle_beta 90.000000
_cell_angle_gamma 90.000000
_cell_volume 6144.798104
_symmetry_space_group_name_H-M "F 2 2 2"
_symmetry_group_IT_number 22
_symmetry_cell_setting 'orthorhombic'
loop_
_space_group_symop_operation_xyz
x,y,z
-x,-y,z
x,-y,-z
-x,y,-z
x,1/2+y,1/2+z
-x,1/2-y,1/2+z
x,1/2-y,1/2-z
-x,1/2+y,1/2-z
1/2+x,y,1/2+z
1/2-x,-y,1/2+z
1/2+x,-y,1/2-z
1/2-x,y,1/2-z
1/2+x,1/2+y,z
1/2-x,1/2-y,z
1/2+x,1/2-y,-z
1/2-x,1/2+y,-z
loop_
_atom_site_type_symbol
_atom_site_label
_atom_site_fract_x
_atom_site_fract_y
_atom_site_fract_z
Si Si1 0.740287 0.601339 0.554243
Si Si2 0.913925 0.643370 0.369768
Si Si3 0.246722 0.862839 0.805117
Si Si4 0.500000 0.500000 0.000000
Si Si5 0.770379 0.883500 0.052691
Si Si6 0.114283 0.850057 0.621377
Si Si7 0.036608 0.152280 0.552864
Si Si8 0.424206 0.137701 0.576246
O O1 0.749629 0.491682 0.554879
O O2 0.765285 0.641470 0.502225
O O3 0.637187 0.621281 0.561901
O O4 0.819316 0.639754 0.587150
O O5 0.844205 0.605613 0.331149
O O6 0.862829 0.631658 0.420356
O O7 0.918657 0.751945 0.359562
O O8 0.013276 0.609572 0.379448
O O9 0.250000 0.887458 0.750000
O O10 0.250000 0.750000 0.808378
O O11 0.331526 0.897371 0.835840
O O12 0.441157 0.435696 0.965808
O O13 0.692092 0.834864 0.082221
O O14 0.031837 0.888757 0.591633
O O15 0.041311 0.262993 0.558884
O O16 0.000000 0.130264 0.500000
#
# Coordination Sequence:
#
# PCOD9326301 Si02
#       8
#    16  16  16   4  16  16  16  16
#     4  11  22  30  44  64  93 134 174 200 229 280
#     4   9  18  30  49  71  99 124 154 204 257 303
#     4   8  14  28  51  78  99 118 152 208 267 311
#     4  12  20  32  52  68  98 134 176 212 240 292
#     4  10  19  31  43  67  94 126 168 207 238 273
#     4   9  18  31  48  71  98 128 162 201 253 296
#     4  11  21  34  45  64  94 139 171 200 239 288
#     4  11  21  32  45  68  95 128 171 204 241 288
#
# _framework density 18.877756000000002
#
# number of rings (size 3 to 8) (size 9 to 14) (size 15 to 20)
#    0.000    2.069    2.069    4.138    1.931    1.655 
#    0.000    0.000    0.000    0.000    0.000   20.276 
#    0.000    6.621    0.000    0.000    0.000    0.552 
#
# Total GULP energy -161725.119789 kJ/mol
# GULP energy per Si atom -5576.728269 kJ/mol
# Density = 1.883479 g / cm^3
# Si number density = 18.877756 Si / 1000 Ang^3
#
#
#
# Elastic Constant Matrix: (Units=GPa)
#
#
# Indices 1 2 3 4 5 6 
#
# 1 183.3315 4.8023 69.1891 0.0000 0.0000 0.0000
# 2 4.8023 41.3379 2.0833 0.0000 0.0000 0.0000
# 3 69.1891 2.0833 98.4978 0.0000 0.0000 0.0000
# 4 0.0000 0.0000 0.0000 3.8260 0.0000 0.0000
# 5 0.0000 0.0000 0.0000 0.0000 9.7062 0.0000
# 6 0.0000 0.0000 0.0000 0.0000 0.0000 16.5224
#
#
#
# Elastic Compliance Matrix: (Units=1/GPa)
#
#
# Indices 1 2 3 4 5 6 
#
# 1 0.007437 -0.000601 -0.005211 0.000000 0.000000 0.000000
# 2 -0.000601 0.024265 -0.000091 0.000000 0.000000 0.000000
# 3 -0.005211 -0.000091 0.013815 0.000000 0.000000 0.000000
# 4 0.000000 0.000000 0.000000 0.261372 0.000000 0.000000
# 5 0.000000 0.000000 0.000000 0.000000 0.103027 0.000000
# 6 0.000000 0.000000 0.000000 0.000000 0.000000 0.060524
#
#
# Mechanical properties :
#
#
# Convention : Reuss Voigt Hill
#
# Bulk Modulus (GPa) = 29.66443 52.81296 41.23870
# Shear Modulus (GPa) = 10.13204 22.48374 16.30789
#
# Velocity S-wave (km/s) = 2.31923 3.45486 2.94235
# Velocity P-wave (km/s) = 4.78747 6.62961 5.78237
#
# Compressibility (1/GPa) = 0.03371041
#
# Stress axis : x y z
#
# Youngs Moduli (GPa) = 134.46009 41.21108 72.38410
#
# Poissons Ratio (x) = 0.02478 0.37723
# Poissons Ratio (y) = 0.08086 0.00657
# Poissons Ratio (z) = 0.70073 0.00374
#
# Static dielectric constant tensor:
#      x y z
#    x 1.724050 0.000000 0.000000 
#    y 0.000000 1.714790 0.000000 
#    z 0.000000 0.000000 1.652230 
# 
# From -- ./inp_files/37438.got.cif
#   From: 2010.05.17/outbox.cif.g08.bks.cpg/sg22_19_cif.got.tgz:37438.got - 2010.06.03 23:40:54.
