data_PCOD9326030
_publ_section_title
;
Structure prediction by ZEFSAII (Michael W. Deem and Ramdas Pophale) SiO2 
 PCOD9326030
Probable space group: F 2 2 2
;
_chemical_formula_sum "Si O2"
_cell_formula_units_Z 64
_cell_length_a 35.493136
_cell_length_b 13.811283
_cell_length_c 5.275975
_cell_angle_alpha 90.000000
_cell_angle_beta 90.000000
_cell_angle_gamma 90.000000
_cell_volume 2586.313260
_symmetry_space_group_name_H-M "F 2 2 2"
_symmetry_group_IT_number 22
_symmetry_cell_setting 'orthorhombic'
loop_
_space_group_symop_operation_xyz
x,y,z
-x,-y,z
x,-y,-z
-x,y,-z
x,1/2+y,1/2+z
-x,1/2-y,1/2+z
x,1/2-y,1/2-z
-x,1/2+y,1/2-z
1/2+x,y,1/2+z
1/2-x,-y,1/2+z
1/2+x,-y,1/2-z
1/2-x,y,1/2-z
1/2+x,1/2+y,z
1/2-x,1/2-y,z
1/2+x,1/2-y,-z
1/2-x,1/2+y,-z
loop_
_atom_site_type_symbol
_atom_site_label
_atom_site_fract_x
_atom_site_fract_y
_atom_site_fract_z
Si Si1 0.355603 0.384325 0.179141
Si Si2 0.228403 0.116451 0.002174
Si Si3 0.041647 0.183074 0.501043
Si Si4 0.882964 0.103469 0.321377
O O1 0.315638 0.366102 0.048002
O O2 0.365688 0.497296 0.251673
O O3 0.356962 0.344900 0.465919
O O4 0.384783 0.352787 0.961454
O O5 0.250000 0.149783 0.250000
O O6 0.250000 0.148467 0.750000
O O7 0.230976 0.000000 0.000000
O O8 0.041723 0.250000 0.750000
O O9 0.076384 0.110532 0.546037
O O10 0.000000 0.136287 0.500000
O O11 0.045737 0.250000 0.250000
#
# Coordination Sequence:
#
# PCOD9326030 Si02
#       4
#    16  16  16  16
#     4  10  19  32  49  79 113 142 164 210 265 322
#     4  10  18  26  43  69 108 145 170 201 242 307
#     4  10  21  38  58  78 101 134 182 232 268 308
#     4  10  19  32  52  74 107 140 166 213 270 315
#
# _framework density 24.745650999999999
#
# number of rings (size 3 to 8) (size 9 to 14) (size 15 to 20)
#    0.000    2.000    2.500    3.000    7.000    0.000 
#    0.000    2.500    0.000    6.000    0.000    0.000 
#    0.000  101.000    0.000    0.000    0.000    0.000 
#
# Total GULP energy -89225.083897 kJ/mol
# GULP energy per Si atom -5576.567744 kJ/mol
# Density = 2.468933 g / cm^3
# Si number density = 24.745651 Si / 1000 Ang^3
#
#
#
# Elastic Constant Matrix: (Units=GPa)
#
#
# Indices 1 2 3 4 5 6 
#
# 1 203.5359 27.7832 76.8843 0.0001 0.0000 0.0000
# 2 27.7832 96.2156 10.6209 0.0001 0.0000 0.0000
# 3 76.8843 10.6209 267.9446 0.0004 0.0000 0.0001
# 4 0.0001 0.0001 0.0004 -101.1311 0.0001 0.0002
# 5 0.0000 0.0000 0.0000 0.0001 44.0083 0.0000
# 6 0.0000 0.0000 0.0001 0.0002 0.0000 15.1394
#
#
#
# Elastic Compliance Matrix: (Units=1/GPa)
#
#
# Indices 1 2 3 4 5 6 
#
# 1 0.005711 -0.001475 -0.001580 0.000000 0.000000 0.000000
# 2 -0.001475 0.010820 -0.000006 0.000000 0.000000 0.000000
# 3 -0.001580 -0.000006 0.004186 0.000000 0.000000 0.000000
# 4 0.000000 0.000000 0.000000 -0.009888 0.000000 0.000000
# 5 0.000000 0.000000 0.000000 0.000000 0.022723 0.000000
# 6 0.000000 0.000000 0.000000 0.000000 0.000000 0.066053
#
#
# Mechanical properties :
#
#
# Convention : Reuss Voigt Hill
#
# Bulk Modulus (GPa) = 68.51512 88.69700 78.60606
# Shear Modulus (GPa) = 45.21133 21.76382 33.48757
#
# Velocity S-wave (km/s) = 4.27903 2.96885 3.68267
# Velocity P-wave (km/s) = 7.22228 6.90459 7.06522
#
# Compressibility (1/GPa) = 0.01459532
#
# Stress axis : x y z
#
# Youngs Moduli (GPa) = 175.08752 92.42304 238.90197
#
# Poissons Ratio (x) = 0.13630 0.37756
# Poissons Ratio (y) = 0.25822 0.00136
# Poissons Ratio (z) = 0.27671 0.00053
#
# Static dielectric constant tensor:
#      x y z
#    x 2.144080 0.000000 0.000000 
#    y 0.000000 2.235440 0.000000 
#    z 0.000000 0.000000 2.133910 
# 
# From -- ./inp_files/6226.got.cif
#   From: 2010.05.17/outbox.cif.g08.bks.cpg/sg22_4_cif.got.tgz:6226.got - 2010.06.03 23:40:54.
