data_PCOD9326675
_publ_section_title
;
Structure prediction by ZEFSAII (Michael W. Deem and Ramdas Pophale) SiO2 
 PCOD9326675
Probable space group: F 2 2 2
;
_chemical_formula_sum "Si O2"
_cell_formula_units_Z 76
_cell_length_a 15.139667
_cell_length_b 15.078580
_cell_length_c 15.609003
_cell_angle_alpha 90.000000
_cell_angle_beta 90.000000
_cell_angle_gamma 90.000000
_cell_volume 3563.296255
_symmetry_space_group_name_H-M "F 2 2 2"
_symmetry_group_IT_number 22
_symmetry_cell_setting 'orthorhombic'
loop_
_space_group_symop_operation_xyz
x,y,z
-x,-y,z
x,-y,-z
-x,y,-z
x,1/2+y,1/2+z
-x,1/2-y,1/2+z
x,1/2-y,1/2-z
-x,1/2+y,1/2-z
1/2+x,y,1/2+z
1/2-x,-y,1/2+z
1/2+x,-y,1/2-z
1/2-x,y,1/2-z
1/2+x,1/2+y,z
1/2-x,1/2-y,z
1/2+x,1/2-y,-z
1/2-x,1/2+y,-z
loop_
_atom_site_type_symbol
_atom_site_label
_atom_site_fract_x
_atom_site_fract_y
_atom_site_fract_z
Si Si1 0.965360 0.397392 0.909495
Si Si2 0.384000 0.368978 0.709908
Si Si3 0.500000 0.500000 0.000000
Si Si4 0.151382 0.907847 0.097483
Si Si5 0.750000 0.250000 0.401246
Si Si6 0.789577 0.950314 0.338446
O O1 0.859857 0.395021 0.894818
O O2 0.000000 0.500000 0.912288
O O3 0.019533 0.356131 0.830177
O O4 0.000000 0.358864 0.000000
O O5 0.372701 0.363822 0.811000
O O6 0.315764 0.308437 0.657725
O O7 0.351769 0.469330 0.694077
O O8 0.562516 0.560500 0.943730
O O9 0.199237 0.827366 0.048176
O O10 0.213795 0.994733 0.110778
O O11 0.750000 0.909685 0.250000
#
# Coordination Sequence:
#
# PCOD9326675 Si02
#       6
#    16  16   4  16   8  16
#     4   9  17  28  48  84 117 142 192 253 303 344
#     4   9  17  31  59  83 113 152 203 251 294 364
#     4  12  28  36  56  96 128 162 196 276 324 364
#     4  10  21  37  57  83 123 157 209 249 314 373
#     4  10  19  40  66  90 110 169 212 249 294 380
#     4   8  16  29  51  77 110 152 190 238 304 361
#
# _framework density 21.328568000000001
#
# number of rings (size 3 to 8) (size 9 to 14) (size 15 to 20)
#    0.000    2.737    0.000    3.158    7.368    5.053 
#    1.895    0.000    2.316    0.000    0.000    0.000 
#    0.000    0.000    0.000    0.000    0.000    0.000 
#
# Total GULP energy -105839.288387 kJ/mol
# GULP energy per Si atom -5570.488862 kJ/mol
# Density = 2.128002 g / cm^3
# Si number density = 21.328568 Si / 1000 Ang^3
#
#
#
# Elastic Constant Matrix: (Units=GPa)
#
#
# Indices 1 2 3 4 5 6 
#
# 1 152.5333 24.3255 50.4346 0.0000 0.0000 0.0000
# 2 24.3255 32.3531 4.1043 0.0000 0.0000 0.0000
# 3 50.4346 4.1043 35.1373 0.0000 0.0000 0.0000
# 4 0.0000 0.0000 0.0000 8.4197 0.0000 0.0000
# 5 0.0000 0.0000 0.0000 0.0000-1963.6131 0.0000
# 6 0.0000 0.0000 0.0000 0.0000 0.0000 15.6241
#
#
#
# Elastic Compliance Matrix: (Units=1/GPa)
#
#
# Indices 1 2 3 4 5 6 
#
# 1 0.014393 -0.008324 -0.019686 0.000000 0.000000 0.000000
# 2 -0.008324 0.036188 0.007721 0.000000 0.000000 0.000000
# 3 -0.019686 0.007721 0.055815 0.000000 0.000000 0.000000
# 4 0.000000 0.000000 0.000000 0.118769 0.000000 0.000000
# 5 0.000000 0.000000 0.000000 0.000000 -0.000509 0.000000
# 6 0.000000 0.000000 0.000000 0.000000 0.000000 0.064004
#
#
# Mechanical properties :
#
#
# Convention : Reuss Voigt Hill
#
# Bulk Modulus (GPa) = 15.19365 41.97249 28.58307
# Shear Modulus (GPa) = 14.23785 -378.50324 -182.13270
#
# Velocity S-wave (km/s) = 2.58650 -13.33598 -9.25090
# Velocity P-wave (km/s) = 4.00737 14.74481 10.03370
#
# Compressibility (1/GPa) = 0.06581697
#
# Stress axis : x y z
#
# Youngs Moduli (GPa) = 69.47995 27.63336 17.91639
#
# Poissons Ratio (x) = 0.23002 0.35271
# Poissons Ratio (y) = 0.57836 -0.13833
# Poissons Ratio (z) = 1.36780 -0.21336
#
# Static dielectric constant tensor:
#      x y z
#    x 1.818350 0.000000 0.000000 
#    y 0.000000 41.482720 0.000000 
#    z 0.000000 0.000000 1.849740 
# 
# From -- ./inp_files/37101.got.cif
#   From: 2010.05.17/outbox.cif.g08.bks.cpg/sg22_19_cif.got.tgz:37101.got - 2010.06.03 23:40:54.
