data_PCOD9326233
_publ_section_title
;
Structure prediction by ZEFSAII (Michael W. Deem and Ramdas Pophale) SiO2 
 PCOD9326233
Probable space group: F 2 2 2
;
_chemical_formula_sum "Si O2"
_cell_formula_units_Z 88
_cell_length_a 20.688017
_cell_length_b 12.734339
_cell_length_c 16.306427
_cell_angle_alpha 90.000000
_cell_angle_beta 90.000000
_cell_angle_gamma 90.000000
_cell_volume 4295.899196
_symmetry_space_group_name_H-M "F 2 2 2"
_symmetry_group_IT_number 22
_symmetry_cell_setting 'orthorhombic'
loop_
_space_group_symop_operation_xyz
x,y,z
-x,-y,z
x,-y,-z
-x,y,-z
x,1/2+y,1/2+z
-x,1/2-y,1/2+z
x,1/2-y,1/2-z
-x,1/2+y,1/2-z
1/2+x,y,1/2+z
1/2-x,-y,1/2+z
1/2+x,-y,1/2-z
1/2-x,y,1/2-z
1/2+x,1/2+y,z
1/2-x,1/2-y,z
1/2+x,1/2-y,-z
1/2-x,1/2+y,-z
loop_
_atom_site_type_symbol
_atom_site_label
_atom_site_fract_x
_atom_site_fract_y
_atom_site_fract_z
Si Si1 0.141890 0.049612 0.893653
Si Si2 0.072929 0.346037 0.471229
Si Si3 0.250000 0.250000 0.418510
Si Si4 0.711461 0.415915 0.446360
Si Si5 0.874762 0.289785 0.836548
Si Si6 0.176944 0.482992 0.783616
O O1 0.217128 0.040711 0.920218
O O2 0.100784 0.947419 0.921458
O O3 0.139101 0.056349 0.796076
O O4 0.115473 0.148130 0.945761
O O5 0.081386 0.244447 0.413447
O O6 0.000000 0.360759 0.500000
O O7 0.276811 0.331758 0.483923
O O8 0.190807 0.275518 0.358819
O O9 0.672794 0.500000 0.500000
O O10 0.680011 0.399447 0.358069
O O11 0.901881 0.250000 0.750000
O O12 0.852324 0.409447 0.821095
O O13 0.250000 0.503456 0.750000
#
# Coordination Sequence:
#
# PCOD9326233 Si02
#       6
#    16  16   8  16  16  16
#     4  10  18  37  55  86 116 153 199 249 293 362
#     4  11  22  36  61  85 115 157 207 259 310 349
#     4  12  21  34  61  90 128 160 192 233 317 378
#     4  11  19  33  55  90 127 158 187 239 302 377
#     4  12  21  34  59  92 118 145 197 256 301 358
#     4  10  21  34  58  92 126 150 193 249 303 364
#
# _framework density 20.484653000000002
#
# number of rings (size 3 to 8) (size 9 to 14) (size 15 to 20)
#    0.000    1.091    7.273    2.455    0.000    0.000 
#    0.000    4.091    4.000    0.000    0.000    0.000 
#    0.000    0.000    0.000    0.000    0.000    0.000 
#
# Total GULP energy -122496.715410 kJ/mol
# GULP energy per Si atom -5568.032519 kJ/mol
# Density = 2.043803 g / cm^3
# Si number density = 20.484653 Si / 1000 Ang^3
#
#
#
# Elastic Constant Matrix: (Units=GPa)
#
#
# Indices 1 2 3 4 5 6 
#
# 1 54.4275 -14.2473 27.4367 0.0000 0.0000 0.0000
# 2 -14.2473 31.3564 28.7882 0.0000 0.0000 0.0000
# 3 27.4367 28.7882 188.5434 0.0000 0.0000 0.0000
# 4 0.0000 0.0000 0.0000 34.6637 0.0000 0.0000
# 5 0.0000 0.0000 0.0000 0.0000 16.6606 0.0000
# 6 0.0000 0.0000 0.0000 0.0000 0.0000 -3.6234
#
#
#
# Elastic Compliance Matrix: (Units=1/GPa)
#
#
# Indices 1 2 3 4 5 6 
#
# 1 0.026436 0.018078 -0.006607 0.000000 0.000000 0.000000
# 2 0.018078 0.049453 -0.010181 0.000000 0.000000 0.000000
# 3 -0.006607 -0.010181 0.007820 0.000000 0.000000 0.000000
# 4 0.000000 0.000000 0.000000 0.028849 0.000000 0.000000
# 5 0.000000 0.000000 0.000000 0.000000 0.060022 0.000000
# 6 0.000000 0.000000 0.000000 0.000000 0.000000 -0.275985
#
#
# Mechanical properties :
#
#
# Convention : Reuss Voigt Hill
#
# Bulk Modulus (GPa) = 11.58928 39.80916 25.69922
# Shear Modulus (GPa) = -64.74893 25.03016 -19.85939
#
# Velocity S-wave (km/s) = -5.62824 3.49936 -3.11702
# Velocity P-wave (km/s) = 6.04701 5.98358 0.61772
#
# Compressibility (1/GPa) = 0.08628665
#
# Stress axis : x y z
#
# Youngs Moduli (GPa) = 37.82741 20.22124 127.87926
#
# Poissons Ratio (x) = -0.36555 0.84492
# Poissons Ratio (y) = -0.68383 1.30200
# Poissons Ratio (z) = 0.24993 0.20588
#
# Static dielectric constant tensor:
#      x y z
#    x 1.739680 0.000000 0.000000 
#    y 0.000000 1.901590 0.000000 
#    z 0.000000 0.000000 1.811530 
# 
# From -- ./inp_files/29267.got.cif
#   From: 2010.05.17/outbox.cif.g08.bks.cpg/sg22_15_cif.got.tgz:29267.got - 2010.06.03 23:40:54.
