data_PCOD9326541
_publ_section_title
;
Structure prediction by ZEFSAII (Michael W. Deem and Ramdas Pophale) SiO2 
 PCOD9326541
Probable space group: F 2 2 2
;
_chemical_formula_sum "Si O2"
_cell_formula_units_Z 92
_cell_length_a 25.705458
_cell_length_b 8.693409
_cell_length_c 20.063422
_cell_angle_alpha 90.000000
_cell_angle_beta 90.000000
_cell_angle_gamma 90.000000
_cell_volume 4483.533990
_symmetry_space_group_name_H-M "F 2 2 2"
_symmetry_group_IT_number 22
_symmetry_cell_setting 'orthorhombic'
loop_
_space_group_symop_operation_xyz
x,y,z
-x,-y,z
x,-y,-z
-x,y,-z
x,1/2+y,1/2+z
-x,1/2-y,1/2+z
x,1/2-y,1/2-z
-x,1/2+y,1/2-z
1/2+x,y,1/2+z
1/2-x,-y,1/2+z
1/2+x,-y,1/2-z
1/2-x,y,1/2-z
1/2+x,1/2+y,z
1/2-x,1/2-y,z
1/2+x,1/2-y,-z
1/2-x,1/2+y,-z
loop_
_atom_site_type_symbol
_atom_site_label
_atom_site_fract_x
_atom_site_fract_y
_atom_site_fract_z
Si Si1 0.939840 0.212939 0.328731
Si Si2 0.322944 0.500000 0.500000
Si Si3 0.607755 0.864188 0.307910
Si Si4 0.500000 0.500000 0.833084
Si Si5 0.173322 0.161990 0.818582
Si Si6 0.750000 0.750000 0.568026
Si Si7 0.584668 0.905946 0.096255
Si Si8 0.500000 0.500000 0.500000
O O1 0.950479 0.250000 0.250000
O O2 0.976097 0.341529 0.365185
O O3 0.879689 0.253838 0.340235
O O4 0.939373 0.036289 0.353406
O O5 0.285750 0.360895 0.523375
O O6 0.362422 0.537490 0.560649
O O7 0.620937 0.750000 0.250000
O O8 0.551314 0.940005 0.295588
O O9 0.598705 0.756731 0.371565
O O10 0.652314 0.990839 0.307535
O O11 0.189862 0.250000 0.750000
O O12 0.213272 0.161399 0.879151
O O13 0.539300 0.895717 0.041991
#
# Coordination Sequence:
#
# PCOD9326541 Si02
#       8
#    16   8  16   8  16   8  16   4
#     4  10  19  36  63  93 138 171 221 277 341 393
#     4  11  28  43  74  94 132 185 230 277 340 406
#     4  11  23  38  68 101 141 170 226 283 348 415
#     4  10  20  31  56 101 126 186 210 256 326 412
#     4  10  22  42  69 100 132 169 213 292 360 401
#     4  12  25  48  72  96 129 180 234 282 342 418
#     4  11  22  45  64 101 137 183 226 279 337 411
#     4  10  24  38  68  86 144 198 216 258 332 394
#
# _framework density 20.519528000000001
#
# number of rings (size 3 to 8) (size 9 to 14) (size 15 to 20)
#    0.000    1.391    1.739    4.957    2.435    2.087 
#    0.000    0.000    0.000    6.783    0.000    0.000 
#    0.000    0.000    0.000    0.000    0.000    0.000 
#
# Total GULP energy -128119.664379 kJ/mol
# GULP energy per Si atom -5570.420190 kJ/mol
# Density = 2.047282 g / cm^3
# Si number density = 20.519528 Si / 1000 Ang^3
#
#
#
# Elastic Constant Matrix: (Units=GPa)
#
#
# Indices 1 2 3 4 5 6 
#
# 1 123.2159 56.0218 50.4680 0.0000 0.0000 0.0000
# 2 56.0218 146.4391 64.2659 0.0000 0.0000 0.0000
# 3 50.4680 64.2659 91.3903 0.0000 0.0000 0.0000
# 4 0.0000 0.0000 0.0000 31.6774 0.0000 0.0000
# 5 0.0000 0.0000 0.0000 0.0000 15.8042 0.0000
# 6 0.0000 0.0000 0.0000 0.0000 0.0000 34.5764
#
#
#
# Elastic Compliance Matrix: (Units=1/GPa)
#
#
# Indices 1 2 3 4 5 6 
#
# 1 0.010967 -0.002224 -0.004492 0.000000 0.000000 0.000000
# 2 -0.002224 0.010328 -0.006034 0.000000 0.000000 0.000000
# 3 -0.004492 -0.006034 0.017666 0.000000 0.000000 0.000000
# 4 0.000000 0.000000 0.000000 0.031568 0.000000 0.000000
# 5 0.000000 0.000000 0.000000 0.000000 0.063274 0.000000
# 6 0.000000 0.000000 0.000000 0.000000 0.000000 0.028921
#
#
# Mechanical properties :
#
#
# Convention : Reuss Voigt Hill
#
# Bulk Modulus (GPa) = 74.29634 78.06186 76.17910
# Shear Modulus (GPa) = 25.94528 29.09757 27.52142
#
# Velocity S-wave (km/s) = 3.55972 3.76978 3.66625
# Velocity P-wave (km/s) = 7.29258 7.55471 7.42480
#
# Compressibility (1/GPa) = 0.01345961
#
# Stress axis : x y z
#
# Youngs Moduli (GPa) = 91.18226 96.82558 56.60517
#
# Poissons Ratio (x) = 0.21535 0.25429
# Poissons Ratio (y) = 0.20280 0.34158
# Poissons Ratio (z) = 0.40962 0.58428
#
# Static dielectric constant tensor:
#      x y z
#    x 1.726340 0.000000 0.000000 
#    y 0.000000 1.635730 0.000000 
#    z 0.000000 0.000000 1.789540 
# 
# From -- ./inp_files/45276.got.cif
#   From: 2010.05.17/outbox.cif.g08.bks.cpg/sg22_23_cif.got.tgz:45276.got - 2010.06.03 23:40:54.
