data_PCOD9326487
_publ_section_title
;
Structure prediction by ZEFSAII (Michael W. Deem and Ramdas Pophale) SiO2 
 PCOD9326487
Probable space group: F 2 2 2
;
_chemical_formula_sum "Si O2"
_cell_formula_units_Z 100
_cell_length_a 24.595441
_cell_length_b 9.151710
_cell_length_c 20.348062
_cell_angle_alpha 90.000000
_cell_angle_beta 90.000000
_cell_angle_gamma 90.000000
_cell_volume 4580.152262
_symmetry_space_group_name_H-M "F 2 2 2"
_symmetry_group_IT_number 22
_symmetry_cell_setting 'orthorhombic'
loop_
_space_group_symop_operation_xyz
x,y,z
-x,-y,z
x,-y,-z
-x,y,-z
x,1/2+y,1/2+z
-x,1/2-y,1/2+z
x,1/2-y,1/2-z
-x,1/2+y,1/2-z
1/2+x,y,1/2+z
1/2-x,-y,1/2+z
1/2+x,-y,1/2-z
1/2-x,y,1/2-z
1/2+x,1/2+y,z
1/2-x,1/2-y,z
1/2+x,1/2-y,-z
1/2-x,1/2+y,-z
loop_
_atom_site_type_symbol
_atom_site_label
_atom_site_fract_x
_atom_site_fract_y
_atom_site_fract_z
Si Si1 0.193518 0.580202 0.774383
Si Si2 0.427244 0.293371 0.903016
Si Si3 0.500000 0.000000 0.500000
Si Si4 0.309582 0.292304 0.413658
Si Si5 0.414718 0.037544 0.068556
Si Si6 0.533293 0.761865 0.327830
Si Si7 0.130182 0.029380 0.155577
O O1 0.191177 0.750000 0.750000
O O2 0.250000 0.515714 0.750000
O O3 0.194616 0.594353 0.852185
O O4 0.146081 0.508986 0.731773
O O5 0.407671 0.127207 0.907933
O O6 0.471235 0.290181 0.844370
O O7 0.374196 0.383737 0.884839
O O8 0.460541 0.385212 0.959800
O O9 0.250000 0.250000 0.441781
O O10 0.361035 0.365480 0.450272
O O11 0.329988 0.142437 0.380153
O O12 0.446030 0.128948 0.125157
O O13 0.443941 0.000000 0.000000
O O14 0.542053 0.750000 0.250000
O O15 0.571425 0.895251 0.348950
#
# Coordination Sequence:
#
# PCOD9326487 Si02
#       7
#    16  16   4  16  16  16  16
#     4   9  14  30  62  94 121 168 223 273 338 431
#     4  12  25  41  66 100 139 183 237 293 352 436
#     4  12  24  48  70  92 144 216 240 276 380 468
#     4  10  19  39  66  93 127 180 236 288 356 424
#     4  11  26  45  69 102 136 189 243 300 359 442
#     4  11  23  43  68 101 143 188 228 286 364 435
#     4  10  19  35  61 101 128 176 226 285 346 423
#
# _framework density 21.833337
#
# number of rings (size 3 to 8) (size 9 to 14) (size 15 to 20)
#    0.000    1.440    4.800    3.840    2.240    4.480 
#    0.000    2.400    0.000    0.960    0.000    0.000 
#    0.000    0.000    0.000    0.000    0.000    0.000 
#
# Total GULP energy -139189.533768 kJ/mol
# GULP energy per Si atom -5567.581351 kJ/mol
# Density = 2.178364 g / cm^3
# Si number density = 21.833337 Si / 1000 Ang^3
#
#
#
# Elastic Constant Matrix: (Units=GPa)
#
#
# Indices 1 2 3 4 5 6 
#
# 1 90.9689 20.7779 10.9891 0.0000 0.0000 0.0000
# 2 20.7779 111.6950 31.2174 0.0000 0.0000 0.0000
# 3 10.9891 31.2174 80.0835 0.0000 0.0000 0.0000
# 4 0.0000 0.0000 0.0000 -19.5778 0.0000 0.0000
# 5 0.0000 0.0000 0.0000 0.0000 -25.4484 0.0000
# 6 0.0000 0.0000 0.0000 0.0000 0.0000 -2.7669
#
#
#
# Elastic Compliance Matrix: (Units=1/GPa)
#
#
# Indices 1 2 3 4 5 6 
#
# 1 0.011530 -0.001911 -0.000837 0.000000 0.000000 0.000000
# 2 -0.001911 0.010364 -0.003778 0.000000 0.000000 0.000000
# 3 -0.000837 -0.003778 0.014075 0.000000 0.000000 0.000000
# 4 0.000000 0.000000 0.000000 -0.051078 0.000000 0.000000
# 5 0.000000 0.000000 0.000000 0.000000 -0.039295 0.000000
# 6 0.000000 0.000000 0.000000 0.000000 0.000000 -0.361418
#
#
# Mechanical properties :
#
#
# Convention : Reuss Voigt Hill
#
# Bulk Modulus (GPa) = 43.63579 45.41293 44.52436
# Shear Modulus (GPa) = -12.65401 5.09225 -3.78088
#
# Velocity S-wave (km/s) = -2.41004 1.52885 -1.31737
# Velocity P-wave (km/s) = 3.50497 4.89505 4.25713
#
# Compressibility (1/GPa) = 0.02291697
#
# Stress axis : x y z
#
# Youngs Moduli (GPa) = 86.72737 96.48494 71.05030
#
# Poissons Ratio (x) = 0.18437 0.05949
# Poissons Ratio (y) = 0.16573 0.26842
# Poissons Ratio (z) = 0.07262 0.36451
#
# Static dielectric constant tensor:
#      x y z
#    x 1.845560 0.000000 0.000000 
#    y 0.000000 1.925400 0.000000 
#    z 0.000000 0.000000 2.022450 
# 
# From -- ./inp_files/45775.got.cif
#   From: 2010.05.17/outbox.cif.g08.bks.cpg/sg22_23_cif.got.tgz:45775.got - 2010.06.03 23:40:54.
