data_PCOD9326343
_publ_section_title
;
Structure prediction by ZEFSAII (Michael W. Deem and Ramdas Pophale) SiO2 
 PCOD9326343
Probable space group: F 2 2 2
;
_chemical_formula_sum "Si O2"
_cell_formula_units_Z 112
_cell_length_a 23.340021
_cell_length_b 25.283937
_cell_length_c 11.240074
_cell_angle_alpha 90.000000
_cell_angle_beta 90.000000
_cell_angle_gamma 90.000000
_cell_volume 6633.078124
_symmetry_space_group_name_H-M "F 2 2 2"
_symmetry_group_IT_number 22
_symmetry_cell_setting 'orthorhombic'
loop_
_space_group_symop_operation_xyz
x,y,z
-x,-y,z
x,-y,-z
-x,y,-z
x,1/2+y,1/2+z
-x,1/2-y,1/2+z
x,1/2-y,1/2-z
-x,1/2+y,1/2-z
1/2+x,y,1/2+z
1/2-x,-y,1/2+z
1/2+x,-y,1/2-z
1/2-x,y,1/2-z
1/2+x,1/2+y,z
1/2-x,1/2-y,z
1/2+x,1/2-y,-z
1/2-x,1/2+y,-z
loop_
_atom_site_type_symbol
_atom_site_label
_atom_site_fract_x
_atom_site_fract_y
_atom_site_fract_z
Si Si1 0.112071 0.647462 0.107514
Si Si2 0.648629 0.862963 0.620596
Si Si3 0.250000 0.584320 0.250000
Si Si4 0.184155 0.750176 0.395092
Si Si5 0.052240 0.461748 0.203623
Si Si6 0.500000 0.385622 0.500000
Si Si7 0.154469 0.533870 0.103161
Si Si8 0.566290 0.561964 0.033031
O O1 0.117590 0.641121 0.250410
O O2 0.150320 0.697038 0.070240
O O3 0.134650 0.591347 0.058528
O O4 0.047631 0.649960 0.063126
O O5 0.714349 0.880397 0.654864
O O6 0.653477 0.804143 0.568011
O O7 0.612294 0.902946 0.539449
O O8 0.200928 0.547262 0.200146
O O9 0.184635 0.750000 0.250000
O O10 0.250000 0.750000 0.434767
O O11 0.028201 0.423242 0.101136
O O12 0.101244 0.500076 0.151550
O O13 0.072441 0.433304 0.324109
O O14 0.000000 0.500000 0.240520
O O15 0.182116 0.500000 0.000000
O O16 0.574786 0.500000 0.000000
O O17 0.500000 0.575663 0.000000
#
# Coordination Sequence:
#
# PCOD9326343 Si02
#       8
#    16  16   8  16  16   8  16  16
#     4  10  19  32  56  83 111 143 185 236 280 329
#     4  10  20  38  55  84 115 148 187 238 291 340
#     4  10  22  32  57  82 114 144 191 242 280 338
#     4   9  17  34  59  83 107 145 194 236 281 329
#     4  12  20  35  56  80 115 158 187 228 283 353
#     4  12  21  34  58  86 112 144 195 240 278 340
#     4  11  20  34  51  80 112 145 185 228 282 334
#     4  11  21  34  54  81 118 152 185 222 286 358
#
# _framework density 16.885072000000001
#
# number of rings (size 3 to 8) (size 9 to 14) (size 15 to 20)
#    0.000    1.429    4.286    5.357    0.000    1.714 
#    1.286    0.000    0.000    0.000    0.000    1.000 
#    0.000    0.000    0.000    0.000    0.000    0.000 
#
# Total GULP energy -156092.726837 kJ/mol
# GULP energy per Si atom -5574.740244 kJ/mol
# Density = 1.684664 g / cm^3
# Si number density = 16.885072 Si / 1000 Ang^3
#
#
#
# Elastic Constant Matrix: (Units=GPa)
#
#
# Indices 1 2 3 4 5 6 
#
# 1 110.0750 60.7700 22.9135 0.0000 0.0000 0.0000
# 2 60.7700 115.3464 39.2422 0.0000 0.0000 0.0000
# 3 22.9135 39.2422 59.2765 0.0000 0.0000 0.0000
# 4 0.0000 0.0000 0.0000 13.5576 0.0000 0.0000
# 5 0.0000 0.0000 0.0000 0.0000 22.6447 0.0000
# 6 0.0000 0.0000 0.0000 0.0000 0.0000 27.2585
#
#
#
# Elastic Compliance Matrix: (Units=1/GPa)
#
#
# Indices 1 2 3 4 5 6 
#
# 1 0.012829 -0.006546 -0.000625 0.000000 0.000000 0.000000
# 2 -0.006546 0.014530 -0.007089 0.000000 0.000000 0.000000
# 3 -0.000625 -0.007089 0.021805 0.000000 0.000000 0.000000
# 4 0.000000 0.000000 0.000000 0.073759 0.000000 0.000000
# 5 0.000000 0.000000 0.000000 0.000000 0.044160 0.000000
# 6 0.000000 0.000000 0.000000 0.000000 0.000000 0.036686
#
#
# Mechanical properties :
#
#
# Convention : Reuss Voigt Hill
#
# Bulk Modulus (GPa) = 48.44226 58.94991 53.69608
# Shear Modulus (GPa) = 20.90560 23.47698 22.19129
#
# Velocity S-wave (km/s) = 3.52250 3.73285 3.62920
# Velocity P-wave (km/s) = 6.73021 7.31896 7.03075
#
# Compressibility (1/GPa) = 0.02064313
#
# Stress axis : x y z
#
# Youngs Moduli (GPa) = 77.94929 68.82314 45.86168
#
# Poissons Ratio (x) = 0.45052 0.02868
# Poissons Ratio (y) = 0.51026 0.32510
# Poissons Ratio (z) = 0.04875 0.48787
#
# Static dielectric constant tensor:
#      x y z
#    x 1.604580 0.000000 0.000000 
#    y 0.000000 1.577310 0.000000 
#    z 0.000000 0.000000 1.608600 
# 
# From -- ./inp_files/24051.got.cif
#   From: 2010.05.17/outbox.cif.g08.bks.cpg/sg22_13_cif.got.tgz:24051.got - 2010.06.03 23:40:54.
