data_PCOD9326943
_publ_section_title
;
Structure prediction by ZEFSAII (Michael W. Deem and Ramdas Pophale) SiO2 
 PCOD9326943
Probable space group: F 2 2 2
;
_chemical_formula_sum "Si O2"
_cell_formula_units_Z 120
_cell_length_a 23.188922
_cell_length_b 20.797329
_cell_length_c 13.789567
_cell_angle_alpha 90.000000
_cell_angle_beta 90.000000
_cell_angle_gamma 90.000000
_cell_volume 6650.261934
_symmetry_space_group_name_H-M "F 2 2 2"
_symmetry_group_IT_number 22
_symmetry_cell_setting 'orthorhombic'
loop_
_space_group_symop_operation_xyz
x,y,z
-x,-y,z
x,-y,-z
-x,y,-z
x,1/2+y,1/2+z
-x,1/2-y,1/2+z
x,1/2-y,1/2-z
-x,1/2+y,1/2-z
1/2+x,y,1/2+z
1/2-x,-y,1/2+z
1/2+x,-y,1/2-z
1/2-x,y,1/2-z
1/2+x,1/2+y,z
1/2-x,1/2-y,z
1/2+x,1/2-y,-z
1/2-x,1/2+y,-z
loop_
_atom_site_type_symbol
_atom_site_label
_atom_site_fract_x
_atom_site_fract_y
_atom_site_fract_z
Si Si1 0.378335 0.395060 0.225026
Si Si2 0.996166 0.075702 0.890378
Si Si3 0.994086 0.774013 0.613863
Si Si4 0.600005 0.250000 0.750000
Si Si5 0.659363 0.491898 0.610876
Si Si6 0.929953 0.160920 0.222672
Si Si7 0.795576 0.484063 0.608429
Si Si8 0.314666 0.604755 0.249013
O O1 0.439440 0.402531 0.168736
O O2 0.368698 0.318938 0.242524
O O3 0.374555 0.440234 0.321905
O O4 0.330176 0.425819 0.155450
O O5 0.051084 0.095657 0.827674
O O6 0.000000 0.000000 0.898184
O O7 0.000000 0.102964 0.000000
O O8 0.964467 0.830666 0.676562
O O9 0.953920 0.714890 0.649218
O O10 0.000000 0.783301 0.500000
O O11 0.056553 0.758873 0.659024
O O12 0.639334 0.500000 0.500000
O O13 0.727021 0.470754 0.610508
O O14 0.663348 0.562782 0.659122
O O15 0.861940 0.158985 0.232439
O O16 0.813855 0.500000 0.500000
O O17 0.809325 0.548080 0.669365
O O18 0.250000 0.631446 0.250000
#
# Coordination Sequence:
#
# PCOD9326943 Si02
#       8
#    16  16  16   8  16  16  16  16
#     4  11  20  35  56  82 118 152 196 238 297 354
#     4  11  22  32  54  88 118 142 185 249 301 344
#     4  10  21  39  56  73 106 154 196 227 276 356
#     4  10  22  36  49  82 111 156 192 234 286 354
#     4   9  19  37  56  80 115 154 194 237 288 353
#     4  10  20  37  55  80 111 146 187 236 286 346
#     4   9  19  33  57  85 110 149 192 239 298 346
#     4   9  18  33  54  81 111 142 185 239 293 341
#
# _framework density 18.044402000000002
#
# number of rings (size 3 to 8) (size 9 to 14) (size 15 to 20)
#    0.000    2.267    2.667    3.200    3.733    1.067 
#    0.000    2.667    0.000    0.000    0.000   14.933 
#    0.000    0.000    0.000    0.000    0.000    0.000 
#
# Total GULP energy -167083.834285 kJ/mol
# GULP energy per Si atom -5569.461143 kJ/mol
# Density = 1.800333 g / cm^3
# Si number density = 18.044402 Si / 1000 Ang^3
#
#
#
# Elastic Constant Matrix: (Units=GPa)
#
#
# Indices 1 2 3 4 5 6 
#
# 1 71.5194 26.1684 31.4583 0.0000 0.0000 0.0000
# 2 26.1684 64.9742 27.8444 0.0000 0.0000 0.0000
# 3 31.4583 27.8444 149.9596 0.0000 0.0000 0.0000
# 4 0.0000 0.0000 0.0000 8.7174 0.0000 0.0000
# 5 0.0000 0.0000 0.0000 0.0000 21.8015 0.0000
# 6 0.0000 0.0000 0.0000 0.0000 0.0000 306.0632
#
#
#
# Elastic Compliance Matrix: (Units=1/GPa)
#
#
# Indices 1 2 3 4 5 6 
#
# 1 0.017238 -0.005859 -0.002528 0.000000 0.000000 0.000000
# 2 -0.005859 0.018713 -0.002245 0.000000 0.000000 0.000000
# 3 -0.002528 -0.002245 0.007616 0.000000 0.000000 0.000000
# 4 0.000000 0.000000 0.000000 0.114714 0.000000 0.000000
# 5 0.000000 0.000000 0.000000 0.000000 0.045868 0.000000
# 6 0.000000 0.000000 0.000000 0.000000 0.000000 0.003267
#
#
# Mechanical properties :
#
#
# Convention : Reuss Voigt Hill
#
# Bulk Modulus (GPa) = 44.84122 50.82169 47.83146
# Shear Modulus (GPa) = 21.17608 80.71521 50.94565
#
# Velocity S-wave (km/s) = 3.42943 6.69541 5.31928
# Velocity P-wave (km/s) = 6.37070 9.38069 8.01820
#
# Compressibility (1/GPa) = 0.02230091
#
# Stress axis : x y z
#
# Youngs Moduli (GPa) = 58.01093 53.43935 131.30647
#
# Poissons Ratio (x) = 0.31311 0.33198
# Poissons Ratio (y) = 0.33990 0.29484
# Poissons Ratio (z) = 0.14667 0.12000
#
# Static dielectric constant tensor:
#      x y z
#    x 1.636090 0.000000 0.000000 
#    y 0.000000 1.629980 0.000000 
#    z 0.000000 0.000000 1.625500 
# 
# From -- ./inp_files/32695.got.cif
#   From: 2010.05.17/outbox.cif.g08.bks.cpg/sg22_17_cif.got.tgz:32695.got - 2010.06.03 23:40:54.
