data_PCOD9326556
_publ_section_title
;
Structure prediction by ZEFSAII (Michael W. Deem and Ramdas Pophale) SiO2 
 PCOD9326556
Probable space group: F 2 2 2
;
_chemical_formula_sum "Si O2"
_cell_formula_units_Z 88
_cell_length_a 29.979545
_cell_length_b 18.474704
_cell_length_c 7.120030
_cell_angle_alpha 90.000000
_cell_angle_beta 90.000000
_cell_angle_gamma 90.000000
_cell_volume 3943.522742
_symmetry_space_group_name_H-M "F 2 2 2"
_symmetry_group_IT_number 22
_symmetry_cell_setting 'orthorhombic'
loop_
_space_group_symop_operation_xyz
x,y,z
-x,-y,z
x,-y,-z
-x,y,-z
x,1/2+y,1/2+z
-x,1/2-y,1/2+z
x,1/2-y,1/2-z
-x,1/2+y,1/2-z
1/2+x,y,1/2+z
1/2-x,-y,1/2+z
1/2+x,-y,1/2-z
1/2-x,y,1/2-z
1/2+x,1/2+y,z
1/2-x,1/2-y,z
1/2+x,1/2-y,-z
1/2-x,1/2+y,-z
loop_
_atom_site_type_symbol
_atom_site_label
_atom_site_fract_x
_atom_site_fract_y
_atom_site_fract_z
Si Si1 0.829810 0.877167 0.926914
Si Si2 0.618112 0.000000 0.500000
Si Si3 0.265199 0.414221 0.465061
Si Si4 0.346878 0.828874 0.837777
Si Si5 0.907060 0.176022 0.314334
Si Si6 0.051243 0.018915 0.714284
O O1 0.776785 0.880210 0.922030
O O2 0.845704 0.873836 0.144464
O O3 0.848272 0.955280 0.869331
O O4 0.861545 0.824560 0.812144
O O5 0.582130 0.971497 0.349681
O O6 0.271565 0.500000 0.500000
O O7 0.250000 0.408593 0.250000
O O8 0.309308 0.365332 0.471226
O O9 0.334977 0.750000 0.750000
O O10 0.390598 0.824525 0.968685
O O11 0.930639 0.250000 0.250000
O O12 0.934986 0.103703 0.265360
O O13 0.060883 0.000000 0.500000
O O14 0.000000 0.000000 0.751816
#
# Coordination Sequence:
#
# PCOD9326556 Si02
#       6
#    16   8  16  16  16  16
#     4  10  21  38  60  91 124 172 222 268 323 380
#     4  10  19  36  68  94 126 162 216 270 315 390
#     4  10  23  37  58  88 132 172 229 284 321 367
#     4  11  23  40  60  90 133 177 222 267 331 382
#     4  11  23  41  68  94 127 171 219 268 329 402
#     4  10  22  41  70  98 130 164 211 268 338 407
#
# _framework density 22.315072000000001
#
# number of rings (size 3 to 8) (size 9 to 14) (size 15 to 20)
#    0.000    1.636    2.727    1.364    2.545    5.455 
#    0.000    0.909   16.000    0.000    0.000    0.000 
#    0.000    0.000    0.000    0.000    0.000    0.000 
#
# Total GULP energy -122554.474184 kJ/mol
# GULP energy per Si atom -5570.657917 kJ/mol
# Density = 2.226428 g / cm^3
# Si number density = 22.315072 Si / 1000 Ang^3
#
#
#
# Elastic Constant Matrix: (Units=GPa)
#
#
# Indices 1 2 3 4 5 6 
#
# 1 85.9142 48.9651 49.1103 0.0000 0.0000 0.0000
# 2 48.9651 124.5023 -4.5184 0.0000 0.0000 0.0000
# 3 49.1103 -4.5184 71.9582 0.0000 0.0000 0.0000
# 4 0.0000 0.0000 0.0000 37.2356 0.0000 0.0000
# 5 0.0000 0.0000 0.0000 0.0000 -0.7320 0.0000
# 6 0.0000 0.0000 0.0000 0.0000 0.0000 17.4462
#
#
#
# Elastic Compliance Matrix: (Units=1/GPa)
#
#
# Indices 1 2 3 4 5 6 
#
# 1 0.032692 -0.013698 -0.023172 0.000000 -0.000001 0.000000
# 2 -0.013698 0.013790 0.010215 0.000000 0.000000 0.000000
# 3 -0.023172 0.010215 0.030353 0.000000 0.000001 0.000000
# 4 0.000000 0.000000 0.000000 0.026856 0.000000 0.000000
# 5 -0.000001 0.000000 0.000001 0.000000 -1.366204 -0.000001
# 6 0.000000 0.000000 0.000000 0.000000 -0.000001 0.057319
#
#
# Mechanical properties :
#
#
# Convention : Reuss Voigt Hill
#
# Bulk Modulus (GPa) = 42.50981 52.16542 47.33761
# Shear Modulus (GPa) = -4.37047 23.37783 9.50368
#
# Velocity S-wave (km/s) = -1.40099 3.24022 2.06594
# Velocity P-wave (km/s) = 4.05883 6.11769 5.19135
#
# Compressibility (1/GPa) = 0.02352398
#
# Stress axis : x y z
#
# Youngs Moduli (GPa) = 30.58835 72.51594 32.94584
#
# Poissons Ratio (x) = 0.99335 0.76342
# Poissons Ratio (y) = 0.41901 -0.33653
# Poissons Ratio (z) = 0.70879 -0.74073
#
# Static dielectric constant tensor:
#      x y z
#    x 1.836760 0.000000 0.000000 
#    y 0.000000 2.244700 0.000000 
#    z 0.000000 0.000000 1.912650 
# 
# From -- ./inp_files/15534.got.cif
#   From: 2010.05.17/outbox.cif.g08.bks.cpg/sg22_8_cif.got.tgz:15534.got - 2010.06.03 23:40:54.
