data_PCOD9326904
_publ_section_title
;
Structure prediction by ZEFSAII (Michael W. Deem and Ramdas Pophale) SiO2 
 PCOD9326904
Probable space group: F 2 2 2
;
_chemical_formula_sum "Si O2"
_cell_formula_units_Z 80
_cell_length_a 22.258017
_cell_length_b 12.415981
_cell_length_c 14.443279
_cell_angle_alpha 90.000000
_cell_angle_beta 90.000000
_cell_angle_gamma 90.000000
_cell_volume 3991.474046
_symmetry_space_group_name_H-M "F 2 2 2"
_symmetry_group_IT_number 22
_symmetry_cell_setting 'orthorhombic'
loop_
_space_group_symop_operation_xyz
x,y,z
-x,-y,z
x,-y,-z
-x,y,-z
x,1/2+y,1/2+z
-x,1/2-y,1/2+z
x,1/2-y,1/2-z
-x,1/2+y,1/2-z
1/2+x,y,1/2+z
1/2-x,-y,1/2+z
1/2+x,-y,1/2-z
1/2-x,y,1/2-z
1/2+x,1/2+y,z
1/2-x,1/2-y,z
1/2+x,1/2-y,-z
1/2-x,1/2+y,-z
loop_
_atom_site_type_symbol
_atom_site_label
_atom_site_fract_x
_atom_site_fract_y
_atom_site_fract_z
Si Si1 0.815402 0.971249 0.709171
Si Si2 0.417361 0.819260 0.176261
Si Si3 0.860932 0.000000 0.500000
Si Si4 0.572368 0.728407 0.486931
Si Si5 0.898891 0.359314 0.692546
Si Si6 0.000000 0.500000 0.215172
O O1 0.750000 0.951772 0.750000
O O2 0.859549 0.870143 0.723846
O O3 0.822749 0.984924 0.596175
O O4 0.842945 0.071135 0.768182
O O5 0.452808 0.750000 0.250000
O O6 0.402967 0.747178 0.089039
O O7 0.460183 0.919961 0.153734
O O8 0.900340 0.892841 0.474346
O O9 0.500000 0.729860 0.500000
O O10 0.594725 0.814305 0.411754
O O11 0.900128 0.250000 0.750000
O O12 0.955051 0.433214 0.720879
#
# Coordination Sequence:
#
# PCOD9326904 Si02
#       6
#    16  16   8  16  16   8
#     4  10  23  43  66  91 126 170 224 282 321 392
#     4  10  22  39  60  91 128 170 217 266 333 392
#     4  10  21  40  64  96 118 167 218 266 324 396
#     4  11  21  34  62  94 129 164 209 257 326 399
#     4  11  21  39  61  96 133 167 212 265 333 386
#     4  10  20  36  62  92 134 168 206 266 324 402
#
# _framework density 20.042722000000001
#
# number of rings (size 3 to 8) (size 9 to 14) (size 15 to 20)
#    0.000    1.600    2.000    3.300    5.600    0.800 
#    3.600    8.500    0.000    0.000    0.000    0.000 
#    0.000    0.000    0.000    0.000    0.000    0.000 
#
# Total GULP energy -111354.844336 kJ/mol
# GULP energy per Si atom -5567.742217 kJ/mol
# Density = 1.999710 g / cm^3
# Si number density = 20.042722 Si / 1000 Ang^3
#
#
#
# Elastic Constant Matrix: (Units=GPa)
#
#
# Indices 1 2 3 4 5 6 
#
# 1 110.1019 17.6835 25.8706 0.0000 0.0000 0.0000
# 2 17.6835 48.2854 47.1621 0.0000 0.0000 0.0000
# 3 25.8706 47.1621 136.8895 0.0000 0.0000 0.0000
# 4 0.0000 0.0000 0.0000 45.5341 0.0000 0.0000
# 5 0.0000 0.0000 0.0000 0.0000 18.7818 0.0000
# 6 0.0000 0.0000 0.0000 0.0000 0.0000 -0.4104
#
#
#
# Elastic Compliance Matrix: (Units=1/GPa)
#
#
# Indices 1 2 3 4 5 6 
#
# 1 0.009727 -0.002663 -0.000921 0.000000 0.000000 0.000000
# 2 -0.002663 0.031943 -0.010502 0.000000 0.000000 0.000000
# 3 -0.000921 -0.010502 0.011097 0.000000 0.000000 0.000000
# 4 0.000000 0.000000 0.000000 0.021962 0.000000 0.000000
# 5 0.000000 0.000000 0.000000 0.000000 0.053243 0.000000
# 6 0.000000 0.000000 0.000000 0.000000 0.000000 -2.436407
#
#
# Mechanical properties :
#
#
# Convention : Reuss Voigt Hill
#
# Bulk Modulus (GPa) = 40.65729 52.96771 46.81250
# Shear Modulus (GPa) = -2.20064 26.41847 12.10891
#
# Velocity S-wave (km/s) = -1.04898 3.63451 2.46062
# Velocity P-wave (km/s) = 4.34306 6.64061 5.61070
#
# Compressibility (1/GPa) = 0.02459584
#
# Stress axis : x y z
#
# Youngs Moduli (GPa) = 102.81167 31.30572 90.11107
#
# Poissons Ratio (x) = 0.08336 0.08298
# Poissons Ratio (y) = 0.27376 0.94635
# Poissons Ratio (z) = 0.09467 0.32877
#
# Static dielectric constant tensor:
#      x y z
#    x 1.715980 0.000000 0.000000 
#    y 0.000000 1.811500 0.000000 
#    z 0.000000 0.000000 1.808810 
# 
# From -- ./inp_files/32292.got.cif
#   From: 2010.05.17/outbox.cif.g08.bks.cpg/sg22_17_cif.got.tgz:32292.got - 2010.06.03 23:40:54.
