data_PCOD9326929
_publ_section_title
;
Structure prediction by ZEFSAII (Michael W. Deem and Ramdas Pophale) SiO2 
 PCOD9326929
Probable space group: F 2 2 2
;
_chemical_formula_sum "Si O2"
_cell_formula_units_Z 64
_cell_length_a 13.219924
_cell_length_b 7.995338
_cell_length_c 25.430568
_cell_angle_alpha 90.000000
_cell_angle_beta 90.000000
_cell_angle_gamma 90.000000
_cell_volume 2687.954091
_symmetry_space_group_name_H-M "F 2 2 2"
_symmetry_group_IT_number 22
_symmetry_cell_setting 'orthorhombic'
loop_
_space_group_symop_operation_xyz
x,y,z
-x,-y,z
x,-y,-z
-x,y,-z
x,1/2+y,1/2+z
-x,1/2-y,1/2+z
x,1/2-y,1/2-z
-x,1/2+y,1/2-z
1/2+x,y,1/2+z
1/2-x,-y,1/2+z
1/2+x,-y,1/2-z
1/2-x,y,1/2-z
1/2+x,1/2+y,z
1/2-x,1/2-y,z
1/2+x,1/2-y,-z
1/2-x,1/2+y,-z
loop_
_atom_site_type_symbol
_atom_site_label
_atom_site_fract_x
_atom_site_fract_y
_atom_site_fract_z
Si Si1 0.398456 0.750000 0.750000
Si Si2 0.123553 0.593146 0.597196
Si Si3 0.750000 0.250000 0.250000
Si Si4 0.344483 0.570194 0.648930
Si Si5 0.500000 0.500000 0.000000
Si Si6 0.421297 0.301008 0.827054
O O1 0.336502 0.635107 0.709485
O O2 0.480751 0.671915 0.790358
O O3 0.242040 0.568148 0.614259
O O4 0.097478 0.776626 0.620441
O O5 0.083784 0.422169 0.623733
O O6 0.078761 0.594572 0.538637
O O7 0.674129 0.345091 0.210929
O O8 0.397807 0.390884 0.655744
#
# Coordination Sequence:
#
# PCOD9326929 Si02
#       6
#     8  16   4  16   4  16
#     4  11  26  36  72 113 158 194 235 265 359 453
#     4  11  26  48  74 101 145 186 259 316 371 430
#     4  10  20  36  66 110 152 204 218 264 366 420
#     4  11  25  45  70 115 149 196 236 297 364 454
#     4  12  28  56  78 104 130 194 256 344 386 406
#     4  11  23  43  68 110 160 196 235 294 351 458
#
# _framework density 23.809932
#
# number of rings (size 3 to 8) (size 9 to 14) (size 15 to 20)
#    0.000    1.000    2.500    2.250   10.500    2.000 
#    9.000    1.250    0.000    0.000    0.000    0.000 
#    0.000    0.000    0.000    0.000    0.000    0.000 
#
# Total GULP energy -89187.859788 kJ/mol
# GULP energy per Si atom -5574.241237 kJ/mol
# Density = 2.375574 g / cm^3
# Si number density = 23.809932 Si / 1000 Ang^3
#
#
#
# Elastic Constant Matrix: (Units=GPa)
#
#
# Indices 1 2 3 4 5 6 
#
# 1 130.7706 46.7149 54.2336 0.0000 0.0000 0.0000
# 2 46.7149 203.8811 76.5277 0.0000 0.0000 0.0000
# 3 54.2336 76.5277 170.6991 0.0000 0.0000 0.0000
# 4 0.0000 0.0000 0.0000 35.8326 0.0000 0.0000
# 5 0.0000 0.0000 0.0000 0.0000 58.4410 0.0000
# 6 0.0000 0.0000 0.0000 0.0000 0.0000 34.9628
#
#
#
# Elastic Compliance Matrix: (Units=1/GPa)
#
#
# Indices 1 2 3 4 5 6 
#
# 1 0.009043 -0.001195 -0.002338 0.000000 0.000000 0.000000
# 2 -0.001195 0.006055 -0.002335 0.000000 0.000000 0.000000
# 3 -0.002338 -0.002335 0.007648 0.000000 0.000000 0.000000
# 4 0.000000 0.000000 0.000000 0.027908 0.000000 0.000000
# 5 0.000000 0.000000 0.000000 0.000000 0.017111 0.000000
# 6 0.000000 0.000000 0.000000 0.000000 0.000000 0.028602
#
#
# Mechanical properties :
#
#
# Convention : Reuss Voigt Hill
#
# Bulk Modulus (GPa) = 90.81407 95.58924 93.20166
# Shear Modulus (GPa) = 44.73410 47.70559 46.21985
#
# Velocity S-wave (km/s) = 4.33922 4.48102 4.41069
# Velocity P-wave (km/s) = 7.95796 8.18576 8.07266
#
# Compressibility (1/GPa) = 0.01101151
#
# Stress axis : x y z
#
# Youngs Moduli (GPa) = 110.58056 165.15263 130.75691
#
# Poissons Ratio (x) = 0.19730 0.30565
# Poissons Ratio (y) = 0.13210 0.30532
# Poissons Ratio (z) = 0.25849 0.38564
#
# Static dielectric constant tensor:
#      x y z
#    x 2.265160 0.000000 0.000000 
#    y 0.000000 1.957610 0.000000 
#    z 0.000000 0.000000 1.909300 
# 
# From -- ./inp_files/48653.got.cif
#   From: 2010.05.17/outbox.cif.g08.bks.cpg/sg22_25_cif.got.tgz:48653.got - 2010.06.03 23:40:54.
