data_PCOD9326458
_publ_section_title
;
Structure prediction by ZEFSAII (Michael W. Deem and Ramdas Pophale) SiO2 
 PCOD9326458
Probable space group: F 2 2 2
;
_chemical_formula_sum "Si O2"
_cell_formula_units_Z 104
_cell_length_a 9.156518
_cell_length_b 27.115644
_cell_length_c 21.815444
_cell_angle_alpha 90.000000
_cell_angle_beta 90.000000
_cell_angle_gamma 90.000000
_cell_volume 5416.444947
_symmetry_space_group_name_H-M "F 2 2 2"
_symmetry_group_IT_number 22
_symmetry_cell_setting 'orthorhombic'
loop_
_space_group_symop_operation_xyz
x,y,z
-x,-y,z
x,-y,-z
-x,y,-z
x,1/2+y,1/2+z
-x,1/2-y,1/2+z
x,1/2-y,1/2-z
-x,1/2+y,1/2-z
1/2+x,y,1/2+z
1/2-x,-y,1/2+z
1/2+x,-y,1/2-z
1/2-x,y,1/2-z
1/2+x,1/2+y,z
1/2-x,1/2-y,z
1/2+x,1/2-y,-z
1/2-x,1/2+y,-z
loop_
_atom_site_type_symbol
_atom_site_label
_atom_site_fract_x
_atom_site_fract_y
_atom_site_fract_z
Si Si1 0.419206 0.449684 0.232029
Si Si2 0.572785 0.699849 0.387627
Si Si3 0.242235 0.945814 0.009988
Si Si4 0.991871 0.419911 0.593138
Si Si5 0.000000 0.868521 0.500000
Si Si6 0.426115 0.310451 0.121589
Si Si7 0.927220 0.658525 0.242832
O O1 0.500000 0.500000 0.248876
O O2 0.250000 0.454828 0.250000
O O3 0.443063 0.438442 0.159866
O O4 0.474453 0.398595 0.262266
O O5 0.510002 0.664803 0.439537
O O6 0.530749 0.756399 0.401152
O O7 0.749166 0.691032 0.385633
O O8 0.527519 0.686626 0.318239
O O9 0.360376 0.903533 0.004544
O O10 0.149136 0.939930 0.072394
O O11 0.124696 0.938854 0.955896
O O12 0.306554 0.000000 0.000000
O O13 0.986480 0.360175 0.590980
O O14 0.471070 0.316588 0.193107
O O15 0.750000 0.657567 0.250000
#
# Coordination Sequence:
#
# PCOD9326458 Si02
#       7
#    16  16  16  16   8  16  16
#     4  10  20  36  58  90 119 154 199 259 314 356
#     4  10  19  35  53  91 123 155 194 250 303 357
#     4  11  23  41  62  83 116 165 203 246 300 365
#     4  10  20  41  63  87 114 154 211 251 291 372
#     4  12  25  38  54  92 130 152 199 254 308 358
#     4   9  17  34  64  84 115 155 200 246 302 356
#     4   8  16  32  57  83 114 151 199 245 285 354
#
# _framework density 19.200786000000001
#
# number of rings (size 3 to 8) (size 9 to 14) (size 15 to 20)
#    0.000    2.154    1.538    3.462    0.000    3.077 
#    5.538    0.000    0.000    0.000    0.000    2.154 
#    0.000    0.000    0.000    0.000    0.000    0.000 
#
# Total GULP energy -145010.708786 kJ/mol
# GULP energy per Si atom -5577.334953 kJ/mol
# Density = 1.915708 g / cm^3
# Si number density = 19.200786 Si / 1000 Ang^3
#
#
#
# Elastic Constant Matrix: (Units=GPa)
#
#
# Indices 1 2 3 4 5 6 
#
# 1 23.0362 15.3187 -10.6121 0.0000 0.0000 0.0000
# 2 15.3187 150.4517 9.8253 0.0000 0.0000 0.0000
# 3 -10.6121 9.8253 29.0219 0.0000 0.0000 0.0000
# 4 0.0000 0.0000 0.0000 17.3112 0.0000 0.0000
# 5 0.0000 0.0000 0.0000 0.0000 19.6460 0.0000
# 6 0.0000 0.0000 0.0000 0.0000 0.0000 24.6704
#
#
#
# Elastic Compliance Matrix: (Units=1/GPa)
#
#
# Indices 1 2 3 4 5 6 
#
# 1 0.059791 -0.007685 0.024465 0.000000 0.000000 0.000000
# 2 -0.007685 0.007785 -0.005446 0.000000 0.000000 0.000000
# 3 0.024465 -0.005446 0.045246 0.000000 0.000000 0.000000
# 4 0.000000 0.000000 0.000000 0.057766 0.000000 0.000000
# 5 0.000000 0.000000 0.000000 0.000000 0.050901 0.000000
# 6 0.000000 0.000000 0.000000 0.000000 0.000000 0.040534
#
#
# Mechanical properties :
#
#
# Convention : Reuss Voigt Hill
#
# Bulk Modulus (GPa) = 7.38066 25.73039 16.55553
# Shear Modulus (GPa) = 17.57353 24.85740 21.21547
#
# Velocity S-wave (km/s) = 3.02859 3.60196 3.32765
# Velocity P-wave (km/s) = 4.01025 5.54334 4.83791
#
# Compressibility (1/GPa) = 0.13548925
#
# Stress axis : x y z
#
# Youngs Moduli (GPa) = 16.72497 128.45537 22.10129
#
# Poissons Ratio (x) = 0.98724 -0.54071
# Poissons Ratio (y) = 0.12854 0.12036
# Poissons Ratio (z) = -0.40918 0.69954
#
# Static dielectric constant tensor:
#      x y z
#    x 1.653270 0.000000 0.000000 
#    y 0.000000 1.689150 0.000000 
#    z 0.000000 0.000000 1.662870 
# 
# From -- ./inp_files/47503.got.cif
#   From: 2010.05.17/outbox.cif.g08.bks.cpg/sg22_24_cif.got.tgz:47503.got - 2010.06.03 23:40:54.
