data_PCOD9326463
_publ_section_title
;
Structure prediction by ZEFSAII (Michael W. Deem and Ramdas Pophale) SiO2 
 PCOD9326463
Probable space group: F 2 2 2
;
_chemical_formula_sum "Si O2"
_cell_formula_units_Z 100
_cell_length_a 26.406543
_cell_length_b 14.427998
_cell_length_c 12.156506
_cell_angle_alpha 90.000000
_cell_angle_beta 90.000000
_cell_angle_gamma 90.000000
_cell_volume 4631.550372
_symmetry_space_group_name_H-M "F 2 2 2"
_symmetry_group_IT_number 22
_symmetry_cell_setting 'orthorhombic'
loop_
_space_group_symop_operation_xyz
x,y,z
-x,-y,z
x,-y,-z
-x,y,-z
x,1/2+y,1/2+z
-x,1/2-y,1/2+z
x,1/2-y,1/2-z
-x,1/2+y,1/2-z
1/2+x,y,1/2+z
1/2-x,-y,1/2+z
1/2+x,-y,1/2-z
1/2-x,y,1/2-z
1/2+x,1/2+y,z
1/2-x,1/2-y,z
1/2+x,1/2-y,-z
1/2-x,1/2+y,-z
loop_
_atom_site_type_symbol
_atom_site_label
_atom_site_fract_x
_atom_site_fract_y
_atom_site_fract_z
Si Si1 0.978323 0.349742 0.114789
Si Si2 0.896259 0.061007 0.815310
Si Si3 0.240861 0.908753 0.373846
Si Si4 0.750000 0.750000 0.250000
Si Si5 0.447839 0.750000 0.750000
Si Si6 0.624811 0.067744 0.103153
Si Si7 0.000000 0.500000 0.302706
Si Si8 0.707069 0.104718 0.587599
O O1 0.917623 0.351571 0.105204
O O2 0.013460 0.262526 0.146702
O O3 0.989709 0.416621 0.217261
O O4 0.000000 0.386533 0.000000
O O5 0.912283 0.160993 0.766397
O O6 0.850008 0.070963 0.897874
O O7 0.880095 0.994180 0.713977
O O8 0.948217 0.020414 0.864222
O O9 0.250000 0.876922 0.250000
O O10 0.182243 0.897819 0.404635
O O11 0.277042 0.865006 0.465759
O O12 0.256187 0.018272 0.381050
O O13 0.716300 0.814291 0.326870
O O14 0.614141 0.000000 0.000000
#
# Coordination Sequence:
#
# PCOD9326463 Si02
#       8
#    16  16  16   4   8  16   8  16
#     4  10  19  35  56  85 119 155 202 260 311 378
#     4  10  19  35  59  93 122 165 200 267 318 384
#     4  11  22  42  65  97 127 170 227 273 318 390
#     4  12  22  40  62 104 136 174 214 270 328 402
#     4  10  21  36  56  89 129 154 207 254 322 392
#     4  11  19  33  65  92 118 159 214 270 321 367
#     4   8  17  32  60  89 114 148 211 257 308 374
#     4  11  22  38  66  96 134 167 214 272 329 382
#
# _framework density 21.591041000000001
#
# number of rings (size 3 to 8) (size 9 to 14) (size 15 to 20)
#    0.000    1.600    4.000    3.600    0.000    0.000 
#    2.880    2.000    3.520    0.000    0.000    0.000 
#    0.000    0.000    0.000    0.000    0.000    0.000 
#
# Total GULP energy -139544.163302 kJ/mol
# GULP energy per Si atom -5581.766532 kJ/mol
# Density = 2.154190 g / cm^3
# Si number density = 21.591041 Si / 1000 Ang^3
#
#
#
# Elastic Constant Matrix: (Units=GPa)
#
#
# Indices 1 2 3 4 5 6 
#
# 1 193.0378 12.4091 59.4522 0.0000 0.0000 0.0000
# 2 12.4091 37.2267 13.6407 0.0000 0.0000 0.0000
# 3 59.4522 13.6407 124.6783 0.0000 0.0000 0.0000
# 4 0.0000 0.0000 0.0000 14.0793 0.0000 0.0000
# 5 0.0000 0.0000 0.0000 0.0000 12.1354 0.0000
# 6 0.0000 0.0000 0.0000 0.0000 0.0000 -0.9124
#
#
#
# Elastic Compliance Matrix: (Units=1/GPa)
#
#
# Indices 1 2 3 4 5 6 
#
# 1 0.006108 -0.001009 -0.002802 0.000000 0.000000 0.000000
# 2 -0.001009 0.028151 -0.002599 0.000000 0.000000 0.000000
# 3 -0.002802 -0.002599 0.009641 0.000000 0.000000 0.000000
# 4 0.000000 0.000000 0.000000 0.071026 0.000000 0.000000
# 5 0.000000 0.000000 0.000000 0.000000 0.082403 0.000000
# 6 0.000000 0.000000 0.000000 0.000000 0.000000 -1.096053
#
#
# Mechanical properties :
#
#
# Convention : Reuss Voigt Hill
#
# Bulk Modulus (GPa) = 32.17490 58.43851 45.30670
# Shear Modulus (GPa) = -5.71075 23.02319 8.65622
#
# Velocity S-wave (km/s) = -1.62810 3.26901 2.00446
# Velocity P-wave (km/s) = 3.37640 6.43222 5.13680
#
# Compressibility (1/GPa) = 0.03108013
#
# Stress axis : x y z
#
# Youngs Moduli (GPa) = 163.71267 35.52258 103.72151
#
# Poissons Ratio (x) = 0.03585 0.29066
# Poissons Ratio (y) = 0.16524 0.26954
# Poissons Ratio (z) = 0.45877 0.09231
#
# Static dielectric constant tensor:
#      x y z
#    x 1.795670 0.000000 0.000000 
#    y 0.000000 1.851160 0.000000 
#    z 0.000000 0.000000 1.797550 
# 
# From -- ./inp_files/25381.got.cif
#   From: 2010.05.17/outbox.cif.g08.bks.cpg/sg22_13_cif.got.tgz:25381.got - 2010.06.03 23:40:54.
