data_PCOD9326133
_publ_section_title
;
Structure prediction by ZEFSAII (Michael W. Deem and Ramdas Pophale) SiO2 
 PCOD9326133
Probable space group: F 2 2 2
;
_chemical_formula_sum "Si O2"
_cell_formula_units_Z 72
_cell_length_a 16.901231
_cell_length_b 23.161656
_cell_length_c 9.638816
_cell_angle_alpha 90.000000
_cell_angle_beta 90.000000
_cell_angle_gamma 90.000000
_cell_volume 3773.215715
_symmetry_space_group_name_H-M "F 2 2 2"
_symmetry_group_IT_number 22
_symmetry_cell_setting 'orthorhombic'
loop_
_space_group_symop_operation_xyz
x,y,z
-x,-y,z
x,-y,-z
-x,y,-z
x,1/2+y,1/2+z
-x,1/2-y,1/2+z
x,1/2-y,1/2-z
-x,1/2+y,1/2-z
1/2+x,y,1/2+z
1/2-x,-y,1/2+z
1/2+x,-y,1/2-z
1/2-x,y,1/2-z
1/2+x,1/2+y,z
1/2-x,1/2-y,z
1/2+x,1/2-y,-z
1/2-x,1/2+y,-z
loop_
_atom_site_type_symbol
_atom_site_label
_atom_site_fract_x
_atom_site_fract_y
_atom_site_fract_z
Si Si1 0.487534 0.250000 0.750000
Si Si2 0.994849 0.932005 0.665227
Si Si3 0.131896 0.341217 0.819001
Si Si4 0.931956 0.643882 0.386724
Si Si5 0.278654 0.315328 0.966685
O O1 0.433438 0.291859 0.654952
O O2 0.539100 0.293168 0.839198
O O3 0.913253 0.900638 0.709402
O O4 0.000000 0.921883 0.500000
O O5 0.059869 0.899010 0.757011
O O6 0.000000 0.000000 0.690512
O O7 0.196262 0.347717 0.938469
O O8 0.175392 0.317506 0.681255
O O9 0.842481 0.653346 0.436935
O O10 0.000000 0.625932 0.500000
O O11 0.250000 0.250000 0.001240
#
# Coordination Sequence:
#
# PCOD9326133 Si02
#       5
#     8  16  16  16  16
#     4  10  18  33  57  94 132 166 200 256 321 404
#     4  10  23  43  66  86 123 169 223 278 330 377
#     4  10  18  36  61  88 125 173 207 250 332 403
#     4  11  21  37  61  96 123 161 222 265 312 384
#     4  11  19  34  60  96 134 162 203 258 328 398
#
# _framework density 19.081866999999999
#
# number of rings (size 3 to 8) (size 9 to 14) (size 15 to 20)
#    0.000    1.556    6.667    0.667    0.000    7.556 
#    0.000    3.889   19.556    0.000    0.000    0.000 
#    0.000    0.000    0.000    0.000    0.000    0.000 
#
# Total GULP energy -100300.157509 kJ/mol
# GULP energy per Si atom -5572.230973 kJ/mol
# Density = 1.903844 g / cm^3
# Si number density = 19.081867 Si / 1000 Ang^3
#
#
#
# Elastic Constant Matrix: (Units=GPa)
#
#
# Indices 1 2 3 4 5 6 
#
# 1 112.7745 44.3308 31.3843 0.0000 0.0000 0.0000
# 2 44.3308 110.9666 41.8161 0.0000 0.0000 0.0000
# 3 31.3843 41.8161 73.7319 0.0000 0.0000 0.0000
# 4 0.0000 0.0000 0.0000 27.7153 0.0000 0.0000
# 5 0.0000 0.0000 0.0000 0.0000 31.3505 0.0000
# 6 0.0000 0.0000 0.0000 0.0000 0.0000 7.4563
#
#
#
# Elastic Compliance Matrix: (Units=1/GPa)
#
#
# Indices 1 2 3 4 5 6 
#
# 1 0.010947 -0.003329 -0.002772 0.000000 0.000000 0.000000
# 2 -0.003329 0.012473 -0.005657 0.000000 0.000000 0.000000
# 3 -0.002772 -0.005657 0.017951 0.000000 0.000000 0.000000
# 4 0.000000 0.000000 0.000000 0.036081 0.000000 0.000000
# 5 0.000000 0.000000 0.000000 0.000000 0.031897 0.000000
# 6 0.000000 0.000000 0.000000 0.000000 0.000000 0.134115
#
#
# Mechanical properties :
#
#
# Convention : Reuss Voigt Hill
#
# Bulk Modulus (GPa) = 56.00425 59.17059 57.58742
# Shear Modulus (GPa) = 18.31953 25.30055 21.81004
#
# Velocity S-wave (km/s) = 3.10183 3.64523 3.38445
# Velocity P-wave (km/s) = 6.49936 6.98521 6.74666
#
# Compressibility (1/GPa) = 0.01785579
#
# Stress axis : x y z
#
# Youngs Moduli (GPa) = 91.34786 80.17045 55.70751
#
# Poissons Ratio (x) = 0.26688 0.15441
# Poissons Ratio (y) = 0.30408 0.31515
# Poissons Ratio (z) = 0.25320 0.45354
#
# Static dielectric constant tensor:
#      x y z
#    x 1.717450 0.000000 0.000000 
#    y 0.000000 1.631970 0.000000 
#    z 0.000000 0.000000 1.746970 
# 
# From -- ./inp_files/11451.got.cif
#   From: 2010.05.17/outbox.cif.g08.bks.cpg/sg22_6_cif.got.tgz:11451.got - 2010.06.03 23:40:54.
