data_PCOD9326374
_publ_section_title
;
Structure prediction by ZEFSAII (Michael W. Deem and Ramdas Pophale) SiO2 
 PCOD9326374
Probable space group: F 2 2 2
;
_chemical_formula_sum "Si O2"
_cell_formula_units_Z 112
_cell_length_a 12.010843
_cell_length_b 20.735324
_cell_length_c 22.361293
_cell_angle_alpha 90.000000
_cell_angle_beta 90.000000
_cell_angle_gamma 90.000000
_cell_volume 5569.051424
_symmetry_space_group_name_H-M "F 2 2 2"
_symmetry_group_IT_number 22
_symmetry_cell_setting 'orthorhombic'
loop_
_space_group_symop_operation_xyz
x,y,z
-x,-y,z
x,-y,-z
-x,y,-z
x,1/2+y,1/2+z
-x,1/2-y,1/2+z
x,1/2-y,1/2-z
-x,1/2+y,1/2-z
1/2+x,y,1/2+z
1/2-x,-y,1/2+z
1/2+x,-y,1/2-z
1/2-x,y,1/2-z
1/2+x,1/2+y,z
1/2-x,1/2-y,z
1/2+x,1/2-y,-z
1/2-x,1/2+y,-z
loop_
_atom_site_type_symbol
_atom_site_label
_atom_site_fract_x
_atom_site_fract_y
_atom_site_fract_z
Si Si1 0.033684 0.701836 0.339579
Si Si2 0.180814 0.689228 0.576622
Si Si3 0.877455 0.990786 0.167154
Si Si4 0.240530 0.871480 0.179543
Si Si5 0.119036 0.559736 0.532039
Si Si6 0.478405 0.651534 0.294017
Si Si7 0.781583 0.374153 0.809319
O O1 0.161069 0.680080 0.353907
O O2 0.943910 0.694454 0.393271
O O3 0.016605 0.657904 0.279170
O O4 0.020832 0.774649 0.316977
O O5 0.250000 0.750000 0.552203
O O6 0.176160 0.628904 0.531942
O O7 0.252246 0.667014 0.633420
O O8 0.816476 0.059378 0.170220
O O9 0.896183 0.963349 0.100200
O O10 0.796854 0.936566 0.193249
O O11 0.000000 0.000000 0.194886
O O12 0.250000 0.851072 0.250000
O O13 0.372387 0.876973 0.170758
O O14 0.179443 0.500000 0.500000
O O15 0.000000 0.566819 0.500000
O O16 0.588449 0.613033 0.310681
O O17 0.750000 0.334747 0.750000
#
# Coordination Sequence:
#
# PCOD9326374 Si02
#       7
#    16  16  16  16  16  16  16
#     4  10  19  33  55  84 127 172 209 241 295 375
#     4  11  21  35  63  95 127 156 207 268 318 375
#     4  11  22  37  59  84 116 157 214 268 318 377
#     4  10  21  35  52  83 124 174 211 249 293 370
#     4  10  21  40  65  87 113 150 206 273 337 384
#     4  10  20  33  52  82 131 176 207 236 298 366
#     4  11  21  33  53  89 128 170 203 244 307 372
#
# _framework density 20.111145
#
# number of rings (size 3 to 8) (size 9 to 14) (size 15 to 20)
#    0.000    1.571    4.286    2.571    2.000    2.571 
#    0.000    0.000    3.143    0.000    0.000    7.000 
#    0.000    0.000    0.000    0.000    0.000    0.000 
#
# Total GULP energy -155940.287437 kJ/mol
# GULP energy per Si atom -5569.295980 kJ/mol
# Density = 2.006537 g / cm^3
# Si number density = 20.111145 Si / 1000 Ang^3
#
#
#
# Elastic Constant Matrix: (Units=GPa)
#
#
# Indices 1 2 3 4 5 6 
#
# 1 169.1198 54.7963 14.6196 0.0000 0.0000 0.0000
# 2 54.7963 126.2319 15.4001 0.0000 0.0000 0.0000
# 3 14.6196 15.4001 33.6323 0.0000 0.0000 0.0000
# 4 0.0000 0.0000 0.0000 38.4009 0.0000 0.0000
# 5 0.0000 0.0000 0.0000 0.0000 14.7116 0.0000
# 6 0.0000 0.0000 0.0000 0.0000 0.0000 32.3379
#
#
#
# Elastic Compliance Matrix: (Units=1/GPa)
#
#
# Indices 1 2 3 4 5 6 
#
# 1 0.006976 -0.002816 -0.001743 0.000000 0.000000 0.000000
# 2 -0.002816 0.009527 -0.003139 0.000000 0.000000 0.000000
# 3 -0.001743 -0.003139 0.031928 0.000000 0.000000 0.000000
# 4 0.000000 0.000000 0.000000 0.026041 0.000000 0.000000
# 5 0.000000 0.000000 0.000000 0.000000 0.067973 0.000000
# 6 0.000000 0.000000 0.000000 0.000000 0.000000 0.030924
#
#
# Mechanical properties :
#
#
# Convention : Reuss Voigt Hill
#
# Bulk Modulus (GPa) = 30.26931 55.40179 42.83555
# Shear Modulus (GPa) = 25.02808 33.36795 29.19801
#
# Velocity S-wave (km/s) = 3.53156 4.07772 3.81443
# Velocity P-wave (km/s) = 5.63142 7.05535 6.38322
#
# Compressibility (1/GPa) = 0.03303676
#
# Stress axis : x y z
#
# Youngs Moduli (GPa) = 143.35050 104.96462 31.32028
#
# Poissons Ratio (x) = 0.29553 0.05460
# Poissons Ratio (y) = 0.40361 0.09830
# Poissons Ratio (z) = 0.24988 0.32943
#
# Static dielectric constant tensor:
#      x y z
#    x 1.837680 0.000000 0.000000 
#    y 0.000000 1.754160 0.000000 
#    z 0.000000 0.000000 1.701770 
# 
# From -- ./inp_files/24757.got.cif
#   From: 2010.05.17/outbox.cif.g08.bks.cpg/sg22_13_cif.got.tgz:24757.got - 2010.06.03 23:40:54.
