data_PCOD9326130
_publ_section_title
;
Structure prediction by ZEFSAII (Michael W. Deem and Ramdas Pophale) SiO2 
 PCOD9326130
Probable space group: F 2 2 2
;
_chemical_formula_sum "Si O2"
_cell_formula_units_Z 112
_cell_length_a 29.727241
_cell_length_b 13.207623
_cell_length_c 16.186566
_cell_angle_alpha 90.000000
_cell_angle_beta 90.000000
_cell_angle_gamma 90.000000
_cell_volume 6355.269769
_symmetry_space_group_name_H-M "F 2 2 2"
_symmetry_group_IT_number 22
_symmetry_cell_setting 'orthorhombic'
loop_
_space_group_symop_operation_xyz
x,y,z
-x,-y,z
x,-y,-z
-x,y,-z
x,1/2+y,1/2+z
-x,1/2-y,1/2+z
x,1/2-y,1/2-z
-x,1/2+y,1/2-z
1/2+x,y,1/2+z
1/2-x,-y,1/2+z
1/2+x,-y,1/2-z
1/2-x,y,1/2-z
1/2+x,1/2+y,z
1/2-x,1/2-y,z
1/2+x,1/2-y,-z
1/2-x,1/2+y,-z
loop_
_atom_site_type_symbol
_atom_site_label
_atom_site_fract_x
_atom_site_fract_y
_atom_site_fract_z
Si Si1 0.032370 0.403877 0.804260
Si Si2 0.701278 0.467966 0.206562
Si Si3 0.801409 0.281504 0.421870
Si Si4 0.163324 0.905159 0.934903
Si Si5 0.867423 0.153065 0.313179
Si Si6 0.977990 0.813540 0.872799
Si Si7 0.064051 0.384613 0.471951
O O1 0.084674 0.399032 0.832329
O O2 0.013508 0.300885 0.844490
O O3 0.033782 0.382287 0.705763
O O4 0.000000 0.500000 0.820874
O O5 0.750000 0.476579 0.250000
O O6 0.699209 0.375143 0.141886
O O7 0.686717 0.562754 0.150066
O O8 0.663781 0.432561 0.271725
O O9 0.750000 0.250000 0.420977
O O10 0.813807 0.316552 0.513440
O O11 0.837515 0.201532 0.386402
O O12 0.111104 0.877507 0.925546
O O13 0.163968 0.000000 0.000000
O O14 0.875609 0.250000 0.250000
O O15 0.022873 0.854103 0.915029
O O16 0.939290 0.821120 0.942702
O O17 0.058064 0.500000 0.500000
#
# Coordination Sequence:
#
# PCOD9326130 Si02
#       7
#    16  16  16  16  16  16  16
#     4  11  22  34  54  80 114 153 192 237 292 346
#     4  10  19  32  52  86 113 142 180 239 298 348
#     4  10  18  33  55  83 111 146 186 235 291 349
#     4   9  20  30  53  80 114 140 186 235 283 341
#     4  10  19  31  55  84 114 143 193 241 293 342
#     4  10  20  34  52  80 112 142 188 241 280 347
#     4  10  19  34  56  82 107 147 186 238 293 331
#
# _framework density 17.623169999999998
#
# number of rings (size 3 to 8) (size 9 to 14) (size 15 to 20)
#    0.000    2.000    2.857    2.571    8.000    0.000 
#    0.000    1.429    3.143    0.429    0.000    0.000 
#    0.000    0.000    0.000    0.000    0.000    0.000 
#
# Total GULP energy -156003.311540 kJ/mol
# GULP energy per Si atom -5571.546841 kJ/mol
# Density = 1.758306 g / cm^3
# Si number density = 17.623170 Si / 1000 Ang^3
#
#
#
# Elastic Constant Matrix: (Units=GPa)
#
#
# Indices 1 2 3 4 5 6 
#
# 1 141.4187 52.2966 45.6024 0.0000 0.0000 0.0000
# 2 52.2966 63.1479 36.8338 0.0000 0.0000 0.0000
# 3 45.6024 36.8338 75.1872 0.0000 0.0000 0.0000
# 4 0.0000 0.0000 0.0000 19.0577 0.0000 0.0000
# 5 0.0000 0.0000 0.0000 0.0000 1.1270 0.0000
# 6 0.0000 0.0000 0.0000 0.0000 0.0000 9.6802
#
#
#
# Elastic Compliance Matrix: (Units=1/GPa)
#
#
# Indices 1 2 3 4 5 6 
#
# 1 0.010654 -0.007076 -0.002995 0.000000 0.000000 0.000000
# 2 -0.007076 0.026871 -0.008872 0.000000 0.000000 0.000000
# 3 -0.002995 -0.008872 0.019463 0.000000 0.000000 0.000000
# 4 0.000000 0.000000 0.000000 0.052472 0.000000 0.000000
# 5 0.000000 0.000000 0.000000 0.000000 0.887335 0.000000
# 6 0.000000 0.000000 0.000000 0.000000 0.000000 0.103304
#
#
# Mechanical properties :
#
#
# Convention : Reuss Voigt Hill
#
# Bulk Modulus (GPa) = 52.35285 61.02437 56.68861
# Shear Modulus (GPa) = 4.36928 15.64103 10.00516
#
# Velocity S-wave (km/s) = 1.57628 2.98237 2.38529
# Velocity P-wave (km/s) = 5.75189 6.82363 6.31055
#
# Compressibility (1/GPa) = 0.01910116
#
# Stress axis : x y z
#
# Youngs Moduli (GPa) = 93.86399 37.21494 51.37877
#
# Poissons Ratio (x) = 0.26333 0.15389
# Poissons Ratio (y) = 0.66417 0.45585
# Poissons Ratio (z) = 0.28115 0.33018
#
# Static dielectric constant tensor:
#      x y z
#    x 1.628490 0.000000 0.000000 
#    y 0.000000 1.609320 0.000000 
#    z 0.000000 0.000000 1.632250 
# 
# From -- ./inp_files/33513.got.cif
#   From: 2010.05.17/outbox.cif.g08.bks.cpg/sg22_17_cif.got.tgz:33513.got - 2010.06.03 23:40:54.
