data_PCOD9326324
_publ_section_title
;
Structure prediction by ZEFSAII (Michael W. Deem and Ramdas Pophale) SiO2 
 PCOD9326324
Probable space group: F 2 2 2
;
_chemical_formula_sum "Si O2"
_cell_formula_units_Z 96
_cell_length_a 27.711904
_cell_length_b 6.933599
_cell_length_c 21.321989
_cell_angle_alpha 90.000000
_cell_angle_beta 90.000000
_cell_angle_gamma 90.000000
_cell_volume 4096.875834
_symmetry_space_group_name_H-M "F 2 2 2"
_symmetry_group_IT_number 22
_symmetry_cell_setting 'orthorhombic'
loop_
_space_group_symop_operation_xyz
x,y,z
-x,-y,z
x,-y,-z
-x,y,-z
x,1/2+y,1/2+z
-x,1/2-y,1/2+z
x,1/2-y,1/2-z
-x,1/2+y,1/2-z
1/2+x,y,1/2+z
1/2-x,-y,1/2+z
1/2+x,-y,1/2-z
1/2-x,y,1/2-z
1/2+x,1/2+y,z
1/2-x,1/2-y,z
1/2+x,1/2-y,-z
1/2-x,1/2+y,-z
loop_
_atom_site_type_symbol
_atom_site_label
_atom_site_fract_x
_atom_site_fract_y
_atom_site_fract_z
Si Si1 0.322293 0.241043 0.442938
Si Si2 0.506518 0.224987 0.174879
Si Si3 0.400625 0.232121 0.350327
Si Si4 0.611840 0.192204 0.177589
Si Si5 0.671476 0.750000 0.250000
Si Si6 0.803845 0.698483 0.916605
Si Si7 0.750000 0.750000 0.345204
O O1 0.375662 0.203308 0.417224
O O2 0.311355 0.469103 0.430284
O O3 0.313353 0.205672 0.515490
O O4 0.285174 0.141985 0.394256
O O5 0.506203 0.250000 0.250000
O O6 0.456732 0.318428 0.152308
O O7 0.560497 0.276736 0.154379
O O8 0.500000 0.000000 0.159787
O O9 0.394898 0.459893 0.331283
O O10 0.365393 0.142000 0.297083
O O11 0.618274 0.250000 0.250000
O O12 0.656177 0.250413 0.134320
O O13 0.710297 0.652508 0.298347
O O14 0.750000 0.750000 0.896329
#
# Coordination Sequence:
#
# PCOD9326324 Si02
#       7
#    16  16  16  16   8  16   8
#     4   9  18  31  47  68  92 122 160 196 229 285
#     4   9  16  29  48  70  98 126 158 199 245 292
#     4   9  16  29  48  70  94 121 155 192 238 284
#     4   9  19  31  45  68  96 121 155 199 237 283
#     4   9  16  24  44  70  92 114 143 182 234 274
#     4  10  19  32  48  64  91 129 159 191 240 285
#     4   9  16  28  42  66  95 114 142 192 225 266
#
# _framework density 23.432487999999999
#
# number of rings (size 3 to 8) (size 9 to 14) (size 15 to 20)
#    0.000    2.833    1.667    0.000    0.000    1.667 
#    0.000    4.167    0.000    5.000    0.000    0.000 
#    0.000    1.667    0.000    0.000    0.000    0.000 
#
# Total GULP energy -133838.159128 kJ/mol
# GULP energy per Si atom -5576.589964 kJ/mol
# Density = 2.337915 g / cm^3
# Si number density = 23.432488 Si / 1000 Ang^3
#
#
#
# Elastic Constant Matrix: (Units=GPa)
#
#
# Indices 1 2 3 4 5 6 
#
# 1 284.7017 14.7629 107.8137 0.0000 0.0000 0.0001
# 2 14.7629 107.2473 12.6894 0.0001 0.0000 0.0000
# 3 107.8137 12.6894 122.4395 0.0000 0.0000 0.0000
# 4 0.0000 0.0001 0.0000 20.2168 0.0000 0.0000
# 5 0.0000 0.0000 0.0000 0.0000 31.6740 -0.0001
# 6 0.0001 0.0000 0.0000 0.0000 -0.0001 14.3404
#
#
#
# Elastic Compliance Matrix: (Units=1/GPa)
#
#
# Indices 1 2 3 4 5 6 
#
# 1 0.005273 -0.000179 -0.004625 0.000000 0.000000 0.000000
# 2 -0.000179 0.009446 -0.000822 0.000000 0.000000 0.000000
# 3 -0.004625 -0.000822 0.012325 0.000000 0.000000 0.000000
# 4 0.000000 0.000000 0.000000 0.049464 0.000000 0.000000
# 5 0.000000 0.000000 0.000000 0.000000 0.031572 0.000000
# 6 0.000000 0.000000 0.000000 0.000000 0.000000 0.069733
#
#
# Mechanical properties :
#
#
# Convention : Reuss Voigt Hill
#
# Bulk Modulus (GPa) = 63.31578 87.21338 75.26458
# Shear Modulus (GPa) = 25.72987 38.52107 32.12547
#
# Velocity S-wave (km/s) = 3.31727 4.05892 3.70669
# Velocity P-wave (km/s) = 6.46154 7.69846 7.10696
#
# Compressibility (1/GPa) = 0.01579385
#
# Stress axis : x y z
#
# Youngs Moduli (GPa) = 189.64513 105.86429 81.13829
#
# Poissons Ratio (x) = 0.01891 0.37523
# Poissons Ratio (y) = 0.03388 0.06667
# Poissons Ratio (z) = 0.87703 0.08698
#
# Static dielectric constant tensor:
#      x y z
#    x 1.888500 0.000000 0.000000 
#    y 0.000000 2.178070 0.000000 
#    z 0.000000 0.000000 1.840840 
# 
# From -- ./inp_files/50511.got.cif
#   From: 2010.05.17/outbox.cif.g08.bks.cpg/sg22_26_cif.got.tgz:50511.got - 2010.06.03 23:40:54.
