data_PCOD9326128
_publ_section_title
;
Structure prediction by ZEFSAII (Michael W. Deem and Ramdas Pophale) SiO2 
 PCOD9326128
Probable space group: F 2 2 2
;
_chemical_formula_sum "Si O2"
_cell_formula_units_Z 80
_cell_length_a 17.071692
_cell_length_b 23.636759
_cell_length_c 10.641882
_cell_angle_alpha 90.000000
_cell_angle_beta 90.000000
_cell_angle_gamma 90.000000
_cell_volume 4294.206579
_symmetry_space_group_name_H-M "F 2 2 2"
_symmetry_group_IT_number 22
_symmetry_cell_setting 'orthorhombic'
loop_
_space_group_symop_operation_xyz
x,y,z
-x,-y,z
x,-y,-z
-x,y,-z
x,1/2+y,1/2+z
-x,1/2-y,1/2+z
x,1/2-y,1/2-z
-x,1/2+y,1/2-z
1/2+x,y,1/2+z
1/2-x,-y,1/2+z
1/2+x,-y,1/2-z
1/2-x,y,1/2-z
1/2+x,1/2+y,z
1/2-x,1/2-y,z
1/2+x,1/2-y,-z
1/2-x,1/2+y,-z
loop_
_atom_site_type_symbol
_atom_site_label
_atom_site_fract_x
_atom_site_fract_y
_atom_site_fract_z
Si Si1 0.340379 0.738270 0.599997
Si Si2 0.164041 0.627020 0.797565
Si Si3 0.410738 0.351643 0.034249
Si Si4 0.838464 0.454332 0.397208
Si Si5 0.339522 0.496674 0.633914
O O1 0.351263 0.750000 0.750000
O O2 0.250000 0.750000 0.567683
O O3 0.358487 0.671411 0.593410
O O4 0.389946 0.785073 0.526716
O O5 0.250000 0.646290 0.750000
O O6 0.107515 0.631148 0.678042
O O7 0.173507 0.562389 0.834692
O O8 0.500000 0.361688 0.000000
O O9 0.357552 0.392280 0.948021
O O10 0.868039 0.500000 0.500000
O O11 0.744882 0.466232 0.387794
O O12 0.872973 0.467541 0.259110
O O13 0.382649 0.500000 0.500000
#
# Coordination Sequence:
#
# PCOD9326128 Si02
#       5
#    16  16  16  16  16
#     4   9  17  30  59  87 108 149 213 262 291 361
#     4  11  16  35  61  91 115 154 218 268 301 374
#     4  11  22  35  58  93 126 157 205 269 326 372
#     4  10  18  33  54  87 122 154 191 254 317 373
#     4  10  19  31  59  88 118 150 207 265 305 369
#
# _framework density 18.629750999999999
#
# number of rings (size 3 to 8) (size 9 to 14) (size 15 to 20)
#    0.000    1.800    8.000    1.200    0.000    0.400 
#    0.000    0.000   13.200    1.200    0.000    0.000 
#    0.000    0.000    0.000    0.000    0.000    0.000 
#
# Total GULP energy -111359.167328 kJ/mol
# GULP energy per Si atom -5567.958366 kJ/mol
# Density = 1.858735 g / cm^3
# Si number density = 18.629751 Si / 1000 Ang^3
#
#
#
# Elastic Constant Matrix: (Units=GPa)
#
#
# Indices 1 2 3 4 5 6 
#
# 1 58.1059 31.6205 17.4665 0.0000 0.0000 0.0000
# 2 31.6205 143.1553 30.5664 0.0000 0.0000 0.0000
# 3 17.4665 30.5664 102.8975 0.0000 0.0000 0.0000
# 4 0.0000 0.0000 0.0000 31.0398 0.0000 0.0000
# 5 0.0000 0.0000 0.0000 0.0000 12.6211 0.0000
# 6 0.0000 0.0000 0.0000 0.0000 0.0000 10.1406
#
#
#
# Elastic Compliance Matrix: (Units=1/GPa)
#
#
# Indices 1 2 3 4 5 6 
#
# 1 0.020028 -0.003948 -0.002227 0.000000 0.000000 0.000000
# 2 -0.003948 0.008237 -0.001777 0.000000 0.000000 0.000000
# 3 -0.002227 -0.001777 0.010624 0.000000 0.000000 0.000000
# 4 0.000000 0.000000 0.000000 0.032217 0.000000 0.000000
# 5 0.000000 0.000000 0.000000 0.000000 0.079233 0.000000
# 6 0.000000 0.000000 0.000000 0.000000 0.000000 0.098613
#
#
# Mechanical properties :
#
#
# Convention : Reuss Voigt Hill
#
# Bulk Modulus (GPa) = 43.50570 51.49617 47.50094
# Shear Modulus (GPa) = 18.34746 25.72730 22.03738
#
# Velocity S-wave (km/s) = 3.14163 3.72018 3.44308
# Velocity P-wave (km/s) = 6.04676 6.79374 6.43111
#
# Compressibility (1/GPa) = 0.02298549
#
# Stress axis : x y z
#
# Youngs Moduli (GPa) = 49.93014 121.40508 94.12516
#
# Poissons Ratio (x) = 0.47935 0.20960
# Poissons Ratio (y) = 0.19714 0.16722
# Poissons Ratio (z) = 0.11118 0.21569
#
# Static dielectric constant tensor:
#      x y z
#    x 1.627680 0.000000 0.000000 
#    y 0.000000 1.704550 0.000000 
#    z 0.000000 0.000000 1.701230 
# 
# From -- ./inp_files/19832.got.cif
#   From: 2010.05.17/outbox.cif.g08.bks.cpg/sg22_10_cif.got.tgz:19832.got - 2010.06.03 23:40:54.
