data_PCOD9326771
_publ_section_title
;
Structure prediction by ZEFSAII (Michael W. Deem and Ramdas Pophale) SiO2 
 PCOD9326771
Probable space group: F 2 2 2
;
_chemical_formula_sum "Si O2"
_cell_formula_units_Z 56
_cell_length_a 21.809476
_cell_length_b 12.884219
_cell_length_c 7.939126
_cell_angle_alpha 90.000000
_cell_angle_beta 90.000000
_cell_angle_gamma 90.000000
_cell_volume 2230.879044
_symmetry_space_group_name_H-M "F 2 2 2"
_symmetry_group_IT_number 22
_symmetry_cell_setting 'orthorhombic'
loop_
_space_group_symop_operation_xyz
x,y,z
-x,-y,z
x,-y,-z
-x,y,-z
x,1/2+y,1/2+z
-x,1/2-y,1/2+z
x,1/2-y,1/2-z
-x,1/2+y,1/2-z
1/2+x,y,1/2+z
1/2-x,-y,1/2+z
1/2+x,-y,1/2-z
1/2-x,y,1/2-z
1/2+x,1/2+y,z
1/2-x,1/2-y,z
1/2+x,1/2-y,-z
1/2-x,1/2+y,-z
loop_
_atom_site_type_symbol
_atom_site_label
_atom_site_fract_x
_atom_site_fract_y
_atom_site_fract_z
Si Si1 0.319331 0.214170 0.975094
Si Si2 0.107542 0.619026 0.349974
Si Si3 0.599719 0.076728 0.843461
Si Si4 0.506104 0.750000 0.250000
O O1 0.250000 0.250000 0.955865
O O2 0.335335 0.132510 0.120462
O O3 0.356704 0.321347 0.996369
O O4 0.349694 0.155403 0.812267
O O5 0.098987 0.497921 0.317897
O O6 0.041902 0.674777 0.344421
O O7 0.550064 0.168224 0.842236
O O8 0.584799 0.000000 0.000000
#
# Coordination Sequence:
#
# PCOD9326771 Si02
#       4
#    16  16  16   8
#     4   9  18  36  58  83 113 149 193 232 276 338
#     4   9  19  33  59  85 111 152 186 232 287 334
#     4  10  21  38  59  84 115 152 187 233 290 334
#     4  10  20  34  56  88 114 142 194 234 276 348
#
# _framework density 25.102212000000002
#
# number of rings (size 3 to 8) (size 9 to 14) (size 15 to 20)
#    0.000    2.857    0.000    2.571    0.000   16.000 
#    0.000   16.429    0.000   10.286    0.000    0.000 
#    0.000    0.000    0.000    0.000    0.000    0.000 
#
# Total GULP energy -78169.954548 kJ/mol
# GULP energy per Si atom -5583.568182 kJ/mol
# Density = 2.504508 g / cm^3
# Si number density = 25.102212 Si / 1000 Ang^3
#
#
#
# Elastic Constant Matrix: (Units=GPa)
#
#
# Indices 1 2 3 4 5 6 
#
# 1 177.3594 77.3443 15.8973 0.0000 0.0000 0.0000
# 2 77.3443 213.4387 42.7247 0.0000 0.0000 0.0000
# 3 15.8973 42.7247 81.0472 0.0000 0.0000 0.0000
# 4 0.0000 0.0000 0.0000 52.9689 0.0000 0.0000
# 5 0.0000 0.0000 0.0000 0.0000 11.6238 0.0000
# 6 0.0000 0.0000 0.0000 0.0000 0.0000 28.6434
#
#
#
# Elastic Compliance Matrix: (Units=1/GPa)
#
#
# Indices 1 2 3 4 5 6 
#
# 1 0.006697 -0.002419 -0.000038 0.000000 0.000000 0.000000
# 2 -0.002419 0.006112 -0.002747 0.000000 0.000000 0.000000
# 3 -0.000038 -0.002747 0.013794 0.000000 0.000000 0.000000
# 4 0.000000 0.000000 0.000000 0.018879 0.000000 0.000000
# 5 0.000000 0.000000 0.000000 0.000000 0.086030 0.000000
# 6 0.000000 0.000000 0.000000 0.000000 0.000000 0.034912
#
#
# Mechanical properties :
#
#
# Convention : Reuss Voigt Hill
#
# Bulk Modulus (GPa) = 61.75416 82.64198 72.19807
# Shear Modulus (GPa) = 27.43769 41.03915 34.23842
#
# Velocity S-wave (km/s) = 3.30970 4.04775 3.69719
# Velocity P-wave (km/s) = 6.26578 7.40536 6.85928
#
# Compressibility (1/GPa) = 0.01619324
#
# Stress axis : x y z
#
# Youngs Moduli (GPa) = 149.32956 163.62050 72.49370
#
# Poissons Ratio (x) = 0.39580 0.00278
# Poissons Ratio (y) = 0.36123 0.19917
# Poissons Ratio (z) = 0.00573 0.44952
#
# Static dielectric constant tensor:
#      x y z
#    x 1.904540 0.000000 0.000000 
#    y 0.000000 1.994030 0.000000 
#    z 0.000000 0.000000 2.295010 
# 
# From -- ./inp_files/12109.got.cif
#   From: 2010.05.17/outbox.cif.g08.bks.cpg/sg22_7_cif.got.tgz:12109.got - 2010.06.03 23:40:54.
