data_PCOD9326246
_publ_section_title
;
Structure prediction by ZEFSAII (Michael W. Deem and Ramdas Pophale) SiO2 
 PCOD9326246
Probable space group: F 2 2 2
;
_chemical_formula_sum "Si O2"
_cell_formula_units_Z 104
_cell_length_a 23.167597
_cell_length_b 14.920555
_cell_length_c 16.497052
_cell_angle_alpha 90.000000
_cell_angle_beta 90.000000
_cell_angle_gamma 90.000000
_cell_volume 5702.592142
_symmetry_space_group_name_H-M "F 2 2 2"
_symmetry_group_IT_number 22
_symmetry_cell_setting 'orthorhombic'
loop_
_space_group_symop_operation_xyz
x,y,z
-x,-y,z
x,-y,-z
-x,y,-z
x,1/2+y,1/2+z
-x,1/2-y,1/2+z
x,1/2-y,1/2-z
-x,1/2+y,1/2-z
1/2+x,y,1/2+z
1/2-x,-y,1/2+z
1/2+x,-y,1/2-z
1/2-x,y,1/2-z
1/2+x,1/2+y,z
1/2-x,1/2-y,z
1/2+x,1/2-y,-z
1/2-x,1/2+y,-z
loop_
_atom_site_type_symbol
_atom_site_label
_atom_site_fract_x
_atom_site_fract_y
_atom_site_fract_z
Si Si1 0.151412 0.244415 0.116450
Si Si2 0.474307 0.323377 0.409752
Si Si3 0.412319 0.802789 0.167748
Si Si4 0.405587 0.011814 0.155414
Si Si5 0.176689 0.000000 0.500000
Si Si6 0.316840 0.891413 0.746497
Si Si7 0.197987 0.304561 0.948850
O O1 0.084551 0.265354 0.095459
O O2 0.165818 0.152282 0.161285
O O3 0.173535 0.317182 0.182524
O O4 0.185002 0.256445 0.033671
O O5 0.500000 0.343818 0.500000
O O6 0.526171 0.270554 0.366656
O O7 0.454702 0.414891 0.363750
O O8 0.399543 0.750000 0.250000
O O9 0.359002 0.796463 0.105875
O O10 0.422672 0.909953 0.170891
O O11 0.363930 0.035965 0.229759
O O12 0.365327 0.020517 0.075317
O O13 0.208961 0.090688 0.528049
O O14 0.250000 0.919373 0.750000
O O15 0.250000 0.250000 0.909082
#
# Coordination Sequence:
#
# PCOD9326246 Si02
#       7
#    16  16  16  16   8  16  16
#     4  10  19  33  57  91 119 144 179 238 313 350
#     4  11  19  37  63  90 115 142 186 251 301 347
#     4  11  25  40  55  84 119 161 200 238 286 349
#     4  10  21  37  59  87 114 152 195 247 295 348
#     4  10  18  38  59  90 118 143 202 250 300 342
#     4  10  19  33  57  90 122 147 183 242 298 359
#     4  11  21  39  61  84 119 155 199 247 292 355
#
# _framework density 18.237321000000001
#
# number of rings (size 3 to 8) (size 9 to 14) (size 15 to 20)
#    0.000    1.538    4.615    3.231    4.308    0.923 
#    5.538    0.000    0.000    0.000    0.000    1.077 
#    0.000    0.000    0.000    0.000    0.000    0.000 
#
# Total GULP energy -144863.197933 kJ/mol
# GULP energy per Si atom -5571.661459 kJ/mol
# Density = 1.819581 g / cm^3
# Si number density = 18.237321 Si / 1000 Ang^3
#
#
#
# Elastic Constant Matrix: (Units=GPa)
#
#
# Indices 1 2 3 4 5 6 
#
# 1 129.1839 40.1837 33.7483 0.0000 0.0000 0.0000
# 2 40.1837 49.7466 26.1141 0.0000 0.0000 0.0000
# 3 33.7483 26.1141 80.4027 0.0000 0.0000 0.0000
# 4 0.0000 0.0000 0.0000 32.7333 0.0000 0.0000
# 5 0.0000 0.0000 0.0000 0.0000 15.6845 0.0000
# 6 0.0000 0.0000 0.0000 0.0000 0.0000 21.0420
#
#
#
# Elastic Compliance Matrix: (Units=1/GPa)
#
#
# Indices 1 2 3 4 5 6 
#
# 1 0.010602 -0.007508 -0.002012 0.000000 0.000000 0.000000
# 2 -0.007508 0.029550 -0.006446 0.000000 0.000000 0.000000
# 3 -0.002012 -0.006446 0.015375 0.000000 0.000000 0.000000
# 4 0.000000 0.000000 0.000000 0.030550 0.000000 0.000000
# 5 0.000000 0.000000 0.000000 0.000000 0.063757 0.000000
# 6 0.000000 0.000000 0.000000 0.000000 0.000000 0.047524
#
#
# Mechanical properties :
#
#
# Convention : Reuss Voigt Hill
#
# Bulk Modulus (GPa) = 42.37975 51.04726 46.71351
# Shear Modulus (GPa) = 21.08320 24.51110 22.79715
#
# Velocity S-wave (km/s) = 3.40376 3.67005 3.53941
# Velocity P-wave (km/s) = 6.22381 6.78309 6.50946
#
# Compressibility (1/GPa) = 0.02359618
#
# Stress axis : x y z
#
# Youngs Moduli (GPa) = 94.32389 33.84047 65.03878
#
# Poissons Ratio (x) = 0.25407 0.13083
# Poissons Ratio (y) = 0.70817 0.41926
# Poissons Ratio (z) = 0.18973 0.21815
#
# Static dielectric constant tensor:
#      x y z
#    x 1.643630 0.000000 0.000000 
#    y 0.000000 1.690600 0.000000 
#    z 0.000000 0.000000 1.647790 
# 
# From -- ./inp_files/31710.got.cif
#   From: 2010.05.17/outbox.cif.g08.bks.cpg/sg22_16_cif.got.tgz:31710.got - 2010.06.03 23:40:54.
