data_PCOD9326984
_publ_section_title
;
Structure prediction by ZEFSAII (Michael W. Deem and Ramdas Pophale) SiO2 
 PCOD9326984
Probable space group: F 2 2 2
;
_chemical_formula_sum "Si O2"
_cell_formula_units_Z 84
_cell_length_a 16.474427
_cell_length_b 24.898250
_cell_length_c 9.437431
_cell_angle_alpha 90.000000
_cell_angle_beta 90.000000
_cell_angle_gamma 90.000000
_cell_volume 3871.086992
_symmetry_space_group_name_H-M "F 2 2 2"
_symmetry_group_IT_number 22
_symmetry_cell_setting 'orthorhombic'
loop_
_space_group_symop_operation_xyz
x,y,z
-x,-y,z
x,-y,-z
-x,y,-z
x,1/2+y,1/2+z
-x,1/2-y,1/2+z
x,1/2-y,1/2-z
-x,1/2+y,1/2-z
1/2+x,y,1/2+z
1/2-x,-y,1/2+z
1/2+x,-y,1/2-z
1/2-x,y,1/2-z
1/2+x,1/2+y,z
1/2-x,1/2-y,z
1/2+x,1/2-y,-z
1/2-x,1/2+y,-z
loop_
_atom_site_type_symbol
_atom_site_label
_atom_site_fract_x
_atom_site_fract_y
_atom_site_fract_z
Si Si1 0.938533 0.908849 0.375809
Si Si2 0.587943 0.940903 0.438039
Si Si3 0.309353 0.636568 0.129128
Si Si4 0.750000 0.750000 0.250000
Si Si5 0.832438 0.678371 0.030322
Si Si6 0.454776 0.692931 0.298579
O O1 0.919177 0.941918 0.233619
O O2 0.857460 0.884100 0.445411
O O3 0.000000 0.930024 0.500000
O O4 0.981468 0.854545 0.318252
O O5 0.500000 0.923612 0.500000
O O6 0.654923 0.902022 0.507461
O O7 0.602573 0.000000 0.500000
O O8 0.250000 0.610347 0.250000
O O9 0.384980 0.666983 0.199664
O O10 0.249290 0.679468 0.060491
O O11 0.809767 0.710650 0.167139
O O12 0.906785 0.702932 0.944549
O O13 0.487177 0.750000 0.250000
#
# Coordination Sequence:
#
# PCOD9326984 Si02
#       6
#    16  16  16   4  16  16
#     4  10  22  42  63  94 136 166 215 282 329 391
#     4  11  23  44  72  97 122 168 228 272 336 407
#     4  10  21  42  65  91 133 168 215 279 327 394
#     4  12  20  32  50  88 128 172 222 258 312 392
#     4  10  22  35  57  88 134 168 212 267 328 377
#     4  10  20  37  62  91 125 178 220 258 316 391
#
# _framework density 21.699331999999998
#
# number of rings (size 3 to 8) (size 9 to 14) (size 15 to 20)
#    0.000    1.714    1.905    2.286    1.333    2.667 
#   10.286    1.905    0.000    0.000    0.000    0.000 
#    0.000    0.000    0.000    0.000    0.000    0.000 
#
# Total GULP energy -117172.939585 kJ/mol
# GULP energy per Si atom -5579.663790 kJ/mol
# Density = 2.164994 g / cm^3
# Si number density = 21.699332 Si / 1000 Ang^3
#
#
#
# Elastic Constant Matrix: (Units=GPa)
#
#
# Indices 1 2 3 4 5 6 
#
# 1 61.7497 13.7346 5.0399 0.0000 0.0000 0.0000
# 2 13.7346 56.6876 32.6405 0.0000 0.0000 0.0000
# 3 5.0399 32.6405 123.8406 0.0000 0.0000 0.0000
# 4 0.0000 0.0000 0.0000 15.1569 0.0000 0.0000
# 5 0.0000 0.0000 0.0000 0.0000 26.2756 0.0000
# 6 0.0000 0.0000 0.0000 0.0000 0.0000 8.5460
#
#
#
# Elastic Compliance Matrix: (Units=1/GPa)
#
#
# Indices 1 2 3 4 5 6 
#
# 1 0.017140 -0.004422 0.000468 0.000000 0.000000 0.000000
# 2 -0.004422 0.021938 -0.005602 0.000000 0.000000 0.000000
# 3 0.000468 -0.005602 0.009532 0.000000 0.000000 0.000000
# 4 0.000000 0.000000 0.000000 0.065976 0.000000 0.000000
# 5 0.000000 0.000000 0.000000 0.000000 0.038058 0.000000
# 6 0.000000 0.000000 0.000000 0.000000 0.000000 0.117014
#
#
# Mechanical properties :
#
#
# Convention : Reuss Voigt Hill
#
# Bulk Modulus (GPa) = 33.90145 38.34533 36.12339
# Shear Modulus (GPa) = 16.74464 22.71990 19.73227
#
# Velocity S-wave (km/s) = 2.78090 3.23930 3.01881
# Velocity P-wave (km/s) = 5.09592 5.63030 5.36976
#
# Compressibility (1/GPa) = 0.02949726
#
# Stress axis : x y z
#
# Youngs Moduli (GPa) = 58.34374 45.58372 104.90552
#
# Poissons Ratio (x) = 0.20158 -0.04910
# Poissons Ratio (y) = 0.25801 0.58769
# Poissons Ratio (z) = -0.02731 0.25536
#
# Static dielectric constant tensor:
#      x y z
#    x 1.800800 0.000000 0.000000 
#    y 0.000000 1.770860 0.000000 
#    z 0.000000 0.000000 1.898670 
# 
# From -- ./inp_files/12576.got.cif
#   From: 2010.05.17/outbox.cif.g08.bks.cpg/sg22_7_cif.got.tgz:12576.got - 2010.06.03 23:40:54.
