data_PCOD9326764
_publ_section_title
;
Structure prediction by ZEFSAII (Michael W. Deem and Ramdas Pophale) SiO2 
 PCOD9326764
Probable space group: F 2 2 2
;
_chemical_formula_sum "Si O2"
_cell_formula_units_Z 96
_cell_length_a 25.869508
_cell_length_b 17.851550
_cell_length_c 10.909244
_cell_angle_alpha 90.000000
_cell_angle_beta 90.000000
_cell_angle_gamma 90.000000
_cell_volume 5038.006869
_symmetry_space_group_name_H-M "F 2 2 2"
_symmetry_group_IT_number 22
_symmetry_cell_setting 'orthorhombic'
loop_
_space_group_symop_operation_xyz
x,y,z
-x,-y,z
x,-y,-z
-x,y,-z
x,1/2+y,1/2+z
-x,1/2-y,1/2+z
x,1/2-y,1/2-z
-x,1/2+y,1/2-z
1/2+x,y,1/2+z
1/2-x,-y,1/2+z
1/2+x,-y,1/2-z
1/2-x,y,1/2-z
1/2+x,1/2+y,z
1/2-x,1/2-y,z
1/2+x,1/2-y,-z
1/2-x,1/2+y,-z
loop_
_atom_site_type_symbol
_atom_site_label
_atom_site_fract_x
_atom_site_fract_y
_atom_site_fract_z
Si Si1 0.749419 0.437015 0.395019
Si Si2 0.553115 0.370906 0.930229
Si Si3 0.148923 0.336100 0.599570
Si Si4 0.351998 0.336904 0.609540
Si Si5 0.000000 0.500000 0.294212
Si Si6 0.537758 0.621216 0.608098
Si Si7 0.479666 0.250000 0.250000
O O1 0.750037 0.500000 0.500000
O O2 0.750000 0.462050 0.250000
O O3 0.799392 0.384480 0.414788
O O4 0.697807 0.387562 0.411353
O O5 0.540683 0.451648 0.872315
O O6 0.555370 0.308038 0.825216
O O7 0.500000 0.351811 0.000000
O O8 0.601729 0.366910 0.019229
O O9 0.136543 0.337610 0.744288
O O10 0.157395 0.248479 0.569691
O O11 0.405073 0.368366 0.555395
O O12 0.968380 0.440879 0.212818
O O13 0.500000 0.598427 0.500000
O O14 0.516466 0.699405 0.663833
#
# Coordination Sequence:
#
# PCOD9326764 Si02
#       7
#    16  16  16  16   8  16   8
#     4  10  23  41  63  90 119 154 196 244 298 355
#     4  11  21  35  55  82 117 154 191 238 290 345
#     4  10  20  38  63  86 112 148 194 244 290 343
#     4  10  20  37  62  88 112 146 196 244 288 347
#     4  10  24  36  50  84 120 156 196 232 286 356
#     4  11  21  36  56  82 117 154 191 238 293 348
#     4  10  20  34  54  86 116 146 194 238 292 354
#
# _framework density 19.055154000000002
#
# number of rings (size 3 to 8) (size 9 to 14) (size 15 to 20)
#    0.000    1.667    0.000    6.500    0.000    7.333 
#    0.000    3.333    0.000    1.000    0.000    0.000 
#    0.000    0.000    0.000    0.000    0.000    0.000 
#
# Total GULP energy -134081.522081 kJ/mol
# GULP energy per Si atom -5586.730087 kJ/mol
# Density = 1.901178 g / cm^3
# Si number density = 19.055154 Si / 1000 Ang^3
#
#
#
# Elastic Constant Matrix: (Units=GPa)
#
#
# Indices 1 2 3 4 5 6 
#
# 1 148.3901 60.3883 63.6715 0.0000 0.0000 0.0000
# 2 60.3883 139.6135 70.5248 0.0000 0.0000 0.0000
# 3 63.6715 70.5248 89.7474 0.0000 0.0000 0.0000
# 4 0.0000 0.0000 0.0000 29.8734 0.0000 0.0000
# 5 0.0000 0.0000 0.0000 0.0000 29.5562 0.0000
# 6 0.0000 0.0000 0.0000 0.0000 0.0000 -0.5172
#
#
#
# Elastic Compliance Matrix: (Units=1/GPa)
#
#
# Indices 1 2 3 4 5 6 
#
# 1 0.009809 -0.001206 -0.006011 0.000000 0.000000 0.000000
# 2 -0.001206 0.012026 -0.008594 0.000000 0.000000 0.000000
# 3 -0.006011 -0.008594 0.022160 0.000000 0.000000 0.000000
# 4 0.000000 0.000000 0.000000 0.033475 0.000000 0.000000
# 5 0.000000 0.000000 0.000000 0.000000 0.033834 0.000000
# 6 0.000000 0.000000 0.000000 0.000000 0.000000 -1.933540
#
#
# Mechanical properties :
#
#
# Convention : Reuss Voigt Hill
#
# Bulk Modulus (GPa) = 80.82772 85.21339 83.02055
# Shear Modulus (GPa) = -2.79879 23.99358 10.59740
#
# Velocity S-wave (km/s) = -1.21325 3.55232 2.36083
# Velocity P-wave (km/s) = 6.36767 7.85122 7.14804
#
# Compressibility (1/GPa) = 0.01237199
#
# Stress axis : x y z
#
# Youngs Moduli (GPa) = 101.94478 83.15534 45.12545
#
# Poissons Ratio (x) = 0.10031 0.27126
# Poissons Ratio (y) = 0.12298 0.38781
# Poissons Ratio (z) = 0.61281 0.71465
#
# Static dielectric constant tensor:
#      x y z
#    x 1.642560 0.000000 0.000000 
#    y 0.000000 1.682470 0.000000 
#    z 0.000000 0.000000 1.716970 
# 
# From -- ./inp_files/23826.got.cif
#   From: 2010.05.17/outbox.cif.g08.bks.cpg/sg22_12_cif.got.tgz:23826.got - 2010.06.03 23:40:54.
