data_PCOD9326055
_publ_section_title
;
Structure prediction by ZEFSAII (Michael W. Deem and Ramdas Pophale) SiO2 
 PCOD9326055
Probable space group: F 2 2 2
;
_chemical_formula_sum "Si O2"
_cell_formula_units_Z 88
_cell_length_a 11.664214
_cell_length_b 21.417932
_cell_length_c 17.950421
_cell_angle_alpha 90.000000
_cell_angle_beta 90.000000
_cell_angle_gamma 90.000000
_cell_volume 4484.434170
_symmetry_space_group_name_H-M "F 2 2 2"
_symmetry_group_IT_number 22
_symmetry_cell_setting 'orthorhombic'
loop_
_space_group_symop_operation_xyz
x,y,z
-x,-y,z
x,-y,-z
-x,y,-z
x,1/2+y,1/2+z
-x,1/2-y,1/2+z
x,1/2-y,1/2-z
-x,1/2+y,1/2-z
1/2+x,y,1/2+z
1/2-x,-y,1/2+z
1/2+x,-y,1/2-z
1/2-x,y,1/2-z
1/2+x,1/2+y,z
1/2-x,1/2-y,z
1/2+x,1/2-y,-z
1/2-x,1/2+y,-z
loop_
_atom_site_type_symbol
_atom_site_label
_atom_site_fract_x
_atom_site_fract_y
_atom_site_fract_z
Si Si1 0.690064 0.000000 0.500000
Si Si2 0.250000 0.368096 0.750000
Si Si3 0.650811 0.558465 0.608029
Si Si4 0.488967 0.625882 0.204359
Si Si5 0.907610 0.414751 0.863432
Si Si6 0.780776 0.818918 0.161328
Si Si7 0.000000 0.000000 0.882525
O O1 0.769716 0.053128 0.464272
O O2 0.605493 0.979364 0.434252
O O3 0.292565 0.407302 0.678195
O O4 0.370139 0.338233 0.777999
O O5 0.526275 0.587338 0.590778
O O6 0.632243 0.486366 0.632690
O O7 0.548461 0.604007 0.281067
O O8 0.584878 0.663966 0.159098
O O9 0.462852 0.560085 0.164250
O O10 0.801547 0.369235 0.877755
O O11 0.750000 0.819822 0.250000
O O12 0.750000 0.750000 0.133916
#
# Coordination Sequence:
#
# PCOD9326055 Si02
#       7
#     8   8  16  16  16  16   8
#     4  11  22  29  46  76 120 145 175 216 288 336
#     4  10  18  30  52  77 109 138 180 216 274 330
#     4  10  19  32  47  77 108 142 175 219 273 332
#     4  10  18  31  53  76 108 136 186 223 269 337
#     4   9  19  30  52  74 100 145 181 225 266 325
#     4   9  18  31  50  78 110 142 184 229 275 319
#     4  11  20  32  46  80 110 147 176 221 280 336
#
# _framework density 19.623434
#
# number of rings (size 3 to 8) (size 9 to 14) (size 15 to 20)
#    0.000    2.182    1.818    3.273    3.818    1.455 
#    0.000    0.000    0.000   19.636    0.000   20.364 
#    0.000    0.000    0.000    0.000    0.000    0.000 
#
# Total GULP energy -122562.865448 kJ/mol
# GULP energy per Si atom -5571.039339 kJ/mol
# Density = 1.957877 g / cm^3
# Si number density = 19.623434 Si / 1000 Ang^3
#
#
#
# Elastic Constant Matrix: (Units=GPa)
#
#
# Indices 1 2 3 4 5 6 
#
# 1 181.8299 48.9357 27.5121 0.0000 0.0000 0.0000
# 2 48.9357 57.9345 1.7104 0.0000 0.0000 0.0000
# 3 27.5121 1.7104 48.5970 0.0000 0.0000 0.0000
# 4 0.0000 0.0000 0.0000 3.0040 0.0000 0.0000
# 5 0.0000 0.0000 0.0000 0.0000 30.9324 0.0000
# 6 0.0000 0.0000 0.0000 0.0000 0.0000 11.5164
#
#
#
# Elastic Compliance Matrix: (Units=1/GPa)
#
#
# Indices 1 2 3 4 5 6 
#
# 1 0.007905 -0.006552 -0.004245 0.000000 0.000000 0.000000
# 2 -0.006552 0.022709 0.002910 0.000000 0.000000 0.000000
# 3 -0.004245 0.002910 0.022878 0.000000 0.000000 0.000000
# 4 0.000000 0.000000 0.000000 0.332888 0.000000 0.000000
# 5 0.000000 0.000000 0.000000 0.000000 0.032329 0.000000
# 6 0.000000 0.000000 0.000000 0.000000 0.000000 0.086833
#
#
# Mechanical properties :
#
#
# Convention : Reuss Voigt Hill
#
# Bulk Modulus (GPa) = 26.51184 49.40863 37.96023
# Shear Modulus (GPa) = 9.36526 23.10412 16.23469
#
# Velocity S-wave (km/s) = 2.18697 3.43501 2.87942
# Velocity P-wave (km/s) = 4.46282 6.40042 5.51734
#
# Compressibility (1/GPa) = 0.03771900
#
# Stress axis : x y z
#
# Youngs Moduli (GPa) = 126.49833 44.03488 43.70999
#
# Poissons Ratio (x) = 0.28852 0.18554
# Poissons Ratio (y) = 0.82882 -0.12720
# Poissons Ratio (z) = 0.53696 -0.12814
#
# Static dielectric constant tensor:
#      x y z
#    x 1.779430 0.000000 0.000000 
#    y 0.000000 1.655620 0.000000 
#    z 0.000000 0.000000 1.709140 
# 
# From -- ./inp_files/36105.got.cif
#   From: 2010.05.17/outbox.cif.g08.bks.cpg/sg22_19_cif.got.tgz:36105.got - 2010.06.03 23:40:54.
