data_PCOD9326079
_publ_section_title
;
Structure prediction by ZEFSAII (Michael W. Deem and Ramdas Pophale) SiO2 
 PCOD9326079
Probable space group: F 2 2 2
;
_chemical_formula_sum "Si O2"
_cell_formula_units_Z 88
_cell_length_a 7.954641
_cell_length_b 19.787024
_cell_length_c 27.413634
_cell_angle_alpha 90.000000
_cell_angle_beta 90.000000
_cell_angle_gamma 90.000000
_cell_volume 4314.869597
_symmetry_space_group_name_H-M "F 2 2 2"
_symmetry_group_IT_number 22
_symmetry_cell_setting 'orthorhombic'
loop_
_space_group_symop_operation_xyz
x,y,z
-x,-y,z
x,-y,-z
-x,y,-z
x,1/2+y,1/2+z
-x,1/2-y,1/2+z
x,1/2-y,1/2-z
-x,1/2+y,1/2-z
1/2+x,y,1/2+z
1/2-x,-y,1/2+z
1/2+x,-y,1/2-z
1/2-x,y,1/2-z
1/2+x,1/2+y,z
1/2-x,1/2-y,z
1/2+x,1/2-y,-z
1/2-x,1/2+y,-z
loop_
_atom_site_type_symbol
_atom_site_label
_atom_site_fract_x
_atom_site_fract_y
_atom_site_fract_z
Si Si1 0.272589 0.599399 0.914991
Si Si2 0.799757 0.827901 0.509490
Si Si3 0.000000 0.500000 0.640000
Si Si4 0.579482 0.218163 0.652191
Si Si5 0.083320 0.350153 0.889894
Si Si6 0.674544 0.878926 0.696623
O O1 0.358977 0.532042 0.895399
O O2 0.358151 0.659191 0.883680
O O3 0.074146 0.602428 0.902760
O O4 0.287854 0.621922 0.971323
O O5 0.750000 0.750000 0.501205
O O6 0.783471 0.847810 0.565985
O O7 0.000000 0.831592 0.500000
O O8 0.926231 0.557137 0.675595
O O9 0.750000 0.250000 0.674352
O O10 0.491166 0.275356 0.619352
O O11 0.449122 0.185541 0.689987
O O12 0.172232 0.369819 0.840473
O O13 0.750000 0.886687 0.750000
#
# Coordination Sequence:
#
# PCOD9326079 Si02
#       6
#    16  16   8  16  16  16
#     4   9  19  37  59  86 119 158 196 238 295 356
#     4  10  18  31  57  90 122 152 184 230 297 367
#     4  10  24  44  59  80 116 158 209 254 292 348
#     4   9  18  37  60  90 128 152 182 240 304 365
#     4  10  20  35  60  92 122 150 191 246 299 360
#     4  11  24  41  62  84 113 157 204 247 294 351
#
# _framework density 20.394590000000001
#
# number of rings (size 3 to 8) (size 9 to 14) (size 15 to 20)
#    0.000    2.182    0.000    4.364    0.000    5.091 
#    0.000   11.818    0.000    3.273    0.000    0.000 
#    0.000    0.000    0.000    0.000    0.000    0.000 
#
# Total GULP energy -122882.930053 kJ/mol
# GULP energy per Si atom -5585.587730 kJ/mol
# Density = 2.034817 g / cm^3
# Si number density = 20.394590 Si / 1000 Ang^3
#
#
#
# Elastic Constant Matrix: (Units=GPa)
#
#
# Indices 1 2 3 4 5 6 
#
# 1 80.5975 33.3779 54.1176 0.0000 0.0000 0.0000
# 2 33.3779 56.3268 40.8852 0.0000 0.0000 0.0000
# 3 54.1176 40.8852 160.1238 0.0000 0.0000 0.0000
# 4 0.0000 0.0000 0.0000 -24.2273 0.0000 0.0000
# 5 0.0000 0.0000 0.0000 0.0000 25.1397 0.0000
# 6 0.0000 0.0000 0.0000 0.0000 0.0000 16.5902
#
#
#
# Elastic Compliance Matrix: (Units=1/GPa)
#
#
# Indices 1 2 3 4 5 6 
#
# 1 0.018529 -0.007898 -0.004246 0.000000 0.000000 0.000000
# 2 -0.007898 0.025159 -0.003755 0.000000 0.000000 0.000000
# 3 -0.004246 -0.003755 0.008639 0.000000 0.000000 0.000000
# 4 0.000000 0.000000 0.000000 -0.041276 0.000000 0.000000
# 5 0.000000 0.000000 0.000000 0.000000 0.039778 0.000000
# 6 0.000000 0.000000 0.000000 0.000000 0.000000 0.060277
#
#
# Mechanical properties :
#
#
# Convention : Reuss Voigt Hill
#
# Bulk Modulus (GPa) = 48.70905 61.53441 55.12173
# Shear Modulus (GPa) = 33.39003 14.74502 24.06752
#
# Velocity S-wave (km/s) = 4.05062 2.69176 3.43898
# Velocity P-wave (km/s) = 6.76845 6.31650 6.54638
#
# Compressibility (1/GPa) = 0.02053007
#
# Stress axis : x y z
#
# Youngs Moduli (GPa) = 53.96978 39.74713 115.75714
#
# Poissons Ratio (x) = 0.31392 0.49146
# Poissons Ratio (y) = 0.42625 0.43463
# Poissons Ratio (z) = 0.22914 0.14924
#
# Static dielectric constant tensor:
#      x y z
#    x 1.825540 0.000000 0.000000 
#    y 0.000000 1.741310 0.000000 
#    z 0.000000 0.000000 1.720600 
# 
# From -- ./inp_files/47266.got.cif
#   From: 2010.05.17/outbox.cif.g08.bks.cpg/sg22_24_cif.got.tgz:47266.got - 2010.06.03 23:40:54.
