data_PCOD9326956
_publ_section_title
;
Structure prediction by ZEFSAII (Michael W. Deem and Ramdas Pophale) SiO2 
 PCOD9326956
Probable space group: F 2 2 2
;
_chemical_formula_sum "Si O2"
_cell_formula_units_Z 84
_cell_length_a 16.361394
_cell_length_b 16.439437
_cell_length_c 18.167379
_cell_angle_alpha 90.000000
_cell_angle_beta 90.000000
_cell_angle_gamma 90.000000
_cell_volume 4886.518188
_symmetry_space_group_name_H-M "F 2 2 2"
_symmetry_group_IT_number 22
_symmetry_cell_setting 'orthorhombic'
loop_
_space_group_symop_operation_xyz
x,y,z
-x,-y,z
x,-y,-z
-x,y,-z
x,1/2+y,1/2+z
-x,1/2-y,1/2+z
x,1/2-y,1/2-z
-x,1/2+y,1/2-z
1/2+x,y,1/2+z
1/2-x,-y,1/2+z
1/2+x,-y,1/2-z
1/2-x,y,1/2-z
1/2+x,1/2+y,z
1/2-x,1/2-y,z
1/2+x,1/2-y,-z
1/2-x,1/2+y,-z
loop_
_atom_site_type_symbol
_atom_site_label
_atom_site_fract_x
_atom_site_fract_y
_atom_site_fract_z
Si Si1 0.600354 0.851450 0.058169
Si Si2 0.026000 0.278613 0.828544
Si Si3 0.207493 0.160371 0.673760
Si Si4 0.000000 0.500000 0.000000
Si Si5 0.256012 0.905108 0.484323
Si Si6 0.421139 0.309579 0.962951
O O1 0.550199 0.817645 0.127807
O O2 0.558147 0.938030 0.042881
O O3 0.696229 0.868285 0.047123
O O4 0.586010 0.782303 0.995564
O O5 0.996971 0.250000 0.750000
O O6 0.109437 0.330676 0.817383
O O7 0.059487 0.203611 0.877679
O O8 0.250000 0.130170 0.750000
O O9 0.250000 0.250000 0.662052
O O10 0.220967 0.110502 0.598405
O O11 0.340920 0.857690 0.482684
O O12 0.265716 0.000000 0.500000
O O13 0.500000 0.348635 0.000000
#
# Coordination Sequence:
#
# PCOD9326956 Si02
#       6
#    16  16  16   4  16  16
#     4  11  21  34  60  90 125 149 197 249 316 376
#     4  11  19  34  60  90 117 156 194 254 313 369
#     4  11  18  33  60  91 118 146 202 267 312 358
#     4  12  16  36  56  96 120 140 194 260 312 348
#     4  12  22  35  60  90 121 162 205 259 313 361
#     4  10  20  37  59  85 114 156 206 255 298 369
#
# _framework density 17.190154
#
# number of rings (size 3 to 8) (size 9 to 14) (size 15 to 20)
#    0.000    0.952    9.524    0.571    0.000    0.381 
#    0.000    0.000    8.381    4.571    0.000    0.000 
#    0.000    0.000    0.000    0.000    0.000    0.000 
#
# Total GULP energy -116920.409901 kJ/mol
# GULP energy per Si atom -5567.638567 kJ/mol
# Density = 1.715103 g / cm^3
# Si number density = 17.190154 Si / 1000 Ang^3
#
#
#
# Elastic Constant Matrix: (Units=GPa)
#
#
# Indices 1 2 3 4 5 6 
#
# 1 141.7758 35.2177 59.3123 0.0000 0.0000 0.0000
# 2 35.2177 78.1297 44.7224 0.0000 0.0000 0.0000
# 3 59.3123 44.7224 122.6216 0.0000 0.0000 0.0000
# 4 0.0000 0.0000 0.0000 18.6397 0.0000 0.0000
# 5 0.0000 0.0000 0.0000 0.0000 26.2521 0.0000
# 6 0.0000 0.0000 0.0000 0.0000 0.0000 -32.7485
#
#
#
# Elastic Compliance Matrix: (Units=1/GPa)
#
#
# Indices 1 2 3 4 5 6 
#
# 1 0.009083 -0.001996 -0.003665 0.000000 0.000000 0.000000
# 2 -0.001996 0.016615 -0.005094 0.000000 0.000000 0.000000
# 3 -0.003665 -0.005094 0.011786 0.000000 0.000000 0.000000
# 4 0.000000 0.000000 0.000000 0.053649 0.000000 0.000000
# 5 0.000000 0.000000 0.000000 0.000000 0.038092 0.000000
# 6 0.000000 0.000000 0.000000 0.000000 0.000000 -0.030536
#
#
# Mechanical properties :
#
#
# Convention : Reuss Voigt Hill
#
# Bulk Modulus (GPa) = 62.60792 69.00355 65.80573
# Shear Modulus (GPa) = 39.83285 15.98029 27.90657
#
# Velocity S-wave (km/s) = 4.81894 3.05227 4.03352
# Velocity P-wave (km/s) = 8.21357 7.25605 7.74962
#
# Compressibility (1/GPa) = 0.01597242
#
# Stress axis : x y z
#
# Youngs Moduli (GPa) = 110.10071 60.18655 84.84591
#
# Poissons Ratio (x) = 0.12013 0.31098
# Poissons Ratio (y) = 0.21976 0.43223
# Poissons Ratio (z) = 0.40355 0.30661
#
# Static dielectric constant tensor:
#      x y z
#    x 1.637180 0.000000 0.000000 
#    y 0.000000 1.574150 0.000000 
#    z 0.000000 0.000000 1.650860 
# 
# From -- ./inp_files/38000.got.cif
#   From: 2010.05.17/outbox.cif.g08.bks.cpg/sg22_19_cif.got.tgz:38000.got - 2010.06.03 23:40:54.
