data_PCOD9326569
_publ_section_title
;
Structure prediction by ZEFSAII (Michael W. Deem and Ramdas Pophale) SiO2 
 PCOD9326569
Probable space group: F 2 2 2
;
_chemical_formula_sum "Si O2"
_cell_formula_units_Z 112
_cell_length_a 15.003308
_cell_length_b 30.074651
_cell_length_c 11.344082
_cell_angle_alpha 90.000000
_cell_angle_beta 90.000000
_cell_angle_gamma 90.000000
_cell_volume 5118.668194
_symmetry_space_group_name_H-M "F 2 2 2"
_symmetry_group_IT_number 22
_symmetry_cell_setting 'orthorhombic'
loop_
_space_group_symop_operation_xyz
x,y,z
-x,-y,z
x,-y,-z
-x,y,-z
x,1/2+y,1/2+z
-x,1/2-y,1/2+z
x,1/2-y,1/2-z
-x,1/2+y,1/2-z
1/2+x,y,1/2+z
1/2-x,-y,1/2+z
1/2+x,-y,1/2-z
1/2-x,y,1/2-z
1/2+x,1/2+y,z
1/2-x,1/2-y,z
1/2+x,1/2-y,-z
1/2-x,1/2+y,-z
loop_
_atom_site_type_symbol
_atom_site_label
_atom_site_fract_x
_atom_site_fract_y
_atom_site_fract_z
Si Si1 0.063767 0.137064 0.847775
Si Si2 0.617320 0.594983 0.079007
Si Si3 0.903772 0.411284 0.941276
Si Si4 0.654582 0.423516 0.310671
Si Si5 0.725843 0.343106 0.625741
Si Si6 0.714982 0.800445 0.622489
Si Si7 0.641837 0.019836 0.740595
O O1 0.092220 0.117966 0.722579
O O2 0.110329 0.184590 0.872629
O O3 0.960825 0.127618 0.872160
O O4 0.111421 0.103233 0.940315
O O5 0.708290 0.614490 0.128991
O O6 0.610872 0.544567 0.121705
O O7 0.871741 0.364227 0.887952
O O8 0.896024 0.448487 0.842281
O O9 0.838068 0.424483 0.048875
O O10 0.000000 0.410465 0.000000
O O11 0.750000 0.418273 0.250000
O O12 0.613112 0.469447 0.263228
O O13 0.750000 0.319137 0.750000
O O14 0.749048 0.319590 0.501765
O O15 0.750000 0.818167 0.750000
O O16 0.750000 0.750000 0.621546
O O17 0.750000 0.019238 0.750000
#
# Coordination Sequence:
#
# PCOD9326569 Si02
#       7
#    16  16  16  16  16  16  16
#     4  10  21  36  61  92 116 161 214 264 331 409
#     4  10  19  37  62  84 122 167 210 261 329 401
#     4  12  23  38  61  89 126 174 225 277 338 396
#     4  11  24  36  56  87 126 171 230 281 325 404
#     4  11  21  40  69  93 127 174 215 269 346 409
#     4  10  22  42  69  96 131 169 212 273 350 419
#     4  11  22  38  56  83 126 178 224 277 338 381
#
# _framework density 21.880692
#
# number of rings (size 3 to 8) (size 9 to 14) (size 15 to 20)
#    0.000    1.286    2.857    4.286    0.000    3.714 
#    0.000    1.429    6.286    0.000    0.000    0.000 
#    0.000    0.000    0.000    0.000    0.000    0.000 
#
# Total GULP energy -156228.179629 kJ/mol
# GULP energy per Si atom -5579.577844 kJ/mol
# Density = 2.183089 g / cm^3
# Si number density = 21.880692 Si / 1000 Ang^3
#
#
#
# Elastic Constant Matrix: (Units=GPa)
#
#
# Indices 1 2 3 4 5 6 
#
# 1 91.6556 16.4249 5.5230 0.0000 0.0000 0.0000
# 2 16.4249 103.4861 20.9138 0.0000 0.0000 0.0000
# 3 5.5230 20.9138 114.4740 0.0000 0.0000 0.0000
# 4 0.0000 0.0000 0.0000 27.1831 0.0000 0.0000
# 5 0.0000 0.0000 0.0000 0.0000 34.4670 0.0000
# 6 0.0000 0.0000 0.0000 0.0000 0.0000 18.6916
#
#
#
# Elastic Compliance Matrix: (Units=1/GPa)
#
#
# Indices 1 2 3 4 5 6 
#
# 1 0.011235 -0.001738 -0.000225 0.000000 0.000000 0.000000
# 2 -0.001738 0.010302 -0.001798 0.000000 0.000000 0.000000
# 3 -0.000225 -0.001798 0.009075 0.000000 0.000000 0.000000
# 4 0.000000 0.000000 0.000000 0.036788 0.000000 0.000000
# 5 0.000000 0.000000 0.000000 0.000000 0.029013 0.000000
# 6 0.000000 0.000000 0.000000 0.000000 0.000000 0.053500
#
#
# Mechanical properties :
#
#
# Convention : Reuss Voigt Hill
#
# Bulk Modulus (GPa) = 43.30654 43.92659 43.61656
# Shear Modulus (GPa) = 30.27876 33.85193 32.06534
#
# Velocity S-wave (km/s) = 3.72400 3.93760 3.83229
# Velocity P-wave (km/s) = 6.19080 6.38687 6.28960
#
# Compressibility (1/GPa) = 0.02309120
#
# Stress axis : x y z
#
# Youngs Moduli (GPa) = 89.00466 97.06487 110.19291
#
# Poissons Ratio (x) = 0.16868 0.02475
# Poissons Ratio (y) = 0.15468 0.19817
# Poissons Ratio (z) = 0.01999 0.17456
#
# Static dielectric constant tensor:
#      x y z
#    x 1.892610 0.000000 0.000000 
#    y 0.000000 1.789160 0.000000 
#    z 0.000000 0.000000 1.868100 
# 
# From -- ./inp_files/20282.got.cif
#   From: 2010.05.17/outbox.cif.g08.bks.cpg/sg22_11_cif.got.tgz:20282.got - 2010.06.03 23:40:54.
