data_PCOD9326136
_publ_section_title
;
Structure prediction by ZEFSAII (Michael W. Deem and Ramdas Pophale) SiO2 
 PCOD9326136
Probable space group: F 2 2 2
;
_chemical_formula_sum "Si O2"
_cell_formula_units_Z 112
_cell_length_a 13.124715
_cell_length_b 24.061174
_cell_length_c 17.213881
_cell_angle_alpha 90.000000
_cell_angle_beta 90.000000
_cell_angle_gamma 90.000000
_cell_volume 5436.075648
_symmetry_space_group_name_H-M "F 2 2 2"
_symmetry_group_IT_number 22
_symmetry_cell_setting 'orthorhombic'
loop_
_space_group_symop_operation_xyz
x,y,z
-x,-y,z
x,-y,-z
-x,y,-z
x,1/2+y,1/2+z
-x,1/2-y,1/2+z
x,1/2-y,1/2-z
-x,1/2+y,1/2-z
1/2+x,y,1/2+z
1/2-x,-y,1/2+z
1/2+x,-y,1/2-z
1/2-x,y,1/2-z
1/2+x,1/2+y,z
1/2-x,1/2-y,z
1/2+x,1/2-y,-z
1/2-x,1/2+y,-z
loop_
_atom_site_type_symbol
_atom_site_label
_atom_site_fract_x
_atom_site_fract_y
_atom_site_fract_z
Si Si1 0.964450 0.241531 0.836860
Si Si2 0.520313 0.935040 0.913698
Si Si3 0.388383 0.483212 0.090138
Si Si4 0.846896 0.358961 0.642715
Si Si5 0.193649 0.302019 0.665594
Si Si6 0.111058 0.144412 0.324453
Si Si7 0.745102 0.577217 0.656542
O O1 0.916238 0.250000 0.750000
O O2 0.901698 0.197136 0.886907
O O3 0.957480 0.305682 0.860379
O O4 0.076842 0.216677 0.826702
O O5 0.435683 0.911032 0.857386
O O6 0.631694 0.923072 0.878803
O O7 0.500000 0.000000 0.917768
O O8 0.500000 0.911799 0.000000
O O9 0.500000 0.500000 0.121516
O O10 0.369217 0.417584 0.102011
O O11 0.304455 0.522520 0.129092
O O12 0.386537 0.500000 0.000000
O O13 0.888955 0.362170 0.731275
O O14 0.726903 0.348373 0.648783
O O15 0.250000 0.306039 0.750000
O O16 0.250000 0.250000 0.624594
O O17 0.203857 0.363814 0.631306
O O18 0.750000 0.576040 0.750000
#
# Coordination Sequence:
#
# PCOD9326136 Si02
#       7
#    16  16  16  16  16  16  16
#     4  10  18  34  62  94 132 166 216 276 339 400
#     4  11  26  43  66  94 138 182 219 275 346 413
#     4  11  26  44  65  90 134 178 218 274 341 405
#     4  10  22  37  66  94 129 169 221 278 330 400
#     4  10  18  33  58  94 129 164 206 274 333 385
#     4  10  22  38  64  97 129 170 222 276 331 404
#     4  11  26  39  69 102 129 171 234 278 331 402
#
# _framework density 20.603099
#
# number of rings (size 3 to 8) (size 9 to 14) (size 15 to 20)
#    0.000    1.571    1.429    3.000   16.000    1.714 
#    0.000    0.000    9.429    0.000    0.000    0.000 
#    0.000    0.000    0.000    0.000    0.000    0.000 
#
# Total GULP energy -156158.603620 kJ/mol
# GULP energy per Si atom -5577.092986 kJ/mol
# Density = 2.055621 g / cm^3
# Si number density = 20.603099 Si / 1000 Ang^3
#
#
#
# Elastic Constant Matrix: (Units=GPa)
#
#
# Indices 1 2 3 4 5 6 
#
# 1 88.3640 18.9650 36.9496 0.0000 0.0000 0.0000
# 2 18.9650 128.1263 23.6964 0.0000 0.0000 0.0000
# 3 36.9496 23.6964 41.8587 0.0000 0.0000 0.0000
# 4 0.0000 0.0000 0.0000 -10.2930 0.0000 0.0000
# 5 0.0000 0.0000 0.0000 0.0000 8.5494 0.0000
# 6 0.0000 0.0000 0.0000 0.0000 0.0000 63.7042
#
#
#
# Elastic Compliance Matrix: (Units=1/GPa)
#
#
# Indices 1 2 3 4 5 6 
#
# 1 0.017949 0.000305 -0.016017 0.000000 0.000000 0.000000
# 2 0.000305 0.008723 -0.005208 0.000000 0.000000 0.000000
# 3 -0.016017 -0.005208 0.040976 0.000000 0.000000 0.000000
# 4 0.000000 0.000000 0.000000 -0.097153 0.000000 0.000000
# 5 0.000000 0.000000 0.000000 0.000000 0.116967 0.000000
# 6 0.000000 0.000000 0.000000 0.000000 0.000000 0.015698
#
#
# Mechanical properties :
#
#
# Convention : Reuss Voigt Hill
#
# Bulk Modulus (GPa) = 38.74460 46.39677 42.57068
# Shear Modulus (GPa) = 32.55220 24.30799 28.43009
#
# Velocity S-wave (km/s) = 3.97919 3.43858 3.71872
# Velocity P-wave (km/s) = 6.32123 6.19139 6.25665
#
# Compressibility (1/GPa) = 0.02581005
#
# Stress axis : x y z
#
# Youngs Moduli (GPa) = 55.71449 114.64327 24.40439
#
# Poissons Ratio (x) = -0.03502 0.39088
# Poissons Ratio (y) = -0.01702 0.12709
# Poissons Ratio (z) = 0.89236 0.59702
#
# Static dielectric constant tensor:
#      x y z
#    x 1.556950 0.000000 0.000000 
#    y 0.000000 1.810770 0.000000 
#    z 0.000000 0.000000 1.619680 
# 
# From -- ./inp_files/42894.got.cif
#   From: 2010.05.17/outbox.cif.g08.bks.cpg/sg22_22_cif.got.tgz:42894.got - 2010.06.03 23:40:54.
