data_PCOD9326063
_publ_section_title
;
Structure prediction by ZEFSAII (Michael W. Deem and Ramdas Pophale) SiO2 
 PCOD9326063
Probable space group: F 2 2 2
;
_chemical_formula_sum "Si O2"
_cell_formula_units_Z 60
_cell_length_a 20.576663
_cell_length_b 8.872778
_cell_length_c 14.348931
_cell_angle_alpha 90.000000
_cell_angle_beta 90.000000
_cell_angle_gamma 90.000000
_cell_volume 2619.715366
_symmetry_space_group_name_H-M "F 2 2 2"
_symmetry_group_IT_number 22
_symmetry_cell_setting 'orthorhombic'
loop_
_space_group_symop_operation_xyz
x,y,z
-x,-y,z
x,-y,-z
-x,y,-z
x,1/2+y,1/2+z
-x,1/2-y,1/2+z
x,1/2-y,1/2-z
-x,1/2+y,1/2-z
1/2+x,y,1/2+z
1/2-x,-y,1/2+z
1/2+x,-y,1/2-z
1/2-x,y,1/2-z
1/2+x,1/2+y,z
1/2-x,1/2-y,z
1/2+x,1/2-y,-z
1/2-x,1/2+y,-z
loop_
_atom_site_type_symbol
_atom_site_label
_atom_site_fract_x
_atom_site_fract_y
_atom_site_fract_z
Si Si1 0.750000 0.493398 0.250000
Si Si2 0.750000 0.750000 0.103628
Si Si3 0.348593 0.750000 0.250000
Si Si4 0.924407 0.978304 0.294039
Si Si5 0.000000 0.500000 0.500000
Si Si6 0.892025 0.808334 0.104107
O O1 0.770955 0.607976 0.168887
O O2 0.698579 0.375412 0.206694
O O3 0.819063 0.802397 0.060596
O O4 0.393818 0.642826 0.311848
O O5 0.891450 0.896072 0.204181
O O6 0.914373 0.862105 0.376951
O O7 0.000000 0.000000 0.272597
O O8 0.050451 0.607280 0.552649
#
# Coordination Sequence:
#
# PCOD9326063 Si02
#       6
#     8   8   8  16   4  16
#     4  10  18  30  62 106 140 158 210 294 356 390
#     4  11  18  40  64  96 134 179 230 294 342 401
#     4  11  18  30  58 108 136 157 206 288 352 401
#     4  11  21  36  68 104 134 174 234 285 337 417
#     4  12  28  48  70  92 144 200 234 276 356 430
#     4  11  23  43  69  97 135 186 233 285 349 410
#
# _framework density 22.903252999999999
#
# number of rings (size 3 to 8) (size 9 to 14) (size 15 to 20)
#    0.000    1.067    6.667    3.200    0.000    0.000 
#    0.000    0.667   11.733    0.000    0.000    0.000 
#    0.000    0.000    0.000    0.000    0.000    0.000 
#
# Total GULP energy -83528.449035 kJ/mol
# GULP energy per Si atom -5568.563269 kJ/mol
# Density = 2.285112 g / cm^3
# Si number density = 22.903253 Si / 1000 Ang^3
#
#
#
# Elastic Constant Matrix: (Units=GPa)
#
#
# Indices 1 2 3 4 5 6 
#
# 1 188.5680 75.3652 28.0976 0.0000 0.0000 0.0000
# 2 75.3652 197.3024 27.7669 0.0000 0.0000 0.0000
# 3 28.0976 27.7669 21.6076 0.0000 0.0000 0.0000
# 4 0.0000 0.0000 0.0000 8.4159 0.0000 0.0000
# 5 0.0000 0.0000 0.0000 0.0000 -24.6808 0.0000
# 6 0.0000 0.0000 0.0000 0.0000 0.0000 57.2390
#
#
#
# Elastic Compliance Matrix: (Units=1/GPa)
#
#
# Indices 1 2 3 4 5 6 
#
# 1 0.007018 -0.001705 -0.006935 0.000000 0.000000 0.000000
# 2 -0.001705 0.006601 -0.006266 0.000000 0.000000 0.000000
# 3 -0.006935 -0.006266 0.063351 0.000000 0.000000 0.000000
# 4 0.000000 0.000000 0.000000 0.118822 0.000000 0.000000
# 5 0.000000 0.000000 0.000000 0.000000 -0.040517 0.000000
# 6 0.000000 0.000000 0.000000 0.000000 0.000000 0.017471
#
#
# Mechanical properties :
#
#
# Convention : Reuss Voigt Hill
#
# Bulk Modulus (GPa) = 21.20552 74.43751 47.82151
# Shear Modulus (GPa) = 22.90669 26.61138 24.75903
#
# Velocity S-wave (km/s) = 3.16595 3.41237 3.29146
# Velocity P-wave (km/s) = 4.75848 6.93521 5.94728
#
# Compressibility (1/GPa) = 0.04715754
#
# Stress axis : x y z
#
# Youngs Moduli (GPa) = 142.49509 151.48301 15.78514
#
# Poissons Ratio (x) = 0.25823 0.10947
# Poissons Ratio (y) = 0.24290 0.09892
# Poissons Ratio (z) = 0.98821 0.94927
#
# Static dielectric constant tensor:
#      x y z
#    x 2.075560 0.000000 0.000000 
#    y 0.000000 1.875740 0.000000 
#    z 0.000000 0.000000 1.846210 
# 
# From -- ./inp_files/13393.got.cif
#   From: 2010.05.17/outbox.cif.g08.bks.cpg/sg22_7_cif.got.tgz:13393.got - 2010.06.03 23:40:54.
