data_PCOD9326813
_publ_section_title
;
Structure prediction by ZEFSAII (Michael W. Deem and Ramdas Pophale) SiO2 
 PCOD9326813
Probable space group: F 2 2 2
;
_chemical_formula_sum "Si O2"
_cell_formula_units_Z 96
_cell_length_a 20.785731
_cell_length_b 9.654232
_cell_length_c 24.640100
_cell_angle_alpha 90.000000
_cell_angle_beta 90.000000
_cell_angle_gamma 90.000000
_cell_volume 4944.535504
_symmetry_space_group_name_H-M "F 2 2 2"
_symmetry_group_IT_number 22
_symmetry_cell_setting 'orthorhombic'
loop_
_space_group_symop_operation_xyz
x,y,z
-x,-y,z
x,-y,-z
-x,y,-z
x,1/2+y,1/2+z
-x,1/2-y,1/2+z
x,1/2-y,1/2-z
-x,1/2+y,1/2-z
1/2+x,y,1/2+z
1/2-x,-y,1/2+z
1/2+x,-y,1/2-z
1/2-x,y,1/2-z
1/2+x,1/2+y,z
1/2-x,1/2-y,z
1/2+x,1/2-y,-z
1/2-x,1/2+y,-z
loop_
_atom_site_type_symbol
_atom_site_label
_atom_site_fract_x
_atom_site_fract_y
_atom_site_fract_z
Si Si1 0.258541 0.603965 0.123638
Si Si2 0.524686 0.261241 0.311749
Si Si3 0.101235 0.792556 0.630683
Si Si4 0.115830 0.517301 0.326758
Si Si5 0.352100 0.460630 0.702851
Si Si6 0.797743 0.879212 0.455275
O O1 0.250000 0.750000 0.094002
O O2 0.332608 0.595854 0.137344
O O3 0.212009 0.603818 0.176579
O O4 0.239199 0.469201 0.090259
O O5 0.496088 0.250000 0.250000
O O6 0.474538 0.315054 0.356427
O O7 0.552014 0.109500 0.324771
O O8 0.586698 0.360904 0.308197
O O9 0.109188 0.634646 0.649208
O O10 0.136273 0.823025 0.573219
O O11 0.136036 0.895237 0.672583
O O12 0.146297 0.514202 0.266703
O O13 0.750000 0.750000 0.469237
O O14 0.810638 0.000000 0.500000
#
# Coordination Sequence:
#
# PCOD9326813 Si02
#       6
#    16  16  16  16  16  16
#     4  11  21  37  59  91 125 163 214 258 304 356
#     4  10  20  35  57  89 133 183 211 229 280 361
#     4  11  22  37  58  89 123 157 212 253 303 367
#     4  11  20  34  56  91 133 171 208 247 290 356
#     4  10  21  32  56  87 131 182 207 240 290 351
#     4  11  24  45  68  92 111 147 205 274 336 380
#
# _framework density 19.415372999999999
#
# number of rings (size 3 to 8) (size 9 to 14) (size 15 to 20)
#    0.000    1.333    3.333    3.500    0.000    3.333 
#    0.000    1.667    0.000    8.000    0.000    1.167 
#    0.000    0.000    0.000    0.000    0.000    0.000 
#
# Total GULP energy -133811.348297 kJ/mol
# GULP energy per Si atom -5575.472846 kJ/mol
# Density = 1.937118 g / cm^3
# Si number density = 19.415373 Si / 1000 Ang^3
#
#
#
# Elastic Constant Matrix: (Units=GPa)
#
#
# Indices 1 2 3 4 5 6 
#
# 1 82.2777 26.1627 35.1177 0.0000 0.0000 0.0000
# 2 26.1627 133.8917 30.8541 0.0000 0.0000 0.0000
# 3 35.1177 30.8541 78.2599 0.0000 0.0000 0.0000
# 4 0.0000 0.0000 0.0000 30.9186 0.0000 0.0000
# 5 0.0000 0.0000 0.0000 0.0000 -0.4798 0.0000
# 6 0.0000 0.0000 0.0000 0.0000 0.0000 30.9379
#
#
#
# Elastic Compliance Matrix: (Units=1/GPa)
#
#
# Indices 1 2 3 4 5 6 
#
# 1 0.015320 -0.001550 -0.006264 0.000000 0.000000 0.000000
# 2 -0.001550 0.008372 -0.002605 0.000000 0.000000 0.000000
# 3 -0.006264 -0.002605 0.016616 0.000000 0.000000 0.000000
# 4 0.000000 0.000000 0.000000 0.032343 0.000000 0.000000
# 5 0.000000 0.000000 0.000000 0.000000 -2.084415 0.000000
# 6 0.000000 0.000000 0.000000 0.000000 0.000000 0.032323
#
#
# Mechanical properties :
#
#
# Convention : Reuss Voigt Hill
#
# Bulk Modulus (GPa) = 51.36027 53.18871 52.27449
# Shear Modulus (GPa) = -2.56133 25.76168 11.60018
#
# Velocity S-wave (km/s) = -1.14982 3.64657 2.44698
# Velocity P-wave (km/s) = 4.97474 6.72195 5.91323
#
# Compressibility (1/GPa) = 0.01947030
#
# Stress axis : x y z
#
# Youngs Moduli (GPa) = 65.27292 119.44655 60.18436
#
# Poissons Ratio (x) = 0.18517 0.37697
# Poissons Ratio (y) = 0.10119 0.15678
# Poissons Ratio (z) = 0.40884 0.31116
#
# Static dielectric constant tensor:
#      x y z
#    x 1.701180 0.000000 0.000000 
#    y 0.000000 1.727710 0.000000 
#    z 0.000000 0.000000 1.696040 
# 
# From -- ./inp_files/12877.got.cif
#   From: 2010.05.17/outbox.cif.g08.bks.cpg/sg22_7_cif.got.tgz:12877.got - 2010.06.03 23:40:54.
