data_PCOD9326543
_publ_section_title
;
Structure prediction by ZEFSAII (Michael W. Deem and Ramdas Pophale) SiO2 
 PCOD9326543
Probable space group: F 2 2 2
;
_chemical_formula_sum "Si O2"
_cell_formula_units_Z 108
_cell_length_a 14.752651
_cell_length_b 14.823511
_cell_length_c 23.745067
_cell_angle_alpha 90.000000
_cell_angle_beta 90.000000
_cell_angle_gamma 90.000000
_cell_volume 5192.715726
_symmetry_space_group_name_H-M "F 2 2 2"
_symmetry_group_IT_number 22
_symmetry_cell_setting 'orthorhombic'
loop_
_space_group_symop_operation_xyz
x,y,z
-x,-y,z
x,-y,-z
-x,y,-z
x,1/2+y,1/2+z
-x,1/2-y,1/2+z
x,1/2-y,1/2-z
-x,1/2+y,1/2-z
1/2+x,y,1/2+z
1/2-x,-y,1/2+z
1/2+x,-y,1/2-z
1/2-x,y,1/2-z
1/2+x,1/2+y,z
1/2-x,1/2-y,z
1/2+x,1/2-y,-z
1/2-x,1/2+y,-z
loop_
_atom_site_type_symbol
_atom_site_label
_atom_site_fract_x
_atom_site_fract_y
_atom_site_fract_z
Si Si1 0.321047 0.397775 0.518442
Si Si2 0.235425 0.040969 0.866270
Si Si3 0.027925 0.229006 0.378340
Si Si4 0.779465 0.847265 0.397812
Si Si5 0.109115 0.879146 0.306648
Si Si6 0.956661 0.904368 0.816726
Si Si7 0.500000 0.783851 0.000000
Si Si8 0.750000 0.750000 0.750000
O O1 0.341961 0.500000 0.500000
O O2 0.264995 0.407514 0.576146
O O3 0.269076 0.354135 0.465542
O O4 0.414934 0.344240 0.519280
O O5 0.325494 0.042191 0.827507
O O6 0.147036 0.088661 0.840178
O O7 0.224712 0.933974 0.876505
O O8 0.114512 0.161350 0.381358
O O9 0.949754 0.162686 0.356136
O O10 0.012786 0.317927 0.339491
O O11 0.023502 0.266518 0.442367
O O12 0.750000 0.750000 0.376612
O O13 0.051242 0.898332 0.251031
O O14 0.183496 0.806322 0.288574
O O15 0.000000 0.000000 0.832669
#
# Coordination Sequence:
#
# PCOD9326543 Si02
#       8
#    16  16  16  16  16  16   8   4
#     4   9  19  35  61  93 128 167 213 274 333 393
#     4  11  22  41  67  96 129 180 227 282 340 405
#     4  11  23  41  65  96 128 171 213 284 337 398
#     4  10  23  41  63  93 137 176 220 271 343 414
#     4  12  22  41  67  96 127 166 223 285 342 394
#     4  12  26  42  64  91 136 179 230 274 331 409
#     4  10  19  36  63  98 128 160 214 272 343 389
#     4  12  20  44  68 100 128 160 220 284 338 388
#
# _framework density 20.798366999999999
#
# number of rings (size 3 to 8) (size 9 to 14) (size 15 to 20)
#    0.000    1.185    4.444    1.111    2.074    2.370 
#    1.333    1.852    0.000    0.000    0.000    0.000 
#    0.000    0.000    0.000    0.000    0.000    0.000 
#
# Total GULP energy -150426.142045 kJ/mol
# GULP energy per Si atom -5571.338594 kJ/mol
# Density = 2.075103 g / cm^3
# Si number density = 20.798367 Si / 1000 Ang^3
#
#
#
# Elastic Constant Matrix: (Units=GPa)
#
#
# Indices 1 2 3 4 5 6 
#
# 1 50.4383 -1.1716 21.1653 0.0000 0.0000 0.0000
# 2 -1.1716 59.9427 10.3823 0.0000 0.0000 0.0000
# 3 21.1653 10.3823 106.2530 0.0000 0.0000 0.0000
# 4 0.0000 0.0000 0.0000 24.4798 0.0000 0.0000
# 5 0.0000 0.0000 0.0000 0.0000 -0.2729 0.0000
# 6 0.0000 0.0000 0.0000 0.0000 0.0000 21.7508
#
#
#
# Elastic Compliance Matrix: (Units=1/GPa)
#
#
# Indices 1 2 3 4 5 6 
#
# 1 0.021718 0.001194 -0.004443 0.000000 0.000000 0.000000
# 2 0.001194 0.017035 -0.001902 0.000000 0.000000 0.000000
# 3 -0.004443 -0.001902 0.010482 0.000000 0.000000 0.000000
# 4 0.000000 0.000000 0.000000 0.040850 0.000000 0.000000
# 5 0.000000 0.000000 0.000000 0.000000 -3.663845 0.000000
# 6 0.000000 0.000000 0.000000 0.000000 0.000000 0.045975
#
#
# Mechanical properties :
#
#
# Convention : Reuss Voigt Hill
#
# Bulk Modulus (GPa) = 25.68482 30.82070 28.25276
# Shear Modulus (GPa) = -1.42674 21.60872 10.09099
#
# Velocity S-wave (km/s) = -0.82914 3.22679 2.20507
# Velocity P-wave (km/s) = 3.38521 5.36040 4.48294
#
# Compressibility (1/GPa) = 0.03893350
#
# Stress axis : x y z
#
# Youngs Moduli (GPa) = 46.04408 58.70114 95.39794
#
# Poissons Ratio (x) = -0.07009 0.42384
# Poissons Ratio (y) = -0.05498 0.18149
# Poissons Ratio (z) = 0.20457 0.11168
#
# Static dielectric constant tensor:
#      x y z
#    x 1.768100 0.000000 0.000000 
#    y 0.000000 1.811540 0.000000 
#    z 0.000000 0.000000 1.845480 
# 
# From -- ./inp_files/32538.got.cif
#   From: 2010.05.17/outbox.cif.g08.bks.cpg/sg22_17_cif.got.tgz:32538.got - 2010.06.03 23:40:54.
