data_PCOD9326875
_publ_section_title
;
Structure prediction by ZEFSAII (Michael W. Deem and Ramdas Pophale) SiO2 
 PCOD9326875
Probable space group: F 2 2 2
;
_chemical_formula_sum "Si O2"
_cell_formula_units_Z 84
_cell_length_a 35.842002
_cell_length_b 10.807541
_cell_length_c 10.818153
_cell_angle_alpha 90.000000
_cell_angle_beta 90.000000
_cell_angle_gamma 90.000000
_cell_volume 4190.562003
_symmetry_space_group_name_H-M "F 2 2 2"
_symmetry_group_IT_number 22
_symmetry_cell_setting 'orthorhombic'
loop_
_space_group_symop_operation_xyz
x,y,z
-x,-y,z
x,-y,-z
-x,y,-z
x,1/2+y,1/2+z
-x,1/2-y,1/2+z
x,1/2-y,1/2-z
-x,1/2+y,1/2-z
1/2+x,y,1/2+z
1/2-x,-y,1/2+z
1/2+x,-y,1/2-z
1/2-x,y,1/2-z
1/2+x,1/2+y,z
1/2-x,1/2-y,z
1/2+x,1/2-y,-z
1/2-x,1/2+y,-z
loop_
_atom_site_type_symbol
_atom_site_label
_atom_site_fract_x
_atom_site_fract_y
_atom_site_fract_z
Si Si1 0.121753 0.482487 0.370960
Si Si2 0.236523 0.891114 0.393785
Si Si3 0.500000 0.000000 0.500000
Si Si4 0.350948 0.920947 0.120871
Si Si5 0.079684 0.762585 0.120840
Si Si6 0.445872 0.309202 0.123018
O O1 0.143805 0.500000 0.500000
O O2 0.144761 0.502400 0.247557
O O3 0.091877 0.594378 0.383231
O O4 0.096447 0.361182 0.361240
O O5 0.250000 0.919432 0.250000
O O6 0.250000 0.750000 0.424692
O O7 0.191608 0.879848 0.389359
O O8 0.244916 0.000000 0.500000
O O9 0.525845 0.084433 0.584839
O O10 0.381813 0.813616 0.127321
O O11 0.360012 0.000000 0.000000
O O12 0.058619 0.750000 0.250000
O O13 0.057263 0.725500 0.999643
O O14 0.457296 0.250000 0.250000
#
# Coordination Sequence:
#
# PCOD9326875 Si02
#       6
#    16  16   4  16  16  16
#     4   9  18  35  59  90 113 150 194 259 317 360
#     4  10  24  43  63  91 133 181 219 267 321 394
#     4  12  24  44  56  92 128 168 208 246 308 390
#     4  10  20  36  59  92 122 154 214 267 315 369
#     4   9  18  34  62  88 117 149 193 263 314 354
#     4  11  22  41  64  85 123 161 204 255 312 374
#
# _framework density 20.045043
#
# number of rings (size 3 to 8) (size 9 to 14) (size 15 to 20)
#    0.000    2.095    2.857    1.143    8.000    1.905 
#    3.429    0.000    0.000    0.000    0.000    0.000 
#    0.000    0.000    0.000    0.000    0.000    0.000 
#
# Total GULP energy -116934.943937 kJ/mol
# GULP energy per Si atom -5568.330664 kJ/mol
# Density = 1.999942 g / cm^3
# Si number density = 20.045043 Si / 1000 Ang^3
#
#
#
# Elastic Constant Matrix: (Units=GPa)
#
#
# Indices 1 2 3 4 5 6 
#
# 1 70.4649 29.2566 48.5130 0.0000 0.0000 0.0000
# 2 29.2566 68.3353 68.0073 0.0000 0.0000 0.0000
# 3 48.5130 68.0073 217.0244 0.0000 0.0000 0.0000
# 4 0.0000 0.0000 0.0000 32.9935 0.0000 0.0000
# 5 0.0000 0.0000 0.0000 0.0000 1.8267 0.0000
# 6 0.0000 0.0000 0.0000 0.0000 0.0000 38.7802
#
#
#
# Elastic Compliance Matrix: (Units=1/GPa)
#
#
# Indices 1 2 3 4 5 6 
#
# 1 0.018044 -0.005393 -0.002344 0.000000 0.000000 0.000000
# 2 -0.005393 0.022877 -0.005963 0.000000 0.000000 0.000000
# 3 -0.002344 -0.005963 0.007000 0.000000 0.000000 0.000000
# 4 0.000000 0.000000 0.000000 0.030309 0.000000 0.000000
# 5 0.000000 0.000000 0.000000 0.000000 0.547439 0.000000
# 6 0.000000 0.000000 0.000000 0.000000 0.000000 0.025786
#
#
# Mechanical properties :
#
#
# Convention : Reuss Voigt Hill
#
# Bulk Modulus (GPa) = 48.72822 71.93093 60.32957
# Shear Modulus (GPa) = 7.29186 28.72328 18.00757
#
# Velocity S-wave (km/s) = 1.90935 3.78952 3.00051
# Velocity P-wave (km/s) = 5.40583 7.42360 6.49357
#
# Compressibility (1/GPa) = 0.02052199
#
# Stress axis : x y z
#
# Youngs Moduli (GPa) = 55.41994 43.71134 142.85002
#
# Poissons Ratio (x) = 0.23573 0.33478
# Poissons Ratio (y) = 0.29888 0.85187
# Poissons Ratio (z) = 0.12988 0.26067
#
# Static dielectric constant tensor:
#      x y z
#    x 1.687090 0.000000 0.000000 
#    y 0.000000 1.756420 0.000000 
#    z 0.000000 0.000000 1.826600 
# 
# From -- ./inp_files/25219.got.cif
#   From: 2010.05.17/outbox.cif.g08.bks.cpg/sg22_13_cif.got.tgz:25219.got - 2010.06.03 23:40:54.
