data_PCOD9326851
_publ_section_title
;
Structure prediction by ZEFSAII (Michael W. Deem and Ramdas Pophale) SiO2 
 PCOD9326851
Probable space group: F 2 2 2
;
_chemical_formula_sum "Si O2"
_cell_formula_units_Z 104
_cell_length_a 20.056966
_cell_length_b 11.455425
_cell_length_c 22.594274
_cell_angle_alpha 90.000000
_cell_angle_beta 90.000000
_cell_angle_gamma 90.000000
_cell_volume 5191.284564
_symmetry_space_group_name_H-M "F 2 2 2"
_symmetry_group_IT_number 22
_symmetry_cell_setting 'orthorhombic'
loop_
_space_group_symop_operation_xyz
x,y,z
-x,-y,z
x,-y,-z
-x,y,-z
x,1/2+y,1/2+z
-x,1/2-y,1/2+z
x,1/2-y,1/2-z
-x,1/2+y,1/2-z
1/2+x,y,1/2+z
1/2-x,-y,1/2+z
1/2+x,-y,1/2-z
1/2-x,y,1/2-z
1/2+x,1/2+y,z
1/2-x,1/2-y,z
1/2+x,1/2-y,-z
1/2-x,1/2+y,-z
loop_
_atom_site_type_symbol
_atom_site_label
_atom_site_fract_x
_atom_site_fract_y
_atom_site_fract_z
Si Si1 0.635781 0.586580 0.944837
Si Si2 0.658523 0.154859 0.927790
Si Si3 0.250000 0.250000 0.904792
Si Si4 0.925319 0.479285 0.149345
Si Si5 0.791031 0.403853 0.617009
Si Si6 0.934184 0.307744 0.037899
Si Si7 0.789277 0.436623 0.193342
O O1 0.697061 0.677874 0.942602
O O2 0.651997 0.500630 0.890831
O O3 0.572502 0.670970 0.945763
O O4 0.635133 0.500000 0.000000
O O5 0.729597 0.088679 0.930044
O O6 0.676715 0.278606 0.896617
O O7 0.606489 0.088545 0.885791
O O8 0.624662 0.162998 0.991482
O O9 0.218226 0.346425 0.861141
O O10 0.930618 0.381580 0.097703
O O11 0.868685 0.452101 0.198059
O O12 0.000000 0.500000 0.171734
O O13 0.749416 0.442941 0.675004
O O14 0.000000 0.332039 0.000000
O O15 0.750000 0.391567 0.250000
#
# Coordination Sequence:
#
# PCOD9326851 Si02
#       7
#    16  16   8  16  16  16  16
#     4  11  22  34  53  88 127 166 202 247 309 384
#     4  10  20  36  56  86 124 164 202 250 315 388
#     4  10  21  38  60  94 128 162 211 274 316 380
#     4  11  22  39  61  90 127 161 216 265 313 394
#     4   9  21  37  55  86 121 155 207 272 320 368
#     4  12  23  36  55  85 128 178 207 238 310 398
#     4  10  21  40  68  91 118 162 221 287 335 364
#
# _framework density 20.033577000000001
#
# number of rings (size 3 to 8) (size 9 to 14) (size 15 to 20)
#    0.000    1.538    4.615    0.692    2.154    0.308 
#    0.000    6.154    0.000    7.385    0.000    0.000 
#    0.000    0.000    0.000    0.000    0.000    0.000 
#
# Total GULP energy -144872.453379 kJ/mol
# GULP energy per Si atom -5572.017438 kJ/mol
# Density = 1.998798 g / cm^3
# Si number density = 20.033577 Si / 1000 Ang^3
#
#
#
# Elastic Constant Matrix: (Units=GPa)
#
#
# Indices 1 2 3 4 5 6 
#
# 1 106.0122 27.7785 38.4845 0.0000 0.0000 0.0000
# 2 27.7785 86.7841 16.6196 0.0000 0.0000 0.0000
# 3 38.4845 16.6196 40.3781 0.0000 0.0000 0.0000
# 4 0.0000 0.0000 0.0000 7.5991 0.0000 0.0000
# 5 0.0000 0.0000 0.0000 0.0000 26.7151 0.0000
# 6 0.0000 0.0000 0.0000 0.0000 0.0000 25.7640
#
#
#
# Elastic Compliance Matrix: (Units=1/GPa)
#
#
# Indices 1 2 3 4 5 6 
#
# 1 0.014804 -0.002211 -0.013200 0.000000 0.000000 0.000000
# 2 -0.002211 0.012839 -0.003177 0.000000 0.000000 0.000000
# 3 -0.013200 -0.003177 0.038654 0.000000 0.000000 0.000000
# 4 0.000000 0.000000 0.000000 0.131595 0.000000 0.000000
# 5 0.000000 0.000000 0.000000 0.000000 0.037432 0.000000
# 6 0.000000 0.000000 0.000000 0.000000 0.000000 0.038814
#
#
# Mechanical properties :
#
#
# Convention : Reuss Voigt Hill
#
# Bulk Modulus (GPa) = 34.33890 44.32664 39.33277
# Shear Modulus (GPa) = 15.57529 22.03508 18.80518
#
# Velocity S-wave (km/s) = 2.79132 3.32008 3.06712
# Velocity P-wave (km/s) = 5.25038 6.07219 5.67618
#
# Compressibility (1/GPa) = 0.02912149
#
# Stress axis : x y z
#
# Youngs Moduli (GPa) = 67.54970 77.88787 25.87028
#
# Poissons Ratio (x) = 0.17219 0.34148
# Poissons Ratio (y) = 0.14934 0.08220
# Poissons Ratio (z) = 0.89164 0.24748
#
# Static dielectric constant tensor:
#      x y z
#    x 1.772520 0.000000 0.000000 
#    y 0.000000 1.786950 0.000000 
#    z 0.000000 0.000000 1.722650 
# 
# From -- ./inp_files/53604.got.cif
#   From: 2010.05.17/outbox.cif.g08.bks.cpg/sg22_27_cif.got.tgz:53604.got - 2010.06.03 23:40:54.
