data_PCOD9326810
_publ_section_title
;
Structure prediction by ZEFSAII (Michael W. Deem and Ramdas Pophale) SiO2 
 PCOD9326810
Probable space group: F 2 2 2
;
_chemical_formula_sum "Si O2"
_cell_formula_units_Z 104
_cell_length_a 25.157402
_cell_length_b 26.941906
_cell_length_c 7.674342
_cell_angle_alpha 90.000000
_cell_angle_beta 90.000000
_cell_angle_gamma 90.000000
_cell_volume 5201.579677
_symmetry_space_group_name_H-M "F 2 2 2"
_symmetry_group_IT_number 22
_symmetry_cell_setting 'orthorhombic'
loop_
_space_group_symop_operation_xyz
x,y,z
-x,-y,z
x,-y,-z
-x,y,-z
x,1/2+y,1/2+z
-x,1/2-y,1/2+z
x,1/2-y,1/2-z
-x,1/2+y,1/2-z
1/2+x,y,1/2+z
1/2-x,-y,1/2+z
1/2+x,-y,1/2-z
1/2-x,y,1/2-z
1/2+x,1/2+y,z
1/2-x,1/2-y,z
1/2+x,1/2-y,-z
1/2-x,1/2+y,-z
loop_
_atom_site_type_symbol
_atom_site_label
_atom_site_fract_x
_atom_site_fract_y
_atom_site_fract_z
Si Si1 0.376830 0.098365 0.225811
Si Si2 0.438514 0.501807 0.288404
Si Si3 0.060563 0.195153 0.288451
Si Si4 0.871406 0.601295 0.802642
Si Si5 0.939538 0.695181 0.793450
Si Si6 0.750000 0.589077 0.750000
Si Si7 0.785599 0.045827 0.908446
O O1 0.405100 0.149347 0.278483
O O2 0.322405 0.087841 0.326788
O O3 0.411420 0.049558 0.266996
O O4 0.370382 0.100199 0.015198
O O5 0.500000 0.500000 0.228534
O O6 0.440040 0.500000 0.500000
O O7 0.402614 0.550606 0.247420
O O8 0.082035 0.250000 0.250000
O O9 0.057885 0.191001 0.497376
O O10 0.999783 0.192530 0.222633
O O11 0.905143 0.648332 0.737610
O O12 0.810822 0.608948 0.739224
O O13 0.918223 0.750000 0.750000
O O14 0.747308 0.563849 0.560644
O O15 0.750000 0.026602 0.750000
O O16 0.815761 0.000000 0.000000
#
# Coordination Sequence:
#
# PCOD9326810 Si02
#       7
#    16  16  16  16  16   8  16
#     4  10  20  36  58  86 120 157 205 252 311 371
#     4   9  17  30  53  85 117 152 194 244 310 375
#     4   9  18  34  59  88 120 160 203 257 312 370
#     4  10  20  35  57  85 120 161 202 257 313 369
#     4   9  18  34  58  88 120 159 210 253 308 377
#     4  12  24  38  59  86 120 162 211 252 310 360
#     4  12  24  39  61  86 121 163 207 254 298 365
#
# _framework density 19.993925999999998
#
# number of rings (size 3 to 8) (size 9 to 14) (size 15 to 20)
#    0.000    2.000    2.308    1.846    0.000    4.923 
#    0.000    0.385    0.000    8.308    0.000    0.000 
#    0.000    0.000    0.000    0.000    0.000    0.000 
#
# Total GULP energy -144870.970690 kJ/mol
# GULP energy per Si atom -5571.960411 kJ/mol
# Density = 1.994842 g / cm^3
# Si number density = 19.993926 Si / 1000 Ang^3
#
#
#
# Elastic Constant Matrix: (Units=GPa)
#
#
# Indices 1 2 3 4 5 6 
#
# 1 108.9820 83.6419 18.0381 -0.0177 0.0227 0.0021
# 2 83.6419 178.8405 21.6441 -0.0166 0.0230 0.0106
# 3 18.0381 21.6441 69.1021 -0.0566 0.0563 0.0175
# 4 -0.0177 -0.0166 -0.0566 22.0026 0.0320 0.0109
# 5 0.0227 0.0230 0.0563 0.0320 20.0293 -0.0032
# 6 0.0021 0.0106 0.0175 0.0109 -0.0032 20.6324
#
#
#
# Elastic Compliance Matrix: (Units=1/GPa)
#
#
# Indices 1 2 3 4 5 6 
#
# 1 0.014509 -0.006577 -0.001727 0.000002 -0.000004 0.000003
# 2 -0.006577 0.008793 -0.001037 -0.000001 0.000000 -0.000003
# 3 -0.001727 -0.001037 0.015247 0.000037 -0.000040 -0.000012
# 4 0.000002 -0.000001 0.000037 0.045449 -0.000073 -0.000024
# 5 -0.000004 0.000000 -0.000040 -0.000073 0.049927 0.000008
# 6 0.000003 -0.000003 -0.000012 -0.000024 0.000008 0.048467
#
#
# Mechanical properties :
#
#
# Convention : Reuss Voigt Hill
#
# Bulk Modulus (GPa) = 50.33634 67.06362 58.69998
# Shear Modulus (GPa) = 24.07331 28.10623 26.08977
#
# Velocity S-wave (km/s) = 3.47368 3.75339 3.61624
# Velocity P-wave (km/s) = 6.42799 7.23869 6.84535
#
# Compressibility (1/GPa) = 0.01986636
#
# Stress axis : x y z
#
# Youngs Moduli (GPa) = 68.92119 113.72651 65.58553
#
# Poissons Ratio (x) = 0.74796 0.11330
# Poissons Ratio (y) = 0.45328 0.06804
# Poissons Ratio (z) = 0.11906 0.11798
#
# Static dielectric constant tensor:
#      x y z
#    x 1.734810 0.000000 0.000000 
#    y 0.000000 1.705410 -0.000010 
#    z 0.000000 -0.000010 1.758400 
# 
# From -- ./inp_files/14043.got.cif
#   From: 2010.05.17/outbox.cif.g08.bks.cpg/sg22_8_cif.got.tgz:14043.got - 2010.06.03 23:40:54.
