data_PCOD9326293
_publ_section_title
;
Structure prediction by ZEFSAII (Michael W. Deem and Ramdas Pophale) SiO2 
 PCOD9326293
Probable space group: F 2 2 2
;
_chemical_formula_sum "Si O2"
_cell_formula_units_Z 116
_cell_length_a 12.263852
_cell_length_b 25.516806
_cell_length_c 15.619585
_cell_angle_alpha 90.000000
_cell_angle_beta 90.000000
_cell_angle_gamma 90.000000
_cell_volume 4887.904403
_symmetry_space_group_name_H-M "F 2 2 2"
_symmetry_group_IT_number 22
_symmetry_cell_setting 'orthorhombic'
loop_
_space_group_symop_operation_xyz
x,y,z
-x,-y,z
x,-y,-z
-x,y,-z
x,1/2+y,1/2+z
-x,1/2-y,1/2+z
x,1/2-y,1/2-z
-x,1/2+y,1/2-z
1/2+x,y,1/2+z
1/2-x,-y,1/2+z
1/2+x,-y,1/2-z
1/2-x,y,1/2-z
1/2+x,1/2+y,z
1/2-x,1/2-y,z
1/2+x,1/2-y,-z
1/2-x,1/2+y,-z
loop_
_atom_site_type_symbol
_atom_site_label
_atom_site_fract_x
_atom_site_fract_y
_atom_site_fract_z
Si Si1 0.496649 0.628489 0.726450
Si Si2 0.815116 0.868377 0.026450
Si Si3 0.590877 0.680854 0.432737
Si Si4 0.434209 0.549718 0.409297
Si Si5 0.658934 0.553597 0.178787
Si Si6 0.750000 0.250000 0.750000
Si Si7 0.822131 0.962175 0.925389
Si Si8 0.939900 0.794955 0.140278
O O1 0.409928 0.649546 0.656269
O O2 0.572647 0.596981 0.659825
O O3 0.443117 0.586043 0.788117
O O4 0.520059 0.678448 0.789263
O O5 0.708110 0.831178 0.024183
O O6 0.796191 0.915178 0.095400
O O7 0.911455 0.834361 0.064901
O O8 0.846045 0.901354 0.942298
O O9 0.500000 0.663943 0.500000
O O10 0.548536 0.738157 0.402345
O O11 0.500000 0.500000 0.371210
O O12 0.500000 0.558697 0.500000
O O13 0.309553 0.535349 0.427062
O O14 0.750000 0.556509 0.250000
O O15 0.639228 0.492885 0.157851
O O16 0.827025 0.214042 0.807489
O O17 0.868086 0.000000 0.000000
#
# Coordination Sequence:
#
# PCOD9326293 Si02
#       8
#    16  16  16  16  16   4  16  16
#     4  11  20  33  53  81 115 149 184 233 285 332
#     4  10  19  33  53  80 111 146 184 230 281 330
#     4  12  21  32  54  84 115 145 182 234 296 337
#     4  11  20  31  50  80 122 153 179 228 286 343
#     4  10  19  30  52  79 116 144 186 226 274 328
#     4  12  16  32  56  84 120 128 184 248 280 320
#     4  10  19  33  50  81 115 150 183 224 278 340
#     4  11  21  34  56  85 112 144 189 241 283 332
#
# _framework density 23.732051999999999
#
# number of rings (size 3 to 8) (size 9 to 14) (size 15 to 20)
#    0.000    1.241    5.517    2.897    1.931    0.000 
#    0.000    0.000    6.069    0.000    0.000    0.000 
#    0.000    0.000    0.000    0.000    0.000    0.000 
#
# Total GULP energy -161725.140426 kJ/mol
# GULP energy per Si atom -5576.728980 kJ/mol
# Density = 2.367804 g / cm^3
# Si number density = 23.732052 Si / 1000 Ang^3
#
#
#
# Elastic Constant Matrix: (Units=GPa)
#
#
# Indices 1 2 3 4 5 6 
#
# 1 46.5431 14.5769 32.6019 0.0000 0.0000 0.0000
# 2 14.5769 137.5536 51.6127 0.0000 0.0000 0.0000
# 3 32.6019 51.6127 66.5373 0.0000 0.0000 0.0000
# 4 0.0000 0.0000 0.0000 63.9074 0.0000 0.0000
# 5 0.0000 0.0000 0.0000 0.0000 23.1452 0.0000
# 6 0.0000 0.0000 0.0000 0.0000 0.0000 17.6571
#
#
#
# Elastic Compliance Matrix: (Units=1/GPa)
#
#
# Indices 1 2 3 4 5 6 
#
# 1 0.034023 0.003737 -0.019569 0.000000 0.000000 0.000000
# 2 0.003737 0.010665 -0.010104 0.000000 0.000000 0.000000
# 3 -0.019569 -0.010104 0.032456 0.000000 0.000000 0.000000
# 4 0.000000 0.000000 0.000000 0.015648 0.000000 0.000000
# 5 0.000000 0.000000 0.000000 0.000000 0.043206 0.000000
# 6 0.000000 0.000000 0.000000 0.000000 0.000000 0.056635
#
#
# Mechanical properties :
#
#
# Convention : Reuss Voigt Hill
#
# Bulk Modulus (GPa) = 39.57123 49.80189 44.68656
# Shear Modulus (GPa) = 19.76854 31.06476 25.41665
#
# Velocity S-wave (km/s) = 2.88929 3.62191 3.27614
# Velocity P-wave (km/s) = 5.27646 6.20658 5.76032
#
# Compressibility (1/GPa) = 0.02527088
#
# Stress axis : x y z
#
# Youngs Moduli (GPa) = 29.39215 93.76385 30.81142
#
# Poissons Ratio (x) = -0.35043 0.60296
# Poissons Ratio (y) = -0.10985 0.31132
# Poissons Ratio (z) = 0.57519 0.94740
#
# Static dielectric constant tensor:
#      x y z
#    x 1.871590 0.000000 0.000000 
#    y 0.000000 2.040930 0.000000 
#    z 0.000000 0.000000 2.025980 
# 
# From -- ./inp_files/30980.got.cif
#   From: 2010.05.17/outbox.cif.g08.bks.cpg/sg22_16_cif.got.tgz:30980.got - 2010.06.03 23:40:54.
