data_PCOD9326707
_publ_section_title
;
Structure prediction by ZEFSAII (Michael W. Deem and Ramdas Pophale) SiO2 
 PCOD9326707
Probable space group: F 2 2 2
;
_chemical_formula_sum "Si O2"
_cell_formula_units_Z 108
_cell_length_a 28.229577
_cell_length_b 15.231365
_cell_length_c 11.044776
_cell_angle_alpha 90.000000
_cell_angle_beta 90.000000
_cell_angle_gamma 90.000000
_cell_volume 4748.977462
_symmetry_space_group_name_H-M "F 2 2 2"
_symmetry_group_IT_number 22
_symmetry_cell_setting 'orthorhombic'
loop_
_space_group_symop_operation_xyz
x,y,z
-x,-y,z
x,-y,-z
-x,y,-z
x,1/2+y,1/2+z
-x,1/2-y,1/2+z
x,1/2-y,1/2-z
-x,1/2+y,1/2-z
1/2+x,y,1/2+z
1/2-x,-y,1/2+z
1/2+x,-y,1/2-z
1/2-x,y,1/2-z
1/2+x,1/2+y,z
1/2-x,1/2-y,z
1/2+x,1/2-y,-z
1/2-x,1/2+y,-z
loop_
_atom_site_type_symbol
_atom_site_label
_atom_site_fract_x
_atom_site_fract_y
_atom_site_fract_z
Si Si1 0.299173 0.392675 0.997965
Si Si2 0.500000 0.289745 0.500000
Si Si3 0.646901 0.591219 0.759010
Si Si4 0.848815 0.117304 0.755599
Si Si5 0.955438 0.139304 0.834980
Si Si6 0.311073 0.392677 0.505330
Si Si7 0.000000 0.500000 0.500000
Si Si8 0.548485 0.650827 0.702664
O O1 0.319402 0.355775 0.124530
O O2 0.244208 0.369208 0.985648
O O3 0.301379 0.500000 0.000000
O O4 0.329422 0.368083 0.878698
O O5 0.473939 0.226950 0.402636
O O6 0.457471 0.344108 0.559329
O O7 0.658203 0.488170 0.755766
O O8 0.663752 0.632659 0.631526
O O9 0.590322 0.596551 0.759010
O O10 0.903304 0.141780 0.781587
O O11 0.832240 0.143824 0.620831
O O12 0.996815 0.118871 0.740322
O O13 0.963635 0.062918 0.930782
O O14 0.314253 0.500000 0.500000
O O15 0.556646 0.750000 0.750000
#
# Coordination Sequence:
#
# PCOD9326707 Si02
#       8
#    16   8  16  16  16  16   4  16
#     4   9  18  31  54  81 112 145 180 220 274 342
#     4   9  22  39  56  73 112 153 200 236 270 335
#     4  10  20  33  57  83 112 147 182 227 282 338
#     4  10  20  31  56  86 115 144 178 224 290 339
#     4  10  21  34  56  83 111 145 189 235 286 335
#     4   9  18  34  50  81 118 146 174 218 282 349
#     4  10  20  32  56  78 124 138 180 250 290 322
#     4  10  22  38  54  78 107 147 197 231 275 326
#
# _framework density 22.741738999999999
#
# number of rings (size 3 to 8) (size 9 to 14) (size 15 to 20)
#    0.000    2.370    0.000    1.778   11.407    3.556 
#    0.000    0.000    0.000    1.778    0.000    0.000 
#    0.000    0.000    0.000    0.000    0.000    0.000 
#
# Total GULP energy -150700.885496 kJ/mol
# GULP energy per Si atom -5581.514278 kJ/mol
# Density = 2.268998 g / cm^3
# Si number density = 22.741739 Si / 1000 Ang^3
#
#
#
# Elastic Constant Matrix: (Units=GPa)
#
#
# Indices 1 2 3 4 5 6 
#
# 1 123.5900 -14.6738 61.8642 0.0000 0.0000 0.0000
# 2 -14.6738 35.4980 6.9592 0.0000 0.0000 0.0000
# 3 61.8642 6.9592 143.9991 0.0000 0.0000 0.0000
# 4 0.0000 0.0000 0.0000 64.0429 0.0000 0.0000
# 5 0.0000 0.0000 0.0000 0.0000 38.4691 0.0000
# 6 0.0000 0.0000 0.0000 0.0000 0.0000 -27.2604
#
#
#
# Elastic Compliance Matrix: (Units=1/GPa)
#
#
# Indices 1 2 3 4 5 6 
#
# 1 0.011346 0.005700 -0.005150 0.000000 0.000000 0.000000
# 2 0.005700 0.031303 -0.003961 0.000000 0.000000 0.000000
# 3 -0.005150 -0.003961 0.009348 0.000000 0.000000 0.000000
# 4 0.000000 0.000000 0.000000 0.015615 0.000000 0.000000
# 5 0.000000 0.000000 0.000000 0.000000 0.025995 0.000000
# 6 0.000000 0.000000 0.000000 0.000000 0.000000 -0.036683
#
#
# Mechanical properties :
#
#
# Convention : Reuss Voigt Hill
#
# Bulk Modulus (GPa) = 22.13657 45.70957 33.92307
# Shear Modulus (GPa) = 63.44791 31.64615 47.54703
#
# Velocity S-wave (km/s) = 5.28771 3.73439 4.57742
# Velocity P-wave (km/s) = 6.85820 6.22393 6.54875
#
# Compressibility (1/GPa) = 0.04517411
#
# Stress axis : x y z
#
# Youngs Moduli (GPa) = 88.13878 31.94555 106.97074
#
# Poissons Ratio (x) = -0.18208 0.55087
# Poissons Ratio (y) = -0.50235 0.42376
# Poissons Ratio (z) = 0.45389 0.12655
#
# Static dielectric constant tensor:
#      x y z
#    x 1.789770 0.000000 0.000000 
#    y 0.000000 1.899880 0.000000 
#    z 0.000000 0.000000 2.042160 
# 
# From -- ./inp_files/23982.got.cif
#   From: 2010.05.17/outbox.cif.g08.bks.cpg/sg22_12_cif.got.tgz:23982.got - 2010.06.03 23:40:54.
