data_PCOD9326500
_publ_section_title
;
Structure prediction by ZEFSAII (Michael W. Deem and Ramdas Pophale) SiO2 
 PCOD9326500
Probable space group: F 2 2 2
;
_chemical_formula_sum "Si O2"
_cell_formula_units_Z 96
_cell_length_a 20.745700
_cell_length_b 16.363246
_cell_length_c 14.199643
_cell_angle_alpha 90.000000
_cell_angle_beta 90.000000
_cell_angle_gamma 90.000000
_cell_volume 4820.310104
_symmetry_space_group_name_H-M "F 2 2 2"
_symmetry_group_IT_number 22
_symmetry_cell_setting 'orthorhombic'
loop_
_space_group_symop_operation_xyz
x,y,z
-x,-y,z
x,-y,-z
-x,y,-z
x,1/2+y,1/2+z
-x,1/2-y,1/2+z
x,1/2-y,1/2-z
-x,1/2+y,1/2-z
1/2+x,y,1/2+z
1/2-x,-y,1/2+z
1/2+x,-y,1/2-z
1/2-x,y,1/2-z
1/2+x,1/2+y,z
1/2-x,1/2-y,z
1/2+x,1/2-y,-z
1/2-x,1/2+y,-z
loop_
_atom_site_type_symbol
_atom_site_label
_atom_site_fract_x
_atom_site_fract_y
_atom_site_fract_z
Si Si1 0.854838 0.438276 0.426723
Si Si2 0.433196 0.048190 0.285374
Si Si3 0.729425 0.129496 0.146038
Si Si4 0.351848 0.531424 0.602582
Si Si5 0.815721 0.204684 0.531857
Si Si6 0.936000 0.822221 0.052555
O O1 0.823347 0.500000 0.500000
O O2 0.882352 0.490960 0.341500
O O3 0.798807 0.376891 0.402723
O O4 0.912024 0.393372 0.481204
O O5 0.405574 0.053724 0.180020
O O6 0.442551 0.131290 0.346731
O O7 0.500000 0.000000 0.284751
O O8 0.750000 0.153790 0.250000
O O9 0.694333 0.040678 0.142642
O O10 0.686388 0.187527 0.080925
O O11 0.376364 0.500000 0.500000
O O12 0.315662 0.615765 0.579926
O O13 0.750000 0.250000 0.558896
O O14 0.879215 0.255705 0.557990
O O15 0.000000 0.789476 0.000000
#
# Coordination Sequence:
#
# PCOD9326500 Si02
#       6
#    16  16  16  16  16  16
#     4  10  19  35  65  98 124 158 215 276 318 386
#     4  11  22  40  69  97 123 171 228 271 328 398
#     4  11  21  40  68  96 125 172 224 268 326 400
#     4  10  24  43  65  96 129 174 223 277 332 393
#     4  11  24  42  64  95 137 173 213 276 343 391
#     4  11  23  42  66  95 133 172 214 276 338 397
#
# _framework density 19.915731000000001
#
# number of rings (size 3 to 8) (size 9 to 14) (size 15 to 20)
#    0.000    1.333    5.000    1.500    2.333    1.333 
#    6.000    0.833    3.667    0.000    0.000    0.000 
#    0.000    0.000    0.000    0.000    0.000    0.000 
#
# Total GULP energy -133887.637538 kJ/mol
# GULP energy per Si atom -5578.651564 kJ/mol
# Density = 1.987040 g / cm^3
# Si number density = 19.915731 Si / 1000 Ang^3
#
#
#
# Elastic Constant Matrix: (Units=GPa)
#
#
# Indices 1 2 3 4 5 6 
#
# 1 103.5664 45.8520 45.3458 0.0000 0.0000 0.0000
# 2 45.8520 113.7950 34.9806 0.0000 0.0000 0.0000
# 3 45.3458 34.9806 121.0111 0.0000 0.0000 0.0000
# 4 0.0000 0.0000 0.0000 9.6156 0.0000 0.0000
# 5 0.0000 0.0000 0.0000 0.0000 22.7244 0.0000
# 6 0.0000 0.0000 0.0000 0.0000 0.0000 18.4901
#
#
#
# Elastic Compliance Matrix: (Units=1/GPa)
#
#
# Indices 1 2 3 4 5 6 
#
# 1 0.013118 -0.004143 -0.003718 0.000000 0.000000 0.000000
# 2 -0.004143 0.010953 -0.001614 0.000000 0.000000 0.000000
# 3 -0.003718 -0.001614 0.010123 0.000000 0.000000 0.000000
# 4 0.000000 0.000000 0.000000 0.103998 0.000000 0.000000
# 5 0.000000 0.000000 0.000000 0.000000 0.044006 0.000000
# 6 0.000000 0.000000 0.000000 0.000000 0.000000 0.054083
#
#
# Mechanical properties :
#
#
# Convention : Reuss Voigt Hill
#
# Bulk Modulus (GPa) = 65.59455 65.63659 65.61557
# Shear Modulus (GPa) = 19.20782 24.31231 21.76007
#
# Velocity S-wave (km/s) = 3.10894 3.49773 3.30905
# Velocity P-wave (km/s) = 6.77457 7.02430 6.90057
#
# Compressibility (1/GPa) = 0.01524517
#
# Stress axis : x y z
#
# Youngs Moduli (GPa) = 76.23352 91.29890 98.78078
#
# Poissons Ratio (x) = 0.37822 0.36726
# Poissons Ratio (y) = 0.31581 0.15942
# Poissons Ratio (z) = 0.28343 0.14734
#
# Static dielectric constant tensor:
#      x y z
#    x 1.687390 0.000000 0.000000 
#    y 0.000000 1.729830 0.000000 
#    z 0.000000 0.000000 1.834130 
# 
# From -- ./inp_files/29371.got.cif
#   From: 2010.05.17/outbox.cif.g08.bks.cpg/sg22_15_cif.got.tgz:29371.got - 2010.06.03 23:40:54.
