data_PCOD9326160
_publ_section_title
;
Structure prediction by ZEFSAII (Michael W. Deem and Ramdas Pophale) SiO2 
 PCOD9326160
Probable space group: F 2 2 2
;
_chemical_formula_sum "Si O2"
_cell_formula_units_Z 96
_cell_length_a 16.114613
_cell_length_b 19.063081
_cell_length_c 14.159039
_cell_angle_alpha 90.000000
_cell_angle_beta 90.000000
_cell_angle_gamma 90.000000
_cell_volume 4349.574275
_symmetry_space_group_name_H-M "F 2 2 2"
_symmetry_group_IT_number 22
_symmetry_cell_setting 'orthorhombic'
loop_
_space_group_symop_operation_xyz
x,y,z
-x,-y,z
x,-y,-z
-x,y,-z
x,1/2+y,1/2+z
-x,1/2-y,1/2+z
x,1/2-y,1/2-z
-x,1/2+y,1/2-z
1/2+x,y,1/2+z
1/2-x,-y,1/2+z
1/2+x,-y,1/2-z
1/2-x,y,1/2-z
1/2+x,1/2+y,z
1/2-x,1/2-y,z
1/2+x,1/2-y,-z
1/2-x,1/2+y,-z
loop_
_atom_site_type_symbol
_atom_site_label
_atom_site_fract_x
_atom_site_fract_y
_atom_site_fract_z
Si Si1 0.323672 0.933218 0.668509
Si Si2 0.269938 0.556271 0.361629
Si Si3 0.665615 0.782085 0.401479
Si Si4 0.673633 0.208212 0.105220
Si Si5 0.013010 0.800873 0.611224
Si Si6 0.578036 0.452855 0.657689
O O1 0.250000 0.923024 0.750000
O O2 0.326313 0.865120 0.605050
O O3 0.405201 0.941440 0.731323
O O4 0.306469 0.005630 0.614456
O O5 0.250000 0.573131 0.250000
O O6 0.293919 0.628729 0.409651
O O7 0.345450 0.501208 0.375391
O O8 0.750000 0.750000 0.358450
O O9 0.663233 0.750496 0.507053
O O10 0.579546 0.756655 0.355414
O O11 0.750000 0.250000 0.152310
O O12 0.581414 0.201848 0.151021
O O13 0.059673 0.875602 0.619528
O O14 0.000000 0.790210 0.500000
O O15 0.500000 0.500000 0.637149
#
# Coordination Sequence:
#
# PCOD9326160 Si02
#       6
#    16  16  16  16  16  16
#     4   9  20  36  60  87 116 152 203 259 304 373
#     4   9  19  38  60  87 120 155 198 249 304 368
#     4  10  20  38  58  87 120 156 203 254 318 361
#     4  10  21  39  58  84 126 166 198 245 309 377
#     4  10  21  36  56  90 121 157 208 260 308 373
#     4  10  18  34  57  85 116 152 198 254 317 356
#
# _framework density 22.071126
#
# number of rings (size 3 to 8) (size 9 to 14) (size 15 to 20)
#    0.000    2.667    1.667    2.000    0.000    3.000 
#    6.000   10.000    0.000    0.000    0.000    0.000 
#    0.000    0.000    0.000    0.000    0.000    0.000 
#
# Total GULP energy -133644.169754 kJ/mol
# GULP energy per Si atom -5568.507073 kJ/mol
# Density = 2.202089 g / cm^3
# Si number density = 22.071126 Si / 1000 Ang^3
#
#
#
# Elastic Constant Matrix: (Units=GPa)
#
#
# Indices 1 2 3 4 5 6 
#
# 1 101.9315 20.0457 -4.8277 0.0000 0.0000 0.0000
# 2 20.0457 156.3312 14.2637 0.0000 0.0000 0.0000
# 3 -4.8277 14.2637 62.7784 0.0000 0.0000 0.0000
# 4 0.0000 0.0000 0.0000 44.9453 0.0000 0.0000
# 5 0.0000 0.0000 0.0000 0.0000 6.6737 0.0000
# 6 0.0000 0.0000 0.0000 0.0000 0.0000 29.5185
#
#
#
# Elastic Compliance Matrix: (Units=1/GPa)
#
#
# Indices 1 2 3 4 5 6 
#
# 1 0.010138 -0.001400 0.001098 0.000000 0.000000 0.000000
# 2 -0.001400 0.006725 -0.001636 0.000000 0.000000 0.000000
# 3 0.001098 -0.001636 0.016385 0.000000 0.000000 0.000000
# 4 0.000000 0.000000 0.000000 0.022249 0.000000 0.000000
# 5 0.000000 0.000000 0.000000 0.000000 0.149843 0.000000
# 6 0.000000 0.000000 0.000000 0.000000 0.000000 0.033877
#
#
# Mechanical properties :
#
#
# Convention : Reuss Voigt Hill
#
# Bulk Modulus (GPa) = 34.04583 42.22274 38.13428
# Shear Modulus (GPa) = 19.77186 35.66479 27.71832
#
# Velocity S-wave (km/s) = 2.99628 4.02419 3.54766
# Velocity P-wave (km/s) = 5.23729 6.38467 5.83923
#
# Compressibility (1/GPa) = 0.02937218
#
# Stress axis : x y z
#
# Youngs Moduli (GPa) = 98.64038 148.68900 61.03100
#
# Poissons Ratio (x) = 0.20818 -0.06699
# Poissons Ratio (y) = 0.13811 0.09983
# Poissons Ratio (z) = -0.10828 0.24322
#
# Static dielectric constant tensor:
#      x y z
#    x 1.860640 0.000000 0.000000 
#    y 0.000000 1.784130 0.000000 
#    z 0.000000 0.000000 1.895190 
# 
# From -- ./inp_files/38030.got.cif
#   From: 2010.05.17/outbox.cif.g08.bks.cpg/sg22_20_cif.got.tgz:38030.got - 2010.06.03 23:40:54.
