data_PCOD9326005
_publ_section_title
;
Structure prediction by ZEFSAII (Michael W. Deem and Ramdas Pophale) SiO2 
 PCOD9326005
Probable space group: F 2 2 2
;
_chemical_formula_sum "Si O2"
_cell_formula_units_Z 88
_cell_length_a 17.107336
_cell_length_b 28.963987
_cell_length_c 9.108952
_cell_angle_alpha 90.000000
_cell_angle_beta 90.000000
_cell_angle_gamma 90.000000
_cell_volume 4513.455269
_symmetry_space_group_name_H-M "F 2 2 2"
_symmetry_group_IT_number 22
_symmetry_cell_setting 'orthorhombic'
loop_
_space_group_symop_operation_xyz
x,y,z
-x,-y,z
x,-y,-z
-x,y,-z
x,1/2+y,1/2+z
-x,1/2-y,1/2+z
x,1/2-y,1/2-z
-x,1/2+y,1/2-z
1/2+x,y,1/2+z
1/2-x,-y,1/2+z
1/2+x,-y,1/2-z
1/2-x,y,1/2-z
1/2+x,1/2+y,z
1/2-x,1/2-y,z
1/2+x,1/2-y,-z
1/2-x,1/2+y,-z
loop_
_atom_site_type_symbol
_atom_site_label
_atom_site_fract_x
_atom_site_fract_y
_atom_site_fract_z
Si Si1 0.589104 0.070973 0.955741
Si Si2 0.421117 0.238484 0.580306
Si Si3 0.676707 0.568850 0.165969
Si Si4 0.670851 0.837146 0.434673
Si Si5 0.716311 0.500000 0.500000
Si Si6 0.855072 0.673638 0.093766
O O1 0.610700 0.058562 0.785679
O O2 0.606016 0.125731 0.961124
O O3 0.500000 0.060841 0.000000
O O4 0.655078 0.040992 0.042530
O O5 0.500000 0.224518 0.500000
O O6 0.432222 0.250000 0.750000
O O7 0.364721 0.195198 0.557742
O O8 0.390189 0.282884 0.490629
O O9 0.750000 0.593541 0.250000
O O10 0.652524 0.608107 0.051403
O O11 0.721597 0.524753 0.105875
O O12 0.763109 0.828360 0.438268
O O13 0.638039 0.823435 0.271830
#
# Coordination Sequence:
#
# PCOD9326005 Si02
#       6
#    16  16  16  16   8  16
#     4  10  19  33  60  96 126 156 206 255 304 369
#     4  12  26  40  56  86 125 162 205 262 314 366
#     4   9  17  36  61  91 121 160 204 250 304 376
#     4  10  18  38  65  87 119 165 204 241 303 384
#     4  10  17  34  60  92 123 158 202 250 303 370
#     4  10  19  38  64  93 120 162 205 246 307 380
#
# _framework density 19.497257999999999
#
# number of rings (size 3 to 8) (size 9 to 14) (size 15 to 20)
#    0.000    1.818    5.455    3.000    0.000    4.364 
#    0.000    5.455    0.000    6.545    0.000    0.000 
#    0.000    0.000    0.000    0.000    0.000    0.000 
#
# Total GULP energy -122506.348790 kJ/mol
# GULP energy per Si atom -5568.470400 kJ/mol
# Density = 1.945288 g / cm^3
# Si number density = 19.497258 Si / 1000 Ang^3
#
#
#
# Elastic Constant Matrix: (Units=GPa)
#
#
# Indices 1 2 3 4 5 6 
#
# 1 95.3629 11.5333 25.5870 0.0000 0.0000 0.0000
# 2 11.5333 58.1794 1.3825 0.0000 0.0000 0.0000
# 3 25.5870 1.3825 36.5131 0.0000 -0.0001 0.0000
# 4 0.0000 0.0000 0.0000 25.2370 0.0000 0.0000
# 5 0.0000 0.0000 -0.0001 0.0000 33.3046 0.0000
# 6 0.0000 0.0000 0.0000 0.0000 0.0000 -16.4564
#
#
#
# Elastic Compliance Matrix: (Units=1/GPa)
#
#
# Indices 1 2 3 4 5 6 
#
# 1 0.013243 -0.002407 -0.009189 0.000000 0.000000 0.000000
# 2 -0.002407 0.017641 0.001019 0.000000 0.000000 0.000000
# 3 -0.009189 0.001019 0.033788 0.000000 0.000000 0.000000
# 4 0.000000 0.000000 0.000000 0.039624 0.000000 0.000000
# 5 0.000000 0.000000 0.000000 0.000000 0.030026 0.000000
# 6 0.000000 0.000000 0.000000 0.000000 0.000000 -0.060767
#
#
# Mechanical properties :
#
#
# Convention : Reuss Voigt Hill
#
# Bulk Modulus (GPa) = 22.97904 29.67344 26.32624
# Shear Modulus (GPa) = 45.78077 18.52054 32.15066
#
# Velocity S-wave (km/s) = 4.85094 3.08540 4.06517
# Velocity P-wave (km/s) = 6.57167 5.28632 5.96373
#
# Compressibility (1/GPa) = 0.04351791
#
# Stress axis : x y z
#
# Youngs Moduli (GPa) = 75.51235 56.68563 29.59613
#
# Poissons Ratio (x) = 0.13644 0.27196
# Poissons Ratio (y) = 0.18175 -0.03015
# Poissons Ratio (z) = 0.69388 -0.05775
#
# Static dielectric constant tensor:
#      x y z
#    x 1.697090 0.000000 0.000000 
#    y 0.000000 1.743520 0.000000 
#    z 0.000000 0.000000 1.745930 
# 
# From -- ./inp_files/11806.got.cif
#   From: 2010.05.17/outbox.cif.g08.bks.cpg/sg22_6_cif.got.tgz:11806.got - 2010.06.03 23:40:54.
