data_PCOD9326722
_publ_section_title
;
Structure prediction by ZEFSAII (Michael W. Deem and Ramdas Pophale) SiO2 
 PCOD9326722
Probable space group: F 2 2 2
;
_chemical_formula_sum "Si O2"
_cell_formula_units_Z 100
_cell_length_a 24.907739
_cell_length_b 14.564798
_cell_length_c 14.529699
_cell_angle_alpha 90.000000
_cell_angle_beta 90.000000
_cell_angle_gamma 90.000000
_cell_volume 5271.028804
_symmetry_space_group_name_H-M "F 2 2 2"
_symmetry_group_IT_number 22
_symmetry_cell_setting 'orthorhombic'
loop_
_space_group_symop_operation_xyz
x,y,z
-x,-y,z
x,-y,-z
-x,y,-z
x,1/2+y,1/2+z
-x,1/2-y,1/2+z
x,1/2-y,1/2-z
-x,1/2+y,1/2-z
1/2+x,y,1/2+z
1/2-x,-y,1/2+z
1/2+x,-y,1/2-z
1/2-x,y,1/2-z
1/2+x,1/2+y,z
1/2-x,1/2-y,z
1/2+x,1/2-y,-z
1/2-x,1/2+y,-z
loop_
_atom_site_type_symbol
_atom_site_label
_atom_site_fract_x
_atom_site_fract_y
_atom_site_fract_z
Si Si1 0.876925 0.750000 0.750000
Si Si2 0.952056 0.134350 0.380882
Si Si3 0.677062 0.500000 0.000000
Si Si4 0.087507 0.589409 0.627663
Si Si5 0.390839 0.718896 0.547948
Si Si6 0.500000 0.500000 0.000000
Si Si7 0.196400 0.307866 0.583647
Si Si8 0.429305 0.929345 0.841148
O O1 0.916224 0.820374 0.698480
O O2 0.839696 0.697144 0.676082
O O3 0.935552 0.190943 0.471619
O O4 0.014781 0.126530 0.355957
O O5 0.934953 0.028049 0.388172
O O6 0.638328 0.540649 0.079716
O O7 0.705853 0.411311 0.045458
O O8 0.092815 0.698025 0.614221
O O9 0.079957 0.561050 0.732745
O O10 0.037101 0.559697 0.566169
O O11 0.339637 0.754371 0.491804
O O12 0.383390 0.629460 0.609990
O O13 0.250000 0.250000 0.599112
#
# Coordination Sequence:
#
# PCOD9326722 Si02
#       8
#     8  16   8  16  16   4  16  16
#     4  10  21  38  62  92 118 144 205 256 290 346
#     4  10  22  35  55  82 125 157 189 237 292 343
#     4   9  20  41  60  84 120 146 189 252 309 348
#     4  10  21  34  56  82 116 155 193 240 283 342
#     4  10  22  36  54  81 118 154 192 239 286 353
#     4  10  20  32  52  84 108 144 204 228 278 340
#     4  10  21  41  64  87 113 152 198 253 309 348
#     4  11  21  36  54  85 120 163 196 224 283 358
#
# _framework density 18.971629
#
# number of rings (size 3 to 8) (size 9 to 14) (size 15 to 20)
#    0.000    1.920    0.000    3.600    4.480    5.120 
#    5.760    0.000    0.000    6.720    0.000    0.000 
#    0.000    0.000    0.000    0.000    0.000    0.000 
#
# Total GULP energy -139514.916545 kJ/mol
# GULP energy per Si atom -5580.596662 kJ/mol
# Density = 1.892845 g / cm^3
# Si number density = 18.971629 Si / 1000 Ang^3
#
#
#
# Elastic Constant Matrix: (Units=GPa)
#
#
# Indices 1 2 3 4 5 6 
#
# 1 44.9248 28.5074 7.8756 0.0000 0.0000 0.0000
# 2 28.5074 98.1795 19.6301 0.0000 0.0000 0.0000
# 3 7.8756 19.6301 74.5828 0.0000 0.0000 0.0000
# 4 0.0000 0.0000 0.0000 29.9357 0.0000 0.0000
# 5 0.0000 0.0000 0.0000 0.0000 5.3711 0.0000
# 6 0.0000 0.0000 0.0000 0.0000 0.0000 29.0818
#
#
#
# Elastic Compliance Matrix: (Units=1/GPa)
#
#
# Indices 1 2 3 4 5 6 
#
# 1 0.027337 -0.007769 -0.000842 0.000000 0.000000 0.000000
# 2 -0.007769 0.012959 -0.002590 0.000000 0.000000 0.000000
# 3 -0.000842 -0.002590 0.014179 0.000000 0.000000 0.000000
# 4 0.000000 0.000000 0.000000 0.033405 0.000000 0.000000
# 5 0.000000 0.000000 0.000000 0.000000 0.186182 0.000000
# 6 0.000000 0.000000 0.000000 0.000000 0.000000 0.034386
#
#
# Mechanical properties :
#
#
# Convention : Reuss Voigt Hill
#
# Bulk Modulus (GPa) = 31.18001 36.63481 33.90741
# Shear Modulus (GPa) = 14.63952 23.65599 19.14775
#
# Velocity S-wave (km/s) = 2.78088 3.53500 3.18037
# Velocity P-wave (km/s) = 5.17511 6.00115 5.60338
#
# Compressibility (1/GPa) = 0.03207183
#
# Stress axis : x y z
#
# Youngs Moduli (GPa) = 36.58045 77.16497 70.52872
#
# Poissons Ratio (x) = 0.59951 0.05937
# Poissons Ratio (y) = 0.28420 0.18270
# Poissons Ratio (z) = 0.03079 0.19989
#
# Static dielectric constant tensor:
#      x y z
#    x 1.645560 0.000000 0.000000 
#    y 0.000000 1.689130 0.000000 
#    z 0.000000 0.000000 1.659970 
# 
# From -- ./inp_files/32501.got.cif
#   From: 2010.05.17/outbox.cif.g08.bks.cpg/sg22_17_cif.got.tgz:32501.got - 2010.06.03 23:40:54.
