data_PCOD9326040
_publ_section_title
;
Structure prediction by ZEFSAII (Michael W. Deem and Ramdas Pophale) SiO2 
 PCOD9326040
Probable space group: F 2 2 2
;
_chemical_formula_sum "Si O2"
_cell_formula_units_Z 84
_cell_length_a 12.847207
_cell_length_b 17.765255
_cell_length_c 20.834404
_cell_angle_alpha 90.000000
_cell_angle_beta 90.000000
_cell_angle_gamma 90.000000
_cell_volume 4755.117454
_symmetry_space_group_name_H-M "F 2 2 2"
_symmetry_group_IT_number 22
_symmetry_cell_setting 'orthorhombic'
loop_
_space_group_symop_operation_xyz
x,y,z
-x,-y,z
x,-y,-z
-x,y,-z
x,1/2+y,1/2+z
-x,1/2-y,1/2+z
x,1/2-y,1/2-z
-x,1/2+y,1/2-z
1/2+x,y,1/2+z
1/2-x,-y,1/2+z
1/2+x,-y,1/2-z
1/2-x,y,1/2-z
1/2+x,1/2+y,z
1/2-x,1/2-y,z
1/2+x,1/2-y,-z
1/2-x,1/2+y,-z
loop_
_atom_site_type_symbol
_atom_site_label
_atom_site_fract_x
_atom_site_fract_y
_atom_site_fract_z
Si Si1 0.700108 0.668765 0.058281
Si Si2 0.500000 0.500000 0.500000
Si Si3 0.140133 0.867453 0.446536
Si Si4 0.813662 0.915177 0.690014
Si Si5 0.500000 0.000000 0.745732
Si Si6 0.195154 0.928106 0.814398
Si Si7 0.500000 0.264156 0.000000
O O1 0.750000 0.750000 0.071520
O O2 0.706171 0.620356 0.122350
O O3 0.581805 0.684567 0.037647
O O4 0.768210 0.635004 0.999605
O O5 0.571835 0.442979 0.458802
O O6 0.180684 0.867673 0.374212
O O7 0.068588 0.793949 0.457722
O O8 0.750000 0.880813 0.750000
O O9 0.926740 0.944614 0.712825
O O10 0.752085 0.992229 0.674547
O O11 0.577357 0.050860 0.703721
O O12 0.250000 0.895353 0.750000
#
# Coordination Sequence:
#
# PCOD9326040 Si02
#       7
#    16   4  16  16   8  16   8
#     4  10  21  37  53  73 105 142 176 211 249 301
#     4  10  18  28  56  86  98 130 172 216 266 296
#     4  10  19  34  54  78 105 131 175 219 254 304
#     4   9  18  32  53  78 103 132 162 211 267 303
#     4   8  17  32  52  78 107 128 160 208 261 316
#     4   9  19  34  53  78 104 132 165 207 260 309
#     4   9  22  35  52  73 102 145 178 208 252 299
#
# _framework density 17.665179999999999
#
# number of rings (size 3 to 8) (size 9 to 14) (size 15 to 20)
#    0.000    3.048    0.000    1.714    0.000   11.048 
#    0.000    0.000    0.000   12.000    0.000    0.000 
#    0.000    0.000    0.000    0.000    0.000    0.000 
#
# Total GULP energy -117036.856852 kJ/mol
# GULP energy per Si atom -5573.183660 kJ/mol
# Density = 1.762497 g / cm^3
# Si number density = 17.665180 Si / 1000 Ang^3
#
#
#
# Elastic Constant Matrix: (Units=GPa)
#
#
# Indices 1 2 3 4 5 6 
#
# 1 118.5868 23.8777 71.5672 0.0000 0.0000 0.0000
# 2 23.8777 35.4878 47.7144 0.0000 0.0000 0.0000
# 3 71.5672 47.7144 179.6658 0.0000 0.0000 0.0000
# 4 0.0000 0.0000 0.0000 16.1246 0.0000 0.0000
# 5 0.0000 0.0000 0.0000 0.0000 7.7433 0.0000
# 6 0.0000 0.0000 0.0000 0.0000 0.0000 10.4488
#
#
#
# Elastic Compliance Matrix: (Units=1/GPa)
#
#
# Indices 1 2 3 4 5 6 
#
# 1 0.011231 -0.002398 -0.003837 0.000000 0.000000 0.000000
# 2 -0.002398 0.044341 -0.010821 0.000000 0.000000 0.000000
# 3 -0.003837 -0.010821 0.009968 0.000000 0.000000 0.000000
# 4 0.000000 0.000000 0.000000 0.062017 0.000000 0.000000
# 5 0.000000 0.000000 0.000000 0.000000 0.129143 0.000000
# 6 0.000000 0.000000 0.000000 0.000000 0.000000 0.095705
#
#
# Mechanical properties :
#
#
# Convention : Reuss Voigt Hill
#
# Bulk Modulus (GPa) = 31.81780 68.89546 50.35663
# Shear Modulus (GPa) = 12.59473 19.56876 16.08174
#
# Velocity S-wave (km/s) = 2.67304 3.33191 3.02050
# Velocity P-wave (km/s) = 5.25144 7.34081 6.38221
#
# Compressibility (1/GPa) = 0.03142894
#
# Stress axis : x y z
#
# Youngs Moduli (GPa) = 89.03903 22.55270 100.32197
#
# Poissons Ratio (x) = 0.05408 0.38493
# Poissons Ratio (y) = 0.21350 1.08554
# Poissons Ratio (z) = 0.34163 0.24403
#
# Static dielectric constant tensor:
#      x y z
#    x 1.641190 0.000000 0.000000 
#    y 0.000000 1.579050 0.000000 
#    z 0.000000 0.000000 1.609430 
# 
# From -- ./inp_files/22777.got.cif
#   From: 2010.05.17/outbox.cif.g08.bks.cpg/sg22_12_cif.got.tgz:22777.got - 2010.06.03 23:40:54.
