data_PCOD9326651
_publ_section_title
;
Structure prediction by ZEFSAII (Michael W. Deem and Ramdas Pophale) SiO2 
 PCOD9326651
Probable space group: F 2 2 2
;
_chemical_formula_sum "Si O2"
_cell_formula_units_Z 112
_cell_length_a 28.453146
_cell_length_b 14.844582
_cell_length_c 14.075343
_cell_angle_alpha 90.000000
_cell_angle_beta 90.000000
_cell_angle_gamma 90.000000
_cell_volume 5945.073829
_symmetry_space_group_name_H-M "F 2 2 2"
_symmetry_group_IT_number 22
_symmetry_cell_setting 'orthorhombic'
loop_
_space_group_symop_operation_xyz
x,y,z
-x,-y,z
x,-y,-z
-x,y,-z
x,1/2+y,1/2+z
-x,1/2-y,1/2+z
x,1/2-y,1/2-z
-x,1/2+y,1/2-z
1/2+x,y,1/2+z
1/2-x,-y,1/2+z
1/2+x,-y,1/2-z
1/2-x,y,1/2-z
1/2+x,1/2+y,z
1/2-x,1/2-y,z
1/2+x,1/2-y,-z
1/2-x,1/2+y,-z
loop_
_atom_site_type_symbol
_atom_site_label
_atom_site_fract_x
_atom_site_fract_y
_atom_site_fract_z
Si Si1 0.562615 0.173747 0.171980
Si Si2 0.780650 0.666826 0.058341
Si Si3 0.359895 0.598094 0.888806
Si Si4 0.783208 0.500000 0.500000
Si Si5 0.880151 0.767466 0.496019
Si Si6 0.945643 0.489309 0.718709
Si Si7 0.313341 0.250000 0.250000
Si Si8 0.457652 0.316395 0.341072
O O1 0.561909 0.250000 0.250000
O O2 0.600993 0.200245 0.096023
O O3 0.511151 0.178099 0.123588
O O4 0.568422 0.081186 0.229138
O O5 0.750000 0.750000 0.021361
O O6 0.753003 0.581943 0.018072
O O7 0.786175 0.688083 0.171867
O O8 0.833816 0.675180 0.024893
O O9 0.407247 0.547890 0.855588
O O10 0.342399 0.674516 0.811636
O O11 0.319999 0.524528 0.914287
O O12 0.368122 0.661709 0.981265
O O13 0.920497 0.786528 0.418581
O O14 0.946555 0.414183 0.800388
O O15 0.000000 0.500000 0.682599
O O16 0.455572 0.250000 0.250000
#
# Coordination Sequence:
#
# PCOD9326651 Si02
#       8
#    16  16  16   8  16  16   8  16
#     4  10  24  39  59  91 141 176 202 247 324 395
#     4  11  23  40  64  95 124 158 218 280 329 370
#     4  11  23  40  70  96 126 169 223 272 323 381
#     4  12  26  40  61  98 129 158 206 286 330 382
#     4  11  22  40  68  91 126 172 213 268 318 388
#     4  10  21  39  64  94 132 170 213 266 313 385
#     4  10  21  44  74  94 118 168 228 280 320 383
#     4  10  19  39  65  99 126 161 216 271 313 372
#
# _framework density 18.839126
#
# number of rings (size 3 to 8) (size 9 to 14) (size 15 to 20)
#    0.000    1.429    4.286    2.357    3.000    2.857 
#    0.000    2.500    0.000    0.429    0.000    0.000 
#    0.000    0.000    0.000    0.000    0.000    0.000 
#
# Total GULP energy -155935.174733 kJ/mol
# GULP energy per Si atom -5569.113383 kJ/mol
# Density = 1.879625 g / cm^3
# Si number density = 18.839126 Si / 1000 Ang^3
#
#
#
# Elastic Constant Matrix: (Units=GPa)
#
#
# Indices 1 2 3 4 5 6 
#
# 1 115.7766 44.8657 53.1363 0.0000 0.0000 0.0000
# 2 44.8657 146.0645 48.2813 0.0000 0.0000 0.0000
# 3 53.1363 48.2813 58.7847 0.0000 0.0000 0.0000
# 4 0.0000 0.0000 0.0000 15.1815 0.0000 0.0000
# 5 0.0000 0.0000 0.0000 0.0000 43.2898 0.0000
# 6 0.0000 0.0000 0.0000 0.0000 0.0000 12.4854
#
#
#
# Elastic Compliance Matrix: (Units=1/GPa)
#
#
# Indices 1 2 3 4 5 6 
#
# 1 0.014764 -0.000170 -0.013206 0.000000 0.000000 0.000000
# 2 -0.000170 0.009400 -0.007567 0.000000 0.000000 0.000000
# 3 -0.013206 -0.007567 0.035163 0.000000 0.000000 0.000000
# 4 0.000000 0.000000 0.000000 0.065869 0.000000 0.000000
# 5 0.000000 0.000000 0.000000 0.000000 0.023100 0.000000
# 6 0.000000 0.000000 0.000000 0.000000 0.000000 0.080094
#
#
# Mechanical properties :
#
#
# Convention : Reuss Voigt Hill
#
# Bulk Modulus (GPa) = 57.33355 68.13248 62.73301
# Shear Modulus (GPa) = 18.11011 25.81418 21.96215
#
# Velocity S-wave (km/s) = 3.10385 3.70570 3.41805
# Velocity P-wave (km/s) = 6.58365 7.38603 6.99636
#
# Compressibility (1/GPa) = 0.01744179
#
# Stress axis : x y z
#
# Youngs Moduli (GPa) = 67.73180 106.38783 28.43893
#
# Poissons Ratio (x) = 0.01806 0.37557
# Poissons Ratio (y) = 0.01150 0.21519
# Poissons Ratio (z) = 0.89447 0.80500
#
# Static dielectric constant tensor:
#      x y z
#    x 1.747210 0.000000 0.000000 
#    y 0.000000 1.629550 0.000000 
#    z 0.000000 0.000000 1.656210 
# 
# From -- ./inp_files/33208.got.cif
#   From: 2010.05.17/outbox.cif.g08.bks.cpg/sg22_17_cif.got.tgz:33208.got - 2010.06.03 23:40:54.
