data_PCOD9326208
_publ_section_title
;
Structure prediction by ZEFSAII (Michael W. Deem and Ramdas Pophale) SiO2 
 PCOD9326208
Probable space group: F 2 2 2
;
_chemical_formula_sum "Si O2"
_cell_formula_units_Z 96
_cell_length_a 13.386120
_cell_length_b 24.221387
_cell_length_c 14.057709
_cell_angle_alpha 90.000000
_cell_angle_beta 90.000000
_cell_angle_gamma 90.000000
_cell_volume 4557.936513
_symmetry_space_group_name_H-M "F 2 2 2"
_symmetry_group_IT_number 22
_symmetry_cell_setting 'orthorhombic'
loop_
_space_group_symop_operation_xyz
x,y,z
-x,-y,z
x,-y,-z
-x,y,-z
x,1/2+y,1/2+z
-x,1/2-y,1/2+z
x,1/2-y,1/2-z
-x,1/2+y,1/2-z
1/2+x,y,1/2+z
1/2-x,-y,1/2+z
1/2+x,-y,1/2-z
1/2-x,y,1/2-z
1/2+x,1/2+y,z
1/2-x,1/2-y,z
1/2+x,1/2-y,-z
1/2-x,1/2+y,-z
loop_
_atom_site_type_symbol
_atom_site_label
_atom_site_fract_x
_atom_site_fract_y
_atom_site_fract_z
Si Si1 0.133761 0.395146 0.381733
Si Si2 0.000000 0.811603 0.000000
Si Si3 0.659534 0.532501 0.623404
Si Si4 0.843187 0.500000 0.500000
Si Si5 0.750000 0.381643 0.250000
Si Si6 0.846137 0.780377 0.850615
Si Si7 0.132015 0.904330 0.661975
Si Si8 0.000000 0.905928 0.500000
O O1 0.106532 0.452989 0.435023
O O2 0.105076 0.391121 0.270545
O O3 0.254877 0.391172 0.372211
O O4 0.080612 0.348929 0.443938
O O5 0.061692 0.779050 0.079221
O O6 0.767883 0.529727 0.573877
O O7 0.668879 0.577595 0.704985
O O8 0.629464 0.471594 0.656961
O O9 0.583653 0.556118 0.547387
O O10 0.806573 0.341558 0.323891
O O11 0.866836 0.750000 0.750000
O O12 0.750000 0.750000 0.894232
O O13 0.055899 0.877194 0.587274
#
# Coordination Sequence:
#
# PCOD9326208 Si02
#       8
#    16   8  16   8   8  16  16   8
#     4  10  22  38  58  88 132 171 203 257 297 344
#     4  12  24  43  73  95 118 150 199 246 314 396
#     4  11  18  32  56  83 123 183 225 243 281 327
#     4  10  18  36  52  80 134 182 216 248 288 326
#     4  10  21  36  64  90 120 158 208 256 301 356
#     4   9  23  49  70  92 120 143 186 258 327 382
#     4  10  21  38  52  83 143 180 212 253 283 324
#     4  12  21  34  53  83 124 190 233 251 270 322
#
# _framework density 21.062163999999999
#
# number of rings (size 3 to 8) (size 9 to 14) (size 15 to 20)
#    0.000    1.833    3.333    4.000    2.333    0.333 
#    3.000    6.667    0.000    0.000    0.000    0.000 
#    0.000    0.000    0.000    0.000    0.000    0.000 
#
# Total GULP energy -133968.765737 kJ/mol
# GULP energy per Si atom -5582.031906 kJ/mol
# Density = 2.101423 g / cm^3
# Si number density = 21.062164 Si / 1000 Ang^3
#
#
#
# Elastic Constant Matrix: (Units=GPa)
#
#
# Indices 1 2 3 4 5 6 
#
# 1 63.2547 20.2571 42.5655 0.0000 0.0000 0.0000
# 2 20.2571 38.1797 18.0077 0.0000 0.0000 0.0000
# 3 42.5655 18.0077 105.2606 0.0000 0.0000 0.0000
# 4 0.0000 0.0000 0.0000 12.8727 0.0000 0.0000
# 5 0.0000 0.0000 0.0000 0.0000 47.6576 0.0000
# 6 0.0000 0.0000 0.0000 0.0000 0.0000 2.2738
#
#
#
# Elastic Compliance Matrix: (Units=1/GPa)
#
#
# Indices 1 2 3 4 5 6 
#
# 1 0.024245 -0.008963 -0.008271 0.000000 0.000000 0.000000
# 2 -0.008963 0.031804 -0.001817 0.000000 0.000000 0.000000
# 3 -0.008271 -0.001817 0.013156 0.000000 0.000000 0.000000
# 4 0.000000 0.000000 0.000000 0.077684 0.000000 0.000000
# 5 0.000000 0.000000 0.000000 0.000000 0.020983 0.000000
# 6 0.000000 0.000000 0.000000 0.000000 0.000000 0.439791
#
#
# Mechanical properties :
#
#
# Convention : Reuss Voigt Hill
#
# Bulk Modulus (GPa) = 32.14990 40.92839 36.53915
# Shear Modulus (GPa) = 7.62042 20.95179 14.28610
#
# Velocity S-wave (km/s) = 1.90418 3.15740 2.60721
# Velocity P-wave (km/s) = 4.48687 5.72421 5.14289
#
# Compressibility (1/GPa) = 0.03110429
#
# Stress axis : x y z
#
# Youngs Moduli (GPa) = 41.24538 31.44242 76.01300
#
# Poissons Ratio (x) = 0.28181 0.62870
# Poissons Ratio (y) = 0.36967 0.13808
# Poissons Ratio (z) = 0.34114 0.05712
#
# Static dielectric constant tensor:
#      x y z
#    x 1.794530 0.000000 0.000000 
#    y 0.000000 1.739200 0.000000 
#    z 0.000000 0.000000 1.874250 
# 
# From -- ./inp_files/29578.got.cif
#   From: 2010.05.17/outbox.cif.g08.bks.cpg/sg22_15_cif.got.tgz:29578.got - 2010.06.03 23:40:54.
