data_PCOD9326308
_publ_section_title
;
Structure prediction by ZEFSAII (Michael W. Deem and Ramdas Pophale) SiO2 
 PCOD9326308
Probable space group: F 2 2 2
;
_chemical_formula_sum "Si O2"
_cell_formula_units_Z 108
_cell_length_a 15.252101
_cell_length_b 13.438123
_cell_length_c 27.284045
_cell_angle_alpha 90.000000
_cell_angle_beta 90.000000
_cell_angle_gamma 90.000000
_cell_volume 5592.127202
_symmetry_space_group_name_H-M "F 2 2 2"
_symmetry_group_IT_number 22
_symmetry_cell_setting 'orthorhombic'
loop_
_space_group_symop_operation_xyz
x,y,z
-x,-y,z
x,-y,-z
-x,y,-z
x,1/2+y,1/2+z
-x,1/2-y,1/2+z
x,1/2-y,1/2-z
-x,1/2+y,1/2-z
1/2+x,y,1/2+z
1/2-x,-y,1/2+z
1/2+x,-y,1/2-z
1/2-x,y,1/2-z
1/2+x,1/2+y,z
1/2-x,1/2-y,z
1/2+x,1/2-y,-z
1/2-x,1/2+y,-z
loop_
_atom_site_type_symbol
_atom_site_label
_atom_site_fract_x
_atom_site_fract_y
_atom_site_fract_z
Si Si1 0.370656 0.043003 0.352158
Si Si2 0.895264 0.309413 0.199699
Si Si3 0.649662 0.487703 0.741031
Si Si4 0.399694 0.133919 0.577003
Si Si5 0.303832 0.147166 0.155310
Si Si6 0.036970 0.247468 0.124660
Si Si7 0.250000 0.250000 0.880381
Si Si8 0.500000 0.000000 0.500000
O O1 0.266728 0.063957 0.360520
O O2 0.416566 0.140529 0.372828
O O3 0.386216 0.036895 0.294295
O O4 0.403798 0.943189 0.377267
O O5 0.875488 0.250000 0.250000
O O6 0.901415 0.424637 0.214274
O O7 0.820676 0.295899 0.157949
O O8 0.983476 0.269574 0.174378
O O9 0.750000 0.525427 0.750000
O O10 0.659107 0.391821 0.706874
O O11 0.463484 0.228955 0.583811
O O12 0.301762 0.174851 0.583962
O O13 0.436051 0.069780 0.532198
O O14 0.250000 0.250000 0.162112
O O15 0.385829 0.171952 0.120523
#
# Coordination Sequence:
#
# PCOD9326308 Si02
#       8
#    16  16  16  16  16  16   8   4
#     4  10  19  36  56  78 119 168 206 245 295 346
#     4  11  21  32  53  83 123 172 214 248 283 339
#     4  10  19  31  50  75 113 165 213 240 279 342
#     4  11  22  42  66  89 115 148 193 252 317 375
#     4   9  20  34  53  79 120 166 209 247 288 346
#     4  10  21  35  51  84 118 156 204 257 297 337
#     4  10  21  38  60  88 124 150 192 244 299 360
#     4  12  24  44  72  92 108 140 192 260 328 404
#
# _framework density 19.312864999999999
#
# number of rings (size 3 to 8) (size 9 to 14) (size 15 to 20)
#    0.000    1.778    1.481    4.667    2.074    6.815 
#    0.000    1.481    0.000    0.000    0.000    0.000 
#    0.000    0.000    0.000    0.000    0.000    0.000 
#
# Total GULP energy -150536.016542 kJ/mol
# GULP energy per Si atom -5575.408020 kJ/mol
# Density = 1.926891 g / cm^3
# Si number density = 19.312865 Si / 1000 Ang^3
#
#
#
# Elastic Constant Matrix: (Units=GPa)
#
#
# Indices 1 2 3 4 5 6 
#
# 1 88.1123 25.0886 23.9535 0.0000 0.0000 0.0000
# 2 25.0886 44.2201 9.0149 0.0000 0.0000 0.0000
# 3 23.9535 9.0149 45.7917 0.0000 0.0000 0.0000
# 4 0.0000 0.0000 0.0000 22.7917 0.0000 0.0000
# 5 0.0000 0.0000 0.0000 0.0000 12.7254 0.0000
# 6 0.0000 0.0000 0.0000 0.0000 0.0000 39.5800
#
#
#
# Elastic Compliance Matrix: (Units=1/GPa)
#
#
# Indices 1 2 3 4 5 6 
#
# 1 0.015197 -0.007294 -0.006513 0.000000 0.000000 0.000000
# 2 -0.007294 0.027061 -0.001512 0.000000 0.000000 0.000000
# 3 -0.006513 -0.001512 0.025543 0.000000 0.000000 0.000000
# 4 0.000000 0.000000 0.000000 0.043876 0.000000 0.000000
# 5 0.000000 0.000000 0.000000 0.000000 0.078583 0.000000
# 6 0.000000 0.000000 0.000000 0.000000 0.000000 0.025265
#
#
# Mechanical properties :
#
#
# Convention : Reuss Voigt Hill
#
# Bulk Modulus (GPa) = 26.90953 32.69311 29.80132
# Shear Modulus (GPa) = 19.33863 23.02390 21.18126
#
# Velocity S-wave (km/s) = 3.16782 3.45650 3.31530
# Velocity P-wave (km/s) = 5.22913 5.73540 5.48811
#
# Compressibility (1/GPa) = 0.03716155
#
# Stress axis : x y z
#
# Youngs Moduli (GPa) = 65.80366 36.95394 39.14996
#
# Poissons Ratio (x) = 0.26955 0.25500
# Poissons Ratio (y) = 0.47998 0.05919
# Poissons Ratio (z) = 0.42861 0.05587
#
# Static dielectric constant tensor:
#      x y z
#    x 1.768160 0.000000 0.000000 
#    y 0.000000 1.677860 0.000000 
#    z 0.000000 0.000000 1.653140 
# 
# From -- ./inp_files/56554.got.cif
#   From: 2010.05.17/outbox.cif.g08.bks.cpg/sg22_29_cif.got.tgz:56554.got - 2010.06.03 23:40:54.
