data_PCOD9326479
_publ_section_title
;
Structure prediction by ZEFSAII (Michael W. Deem and Ramdas Pophale) SiO2 
 PCOD9326479
Probable space group: F 2 2 2
;
_chemical_formula_sum "Si O2"
_cell_formula_units_Z 72
_cell_length_a 14.435578
_cell_length_b 22.804167
_cell_length_c 9.472871
_cell_angle_alpha 90.000000
_cell_angle_beta 90.000000
_cell_angle_gamma 90.000000
_cell_volume 3118.387017
_symmetry_space_group_name_H-M "F 2 2 2"
_symmetry_group_IT_number 22
_symmetry_cell_setting 'orthorhombic'
loop_
_space_group_symop_operation_xyz
x,y,z
-x,-y,z
x,-y,-z
-x,y,-z
x,1/2+y,1/2+z
-x,1/2-y,1/2+z
x,1/2-y,1/2-z
-x,1/2+y,1/2-z
1/2+x,y,1/2+z
1/2-x,-y,1/2+z
1/2+x,-y,1/2-z
1/2-x,y,1/2-z
1/2+x,1/2+y,z
1/2-x,1/2-y,z
1/2+x,1/2-y,-z
1/2-x,1/2+y,-z
loop_
_atom_site_type_symbol
_atom_site_label
_atom_site_fract_x
_atom_site_fract_y
_atom_site_fract_z
Si Si1 0.241171 0.877739 0.501120
Si Si2 0.250000 0.465121 0.750000
Si Si3 0.250000 0.250000 0.481942
Si Si4 0.399559 0.046558 0.374137
Si Si5 0.951755 0.873859 0.347960
Si Si6 0.089703 0.750000 0.750000
O O1 0.223636 0.924687 0.380691
O O2 0.242074 0.811861 0.441312
O O3 0.338555 0.899517 0.565006
O O4 0.158572 0.877861 0.615795
O O5 0.334853 0.507677 0.776267
O O6 0.159950 0.258138 0.381556
O O7 0.474218 0.077758 0.272188
O O8 0.415904 0.000000 0.500000
O O9 0.967416 0.808699 0.285161
O O10 0.000000 0.881371 0.500000
#
# Coordination Sequence:
#
# PCOD9326479 Si02
#       6
#    16   8   8  16  16   8
#     4  10  19  35  59  95 121 164 216 277 321 373
#     4  10  20  33  58  89 128 156 216 274 318 366
#     4   9  16  31  62  86 122 151 221 274 308 381
#     4  10  19  36  64  94 127 169 220 273 323 384
#     4  11  21  37  63  98 128 174 219 265 338 411
#     4   9  18  34  56  90 120 165 208 268 330 379
#
# _framework density 23.088861000000001
#
# number of rings (size 3 to 8) (size 9 to 14) (size 15 to 20)
#    0.000    2.000    4.444    0.000    0.000    0.444 
#    0.000    6.667    0.000    4.000    0.000    0.000 
#    0.000    0.000    0.000    0.000    0.000    0.000 
#
# Total GULP energy -100469.322978 kJ/mol
# GULP energy per Si atom -5581.629054 kJ/mol
# Density = 2.303631 g / cm^3
# Si number density = 23.088861 Si / 1000 Ang^3
#
#
#
# Elastic Constant Matrix: (Units=GPa)
#
#
# Indices 1 2 3 4 5 6 
#
# 1 42.4492 23.6177 11.2061 0.0000 0.0000 0.0000
# 2 23.6177 206.9451 73.1156 0.0000 0.0000 0.0000
# 3 11.2061 73.1156 99.8276 0.0000 0.0000 0.0000
# 4 0.0000 0.0000 0.0000 6.4293 0.0000 0.0000
# 5 0.0000 0.0000 0.0000 0.0000 28.3980 0.0000
# 6 0.0000 0.0000 0.0000 0.0000 0.0000 -18.0081
#
#
#
# Elastic Compliance Matrix: (Units=1/GPa)
#
#
# Indices 1 2 3 4 5 6 
#
# 1 0.025225 -0.002534 -0.000976 0.000000 0.000000 0.000000
# 2 -0.002534 0.006774 -0.004677 0.000000 0.000000 0.000000
# 3 -0.000976 -0.004677 0.013552 0.000000 0.000000 0.000000
# 4 0.000000 0.000000 0.000000 0.155538 0.000000 0.000000
# 5 0.000000 0.000000 0.000000 0.000000 0.035214 0.000000
# 6 0.000000 0.000000 0.000000 0.000000 0.000000 -0.055531
#
#
# Mechanical properties :
#
#
# Convention : Reuss Voigt Hill
#
# Bulk Modulus (GPa) = 34.27238 62.78895 48.53067
# Shear Modulus (GPa) = 24.16960 19.44934 21.80947
#
# Velocity S-wave (km/s) = 3.23895 2.90551 3.07675
# Velocity P-wave (km/s) = 5.37249 6.20560 5.80401
#
# Compressibility (1/GPa) = 0.02917801
#
# Stress axis : x y z
#
# Youngs Moduli (GPa) = 39.64311 147.62878 73.78915
#
# Poissons Ratio (x) = 0.37411 0.07199
# Poissons Ratio (y) = 0.10046 0.34509
# Poissons Ratio (z) = 0.03867 0.69042
#
# Static dielectric constant tensor:
#      x y z
#    x 1.964730 0.000000 0.000000 
#    y 0.000000 1.860390 0.000000 
#    z 0.000000 0.000000 1.920580 
# 
# From -- ./inp_files/11481.got.cif
#   From: 2010.05.17/outbox.cif.g08.bks.cpg/sg22_6_cif.got.tgz:11481.got - 2010.06.03 23:40:54.
