data_PCOD9326188
_publ_section_title
;
Structure prediction by ZEFSAII (Michael W. Deem and Ramdas Pophale) SiO2 
 PCOD9326188
Probable space group: F 2 2 2
;
_chemical_formula_sum "Si O2"
_cell_formula_units_Z 120
_cell_length_a 19.865133
_cell_length_b 24.535968
_cell_length_c 12.632343
_cell_angle_alpha 90.000000
_cell_angle_beta 90.000000
_cell_angle_gamma 90.000000
_cell_volume 6157.133682
_symmetry_space_group_name_H-M "F 2 2 2"
_symmetry_group_IT_number 22
_symmetry_cell_setting 'orthorhombic'
loop_
_space_group_symop_operation_xyz
x,y,z
-x,-y,z
x,-y,-z
-x,y,-z
x,1/2+y,1/2+z
-x,1/2-y,1/2+z
x,1/2-y,1/2-z
-x,1/2+y,1/2-z
1/2+x,y,1/2+z
1/2-x,-y,1/2+z
1/2+x,-y,1/2-z
1/2-x,y,1/2-z
1/2+x,1/2+y,z
1/2-x,1/2-y,z
1/2+x,1/2-y,-z
1/2-x,1/2+y,-z
loop_
_atom_site_type_symbol
_atom_site_label
_atom_site_fract_x
_atom_site_fract_y
_atom_site_fract_z
Si Si1 0.819709 0.880681 0.536542
Si Si2 0.672052 0.262912 0.374986
Si Si3 0.861005 0.522966 0.807424
Si Si4 0.500000 0.500000 0.200771
Si Si5 0.324111 0.100418 0.201289
Si Si6 0.578893 0.666075 0.906120
Si Si7 0.056304 0.885283 0.869125
Si Si8 0.301249 0.897094 0.337734
O O1 0.840493 0.825042 0.593850
O O2 0.850220 0.933136 0.598844
O O3 0.833608 0.872780 0.413327
O O4 0.739339 0.890763 0.554556
O O5 0.669332 0.250000 0.250000
O O6 0.750000 0.250000 0.408663
O O7 0.613501 0.224493 0.424157
O O8 0.938255 0.518513 0.774125
O O9 0.832854 0.463384 0.828546
O O10 0.820768 0.543624 0.702984
O O11 0.525193 0.553409 0.136910
O O12 0.250000 0.110101 0.250000
O O13 0.383255 0.115934 0.284261
O O14 0.505105 0.658246 0.856076
O O15 0.631371 0.636034 0.831686
O O16 0.580357 0.630673 0.013806
O O17 0.250000 0.874699 0.250000
#
# Coordination Sequence:
#
# PCOD9326188 Si02
#       8
#    16  16  16   8  16  16  16  16
#     4  11  22  38  66  98 131 171 223 264 340 400
#     4  11  23  39  70 102 124 167 220 279 332 384
#     4  10  21  37  64  96 133 174 221 278 332 397
#     4  10  20  41  65  94 134 176 222 266 346 396
#     4  11  23  42  62  98 141 179 217 267 337 415
#     4  11  21  41  64  96 132 164 225 275 331 381
#     4  10  24  41  67  94 136 179 217 277 328 399
#     4  10  18  34  64  91 124 163 211 275 320 380
#
# _framework density 19.489587
#
# number of rings (size 3 to 8) (size 9 to 14) (size 15 to 20)
#    0.000    1.467    2.667    4.000    1.867    1.067 
#    0.000   11.333    0.000    0.000    0.000    0.000 
#    0.000    0.000    0.000    0.000    0.000    0.000 
#
# Total GULP energy -167172.325966 kJ/mol
# GULP energy per Si atom -5572.410866 kJ/mol
# Density = 1.944523 g / cm^3
# Si number density = 19.489587 Si / 1000 Ang^3
#
#
#
# Elastic Constant Matrix: (Units=GPa)
#
#
# Indices 1 2 3 4 5 6 
#
# 1 135.8652 44.8601 48.3466 0.0000 0.0000 0.0000
# 2 44.8601 91.9094 40.3389 0.0000 0.0000 0.0000
# 3 48.3466 40.3389 96.1065 0.0000 0.0000 0.0000
# 4 0.0000 0.0000 0.0000 21.1597 0.0000 0.0000
# 5 0.0000 0.0000 0.0000 0.0000 26.0940 0.0000
# 6 0.0000 0.0000 0.0000 0.0000 0.0000 31.2751
#
#
#
# Elastic Compliance Matrix: (Units=1/GPa)
#
#
# Indices 1 2 3 4 5 6 
#
# 1 0.009662 -0.003166 -0.003532 0.000000 0.000000 0.000000
# 2 -0.003166 0.014375 -0.004441 0.000000 0.000000 0.000000
# 3 -0.003532 -0.004441 0.014046 0.000000 0.000000 0.000000
# 4 0.000000 0.000000 0.000000 0.047260 0.000000 0.000000
# 5 0.000000 0.000000 0.000000 0.000000 0.038323 0.000000
# 6 0.000000 0.000000 0.000000 0.000000 0.000000 0.031974
#
#
# Mechanical properties :
#
#
# Convention : Reuss Voigt Hill
#
# Bulk Modulus (GPa) = 63.26908 65.66357 64.46632
# Shear Modulus (GPa) = 27.29473 28.39479 27.84476
#
# Velocity S-wave (km/s) = 3.74636 3.82110 3.78391
# Velocity P-wave (km/s) = 7.15871 7.29606 7.22771
#
# Compressibility (1/GPa) = 0.01580551
#
# Stress axis : x y z
#
# Youngs Moduli (GPa) = 103.49451 69.56699 71.19588
#
# Poissons Ratio (x) = 0.22025 0.25145
# Poissons Ratio (y) = 0.32766 0.31617
# Poissons Ratio (z) = 0.36552 0.30893
#
# Static dielectric constant tensor:
#      x y z
#    x 1.738420 0.000000 0.000000 
#    y 0.000000 1.751080 0.000000 
#    z 0.000000 0.000000 1.691570 
# 
# From -- ./inp_files/23018.got.cif
#   From: 2010.05.17/outbox.cif.g08.bks.cpg/sg22_12_cif.got.tgz:23018.got - 2010.06.03 23:40:54.
