data_PCOD9326064
_publ_section_title
;
Structure prediction by ZEFSAII (Michael W. Deem and Ramdas Pophale) SiO2 
 PCOD9326064
Probable space group: F 2 2 2
;
_chemical_formula_sum "Si O2"
_cell_formula_units_Z 72
_cell_length_a 14.103521
_cell_length_b 5.229098
_cell_length_c 38.605776
_cell_angle_alpha 90.000000
_cell_angle_beta 90.000000
_cell_angle_gamma 90.000000
_cell_volume 2847.125540
_symmetry_space_group_name_H-M "F 2 2 2"
_symmetry_group_IT_number 22
_symmetry_cell_setting 'orthorhombic'
loop_
_space_group_symop_operation_xyz
x,y,z
-x,-y,z
x,-y,-z
-x,y,-z
x,1/2+y,1/2+z
-x,1/2-y,1/2+z
x,1/2-y,1/2-z
-x,1/2+y,1/2-z
1/2+x,y,1/2+z
1/2-x,-y,1/2+z
1/2+x,-y,1/2-z
1/2-x,y,1/2-z
1/2+x,1/2+y,z
1/2-x,1/2-y,z
1/2+x,1/2-y,-z
1/2-x,1/2+y,-z
loop_
_atom_site_type_symbol
_atom_site_label
_atom_site_fract_x
_atom_site_fract_y
_atom_site_fract_z
Si Si1 0.062367 0.750000 0.750000
Si Si2 0.135319 0.724950 0.067641
Si Si3 0.636638 0.208405 0.530379
Si Si4 0.387459 0.279436 0.174517
Si Si5 0.102364 0.282442 0.854438
O O1 0.117028 0.670212 0.715284
O O2 0.000000 0.500000 0.759370
O O3 0.250000 0.750000 0.066338
O O4 0.106290 0.501468 0.039843
O O5 0.102118 0.644974 0.105456
O O6 0.107104 0.020940 0.061609
O O7 0.750000 0.250000 0.526563
O O8 0.611364 0.000000 0.500000
O O9 0.497757 0.249504 0.162198
O O10 0.351397 0.507820 0.150962
O O11 0.346835 0.003678 0.166680
#
# Coordination Sequence:
#
# PCOD9326064 Si02
#       5
#     8  16  16  16  16
#     4  12  16  30  48  78 100 116 164 220 260 284
#     4  10  20  31  48  73 101 129 157 192 244 301
#     4  10  18  31  49  71  96 123 158 205 248 283
#     4  10  19  30  50  74  96 128 162 207 253 281
#     4  10  18  31  45  71 102 127 159 195 245 301
#
# _framework density 25.288665000000002
#
# number of rings (size 3 to 8) (size 9 to 14) (size 15 to 20)
#    0.000    1.778    4.444    4.000    0.000    0.000 
#    0.000    0.000    0.000    0.000    0.000   55.222 
#    0.000    0.000    0.000    0.000    0.000    0.000 
#
# Total GULP energy -100340.683596 kJ/mol
# GULP energy per Si atom -5574.482422 kJ/mol
# Density = 2.523111 g / cm^3
# Si number density = 25.288665 Si / 1000 Ang^3
#
#
#
# Elastic Constant Matrix: (Units=GPa)
#
#
# Indices 1 2 3 4 5 6 
#
# 1 113.3753 -10.5926 -4.8434 0.0000 0.0000 0.0000
# 2 -10.5926 207.3181 19.9998 0.0000 0.0000 0.0000
# 3 -4.8434 19.9998 147.7602 0.0000 0.0000 0.0000
# 4 0.0000 0.0000 0.0000 55.3324 0.0000 0.0000
# 5 0.0000 0.0000 0.0000 0.0000 41.6481 0.0000
# 6 0.0000 0.0000 0.0000 0.0000 0.0000 -18.9628
#
#
#
# Elastic Compliance Matrix: (Units=1/GPa)
#
#
# Indices 1 2 3 4 5 6 
#
# 1 0.008870 0.000431 0.000232 0.000000 0.000000 0.000000
# 2 0.000431 0.004908 -0.000650 0.000000 0.000000 0.000000
# 3 0.000232 -0.000650 0.006863 0.000000 0.000000 0.000000
# 4 0.000000 0.000000 0.000000 0.018073 0.000000 0.000000
# 5 0.000000 0.000000 0.000000 0.000000 0.024011 0.000000
# 6 0.000000 0.000000 0.000000 0.000000 0.000000 -0.052735
#
#
# Mechanical properties :
#
#
# Convention : Reuss Voigt Hill
#
# Bulk Modulus (GPa) = 48.38378 53.06459 50.72418
# Shear Modulus (GPa) = 296.66676 46.52950 171.59813
#
# Velocity S-wave (km/s) = 10.84282 4.29410 8.24640
# Velocity P-wave (km/s) = 13.26386 6.75387 10.52484
#
# Compressibility (1/GPa) = 0.02066808
#
# Stress axis : x y z
#
# Youngs Moduli (GPa) = 112.73396 203.73887 145.70137
#
# Poissons Ratio (x) = -0.08777 -0.03387
# Poissons Ratio (y) = -0.04857 0.09474
# Poissons Ratio (z) = -0.02621 0.13248
#
# Static dielectric constant tensor:
#      x y z
#    x 2.040970 0.000000 0.000000 
#    y 0.000000 1.824280 0.000000 
#    z 0.000000 0.000000 1.993230 
# 
# From -- ./inp_files/57036.got.cif
#   From: 2010.05.17/outbox.cif.g08.bks.cpg/sg22_29_cif.got.tgz:57036.got - 2010.06.03 23:40:54.
