data_PCOD9326804
_publ_section_title
;
Structure prediction by ZEFSAII (Michael W. Deem and Ramdas Pophale) SiO2 
 PCOD9326804
Probable space group: F 2 2 2
;
_chemical_formula_sum "Si O2"
_cell_formula_units_Z 96
_cell_length_a 18.628902
_cell_length_b 18.628898
_cell_length_c 15.964310
_cell_angle_alpha 90.000000
_cell_angle_beta 90.000000
_cell_angle_gamma 90.000000
_cell_volume 5540.188932
_symmetry_space_group_name_H-M "F 2 2 2"
_symmetry_group_IT_number 22
_symmetry_cell_setting 'orthorhombic'
loop_
_space_group_symop_operation_xyz
x,y,z
-x,-y,z
x,-y,-z
-x,y,-z
x,1/2+y,1/2+z
-x,1/2-y,1/2+z
x,1/2-y,1/2-z
-x,1/2+y,1/2-z
1/2+x,y,1/2+z
1/2-x,-y,1/2+z
1/2+x,-y,1/2-z
1/2-x,y,1/2-z
1/2+x,1/2+y,z
1/2-x,1/2-y,z
1/2+x,1/2-y,-z
1/2-x,1/2+y,-z
loop_
_atom_site_type_symbol
_atom_site_label
_atom_site_fract_x
_atom_site_fract_y
_atom_site_fract_z
Si Si1 0.500000 0.170549 0.500000
Si Si2 0.140174 0.258184 0.435927
Si Si3 0.920549 0.750000 0.250000
Si Si4 0.877668 0.486631 0.269324
Si Si5 0.263369 0.872332 0.980676
Si Si6 0.008184 0.390174 0.314073
Si Si7 0.231440 0.018560 0.625000
O O1 0.431218 0.220562 0.485609
O O2 0.500637 0.124570 0.413879
O O3 0.125430 0.249363 0.336121
O O4 0.194730 0.323978 0.454874
O O5 0.172513 0.183567 0.467465
O O6 0.970562 0.681218 0.264391
O O7 0.926022 0.555270 0.295126
O O8 0.841903 0.485239 0.178017
O O9 0.806195 0.482445 0.324851
O O10 0.933567 0.422513 0.282535
O O11 0.264761 0.908097 0.071983
O O12 0.267555 0.943805 0.925149
#
# Coordination Sequence:
#
# PCOD9326804 Si02
#       7
#     8  16   8  16  16  16  16
#     4  10  20  35  56  81 110 140 180 230 276 319
#     4  10  21  36  56  82 109 143 182 226 274 327
#     4  10  20  35  56  81 110 140 180 230 276 319
#     4  10  21  35  55  79 108 141 181 224 273 329
#     4  10  21  35  55  79 108 141 181 224 273 329
#     4  10  21  36  56  82 109 143 182 226 274 327
#     4  10  20  36  54  78 108 142 178 224 274 326
#
# _framework density 17.327929000000001
#
# number of rings (size 3 to 8) (size 9 to 14) (size 15 to 20)
#    0.000    2.000    0.000    4.000    0.000    8.000 
#    0.000    0.000    0.000   10.000    0.000    0.000 
#    0.000    0.000    0.000    0.000    0.000    0.000 
#
# Total GULP energy -133660.852342 kJ/mol
# GULP energy per Si atom -5569.202181 kJ/mol
# Density = 1.728849 g / cm^3
# Si number density = 17.327929 Si / 1000 Ang^3
#
#
#
# Elastic Constant Matrix: (Units=GPa)
#
#
# Indices 1 2 3 4 5 6 
#
# 1 120.4616 49.0734 48.1593 0.0000 0.0000 0.0000
# 2 49.0734 120.4615 48.1593 0.0000 0.0000 0.0000
# 3 48.1593 48.1593 93.2703 0.0000 0.0000 0.0000
# 4 0.0000 0.0000 0.0000 10.8536 0.0000 0.0000
# 5 0.0000 0.0000 0.0000 0.0000 10.8538 0.0000
# 6 0.0000 0.0000 0.0000 0.0000 0.0000 28.5379
#
#
#
# Elastic Compliance Matrix: (Units=1/GPa)
#
#
# Indices 1 2 3 4 5 6 
#
# 1 0.011178 -0.002830 -0.004310 0.000000 0.000000 0.000000
# 2 -0.002830 0.011178 -0.004310 0.000000 0.000000 0.000000
# 3 -0.004310 -0.004310 0.015172 0.000000 0.000000 0.000000
# 4 0.000000 0.000000 0.000000 0.092135 0.000000 0.000000
# 5 0.000000 0.000000 0.000000 0.000000 0.092134 0.000000
# 6 0.000000 0.000000 0.000000 0.000000 0.000000 0.035041
#
#
# Mechanical properties :
#
#
# Convention : Reuss Voigt Hill
#
# Bulk Modulus (GPa) = 68.36789 69.44192 68.90491
# Shear Modulus (GPa) = 17.56767 22.63582 20.10174
#
# Velocity S-wave (km/s) = 3.18753 3.61823 3.40969
# Velocity P-wave (km/s) = 7.28616 7.59062 7.43995
#
# Compressibility (1/GPa) = 0.01462675
#
# Stress axis : x y z
#
# Youngs Moduli (GPa) = 89.46524 89.46520 65.90935
#
# Poissons Ratio (x) = 0.25322 0.28407
# Poissons Ratio (y) = 0.25322 0.28407
# Poissons Ratio (z) = 0.38559 0.38559
#
# Static dielectric constant tensor:
#      x y z
#    x 1.610070 0.000000 0.000000 
#    y 0.000000 1.610070 0.000000 
#    z 0.000000 0.000000 1.908820 
# 
# From -- ./inp_files/38082.got.cif
#   From: 2010.05.17/outbox.cif.g08.bks.cpg/sg22_20_cif.got.tgz:38082.got - 2010.06.03 23:40:54.
