data_PCOD9326387
_publ_section_title
;
Structure prediction by ZEFSAII (Michael W. Deem and Ramdas Pophale) SiO2 
 PCOD9326387
Probable space group: F 2 2 2
;
_chemical_formula_sum "Si O2"
_cell_formula_units_Z 64
_cell_length_a 13.390349
_cell_length_b 26.383413
_cell_length_c 8.523427
_cell_angle_alpha 90.000000
_cell_angle_beta 90.000000
_cell_angle_gamma 90.000000
_cell_volume 3011.182780
_symmetry_space_group_name_H-M "F 2 2 2"
_symmetry_group_IT_number 22
_symmetry_cell_setting 'orthorhombic'
loop_
_space_group_symop_operation_xyz
x,y,z
-x,-y,z
x,-y,-z
-x,y,-z
x,1/2+y,1/2+z
-x,1/2-y,1/2+z
x,1/2-y,1/2-z
-x,1/2+y,1/2-z
1/2+x,y,1/2+z
1/2-x,-y,1/2+z
1/2+x,-y,1/2-z
1/2-x,y,1/2-z
1/2+x,1/2+y,z
1/2-x,1/2-y,z
1/2+x,1/2-y,-z
1/2-x,1/2+y,-z
loop_
_atom_site_type_symbol
_atom_site_label
_atom_site_fract_x
_atom_site_fract_y
_atom_site_fract_z
Si Si1 0.363834 0.666165 0.069680
Si Si2 0.000000 0.114696 0.500000
Si Si3 0.358994 0.063200 0.733599
Si Si4 0.250000 0.250000 0.750000
Si Si5 0.426219 0.311494 0.242751
Si Si6 0.500000 0.000000 0.500000
O O1 0.328909 0.613673 0.138809
O O2 0.310429 0.714301 0.137962
O O3 0.472627 0.673914 0.148891
O O4 0.348272 0.668367 0.883989
O O5 0.073411 0.081086 0.614053
O O6 0.067084 0.154558 0.398122
O O7 0.250000 0.036405 0.750000
O O8 0.431472 0.032980 0.616472
O O9 0.420493 0.250000 0.250000
#
# Coordination Sequence:
#
# PCOD9326387 Si02
#       6
#    16   8  16   4  16   4
#     4  10  21  37  61  95 136 180 223 276 335 413
#     4  10  22  41  67 100 136 179 232 285 348 422
#     4  11  25  47  73  98 140 177 232 297 356 412
#     4  12  20  36  66  96 144 178 222 272 336 424
#     4  10  19  33  59  91 133 187 226 267 326 407
#     4  12  28  50  74 106 128 180 248 300 360 418
#
# _framework density 21.254107999999999
#
# number of rings (size 3 to 8) (size 9 to 14) (size 15 to 20)
#    0.000    1.500    2.500    4.500    3.500    2.500 
#    0.000    6.875    0.000    0.000    0.000    0.000 
#    0.000    0.000    0.000    0.000    0.000    0.000 
#
# Total GULP energy -89076.154622 kJ/mol
# GULP energy per Si atom -5567.259664 kJ/mol
# Density = 2.120573 g / cm^3
# Si number density = 21.254108 Si / 1000 Ang^3
#
#
#
# Elastic Constant Matrix: (Units=GPa)
#
#
# Indices 1 2 3 4 5 6 
#
# 1 69.5992 34.9296 50.7108 0.0000 0.0000 0.0000
# 2 34.9296 73.7399 54.5060 0.0000 0.0000 0.0000
# 3 50.7108 54.5060 167.3083 0.0000 0.0000 0.0000
# 4 0.0000 0.0000 0.0000 41.2902 0.0000 0.0000
# 5 0.0000 0.0000 0.0000 0.0000 29.5312 0.0000
# 6 0.0000 0.0000 0.0000 0.0000 0.0000 -5.6429
#
#
#
# Elastic Compliance Matrix: (Units=1/GPa)
#
#
# Indices 1 2 3 4 5 6 
#
# 1 0.020757 -0.006826 -0.004068 0.000000 0.000000 0.000000
# 2 -0.006826 0.020107 -0.004482 0.000000 0.000000 0.000000
# 3 -0.004068 -0.004482 0.008670 0.000000 0.000000 0.000000
# 4 0.000000 0.000000 0.000000 0.024219 0.000000 0.000000
# 5 0.000000 0.000000 0.000000 0.000000 0.033862 0.000000
# 6 0.000000 0.000000 0.000000 0.000000 0.000000 -0.177214
#
#
# Mechanical properties :
#
#
# Convention : Reuss Voigt Hill
#
# Bulk Modulus (GPa) = 53.23649 65.66001 59.44825
# Shear Modulus (GPa) = -153.43901 24.40244 -64.51829
#
# Velocity S-wave (km/s) = -8.50584 3.39208 -5.51558
# Velocity P-wave (km/s) = 8.44771 6.80452 3.53994
#
# Compressibility (1/GPa) = 0.01878411
#
# Stress axis : x y z
#
# Youngs Moduli (GPa) = 48.17544 49.73362 115.34038
#
# Poissons Ratio (x) = 0.33947 0.46919
# Poissons Ratio (y) = 0.32883 0.51692
# Poissons Ratio (z) = 0.19597 0.22289
#
# Static dielectric constant tensor:
#      x y z
#    x 1.887210 0.000000 0.000000 
#    y 0.000000 1.714540 0.000000 
#    z 0.000000 0.000000 1.878610 
# 
# From -- ./inp_files/9902.got.cif
#   From: 2010.05.17/outbox.cif.g08.bks.cpg/sg22_5_cif.got.tgz:9902.got - 2010.06.03 23:40:54.
