data_PCOD9326205
_publ_section_title
;
Structure prediction by ZEFSAII (Michael W. Deem and Ramdas Pophale) SiO2 
 PCOD9326205
Probable space group: F 2 2 2
;
_chemical_formula_sum "Si O2"
_cell_formula_units_Z 96
_cell_length_a 10.790447
_cell_length_b 15.986486
_cell_length_c 27.254382
_cell_angle_alpha 90.000000
_cell_angle_beta 90.000000
_cell_angle_gamma 90.000000
_cell_volume 4701.417141
_symmetry_space_group_name_H-M "F 2 2 2"
_symmetry_group_IT_number 22
_symmetry_cell_setting 'orthorhombic'
loop_
_space_group_symop_operation_xyz
x,y,z
-x,-y,z
x,-y,-z
-x,y,-z
x,1/2+y,1/2+z
-x,1/2-y,1/2+z
x,1/2-y,1/2-z
-x,1/2+y,1/2-z
1/2+x,y,1/2+z
1/2-x,-y,1/2+z
1/2+x,-y,1/2-z
1/2-x,y,1/2-z
1/2+x,1/2+y,z
1/2-x,1/2-y,z
1/2+x,1/2-y,-z
1/2-x,1/2+y,-z
loop_
_atom_site_type_symbol
_atom_site_label
_atom_site_fract_x
_atom_site_fract_y
_atom_site_fract_z
Si Si1 0.971463 0.261807 0.099448
Si Si2 0.500000 0.156727 0.500000
Si Si3 0.750000 0.750000 0.831152
Si Si4 0.237078 0.066588 0.804639
Si Si5 0.623381 0.450544 0.403231
Si Si6 0.250000 0.750000 0.601944
Si Si7 0.317114 0.573533 0.939149
Si Si8 0.500000 0.500000 0.140380
O O1 0.866742 0.225616 0.134906
O O2 0.915005 0.354356 0.090243
O O3 0.980081 0.213808 0.047752
O O4 0.109419 0.255735 0.123793
O O5 0.386423 0.095937 0.488846
O O6 0.727489 0.835141 0.802293
O O7 0.250000 0.030570 0.750000
O O8 0.328781 0.034214 0.847417
O O9 0.100244 0.047076 0.825752
O O10 0.500000 0.500000 0.412745
O O11 0.728191 0.494100 0.436107
O O12 0.249805 0.838499 0.573268
O O13 0.420710 0.558191 0.896660
#
# Coordination Sequence:
#
# PCOD9326205 Si02
#       8
#    16   8   8  16  16   8  16   8
#     4  10  21  37  63  88 124 165 214 257 315 367
#     4  10  22  39  61  92 118 168 216 250 296 378
#     4  10  21  41  60  88 127 168 205 260 319 389
#     4  10  21  36  65  91 121 159 207 257 311 387
#     4  10  20  39  63  90 127 163 200 259 325 370
#     4  10  18  35  62  88 114 158 205 256 299 363
#     4  10  21  39  64  87 124 164 207 253 312 363
#     4  10  22  41  58  92 124 162 204 255 318 380
#
# _framework density 20.419374999999999
#
# number of rings (size 3 to 8) (size 9 to 14) (size 15 to 20)
#    0.000    2.000    1.667    2.250    1.167    3.000 
#    0.000    3.750    3.667    0.000    0.000    6.417 
#    0.000    0.000    0.000    0.000    0.000    0.000 
#
# Total GULP energy -133707.704332 kJ/mol
# GULP energy per Si atom -5571.154347 kJ/mol
# Density = 2.037290 g / cm^3
# Si number density = 20.419375 Si / 1000 Ang^3
#
#
#
# Elastic Constant Matrix: (Units=GPa)
#
#
# Indices 1 2 3 4 5 6 
#
# 1 133.5889 10.8094 46.1888 0.0000 0.0000 0.0000
# 2 10.8094 81.8845 20.2953 0.0000 0.0000 0.0000
# 3 46.1888 20.2953 87.6886 0.0000 0.0000 0.0000
# 4 0.0000 0.0000 0.0000 8.1844 0.0000 0.0000
# 5 0.0000 0.0000 0.0000 0.0000 37.6599 0.0000
# 6 0.0000 0.0000 0.0000 0.0000 0.0000 41.2879
#
#
#
# Elastic Compliance Matrix: (Units=1/GPa)
#
#
# Indices 1 2 3 4 5 6 
#
# 1 0.009153 -0.000014 -0.004818 0.000000 0.000000 0.000000
# 2 -0.000014 0.012956 -0.002991 0.000000 0.000000 0.000000
# 3 -0.004818 -0.002991 0.014634 0.000000 0.000000 0.000000
# 4 0.000000 0.000000 0.000000 0.122183 0.000000 0.000000
# 5 0.000000 0.000000 0.000000 0.000000 0.026553 0.000000
# 6 0.000000 0.000000 0.000000 0.000000 0.000000 0.024220
#
#
# Mechanical properties :
#
#
# Convention : Reuss Voigt Hill
#
# Bulk Modulus (GPa) = 47.40194 50.86097 49.13146
# Shear Modulus (GPa) = 21.51681 32.48434 27.00058
#
# Velocity S-wave (km/s) = 3.24966 3.99288 3.64029
# Velocity P-wave (km/s) = 6.11106 6.79851 6.46393
#
# Compressibility (1/GPa) = 0.02109618
#
# Stress axis : x y z
#
# Youngs Moduli (GPa) = 109.25932 77.18709 68.33431
#
# Poissons Ratio (x) = 0.00109 0.32921
# Poissons Ratio (y) = 0.00154 0.20439
# Poissons Ratio (z) = 0.52638 0.23087
#
# Static dielectric constant tensor:
#      x y z
#    x 1.746250 0.000000 0.000000 
#    y 0.000000 -0.683710 0.000000 
#    z 0.000000 0.000000 1.731640 
# 
# From -- ./inp_files/48198.got.cif
#   From: 2010.05.17/outbox.cif.g08.bks.cpg/sg22_25_cif.got.tgz:48198.got - 2010.06.03 23:40:54.
