data_PCOD9326589
_publ_section_title
;
Structure prediction by ZEFSAII (Michael W. Deem and Ramdas Pophale) SiO2 
 PCOD9326589
Probable space group: F 2 2 2
;
_chemical_formula_sum "Si O2"
_cell_formula_units_Z 84
_cell_length_a 15.520869
_cell_length_b 23.017788
_cell_length_c 10.567176
_cell_angle_alpha 90.000000
_cell_angle_beta 90.000000
_cell_angle_gamma 90.000000
_cell_volume 3775.187792
_symmetry_space_group_name_H-M "F 2 2 2"
_symmetry_group_IT_number 22
_symmetry_cell_setting 'orthorhombic'
loop_
_space_group_symop_operation_xyz
x,y,z
-x,-y,z
x,-y,-z
-x,y,-z
x,1/2+y,1/2+z
-x,1/2-y,1/2+z
x,1/2-y,1/2-z
-x,1/2+y,1/2-z
1/2+x,y,1/2+z
1/2-x,-y,1/2+z
1/2+x,-y,1/2-z
1/2-x,y,1/2-z
1/2+x,1/2+y,z
1/2-x,1/2-y,z
1/2+x,1/2-y,-z
1/2-x,1/2+y,-z
loop_
_atom_site_type_symbol
_atom_site_label
_atom_site_fract_x
_atom_site_fract_y
_atom_site_fract_z
Si Si1 0.250000 0.750000 0.250000
Si Si2 0.166499 0.500000 0.000000
Si Si3 0.591566 0.972522 0.269624
Si Si4 0.700273 0.928888 0.623483
Si Si5 0.116411 0.685547 0.423740
Si Si6 0.476750 0.250000 0.250000
Si Si7 0.149245 0.840286 0.788525
O O1 0.193889 0.711270 0.342841
O O2 0.110908 0.511168 0.875932
O O3 0.225447 0.442258 0.978266
O O4 0.609319 0.904783 0.289695
O O5 0.500000 0.000000 0.304071
O O6 0.661226 0.008318 0.348560
O O7 0.750000 0.910031 0.750000
O O8 0.623711 0.883975 0.597785
O O9 0.136937 0.688615 0.572524
O O10 0.036208 0.718971 0.358029
O O11 0.412903 0.199234 0.201329
O O12 0.250000 0.840553 0.750000
#
# Coordination Sequence:
#
# PCOD9326589 Si02
#       7
#     4   8  16  16  16   8  16
#     4  10  24  40  72 104 138 204 238 308 372 442
#     4  10  21  40  65 106 140 184 228 288 357 448
#     4  11  23  41  68 105 144 181 233 290 371 435
#     4  10  19  37  66  98 132 175 226 287 352 440
#     4  11  23  46  69 103 144 185 253 301 372 443
#     4  11  27  45  65 102 142 192 253 311 371 435
#     4  12  26  47  73 105 145 197 249 308 377 448
#
# _framework density 22.250548999999999
#
# number of rings (size 3 to 8) (size 9 to 14) (size 15 to 20)
#    0.000    1.143    0.952    6.286    2.667    0.000 
#    0.000    5.238    0.000    0.000    0.000    0.000 
#    0.000    0.000    0.000    0.000    0.000    0.000 
#
# Total GULP energy -117212.034818 kJ/mol
# GULP energy per Si atom -5581.525468 kJ/mol
# Density = 2.219991 g / cm^3
# Si number density = 22.250549 Si / 1000 Ang^3
#
#
#
# Elastic Constant Matrix: (Units=GPa)
#
#
# Indices 1 2 3 4 5 6 
#
# 1 145.3009 55.0074 29.5979 0.0000 0.0000 0.0000
# 2 55.0074 159.0887 17.6041 0.0000 0.0000 0.0000
# 3 29.5979 17.6041 92.1056 0.0000 0.0000 0.0000
# 4 0.0000 0.0000 0.0000 14.3808 0.0000 0.0000
# 5 0.0000 0.0000 0.0000 0.0000 15.6661 0.0000
# 6 0.0000 0.0000 0.0000 0.0000 0.0000 39.9235
#
#
#
# Elastic Compliance Matrix: (Units=1/GPa)
#
#
# Indices 1 2 3 4 5 6 
#
# 1 0.008323 -0.002638 -0.002170 0.000000 0.000000 0.000000
# 2 -0.002638 0.007258 -0.000540 0.000000 0.000000 0.000000
# 3 -0.002170 -0.000540 0.011658 0.000000 0.000000 0.000000
# 4 0.000000 0.000000 0.000000 0.069537 0.000000 0.000000
# 5 0.000000 0.000000 0.000000 0.000000 0.063832 0.000000
# 6 0.000000 0.000000 0.000000 0.000000 0.000000 0.025048
#
#
# Mechanical properties :
#
#
# Convention : Reuss Voigt Hill
#
# Bulk Modulus (GPa) = 60.44867 66.76825 63.60846
# Shear Modulus (GPa) = 24.76907 33.61313 29.19110
#
# Velocity S-wave (km/s) = 3.34007 3.89094 3.62598
# Velocity P-wave (km/s) = 6.48853 7.08933 6.79557
#
# Compressibility (1/GPa) = 0.01654296
#
# Stress axis : x y z
#
# Youngs Moduli (GPa) = 120.15013 137.78848 85.78035
#
# Poissons Ratio (x) = 0.36343 0.18618
# Poissons Ratio (y) = 0.31691 0.04628
# Poissons Ratio (z) = 0.26078 0.07434
#
# Static dielectric constant tensor:
#      x y z
#    x 1.846040 0.000000 0.000000 
#    y 0.000000 1.891540 0.000000 
#    z 0.000000 0.000000 1.863070 
# 
# From -- ./inp_files/20009.got.cif
#   From: 2010.05.17/outbox.cif.g08.bks.cpg/sg22_11_cif.got.tgz:20009.got - 2010.06.03 23:40:54.
