data_PCOD9326076
_publ_section_title
;
Structure prediction by ZEFSAII (Michael W. Deem and Ramdas Pophale) SiO2 
 PCOD9326076
Probable space group: F 2 2 2
;
_chemical_formula_sum "Si O2"
_cell_formula_units_Z 104
_cell_length_a 19.329650
_cell_length_b 11.651993
_cell_length_c 24.625682
_cell_angle_alpha 90.000000
_cell_angle_beta 90.000000
_cell_angle_gamma 90.000000
_cell_volume 5546.416414
_symmetry_space_group_name_H-M "F 2 2 2"
_symmetry_group_IT_number 22
_symmetry_cell_setting 'orthorhombic'
loop_
_space_group_symop_operation_xyz
x,y,z
-x,-y,z
x,-y,-z
-x,y,-z
x,1/2+y,1/2+z
-x,1/2-y,1/2+z
x,1/2-y,1/2-z
-x,1/2+y,1/2-z
1/2+x,y,1/2+z
1/2-x,-y,1/2+z
1/2+x,-y,1/2-z
1/2-x,y,1/2-z
1/2+x,1/2+y,z
1/2-x,1/2-y,z
1/2+x,1/2-y,-z
1/2-x,1/2+y,-z
loop_
_atom_site_type_symbol
_atom_site_label
_atom_site_fract_x
_atom_site_fract_y
_atom_site_fract_z
Si Si1 0.415833 0.989705 0.061738
Si Si2 0.418454 0.152964 0.154250
Si Si3 0.750000 0.527038 0.250000
Si Si4 0.190701 0.168509 0.150914
Si Si5 0.427668 0.720713 0.363224
Si Si6 0.601090 0.442954 0.268150
Si Si7 0.579357 0.523886 0.859097
O O1 0.400873 0.871503 0.092945
O O2 0.500000 0.000000 0.062220
O O3 0.389786 0.091914 0.100015
O O4 0.392365 0.000000 0.000000
O O5 0.364381 0.243195 0.176179
O O6 0.488774 0.215940 0.137512
O O7 0.428448 0.049982 0.196653
O O8 0.769965 0.603242 0.301450
O O9 0.683502 0.454466 0.265510
O O10 0.250000 0.250000 0.122880
O O11 0.137985 0.071356 0.125630
O O12 0.412650 0.670936 0.303075
O O13 0.401376 0.846915 0.376543
O O14 0.576611 0.460836 0.206691
O O15 0.500000 0.500000 0.877270
#
# Coordination Sequence:
#
# PCOD9326076 Si02
#       7
#    16  16   8  16  16  16  16
#     4   8  16  32  57  85 106 132 175 231 292 337
#     4  10  18  31  55  78 105 134 187 235 269 327
#     4  10  21  32  49  72 106 151 191 216 256 320
#     4  11  21  34  51  75 106 150 194 226 262 321
#     4  10  19  34  50  82 109 136 181 236 278 336
#     4  10  20  31  48  75 106 147 189 221 271 322
#     4  11  21  32  49  76 111 151 178 225 279 320
#
# _framework density 18.750845999999999
#
# number of rings (size 3 to 8) (size 9 to 14) (size 15 to 20)
#    0.000    2.000    3.077    3.000    2.154    0.000 
#    0.000    6.154    0.000    0.923    4.000    0.000 
#    0.000    0.000    0.000    0.000    0.000    0.000 
#
# Total GULP energy -144779.143424 kJ/mol
# GULP energy per Si atom -5568.428593 kJ/mol
# Density = 1.870817 g / cm^3
# Si number density = 18.750846 Si / 1000 Ang^3
#
#
#
# Elastic Constant Matrix: (Units=GPa)
#
#
# Indices 1 2 3 4 5 6 
#
# 1 81.6026 36.1190 -8.2600 0.0000 0.0000 0.0000
# 2 36.1190 105.0582 1.9177 0.0000 0.0000 0.0000
# 3 -8.2600 1.9177 50.3014 0.0000 0.0000 0.0000
# 4 0.0000 0.0000 0.0000 6.6027 0.0000 0.0000
# 5 0.0000 0.0000 0.0000 0.0000 1.4908 0.0000
# 6 0.0000 0.0000 0.0000 0.0000 0.0000 28.7681
#
#
#
# Elastic Compliance Matrix: (Units=1/GPa)
#
#
# Indices 1 2 3 4 5 6 
#
# 1 0.014792 -0.005134 0.002625 0.000000 0.000000 0.000000
# 2 -0.005134 0.011307 -0.001274 0.000000 0.000000 0.000000
# 3 0.002625 -0.001274 0.020360 0.000000 0.000000 0.000000
# 4 0.000000 0.000000 0.000000 0.151453 0.000000 0.000000
# 5 0.000000 0.000000 0.000000 0.000000 0.670779 0.000000
# 6 0.000000 0.000000 0.000000 0.000000 0.000000 0.034761
#
#
# Mechanical properties :
#
#
# Convention : Reuss Voigt Hill
#
# Bulk Modulus (GPa) = 25.71141 32.94619 29.32880
# Shear Modulus (GPa) = 5.41136 21.18469 13.29803
#
# Velocity S-wave (km/s) = 1.70065 3.36490 2.66596
# Velocity P-wave (km/s) = 4.19502 5.71886 5.01515
#
# Compressibility (1/GPa) = 0.03889324
#
# Stress axis : x y z
#
# Youngs Moduli (GPa) = 67.60227 88.44319 49.11651
#
# Poissons Ratio (x) = 0.45403 -0.12892
# Poissons Ratio (y) = 0.34704 0.06258
# Poissons Ratio (z) = -0.17744 0.11268
#
# Static dielectric constant tensor:
#      x y z
#    x 1.693910 0.000000 0.000000 
#    y 0.000000 1.697700 0.000000 
#    z 0.000000 0.000000 1.625630 
# 
# From -- ./inp_files/24687.got.cif
#   From: 2010.05.17/outbox.cif.g08.bks.cpg/sg22_13_cif.got.tgz:24687.got - 2010.06.03 23:40:54.
