data_PCOD9326059
_publ_section_title
;
Structure prediction by ZEFSAII (Michael W. Deem and Ramdas Pophale) SiO2 
 PCOD9326059
Probable space group: F 2 2 2
;
_chemical_formula_sum "Si O2"
_cell_formula_units_Z 100
_cell_length_a 15.038245
_cell_length_b 21.628631
_cell_length_c 17.292962
_cell_angle_alpha 90.000000
_cell_angle_beta 90.000000
_cell_angle_gamma 90.000000
_cell_volume 5624.650923
_symmetry_space_group_name_H-M "F 2 2 2"
_symmetry_group_IT_number 22
_symmetry_cell_setting 'orthorhombic'
loop_
_space_group_symop_operation_xyz
x,y,z
-x,-y,z
x,-y,-z
-x,y,-z
x,1/2+y,1/2+z
-x,1/2-y,1/2+z
x,1/2-y,1/2-z
-x,1/2+y,1/2-z
1/2+x,y,1/2+z
1/2-x,-y,1/2+z
1/2+x,-y,1/2-z
1/2-x,y,1/2-z
1/2+x,1/2+y,z
1/2-x,1/2-y,z
1/2+x,1/2-y,-z
1/2-x,1/2+y,-z
loop_
_atom_site_type_symbol
_atom_site_label
_atom_site_fract_x
_atom_site_fract_y
_atom_site_fract_z
Si Si1 0.935961 0.892004 0.573877
Si Si2 0.925231 0.600809 0.384822
Si Si3 0.953588 0.432398 0.789154
Si Si4 0.216090 0.104202 0.386179
Si Si5 0.161470 0.000000 0.500000
Si Si6 0.000000 0.799870 0.000000
Si Si7 0.834929 0.708064 0.996475
Si Si8 0.500000 0.000000 0.500000
O O1 0.899198 0.960501 0.558059
O O2 0.856405 0.843501 0.568001
O O3 0.000000 0.879358 0.500000
O O4 0.990064 0.890195 0.652108
O O5 0.961169 0.586158 0.299861
O O6 0.820368 0.614441 0.371466
O O7 0.977926 0.656205 0.427004
O O8 0.941134 0.543274 0.443449
O O9 0.851583 0.421604 0.820179
O O10 0.000000 0.500000 0.795706
O O11 0.213406 0.050674 0.451459
O O12 0.178043 0.166997 0.425506
O O13 0.083779 0.755090 0.005366
O O14 0.750000 0.750000 0.983479
#
# Coordination Sequence:
#
# PCOD9326059 Si02
#       8
#    16  16  16  16   8   8  16   4
#     4  11  18  34  62  91 121 160 199 249 319 370
#     4  11  24  39  61  88 125 174 209 255 315 382
#     4  12  21  38  61  96 134 156 202 266 329 380
#     4  11  21  36  63  95 127 155 209 263 325 370
#     4  10  18  30  59  95 120 150 200 256 308 376
#     4  11  22  43  64  83 124 169 222 254 310 381
#     4  11  21  39  66  93 118 165 214 260 309 384
#     4  10  22  44  58  84 124 174 220 236 300 400
#
# _framework density 17.778880999999998
#
# number of rings (size 3 to 8) (size 9 to 14) (size 15 to 20)
#    0.000    0.960    8.000    1.200    0.000    0.000 
#    0.000    3.200    0.000    0.960    0.000    0.000 
#    0.000    0.000    0.000    0.000    0.000    0.000 
#
# Total GULP energy -139274.275912 kJ/mol
# GULP energy per Si atom -5570.971036 kJ/mol
# Density = 1.773842 g / cm^3
# Si number density = 17.778881 Si / 1000 Ang^3
#
#
#
# Elastic Constant Matrix: (Units=GPa)
#
#
# Indices 1 2 3 4 5 6 
#
# 1 120.7841 58.5234 44.0422 0.0000 0.0000 0.0000
# 2 58.5234 111.7280 45.9450 0.0000 0.0000 0.0000
# 3 44.0422 45.9450 129.0549 0.0000 0.0000 0.0000
# 4 0.0000 0.0000 0.0000 13.3638 0.0000 0.0000
# 5 0.0000 0.0000 0.0000 0.0000 16.0597 0.0000
# 6 0.0000 0.0000 0.0000 0.0000 0.0000 29.5318
#
#
#
# Elastic Compliance Matrix: (Units=1/GPa)
#
#
# Indices 1 2 3 4 5 6 
#
# 1 0.011560 -0.005193 -0.002096 0.000000 0.000000 0.000000
# 2 -0.005193 0.012818 -0.002791 0.000000 0.000000 0.000000
# 3 -0.002096 -0.002791 0.009458 0.000000 0.000000 0.000000
# 4 0.000000 0.000000 0.000000 0.074829 0.000000 0.000000
# 5 0.000000 0.000000 0.000000 0.000000 0.062268 0.000000
# 6 0.000000 0.000000 0.000000 0.000000 0.000000 0.033862
#
#
# Mechanical properties :
#
#
# Convention : Reuss Voigt Hill
#
# Bulk Modulus (GPa) = 73.12713 73.17647 73.15180
# Shear Modulus (GPa) = 21.78523 25.99482 23.89002
#
# Velocity S-wave (km/s) = 3.50429 3.82791 3.66967
# Velocity P-wave (km/s) = 7.58908 7.79652 7.69350
#
# Compressibility (1/GPa) = 0.01367481
#
# Stress axis : x y z
#
# Youngs Moduli (GPa) = 86.50697 78.01377 105.73388
#
# Poissons Ratio (x) = 0.40513 0.22164
# Poissons Ratio (y) = 0.44923 0.29513
# Poissons Ratio (z) = 0.18133 0.21775
#
# Static dielectric constant tensor:
#      x y z
#    x 1.556870 0.000000 0.000000 
#    y 0.000000 1.640720 0.000000 
#    z 0.000000 0.000000 1.598810 
# 
# From -- ./inp_files/37308.got.cif
#   From: 2010.05.17/outbox.cif.g08.bks.cpg/sg22_19_cif.got.tgz:37308.got - 2010.06.03 23:40:54.
