data_PCOD9326740
_publ_section_title
;
Structure prediction by ZEFSAII (Michael W. Deem and Ramdas Pophale) SiO2 
 PCOD9326740
Probable space group: F 2 2 2
;
_chemical_formula_sum "Si O2"
_cell_formula_units_Z 96
_cell_length_a 25.716315
_cell_length_b 8.429448
_cell_length_c 24.737057
_cell_angle_alpha 90.000000
_cell_angle_beta 90.000000
_cell_angle_gamma 90.000000
_cell_volume 5362.359206
_symmetry_space_group_name_H-M "F 2 2 2"
_symmetry_group_IT_number 22
_symmetry_cell_setting 'orthorhombic'
loop_
_space_group_symop_operation_xyz
x,y,z
-x,-y,z
x,-y,-z
-x,y,-z
x,1/2+y,1/2+z
-x,1/2-y,1/2+z
x,1/2-y,1/2-z
-x,1/2+y,1/2-z
1/2+x,y,1/2+z
1/2-x,-y,1/2+z
1/2+x,-y,1/2-z
1/2-x,y,1/2-z
1/2+x,1/2+y,z
1/2-x,1/2-y,z
1/2+x,1/2-y,-z
1/2-x,1/2+y,-z
loop_
_atom_site_type_symbol
_atom_site_label
_atom_site_fract_x
_atom_site_fract_y
_atom_site_fract_z
Si Si1 0.593405 0.309178 0.885177
Si Si2 0.500000 0.311514 0.688907
Si Si3 0.906595 0.309178 0.385178
Si Si4 0.438728 0.820307 0.500000
Si Si5 0.191278 0.809661 0.437360
Si Si6 0.691278 0.190338 0.937360
O O1 0.552632 0.246768 0.841272
O O2 0.589327 0.500000 0.883875
O O3 0.574706 0.242895 0.943411
O O4 0.653672 0.259975 0.890784
O O5 0.500000 0.500000 0.688370
O O6 0.500000 0.250000 0.750000
O O7 0.447367 0.253233 0.658728
O O8 0.925294 0.242895 0.443411
O O9 0.846328 0.259976 0.390784
O O10 0.500000 0.837318 0.500000
O O11 0.415913 0.000000 0.500000
O O12 0.250000 0.750000 0.429776
O O13 0.176668 0.761116 0.500000
O O14 0.189411 1.000000 0.435514
O O15 0.750000 0.250000 0.929776
#
# Coordination Sequence:
#
# PCOD9326740 Si02
#       6
#    16  16  16  16  16  16
#     4  11  20  35  58  84 115 152 188 232 285 340
#     4  12  26  43  60  83 111 147 193 241 288 340
#     4  11  20  35  58  84 115 152 188 232 285 340
#     4   9  16  28  49  80 113 146 181 217 274 342
#     4  10  20  33  51  81 119 157 194 232 277 334
#     4  10  20  33  51  81 119 157 194 232 277 334
#
# _framework density 17.902567000000001
#
# number of rings (size 3 to 8) (size 9 to 14) (size 15 to 20)
#    0.000    1.500    3.333    3.500    0.000    1.333 
#    0.000    0.833    0.000    1.000    0.000    7.000 
#    0.000    0.000    0.000    0.000    0.000    0.000 
#
# Total GULP energy -133677.436025 kJ/mol
# GULP energy per Si atom -5569.893168 kJ/mol
# Density = 1.786182 g / cm^3
# Si number density = 17.902567 Si / 1000 Ang^3
#
#
#
# Elastic Constant Matrix: (Units=GPa)
#
#
# Indices 1 2 3 4 5 6 
#
# 1 133.5578 47.8318 73.3918 0.0000 0.0000 0.0000
# 2 47.8318 93.5521 38.2912 0.0000 0.0000 0.0000
# 3 73.3918 38.2912 120.7322 0.0000 0.0000 0.0000
# 4 0.0000 0.0000 0.0000 31.8664 0.0000 0.0000
# 5 0.0000 0.0000 0.0000 0.0000 14.3513 0.0000
# 6 0.0000 0.0000 0.0000 0.0000 0.0000 30.7052
#
#
#
# Elastic Compliance Matrix: (Units=1/GPa)
#
#
# Indices 1 2 3 4 5 6 
#
# 1 0.012264 -0.003699 -0.006282 0.000000 0.000000 0.000000
# 2 -0.003699 0.013400 -0.002001 0.000000 0.000000 0.000000
# 3 -0.006282 -0.002001 0.012736 0.000000 0.000000 0.000000
# 4 0.000000 0.000000 0.000000 0.031381 0.000000 0.000000
# 5 0.000000 0.000000 0.000000 0.000000 0.069680 0.000000
# 6 0.000000 0.000000 0.000000 0.000000 0.000000 0.032568
#
#
# Mechanical properties :
#
#
# Convention : Reuss Voigt Hill
#
# Bulk Modulus (GPa) = 69.27424 74.09685 71.68554
# Shear Modulus (GPa) = 24.89966 27.93973 26.41969
#
# Velocity S-wave (km/s) = 3.73345 3.95480 3.84572
# Velocity P-wave (km/s) = 7.57390 7.89511 7.73617
#
# Compressibility (1/GPa) = 0.01443538
#
# Stress axis : x y z
#
# Youngs Moduli (GPa) = 81.53717 74.62878 78.51597
#
# Poissons Ratio (x) = 0.27607 0.49325
# Poissons Ratio (y) = 0.30163 0.15711
# Poissons Ratio (z) = 0.51222 0.14934
#
# Static dielectric constant tensor:
#      x y z
#    x 1.691170 0.000000 0.000000 
#    y 0.000000 1.639630 0.000000 
#    z 0.000000 0.000000 1.618250 
# 
# From -- ./inp_files/50196.got.cif
#   From: 2010.05.17/outbox.cif.g08.bks.cpg/sg22_26_cif.got.tgz:50196.got - 2010.06.03 23:40:54.
