data_PCOD9326971
_publ_section_title
;
Structure prediction by ZEFSAII (Michael W. Deem and Ramdas Pophale) SiO2 
 PCOD9326971
Probable space group: F 2 2 2
;
_chemical_formula_sum "Si O2"
_cell_formula_units_Z 88
_cell_length_a 27.830423
_cell_length_b 7.844805
_cell_length_c 19.569504
_cell_angle_alpha 90.000000
_cell_angle_beta 90.000000
_cell_angle_gamma 90.000000
_cell_volume 4272.497117
_symmetry_space_group_name_H-M "F 2 2 2"
_symmetry_group_IT_number 22
_symmetry_cell_setting 'orthorhombic'
loop_
_space_group_symop_operation_xyz
x,y,z
-x,-y,z
x,-y,-z
-x,y,-z
x,1/2+y,1/2+z
-x,1/2-y,1/2+z
x,1/2-y,1/2-z
-x,1/2+y,1/2-z
1/2+x,y,1/2+z
1/2-x,-y,1/2+z
1/2+x,-y,1/2-z
1/2-x,y,1/2-z
1/2+x,1/2+y,z
1/2-x,1/2-y,z
1/2+x,1/2-y,-z
1/2-x,1/2+y,-z
loop_
_atom_site_type_symbol
_atom_site_label
_atom_site_fract_x
_atom_site_fract_y
_atom_site_fract_z
Si Si1 0.839174 0.458055 0.152819
Si Si2 0.357196 0.160860 0.388134
Si Si3 0.447285 0.076441 0.621162
Si Si4 0.597903 0.750000 0.750000
Si Si5 0.605567 0.686800 0.524773
Si Si6 0.261011 0.943123 0.668371
O O1 0.850268 0.659727 0.150263
O O2 0.865295 0.389606 0.220013
O O3 0.862534 0.360745 0.089838
O O4 0.782064 0.436887 0.144699
O O5 0.362118 0.219282 0.467488
O O6 0.314433 0.036092 0.361776
O O7 0.407766 0.072398 0.374830
O O8 0.435751 0.188157 0.688315
O O9 0.435292 0.188759 0.553911
O O10 0.500000 0.000000 0.620299
O O11 0.587720 0.500000 0.500000
O O12 0.250000 0.943707 0.750000
O O13 0.250000 0.750000 0.644328
#
# Coordination Sequence:
#
# PCOD9326971 Si02
#       6
#    16  16  16   8  16  16
#     4   9  19  38  61  87 122 160 196 249 313 372
#     4  10  20  37  61  88 120 158 205 254 299 365
#     4  11  24  41  63  89 119 159 205 256 310 369
#     4  10  22  40  61  92 126 154 201 256 314 380
#     4   9  20  41  61  86 124 159 200 254 309 368
#     4   9  17  32  57  86 115 154 201 247 304 365
#
# _framework density 20.596852999999999
#
# number of rings (size 3 to 8) (size 9 to 14) (size 15 to 20)
#    0.000    2.364    0.000    1.636    0.000    5.091 
#    0.000   33.182    0.000    0.000    0.000    0.000 
#    0.000    0.000    0.000    0.000    0.000    0.000 
#
# Total GULP energy -122635.823585 kJ/mol
# GULP energy per Si atom -5574.355618 kJ/mol
# Density = 2.054997 g / cm^3
# Si number density = 20.596853 Si / 1000 Ang^3
#
#
#
# Elastic Constant Matrix: (Units=GPa)
#
#
# Indices 1 2 3 4 5 6 
#
# 1 194.4994 63.8319 48.0872 0.0000 0.0000 0.0000
# 2 63.8319 69.7939 36.2256 0.0000 0.0000 0.0000
# 3 48.0872 36.2256 85.7573 0.0000 0.0000 0.0000
# 4 0.0000 0.0000 0.0000 25.1519 0.0000 0.0000
# 5 0.0000 0.0000 0.0000 0.0000 14.3671 0.0000
# 6 0.0000 0.0000 0.0000 0.0000 0.0000 33.5918
#
#
#
# Elastic Compliance Matrix: (Units=1/GPa)
#
#
# Indices 1 2 3 4 5 6 
#
# 1 0.007531 -0.006015 -0.001682 0.000000 0.000000 0.000000
# 2 -0.006015 0.023155 -0.006408 0.000000 0.000000 0.000000
# 3 -0.001682 -0.006408 0.015311 0.000000 0.000000 0.000000
# 4 0.000000 0.000000 0.000000 0.039758 0.000000 0.000000
# 5 0.000000 0.000000 0.000000 0.000000 0.069603 0.000000
# 6 0.000000 0.000000 0.000000 0.000000 0.000000 0.029769
#
#
# Mechanical properties :
#
#
# Convention : Reuss Voigt Hill
#
# Bulk Modulus (GPa) = 56.22240 71.81555 64.01898
# Shear Modulus (GPa) = 22.80310 28.08257 25.44284
#
# Velocity S-wave (km/s) = 3.33094 3.69648 3.51846
# Velocity P-wave (km/s) = 6.49226 7.29120 6.90330
#
# Compressibility (1/GPa) = 0.01778650
#
# Stress axis : x y z
#
# Youngs Moduli (GPa) = 132.77937 43.18706 65.31161
#
# Poissons Ratio (x) = 0.25976 0.10987
# Poissons Ratio (y) = 0.79864 0.41855
# Poissons Ratio (z) = 0.22338 0.27676
#
# Static dielectric constant tensor:
#      x y z
#    x 1.741400 0.000000 0.000000 
#    y 0.000000 1.772020 0.000000 
#    z 0.000000 0.000000 1.780530 
# 
# From -- ./inp_files/45229.got.cif
#   From: 2010.05.17/outbox.cif.g08.bks.cpg/sg22_23_cif.got.tgz:45229.got - 2010.06.03 23:40:54.
