data_PCOD9326587
_publ_section_title
;
Structure prediction by ZEFSAII (Michael W. Deem and Ramdas Pophale) SiO2 
 PCOD9326587
Probable space group: F 2 2 2
;
_chemical_formula_sum "Si O2"
_cell_formula_units_Z 80
_cell_length_a 11.118781
_cell_length_b 17.315995
_cell_length_c 20.013362
_cell_angle_alpha 90.000000
_cell_angle_beta 90.000000
_cell_angle_gamma 90.000000
_cell_volume 3853.227747
_symmetry_space_group_name_H-M "F 2 2 2"
_symmetry_group_IT_number 22
_symmetry_cell_setting 'orthorhombic'
loop_
_space_group_symop_operation_xyz
x,y,z
-x,-y,z
x,-y,-z
-x,y,-z
x,1/2+y,1/2+z
-x,1/2-y,1/2+z
x,1/2-y,1/2-z
-x,1/2+y,1/2-z
1/2+x,y,1/2+z
1/2-x,-y,1/2+z
1/2+x,-y,1/2-z
1/2-x,y,1/2-z
1/2+x,1/2+y,z
1/2-x,1/2-y,z
1/2+x,1/2-y,-z
1/2-x,1/2+y,-z
loop_
_atom_site_type_symbol
_atom_site_label
_atom_site_fract_x
_atom_site_fract_y
_atom_site_fract_z
Si Si1 0.840619 0.607489 0.554001
Si Si2 0.882489 0.130356 0.275712
Si Si3 0.000000 0.500000 0.131798
Si Si4 0.242084 0.937329 0.585251
Si Si5 0.250000 0.750000 0.360187
Si Si6 0.962763 0.411812 0.654715
O O1 0.791202 0.524718 0.578102
O O2 0.786803 0.609296 0.479574
O O3 0.792728 0.680287 0.594017
O O4 0.978381 0.603708 0.580959
O O5 0.750000 0.106167 0.250000
O O6 0.852684 0.209111 0.315375
O O7 0.972772 0.135914 0.213029
O O8 0.931368 0.063184 0.323498
O O9 0.100082 0.450315 0.091982
O O10 0.319374 0.904348 0.647269
O O11 0.000000 0.500000 0.671128
#
# Coordination Sequence:
#
# PCOD9326587 Si02
#       6
#    16  16   8  16   8  16
#     4  10  21  39  68  95 134 179 234 292 353 428
#     4  12  23  39  67 100 137 178 235 295 353 428
#     4  12  24  41  68 104 141 182 242 308 354 422
#     4  10  22  42  63  99 135 182 239 298 352 421
#     4  12  23  42  66 104 132 185 236 290 374 427
#     4  10  19  37  65  99 131 175 230 289 348 423
#
# _framework density 20.761814999999999
#
# number of rings (size 3 to 8) (size 9 to 14) (size 15 to 20)
#    0.000    1.200    5.000    2.100    0.000    4.000 
#    0.000    4.000    0.000    0.000    5.200    0.000 
#    0.000    0.000    0.000    0.000    0.000    0.000 
#
# Total GULP energy -111426.789762 kJ/mol
# GULP energy per Si atom -5571.339488 kJ/mol
# Density = 2.071456 g / cm^3
# Si number density = 20.761815 Si / 1000 Ang^3
#
#
#
# Elastic Constant Matrix: (Units=GPa)
#
#
# Indices 1 2 3 4 5 6 
#
# 1 119.3998 16.9638 63.3891 0.0000 0.0000 0.0000
# 2 16.9638 100.4298 55.9905 0.0000 0.0000 0.0000
# 3 63.3891 55.9905 111.6978 0.0000 0.0000 0.0000
# 4 0.0000 0.0000 0.0000 168.2528 0.0000 0.0000
# 5 0.0000 0.0000 0.0000 0.0000 2.8202 0.0000
# 6 0.0000 0.0000 0.0000 0.0000 0.0000 31.8602
#
#
#
# Elastic Compliance Matrix: (Units=1/GPa)
#
#
# Indices 1 2 3 4 5 6 
#
# 1 0.012439 0.002546 -0.008335 0.000000 0.000000 0.000000
# 2 0.002546 0.014340 -0.008633 0.000000 0.000000 0.000000
# 3 -0.008335 -0.008633 0.018010 0.000000 0.000000 0.000000
# 4 0.000000 0.000000 0.000000 0.005943 0.000000 0.000000
# 5 0.000000 0.000000 0.000000 0.000000 0.354584 0.000000
# 6 0.000000 0.000000 0.000000 0.000000 0.000000 0.031387
#
#
# Mechanical properties :
#
#
# Convention : Reuss Voigt Hill
#
# Bulk Modulus (GPa) = 62.71721 67.13490 64.92606
# Shear Modulus (GPa) = 10.61880 53.59890 32.10885
#
# Velocity S-wave (km/s) = 2.26400 5.08647 3.93687
# Velocity P-wave (km/s) = 6.09162 8.17937 7.21145
#
# Compressibility (1/GPa) = 0.01594459
#
# Stress axis : x y z
#
# Youngs Moduli (GPa) = 80.39469 69.73402 55.52330
#
# Poissons Ratio (x) = -0.17754 0.46280
# Poissons Ratio (y) = -0.20468 0.47934
# Poissons Ratio (z) = 0.67010 0.60202
#
# Static dielectric constant tensor:
#      x y z
#    x 1.771030 0.000000 0.000000 
#    y 0.000000 1.709190 0.000000 
#    z 0.000000 0.000000 1.833270 
# 
# From -- ./inp_files/42600.got.cif
#   From: 2010.05.17/outbox.cif.g08.bks.cpg/sg22_22_cif.got.tgz:42600.got - 2010.06.03 23:40:54.
