data_PCOD9326910
_publ_section_title
;
Structure prediction by ZEFSAII (Michael W. Deem and Ramdas Pophale) SiO2 
 PCOD9326910
Probable space group: F 2 2 2
;
_chemical_formula_sum "Si O2"
_cell_formula_units_Z 120
_cell_length_a 24.655474
_cell_length_b 29.799159
_cell_length_c 8.724797
_cell_angle_alpha 90.000000
_cell_angle_beta 90.000000
_cell_angle_gamma 90.000000
_cell_volume 6410.216456
_symmetry_space_group_name_H-M "F 2 2 2"
_symmetry_group_IT_number 22
_symmetry_cell_setting 'orthorhombic'
loop_
_space_group_symop_operation_xyz
x,y,z
-x,-y,z
x,-y,-z
-x,y,-z
x,1/2+y,1/2+z
-x,1/2-y,1/2+z
x,1/2-y,1/2-z
-x,1/2+y,1/2-z
1/2+x,y,1/2+z
1/2-x,-y,1/2+z
1/2+x,-y,1/2-z
1/2-x,y,1/2-z
1/2+x,1/2+y,z
1/2-x,1/2-y,z
1/2+x,1/2-y,-z
1/2-x,1/2+y,-z
loop_
_atom_site_type_symbol
_atom_site_label
_atom_site_fract_x
_atom_site_fract_y
_atom_site_fract_z
Si Si1 0.350357 0.477546 0.846765
Si Si2 0.413062 0.697608 0.779523
Si Si3 0.170761 0.137574 0.092433
Si Si4 0.591785 0.111800 0.312180
Si Si5 0.250145 0.587216 0.076341
Si Si6 0.847498 0.436198 0.859116
Si Si7 0.064133 0.874942 0.518368
Si Si8 0.500000 0.347711 0.000000
O O1 0.391219 0.439520 0.789994
O O2 0.294879 0.452874 0.905221
O O3 0.342342 0.515137 0.717886
O O4 0.373642 0.500000 0.000000
O O5 0.417023 0.750000 0.750000
O O6 0.353338 0.682682 0.837512
O O7 0.425409 0.666453 0.632551
O O8 0.457242 0.682223 0.906144
O O9 0.163752 0.098854 0.220347
O O10 0.133783 0.128509 0.941615
O O11 0.230396 0.128176 0.030548
O O12 0.591329 0.134737 0.146710
O O13 0.533224 0.121039 0.384069
O O14 0.250000 0.604277 0.250000
O O15 0.195764 0.569372 0.996947
O O16 0.905994 0.419390 0.917292
O O17 0.000000 0.881539 0.500000
#
# Coordination Sequence:
#
# PCOD9326910 Si02
#       8
#    16  16  16  16  16  16  16   8
#     4  11  23  36  57  89 123 157 220 263 303 360
#     4  10  22  39  66  95 121 154 205 267 322 386
#     4   9  20  38  59  88 125 159 201 249 329 392
#     4  10  20  38  57  83 122 166 198 256 305 370
#     4  11  23  35  61  91 124 166 211 268 312 364
#     4  11  22  39  60  88 123 171 211 262 314 362
#     4  11  23  41  62  86 129 161 212 255 315 385
#     4  10  20  36  63  84 120 160 204 245 318 374
#
# _framework density 18.720116000000001
#
# number of rings (size 3 to 8) (size 9 to 14) (size 15 to 20)
#    0.000    1.600    4.000    2.000    2.800    1.600 
#    0.000    5.000    0.000    6.400    0.000    7.467 
#    0.000    0.000    0.000    0.000    0.000    0.000 
#
# Total GULP energy -167233.404942 kJ/mol
# GULP energy per Si atom -5574.446831 kJ/mol
# Density = 1.867751 g / cm^3
# Si number density = 18.720116 Si / 1000 Ang^3
#
#
#
# Elastic Constant Matrix: (Units=GPa)
#
#
# Indices 1 2 3 4 5 6 
#
# 1 72.0476 71.0458 35.3686 -0.0021 0.0075 0.0022
# 2 71.0458 99.0604 42.0431 0.0004 0.0005 0.0000
# 3 35.3686 42.0431 119.7196 -0.0021 0.0075 0.0019
# 4 -0.0021 0.0004 -0.0021 23.7692 0.0012 -0.0001
# 5 0.0075 0.0005 0.0075 0.0012 35.4325 -0.0016
# 6 0.0022 0.0000 0.0019 -0.0001 -0.0016 15.2257
#
#
#
# Elastic Compliance Matrix: (Units=1/GPa)
#
#
# Indices 1 2 3 4 5 6 
#
# 1 0.048015 -0.033393 -0.002458 0.000005 -0.000009 -0.000007
# 2 -0.033393 0.035087 -0.002457 -0.000004 0.000007 0.000005
# 3 -0.002458 -0.002457 0.009942 0.000001 -0.000002 -0.000001
# 4 0.000005 -0.000004 0.000001 0.042071 -0.000001 0.000000
# 5 -0.000009 0.000007 -0.000002 -0.000001 0.028223 0.000003
# 6 -0.000007 0.000005 -0.000001 0.000000 0.000003 0.065679
#
#
# Mechanical properties :
#
#
# Convention : Reuss Voigt Hill
#
# Bulk Modulus (GPa) = 60.87023 65.30472 63.08747
# Shear Modulus (GPa) = 16.07161 24.37683 20.22422
#
# Velocity S-wave (km/s) = 2.93323 3.61248 3.29043
# Velocity P-wave (km/s) = 6.63764 7.23606 6.94330
#
# Compressibility (1/GPa) = 0.01642839
#
# Stress axis : x y z
#
# Youngs Moduli (GPa) = 20.82674 28.50072 100.58623
#
# Poissons Ratio (x) = 0.95173 0.24725
# Poissons Ratio (y) = 0.69547 0.24709
# Poissons Ratio (z) = 0.05119 0.07001
#
# Static dielectric constant tensor:
#      x y z
#    x 1.690240 0.000000 0.000000 
#    y 0.000000 1.615800 0.000000 
#    z 0.000000 0.000000 1.713360 
# 
# From -- ./inp_files/15047.got.cif
#   From: 2010.05.17/outbox.cif.g08.bks.cpg/sg22_8_cif.got.tgz:15047.got - 2010.06.03 23:40:54.
