data_PCOD9326069
_publ_section_title
;
Structure prediction by ZEFSAII (Michael W. Deem and Ramdas Pophale) SiO2 
 PCOD9326069
Probable space group: F 2 2 2
;
_chemical_formula_sum "Si O2"
_cell_formula_units_Z 128
_cell_length_a 25.038643
_cell_length_b 25.373702
_cell_length_c 12.688798
_cell_angle_alpha 90.000000
_cell_angle_beta 90.000000
_cell_angle_gamma 90.000000
_cell_volume 8061.486049
_symmetry_space_group_name_H-M "F 2 2 2"
_symmetry_group_IT_number 22
_symmetry_cell_setting 'orthorhombic'
loop_
_space_group_symop_operation_xyz
x,y,z
-x,-y,z
x,-y,-z
-x,y,-z
x,1/2+y,1/2+z
-x,1/2-y,1/2+z
x,1/2-y,1/2-z
-x,1/2+y,1/2-z
1/2+x,y,1/2+z
1/2-x,-y,1/2+z
1/2+x,-y,1/2-z
1/2-x,y,1/2-z
1/2+x,1/2+y,z
1/2-x,1/2-y,z
1/2+x,1/2-y,-z
1/2-x,1/2+y,-z
loop_
_atom_site_type_symbol
_atom_site_label
_atom_site_fract_x
_atom_site_fract_y
_atom_site_fract_z
Si Si1 0.197397 0.135022 0.181486
Si Si2 0.770491 0.139017 0.358718
Si Si3 0.199390 0.214108 0.998424
Si Si4 0.938502 0.625787 0.959218
Si Si5 0.869917 0.921679 0.348132
Si Si6 0.738524 0.556318 0.458949
Si Si7 0.060992 0.485638 0.876796
Si Si8 0.128107 0.784885 0.355546
O O1 0.250000 0.150446 0.250000
O O2 0.149842 0.117652 0.257624
O O3 0.217641 0.085589 0.111745
O O4 0.182965 0.180183 0.098896
O O5 0.750000 0.115867 0.250000
O O6 0.725337 0.177278 0.407897
O O7 0.777842 0.094249 0.444880
O O8 0.823011 0.173869 0.337772
O O9 0.250000 0.250000 0.030700
O O10 0.152027 0.247020 0.946353
O O11 0.931372 0.577064 0.876643
O O12 0.919519 0.679442 0.902998
O O13 0.901374 0.610532 0.060282
O O14 0.000000 0.626213 0.000000
O O15 0.815546 0.947102 0.392450
O O16 0.904213 0.972356 0.313261
O O17 0.756133 0.500000 0.500000
O O18 0.000000 0.500000 0.855939
O O19 0.071604 0.500000 0.000000
O O20 0.117784 0.750000 0.250000
#
# Coordination Sequence:
#
# PCOD9326069 Si02
#       8
#    16  16  16  16  16  16  16  16
#     4   9  20  34  46  73 112 144 176 207 252 328
#     4  10  18  31  52  75 101 137 179 215 255 312
#     4   9  19  33  51  72 103 145 181 217 252 300
#     4  11  20  35  55  82 107 132 176 229 277 307
#     4  10  18  32  53  76 107 139 172 215 264 323
#     4  10  19  32  47  75 114 143 165 208 269 321
#     4   9  15  30  54  77  98 128 163 223 269 304
#     4  11  21  35  54  78 105 135 183 228 261 308
#
# _framework density 15.877965
#
# number of rings (size 3 to 8) (size 9 to 14) (size 15 to 20)
#    0.000    2.125    5.000    1.125    1.750    1.750 
#    0.000    1.250    0.000    0.000    0.000    0.000 
#    0.000    0.000    0.000    0.000    0.000    0.000 
#
# Total GULP energy -178223.928909 kJ/mol
# GULP energy per Si atom -5569.497778 kJ/mol
# Density = 1.584183 g / cm^3
# Si number density = 15.877965 Si / 1000 Ang^3
#
#
#
# Elastic Constant Matrix: (Units=GPa)
#
#
# Indices 1 2 3 4 5 6 
#
# 1 51.7372 36.5843 32.5226 0.0000 0.0000 0.0000
# 2 36.5843 92.3264 35.7484 0.0000 0.0000 0.0000
# 3 32.5226 35.7484 67.8046 0.0000 0.0000 0.0000
# 4 0.0000 0.0000 0.0000 14.6600 0.0000 0.0000
# 5 0.0000 0.0000 0.0000 0.0000 10.2365 0.0000
# 6 0.0000 0.0000 0.0000 0.0000 0.0000 24.0930
#
#
#
# Elastic Compliance Matrix: (Units=1/GPa)
#
#
# Indices 1 2 3 4 5 6 
#
# 1 0.032262 -0.008534 -0.010975 0.000000 0.000000 0.000000
# 2 -0.008534 0.015867 -0.004272 0.000000 0.000000 0.000000
# 3 -0.010975 -0.004272 0.022265 0.000000 0.000000 0.000000
# 4 0.000000 0.000000 0.000000 0.068213 0.000000 0.000000
# 5 0.000000 0.000000 0.000000 0.000000 0.097689 0.000000
# 6 0.000000 0.000000 0.000000 0.000000 0.000000 0.041506
#
#
# Mechanical properties :
#
#
# Convention : Reuss Voigt Hill
#
# Bulk Modulus (GPa) = 43.79983 46.84210 45.32097
# Shear Modulus (GPa) = 15.01612 16.93211 15.97411
#
# Velocity S-wave (km/s) = 3.07859 3.26911 3.17528
# Velocity P-wave (km/s) = 6.34682 6.61927 6.48448
#
# Compressibility (1/GPa) = 0.02283114
#
# Stress axis : x y z
#
# Youngs Moduli (GPa) = 30.99587 63.02401 44.91400
#
# Poissons Ratio (x) = 0.53787 0.49294
# Poissons Ratio (y) = 0.26453 0.19187
# Poissons Ratio (z) = 0.34018 0.26924
#
# Static dielectric constant tensor:
#      x y z
#    x 1.533630 0.000000 0.000000 
#    y 0.000000 1.566420 0.000000 
#    z 0.000000 0.000000 1.530500 
# 
# From -- ./inp_files/24070.got.cif
#   From: 2010.05.17/outbox.cif.g08.bks.cpg/sg22_13_cif.got.tgz:24070.got - 2010.06.03 23:40:54.
