data_PCOD9326282
_publ_section_title
;
Structure prediction by ZEFSAII (Michael W. Deem and Ramdas Pophale) SiO2 
 PCOD9326282
Probable space group: F 2 2 2
;
_chemical_formula_sum "Si O2"
_cell_formula_units_Z 128
_cell_length_a 23.489707
_cell_length_b 25.720064
_cell_length_c 13.361354
_cell_angle_alpha 90.000000
_cell_angle_beta 90.000000
_cell_angle_gamma 90.000000
_cell_volume 8072.352440
_symmetry_space_group_name_H-M "F 2 2 2"
_symmetry_group_IT_number 22
_symmetry_cell_setting 'orthorhombic'
loop_
_space_group_symop_operation_xyz
x,y,z
-x,-y,z
x,-y,-z
-x,y,-z
x,1/2+y,1/2+z
-x,1/2-y,1/2+z
x,1/2-y,1/2-z
-x,1/2+y,1/2-z
1/2+x,y,1/2+z
1/2-x,-y,1/2+z
1/2+x,-y,1/2-z
1/2-x,y,1/2-z
1/2+x,1/2+y,z
1/2-x,1/2-y,z
1/2+x,1/2-y,-z
1/2-x,1/2+y,-z
loop_
_atom_site_type_symbol
_atom_site_label
_atom_site_fract_x
_atom_site_fract_y
_atom_site_fract_z
Si Si1 0.881422 0.422779 0.804980
Si Si2 0.160888 0.945761 0.058499
Si Si3 0.316504 0.749245 0.630019
Si Si4 0.997242 0.936809 0.615808
Si Si5 0.697516 0.860356 0.063659
Si Si6 0.884004 0.046464 0.270865
Si Si7 0.671427 0.635752 0.114193
Si Si8 0.227163 0.101303 0.646726
O O1 0.842304 0.407360 0.899783
O O2 0.879198 0.484190 0.782954
O O3 0.856249 0.389091 0.713246
O O4 0.947721 0.413523 0.829087
O O5 0.118359 0.943093 0.152088
O O6 0.223576 0.937326 0.106568
O O7 0.153710 0.899737 0.978935
O O8 0.157274 0.000000 0.000000
O O9 0.318819 0.750000 0.750000
O O10 0.250000 0.750000 0.599282
O O11 0.334898 0.692917 0.591591
O O12 0.343730 0.803698 0.597606
O O13 0.938686 0.928724 0.675158
O O14 0.000000 0.919880 0.500000
O O15 0.000000 0.000000 0.614444
O O16 0.759003 0.864978 0.119622
O O17 0.712351 0.862306 0.946631
O O18 0.828679 0.070353 0.322558
O O19 0.250000 0.126497 0.750000
#
# Coordination Sequence:
#
# PCOD9326282 Si02
#       8
#    16  16  16  16  16  16  16  16
#     4  11  19  28  49  75  96 131 173 207 257 308
#     4  10  19  31  47  73 104 137 165 197 248 313
#     4   9  16  29  46  72 105 133 157 208 261 305
#     4   9  19  34  47  66  96 132 176 215 244 290
#     4  10  19  29  50  76 106 133 167 209 266 308
#     4  10  20  33  48  67 105 137 170 210 249 295
#     4  10  19  30  47  75 111 131 164 205 260 315
#     4   9  20  31  46  72 104 134 168 202 249 307
#
# _framework density 15.856591999999999
#
# number of rings (size 3 to 8) (size 9 to 14) (size 15 to 20)
#    0.000    2.250    2.500    1.125    3.500    2.000 
#    0.000    0.625    0.000   17.625    0.000    8.750 
#    0.000    0.000    0.000    0.000    0.000    0.000 
#
# Total GULP energy -178155.987798 kJ/mol
# GULP energy per Si atom -5567.374619 kJ/mol
# Density = 1.582050 g / cm^3
# Si number density = 15.856592 Si / 1000 Ang^3
#
#
#
# Elastic Constant Matrix: (Units=GPa)
#
#
# Indices 1 2 3 4 5 6 
#
# 1 72.4857 24.3281 49.6058 0.0000 0.0000 0.0000
# 2 24.3281 77.5699 39.7350 0.0000 0.0000 0.0000
# 3 49.6058 39.7350 119.1063 0.0000 0.0000 0.0000
# 4 0.0000 0.0000 0.0000 18.0299 0.0000 0.0000
# 5 0.0000 0.0000 0.0000 0.0000 19.5518 0.0000
# 6 0.0000 0.0000 0.0000 0.0000 0.0000 6.7980
#
#
#
# Elastic Compliance Matrix: (Units=1/GPa)
#
#
# Indices 1 2 3 4 5 6 
#
# 1 0.019652 -0.002377 -0.007392 0.000000 0.000000 0.000000
# 2 -0.002377 0.015836 -0.004293 0.000000 0.000000 0.000000
# 3 -0.007392 -0.004293 0.012907 0.000000 0.000000 0.000000
# 4 0.000000 0.000000 0.000000 0.055463 0.000000 0.000000
# 5 0.000000 0.000000 0.000000 0.000000 0.051146 0.000000
# 6 0.000000 0.000000 0.000000 0.000000 0.000000 0.147103
#
#
# Mechanical properties :
#
#
# Convention : Reuss Voigt Hill
#
# Bulk Modulus (GPa) = 49.33118 55.16662 52.24890
# Shear Modulus (GPa) = 14.83729 19.24213 17.03971
#
# Velocity S-wave (km/s) = 3.06227 3.48733 3.28169
# Velocity P-wave (km/s) = 6.60921 7.14715 6.88344
#
# Compressibility (1/GPa) = 0.02027115
#
# Stress axis : x y z
#
# Youngs Moduli (GPa) = 50.88475 63.14629 77.47939
#
# Poissons Ratio (x) = 0.15010 0.57271
# Poissons Ratio (y) = 0.12096 0.33263
# Poissons Ratio (z) = 0.37613 0.27109
#
# Static dielectric constant tensor:
#      x y z
#    x 1.527320 0.000000 0.000000 
#    y 0.000000 1.536540 0.000000 
#    z 0.000000 0.000000 1.556050 
# 
# From -- ./inp_files/24128.got.cif
#   From: 2010.05.17/outbox.cif.g08.bks.cpg/sg22_13_cif.got.tgz:24128.got - 2010.06.03 23:40:54.
