data_PCOD9326517
_publ_section_title
;
Structure prediction by ZEFSAII (Michael W. Deem and Ramdas Pophale) SiO2 
 PCOD9326517
Probable space group: F 2 2 2
;
_chemical_formula_sum "Si O2"
_cell_formula_units_Z 96
_cell_length_a 16.577280
_cell_length_b 15.933302
_cell_length_c 17.648468
_cell_angle_alpha 90.000000
_cell_angle_beta 90.000000
_cell_angle_gamma 90.000000
_cell_volume 4661.504123
_symmetry_space_group_name_H-M "F 2 2 2"
_symmetry_group_IT_number 22
_symmetry_cell_setting 'orthorhombic'
loop_
_space_group_symop_operation_xyz
x,y,z
-x,-y,z
x,-y,-z
-x,y,-z
x,1/2+y,1/2+z
-x,1/2-y,1/2+z
x,1/2-y,1/2-z
-x,1/2+y,1/2-z
1/2+x,y,1/2+z
1/2-x,-y,1/2+z
1/2+x,-y,1/2-z
1/2-x,y,1/2-z
1/2+x,1/2+y,z
1/2-x,1/2-y,z
1/2+x,1/2-y,-z
1/2-x,1/2+y,-z
loop_
_atom_site_type_symbol
_atom_site_label
_atom_site_fract_x
_atom_site_fract_y
_atom_site_fract_z
Si Si1 0.738179 0.148880 0.960539
Si Si2 0.033786 0.836812 0.791726
Si Si3 0.675360 0.075937 0.803965
Si Si4 0.079558 0.334737 0.956979
Si Si5 0.066309 0.570328 0.190528
Si Si6 0.580171 0.150964 0.532476
O O1 0.750000 0.250000 0.957085
O O2 0.699256 0.118609 0.882232
O O3 0.829083 0.114038 0.972719
O O4 0.667020 0.128966 0.020030
O O5 0.017460 0.750000 0.750000
O O6 0.103955 0.877675 0.740632
O O7 0.061480 0.830826 0.878587
O O8 0.957568 0.896809 0.773837
O O9 0.750000 0.082229 0.750000
O O10 0.648763 0.980036 0.813500
O O11 0.065551 0.354541 0.869442
O O12 0.083242 0.237654 0.983501
O O13 0.000000 0.370016 0.000000
O O14 0.000000 0.500000 0.167031
O O15 0.500000 0.105522 0.500000
#
# Coordination Sequence:
#
# PCOD9326517 Si02
#       6
#    16  16  16  16  16  16
#     4  10  20  35  59  96 125 161 214 276 327 378
#     4  11  20  37  66  95 124 161 216 271 329 384
#     4  11  22  37  61  91 128 166 212 270 328 386
#     4  10  19  36  59  91 126 158 210 265 330 379
#     4  10  23  40  61  91 128 171 207 265 330 395
#     4  10  20  36  59  91 126 162 208 267 321 381
#
# _framework density 20.59421
#
# number of rings (size 3 to 8) (size 9 to 14) (size 15 to 20)
#    0.000    1.667    1.667    6.000    0.000    2.333 
#    3.000    0.000    0.000    4.500    0.000    0.000 
#    0.000    0.000    0.000    0.000    0.000    0.000 
#
# Total GULP energy -133767.037493 kJ/mol
# GULP energy per Si atom -5573.626562 kJ/mol
# Density = 2.054734 g / cm^3
# Si number density = 20.594210 Si / 1000 Ang^3
#
#
#
# Elastic Constant Matrix: (Units=GPa)
#
#
# Indices 1 2 3 4 5 6 
#
# 1 109.8891 12.3439 19.2960 0.0000 0.0000 0.0000
# 2 12.3439 46.8245 28.5685 0.0000 0.0000 0.0000
# 3 19.2960 28.5685 69.0695 0.0000 0.0000 0.0000
# 4 0.0000 0.0000 0.0000 23.2726 0.0000 0.0000
# 5 0.0000 0.0000 0.0000 0.0000 20.6133 0.0000
# 6 0.0000 0.0000 0.0000 0.0000 0.0000 1021.1517
#
#
#
# Elastic Compliance Matrix: (Units=1/GPa)
#
#
# Indices 1 2 3 4 5 6 
#
# 1 0.009620 -0.001199 -0.002192 0.000000 0.000000 0.000000
# 2 -0.001199 0.028714 -0.011542 0.000000 0.000000 0.000000
# 3 -0.002192 -0.011542 0.019864 0.000000 0.000000 0.000000
# 4 0.000000 0.000000 0.000000 0.042969 0.000000 0.000000
# 5 0.000000 0.000000 0.000000 0.000000 0.048512 0.000000
# 6 0.000000 0.000000 0.000000 0.000000 0.000000 0.000979
#
#
# Mechanical properties :
#
#
# Convention : Reuss Voigt Hill
#
# Bulk Modulus (GPa) = 35.29360 38.46663 36.88011
# Shear Modulus (GPa) = 26.32020 224.04582 125.18301
#
# Velocity S-wave (km/s) = 3.57885 10.44159 7.80497
# Velocity P-wave (km/s) = 5.85255 12.80969 9.95842
#
# Compressibility (1/GPa) = 0.02833375
#
# Stress axis : x y z
#
# Youngs Moduli (GPa) = 103.95470 34.82586 50.34133
#
# Poissons Ratio (x) = 0.04175 0.11033
# Poissons Ratio (y) = 0.12462 0.58103
# Poissons Ratio (z) = 0.22783 0.40196
#
# Static dielectric constant tensor:
#      x y z
#    x 0.000000 0.000000 0.000000 
#    y 0.000000 0.000000 0.000000 
#    z 0.000000 0.000000 0.000000 
# 
# From -- ./inp_files/38055.got.cif
#   From: 2010.05.17/outbox.cif.g08.bks.cpg/sg22_20_cif.got.tgz:38055.got - 2010.06.03 23:40:54.
