data_PCOD9326292
_publ_section_title
;
Structure prediction by ZEFSAII (Michael W. Deem and Ramdas Pophale) SiO2 
 PCOD9326292
Probable space group: F 2 2 2
;
_chemical_formula_sum "Si O2"
_cell_formula_units_Z 68
_cell_length_a 13.088036
_cell_length_b 14.804994
_cell_length_c 13.421773
_cell_angle_alpha 90.000000
_cell_angle_beta 90.000000
_cell_angle_gamma 90.000000
_cell_volume 2600.714063
_symmetry_space_group_name_H-M "F 2 2 2"
_symmetry_group_IT_number 22
_symmetry_cell_setting 'orthorhombic'
loop_
_space_group_symop_operation_xyz
x,y,z
-x,-y,z
x,-y,-z
-x,y,-z
x,1/2+y,1/2+z
-x,1/2-y,1/2+z
x,1/2-y,1/2-z
-x,1/2+y,1/2-z
1/2+x,y,1/2+z
1/2-x,-y,1/2+z
1/2+x,-y,1/2-z
1/2-x,y,1/2-z
1/2+x,1/2+y,z
1/2-x,1/2-y,z
1/2+x,1/2-y,-z
1/2-x,1/2+y,-z
loop_
_atom_site_type_symbol
_atom_site_label
_atom_site_fract_x
_atom_site_fract_y
_atom_site_fract_z
Si Si1 0.000000 0.500000 0.500000
Si Si2 0.863034 0.158745 0.048190
Si Si3 0.176490 0.617944 0.670947
Si Si4 0.621468 0.855556 0.935446
Si Si5 0.386868 0.953584 0.857788
O O1 0.928500 0.568201 0.562075
O O2 0.858755 0.167766 0.926936
O O3 0.744799 0.149044 0.077661
O O4 0.909271 0.252700 0.088200
O O5 0.250000 0.666715 0.750000
O O6 0.260274 0.543023 0.637380
O O7 0.092441 0.580730 0.746527
O O8 0.580984 0.942958 0.875920
O O9 0.597909 0.884640 0.049989
#
# Coordination Sequence:
#
# PCOD9326292 Si02
#       5
#     4  16  16  16  16
#     4  12  24  36  52  78 132 148 180 232 324 354
#     4  10  19  30  51  78 109 151 185 232 281 350
#     4   7  14  27  48  79 106 140 181 238 289 313
#     4   9  15  29  52  82 103 138 202 234 268 329
#     4   7  13  25  47  75 103 127 175 251 272 306
#
# _framework density 26.146666
#
# number of rings (size 3 to 8) (size 9 to 14) (size 15 to 20)
#    1.412    1.882    0.000    2.824    0.000    0.941 
#    4.235    0.000    0.000   32.471    0.000    0.000 
#    0.000    0.000    0.000    0.000    0.000    0.000 
#
# Total GULP energy -94684.572261 kJ/mol
# GULP energy per Si atom -5569.680721 kJ/mol
# Density = 2.608715 g / cm^3
# Si number density = 26.146666 Si / 1000 Ang^3
#
#
#
# Elastic Constant Matrix: (Units=GPa)
#
#
# Indices 1 2 3 4 5 6 
#
# 1 68.1370 19.4355 -24.9126 0.0000 0.0000 0.0000
# 2 19.4355 211.3327 5.0535 0.0000 0.0000 0.0000
# 3 -24.9126 5.0535 49.9176 0.0000 0.0000 0.0000
# 4 0.0000 0.0000 0.0000 -50.3196 0.0000 0.0000
# 5 0.0000 0.0000 0.0000 0.0000 27.6088 0.0000
# 6 0.0000 0.0000 0.0000 0.0000 0.0000 876.5050
#
#
#
# Elastic Compliance Matrix: (Units=1/GPa)
#
#
# Indices 1 2 3 4 5 6 
#
# 1 0.018721 -0.001950 0.009540 0.000000 0.000000 0.000000
# 2 -0.001950 0.004946 -0.001474 0.000000 0.000000 0.000000
# 3 0.009540 -0.001474 0.024944 0.000000 0.000000 0.000000
# 4 0.000000 0.000000 0.000000 -0.019873 0.000000 0.000000
# 5 0.000000 0.000000 0.000000 0.000000 0.036220 0.000000
# 6 0.000000 0.000000 0.000000 0.000000 0.000000 0.001141
#
#
# Mechanical properties :
#
#
# Convention : Reuss Voigt Hill
#
# Bulk Modulus (GPa) = 16.43541 36.50446 26.46994
# Shear Modulus (GPa) = 67.43363 192.74622 130.08992
#
# Velocity S-wave (km/s) = 5.08395 8.59519 7.06130
# Velocity P-wave (km/s) = 6.38447 10.60636 8.75375
#
# Compressibility (1/GPa) = 0.06084422
#
# Stress axis : x y z
#
# Youngs Moduli (GPa) = 53.41681 202.16580 40.09044
#
# Poissons Ratio (x) = 0.39418 -0.38248
# Poissons Ratio (y) = 0.10415 0.05909
# Poissons Ratio (z) = -0.50962 0.29797
#
# Static dielectric constant tensor:
#      x y z
#    x 2.839030 0.000000 0.000000 
#    y 0.000000 2.055420 0.000000 
#    z 0.000000 0.000000 1.292410 
# 
# From -- ./inp_files/37808.got.cif
#   From: 2010.05.17/outbox.cif.g08.bks.cpg/sg22_19_cif.got.tgz:37808.got - 2010.06.03 23:40:54.
