data_PCOD9326794
_publ_section_title
;
Structure prediction by ZEFSAII (Michael W. Deem and Ramdas Pophale) SiO2 
 PCOD9326794
Probable space group: F 2 2 2
;
_chemical_formula_sum "Si O2"
_cell_formula_units_Z 96
_cell_length_a 8.083710
_cell_length_b 22.071382
_cell_length_c 28.542398
_cell_angle_alpha 90.000000
_cell_angle_beta 90.000000
_cell_angle_gamma 90.000000
_cell_volume 5092.496159
_symmetry_space_group_name_H-M "F 2 2 2"
_symmetry_group_IT_number 22
_symmetry_cell_setting 'orthorhombic'
loop_
_space_group_symop_operation_xyz
x,y,z
-x,-y,z
x,-y,-z
-x,y,-z
x,1/2+y,1/2+z
-x,1/2-y,1/2+z
x,1/2-y,1/2-z
-x,1/2+y,1/2-z
1/2+x,y,1/2+z
1/2-x,-y,1/2+z
1/2+x,-y,1/2-z
1/2-x,y,1/2-z
1/2+x,1/2+y,z
1/2-x,1/2-y,z
1/2+x,1/2-y,-z
1/2-x,1/2+y,-z
loop_
_atom_site_type_symbol
_atom_site_label
_atom_site_fract_x
_atom_site_fract_y
_atom_site_fract_z
Si Si1 0.614638 0.109325 0.459375
Si Si2 0.177005 0.312064 0.024004
Si Si3 0.818680 0.971432 0.602157
Si Si4 0.684934 0.916540 0.298761
Si Si5 0.305934 0.104223 0.399159
Si Si6 0.294146 0.942683 0.301234
O O1 0.500000 0.080207 0.500000
O O2 0.694119 0.167373 0.483810
O O3 0.488699 0.121977 0.416954
O O4 0.763196 0.067729 0.441956
O O5 0.250000 0.250000 0.044500
O O6 0.184359 0.364143 0.063767
O O7 0.000000 0.305629 0.000000
O O8 0.701531 0.030980 0.600916
O O9 0.790703 0.929986 0.648665
O O10 0.000000 0.000000 0.601164
O O11 0.750000 0.889632 0.250000
O O12 0.734780 0.880797 0.345401
O O13 0.488666 0.928396 0.303788
O O14 0.753036 0.985568 0.298930
O O15 0.250000 0.916818 0.250000
#
# Coordination Sequence:
#
# PCOD9326794 Si02
#       6
#    16  16  16  16  16  16
#     4  10  21  37  55  76 109 148 185 232 277 327
#     4  11  23  41  61  82 103 135 182 233 284 336
#     4  11  21  32  50  81 119 151 186 227 274 337
#     4   9  17  30  49  73 108 146 185 215 264 319
#     4  10  20  35  54  79 111 147 184 227 271 327
#     4   9  18  28  45  73 111 150 181 220 260 315
#
# _framework density 18.851265999999999
#
# number of rings (size 3 to 8) (size 9 to 14) (size 15 to 20)
#    0.000    2.000    1.667    3.000    7.000    4.667 
#    0.000    4.167    0.000    0.500    0.000    0.000 
#    0.000    0.667    0.000    0.000    0.000    0.000 
#
# Total GULP energy -133605.698937 kJ/mol
# GULP energy per Si atom -5566.904122 kJ/mol
# Density = 1.880836 g / cm^3
# Si number density = 18.851266 Si / 1000 Ang^3
#
#
#
# Elastic Constant Matrix: (Units=GPa)
#
#
# Indices 1 2 3 4 5 6 
#
# 1 76.9613 0.9513 32.0160 0.0000 0.0000 0.0000
# 2 0.9513 28.1115 16.7167 0.0000 0.0000 0.0000
# 3 32.0160 16.7167 114.2713 0.0000 0.0000 0.0000
# 4 0.0000 0.0000 0.0000 -1.4413 0.0000 0.0000
# 5 0.0000 0.0000 0.0000 0.0000 28.4955 0.0000
# 6 0.0000 0.0000 0.0000 0.0000 0.0000 18.3686
#
#
#
# Elastic Compliance Matrix: (Units=1/GPa)
#
#
# Indices 1 2 3 4 5 6 
#
# 1 0.014826 0.002156 -0.004469 0.000000 0.000000 0.000000
# 2 0.002156 0.039275 -0.006350 0.000000 0.000000 0.000000
# 3 -0.004469 -0.006350 0.010932 0.000000 0.000000 0.000000
# 4 0.000000 0.000000 0.000000 -0.693820 0.000000 0.000000
# 5 0.000000 0.000000 0.000000 0.000000 0.035093 0.000000
# 6 0.000000 0.000000 0.000000 0.000000 0.000000 0.054441
#
#
# Mechanical properties :
#
#
# Convention : Reuss Voigt Hill
#
# Bulk Modulus (GPa) = 20.96091 35.41246 28.18669
# Shear Modulus (GPa) = -9.88096 20.39524 5.25714
#
# Velocity S-wave (km/s) = -2.29192 3.29280 1.67177
# Velocity P-wave (km/s) = 2.03454 5.76911 4.32562
#
# Compressibility (1/GPa) = 0.04770785
#
# Stress axis : x y z
#
# Youngs Moduli (GPa) = 67.44846 25.46118 91.47306
#
# Poissons Ratio (x) = -0.05489 0.40882
# Poissons Ratio (y) = -0.14542 0.58082
# Poissons Ratio (z) = 0.30145 0.16167
#
# Static dielectric constant tensor:
#      x y z
#    x 1.708180 0.000000 0.000000 
#    y 0.000000 1.642140 0.000000 
#    z 0.000000 0.000000 1.775400 
# 
# From -- ./inp_files/51924.got.cif
#   From: 2010.05.17/outbox.cif.g08.bks.cpg/sg22_26_cif.got.tgz:51924.got - 2010.06.03 23:40:54.
