data_PCOD9326640
_publ_section_title
;
Structure prediction by ZEFSAII (Michael W. Deem and Ramdas Pophale) SiO2 
 PCOD9326640
Probable space group: F 2 2 2
;
_chemical_formula_sum "Si O2"
_cell_formula_units_Z 88
_cell_length_a 7.614617
_cell_length_b 29.747026
_cell_length_c 17.668078
_cell_angle_alpha 90.000000
_cell_angle_beta 90.000000
_cell_angle_gamma 90.000000
_cell_volume 4002.035392
_symmetry_space_group_name_H-M "F 2 2 2"
_symmetry_group_IT_number 22
_symmetry_cell_setting 'orthorhombic'
loop_
_space_group_symop_operation_xyz
x,y,z
-x,-y,z
x,-y,-z
-x,y,-z
x,1/2+y,1/2+z
-x,1/2-y,1/2+z
x,1/2-y,1/2-z
-x,1/2+y,1/2-z
1/2+x,y,1/2+z
1/2-x,-y,1/2+z
1/2+x,-y,1/2-z
1/2-x,y,1/2-z
1/2+x,1/2+y,z
1/2-x,1/2-y,z
1/2+x,1/2-y,-z
1/2-x,1/2+y,-z
loop_
_atom_site_type_symbol
_atom_site_label
_atom_site_fract_x
_atom_site_fract_y
_atom_site_fract_z
Si Si1 0.780217 0.866946 0.141905
Si Si2 0.701916 0.326760 0.134082
Si Si3 0.500000 0.667801 0.000000
Si Si4 0.750000 0.940122 0.250000
Si Si5 0.035432 0.801003 0.726336
Si Si6 0.425140 0.091378 0.916329
Si Si7 0.500000 0.500000 0.647459
O O1 0.860276 0.905322 0.197118
O O2 0.590599 0.890442 0.130121
O O3 0.881805 0.858880 0.062915
O O4 0.703771 0.821627 0.181873
O O5 0.626240 0.305676 0.057057
O O6 0.872446 0.303025 0.167380
O O7 0.552634 0.325930 0.199594
O O8 0.764127 0.376817 0.108221
O O9 0.866361 0.973104 0.300137
O O10 0.060068 0.750000 0.750000
O O11 0.402107 0.038560 0.900929
O O12 0.500000 0.098080 0.000000
#
# Coordination Sequence:
#
# PCOD9326640 Si02
#       7
#    16  16   8   8  16  16   8
#     4  10  22  39  66  92 133 177 219 270 338 405
#     4  10  21  37  68  95 131 174 221 270 343 403
#     4  12  22  38  62 101 130 170 216 276 334 399
#     4  10  22  42  59  98 126 170 223 274 330 400
#     4  10  22  45  69  94 129 180 232 275 329 406
#     4  10  19  39  61  94 128 176 220 264 344 405
#     4  10  23  36  66  89 132 166 224 282 320 391
#
# _framework density 21.988810999999998
#
# number of rings (size 3 to 8) (size 9 to 14) (size 15 to 20)
#    0.000    1.818    1.818    2.455    0.000    7.273 
#    0.000    8.636    2.000    1.091    0.000    0.000 
#    0.000    0.000    0.000    0.000    0.000    0.000 
#
# Total GULP energy -122546.997226 kJ/mol
# GULP energy per Si atom -5570.318056 kJ/mol
# Density = 2.193876 g / cm^3
# Si number density = 21.988811 Si / 1000 Ang^3
#
#
#
# Elastic Constant Matrix: (Units=GPa)
#
#
# Indices 1 2 3 4 5 6 
#
# 1 117.3823 42.9710 47.7519 0.0000 0.0000 0.0000
# 2 42.9710 155.3268 45.1602 0.0000 0.0000 0.0000
# 3 47.7519 45.1602 140.6849 0.0000 0.0000 0.0000
# 4 0.0000 0.0000 0.0000 -15.4209 0.0000 0.0000
# 5 0.0000 0.0000 0.0000 0.0000 38.1007 0.0000
# 6 0.0000 0.0000 0.0000 0.0000 0.0000 22.4781
#
#
#
# Elastic Compliance Matrix: (Units=1/GPa)
#
#
# Indices 1 2 3 4 5 6 
#
# 1 0.010444 -0.002050 -0.002887 0.000000 0.000000 0.000000
# 2 -0.002050 0.007503 -0.001713 0.000000 0.000000 0.000000
# 3 -0.002887 -0.001713 0.008638 0.000000 0.000000 0.000000
# 4 0.000000 0.000000 0.000000 -0.064847 0.000000 0.000000
# 5 0.000000 0.000000 0.000000 0.000000 0.026246 0.000000
# 6 0.000000 0.000000 0.000000 0.000000 0.000000 0.044488
#
#
# Mechanical properties :
#
#
# Convention : Reuss Voigt Hill
#
# Bulk Modulus (GPa) = 75.26882 76.12890 75.69886
# Shear Modulus (GPa) = 99.60244 27.53231 63.56737
#
# Velocity S-wave (km/s) = 6.73760 3.54235 5.38254
# Velocity P-wave (km/s) = 9.73816 7.17132 8.55160
#
# Compressibility (1/GPa) = 0.01328571
#
# Stress axis : x y z
#
# Youngs Moduli (GPa) = 95.74839 133.27789 115.77087
#
# Poissons Ratio (x) = 0.27322 0.33422
# Poissons Ratio (y) = 0.19628 0.19828
# Poissons Ratio (z) = 0.27642 0.22827
#
# Static dielectric constant tensor:
#      x y z
#    x 2.008080 0.000000 0.000000 
#    y 0.000000 1.878980 0.000000 
#    z 0.000000 0.000000 1.982570 
# 
# From -- ./inp_files/35278.got.cif
#   From: 2010.05.17/outbox.cif.g08.bks.cpg/sg22_18_cif.got.tgz:35278.got - 2010.06.03 23:40:54.
