data_PCOD9326660
_publ_section_title
;
Structure prediction by ZEFSAII (Michael W. Deem and Ramdas Pophale) SiO2 
 PCOD9326660
Probable space group: F 2 2 2
;
_chemical_formula_sum "Si O2"
_cell_formula_units_Z 96
_cell_length_a 14.441254
_cell_length_b 15.785893
_cell_length_c 19.450083
_cell_angle_alpha 90.000000
_cell_angle_beta 90.000000
_cell_angle_gamma 90.000000
_cell_volume 4433.998280
_symmetry_space_group_name_H-M "F 2 2 2"
_symmetry_group_IT_number 22
_symmetry_cell_setting 'orthorhombic'
loop_
_space_group_symop_operation_xyz
x,y,z
-x,-y,z
x,-y,-z
-x,y,-z
x,1/2+y,1/2+z
-x,1/2-y,1/2+z
x,1/2-y,1/2-z
-x,1/2+y,1/2-z
1/2+x,y,1/2+z
1/2-x,-y,1/2+z
1/2+x,-y,1/2-z
1/2-x,y,1/2-z
1/2+x,1/2+y,z
1/2-x,1/2-y,z
1/2+x,1/2-y,-z
1/2-x,1/2+y,-z
loop_
_atom_site_type_symbol
_atom_site_label
_atom_site_fract_x
_atom_site_fract_y
_atom_site_fract_z
Si Si1 0.951094 0.253154 0.364186
Si Si2 0.620250 0.073236 0.320584
Si Si3 0.338014 0.957450 0.933631
Si Si4 0.500000 0.343047 0.500000
Si Si5 0.697394 0.592627 0.181698
Si Si6 0.903224 0.750000 0.250000
Si Si7 0.160905 0.603945 0.167818
O O1 0.938364 0.353287 0.355949
O O2 0.859834 0.202225 0.342739
O O3 0.968477 0.219180 0.439608
O O4 0.029770 0.219873 0.311461
O O5 0.728922 0.092799 0.334076
O O6 0.611027 0.081394 0.238894
O O7 0.616265 0.973701 0.337827
O O8 0.269928 0.906512 0.881582
O O9 0.375135 0.037107 0.888860
O O10 0.419268 0.900637 0.965994
O O11 0.288173 0.000000 0.000000
O O12 0.750000 0.557552 0.250000
O O13 0.657055 0.679519 0.211046
#
# Coordination Sequence:
#
# PCOD9326660 Si02
#       7
#    16  16  16   8  16   8  16
#     4  12  24  41  63 104 144 181 235 298 362 416
#     4  10  20  41  69 100 130 180 238 290 351 424
#     4  11  22  43  73 102 138 189 234 296 366 429
#     4  12  27  42  66 105 150 176 232 301 368 431
#     4  11  23  46  71  98 134 183 242 288 356 430
#     4  12  27  44  71 104 138 186 240 300 353 430
#     4  10  19  39  70  98 133 177 236 298 348 425
#
# _framework density 21.650887999999998
#
# number of rings (size 3 to 8) (size 9 to 14) (size 15 to 20)
#    0.000    1.000    6.667    2.000    0.000    2.000 
#    6.000    0.000    0.000    1.000    0.000    0.000 
#    0.000    0.000    0.000    0.000    0.000    0.000 
#
# Total GULP energy -133893.311260 kJ/mol
# GULP energy per Si atom -5578.887969 kJ/mol
# Density = 2.160161 g / cm^3
# Si number density = 21.650888 Si / 1000 Ang^3
#
#
#
# Elastic Constant Matrix: (Units=GPa)
#
#
# Indices 1 2 3 4 5 6 
#
# 1 68.1777 66.3969 51.6932 0.0000 0.0000 0.0000
# 2 66.3969 158.7793 60.6988 0.0000 0.0000 0.0000
# 3 51.6932 60.6988 147.1904 0.0000 0.0000 0.0000
# 4 0.0000 0.0000 0.0000 43.7404 0.0000 0.0000
# 5 0.0000 0.0000 0.0000 0.0000 27.0535 0.0000
# 6 0.0000 0.0000 0.0000 0.0000 0.0000 32.5066
#
#
#
# Elastic Compliance Matrix: (Units=1/GPa)
#
#
# Indices 1 2 3 4 5 6 
#
# 1 0.028712 -0.009677 -0.006093 0.000000 0.000000 0.000000
# 2 -0.009677 0.010738 -0.001030 0.000000 0.000000 0.000000
# 3 -0.006093 -0.001030 0.009358 0.000000 0.000000 0.000000
# 4 0.000000 0.000000 0.000000 0.022862 0.000000 0.000000
# 5 0.000000 0.000000 0.000000 0.000000 0.036964 0.000000
# 6 0.000000 0.000000 0.000000 0.000000 0.000000 0.030763
#
#
# Mechanical properties :
#
#
# Convention : Reuss Voigt Hill
#
# Bulk Modulus (GPa) = 65.75070 81.30282 73.52676
# Shear Modulus (GPa) = 28.07942 33.68400 30.88171
#
# Velocity S-wave (km/s) = 3.60518 3.94862 3.78080
# Velocity P-wave (km/s) = 6.91117 7.64343 7.28650
#
# Compressibility (1/GPa) = 0.01520896
#
# Stress axis : x y z
#
# Youngs Moduli (GPa) = 34.82912 93.12359 106.85643
#
# Poissons Ratio (x) = 0.90117 0.65106
# Poissons Ratio (y) = 0.33705 0.11003
# Poissons Ratio (z) = 0.21221 0.09589
#
# Static dielectric constant tensor:
#      x y z
#    x 1.875370 0.000000 0.000000 
#    y 0.000000 1.869840 0.000000 
#    z 0.000000 0.000000 1.781870 
# 
# From -- ./inp_files/43495.got.cif
#   From: 2010.05.17/outbox.cif.g08.bks.cpg/sg22_22_cif.got.tgz:43495.got - 2010.06.03 23:40:54.
