data_PCOD9326635
_publ_section_title
;
Structure prediction by ZEFSAII (Michael W. Deem and Ramdas Pophale) SiO2 
 PCOD9326635
Probable space group: F 2 2 2
;
_chemical_formula_sum "Si O2"
_cell_formula_units_Z 72
_cell_length_a 31.522993
_cell_length_b 12.680438
_cell_length_c 8.019923
_cell_angle_alpha 90.000000
_cell_angle_beta 90.000000
_cell_angle_gamma 90.000000
_cell_volume 3205.766595
_symmetry_space_group_name_H-M "F 2 2 2"
_symmetry_group_IT_number 22
_symmetry_cell_setting 'orthorhombic'
loop_
_space_group_symop_operation_xyz
x,y,z
-x,-y,z
x,-y,-z
-x,y,-z
x,1/2+y,1/2+z
-x,1/2-y,1/2+z
x,1/2-y,1/2-z
-x,1/2+y,1/2-z
1/2+x,y,1/2+z
1/2-x,-y,1/2+z
1/2+x,-y,1/2-z
1/2-x,y,1/2-z
1/2+x,1/2+y,z
1/2-x,1/2-y,z
1/2+x,1/2-y,-z
1/2-x,1/2+y,-z
loop_
_atom_site_type_symbol
_atom_site_label
_atom_site_fract_x
_atom_site_fract_y
_atom_site_fract_z
Si Si1 0.046132 0.765240 0.450417
Si Si2 0.136982 0.210111 0.017665
Si Si3 0.852264 0.583808 0.824024
Si Si4 0.707387 0.431766 0.828848
Si Si5 0.927352 0.500000 0.000000
O O1 0.052419 0.750000 0.250000
O O2 0.086264 0.713839 0.546503
O O3 0.048064 0.890003 0.495691
O O4 0.000000 0.723047 0.500000
O O5 0.149156 0.329657 0.969430
O O6 0.142073 0.145302 0.847118
O O7 0.169967 0.152412 0.137301
O O8 0.810878 0.515022 0.803865
O O9 0.893977 0.512605 0.848366
O O10 0.750000 0.386017 0.750000
O O11 0.714335 0.500000 0.000000
#
# Coordination Sequence:
#
# PCOD9326635 Si02
#       5
#    16  16  16  16   8
#     4  11  22  40  69 102 139 181 233 285 342 412
#     4   9  18  42  66  93 132 181 220 275 348 403
#     4   9  18  37  69  89 127 178 218 278 344 395
#     4  10  22  39  70  99 132 177 229 281 344 409
#     4  10  19  38  70  90 132 180 226 272 351 400
#
# _framework density 22.459527999999999
#
# number of rings (size 3 to 8) (size 9 to 14) (size 15 to 20)
#    0.000    2.222    4.444    0.333    1.556    1.778 
#    0.000   12.222   19.556    0.000    0.000    0.000 
#    0.000    0.000    0.000    0.000    0.000    0.000 
#
# Total GULP energy -100453.212763 kJ/mol
# GULP energy per Si atom -5580.734042 kJ/mol
# Density = 2.240841 g / cm^3
# Si number density = 22.459528 Si / 1000 Ang^3
#
#
#
# Elastic Constant Matrix: (Units=GPa)
#
#
# Indices 1 2 3 4 5 6 
#
# 1 201.4665 58.2264 44.3624 0.0000 0.0000 0.0000
# 2 58.2264 99.6707 38.6361 0.0000 0.0000 0.0000
# 3 44.3624 38.6361 86.8442 0.0000 0.0000 0.0000
# 4 0.0000 0.0000 0.0000 27.5825 0.0000 0.0000
# 5 0.0000 0.0000 0.0000 0.0000 32.5025 0.0000
# 6 0.0000 0.0000 0.0000 0.0000 0.0000 160.4337
#
#
#
# Elastic Compliance Matrix: (Units=1/GPa)
#
#
# Indices 1 2 3 4 5 6 
#
# 1 0.006217 -0.002901 -0.001885 0.000000 0.000000 0.000000
# 2 -0.002901 0.013478 -0.004514 0.000000 0.000000 0.000000
# 3 -0.001885 -0.004514 0.014486 0.000000 0.000000 0.000000
# 4 0.000000 0.000000 0.000000 0.036255 0.000000 0.000000
# 5 0.000000 0.000000 0.000000 0.000000 0.030767 0.000000
# 6 0.000000 0.000000 0.000000 0.000000 0.000000 0.006233
#
#
# Mechanical properties :
#
#
# Convention : Reuss Voigt Hill
#
# Bulk Modulus (GPa) = 64.18451 74.49235 69.33843
# Shear Modulus (GPa) = 38.10095 60.55417 49.32756
#
# Velocity S-wave (km/s) = 4.12324 5.19808 4.69154
# Velocity P-wave (km/s) = 7.16296 8.32262 7.76447
#
# Compressibility (1/GPa) = 0.01558008
#
# Stress axis : x y z
#
# Youngs Moduli (GPa) = 160.84360 74.19643 69.03149
#
# Poissons Ratio (x) = 0.21526 0.13014
# Poissons Ratio (y) = 0.46665 0.31161
# Poissons Ratio (z) = 0.30322 0.33493
#
# Static dielectric constant tensor:
#      x y z
#    x 1.846130 0.000000 0.000000 
#    y 0.000000 1.857410 0.000000 
#    z 0.000000 0.000000 1.780570 
# 
# From -- ./inp_files/15412.got.cif
#   From: 2010.05.17/outbox.cif.g08.bks.cpg/sg22_8_cif.got.tgz:15412.got - 2010.06.03 23:40:54.
