data_PCOD9326620
_publ_section_title
;
Structure prediction by ZEFSAII (Michael W. Deem and Ramdas Pophale) SiO2 
 PCOD9326620
Probable space group: F 2 2 2
;
_chemical_formula_sum "Si O2"
_cell_formula_units_Z 104
_cell_length_a 14.541973
_cell_length_b 16.846188
_cell_length_c 20.716516
_cell_angle_alpha 90.000000
_cell_angle_beta 90.000000
_cell_angle_gamma 90.000000
_cell_volume 5075.066026
_symmetry_space_group_name_H-M "F 2 2 2"
_symmetry_group_IT_number 22
_symmetry_cell_setting 'orthorhombic'
loop_
_space_group_symop_operation_xyz
x,y,z
-x,-y,z
x,-y,-z
-x,y,-z
x,1/2+y,1/2+z
-x,1/2-y,1/2+z
x,1/2-y,1/2-z
-x,1/2+y,1/2-z
1/2+x,y,1/2+z
1/2-x,-y,1/2+z
1/2+x,-y,1/2-z
1/2-x,y,1/2-z
1/2+x,1/2+y,z
1/2-x,1/2-y,z
1/2+x,1/2-y,-z
1/2-x,1/2+y,-z
loop_
_atom_site_type_symbol
_atom_site_label
_atom_site_fract_x
_atom_site_fract_y
_atom_site_fract_z
Si Si1 0.248348 0.440913 0.174548
Si Si2 0.149833 0.289313 0.532200
Si Si3 0.058531 0.140852 0.364557
Si Si4 0.383782 0.838378 0.221153
Si Si5 0.000000 0.339113 0.000000
Si Si6 0.200712 0.889181 0.152080
Si Si7 0.655488 0.198996 0.611352
O O1 0.250000 0.458805 0.250000
O O2 0.148790 0.404651 0.158751
O O3 0.267902 0.521797 0.136591
O O4 0.324173 0.374484 0.157231
O O5 0.250000 0.250000 0.532471
O O6 0.076931 0.218123 0.531394
O O7 0.149397 0.346556 0.593360
O O8 0.136439 0.328911 0.461783
O O9 0.040332 0.115655 0.438705
O O10 0.081746 0.235647 0.366930
O O11 0.970877 0.131893 0.318948
O O12 0.395604 0.750000 0.250000
O O13 0.293232 0.842773 0.175426
O O14 0.362727 0.890424 0.284343
O O15 0.750000 0.250000 0.609244
#
# Coordination Sequence:
#
# PCOD9326620 Si02
#       7
#    16  16  16  16   8  16  16
#     4  11  23  41  59  89 133 168 206 250 307 385
#     4  10  19  38  66  90 126 158 205 264 306 367
#     4  10  22  38  66  93 122 155 210 268 307 361
#     4  11  22  37  60  91 116 161 214 251 305 364
#     4  10  20  40  66 102 118 152 214 274 312 362
#     4  11  22  40  59  88 127 169 198 246 315 374
#     4   8  19  37  60  89 114 156 200 248 307 353
#
# _framework density 20.492345
#
# number of rings (size 3 to 8) (size 9 to 14) (size 15 to 20)
#    0.000    1.846    1.538    4.615    2.154    3.385 
#    0.000    0.000    0.000    9.231    0.000    0.000 
#    0.000    0.000    0.000    0.000    0.000    0.000 
#
# Total GULP energy -145197.641401 kJ/mol
# GULP energy per Si atom -5584.524669 kJ/mol
# Density = 2.044570 g / cm^3
# Si number density = 20.492345 Si / 1000 Ang^3
#
#
#
# Elastic Constant Matrix: (Units=GPa)
#
#
# Indices 1 2 3 4 5 6 
#
# 1 88.0080 6.9278 35.5642 0.0000 0.0000 0.0000
# 2 6.9278 53.0789 29.0614 0.0000 0.0000 0.0000
# 3 35.5642 29.0614 89.7066 0.0000 0.0000 0.0000
# 4 0.0000 0.0000 0.0000 18.3274 0.0000 0.0000
# 5 0.0000 0.0000 0.0000 0.0000 34.3205 0.0000
# 6 0.0000 0.0000 0.0000 0.0000 0.0000 12.6781
#
#
#
# Elastic Compliance Matrix: (Units=1/GPa)
#
#
# Indices 1 2 3 4 5 6 
#
# 1 0.013619 0.001433 -0.005864 0.000000 0.000000 0.000000
# 2 0.001433 0.023053 -0.008036 0.000000 0.000000 0.000000
# 3 -0.005864 -0.008036 0.016075 0.000000 0.000000 0.000000
# 4 0.000000 0.000000 0.000000 0.054563 0.000000 0.000000
# 5 0.000000 0.000000 0.000000 0.000000 0.029137 0.000000
# 6 0.000000 0.000000 0.000000 0.000000 0.000000 0.078876
#
#
# Mechanical properties :
#
#
# Convention : Reuss Voigt Hill
#
# Bulk Modulus (GPa) = 35.95361 41.54448 38.74905
# Shear Modulus (GPa) = 20.03777 23.68123 21.85950
#
# Velocity S-wave (km/s) = 3.13040 3.40312 3.26960
# Velocity P-wave (km/s) = 5.53614 5.97987 5.76228
#
# Compressibility (1/GPa) = 0.02781362
#
# Stress axis : x y z
#
# Youngs Moduli (GPa) = 73.42524 43.37870 62.20659
#
# Poissons Ratio (x) = -0.06215 0.36475
# Poissons Ratio (y) = -0.10520 0.49991
# Poissons Ratio (z) = 0.43053 0.34860
#
# Static dielectric constant tensor:
#      x y z
#    x 1.731990 0.000000 0.000000 
#    y 0.000000 1.731230 0.000000 
#    z 0.000000 0.000000 1.753990 
# 
# From -- ./inp_files/43643.got.cif
#   From: 2010.05.17/outbox.cif.g08.bks.cpg/sg22_22_cif.got.tgz:43643.got - 2010.06.03 23:40:54.
