data_PCOD9326235
_publ_section_title
;
Structure prediction by ZEFSAII (Michael W. Deem and Ramdas Pophale) SiO2 
 PCOD9326235
Probable space group: F 2 2 2
;
_chemical_formula_sum "Si O2"
_cell_formula_units_Z 52
_cell_length_a 28.786656
_cell_length_b 13.340874
_cell_length_c 5.120711
_cell_angle_alpha 90.000000
_cell_angle_beta 90.000000
_cell_angle_gamma 90.000000
_cell_volume 1966.553503
_symmetry_space_group_name_H-M "F 2 2 2"
_symmetry_group_IT_number 22
_symmetry_cell_setting 'orthorhombic'
loop_
_space_group_symop_operation_xyz
x,y,z
-x,-y,z
x,-y,-z
-x,y,-z
x,1/2+y,1/2+z
-x,1/2-y,1/2+z
x,1/2-y,1/2-z
-x,1/2+y,1/2-z
1/2+x,y,1/2+z
1/2-x,-y,1/2+z
1/2+x,-y,1/2-z
1/2-x,y,1/2-z
1/2+x,1/2+y,z
1/2-x,1/2-y,z
1/2+x,1/2-y,-z
1/2-x,1/2+y,-z
loop_
_atom_site_type_symbol
_atom_site_label
_atom_site_fract_x
_atom_site_fract_y
_atom_site_fract_z
Si Si1 0.133049 0.130233 0.230297
Si Si2 0.500000 0.000000 0.500000
Si Si3 0.713457 0.334004 0.424653
Si Si4 0.077039 0.630015 0.229368
O O1 0.133692 0.250000 0.250000
O O2 0.182604 0.108094 0.366913
O O3 0.093398 0.103026 0.438884
O O4 0.118079 0.102579 0.938497
O O5 0.532188 0.071283 0.324709
O O6 0.684085 0.250000 0.250000
O O7 0.750000 0.397900 0.250000
O O8 0.750000 0.250000 0.518259
O O9 0.069140 0.750000 0.250000
#
# Coordination Sequence:
#
# PCOD9326235 Si02
#       4
#    16   4  16  16
#     4  10  18  37  57  96 141 175 229 294 347 414
#     4  12  28  54  72 108 144 198 252 310 388 428
#     4   6  14  26  49  91 137 173 219 282 332 419
#     4  10  25  41  70  95 139 185 237 305 359 439
#
# _framework density 26.442201000000001
#
# number of rings (size 3 to 8) (size 9 to 14) (size 15 to 20)
#    1.846    1.231    0.000    2.769    0.000    8.000 
#    0.000    0.000    0.000    0.000    0.000    4.308 
#    0.000    0.000    0.000    0.000    0.000    0.000 
#
# Total GULP energy -72420.054679 kJ/mol
# GULP energy per Si atom -5570.773437 kJ/mol
# Density = 2.638202 g / cm^3
# Si number density = 26.442201 Si / 1000 Ang^3
#
#
#
# Elastic Constant Matrix: (Units=GPa)
#
#
# Indices 1 2 3 4 5 6 
#
# 1 145.0291 15.9283 37.0700 -0.0001 0.0010 0.0000
# 2 15.9283 107.2279 -23.0787 0.0002 -0.0008 -0.0002
# 3 37.0700 -23.0787 131.9572 0.0008 -0.0031 -0.0003
# 4 -0.0001 0.0002 0.0008 14.0763 -0.0022 -0.0002
# 5 0.0010 -0.0008 -0.0031 -0.0022 456.6788 0.0005
# 6 0.0000 -0.0002 -0.0003 -0.0002 0.0005 26.8507
#
#
#
# Elastic Compliance Matrix: (Units=1/GPa)
#
#
# Indices 1 2 3 4 5 6 
#
# 1 0.007707 -0.001674 -0.002458 0.000000 0.000000 0.000000
# 2 -0.001674 0.010054 0.002229 0.000000 0.000000 0.000000
# 3 -0.002458 0.002229 0.008658 -0.000001 0.000000 0.000000
# 4 0.000000 0.000000 -0.000001 0.071042 0.000000 0.000001
# 5 0.000000 0.000000 0.000000 0.000000 0.002190 0.000000
# 6 0.000000 0.000000 0.000000 0.000001 0.000000 0.037243
#
#
# Mechanical properties :
#
#
# Convention : Reuss Voigt Hill
#
# Bulk Modulus (GPa) = 44.22091 49.33928 46.78009
# Shear Modulus (GPa) = 33.72942 123.14078 78.43510
#
# Velocity S-wave (km/s) = 3.57542 6.83161 5.45227
# Velocity P-wave (km/s) = 5.81418 8.99598 7.57405
#
# Compressibility (1/GPa) = 0.02261374
#
# Stress axis : x y z
#
# Youngs Moduli (GPa) = 129.74777 99.46031 115.49366
#
# Poissons Ratio (x) = 0.16649 0.28387
# Poissons Ratio (y) = 0.21719 -0.25740
# Poissons Ratio (z) = 0.31891 -0.22167
#
# Static dielectric constant tensor:
#      x y z
#    x 2.446960 0.000000 0.000000 
#    y 0.000000 2.063030 0.000000 
#    z 0.000000 0.000000 2.339650 
# 
# From -- ./inp_files/5194.got.cif
#   From: 2010.05.17/outbox.cif.g08.bks.cpg/sg22_3_cif.got.tgz:5194.got - 2010.06.03 23:40:54.
