data_PCOD9326776
_publ_section_title
;
Structure prediction by ZEFSAII (Michael W. Deem and Ramdas Pophale) SiO2 
 PCOD9326776
Probable space group: F 2 2 2
;
_chemical_formula_sum "Si O2"
_cell_formula_units_Z 96
_cell_length_a 23.399312
_cell_length_b 23.874678
_cell_length_c 9.274769
_cell_angle_alpha 90.000000
_cell_angle_beta 90.000000
_cell_angle_gamma 90.000000
_cell_volume 5181.359342
_symmetry_space_group_name_H-M "F 2 2 2"
_symmetry_group_IT_number 22
_symmetry_cell_setting 'orthorhombic'
loop_
_space_group_symop_operation_xyz
x,y,z
-x,-y,z
x,-y,-z
-x,y,-z
x,1/2+y,1/2+z
-x,1/2-y,1/2+z
x,1/2-y,1/2-z
-x,1/2+y,1/2-z
1/2+x,y,1/2+z
1/2-x,-y,1/2+z
1/2+x,-y,1/2-z
1/2-x,y,1/2-z
1/2+x,1/2+y,z
1/2-x,1/2-y,z
1/2+x,1/2-y,-z
1/2-x,1/2+y,-z
loop_
_atom_site_type_symbol
_atom_site_label
_atom_site_fract_x
_atom_site_fract_y
_atom_site_fract_z
Si Si1 0.567531 0.134365 0.975365
Si Si2 0.000000 0.085325 0.000000
Si Si3 0.000000 0.000000 0.255182
Si Si4 0.890091 0.630876 0.355741
Si Si5 0.117251 0.031264 0.632676
Si Si6 0.942815 0.239736 0.916397
Si Si7 0.804384 0.471490 0.649513
O O1 0.587723 0.125239 0.809876
O O2 0.573489 0.201558 0.991631
O O3 0.500000 0.121624 0.000000
O O4 0.602717 0.094373 0.083605
O O5 0.059613 0.113330 0.036085
O O6 0.990312 0.050427 0.145206
O O7 0.057174 0.001345 0.345997
O O8 0.889624 0.696926 0.396130
O O9 0.838519 0.587186 0.370821
O O10 0.147297 0.000000 0.500000
O O11 0.153517 0.016472 0.772742
O O12 0.961539 0.250000 0.750000
O O13 0.000000 0.219121 0.000000
O O14 0.788160 0.500000 0.500000
O O15 0.750000 0.461902 0.750000
#
# Coordination Sequence:
#
# PCOD9326776 Si02
#       7
#    16   8   8  16  16  16  16
#     4  10  20  34  57  94 129 168 199 236 310 395
#     4  11  18  30  50  84 124 156 193 246 308 382
#     4  11  21  28  50  86 128 156 194 240 312 384
#     4  11  20  37  60  87 128 166 206 259 312 375
#     4  12  20  35  57  88 123 162 196 252 314 376
#     4   9  19  35  57  89 131 170 203 243 306 387
#     4  12  27  45  63  88 117 166 219 268 322 375
#
# _framework density 18.527957000000001
#
# number of rings (size 3 to 8) (size 9 to 14) (size 15 to 20)
#    0.000    1.167    4.167    3.750    0.000    0.000 
#    3.000    0.000    0.000    4.500    0.000    1.167 
#    0.000    0.000    0.000    0.000    0.000    0.000 
#
# Total GULP energy -133693.723944 kJ/mol
# GULP energy per Si atom -5570.571831 kJ/mol
# Density = 1.848579 g / cm^3
# Si number density = 18.527957 Si / 1000 Ang^3
#
#
#
# Elastic Constant Matrix: (Units=GPa)
#
#
# Indices 1 2 3 4 5 6 
#
# 1 92.8317 52.1304 32.6387 0.0000 0.0000 -0.0001
# 2 52.1304 122.6821 28.9874 0.0000 0.0000 0.0001
# 3 32.6387 28.9874 73.9459 0.0001 -0.0001 0.0003
# 4 0.0000 0.0000 0.0001 30.3670 0.0000 0.0001
# 5 0.0000 0.0000 -0.0001 0.0000 32.8857 0.0000
# 6 -0.0001 0.0001 0.0003 0.0001 0.0000 18.7595
#
#
#
# Elastic Compliance Matrix: (Units=1/GPa)
#
#
# Indices 1 2 3 4 5 6 
#
# 1 0.015498 -0.005476 -0.004694 0.000000 0.000000 0.000000
# 2 -0.005476 0.010918 -0.001863 0.000000 0.000000 0.000000
# 3 -0.004694 -0.001863 0.016325 0.000000 0.000000 0.000000
# 4 0.000000 0.000000 0.000000 0.032931 0.000000 0.000000
# 5 0.000000 0.000000 0.000000 0.000000 0.030408 0.000000
# 6 0.000000 0.000000 0.000000 0.000000 0.000000 0.053306
#
#
# Mechanical properties :
#
#
# Convention : Reuss Voigt Hill
#
# Bulk Modulus (GPa) = 53.54582 57.44141 55.49361
# Shear Modulus (GPa) = 26.36051 28.11599 27.23825
#
# Velocity S-wave (km/s) = 3.77602 3.89972 3.83837
# Velocity P-wave (km/s) = 6.92631 7.16568 7.04701
#
# Compressibility (1/GPa) = 0.01867559
#
# Stress axis : x y z
#
# Youngs Moduli (GPa) = 64.52572 91.58927 61.25420
#
# Poissons Ratio (x) = 0.50157 0.28751
# Poissons Ratio (y) = 0.35336 0.11411
# Poissons Ratio (z) = 0.30287 0.17062
#
# Static dielectric constant tensor:
#      x y z
#    x 1.626260 0.000000 0.000000 
#    y 0.000000 1.753420 0.000000 
#    z 0.000000 0.000000 1.499880 
# 
# From -- ./inp_files/13949.got.cif
#   From: 2010.05.17/outbox.cif.g08.bks.cpg/sg22_7_cif.got.tgz:13949.got - 2010.06.03 23:40:54.
