data_PCOD9326954
_publ_section_title
;
Structure prediction by ZEFSAII (Michael W. Deem and Ramdas Pophale) SiO2 
 PCOD9326954
Probable space group: F 2 2 2
;
_chemical_formula_sum "Si O2"
_cell_formula_units_Z 80
_cell_length_a 13.624206
_cell_length_b 17.278066
_cell_length_c 17.927844
_cell_angle_alpha 90.000000
_cell_angle_beta 90.000000
_cell_angle_gamma 90.000000
_cell_volume 4220.213231
_symmetry_space_group_name_H-M "F 2 2 2"
_symmetry_group_IT_number 22
_symmetry_cell_setting 'orthorhombic'
loop_
_space_group_symop_operation_xyz
x,y,z
-x,-y,z
x,-y,-z
-x,y,-z
x,1/2+y,1/2+z
-x,1/2-y,1/2+z
x,1/2-y,1/2-z
-x,1/2+y,1/2-z
1/2+x,y,1/2+z
1/2-x,-y,1/2+z
1/2+x,-y,1/2-z
1/2-x,y,1/2-z
1/2+x,1/2+y,z
1/2-x,1/2-y,z
1/2+x,1/2-y,-z
1/2-x,1/2+y,-z
loop_
_atom_site_type_symbol
_atom_site_label
_atom_site_fract_x
_atom_site_fract_y
_atom_site_fract_z
Si Si1 0.211458 0.638096 0.495073
Si Si2 0.594957 0.787046 0.037392
Si Si3 0.190602 0.611416 0.326428
Si Si4 0.982978 0.803074 0.178727
Si Si5 0.101926 0.542423 0.617837
O O1 0.310168 0.659217 0.539775
O O2 0.136897 0.711114 0.494545
O O3 0.238497 0.624435 0.408506
O O4 0.156792 0.572813 0.543646
O O5 0.553321 0.751798 0.112693
O O6 0.500000 0.824519 0.000000
O O7 0.250000 0.624178 0.250000
O O8 0.095021 0.666764 0.324477
O O9 0.158286 0.521869 0.334198
O O10 0.968259 0.750000 0.250000
O O11 0.921422 0.882151 0.167657
O O12 0.000000 0.500000 0.596470
#
# Coordination Sequence:
#
# PCOD9326954 Si02
#       5
#    16  16  16  16  16
#     4  10  21  37  63  90 119 163 209 258 313 365
#     4  10  20  37  58  89 124 156 206 257 307 382
#     4  11  23  36  59  90 123 156 206 265 313 376
#     4  10  22  38  61  90 121 162 199 260 324 363
#     4   9  21  41  63  89 122 165 214 253 306 384
#
# _framework density 18.956388
#
# number of rings (size 3 to 8) (size 9 to 14) (size 15 to 20)
#    0.000    2.000    2.000    0.600    2.800    4.400 
#    0.000    7.000    0.000    1.200    0.000    0.000 
#    0.000    0.000    0.000    0.000    0.000    0.000 
#
# Total GULP energy -111428.709463 kJ/mol
# GULP energy per Si atom -5571.435473 kJ/mol
# Density = 1.891324 g / cm^3
# Si number density = 18.956388 Si / 1000 Ang^3
#
#
#
# Elastic Constant Matrix: (Units=GPa)
#
#
# Indices 1 2 3 4 5 6 
#
# 1 100.8792 39.8183 54.5489 0.0000 0.0000 0.0000
# 2 39.8183 87.4554 56.0349 0.0000 0.0000 0.0000
# 3 54.5489 56.0349 123.8617 0.0000 0.0000 0.0000
# 4 0.0000 0.0000 0.0000 30.7394 0.0000 0.0000
# 5 0.0000 0.0000 0.0000 0.0000 25.1440 0.0000
# 6 0.0000 0.0000 0.0000 0.0000 0.0000 16.3034
#
#
#
# Elastic Compliance Matrix: (Units=1/GPa)
#
#
# Indices 1 2 3 4 5 6 
#
# 1 0.013668 -0.003332 -0.004512 0.000000 0.000000 0.000000
# 2 -0.003332 0.016914 -0.006184 0.000000 0.000000 0.000000
# 3 -0.004512 -0.006184 0.012858 0.000000 0.000000 0.000000
# 4 0.000000 0.000000 0.000000 0.032532 0.000000 0.000000
# 5 0.000000 0.000000 0.000000 0.000000 0.039771 0.000000
# 6 0.000000 0.000000 0.000000 0.000000 0.000000 0.061337
#
#
# Mechanical properties :
#
#
# Convention : Reuss Voigt Hill
#
# Bulk Modulus (GPa) = 65.00503 68.11118 66.55810
# Shear Modulus (GPa) = 23.77960 25.22363 24.50162
#
# Velocity S-wave (km/s) = 3.54565 3.65172 3.59907
# Velocity P-wave (km/s) = 7.15042 7.33406 7.24282
#
# Compressibility (1/GPa) = 0.01538343
#
# Stress axis : x y z
#
# Youngs Moduli (GPa) = 73.16473 59.12268 77.77012
#
# Poissons Ratio (x) = 0.19700 0.35089
# Poissons Ratio (y) = 0.24379 0.48096
# Poissons Ratio (z) = 0.33011 0.36564
#
# Static dielectric constant tensor:
#      x y z
#    x 1.666990 0.000000 0.000000 
#    y 0.000000 1.674060 0.000000 
#    z 0.000000 0.000000 1.679140 
# 
# From -- ./inp_files/30522.got.cif
#   From: 2010.05.17/outbox.cif.g08.bks.cpg/sg22_16_cif.got.tgz:30522.got - 2010.06.03 23:40:54.
