data_PCOD9326423
_publ_section_title
;
Structure prediction by ZEFSAII (Michael W. Deem and Ramdas Pophale) SiO2 
 PCOD9326423
Probable space group: F 2 2 2
;
_chemical_formula_sum "Si O2"
_cell_formula_units_Z 112
_cell_length_a 35.040174
_cell_length_b 5.759507
_cell_length_c 28.350303
_cell_angle_alpha 90.000000
_cell_angle_beta 90.000000
_cell_angle_gamma 90.000000
_cell_volume 5721.491662
_symmetry_space_group_name_H-M "F 2 2 2"
_symmetry_group_IT_number 22
_symmetry_cell_setting 'orthorhombic'
loop_
_space_group_symop_operation_xyz
x,y,z
-x,-y,z
x,-y,-z
-x,y,-z
x,1/2+y,1/2+z
-x,1/2-y,1/2+z
x,1/2-y,1/2-z
-x,1/2+y,1/2-z
1/2+x,y,1/2+z
1/2-x,-y,1/2+z
1/2+x,-y,1/2-z
1/2-x,y,1/2-z
1/2+x,1/2+y,z
1/2-x,1/2-y,z
1/2+x,1/2-y,-z
1/2-x,1/2+y,-z
loop_
_atom_site_type_symbol
_atom_site_label
_atom_site_fract_x
_atom_site_fract_y
_atom_site_fract_z
Si Si1 0.289173 0.681827 0.921456
Si Si2 0.099891 0.195307 0.143005
Si Si3 0.844094 0.569212 0.883699
Si Si4 0.978273 0.749617 0.194665
Si Si5 0.786878 0.893435 0.827625
Si Si6 0.132835 0.459145 0.552912
Si Si7 0.856349 0.002005 0.774168
O O1 0.250000 0.750000 0.947087
O O2 0.277522 0.557575 0.872181
O O3 0.321860 0.524780 0.944920
O O4 0.313258 0.908130 0.909179
O O5 0.126734 0.419789 0.146724
O O6 0.118010 0.007977 0.178525
O O7 0.057449 0.244678 0.159397
O O8 0.108444 0.110360 0.089946
O O9 0.818570 0.722904 0.849482
O O10 0.867028 0.705480 0.924052
O O11 0.966109 0.750000 0.250000
O O12 0.000000 0.500000 0.187946
O O13 0.000000 0.000000 0.188150
O O14 0.750000 0.750000 0.812543
O O15 0.811280 0.019042 0.787473
O O16 0.119708 0.500000 0.500000
O O17 0.866409 0.250000 0.750000
O O18 0.862366 0.750000 0.750000
#
# Coordination Sequence:
#
# PCOD9326423 Si02
#       7
#    16  16  16  16  16  16  16
#     4  10  19  34  58  84 119 169 216 280 344 388
#     4  11  23  41  69  95 128 177 209 271 332 392
#     4  10  19  38  63  86 124 165 220 268 333 392
#     4  10  24  43  68 107 144 173 211 260 321 394
#     4  11  21  36  56  80 120 170 217 282 331 381
#     4  10  23  40  62  97 125 165 225 277 337 403
#     4  12  26  40  61  93 127 173 232 272 324 398
#
# _framework density 19.575313999999999
#
# number of rings (size 3 to 8) (size 9 to 14) (size 15 to 20)
#    0.000    1.429    5.714    1.286    2.000    4.286 
#    2.571    2.143    0.000    0.429    0.000    0.000 
#    0.000    0.000    0.000    0.000    0.000    0.000 
#
# Total GULP energy -156078.839746 kJ/mol
# GULP energy per Si atom -5574.244277 kJ/mol
# Density = 1.953076 g / cm^3
# Si number density = 19.575314 Si / 1000 Ang^3
#
#
#
# Elastic Constant Matrix: (Units=GPa)
#
#
# Indices 1 2 3 4 5 6 
#
# 1 100.0931 28.7781 46.5177 0.0003 0.0079 0.0113
# 2 28.7781 89.9470 41.2822 0.0012 0.0112 0.0341
# 3 46.5177 41.2822 107.4897 -0.0002 0.0011 0.0029
# 4 0.0003 0.0012 -0.0002 7.8924 -0.0009 0.0015
# 5 0.0079 0.0112 0.0011 -0.0009 20.2334 0.0106
# 6 0.0113 0.0341 0.0029 0.0015 0.0106 17.9418
#
#
#
# Elastic Compliance Matrix: (Units=1/GPa)
#
#
# Indices 1 2 3 4 5 6 
#
# 1 0.012762 -0.001880 -0.004801 0.000000 -0.000004 -0.000004
# 2 -0.001880 0.013774 -0.004476 -0.000002 -0.000007 -0.000024
# 3 -0.004801 -0.004476 0.013100 0.000001 0.000004 0.000009
# 4 0.000000 -0.000002 0.000001 0.126704 0.000006 -0.000011
# 5 -0.000004 -0.000007 0.000004 0.000006 0.049423 -0.000029
# 6 -0.000004 -0.000024 0.000009 -0.000011 -0.000029 0.055736
#
#
# Mechanical properties :
#
#
# Convention : Reuss Voigt Hill
#
# Bulk Modulus (GPa) = 57.73131 58.96510 58.34821
# Shear Modulus (GPa) = 16.68959 21.27698 18.98328
#
# Velocity S-wave (km/s) = 2.92307 3.30044 3.11747
# Velocity P-wave (km/s) = 6.39909 6.68666 6.54446
#
# Compressibility (1/GPa) = 0.01732162
#
# Stress axis : x y z
#
# Youngs Moduli (GPa) = 78.35468 72.60292 76.33475
#
# Poissons Ratio (x) = 0.13647 0.36650
# Poissons Ratio (y) = 0.14728 0.34170
# Poissons Ratio (z) = 0.37620 0.32500
#
# Static dielectric constant tensor:
#      x y z
#    x 1.672730 0.000000 0.000000 
#    y 0.000000 1.792900 0.000000 
#    z 0.000000 0.000000 1.730110 
# 
# From -- ./inp_files/57362.got.cif
#   From: 2010.05.17/outbox.cif.g08.bks.cpg/sg22_29_cif.got.tgz:57362.got - 2010.06.03 23:40:54.
