data_PCOD9326013
_publ_section_title
;
Structure prediction by ZEFSAII (Michael W. Deem and Ramdas Pophale) SiO2 
 PCOD9326013
Probable space group: F 2 2 2
;
_chemical_formula_sum "Si O2"
_cell_formula_units_Z 112
_cell_length_a 29.762632
_cell_length_b 15.814151
_cell_length_c 12.023302
_cell_angle_alpha 90.000000
_cell_angle_beta 90.000000
_cell_angle_gamma 90.000000
_cell_volume 5659.016649
_symmetry_space_group_name_H-M "F 2 2 2"
_symmetry_group_IT_number 22
_symmetry_cell_setting 'orthorhombic'
loop_
_space_group_symop_operation_xyz
x,y,z
-x,-y,z
x,-y,-z
-x,y,-z
x,1/2+y,1/2+z
-x,1/2-y,1/2+z
x,1/2-y,1/2-z
-x,1/2+y,1/2-z
1/2+x,y,1/2+z
1/2-x,-y,1/2+z
1/2+x,-y,1/2-z
1/2-x,y,1/2-z
1/2+x,1/2+y,z
1/2-x,1/2-y,z
1/2+x,1/2-y,-z
1/2-x,1/2+y,-z
loop_
_atom_site_type_symbol
_atom_site_label
_atom_site_fract_x
_atom_site_fract_y
_atom_site_fract_z
Si Si1 0.958463 0.877776 0.727182
Si Si2 0.712264 0.566458 0.906997
Si Si3 0.446797 0.310167 0.352790
Si Si4 0.324254 0.759866 0.384454
Si Si5 0.186459 0.430631 0.849715
Si Si6 0.092878 0.019608 0.378760
Si Si7 0.573972 0.229476 0.418113
O O1 0.954457 0.840644 0.851258
O O2 0.926834 0.814722 0.656299
O O3 0.006743 0.859769 0.672781
O O4 0.937759 0.969520 0.710103
O O5 0.708709 0.667776 0.932385
O O6 0.763920 0.541110 0.885058
O O7 0.687923 0.566948 0.786067
O O8 0.694677 0.500000 0.000000
O O9 0.439077 0.250000 0.250000
O O10 0.409185 0.381173 0.362043
O O11 0.446408 0.255165 0.464349
O O12 0.319151 0.750000 0.250000
O O13 0.319307 0.660639 0.410667
O O14 0.373589 0.792820 0.419416
O O15 0.143132 0.485142 0.878073
O O16 0.072343 0.000000 0.500000
#
# Coordination Sequence:
#
# PCOD9326013 Si02
#       7
#    16  16  16  16  16  16  16
#     4  11  21  38  62  87 117 161 206 251 306 349
#     4  10  21  34  58  87 121 153 189 247 310 369
#     4  12  26  38  59  92 126 164 205 253 307 367
#     4  10  17  35  60  89 112 149 204 248 298 353
#     4  10  20  37  57  86 117 153 198 250 303 359
#     4  12  23  39  63  90 119 157 210 262 297 358
#     4  11  20  38  63  86 120 160 196 252 305 356
#
# _framework density 19.791425
#
# number of rings (size 3 to 8) (size 9 to 14) (size 15 to 20)
#    0.000    1.143    5.714    2.571    0.000    3.429 
#    0.000    0.714    0.000    1.714    0.000    3.000 
#    0.000    0.000    0.000    0.000    0.000    0.000 
#
# Total GULP energy -156086.393543 kJ/mol
# GULP energy per Si atom -5574.514055 kJ/mol
# Density = 1.974638 g / cm^3
# Si number density = 19.791425 Si / 1000 Ang^3
#
#
#
# Elastic Constant Matrix: (Units=GPa)
#
#
# Indices 1 2 3 4 5 6 
#
# 1 73.8761 42.8486 30.1210 0.0000 0.0000 0.0000
# 2 42.8486 64.3433 45.8548 0.0000 0.0000 0.0000
# 3 30.1210 45.8548 102.4685 0.0000 0.0000 0.0000
# 4 0.0000 0.0000 0.0000 25.4494 0.0000 0.0000
# 5 0.0000 0.0000 0.0000 0.0000 -20.7278 0.0000
# 6 0.0000 0.0000 0.0000 0.0000 0.0000 36.3256
#
#
#
# Elastic Compliance Matrix: (Units=1/GPa)
#
#
# Indices 1 2 3 4 5 6 
#
# 1 0.022056 -0.014781 0.000131 0.000000 0.000000 0.000000
# 2 -0.014781 0.032725 -0.010300 0.000000 0.000000 0.000000
# 3 0.000131 -0.010300 0.014330 0.000000 0.000000 0.000000
# 4 0.000000 0.000000 0.000000 0.039294 0.000000 0.000000
# 5 0.000000 0.000000 0.000000 0.000000 -0.048244 0.000000
# 6 0.000000 0.000000 0.000000 0.000000 0.000000 0.027529
#
#
# Mechanical properties :
#
#
# Convention : Reuss Voigt Hill
#
# Bulk Modulus (GPa) = 52.05254 53.14853 52.60053
# Shear Modulus (GPa) = 34.72410 16.33365 25.52887
#
# Velocity S-wave (km/s) = 4.19322 2.87590 3.59541
# Velocity P-wave (km/s) = 7.05704 6.15958 6.62352
#
# Compressibility (1/GPa) = 0.01921136
#
# Stress axis : x y z
#
# Youngs Moduli (GPa) = 45.33909 30.55748 69.78589
#
# Poissons Ratio (x) = 0.45169 -0.00916
# Poissons Ratio (y) = 0.67018 0.71876
# Poissons Ratio (z) = -0.00595 0.31473
#
# Static dielectric constant tensor:
#      x y z
#    x 1.744250 0.000000 0.000000 
#    y 0.000000 1.823240 0.000000 
#    z 0.000000 0.000000 1.709400 
# 
# From -- ./inp_files/25413.got.cif
#   From: 2010.05.17/outbox.cif.g08.bks.cpg/sg22_13_cif.got.tgz:25413.got - 2010.06.03 23:40:54.
