data_PCOD9326835
_publ_section_title
;
Structure prediction by ZEFSAII (Michael W. Deem and Ramdas Pophale) SiO2 
 PCOD9326835
Probable space group: F 2 2 2
;
_chemical_formula_sum "Si O2"
_cell_formula_units_Z 92
_cell_length_a 8.297920
_cell_length_b 20.251608
_cell_length_c 25.692153
_cell_angle_alpha 90.000000
_cell_angle_beta 90.000000
_cell_angle_gamma 90.000000
_cell_volume 4317.469274
_symmetry_space_group_name_H-M "F 2 2 2"
_symmetry_group_IT_number 22
_symmetry_cell_setting 'orthorhombic'
loop_
_space_group_symop_operation_xyz
x,y,z
-x,-y,z
x,-y,-z
-x,y,-z
x,1/2+y,1/2+z
-x,1/2-y,1/2+z
x,1/2-y,1/2-z
-x,1/2+y,1/2-z
1/2+x,y,1/2+z
1/2-x,-y,1/2+z
1/2+x,-y,1/2-z
1/2-x,y,1/2-z
1/2+x,1/2+y,z
1/2-x,1/2-y,z
1/2+x,1/2-y,-z
1/2-x,1/2+y,-z
loop_
_atom_site_type_symbol
_atom_site_label
_atom_site_fract_x
_atom_site_fract_y
_atom_site_fract_z
Si Si1 0.070656 0.428460 0.274196
Si Si2 0.000000 0.000000 0.500000
Si Si3 0.222509 0.395103 0.376689
Si Si4 0.519698 0.663894 0.940950
Si Si5 0.248443 0.044445 0.584447
Si Si6 0.250000 0.750000 0.131390
Si Si7 0.073219 0.374148 0.828100
O O1 0.250000 0.435612 0.250000
O O2 0.098145 0.391689 0.328301
O O3 0.000000 0.500000 0.285321
O O4 0.957965 0.394563 0.231308
O O5 0.886223 0.958022 0.538801
O O6 0.216130 0.468557 0.401097
O O7 0.398528 0.378647 0.355548
O O8 0.158548 0.344443 0.418485
O O9 0.609121 0.592082 0.935442
O O10 0.625026 0.712612 0.906175
O O11 0.500000 0.684289 0.000000
O O12 0.180038 0.075025 0.638186
O O13 0.155034 0.696409 0.165283
#
# Coordination Sequence:
#
# PCOD9326835 Si02
#       7
#    16   4  16  16  16   8  16
#     4  10  20  35  64  97 128 163 199 259 333 402
#     4  12  20  32  62  92 132 172 198 260 332 388
#     4  11  21  39  65  98 130 163 205 268 333 399
#     4  11  25  42  62  89 125 168 220 267 318 385
#     4  11  21  37  61  98 131 165 203 261 333 399
#     4  10  26  46  61  86 124 172 229 274 308 386
#     4  10  21  41  63  90 129 167 218 261 324 387
#
# _framework density 21.308779999999999
#
# number of rings (size 3 to 8) (size 9 to 14) (size 15 to 20)
#    0.000    1.391    1.739    4.696    0.000    4.174 
#    3.130    1.739    0.000    3.130    0.000    0.000 
#    0.000    0.000    0.000    0.000    0.000    0.000 
#
# Total GULP energy -128654.364457 kJ/mol
# GULP energy per Si atom -5593.668020 kJ/mol
# Density = 2.126028 g / cm^3
# Si number density = 21.308780 Si / 1000 Ang^3
#
#
#
# Elastic Constant Matrix: (Units=GPa)
#
#
# Indices 1 2 3 4 5 6 
#
# 1 47.9865 21.3267 2.7947 0.0000 0.0000 0.0000
# 2 21.3267 64.9882 1.1680 0.0000 0.0000 0.0000
# 3 2.7947 1.1680 75.3763 0.0000 0.0000 0.0000
# 4 0.0000 0.0000 0.0000 -14.6745 0.0000 0.0000
# 5 0.0000 0.0000 0.0000 0.0000 32.4963 0.0000
# 6 0.0000 0.0000 0.0000 0.0000 0.0000 7.9045
#
#
#
# Elastic Compliance Matrix: (Units=1/GPa)
#
#
# Indices 1 2 3 4 5 6 
#
# 1 0.024443 -0.008007 -0.000782 0.000000 0.000000 0.000000
# 2 -0.008007 0.018015 0.000018 0.000000 0.000000 0.000000
# 3 -0.000782 0.000018 0.013296 0.000000 0.000000 0.000000
# 4 0.000000 0.000000 0.000000 -0.068145 0.000000 0.000000
# 5 0.000000 0.000000 0.000000 0.000000 0.030773 0.000000
# 6 0.000000 0.000000 0.000000 0.000000 0.000000 0.126510
#
#
# Mechanical properties :
#
#
# Convention : Reuss Voigt Hill
#
# Bulk Modulus (GPa) = 26.17110 26.54776 26.35943
# Shear Modulus (GPa) = 28.54342 16.01604 22.27973
#
# Velocity S-wave (km/s) = 3.66391 2.74454 3.23703
# Velocity P-wave (km/s) = 5.49613 4.74647 5.13500
#
# Compressibility (1/GPa) = 0.03821009
#
# Stress axis : x y z
#
# Youngs Moduli (GPa) = 40.91070 55.50991 75.21342
#
# Poissons Ratio (x) = 0.44449 0.05883
# Poissons Ratio (y) = 0.32759 -0.00133
# Poissons Ratio (z) = 0.03200 -0.00098
#
# Static dielectric constant tensor:
#      x y z
#    x 1.822190 0.000000 0.000000 
#    y 0.000000 1.726190 0.000000 
#    z 0.000000 0.000000 1.751370 
# 
# From -- ./inp_files/47295.got.cif
#   From: 2010.05.17/outbox.cif.g08.bks.cpg/sg22_24_cif.got.tgz:47295.got - 2010.06.03 23:40:54.
