data_PCOD9326396
_publ_section_title
;
Structure prediction by ZEFSAII (Michael W. Deem and Ramdas Pophale) SiO2 
 PCOD9326396
Probable space group: F 2 2 2
;
_chemical_formula_sum "Si O2"
_cell_formula_units_Z 108
_cell_length_a 11.372148
_cell_length_b 22.887122
_cell_length_c 23.517999
_cell_angle_alpha 90.000000
_cell_angle_beta 90.000000
_cell_angle_gamma 90.000000
_cell_volume 6121.164562
_symmetry_space_group_name_H-M "F 2 2 2"
_symmetry_group_IT_number 22
_symmetry_cell_setting 'orthorhombic'
loop_
_space_group_symop_operation_xyz
x,y,z
-x,-y,z
x,-y,-z
-x,y,-z
x,1/2+y,1/2+z
-x,1/2-y,1/2+z
x,1/2-y,1/2-z
-x,1/2+y,1/2-z
1/2+x,y,1/2+z
1/2-x,-y,1/2+z
1/2+x,-y,1/2-z
1/2-x,y,1/2-z
1/2+x,1/2+y,z
1/2-x,1/2-y,z
1/2+x,1/2-y,-z
1/2-x,1/2+y,-z
loop_
_atom_site_type_symbol
_atom_site_label
_atom_site_fract_x
_atom_site_fract_y
_atom_site_fract_z
Si Si1 0.389281 0.248786 0.459305
Si Si2 0.250000 0.750000 0.750000
Si Si3 0.250000 0.482162 0.750000
Si Si4 0.584548 0.443930 0.342429
Si Si5 0.653976 0.328670 0.847061
Si Si6 0.396637 0.454167 0.154818
Si Si7 0.712318 0.483775 0.564616
Si Si8 0.598088 0.131403 0.896210
O O1 0.500000 0.231324 0.500000
O O2 0.250000 0.250000 0.480778
O O3 0.382903 0.207771 0.402975
O O4 0.419143 0.313932 0.437212
O O5 0.330583 0.711372 0.791968
O O6 0.337802 0.442340 0.713833
O O7 0.309469 0.524920 0.795633
O O8 0.500000 0.500000 0.332935
O O9 0.661614 0.463405 0.397083
O O10 0.509871 0.386697 0.356277
O O11 0.575150 0.386050 0.838236
O O12 0.785577 0.353263 0.860001
O O13 0.500000 0.500000 0.157664
O O14 0.331135 0.462856 0.094895
O O15 0.727967 0.500000 0.500000
O O16 0.625092 0.428487 0.570064
#
# Coordination Sequence:
#
# PCOD9326396 Si02
#       8
#    16   4   8  16  16  16  16  16
#     4  10  21  41  61  89 116 154 207 251 306 362
#     4  12  18  36  64  88 122 150 208 272 298 344
#     4  10  19  34  52  79 113 143 188 230 290 354
#     4   9  18  30  51  78 109 149 182 233 285 348
#     4  10  21  38  58  90 115 149 202 254 300 352
#     4  10  21  38  54  81 114 153 191 230 303 371
#     4   9  19  32  49  82 117 142 188 239 289 350
#     4   9  18  35  56  83 114 146 198 240 299 350
#
# _framework density 17.643701
#
# number of rings (size 3 to 8) (size 9 to 14) (size 15 to 20)
#    0.000    2.370    2.222    1.778    2.074    3.556 
#    8.000    0.000    0.000    0.000    0.000    0.000 
#    0.000    0.000    0.000    0.000    0.000    0.000 
#
# Total GULP energy -150425.595906 kJ/mol
# GULP energy per Si atom -5571.318367 kJ/mol
# Density = 1.760354 g / cm^3
# Si number density = 17.643701 Si / 1000 Ang^3
#
#
#
# Elastic Constant Matrix: (Units=GPa)
#
#
# Indices 1 2 3 4 5 6 
#
# 1 58.9739 33.0880 44.1818 0.0000 0.0000 0.0000
# 2 33.0880 95.9411 41.5980 0.0000 0.0000 0.0000
# 3 44.1818 41.5980 126.4258 0.0000 0.0000 0.0000
# 4 0.0000 0.0000 0.0000 13.5499 0.0000 0.0000
# 5 0.0000 0.0000 0.0000 0.0000 25.8207 0.0000
# 6 0.0000 0.0000 0.0000 0.0000 0.0000 24.0940
#
#
#
# Elastic Compliance Matrix: (Units=1/GPa)
#
#
# Indices 1 2 3 4 5 6 
#
# 1 0.025413 -0.005731 -0.006995 0.000000 0.000000 0.000000
# 2 -0.005731 0.013450 -0.002423 0.000000 0.000000 0.000000
# 3 -0.006995 -0.002423 0.011151 0.000000 0.000000 0.000000
# 4 0.000000 0.000000 0.000000 0.073801 0.000000 0.000000
# 5 0.000000 0.000000 0.000000 0.000000 0.038729 0.000000
# 6 0.000000 0.000000 0.000000 0.000000 0.000000 0.041504
#
#
# Mechanical properties :
#
#
# Convention : Reuss Voigt Hill
#
# Bulk Modulus (GPa) = 50.71976 57.67517 54.19746
# Shear Modulus (GPa) = 20.75385 23.52444 22.13915
#
# Velocity S-wave (km/s) = 3.43341 3.65541 3.54615
# Velocity P-wave (km/s) = 6.67284 7.11166 6.89574
#
# Compressibility (1/GPa) = 0.01971618
#
# Stress axis : x y z
#
# Youngs Moduli (GPa) = 39.34998 74.34916 89.67421
#
# Poissons Ratio (x) = 0.42612 0.62729
# Poissons Ratio (y) = 0.22553 0.21724
# Poissons Ratio (z) = 0.27526 0.18011
#
# Static dielectric constant tensor:
#      x y z
#    x 1.658230 0.000000 0.000000 
#    y 0.000000 1.614200 0.000000 
#    z 0.000000 0.000000 1.600930 
# 
# From -- ./inp_files/48389.got.cif
#   From: 2010.05.17/outbox.cif.g08.bks.cpg/sg22_25_cif.got.tgz:48389.got - 2010.06.03 23:40:54.
