data_PCOD9326968
_publ_section_title
;
Structure prediction by ZEFSAII (Michael W. Deem and Ramdas Pophale) SiO2 
 PCOD9326968
Probable space group: F 2 2 2
;
_chemical_formula_sum "Si O2"
_cell_formula_units_Z 100
_cell_length_a 21.221188
_cell_length_b 15.305984
_cell_length_c 16.847189
_cell_angle_alpha 90.000000
_cell_angle_beta 90.000000
_cell_angle_gamma 90.000000
_cell_volume 5472.155069
_symmetry_space_group_name_H-M "F 2 2 2"
_symmetry_group_IT_number 22
_symmetry_cell_setting 'orthorhombic'
loop_
_space_group_symop_operation_xyz
x,y,z
-x,-y,z
x,-y,-z
-x,y,-z
x,1/2+y,1/2+z
-x,1/2-y,1/2+z
x,1/2-y,1/2-z
-x,1/2+y,1/2-z
1/2+x,y,1/2+z
1/2-x,-y,1/2+z
1/2+x,-y,1/2-z
1/2-x,y,1/2-z
1/2+x,1/2+y,z
1/2-x,1/2-y,z
1/2+x,1/2-y,-z
1/2-x,1/2+y,-z
loop_
_atom_site_type_symbol
_atom_site_label
_atom_site_fract_x
_atom_site_fract_y
_atom_site_fract_z
Si Si1 0.076069 0.862996 0.401585
Si Si2 0.273466 0.652472 0.423399
Si Si3 0.558866 0.171523 0.450409
Si Si4 0.176345 0.594392 0.540226
Si Si5 0.702605 0.990313 0.685696
Si Si6 0.500000 0.000000 0.000000
Si Si7 0.899131 0.350218 0.270444
O O1 0.151825 0.856714 0.414145
O O2 0.049977 0.774203 0.438646
O O3 0.060142 0.867123 0.307981
O O4 0.045277 0.942474 0.445931
O O5 0.250000 0.750000 0.400144
O O6 0.243152 0.632974 0.510160
O O7 0.240984 0.578038 0.369815
O O8 0.500000 0.133749 0.500000
O O9 0.621499 0.152910 0.502061
O O10 0.570273 0.143317 0.358328
O O11 0.166754 0.500000 0.500000
O O12 0.174878 0.568210 0.632171
O O13 0.750000 0.027477 0.750000
O O14 0.652845 0.925955 0.727129
O O15 0.875512 0.250000 0.250000
#
# Coordination Sequence:
#
# PCOD9326968 Si02
#       7
#    16  16  16  16  16   4  16
#     4  11  23  40  63  91 120 161 206 260 307 370
#     4  11  19  34  64  90 117 156 198 257 314 369
#     4  11  21  41  63  86 122 164 203 249 308 371
#     4  10  21  36  55  94 121 153 204 242 307 379
#     4  11  21  33  56  95 127 145 193 264 318 362
#     4  12  28  44  60  88 128 168 222 244 316 392
#     4  10  20  37  60  90 121 153 206 257 311 365
#
# _framework density 18.274336000000002
#
# number of rings (size 3 to 8) (size 9 to 14) (size 15 to 20)
#    0.000    1.280    7.200    0.960    3.360    0.320 
#    2.880    0.000    0.000    0.480    0.000    0.000 
#    0.000    0.000    0.000    0.000    0.000    0.000 
#
# Total GULP energy -139225.262241 kJ/mol
# GULP energy per Si atom -5569.010490 kJ/mol
# Density = 1.823274 g / cm^3
# Si number density = 18.274336 Si / 1000 Ang^3
#
#
#
# Elastic Constant Matrix: (Units=GPa)
#
#
# Indices 1 2 3 4 5 6 
#
# 1 66.4152 10.9338 45.1130 0.0000 0.0000 0.0000
# 2 10.9338 41.8722 52.3465 0.0000 0.0000 0.0000
# 3 45.1130 52.3465 135.4584 0.0000 0.0000 0.0000
# 4 0.0000 0.0000 0.0000 22.8461 0.0000 0.0000
# 5 0.0000 0.0000 0.0000 0.0000 23.8842 0.0000
# 6 0.0000 0.0000 0.0000 0.0000 0.0000 3.9565
#
#
#
# Elastic Compliance Matrix: (Units=1/GPa)
#
#
# Indices 1 2 3 4 5 6 
#
# 1 0.020227 0.006074 -0.009084 0.000000 0.000000 0.000000
# 2 0.006074 0.048028 -0.020583 0.000000 0.000000 0.000000
# 3 -0.009084 -0.020583 0.018362 0.000000 0.000000 0.000000
# 4 0.000000 0.000000 0.000000 0.043771 0.000000 0.000000
# 5 0.000000 0.000000 0.000000 0.000000 0.041869 0.000000
# 6 0.000000 0.000000 0.000000 0.000000 0.000000 0.252747
#
#
# Mechanical properties :
#
#
# Convention : Reuss Voigt Hill
#
# Bulk Modulus (GPa) = 25.36030 51.17027 38.26528
# Shear Modulus (GPa) = 10.30225 19.16086 14.73156
#
# Velocity S-wave (km/s) = 2.37693 3.24159 2.84233
# Velocity P-wave (km/s) = 4.63041 6.48633 5.63530
#
# Compressibility (1/GPa) = 0.03943171
#
# Stress axis : x y z
#
# Youngs Moduli (GPa) = 49.43899 20.82140 54.46168
#
# Poissons Ratio (x) = -0.12647 0.49471
# Poissons Ratio (y) = -0.30030 1.12097
# Poissons Ratio (z) = 0.44909 0.42856
#
# Static dielectric constant tensor:
#      x y z
#    x 1.648340 0.000000 0.000000 
#    y 0.000000 1.620340 0.000000 
#    z 0.000000 0.000000 1.686630 
# 
# From -- ./inp_files/38951.got.cif
#   From: 2010.05.17/outbox.cif.g08.bks.cpg/sg22_20_cif.got.tgz:38951.got - 2010.06.03 23:40:54.
