data_PCOD9326655
_publ_section_title
;
Structure prediction by ZEFSAII (Michael W. Deem and Ramdas Pophale) SiO2 
 PCOD9326655
Probable space group: F 2 2 2
;
_chemical_formula_sum "Si O2"
_cell_formula_units_Z 104
_cell_length_a 7.869759
_cell_length_b 27.843597
_cell_length_c 24.961109
_cell_angle_alpha 90.000000
_cell_angle_beta 90.000000
_cell_angle_gamma 90.000000
_cell_volume 5469.538063
_symmetry_space_group_name_H-M "F 2 2 2"
_symmetry_group_IT_number 22
_symmetry_cell_setting 'orthorhombic'
loop_
_space_group_symop_operation_xyz
x,y,z
-x,-y,z
x,-y,-z
-x,y,-z
x,1/2+y,1/2+z
-x,1/2-y,1/2+z
x,1/2-y,1/2-z
-x,1/2+y,1/2-z
1/2+x,y,1/2+z
1/2-x,-y,1/2+z
1/2+x,-y,1/2-z
1/2-x,y,1/2-z
1/2+x,1/2+y,z
1/2-x,1/2-y,z
1/2+x,1/2-y,-z
1/2-x,1/2+y,-z
loop_
_atom_site_type_symbol
_atom_site_label
_atom_site_fract_x
_atom_site_fract_y
_atom_site_fract_z
Si Si1 0.204795 0.919279 0.004196
Si Si2 0.164144 0.033388 0.192770
Si Si3 0.000000 0.657232 0.000000
Si Si4 0.837697 0.354498 0.690251
Si Si5 0.793753 0.999313 0.083958
Si Si6 0.442887 0.766979 0.305791
Si Si7 0.629666 0.708187 0.396679
O O1 0.248373 0.950041 0.057342
O O2 0.328072 0.874324 0.002365
O O3 0.249568 0.955924 0.955957
O O4 0.000000 0.909697 0.000000
O O5 0.250000 0.032176 0.250000
O O6 0.129171 0.089351 0.179771
O O7 0.269834 0.011617 0.143174
O O8 0.000000 0.000000 0.196922
O O9 0.022087 0.686135 0.944770
O O10 0.750000 0.350587 0.750000
O O11 0.726828 0.330992 0.641500
O O12 0.010009 0.322906 0.690416
O O13 0.000000 0.000000 0.085624
O O14 0.525255 0.750000 0.250000
O O15 0.250000 0.750000 0.304336
O O16 0.522082 0.738393 0.354403
O O17 0.750000 0.750000 0.420608
#
# Coordination Sequence:
#
# PCOD9326655 Si02
#       7
#    16  16   8  16  16  16  16
#     4   9  19  39  64  90 118 165 215 264 301 361
#     4  10  21  39  55  86 128 166 200 249 316 380
#     4  12  24  41  60 100 126 160 219 252 332 396
#     4  10  19  39  67  86 121 172 212 253 323 381
#     4   8  16  36  61  83 121 163 212 256 305 361
#     4  10  20  39  65  97 118 154 215 271 307 370
#     4  10  23  42  64  90 129 164 202 265 324 388
#
# _framework density 19.014403999999999
#
# number of rings (size 3 to 8) (size 9 to 14) (size 15 to 20)
#    0.000    2.308    1.538    1.846    0.000    1.846 
#   26.308    0.000    0.000    0.000    0.000    0.000 
#    0.000    0.000    0.000    0.000    0.000    0.000 
#
# Total GULP energy -144822.017622 kJ/mol
# GULP energy per Si atom -5570.077601 kJ/mol
# Density = 1.897113 g / cm^3
# Si number density = 19.014404 Si / 1000 Ang^3
#
#
#
# Elastic Constant Matrix: (Units=GPa)
#
#
# Indices 1 2 3 4 5 6 
#
# 1 57.0109 45.0636 18.9372 0.0000 0.0000 0.0000
# 2 45.0636 120.6878 56.3413 0.0000 0.0000 0.0000
# 3 18.9372 56.3413 125.3464 0.0000 0.0000 0.0000
# 4 0.0000 0.0000 0.0000 16.8477 0.0000 0.0000
# 5 0.0000 0.0000 0.0000 0.0000 18.5230 0.0000
# 6 0.0000 0.0000 0.0000 0.0000 0.0000 38.6958
#
#
#
# Elastic Compliance Matrix: (Units=1/GPa)
#
#
# Indices 1 2 3 4 5 6 
#
# 1 0.024913 -0.009549 0.000528 0.000000 0.000000 0.000000
# 2 -0.009549 0.014146 -0.004916 0.000000 0.000000 0.000000
# 3 0.000528 -0.004916 0.010108 0.000000 0.000000 0.000000
# 4 0.000000 0.000000 0.000000 0.059355 0.000000 0.000000
# 5 0.000000 0.000000 0.000000 0.000000 0.053987 0.000000
# 6 0.000000 0.000000 0.000000 0.000000 0.000000 0.025843
#
#
# Mechanical properties :
#
#
# Convention : Reuss Voigt Hill
#
# Bulk Modulus (GPa) = 46.96203 60.41439 53.68821
# Shear Modulus (GPa) = 22.38917 26.99350 24.69133
#
# Velocity S-wave (km/s) = 3.43517 3.77189 3.60746
# Velocity P-wave (km/s) = 6.36283 7.12822 6.75637
#
# Compressibility (1/GPa) = 0.02129380
#
# Stress axis : x y z
#
# Youngs Moduli (GPa) = 40.14006 70.69057 98.93457
#
# Poissons Ratio (x) = 0.67501 -0.05226
# Poissons Ratio (y) = 0.38329 0.48635
# Poissons Ratio (z) = -0.02120 0.34751
#
# Static dielectric constant tensor:
#      x y z
#    x 1.519950 0.000000 0.000000 
#    y 0.000000 1.657520 0.000000 
#    z 0.000000 0.000000 1.702490 
# 
# From -- ./inp_files/47502.got.cif
#   From: 2010.05.17/outbox.cif.g08.bks.cpg/sg22_24_cif.got.tgz:47502.got - 2010.06.03 23:40:54.
