data_PCOD9326178
_publ_section_title
;
Structure prediction by ZEFSAII (Michael W. Deem and Ramdas Pophale) SiO2 
 PCOD9326178
Probable space group: F 2 2 2
;
_chemical_formula_sum "Si O2"
_cell_formula_units_Z 64
_cell_length_a 8.170436
_cell_length_b 18.802915
_cell_length_c 15.714783
_cell_angle_alpha 90.000000
_cell_angle_beta 90.000000
_cell_angle_gamma 90.000000
_cell_volume 2414.230897
_symmetry_space_group_name_H-M "F 2 2 2"
_symmetry_group_IT_number 22
_symmetry_cell_setting 'orthorhombic'
loop_
_space_group_symop_operation_xyz
x,y,z
-x,-y,z
x,-y,-z
-x,y,-z
x,1/2+y,1/2+z
-x,1/2-y,1/2+z
x,1/2-y,1/2-z
-x,1/2+y,1/2-z
1/2+x,y,1/2+z
1/2-x,-y,1/2+z
1/2+x,-y,1/2-z
1/2-x,y,1/2-z
1/2+x,1/2+y,z
1/2-x,1/2-y,z
1/2+x,1/2-y,-z
1/2-x,1/2+y,-z
loop_
_atom_site_type_symbol
_atom_site_label
_atom_site_fract_x
_atom_site_fract_y
_atom_site_fract_z
Si Si1 0.055115 0.845607 0.335085
Si Si2 0.884497 0.595462 0.642894
Si Si3 0.677215 0.040760 0.843501
Si Si4 0.927016 0.282566 0.590029
O O1 0.082798 0.615764 0.257135
O O2 0.223160 0.860879 0.384019
O O3 0.896535 0.884732 0.375894
O O4 0.026081 0.762043 0.338969
O O5 0.818036 0.515310 0.625806
O O6 0.039445 0.633097 0.600002
O O7 0.750000 0.055421 0.750000
O O8 0.500000 0.000000 0.844031
O O9 0.750000 0.250000 0.597707
O O10 0.000000 0.261614 0.500000
#
# Coordination Sequence:
#
# PCOD9326178 Si02
#       4
#    16  16  16  16
#     4  10  21  38  67 100 137 174 221 280 347 408
#     4  10  20  40  66 100 137 174 222 280 346 411
#     4  10  18  34  62 101 136 173 212 281 344 402
#     4  12  27  44  65  92 134 186 238 291 348 416
#
# _framework density 26.509478000000001
#
# number of rings (size 3 to 8) (size 9 to 14) (size 15 to 20)
#    0.000    1.500    5.000    3.000    3.500    3.000 
#    0.000    0.000    0.000   21.750    0.000    0.000 
#    0.000    0.000    0.000    0.000    0.000    0.000 
#
# Total GULP energy -89099.767706 kJ/mol
# GULP energy per Si atom -5568.735482 kJ/mol
# Density = 2.644914 g / cm^3
# Si number density = 26.509478 Si / 1000 Ang^3
#
#
#
# Elastic Constant Matrix: (Units=GPa)
#
#
# Indices 1 2 3 4 5 6 
#
# 1 195.0439 59.8095 2.2052 0.0000 0.0000 0.0000
# 2 59.8095 199.3134 13.1334 0.0000 0.0000 0.0000
# 3 2.2052 13.1334 43.2705 0.0000 0.0000 0.0000
# 4 0.0000 0.0000 0.0000 9.1508 0.0000 0.0000
# 5 0.0000 0.0000 0.0000 0.0000 21.0244 0.0000
# 6 0.0000 0.0000 0.0000 0.0000 0.0000 66.1781
#
#
#
# Elastic Compliance Matrix: (Units=1/GPa)
#
#
# Indices 1 2 3 4 5 6 
#
# 1 0.005649 -0.001710 0.000231 0.000000 0.000000 0.000000
# 2 -0.001710 0.005637 -0.001624 0.000000 0.000000 0.000000
# 3 0.000231 -0.001624 0.023592 0.000000 0.000000 0.000000
# 4 0.000000 0.000000 0.000000 0.109280 0.000000 0.000000
# 5 0.000000 0.000000 0.000000 0.000000 0.047564 0.000000
# 6 0.000000 0.000000 0.000000 0.000000 0.000000 0.015111
#
#
# Mechanical properties :
#
#
# Convention : Reuss Voigt Hill
#
# Bulk Modulus (GPa) = 34.87740 65.32490 50.10115
# Shear Modulus (GPa) = 22.46227 43.43598 32.94912
#
# Velocity S-wave (km/s) = 2.91405 4.05224 3.52933
# Velocity P-wave (km/s) = 4.95049 6.82567 5.96226
#
# Compressibility (1/GPa) = 0.02867186
#
# Stress axis : x y z
#
# Youngs Moduli (GPa) = 177.02531 177.38469 42.38809
#
# Poissons Ratio (x) = 0.30339 -0.00980
# Poissons Ratio (y) = 0.30278 0.06883
# Poissons Ratio (z) = -0.04093 0.28806
#
# Static dielectric constant tensor:
#      x y z
#    x 2.175040 0.000000 0.000000 
#    y 0.000000 2.163000 0.000000 
#    z 0.000000 0.000000 2.107540 
# 
# From -- ./inp_files/47073.got.cif
#   From: 2010.05.17/outbox.cif.g08.bks.cpg/sg22_24_cif.got.tgz:47073.got - 2010.06.03 23:40:54.
