data_PCOD9326672
_publ_section_title
;
Structure prediction by ZEFSAII (Michael W. Deem and Ramdas Pophale) SiO2 
 PCOD9326672
Probable space group: F 2 2 2
;
_chemical_formula_sum "Si O2"
_cell_formula_units_Z 116
_cell_length_a 12.023937
_cell_length_b 16.457988
_cell_length_c 25.853913
_cell_angle_alpha 90.000000
_cell_angle_beta 90.000000
_cell_angle_gamma 90.000000
_cell_volume 5116.225954
_symmetry_space_group_name_H-M "F 2 2 2"
_symmetry_group_IT_number 22
_symmetry_cell_setting 'orthorhombic'
loop_
_space_group_symop_operation_xyz
x,y,z
-x,-y,z
x,-y,-z
-x,y,-z
x,1/2+y,1/2+z
-x,1/2-y,1/2+z
x,1/2-y,1/2-z
-x,1/2+y,1/2-z
1/2+x,y,1/2+z
1/2-x,-y,1/2+z
1/2+x,-y,1/2-z
1/2-x,y,1/2-z
1/2+x,1/2+y,z
1/2-x,1/2-y,z
1/2+x,1/2-y,-z
1/2-x,1/2+y,-z
loop_
_atom_site_type_symbol
_atom_site_label
_atom_site_fract_x
_atom_site_fract_y
_atom_site_fract_z
Si Si1 0.083547 0.932984 0.211889
Si Si2 0.673325 0.561089 0.672444
Si Si3 0.000000 0.500000 0.500000
Si Si4 0.790982 0.841456 0.101502
Si Si5 0.598736 0.796635 0.301092
Si Si6 0.587139 0.440215 0.582827
Si Si7 0.532174 0.653842 0.945852
Si Si8 0.553641 0.704510 0.621660
O O1 0.194086 0.937198 0.177865
O O2 0.122073 0.950512 0.270547
O O3 0.007202 0.853258 0.212043
O O4 0.000000 0.000000 0.191691
O O5 0.620622 0.493419 0.634528
O O6 0.641162 0.650434 0.652035
O O7 0.930540 0.436081 0.464434
O O8 0.750000 0.750000 0.089122
O O9 0.806258 0.842178 0.164728
O O10 0.708737 0.903202 0.072414
O O11 0.915075 0.858729 0.082657
O O12 0.634585 0.750000 0.250000
O O13 0.543361 0.732020 0.339492
O O14 0.500000 0.500000 0.555115
O O15 0.512267 0.359614 0.586840
O O16 0.596541 0.716877 0.909599
O O17 0.500000 0.696315 0.000000
#
# Coordination Sequence:
#
# PCOD9326672 Si02
#       8
#    16  16   4  16  16  16  16  16
#     4  11  22  38  56  84 133 188 239 291 334 393
#     4  10  22  37  60  90 129 186 237 280 348 405
#     4   8  20  44  72 104 124 164 196 292 336 424
#     4  11  21  40  68  99 128 183 225 272 347 412
#     4  11  22  36  59  90 136 178 235 288 328 409
#     4  10  20  39  64  90 134 178 225 281 332 404
#     4   9  20  41  75  96 132 160 214 286 355 418
#     4  10  19  40  64  92 132 176 214 287 350 408
#
# _framework density 22.672961999999998
#
# number of rings (size 3 to 8) (size 9 to 14) (size 15 to 20)
#    0.414    1.379    4.138    2.069    0.000    0.828 
#    9.931    0.000   12.138    3.724    0.000    0.000 
#    0.000    0.000    0.000    0.000    0.000    0.000 
#
# Total GULP energy -161475.284036 kJ/mol
# GULP energy per Si atom -5568.113243 kJ/mol
# Density = 2.262136 g / cm^3
# Si number density = 22.672962 Si / 1000 Ang^3
#
#
#
# Elastic Constant Matrix: (Units=GPa)
#
#
# Indices 1 2 3 4 5 6 
#
# 1 119.4975 31.7877 5.8162 0.0000 0.0000 0.0000
# 2 31.7877 98.3911 15.1836 0.0000 0.0000 0.0000
# 3 5.8162 15.1836 67.9128 0.0000 0.0000 0.0000
# 4 0.0000 0.0000 0.0000-1129.2813 0.0000 0.0000
# 5 0.0000 0.0000 0.0000 0.0000 -24.5316 0.0000
# 6 0.0000 0.0000 0.0000 0.0000 0.0000 -194.9332
#
#
#
# Elastic Compliance Matrix: (Units=1/GPa)
#
#
# Indices 1 2 3 4 5 6 
#
# 1 0.009156 -0.002939 -0.000127 0.000000 0.000000 0.000000
# 2 -0.002939 0.011470 -0.002313 0.000000 0.000000 0.000000
# 3 -0.000127 -0.002313 0.015253 0.000000 0.000000 0.000000
# 4 0.000000 0.000000 0.000000 -0.000886 0.000000 0.000000
# 5 0.000000 0.000000 0.000000 0.000000 -0.040764 0.000000
# 6 0.000000 0.000000 0.000000 0.000000 0.000000 -0.005130
#
#
# Mechanical properties :
#
#
# Convention : Reuss Voigt Hill
#
# Bulk Modulus (GPa) = 39.80583 43.48626 41.64604
# Shear Modulus (GPa) = 607.50978 -254.21497 176.64741
#
# Velocity S-wave (km/s) = 16.38677 -10.60028 8.83630
# Velocity P-wave (km/s) = 19.38117 11.42803 11.06865
#
# Compressibility (1/GPa) = 0.02512195
#
# Stress axis : x y z
#
# Youngs Moduli (GPa) = 109.21509 87.18567 65.56207
#
# Poissons Ratio (x) = 0.25620 0.00834
# Poissons Ratio (y) = 0.32093 0.15162
# Poissons Ratio (z) = 0.01389 0.20163
#
# Static dielectric constant tensor:
#      x y z
#    x 2.604650 0.000000 0.000000 
#    y 0.000000 2.044940 0.000000 
#    z 0.000000 0.000000 2.069870 
# 
# From -- ./inp_files/56193.got.cif
#   From: 2010.05.17/outbox.cif.g08.bks.cpg/sg22_29_cif.got.tgz:56193.got - 2010.06.03 23:40:54.
