data_PCOD9326296
_publ_section_title
;
Structure prediction by ZEFSAII (Michael W. Deem and Ramdas Pophale) SiO2 
 PCOD9326296
Probable space group: F 2 2 2
;
_chemical_formula_sum "Si O2"
_cell_formula_units_Z 64
_cell_length_a 20.180144
_cell_length_b 7.583658
_cell_length_c 18.925241
_cell_angle_alpha 90.000000
_cell_angle_beta 90.000000
_cell_angle_gamma 90.000000
_cell_volume 2896.305833
_symmetry_space_group_name_H-M "F 2 2 2"
_symmetry_group_IT_number 22
_symmetry_cell_setting 'orthorhombic'
loop_
_space_group_symop_operation_xyz
x,y,z
-x,-y,z
x,-y,-z
-x,y,-z
x,1/2+y,1/2+z
-x,1/2-y,1/2+z
x,1/2-y,1/2-z
-x,1/2+y,1/2-z
1/2+x,y,1/2+z
1/2-x,-y,1/2+z
1/2+x,-y,1/2-z
1/2-x,y,1/2-z
1/2+x,1/2+y,z
1/2-x,1/2-y,z
1/2+x,1/2-y,-z
1/2-x,1/2+y,-z
loop_
_atom_site_type_symbol
_atom_site_label
_atom_site_fract_x
_atom_site_fract_y
_atom_site_fract_z
Si Si1 0.788293 0.560159 0.423436
Si Si2 0.897953 0.776581 0.166769
Si Si3 0.481560 0.288681 0.578634
Si Si4 0.349746 0.061928 0.918132
O O1 0.814881 0.500000 0.500000
O O2 0.750000 0.750000 0.432265
O O3 0.844372 0.587459 0.364989
O O4 0.728277 0.428603 0.405097
O O5 0.898058 0.750000 0.250000
O O6 0.873995 0.593090 0.132588
O O7 0.971247 0.803644 0.135147
O O8 0.500000 0.500000 0.580090
O O9 0.500000 0.227071 0.500000
O O10 0.402808 0.282671 0.590949
O O11 0.357247 0.000000 0.000000
#
# Coordination Sequence:
#
# PCOD9326296 Si02
#       4
#    16  16  16  16
#     4   9  19  33  56  87 116 152 199 242 283 349
#     4  10  19  30  53  88 114 141 189 250 296 334
#     4   9  14  28  55  78  99 140 202 233 254 334
#     4   9  15  30  55  80  98 143 204 231 250 340
#
# _framework density 22.097114000000001
#
# number of rings (size 3 to 8) (size 9 to 14) (size 15 to 20)
#    0.000    2.750    5.000    0.000    0.000    4.500 
#    0.000    0.000   16.500    0.000    0.000   38.500 
#    0.000    0.000    0.000    0.000    0.000    0.000 
#
# Total GULP energy -89254.176658 kJ/mol
# GULP energy per Si atom -5578.386041 kJ/mol
# Density = 2.204682 g / cm^3
# Si number density = 22.097114 Si / 1000 Ang^3
#
#
#
# Elastic Constant Matrix: (Units=GPa)
#
#
# Indices 1 2 3 4 5 6 
#
# 1 206.1337 46.0677 102.0311 0.0000 0.0000 0.0000
# 2 46.0677 71.7560 35.9911 0.0000 0.0000 0.0000
# 3 102.0311 35.9911 190.6070 0.0000 0.0000 0.0000
# 4 0.0000 0.0000 0.0000 19.6765 0.0000 0.0000
# 5 0.0000 0.0000 0.0000 0.0000 6.2808 0.0000
# 6 0.0000 0.0000 0.0000 0.0000 0.0000 6.9996
#
#
#
# Elastic Compliance Matrix: (Units=1/GPa)
#
#
# Indices 1 2 3 4 5 6 
#
# 1 0.007120 -0.002937 -0.003256 0.000000 0.000000 0.000000
# 2 -0.002937 0.016606 -0.001563 0.000000 0.000000 0.000000
# 3 -0.003256 -0.001563 0.007285 0.000000 0.000000 0.000000
# 4 0.000000 0.000000 0.000000 0.050822 0.000000 0.000000
# 5 0.000000 0.000000 0.000000 0.000000 0.159215 0.000000
# 6 0.000000 0.000000 0.000000 0.000000 0.000000 0.142865
#
#
# Mechanical properties :
#
#
# Convention : Reuss Voigt Hill
#
# Bulk Modulus (GPa) = 64.53207 92.96407 78.74807
# Shear Modulus (GPa) = 12.35813 25.55184 18.95499
#
# Velocity S-wave (km/s) = 2.36744 3.40419 2.93201
# Velocity P-wave (km/s) = 6.06138 7.59035 6.86854
#
# Compressibility (1/GPa) = 0.01549617
#
# Stress axis : x y z
#
# Youngs Moduli (GPa) = 140.45873 60.21908 137.27397
#
# Poissons Ratio (x) = 0.17689 0.44702
# Poissons Ratio (y) = 0.41259 0.21459
# Poissons Ratio (z) = 0.45739 0.09413
#
# Static dielectric constant tensor:
#      x y z
#    x 1.914840 0.000000 0.000000 
#    y 0.000000 2.424430 0.000000 
#    z 0.000000 0.000000 1.771820 
# 
# From -- ./inp_files/11158.got.cif
#   From: 2010.05.17/outbox.cif.g08.bks.cpg/sg22_6_cif.got.tgz:11158.got - 2010.06.03 23:40:54.
