data_PCOD9326677
_publ_section_title
;
Structure prediction by ZEFSAII (Michael W. Deem and Ramdas Pophale) SiO2 
 PCOD9326677
Probable space group: F 2 2 2
;
_chemical_formula_sum "Si O2"
_cell_formula_units_Z 44
_cell_length_a 12.736590
_cell_length_b 6.701154
_cell_length_c 23.250785
_cell_angle_alpha 90.000000
_cell_angle_beta 90.000000
_cell_angle_gamma 90.000000
_cell_volume 1984.451036
_symmetry_space_group_name_H-M "F 2 2 2"
_symmetry_group_IT_number 22
_symmetry_cell_setting 'orthorhombic'
loop_
_space_group_symop_operation_xyz
x,y,z
-x,-y,z
x,-y,-z
-x,y,-z
x,1/2+y,1/2+z
-x,1/2-y,1/2+z
x,1/2-y,1/2-z
-x,1/2+y,1/2-z
1/2+x,y,1/2+z
1/2-x,-y,1/2+z
1/2+x,-y,1/2-z
1/2-x,y,1/2-z
1/2+x,1/2+y,z
1/2-x,1/2-y,z
1/2+x,1/2-y,-z
1/2-x,1/2+y,-z
loop_
_atom_site_type_symbol
_atom_site_label
_atom_site_fract_x
_atom_site_fract_y
_atom_site_fract_z
Si Si1 0.135004 0.340190 0.950309
Si Si2 0.000000 0.000000 0.228395
Si Si3 0.000000 0.500000 0.500000
Si Si4 0.366118 0.849814 0.178613
O O1 0.250000 0.250000 0.957275
O O2 0.125867 0.427256 0.886256
O O3 0.116113 0.500000 0.000000
O O4 0.063131 0.148812 0.959354
O O5 0.900315 0.989270 0.273143
O O6 0.954757 0.178252 0.189376
O O7 0.250000 0.750000 0.185204
#
# Coordination Sequence:
#
# PCOD9326677 Si02
#       4
#    16   8   4  16
#     4  11  24  45  68 104 145 184 231 283 350 421
#     4  10  19  40  67  91 120 177 222 272 338 396
#     4  12  24  40  72  96 140 190 218 284 342 412
#     4  10  23  42  64  95 135 171 222 291 335 404
#
# _framework density 22.172378999999999
#
# number of rings (size 3 to 8) (size 9 to 14) (size 15 to 20)
#    0.000    1.455    1.818    3.818    5.091    0.000 
#    0.000   14.545    0.000    0.000    0.000    0.000 
#    0.000    0.000    0.000    0.000    0.000    0.000 
#
# Total GULP energy -61284.752159 kJ/mol
# GULP energy per Si atom -5571.341105 kJ/mol
# Density = 2.212191 g / cm^3
# Si number density = 22.172379 Si / 1000 Ang^3
#
#
#
# Elastic Constant Matrix: (Units=GPa)
#
#
# Indices 1 2 3 4 5 6 
#
# 1 125.9589 40.2712 20.6769 0.0000 0.0000 0.0000
# 2 40.2712 82.5388 32.4090 0.0000 0.0000 0.0000
# 3 20.6769 32.4090 173.7936 0.0000 0.0000 0.0000
# 4 0.0000 0.0000 0.0000 43.7511 0.0000 0.0000
# 5 0.0000 0.0000 0.0000 0.0000 39.0929 0.0000
# 6 0.0000 0.0000 0.0000 0.0000 0.0000 39.6141
#
#
#
# Elastic Compliance Matrix: (Units=1/GPa)
#
#
# Indices 1 2 3 4 5 6 
#
# 1 0.009419 -0.004484 -0.000284 0.000000 0.000000 0.000000
# 2 -0.004484 0.015207 -0.002302 0.000000 0.000000 0.000000
# 3 -0.000284 -0.002302 0.006217 0.000000 0.000000 0.000000
# 4 0.000000 0.000000 0.000000 0.022857 0.000000 0.000000
# 5 0.000000 0.000000 0.000000 0.000000 0.025580 0.000000
# 6 0.000000 0.000000 0.000000 0.000000 0.000000 0.025244
#
#
# Mechanical properties :
#
#
# Convention : Reuss Voigt Hill
#
# Bulk Modulus (GPa) = 59.87291 63.22283 61.54787
# Shear Modulus (GPa) = 40.24681 43.75389 42.00035
#
# Velocity S-wave (km/s) = 4.26511 4.44706 4.35704
# Velocity P-wave (km/s) = 7.16358 7.41246 7.28908
#
# Compressibility (1/GPa) = 0.01670204
#
# Stress axis : x y z
#
# Youngs Moduli (GPa) = 106.16339 65.75755 160.84555
#
# Poissons Ratio (x) = 0.29486 0.04576
# Poissons Ratio (y) = 0.47605 0.37033
# Poissons Ratio (z) = 0.03020 0.15140
#
# Static dielectric constant tensor:
#      x y z
#    x 1.842970 0.000000 0.000000 
#    y 0.000000 1.864840 0.000000 
#    z 0.000000 0.000000 1.859940 
# 
# From -- ./inp_files/46826.got.cif
#   From: 2010.05.17/outbox.cif.g08.bks.cpg/sg22_24_cif.got.tgz:46826.got - 2010.06.03 23:40:54.
