data_PCOD9326593
_publ_section_title
;
Structure prediction by ZEFSAII (Michael W. Deem and Ramdas Pophale) SiO2 
 PCOD9326593
Probable space group: F 2 2 2
;
_chemical_formula_sum "Si O2"
_cell_formula_units_Z 120
_cell_length_a 11.610436
_cell_length_b 23.462569
_cell_length_c 21.549804
_cell_angle_alpha 90.000000
_cell_angle_beta 90.000000
_cell_angle_gamma 90.000000
_cell_volume 5870.396239
_symmetry_space_group_name_H-M "F 2 2 2"
_symmetry_group_IT_number 22
_symmetry_cell_setting 'orthorhombic'
loop_
_space_group_symop_operation_xyz
x,y,z
-x,-y,z
x,-y,-z
-x,y,-z
x,1/2+y,1/2+z
-x,1/2-y,1/2+z
x,1/2-y,1/2-z
-x,1/2+y,1/2-z
1/2+x,y,1/2+z
1/2-x,-y,1/2+z
1/2+x,-y,1/2-z
1/2-x,y,1/2-z
1/2+x,1/2+y,z
1/2-x,1/2-y,z
1/2+x,1/2-y,-z
1/2-x,1/2+y,-z
loop_
_atom_site_type_symbol
_atom_site_label
_atom_site_fract_x
_atom_site_fract_y
_atom_site_fract_z
Si Si1 0.906601 0.372080 0.223645
Si Si2 0.327898 0.882136 0.805499
Si Si3 0.368013 0.488594 0.674286
Si Si4 0.291325 0.815019 0.341979
Si Si5 0.188961 0.554619 0.042695
Si Si6 0.129031 0.645396 0.475057
Si Si7 0.500000 0.646494 0.500000
Si Si8 0.203252 0.191699 0.422951
O O1 0.876966 0.439582 0.226568
O O2 0.827626 0.349169 0.167832
O O3 0.869257 0.337110 0.284518
O O4 0.039764 0.366388 0.207849
O O5 0.250000 0.859573 0.750000
O O6 0.291339 0.857338 0.871518
O O7 0.320144 0.950549 0.806853
O O8 0.500000 0.500000 0.654071
O O9 0.305937 0.465415 0.613469
O O10 0.250000 0.750000 0.337457
O O11 0.354019 0.829130 0.406184
O O12 0.309650 0.583732 0.024912
O O13 0.162940 0.500000 0.000000
O O14 0.091401 0.603380 0.032408
O O15 0.207295 0.682010 0.521468
O O16 0.000000 0.644304 0.500000
O O17 0.575863 0.685363 0.453346
O O18 0.250000 0.250000 0.393333
#
# Coordination Sequence:
#
# PCOD9326593 Si02
#       8
#    16  16  16  16  16  16   8  16
#     4  10  22  43  70 104 133 180 237 292 338 408
#     4  11  26  43  65 101 141 181 225 280 359 422
#     4  10  19  37  67  99 134 177 235 289 340 406
#     4  11  24  46  74 102 135 186 244 290 340 415
#     4  11  20  38  67 101 138 182 230 291 345 420
#     4  11  26  43  66 100 144 179 230 288 364 437
#     4  10  21  40  70 102 130 170 239 290 340 404
#     4  11  26  45  68  97 133 182 233 290 355 422
#
# _framework density 20.441549999999999
#
# number of rings (size 3 to 8) (size 9 to 14) (size 15 to 20)
#    0.000    1.333    1.333    5.400    6.533    1.600 
#    2.400    0.000    0.000    0.000    0.000    0.000 
#    0.000    0.000    0.000    0.000    0.000    0.000 
#
# Total GULP energy -167559.865676 kJ/mol
# GULP energy per Si atom -5585.328856 kJ/mol
# Density = 2.039502 g / cm^3
# Si number density = 20.441550 Si / 1000 Ang^3
#
#
#
# Elastic Constant Matrix: (Units=GPa)
#
#
# Indices 1 2 3 4 5 6 
#
# 1 112.0725 40.4170 45.4793 0.0000 0.0000 0.0000
# 2 40.4170 113.3296 30.8832 0.0000 0.0000 0.0000
# 3 45.4793 30.8832 116.8378 0.0000 0.0000 0.0000
# 4 0.0000 0.0000 0.0000 42.5595 0.0000 0.0000
# 5 0.0000 0.0000 0.0000 0.0000 34.6088 0.0000
# 6 0.0000 0.0000 0.0000 0.0000 0.0000 16.4416
#
#
#
# Elastic Compliance Matrix: (Units=1/GPa)
#
#
# Indices 1 2 3 4 5 6 
#
# 1 0.011534 -0.003114 -0.003666 0.000000 0.000000 0.000000
# 2 -0.003114 0.010350 -0.001523 0.000000 0.000000 0.000000
# 3 -0.003666 -0.001523 0.010389 0.000000 0.000000 0.000000
# 4 0.000000 0.000000 0.000000 0.023497 0.000000 0.000000
# 5 0.000000 0.000000 0.000000 0.000000 0.028894 0.000000
# 6 0.000000 0.000000 0.000000 0.000000 0.000000 0.060821
#
#
# Mechanical properties :
#
#
# Convention : Reuss Voigt Hill
#
# Bulk Modulus (GPa) = 63.84065 63.97764 63.90915
# Shear Modulus (GPa) = 29.88405 33.75268 31.81836
#
# Velocity S-wave (km/s) = 3.82766 4.06788 3.94960
# Velocity P-wave (km/s) = 7.12975 7.30954 7.22020
#
# Compressibility (1/GPa) = 0.01566400
#
# Stress axis : x y z
#
# Youngs Moduli (GPa) = 86.70257 96.62220 96.25849
#
# Poissons Ratio (x) = 0.30090 0.35292
# Poissons Ratio (y) = 0.27001 0.14665
# Poissons Ratio (z) = 0.31788 0.14720
#
# Static dielectric constant tensor:
#      x y z
#    x 1.715760 0.000000 0.000000 
#    y 0.000000 1.783580 0.000000 
#    z 0.000000 0.000000 1.734480 
# 
# From -- ./inp_files/42953.got.cif
#   From: 2010.05.17/outbox.cif.g08.bks.cpg/sg22_22_cif.got.tgz:42953.got - 2010.06.03 23:40:54.
