data_PCOD9326196
_publ_section_title
;
Structure prediction by ZEFSAII (Michael W. Deem and Ramdas Pophale) SiO2 
 PCOD9326196
Probable space group: F 2 2 2
;
_chemical_formula_sum "Si O2"
_cell_formula_units_Z 80
_cell_length_a 27.313955
_cell_length_b 7.949205
_cell_length_c 15.248020
_cell_angle_alpha 90.000000
_cell_angle_beta 90.000000
_cell_angle_gamma 90.000000
_cell_volume 3310.714566
_symmetry_space_group_name_H-M "F 2 2 2"
_symmetry_group_IT_number 22
_symmetry_cell_setting 'orthorhombic'
loop_
_space_group_symop_operation_xyz
x,y,z
-x,-y,z
x,-y,-z
-x,y,-z
x,1/2+y,1/2+z
-x,1/2-y,1/2+z
x,1/2-y,1/2-z
-x,1/2+y,1/2-z
1/2+x,y,1/2+z
1/2-x,-y,1/2+z
1/2+x,-y,1/2-z
1/2-x,y,1/2-z
1/2+x,1/2+y,z
1/2-x,1/2-y,z
1/2+x,1/2-y,-z
1/2-x,1/2+y,-z
loop_
_atom_site_type_symbol
_atom_site_label
_atom_site_fract_x
_atom_site_fract_y
_atom_site_fract_z
Si Si1 0.843457 0.077417 0.365400
Si Si2 0.952377 0.112521 0.829381
Si Si3 0.551983 0.054923 0.901373
Si Si4 0.155837 0.429449 0.305938
Si Si5 0.307369 0.249137 0.026930
O O1 0.901259 0.033473 0.358768
O O2 0.834021 0.231202 0.432180
O O3 0.823535 0.060380 0.265982
O O4 0.821228 0.919221 0.418886
O O5 0.956010 0.250000 0.750000
O O6 0.900618 0.021259 0.823168
O O7 0.945576 0.255509 0.592815
O O8 0.000000 0.000000 0.836765
O O9 0.500000 0.000000 0.861685
O O10 0.552992 0.000000 0.000000
O O11 0.155543 0.250000 0.250000
O O12 0.180231 0.391749 0.400143
O O13 0.250000 0.250000 0.008683
#
# Coordination Sequence:
#
# PCOD9326196 Si02
#       5
#    16  16  16  16  16
#     4  10  18  35  59  92 131 172 227 286 345 429
#     4  11  20  35  61  98 139 180 228 280 346 423
#     4  11  20  36  64  95 128 185 232 274 352 426
#     4   9  17  32  57  93 129 172 229 276 337 428
#     4  10  19  34  61  93 122 172 231 291 350 411
#
# _framework density 24.163969000000002
#
# number of rings (size 3 to 8) (size 9 to 14) (size 15 to 20)
#    0.000    1.800    8.000    0.600    0.000    3.600 
#    0.000    2.000    8.800    0.000    5.200    0.000 
#    0.000    0.000    0.000    0.000    0.000    0.000 
#
# Total GULP energy -111547.128592 kJ/mol
# GULP energy per Si atom -5577.356430 kJ/mol
# Density = 2.410897 g / cm^3
# Si number density = 24.163969 Si / 1000 Ang^3
#
#
#
# Elastic Constant Matrix: (Units=GPa)
#
#
# Indices 1 2 3 4 5 6 
#
# 1 138.7952 18.4668 39.4570 0.0000 0.0000 0.0000
# 2 18.4668 83.0638 52.8473 0.0000 0.0000 0.0000
# 3 39.4570 52.8473 172.6617 0.0000 0.0000 0.0000
# 4 0.0000 0.0000 0.0000 41.0618 0.0000 0.0000
# 5 0.0000 0.0000 0.0000 0.0000 -12.5766 0.0000
# 6 0.0000 0.0000 0.0000 0.0000 0.0000 15.1129
#
#
#
# Elastic Compliance Matrix: (Units=1/GPa)
#
#
# Indices 1 2 3 4 5 6 
#
# 1 0.007742 -0.000740 -0.001543 0.000000 0.000000 0.000000
# 2 -0.000740 0.015021 -0.004428 0.000000 0.000000 0.000000
# 3 -0.001543 -0.004428 0.007500 0.000000 0.000000 0.000000
# 4 0.000000 0.000000 0.000000 0.024354 0.000000 0.000000
# 5 0.000000 0.000000 0.000000 0.000000 -0.079513 0.000000
# 6 0.000000 0.000000 0.000000 0.000000 0.000000 0.066168
#
#
# Mechanical properties :
#
#
# Convention : Reuss Voigt Hill
#
# Bulk Modulus (GPa) = 59.38021 68.45143 63.91582
# Shear Modulus (GPa) = 82.90902 27.63627 55.27265
#
# Velocity S-wave (km/s) = 5.86392 3.38553 4.78787
# Velocity P-wave (km/s) = 8.39491 6.60846 7.55468
#
# Compressibility (1/GPa) = 0.01684063
#
# Stress axis : x y z
#
# Youngs Moduli (GPa) = 129.16791 66.57393 133.33885
#
# Poissons Ratio (x) = 0.04924 0.20572
# Poissons Ratio (y) = 0.09553 0.59049
# Poissons Ratio (z) = 0.19928 0.29482
#
# Static dielectric constant tensor:
#      x y z
#    x 1.572160 0.000000 0.000000 
#    y 0.000000 2.066310 0.000000 
#    z 0.000000 0.000000 2.103530 
# 
# From -- ./inp_files/28289.got.cif
#   From: 2010.05.17/outbox.cif.g08.bks.cpg/sg22_15_cif.got.tgz:28289.got - 2010.06.03 23:40:54.
