data_PCOD9326455
_publ_section_title
;
Structure prediction by ZEFSAII (Michael W. Deem and Ramdas Pophale) SiO2 
 PCOD9326455
Probable space group: F 2 2 2
;
_chemical_formula_sum "Si O2"
_cell_formula_units_Z 104
_cell_length_a 20.815367
_cell_length_b 14.380628
_cell_length_c 16.959139
_cell_angle_alpha 90.000000
_cell_angle_beta 90.000000
_cell_angle_gamma 90.000000
_cell_volume 5076.515590
_symmetry_space_group_name_H-M "F 2 2 2"
_symmetry_group_IT_number 22
_symmetry_cell_setting 'orthorhombic'
loop_
_space_group_symop_operation_xyz
x,y,z
-x,-y,z
x,-y,-z
-x,y,-z
x,1/2+y,1/2+z
-x,1/2-y,1/2+z
x,1/2-y,1/2-z
-x,1/2+y,1/2-z
1/2+x,y,1/2+z
1/2-x,-y,1/2+z
1/2+x,-y,1/2-z
1/2-x,y,1/2-z
1/2+x,1/2+y,z
1/2-x,1/2-y,z
1/2+x,1/2-y,-z
1/2-x,1/2+y,-z
loop_
_atom_site_type_symbol
_atom_site_label
_atom_site_fract_x
_atom_site_fract_y
_atom_site_fract_z
Si Si1 0.762912 0.103251 0.597945
Si Si2 0.859603 0.739121 0.604887
Si Si3 0.751330 0.610187 0.584038
Si Si4 0.644290 0.653995 0.201797
Si Si5 0.607368 0.720874 0.427174
Si Si6 0.958789 0.591547 0.189014
Si Si7 0.545612 0.250000 0.250000
O O1 0.735238 0.118040 0.509932
O O2 0.712838 0.126143 0.666534
O O3 0.824795 0.169492 0.594093
O O4 0.773477 0.992724 0.602616
O O5 0.819184 0.643991 0.618249
O O6 0.804761 0.818793 0.607216
O O7 0.891767 0.753560 0.518882
O O8 0.910664 0.748631 0.673033
O O9 0.649634 0.750000 0.250000
O O10 0.603930 0.685721 0.124860
O O11 0.607216 0.582915 0.259564
O O12 0.556934 0.646842 0.391954
O O13 0.000000 0.500000 0.175101
O O14 0.000700 0.660687 0.242236
#
# Coordination Sequence:
#
# PCOD9326455 Si02
#       7
#    16  16  16  16  16  16   8
#     4  10  19  34  66 100 129 152 213 265 327 384
#     4  10  22  41  66  86 130 168 208 258 334 389
#     4   9  20  37  60 101 126 160 203 268 314 399
#     4  10  20  39  63  94 127 161 206 267 336 382
#     4  10  20  42  66  92 123 169 213 261 328 398
#     4  11  26  45  62  92 132 166 225 281 312 386
#     4  12  26  45  60  87 126 174 218 270 326 376
#
# _framework density 20.486492999999999
#
# number of rings (size 3 to 8) (size 9 to 14) (size 15 to 20)
#    0.000    1.846    3.846    0.462    4.308    6.154 
#    0.000    3.846    0.000    0.923    0.000    0.000 
#    0.000    0.000    0.000    0.000    0.000    0.000 
#
# Total GULP energy -145054.222075 kJ/mol
# GULP energy per Si atom -5579.008541 kJ/mol
# Density = 2.043986 g / cm^3
# Si number density = 20.486493 Si / 1000 Ang^3
#
#
#
# Elastic Constant Matrix: (Units=GPa)
#
#
# Indices 1 2 3 4 5 6 
#
# 1 49.8309 -5.0179 38.7078 0.0000 0.0000 0.0000
# 2 -5.0179 31.7775 -2.8088 0.0000 0.0000 0.0000
# 3 38.7078 -2.8088 107.1767 0.0000 0.0000 0.0000
# 4 0.0000 0.0000 0.0000 12.2508 0.0000 0.0000
# 5 0.0000 0.0000 0.0000 0.0000 -21.8571 0.0000
# 6 0.0000 0.0000 0.0000 0.0000 0.0000 31.6345
#
#
#
# Elastic Compliance Matrix: (Units=1/GPa)
#
#
# Indices 1 2 3 4 5 6 
#
# 1 0.028292 0.003573 -0.010124 0.000000 0.000000 0.000000
# 2 0.003573 0.031993 -0.000452 0.000000 0.000000 0.000000
# 3 -0.010124 -0.000452 0.012975 0.000000 0.000000 0.000000
# 4 0.000000 0.000000 0.000000 0.081627 0.000000 0.000000
# 5 0.000000 0.000000 0.000000 0.000000 -0.045752 0.000000
# 6 0.000000 0.000000 0.000000 0.000000 0.000000 0.031611
#
#
# Mechanical properties :
#
#
# Convention : Reuss Voigt Hill
#
# Bulk Modulus (GPa) = 16.87676 27.83859 22.35767
# Shear Modulus (GPa) = 28.65257 14.93258 21.79258
#
# Velocity S-wave (km/s) = 3.74385 2.70274 3.26506
# Velocity P-wave (km/s) = 5.19081 4.83301 5.01510
#
# Compressibility (1/GPa) = 0.05925309
#
# Stress axis : x y z
#
# Youngs Moduli (GPa) = 35.34568 31.25684 77.07124
#
# Poissons Ratio (x) = -0.11167 0.78029
# Poissons Ratio (y) = -0.12628 0.03483
# Poissons Ratio (z) = 0.35785 0.01412
#
# Static dielectric constant tensor:
#      x y z
#    x 1.764700 0.000000 0.000000 
#    y 0.000000 1.919150 0.000000 
#    z 0.000000 0.000000 1.752140 
# 
# From -- ./inp_files/38939.got.cif
#   From: 2010.05.17/outbox.cif.g08.bks.cpg/sg22_20_cif.got.tgz:38939.got - 2010.06.03 23:40:54.
