data_PCOD9326894
_publ_section_title
;
Structure prediction by ZEFSAII (Michael W. Deem and Ramdas Pophale) SiO2 
 PCOD9326894
Probable space group: F 2 2 2
;
_chemical_formula_sum "Si O2"
_cell_formula_units_Z 104
_cell_length_a 7.736318
_cell_length_b 22.302468
_cell_length_c 29.762077
_cell_angle_alpha 90.000000
_cell_angle_beta 90.000000
_cell_angle_gamma 90.000000
_cell_volume 5135.118546
_symmetry_space_group_name_H-M "F 2 2 2"
_symmetry_group_IT_number 22
_symmetry_cell_setting 'orthorhombic'
loop_
_space_group_symop_operation_xyz
x,y,z
-x,-y,z
x,-y,-z
-x,y,-z
x,1/2+y,1/2+z
-x,1/2-y,1/2+z
x,1/2-y,1/2-z
-x,1/2+y,1/2-z
1/2+x,y,1/2+z
1/2-x,-y,1/2+z
1/2+x,-y,1/2-z
1/2-x,y,1/2-z
1/2+x,1/2+y,z
1/2-x,1/2-y,z
1/2+x,1/2-y,-z
1/2-x,1/2+y,-z
loop_
_atom_site_type_symbol
_atom_site_label
_atom_site_fract_x
_atom_site_fract_y
_atom_site_fract_z
Si Si1 0.086706 0.708133 0.542891
Si Si2 0.283341 0.561439 0.200091
Si Si3 0.750000 0.250000 0.412769
Si Si4 0.831169 0.880370 0.609576
Si Si5 0.806294 0.576394 0.298834
Si Si6 0.710225 0.507495 0.551998
Si Si7 0.232041 0.388034 0.103871
O O1 0.250000 0.750000 0.531260
O O2 0.152714 0.661400 0.579596
O O3 0.000000 0.676196 0.500000
O O4 0.929150 0.748603 0.560205
O O5 0.250000 0.585409 0.250000
O O6 0.186361 0.592148 0.159129
O O7 0.231772 0.491314 0.199293
O O8 0.488628 0.568668 0.195293
O O9 0.751211 0.185723 0.388726
O O10 0.748064 0.928388 0.574748
O O11 0.030319 0.876342 0.594720
O O12 0.750000 0.600744 0.250000
O O13 0.748563 0.612181 0.342485
O O14 0.500000 0.500000 0.552666
O O15 0.764425 0.500000 0.500000
O O16 0.777380 0.453414 0.583383
#
# Coordination Sequence:
#
# PCOD9326894 Si02
#       7
#    16  16   8  16  16  16  16
#     4  12  26  46  68  97 133 181 237 281 333 402
#     4  10  20  36  61  95 132 173 222 279 342 408
#     4  12  26  44  67  92 130 182 227 274 332 400
#     4  11  22  40  67  94 134 175 222 274 339 406
#     4  10  20  36  62  96 134 172 221 282 350 414
#     4   9  20  36  60  92 129 170 214 269 337 399
#     4  11  22  41  67  98 132 172 224 282 343 403
#
# _framework density 20.252697999999999
#
# number of rings (size 3 to 8) (size 9 to 14) (size 15 to 20)
#    0.000    1.385    3.846    1.846    2.154    1.231 
#    0.000    0.385    0.000    0.462    0.000    0.000 
#    0.000    0.000    0.000    0.000    0.000    0.000 
#
# Total GULP energy -145149.351446 kJ/mol
# GULP energy per Si atom -5582.667363 kJ/mol
# Density = 2.020660 g / cm^3
# Si number density = 20.252698 Si / 1000 Ang^3
#
#
#
# Elastic Constant Matrix: (Units=GPa)
#
#
# Indices 1 2 3 4 5 6 
#
# 1 81.3370 23.1791 19.7483 0.0000 0.0000 0.0000
# 2 23.1791 103.0694 62.6686 0.0000 0.0000 0.0000
# 3 19.7483 62.6686 151.4622 0.0000 0.0000 0.0000
# 4 0.0000 0.0000 0.0000 16.9296 0.0000 0.0000
# 5 0.0000 0.0000 0.0000 0.0000 28.2462 0.0000
# 6 0.0000 0.0000 0.0000 0.0000 0.0000 22.3835
#
#
#
# Elastic Compliance Matrix: (Units=1/GPa)
#
#
# Indices 1 2 3 4 5 6 
#
# 1 0.013185 -0.002565 -0.000658 0.000000 0.000000 0.000000
# 2 -0.002565 0.013463 -0.005236 0.000000 0.000000 0.000000
# 3 -0.000658 -0.005236 0.008854 0.000000 0.000000 0.000000
# 4 0.000000 0.000000 0.000000 0.059068 0.000000 0.000000
# 5 0.000000 0.000000 0.000000 0.000000 0.035403 0.000000
# 6 0.000000 0.000000 0.000000 0.000000 0.000000 0.044676
#
#
# Mechanical properties :
#
#
# Convention : Reuss Voigt Hill
#
# Bulk Modulus (GPa) = 53.80785 60.78450 57.29618
# Shear Modulus (GPa) = 25.28294 28.86335 27.07315
#
# Velocity S-wave (km/s) = 3.53707 3.77923 3.66015
# Velocity P-wave (km/s) = 6.58081 7.00868 6.79811
#
# Compressibility (1/GPa) = 0.01858465
#
# Stress axis : x y z
#
# Youngs Moduli (GPa) = 75.84223 74.27994 112.93808
#
# Poissons Ratio (x) = 0.19055 0.07428
# Poissons Ratio (y) = 0.19456 0.59132
# Poissons Ratio (z) = 0.04988 0.38891
#
# Static dielectric constant tensor:
#      x y z
#    x 1.787930 0.000000 0.000000 
#    y 0.000000 1.704910 0.000000 
#    z 0.000000 0.000000 1.728140 
# 
# From -- ./inp_files/55605.got.cif
#   From: 2010.05.17/outbox.cif.g08.bks.cpg/sg22_28_cif.got.tgz:55605.got - 2010.06.03 23:40:54.
