data_PCOD9326152
_publ_section_title
;
Structure prediction by ZEFSAII (Michael W. Deem and Ramdas Pophale) SiO2 
 PCOD9326152
Probable space group: F 2 2 2
;
_chemical_formula_sum "Si O2"
_cell_formula_units_Z 104
_cell_length_a 9.662566
_cell_length_b 19.309184
_cell_length_c 29.882745
_cell_angle_alpha 90.000000
_cell_angle_beta 90.000000
_cell_angle_gamma 90.000000
_cell_volume 5575.410944
_symmetry_space_group_name_H-M "F 2 2 2"
_symmetry_group_IT_number 22
_symmetry_cell_setting 'orthorhombic'
loop_
_space_group_symop_operation_xyz
x,y,z
-x,-y,z
x,-y,-z
-x,y,-z
x,1/2+y,1/2+z
-x,1/2-y,1/2+z
x,1/2-y,1/2-z
-x,1/2+y,1/2-z
1/2+x,y,1/2+z
1/2-x,-y,1/2+z
1/2+x,-y,1/2-z
1/2-x,y,1/2-z
1/2+x,1/2+y,z
1/2-x,1/2-y,z
1/2+x,1/2-y,-z
1/2-x,1/2+y,-z
loop_
_atom_site_type_symbol
_atom_site_label
_atom_site_fract_x
_atom_site_fract_y
_atom_site_fract_z
Si Si1 0.030900 0.416670 0.550502
Si Si2 0.941011 0.911645 0.812165
Si Si3 0.546370 0.881765 0.158173
Si Si4 0.779189 0.934607 0.611502
Si Si5 0.905285 0.246345 0.196926
Si Si6 0.500000 0.000000 0.771215
Si Si7 0.683068 0.085290 0.622490
O O1 0.918421 0.386189 0.584604
O O2 0.000000 0.500000 0.552886
O O3 0.000000 0.394949 0.500000
O O4 0.184008 0.404763 0.571057
O O5 0.078966 0.937756 0.837782
O O6 0.806524 0.919977 0.842963
O O7 0.966485 0.829414 0.810828
O O8 0.922515 0.949142 0.764351
O O9 0.432696 0.907934 0.121758
O O10 0.487126 0.812573 0.179995
O O11 0.696309 0.865534 0.138546
O O12 0.566906 0.943919 0.194799
O O13 0.766222 0.017281 0.605803
O O14 0.894348 0.250000 0.250000
O O15 0.750000 0.250000 0.177357
#
# Coordination Sequence:
#
# PCOD9326152 Si02
#       7
#    16  16  16  16  16   8  16
#     4   8  16  33  58  83 111 146 178 221 285 349
#     4  11  21  36  54  77 105 155 194 232 267 322
#     4  12  23  34  52  82 115 153 184 239 284 314
#     4  10  18  34  55  81 110 142 189 230 271 337
#     4  11  23  37  52  75 108 153 206 232 262 322
#     4  12  22  34  56  78 108 154 198 230 280 304
#     4  10  20  34  53  82 113 138 185 236 279 333
#
# _framework density 18.653333
#
# number of rings (size 3 to 8) (size 9 to 14) (size 15 to 20)
#    0.000    1.538    6.154    0.923    0.000    3.077 
#    0.000    1.538    0.000    3.692    0.000   17.231 
#    0.000    0.000    0.000    0.000    0.000    0.000 
#
# Total GULP energy -144814.490194 kJ/mol
# GULP energy per Si atom -5569.788084 kJ/mol
# Density = 1.861088 g / cm^3
# Si number density = 18.653333 Si / 1000 Ang^3
#
#
#
# Elastic Constant Matrix: (Units=GPa)
#
#
# Indices 1 2 3 4 5 6 
#
# 1 116.0882 15.1105 41.4014 0.0000 0.0000 0.0000
# 2 15.1105 80.8608 5.4203 0.0000 0.0000 0.0000
# 3 41.4014 5.4203 95.4303 0.0000 0.0000 0.0000
# 4 0.0000 0.0000 0.0000 9.3997 0.0000 0.0000
# 5 0.0000 0.0000 0.0000 0.0000 1.3993 0.0000
# 6 0.0000 0.0000 0.0000 0.0000 0.0000 14.6040
#
#
#
# Elastic Compliance Matrix: (Units=1/GPa)
#
#
# Indices 1 2 3 4 5 6 
#
# 1 0.010405 -0.001648 -0.004421 0.000000 0.000000 0.000000
# 2 -0.001648 0.012675 -0.000005 0.000000 0.000000 0.000000
# 3 -0.004421 -0.000005 0.012397 0.000000 0.000000 0.000000
# 4 0.000000 0.000000 0.000000 0.106387 0.000000 0.000000
# 5 0.000000 0.000000 0.000000 0.000000 0.714653 0.000000
# 6 0.000000 0.000000 0.000000 0.000000 0.000000 0.068475
#
#
# Mechanical properties :
#
#
# Convention : Reuss Voigt Hill
#
# Bulk Modulus (GPa) = 42.86290 46.24929 44.55609
# Shear Modulus (GPa) = 5.29148 20.44372 12.86760
#
# Velocity S-wave (km/s) = 1.68609 3.31415 2.62931
# Velocity P-wave (km/s) = 5.17872 6.28433 5.75812
#
# Compressibility (1/GPa) = 0.02333020
#
# Stress axis : x y z
#
# Youngs Moduli (GPa) = 96.10576 78.89393 80.66506
#
# Poissons Ratio (x) = 0.13003 0.35659
# Poissons Ratio (y) = 0.15839 0.00040
# Poissons Ratio (z) = 0.42484 0.00039
#
# Static dielectric constant tensor:
#      x y z
#    x 1.684450 0.000000 0.000000 
#    y 0.000000 1.742910 0.000000 
#    z 0.000000 0.000000 1.669020 
# 
# From -- ./inp_files/55610.got.cif
#   From: 2010.05.17/outbox.cif.g08.bks.cpg/sg22_28_cif.got.tgz:55610.got - 2010.06.03 23:40:54.
