data_PCOD9326926
_publ_section_title
;
Structure prediction by ZEFSAII (Michael W. Deem and Ramdas Pophale) SiO2 
 PCOD9326926
Probable space group: F 2 2 2
;
_chemical_formula_sum "Si O2"
_cell_formula_units_Z 56
_cell_length_a 12.101400
_cell_length_b 9.137164
_cell_length_c 21.253826
_cell_angle_alpha 90.000000
_cell_angle_beta 90.000000
_cell_angle_gamma 90.000000
_cell_volume 2350.088174
_symmetry_space_group_name_H-M "F 2 2 2"
_symmetry_group_IT_number 22
_symmetry_cell_setting 'orthorhombic'
loop_
_space_group_symop_operation_xyz
x,y,z
-x,-y,z
x,-y,-z
-x,y,-z
x,1/2+y,1/2+z
-x,1/2-y,1/2+z
x,1/2-y,1/2-z
-x,1/2+y,1/2-z
1/2+x,y,1/2+z
1/2-x,-y,1/2+z
1/2+x,-y,1/2-z
1/2-x,y,1/2-z
1/2+x,1/2+y,z
1/2-x,1/2-y,z
1/2+x,1/2-y,-z
1/2-x,1/2+y,-z
loop_
_atom_site_type_symbol
_atom_site_label
_atom_site_fract_x
_atom_site_fract_y
_atom_site_fract_z
Si Si1 0.036364 0.848525 0.608051
Si Si2 0.000000 0.500000 0.771944
Si Si3 0.126884 0.563183 0.564199
Si Si4 0.148643 0.149541 0.832443
O O1 0.115972 0.737841 0.571626
O O2 0.928474 0.752461 0.624192
O O3 0.069871 0.900798 0.678860
O O4 0.000000 0.000000 0.576030
O O5 0.078507 0.408873 0.726191
O O6 0.176444 0.500000 0.500000
O O7 0.181567 0.489643 0.624935
O O8 0.000000 0.500000 0.565402
O O9 0.250000 0.250000 0.815901
#
# Coordination Sequence:
#
# PCOD9326926 Si02
#       4
#    16   8  16  16
#     4   9  20  36  62  93 126 176 221 282 350 410
#     4  10  20  36  65  93 142 164 224 282 358 410
#     4   9  18  38  63  88 130 183 230 277 349 415
#     4  11  21  37  63  98 127 182 227 274 351 414
#
# _framework density 23.828893000000001
#
# number of rings (size 3 to 8) (size 9 to 14) (size 15 to 20)
#    0.857    1.429    4.286    0.857    0.000    2.286 
#    0.000   15.714    0.000    3.429    0.000    0.000 
#    0.000    0.000    0.000    0.000    0.000    0.000 
#
# Total GULP energy -78124.830459 kJ/mol
# GULP energy per Si atom -5580.345033 kJ/mol
# Density = 2.377466 g / cm^3
# Si number density = 23.828893 Si / 1000 Ang^3
#
#
#
# Elastic Constant Matrix: (Units=GPa)
#
#
# Indices 1 2 3 4 5 6 
#
# 1 66.9201 31.8384 25.2245 0.0000 0.0000 0.0000
# 2 31.8384 220.9358 84.6805 0.0000 0.0000 0.0000
# 3 25.2245 84.6805 132.7560 0.0000 0.0000 0.0000
# 4 0.0000 0.0000 0.0000 -12.1767 0.0000 0.0000
# 5 0.0000 0.0000 0.0000 0.0000 5.0391 0.0000
# 6 0.0000 0.0000 0.0000 0.0000 0.0000 33.6551
#
#
#
# Elastic Compliance Matrix: (Units=1/GPa)
#
#
# Indices 1 2 3 4 5 6 
#
# 1 0.016490 -0.001556 -0.002141 0.000000 0.000000 0.000000
# 2 -0.001556 0.006138 -0.003619 0.000000 0.000000 0.000000
# 3 -0.002141 -0.003619 0.010248 0.000000 0.000000 0.000000
# 4 0.000000 0.000000 0.000000 -0.082124 0.000000 0.000000
# 5 0.000000 0.000000 0.000000 0.000000 0.198448 0.000000
# 6 0.000000 0.000000 0.000000 0.000000 0.000000 0.029713
#
#
# Mechanical properties :
#
#
# Convention : Reuss Voigt Hill
#
# Bulk Modulus (GPa) = 54.81267 78.23316 66.52291
# Shear Modulus (GPa) = 25.04678 23.89475 24.47076
#
# Velocity S-wave (km/s) = 3.24560 3.17008 3.20806
# Velocity P-wave (km/s) = 6.09079 6.80454 6.45753
#
# Compressibility (1/GPa) = 0.01824396
#
# Stress axis : x y z
#
# Youngs Moduli (GPa) = 60.64142 162.92904 97.57937
#
# Poissons Ratio (x) = 0.25349 0.20890
# Poissons Ratio (y) = 0.09435 0.35318
# Poissons Ratio (z) = 0.12983 0.58970
#
# Static dielectric constant tensor:
#      x y z
#    x 1.931160 0.000000 0.000000 
#    y 0.000000 1.982940 0.000000 
#    z 0.000000 0.000000 1.978430 
# 
# From -- ./inp_files/8366.got.cif
#   From: 2010.05.17/outbox.cif.g08.bks.cpg/sg22_5_cif.got.tgz:8366.got - 2010.06.03 23:40:54.
