data_PCOD9326004
_publ_section_title
;
Structure prediction by ZEFSAII (Michael W. Deem and Ramdas Pophale) SiO2 
 PCOD9326004
Probable space group: F 2 2 2
;
_chemical_formula_sum "Si O2"
_cell_formula_units_Z 88
_cell_length_a 11.514723
_cell_length_b 27.949529
_cell_length_c 11.428707
_cell_angle_alpha 90.000000
_cell_angle_beta 90.000000
_cell_angle_gamma 90.000000
_cell_volume 3678.113167
_symmetry_space_group_name_H-M "F 2 2 2"
_symmetry_group_IT_number 22
_symmetry_cell_setting 'orthorhombic'
loop_
_space_group_symop_operation_xyz
x,y,z
-x,-y,z
x,-y,-z
-x,y,-z
x,1/2+y,1/2+z
-x,1/2-y,1/2+z
x,1/2-y,1/2-z
-x,1/2+y,1/2-z
1/2+x,y,1/2+z
1/2-x,-y,1/2+z
1/2+x,-y,1/2-z
1/2-x,y,1/2-z
1/2+x,1/2+y,z
1/2-x,1/2-y,z
1/2+x,1/2-y,-z
1/2-x,1/2+y,-z
loop_
_atom_site_type_symbol
_atom_site_label
_atom_site_fract_x
_atom_site_fract_y
_atom_site_fract_z
Si Si1 0.960423 0.353313 0.138470
Si Si2 0.850668 0.711258 0.138535
Si Si3 0.708242 0.447949 0.943890
Si Si4 0.560635 0.551109 0.288016
Si Si5 0.500000 0.286969 0.000000
Si Si6 0.781028 0.347974 0.448445
O O1 0.826405 0.337443 0.139526
O O2 0.058311 0.322719 0.207098
O O3 0.971119 0.407213 0.181005
O O4 0.000000 0.351037 0.000000
O O5 0.750000 0.750000 0.153889
O O6 0.942039 0.748664 0.085715
O O7 0.775862 0.671519 0.069169
O O8 0.615870 0.441074 0.839726
O O9 0.834645 0.446392 0.882019
O O10 0.691715 0.500000 0.000000
O O11 0.699787 0.404469 0.035706
O O12 0.500000 0.500000 0.293895
O O13 0.400814 0.319297 0.939426
#
# Coordination Sequence:
#
# PCOD9326004 Si02
#       6
#    16  16  16  16   8  16
#     4  10  17  34  60  90 126 168 213 274 318 382
#     4   9  16  29  53  91 130 164 216 269 317 382
#     4  11  24  42  63  91 133 172 216 273 336 390
#     4  11  24  39  63  95 126 168 222 273 328 399
#     4  10  18  30  55  92 129 168 222 260 328 390
#     4  10  19  33  59  92 125 170 214 270 325 384
#
# _framework density 23.92531
#
# number of rings (size 3 to 8) (size 9 to 14) (size 15 to 20)
#    0.000    1.818    6.364    1.091    0.000    1.818 
#    0.000    0.000    0.000    7.636    0.000    0.000 
#   10.909    0.000    0.000    0.000    0.000    0.000 
#
# Total GULP energy -122649.583180 kJ/mol
# GULP energy per Si atom -5574.981054 kJ/mol
# Density = 2.387086 g / cm^3
# Si number density = 23.925310 Si / 1000 Ang^3
#
#
#
# Elastic Constant Matrix: (Units=GPa)
#
#
# Indices 1 2 3 4 5 6 
#
# 1 153.9447 53.8444 13.3706 0.0000 0.0000 0.0000
# 2 53.8444 160.6909 2.4105 0.0000 0.0000 0.0000
# 3 13.3706 2.4105 21.3747 0.0000 0.0000 0.0000
# 4 0.0000 0.0000 0.0000 43.3025 0.0000 0.0000
# 5 0.0000 0.0000 0.0000 0.0000 47.4612 0.0000
# 6 0.0000 0.0000 0.0000 0.0000 0.0000 49.3528
#
#
#
# Elastic Compliance Matrix: (Units=1/GPa)
#
#
# Indices 1 2 3 4 5 6 
#
# 1 0.007782 -0.002539 -0.004581 0.000000 0.000000 0.000000
# 2 -0.002539 0.007062 0.000792 0.000000 0.000000 0.000000
# 3 -0.004581 0.000792 0.049561 0.000000 0.000000 0.000000
# 4 0.000000 0.000000 0.000000 0.023093 0.000000 0.000000
# 5 0.000000 0.000000 0.000000 0.000000 0.021070 0.000000
# 6 0.000000 0.000000 0.000000 0.000000 0.000000 0.020262
#
#
# Mechanical properties :
#
#
# Convention : Reuss Voigt Hill
#
# Bulk Modulus (GPa) = 19.32461 52.80681 36.06571
# Shear Modulus (GPa) = 31.49880 45.78229 38.64054
#
# Velocity S-wave (km/s) = 3.63236 4.37916 4.02313
# Velocity P-wave (km/s) = 5.06820 6.90571 6.05704
#
# Compressibility (1/GPa) = 0.05174749
#
# Stress axis : x y z
#
# Youngs Moduli (GPa) = 128.50616 141.60399 20.17721
#
# Poissons Ratio (x) = 0.35950 0.09244
# Poissons Ratio (y) = 0.32625 -0.01597
# Poissons Ratio (z) = 0.58874 -0.11211
#
# Static dielectric constant tensor:
#      x y z
#    x 1.946790 0.000000 0.000000 
#    y 0.000000 1.842960 0.000000 
#    z 0.000000 0.000000 2.046070 
# 
# From -- ./inp_files/28345.got.cif
#   From: 2010.05.17/outbox.cif.g08.bks.cpg/sg22_15_cif.got.tgz:28345.got - 2010.06.03 23:40:54.
