data_PCOD9326583
_publ_section_title
;
Structure prediction by ZEFSAII (Michael W. Deem and Ramdas Pophale) SiO2 
 PCOD9326583
Probable space group: F 2 2 2
;
_chemical_formula_sum "Si O2"
_cell_formula_units_Z 112
_cell_length_a 30.175050
_cell_length_b 14.498790
_cell_length_c 12.489391
_cell_angle_alpha 90.000000
_cell_angle_beta 90.000000
_cell_angle_gamma 90.000000
_cell_volume 5464.129959
_symmetry_space_group_name_H-M "F 2 2 2"
_symmetry_group_IT_number 22
_symmetry_cell_setting 'orthorhombic'
loop_
_space_group_symop_operation_xyz
x,y,z
-x,-y,z
x,-y,-z
-x,y,-z
x,1/2+y,1/2+z
-x,1/2-y,1/2+z
x,1/2-y,1/2-z
-x,1/2+y,1/2-z
1/2+x,y,1/2+z
1/2-x,-y,1/2+z
1/2+x,-y,1/2-z
1/2-x,y,1/2-z
1/2+x,1/2+y,z
1/2-x,1/2-y,z
1/2+x,1/2-y,-z
1/2-x,1/2+y,-z
loop_
_atom_site_type_symbol
_atom_site_label
_atom_site_fract_x
_atom_site_fract_y
_atom_site_fract_z
Si Si1 0.299434 0.279196 0.064909
Si Si2 0.946753 0.519086 0.120365
Si Si3 0.297344 0.334386 0.811501
Si Si4 0.546743 0.847218 0.472679
Si Si5 0.171383 0.973715 0.878710
Si Si6 0.610597 0.794717 0.133353
Si Si7 0.570674 0.489559 0.154343
O O1 0.250000 0.250000 0.093559
O O2 0.310470 0.371036 0.133919
O O3 0.338860 0.205486 0.088064
O O4 0.297670 0.305251 0.937295
O O5 0.921045 0.615731 0.142681
O O6 0.931997 0.460396 0.223172
O O7 0.000000 0.500000 0.120293
O O8 0.931897 0.500000 0.000000
O O9 0.321596 0.250000 0.750000
O O10 0.250000 0.339864 0.750000
O O11 0.315112 0.438897 0.807162
O O12 0.500000 0.801307 0.500000
O O13 0.583510 0.774797 0.441918
O O14 0.561971 0.906864 0.573869
O O15 0.539410 0.923894 0.378614
O O16 0.118788 0.969951 0.870621
O O17 0.184103 0.000000 0.000000
O O18 0.613007 0.750000 0.250000
#
# Coordination Sequence:
#
# PCOD9326583 Si02
#       7
#    16  16  16  16  16  16  16
#     4  11  22  43  70 101 142 186 242 292 360 449
#     4  11  26  46  64  94 148 192 230 296 381 441
#     4  10  20  40  66 100 135 185 227 301 358 421
#     4  11  21  36  72 105 125 175 245 294 348 418
#     4  10  19  37  65  98 138 171 228 299 361 412
#     4  12  25  47  70 101 145 194 239 305 372 443
#     4  11  19  42  66 103 136 173 232 297 347 431
#
# _framework density 20.497316000000001
#
# number of rings (size 3 to 8) (size 9 to 14) (size 15 to 20)
#    0.000    1.143    5.714    2.571    2.000    1.429 
#    5.143    1.429    0.000    0.000    0.000    0.000 
#    0.000    0.000    0.000    0.000    0.000    0.000 
#
# Total GULP energy -155963.748090 kJ/mol
# GULP energy per Si atom -5570.133860 kJ/mol
# Density = 2.045066 g / cm^3
# Si number density = 20.497316 Si / 1000 Ang^3
#
#
#
# Elastic Constant Matrix: (Units=GPa)
#
#
# Indices 1 2 3 4 5 6 
#
# 1 131.3862 44.9831 23.0234 0.0000 0.0000 0.0000
# 2 44.9831 74.4026 25.4679 0.0000 0.0000 0.0000
# 3 23.0234 25.4679 107.4465 0.0000 0.0000 0.0000
# 4 0.0000 0.0000 0.0000 27.9439 0.0000 0.0000
# 5 0.0000 0.0000 0.0000 0.0000 32.3819 0.0000
# 6 0.0000 0.0000 0.0000 0.0000 0.0000 16.8496
#
#
#
# Elastic Compliance Matrix: (Units=1/GPa)
#
#
# Indices 1 2 3 4 5 6 
#
# 1 0.009652 -0.005581 -0.000746 0.000000 0.000000 0.000000
# 2 -0.005581 0.017854 -0.003036 0.000000 0.000000 0.000000
# 3 -0.000746 -0.003036 0.010186 0.000000 0.000000 0.000000
# 4 0.000000 0.000000 0.000000 0.035786 0.000000 0.000000
# 5 0.000000 0.000000 0.000000 0.000000 0.030881 0.000000
# 6 0.000000 0.000000 0.000000 0.000000 0.000000 0.059348
#
#
# Mechanical properties :
#
#
# Convention : Reuss Voigt Hill
#
# Bulk Modulus (GPa) = 52.72016 55.57601 54.14809
# Shear Modulus (GPa) = 26.48935 30.08583 28.28759
#
# Velocity S-wave (km/s) = 3.59880 3.83534 3.71895
# Velocity P-wave (km/s) = 6.56086 6.84001 6.70189
#
# Compressibility (1/GPa) = 0.01896808
#
# Stress axis : x y z
#
# Youngs Moduli (GPa) = 103.60082 56.01118 98.17071
#
# Poissons Ratio (x) = 0.31257 0.07319
# Poissons Ratio (y) = 0.57815 0.29805
# Poissons Ratio (z) = 0.07724 0.17005
#
# Static dielectric constant tensor:
#      x y z
#    x 1.768260 0.000000 0.000000 
#    y 0.000000 1.773980 0.000000 
#    z 0.000000 0.000000 1.758350 
# 
# From -- ./inp_files/25389.got.cif
#   From: 2010.05.17/outbox.cif.g08.bks.cpg/sg22_13_cif.got.tgz:25389.got - 2010.06.03 23:40:54.
