data_PCOD9326735
_publ_section_title
;
Structure prediction by ZEFSAII (Michael W. Deem and Ramdas Pophale) SiO2 
 PCOD9326735
Probable space group: F 2 2 2
;
_chemical_formula_sum "Si O2"
_cell_formula_units_Z 60
_cell_length_a 19.021231
_cell_length_b 16.007715
_cell_length_c 9.424505
_cell_angle_alpha 90.000000
_cell_angle_beta 90.000000
_cell_angle_gamma 90.000000
_cell_volume 2869.634021
_symmetry_space_group_name_H-M "F 2 2 2"
_symmetry_group_IT_number 22
_symmetry_cell_setting 'orthorhombic'
loop_
_space_group_symop_operation_xyz
x,y,z
-x,-y,z
x,-y,-z
-x,y,-z
x,1/2+y,1/2+z
-x,1/2-y,1/2+z
x,1/2-y,1/2-z
-x,1/2+y,1/2-z
1/2+x,y,1/2+z
1/2-x,-y,1/2+z
1/2+x,-y,1/2-z
1/2-x,y,1/2-z
1/2+x,1/2+y,z
1/2-x,1/2-y,z
1/2+x,1/2-y,-z
1/2-x,1/2+y,-z
loop_
_atom_site_type_symbol
_atom_site_label
_atom_site_fract_x
_atom_site_fract_y
_atom_site_fract_z
Si Si1 0.863291 0.849430 0.770275
Si Si2 0.750000 0.250000 0.750000
Si Si3 0.836578 0.890701 0.097080
Si Si4 0.482045 0.665307 0.833162
Si Si5 0.250000 0.031671 0.750000
O O1 0.852777 0.750000 0.750000
O O2 0.809120 0.906608 0.682661
O O3 0.946569 0.866191 0.758166
O O4 0.844976 0.874787 0.931013
O O5 0.798848 0.190975 0.843103
O O6 0.915251 0.895382 0.162089
O O7 0.790589 0.968571 0.146185
O O8 0.462680 0.750000 0.750000
O O9 0.500000 0.683479 0.000000
#
# Coordination Sequence:
#
# PCOD9326735 Si02
#       5
#    16   4  16  16   8
#     4  10  22  39  62  89 121 165 207 252 303 373
#     4  10  20  32  60  88 122 158 190 250 300 370
#     4  10  21  38  60  89 122 159 205 251 309 362
#     4   9  18  37  61  89 119 160 212 253 306 371
#     4  11  23  37  53  94 122 158 197 249 309 353
#
# _framework density 20.908588999999999
#
# number of rings (size 3 to 8) (size 9 to 14) (size 15 to 20)
#    0.000    2.133    1.333    1.200    3.733    1.067 
#    0.000    4.000    0.000    0.000    0.000    9.333 
#    0.000    0.000    0.000    0.000    0.000    0.000 
#
# Total GULP energy -83678.152876 kJ/mol
# GULP energy per Si atom -5578.543525 kJ/mol
# Density = 2.086100 g / cm^3
# Si number density = 20.908589 Si / 1000 Ang^3
#
#
#
# Elastic Constant Matrix: (Units=GPa)
#
#
# Indices 1 2 3 4 5 6 
#
# 1 168.6069 81.9497 34.9282 0.0000 0.0000 0.0000
# 2 81.9497 127.3980 25.2137 0.0000 0.0000 0.0000
# 3 34.9282 25.2137 25.6413 0.0000 0.0000 0.0000
# 4 0.0000 0.0000 0.0000 23.6243 0.0000 0.0000
# 5 0.0000 0.0000 0.0000 0.0000 25.2060 0.0000
# 6 0.0000 0.0000 0.0000 0.0000 0.0000 802.4843
#
#
#
# Elastic Compliance Matrix: (Units=1/GPa)
#
#
# Indices 1 2 3 4 5 6 
#
# 1 0.010107 -0.004689 -0.009157 0.000000 0.000000 0.000000
# 2 -0.004689 0.011922 -0.005335 0.000000 0.000000 0.000000
# 3 -0.009157 -0.005335 0.056719 0.000000 0.000000 0.000000
# 4 0.000000 0.000000 0.000000 0.042329 0.000000 0.000000
# 5 0.000000 0.000000 0.000000 0.000000 0.039673 0.000000
# 6 0.000000 0.000000 0.000000 0.000000 0.000000 0.001246
#
#
# Mechanical properties :
#
#
# Convention : Reuss Voigt Hill
#
# Bulk Modulus (GPa) = 24.76142 67.31438 46.03790
# Shear Modulus (GPa) = 23.38415 182.23323 102.80869
#
# Velocity S-wave (km/s) = 3.34788 9.34593 7.01978
# Velocity P-wave (km/s) = 5.17811 12.19534 9.36854
#
# Compressibility (1/GPa) = 0.04038541
#
# Stress axis : x y z
#
# Youngs Moduli (GPa) = 98.94209 83.88081 17.63078
#
# Poissons Ratio (x) = 0.39333 0.16144
# Poissons Ratio (y) = 0.46395 0.09407
# Poissons Ratio (z) = 0.90597 0.44754
#
# Static dielectric constant tensor:
#      x y z
#    x 1.834430 0.000000 0.000000 
#    y 0.000000 1.751900 0.000000 
#    z 0.000000 0.000000 1.467080 
# 
# From -- ./inp_files/10976.got.cif
#   From: 2010.05.17/outbox.cif.g08.bks.cpg/sg22_6_cif.got.tgz:10976.got - 2010.06.03 23:40:54.
