data_PCOD9326753
_publ_section_title
;
Structure prediction by ZEFSAII (Michael W. Deem and Ramdas Pophale) SiO2 
 PCOD9326753
Probable space group: F 2 2 2
;
_chemical_formula_sum "Si O2"
_cell_formula_units_Z 80
_cell_length_a 21.144307
_cell_length_b 9.009086
_cell_length_c 23.871956
_cell_angle_alpha 90.000000
_cell_angle_beta 90.000000
_cell_angle_gamma 90.000000
_cell_volume 4547.389910
_symmetry_space_group_name_H-M "F 2 2 2"
_symmetry_group_IT_number 22
_symmetry_cell_setting 'orthorhombic'
loop_
_space_group_symop_operation_xyz
x,y,z
-x,-y,z
x,-y,-z
-x,y,-z
x,1/2+y,1/2+z
-x,1/2-y,1/2+z
x,1/2-y,1/2-z
-x,1/2+y,1/2-z
1/2+x,y,1/2+z
1/2-x,-y,1/2+z
1/2+x,-y,1/2-z
1/2-x,y,1/2-z
1/2+x,1/2+y,z
1/2-x,1/2-y,z
1/2+x,1/2-y,-z
1/2-x,1/2+y,-z
loop_
_atom_site_type_symbol
_atom_site_label
_atom_site_fract_x
_atom_site_fract_y
_atom_site_fract_z
Si Si1 0.750000 0.250000 0.075075
Si Si2 0.682808 0.500000 0.500000
Si Si3 0.992442 0.675852 0.810633
Si Si4 0.927393 0.723773 0.003605
Si Si5 0.381747 0.317035 0.879502
Si Si6 0.061156 0.895156 0.886442
O O1 0.728130 0.107501 0.037064
O O2 0.690385 0.276689 0.114257
O O3 0.629406 0.384954 0.524278
O O4 0.997975 0.750000 0.750000
O O5 0.925187 0.723533 0.837489
O O6 0.000000 0.500000 0.808053
O O7 0.045486 0.749992 0.850725
O O8 0.929570 0.852116 0.049487
O O9 0.909713 0.781817 0.941875
O O10 0.000000 0.664673 0.000000
O O11 0.385665 0.492048 0.866338
O O12 0.000000 0.000000 0.880790
#
# Coordination Sequence:
#
# PCOD9326753 Si02
#       6
#     8   8  16  16  16  16
#     4  10  24  40  53  80 124 168 211 228 280 340
#     4  10  25  34  52  78 123 162 200 236 276 342
#     4  11  23  39  63  89 118 146 193 254 312 356
#     4  11  19  32  59  87 121 148 192 237 299 353
#     4  10  22  36  57  86 120 160 200 233 290 350
#     4  10  20  33  59  87 120 149 184 238 302 357
#
# _framework density 17.592509
#
# number of rings (size 3 to 8) (size 9 to 14) (size 15 to 20)
#    0.000    1.600    4.000    2.700   11.200    0.000 
#    0.000    0.500    0.000    0.000    0.000    0.000 
#    0.000    0.000    0.000    0.000    0.000    0.000 
#
# Total GULP energy -111342.712162 kJ/mol
# GULP energy per Si atom -5567.135608 kJ/mol
# Density = 1.755247 g / cm^3
# Si number density = 17.592509 Si / 1000 Ang^3
#
#
#
# Elastic Constant Matrix: (Units=GPa)
#
#
# Indices 1 2 3 4 5 6 
#
# 1 87.6169 22.3744 16.3400 0.0000 0.0000 0.0000
# 2 22.3744 124.1202 24.7231 0.0000 0.0000 0.0000
# 3 16.3400 24.7231 64.3175 0.0000 0.0000 0.0000
# 4 0.0000 0.0000 0.0000 26.2567 0.0000 0.0000
# 5 0.0000 0.0000 0.0000 0.0000 8.3325 0.0000
# 6 0.0000 0.0000 0.0000 0.0000 0.0000 8.8174
#
#
#
# Elastic Compliance Matrix: (Units=1/GPa)
#
#
# Indices 1 2 3 4 5 6 
#
# 1 0.012314 -0.001729 -0.002464 0.000000 0.000000 0.000000
# 2 -0.001729 0.008968 -0.003008 0.000000 0.000000 0.000000
# 3 -0.002464 -0.003008 0.017330 0.000000 0.000000 0.000000
# 4 0.000000 0.000000 0.000000 0.038086 0.000000 0.000000
# 5 0.000000 0.000000 0.000000 0.000000 0.120012 0.000000
# 6 0.000000 0.000000 0.000000 0.000000 0.000000 0.113412
#
#
# Mechanical properties :
#
#
# Convention : Reuss Voigt Hill
#
# Bulk Modulus (GPa) = 41.30443 44.76996 43.03719
# Shear Modulus (GPa) = 15.03338 22.85578 18.94458
#
# Velocity S-wave (km/s) = 2.92641 3.60832 3.28511
# Velocity P-wave (km/s) = 5.91167 6.54702 6.23744
#
# Compressibility (1/GPa) = 0.02421048
#
# Stress axis : x y z
#
# Youngs Moduli (GPa) = 81.20599 111.51377 57.70347
#
# Poissons Ratio (x) = 0.19281 0.14217
# Poissons Ratio (y) = 0.14041 0.17356
# Poissons Ratio (z) = 0.20008 0.33541
#
# Static dielectric constant tensor:
#      x y z
#    x 1.644450 0.000000 0.000000 
#    y 0.000000 1.682720 0.000000 
#    z 0.000000 0.000000 1.587060 
# 
# From -- ./inp_files/45177.got.cif
#   From: 2010.05.17/outbox.cif.g08.bks.cpg/sg22_23_cif.got.tgz:45177.got - 2010.06.03 23:40:54.
