data_PCOD9326822
_publ_section_title
;
Structure prediction by ZEFSAII (Michael W. Deem and Ramdas Pophale) SiO2 
 PCOD9326822
Probable space group: F 2 2 2
;
_chemical_formula_sum "Si O2"
_cell_formula_units_Z 108
_cell_length_a 21.001344
_cell_length_b 11.524263
_cell_length_c 22.500793
_cell_angle_alpha 90.000000
_cell_angle_beta 90.000000
_cell_angle_gamma 90.000000
_cell_volume 5445.754687
_symmetry_space_group_name_H-M "F 2 2 2"
_symmetry_group_IT_number 22
_symmetry_cell_setting 'orthorhombic'
loop_
_space_group_symop_operation_xyz
x,y,z
-x,-y,z
x,-y,-z
-x,y,-z
x,1/2+y,1/2+z
-x,1/2-y,1/2+z
x,1/2-y,1/2-z
-x,1/2+y,1/2-z
1/2+x,y,1/2+z
1/2-x,-y,1/2+z
1/2+x,-y,1/2-z
1/2-x,y,1/2-z
1/2+x,1/2+y,z
1/2-x,1/2-y,z
1/2+x,1/2-y,-z
1/2-x,1/2+y,-z
loop_
_atom_site_type_symbol
_atom_site_label
_atom_site_fract_x
_atom_site_fract_y
_atom_site_fract_z
Si Si1 0.912463 0.932375 0.911606
Si Si2 0.750000 0.750000 0.449601
Si Si3 0.111237 0.716172 0.005970
Si Si4 0.000000 0.500000 0.500000
Si Si5 0.231614 0.499487 0.427241
Si Si6 0.552012 0.256553 0.179764
Si Si7 0.952562 0.392433 0.892496
Si Si8 0.641312 0.920337 0.882001
O O1 0.938838 0.883674 0.849663
O O2 0.838758 0.963576 0.910020
O O3 0.918751 0.821448 0.956284
O O4 0.948569 0.033512 0.947677
O O5 0.815952 0.753660 0.487172
O O6 0.754305 0.633574 0.412103
O O7 0.070410 0.676962 0.950089
O O8 0.116288 0.610336 0.051838
O O9 0.238620 0.500000 0.500000
O O10 0.283661 0.574395 0.392613
O O11 0.546750 0.250000 0.250000
O O12 0.491375 0.193040 0.150213
O O13 0.613498 0.180429 0.159276
O O14 0.890723 0.457266 0.865341
O O15 0.000000 0.500000 0.905667
#
# Coordination Sequence:
#
# PCOD9326822 Si02
#       8
#    16   8  16   4  16  16  16  16
#     4  11  23  36  59  88 132 164 205 251 315 392
#     4  12  20  30  58  86 140 160 184 238 314 404
#     4  11  18  31  56  96 125 157 190 248 317 380
#     4  12  20  40  52  92 130 168 202 250 332 392
#     4  12  20  36  56  93 128 162 197 244 322 392
#     4  10  24  43  60  87 117 165 222 266 313 377
#     4  10  20  35  59  90 122 158 204 265 311 369
#     4  10  20  35  62  89 125 156 203 259 316 376
#
# _framework density 19.831961
#
# number of rings (size 3 to 8) (size 9 to 14) (size 15 to 20)
#    0.000    1.185    5.185    1.333    0.000    9.481 
#    4.000    1.481    0.000    0.000    0.000    1.556 
#    0.000    0.000    0.000    0.000    0.000    0.000 
#
# Total GULP energy -150516.146890 kJ/mol
# GULP energy per Si atom -5574.672107 kJ/mol
# Density = 1.978682 g / cm^3
# Si number density = 19.831961 Si / 1000 Ang^3
#
#
#
# Elastic Constant Matrix: (Units=GPa)
#
#
# Indices 1 2 3 4 5 6 
#
# 1 116.3145 3.5809 45.9439 0.0000 0.0000 0.0000
# 2 3.5809 50.7175 21.9042 0.0000 0.0000 0.0000
# 3 45.9439 21.9042 108.2492 0.0000 0.0000 0.0000
# 4 0.0000 0.0000 0.0000 15.8956 0.0000 0.0000
# 5 0.0000 0.0000 0.0000 0.0000 10.8226 0.0000
# 6 0.0000 0.0000 0.0000 0.0000 0.0000 30.4529
#
#
#
# Elastic Compliance Matrix: (Units=1/GPa)
#
#
# Indices 1 2 3 4 5 6 
#
# 1 0.010405 0.001285 -0.004676 0.000000 0.000000 0.000000
# 2 0.001285 0.021764 -0.004949 0.000000 0.000000 0.000000
# 3 -0.004676 -0.004949 0.012224 0.000000 0.000000 0.000000
# 4 0.000000 0.000000 0.000000 0.062911 0.000000 0.000000
# 5 0.000000 0.000000 0.000000 0.000000 0.092399 0.000000
# 6 0.000000 0.000000 0.000000 0.000000 0.000000 0.032838
#
#
# Mechanical properties :
#
#
# Convention : Reuss Voigt Hill
#
# Bulk Modulus (GPa) = 36.08556 46.45991 41.27274
# Shear Modulus (GPa) = 19.34545 25.02435 22.18490
#
# Velocity S-wave (km/s) = 3.12664 3.55606 3.34824
# Velocity P-wave (km/s) = 5.59193 6.35125 5.98365
#
# Compressibility (1/GPa) = 0.02771192
#
# Stress axis : x y z
#
# Youngs Moduli (GPa) = 96.10876 45.94769 81.80556
#
# Poissons Ratio (x) = -0.05904 0.38253
# Poissons Ratio (y) = -0.12349 0.40488
# Poissons Ratio (z) = 0.44942 0.22741
#
# Static dielectric constant tensor:
#      x y z
#    x 1.783900 0.000000 0.000000 
#    y 0.000000 1.836370 0.000000 
#    z 0.000000 0.000000 1.661180 
# 
# From -- ./inp_files/49998.got.cif
#   From: 2010.05.17/outbox.cif.g08.bks.cpg/sg22_25_cif.got.tgz:49998.got - 2010.06.03 23:40:54.
