data_PCOD9326321
_publ_section_title
;
Structure prediction by ZEFSAII (Michael W. Deem and Ramdas Pophale) SiO2 
 PCOD9326321
Probable space group: F 2 2 2
;
_chemical_formula_sum "Si O2"
_cell_formula_units_Z 112
_cell_length_a 23.027463
_cell_length_b 13.831657
_cell_length_c 19.003418
_cell_angle_alpha 90.000000
_cell_angle_beta 90.000000
_cell_angle_gamma 90.000000
_cell_volume 6052.740086
_symmetry_space_group_name_H-M "F 2 2 2"
_symmetry_group_IT_number 22
_symmetry_cell_setting 'orthorhombic'
loop_
_space_group_symop_operation_xyz
x,y,z
-x,-y,z
x,-y,-z
-x,y,-z
x,1/2+y,1/2+z
-x,1/2-y,1/2+z
x,1/2-y,1/2-z
-x,1/2+y,1/2-z
1/2+x,y,1/2+z
1/2-x,-y,1/2+z
1/2+x,-y,1/2-z
1/2-x,y,1/2-z
1/2+x,1/2+y,z
1/2-x,1/2-y,z
1/2+x,1/2-y,-z
1/2-x,1/2+y,-z
loop_
_atom_site_type_symbol
_atom_site_label
_atom_site_fract_x
_atom_site_fract_y
_atom_site_fract_z
Si Si1 0.697905 0.917091 0.839036
Si Si2 0.881817 0.233130 0.556743
Si Si3 0.990802 0.611044 0.085009
Si Si4 0.671560 0.391539 0.175826
Si Si5 0.396908 0.778585 0.106691
Si Si6 0.715802 0.920778 0.058846
Si Si7 0.850588 0.559666 0.431889
O O1 0.677670 0.909588 0.758649
O O2 0.761777 0.869387 0.847578
O O3 0.649862 0.863700 0.884700
O O4 0.705685 0.025490 0.866930
O O5 0.928021 0.160317 0.592003
O O6 0.896854 0.251666 0.474764
O O7 0.820868 0.176391 0.556625
O O8 0.881522 0.340578 0.587828
O O9 0.000000 0.500000 0.108168
O O10 0.039754 0.677800 0.120456
O O11 0.000000 0.610279 0.000000
O O12 0.627688 0.306270 0.155666
O O13 0.652763 0.485636 0.132506
O O14 0.784551 0.908677 0.048396
O O15 0.696829 0.000000 0.000000
O O16 0.873257 0.500000 0.500000
#
# Coordination Sequence:
#
# PCOD9326321 Si02
#       7
#    16  16  16  16  16  16  16
#     4  10  20  34  55  85 116 150 185 232 288 346
#     4  11  20  33  56  82 110 144 190 236 283 333
#     4   9  20  34  53  80 110 142 189 243 285 326
#     4  10  21  35  53  82 121 153 184 224 288 355
#     4  11  19  32  55  80 110 143 185 240 290 330
#     4  10  19  31  55  85 112 143 184 233 285 331
#     4  10  20  34  52  81 118 151 180 222 278 348
#
# _framework density 18.504016
#
# number of rings (size 3 to 8) (size 9 to 14) (size 15 to 20)
#    0.000    1.857    2.857    2.143    2.000    2.286 
#    0.000    1.429    0.000   12.000    0.000    0.000 
#    0.000    0.000    0.000    0.000    0.000    0.000 
#
# Total GULP energy -156129.228814 kJ/mol
# GULP energy per Si atom -5576.043886 kJ/mol
# Density = 1.846190 g / cm^3
# Si number density = 18.504016 Si / 1000 Ang^3
#
#
#
# Elastic Constant Matrix: (Units=GPa)
#
#
# Indices 1 2 3 4 5 6 
#
# 1 46.6463 23.1703 12.2544 0.0000 0.0000 0.0000
# 2 23.1703 98.7540 15.3897 0.0000 0.0000 0.0000
# 3 12.2544 15.3897 42.7761 0.0000 0.0000 0.0000
# 4 0.0000 0.0000 0.0000 17.0207 0.0000 0.0000
# 5 0.0000 0.0000 0.0000 0.0000 8.0708 0.0000
# 6 0.0000 0.0000 0.0000 0.0000 0.0000 22.6032
#
#
#
# Elastic Compliance Matrix: (Units=1/GPa)
#
#
# Indices 1 2 3 4 5 6 
#
# 1 0.025407 -0.005114 -0.005439 0.000000 0.000000 0.000000
# 2 -0.005114 0.011757 -0.002765 0.000000 0.000000 0.000000
# 3 -0.005439 -0.002765 0.025930 0.000000 0.000000 0.000000
# 4 0.000000 0.000000 0.000000 0.058752 0.000000 0.000000
# 5 0.000000 0.000000 0.000000 0.000000 0.123904 0.000000
# 6 0.000000 0.000000 0.000000 0.000000 0.000000 0.044241
#
#
# Mechanical properties :
#
#
# Convention : Reuss Voigt Hill
#
# Bulk Modulus (GPa) = 27.42762 32.20058 29.81410
# Shear Modulus (GPa) = 15.20779 18.69641 16.95210
#
# Velocity S-wave (km/s) = 2.86993 3.18212 3.03005
# Velocity P-wave (km/s) = 5.08298 5.56246 5.32811
#
# Compressibility (1/GPa) = 0.03645959
#
# Stress axis : x y z
#
# Youngs Moduli (GPa) = 39.35967 85.05705 38.56486
#
# Poissons Ratio (x) = 0.43494 0.20974
# Poissons Ratio (y) = 0.20127 0.10663
# Poissons Ratio (z) = 0.21407 0.23517
#
# Static dielectric constant tensor:
#      x y z
#    x 1.660460 0.000000 0.000000 
#    y 0.000000 1.649710 0.000000 
#    z 0.000000 0.000000 1.651070 
# 
# From -- ./inp_files/42913.got.cif
#   From: 2010.05.17/outbox.cif.g08.bks.cpg/sg22_22_cif.got.tgz:42913.got - 2010.06.03 23:40:54.
