data_PCOD9326559
_publ_section_title
;
Structure prediction by ZEFSAII (Michael W. Deem and Ramdas Pophale) SiO2 
 PCOD9326559
Probable space group: F 2 2 2
;
_chemical_formula_sum "Si O2"
_cell_formula_units_Z 80
_cell_length_a 5.439654
_cell_length_b 27.839495
_cell_length_c 31.290014
_cell_angle_alpha 90.000000
_cell_angle_beta 90.000000
_cell_angle_gamma 90.000000
_cell_volume 4738.472744
_symmetry_space_group_name_H-M "F 2 2 2"
_symmetry_group_IT_number 22
_symmetry_cell_setting 'orthorhombic'
loop_
_space_group_symop_operation_xyz
x,y,z
-x,-y,z
x,-y,-z
-x,y,-z
x,1/2+y,1/2+z
-x,1/2-y,1/2+z
x,1/2-y,1/2-z
-x,1/2+y,1/2-z
1/2+x,y,1/2+z
1/2-x,-y,1/2+z
1/2+x,-y,1/2-z
1/2-x,y,1/2-z
1/2+x,1/2+y,z
1/2-x,1/2-y,z
1/2+x,1/2-y,-z
1/2-x,1/2+y,-z
loop_
_atom_site_type_symbol
_atom_site_label
_atom_site_fract_x
_atom_site_fract_y
_atom_site_fract_z
Si Si1 0.750000 0.969942 0.750000
Si Si2 0.886236 0.105036 0.186299
Si Si3 0.004870 0.558247 0.049076
Si Si4 0.750000 0.656860 0.250000
Si Si5 0.644086 0.799564 0.798703
Si Si6 0.507248 0.941871 0.401345
O O1 0.723801 0.936155 0.791640
O O2 0.500000 0.000000 0.744830
O O3 0.734500 0.153380 0.176752
O O4 0.070918 0.121965 0.223719
O O5 0.007843 0.083253 0.144593
O O6 0.256674 0.571704 0.073374
O O7 0.000000 0.500000 0.047951
O O8 0.754207 0.571908 0.073267
O O9 0.000000 0.575120 0.000000
O O10 0.638623 0.691495 0.286795
O O11 0.750000 0.802039 0.750000
O O12 0.750000 0.750000 0.816579
O O13 0.500000 0.000000 0.396353
#
# Coordination Sequence:
#
# PCOD9326559 Si02
#       6
#     8  16  16   8  16  16
#     4  12  25  36  50  70 107 159 200 223 252 306
#     4  11  22  34  49  76 105 145 187 224 268 306
#     4   9  18  34  53  73  99 134 174 217 269 319
#     4  10  19  37  55  70 110 143 186 227 275 314
#     4   9  19  34  54  75  95 136 184 232 281 317
#     4  10  21  32  50  76 105 141 177 216 258 313
#
# _framework density 16.883077
#
# number of rings (size 3 to 8) (size 9 to 14) (size 15 to 20)
#    0.000    2.000    3.000    1.800    2.800   11.200 
#    0.000    0.000    0.000    0.000    0.000    0.000 
#    0.000    3.200    0.000    0.000    0.000    0.000 
#
# Total GULP energy -111388.554246 kJ/mol
# GULP energy per Si atom -5569.427712 kJ/mol
# Density = 1.684465 g / cm^3
# Si number density = 16.883077 Si / 1000 Ang^3
#
#
#
# Elastic Constant Matrix: (Units=GPa)
#
#
# Indices 1 2 3 4 5 6 
#
# 1 102.8519 37.6014 40.7627 0.0000 0.0000 0.0000
# 2 37.6014 84.2953 34.1304 0.0000 0.0000 0.0000
# 3 40.7627 34.1304 87.7131 0.0000 0.0000 0.0000
# 4 0.0000 0.0000 0.0000 1.0887 0.0000 0.0000
# 5 0.0000 0.0000 0.0000 0.0000 25.0714 0.0000
# 6 0.0000 0.0000 0.0000 0.0000 0.0000 12.9693
#
#
#
# Elastic Compliance Matrix: (Units=1/GPa)
#
#
# Indices 1 2 3 4 5 6 
#
# 1 0.012944 -0.003963 -0.004474 0.000000 0.000000 0.000000
# 2 -0.003963 0.015295 -0.004110 0.000000 0.000000 0.000000
# 3 -0.004474 -0.004110 0.015079 0.000000 0.000000 0.000000
# 4 0.000000 0.000000 0.000000 0.918527 0.000000 0.000000
# 5 0.000000 0.000000 0.000000 0.000000 0.039886 0.000000
# 6 0.000000 0.000000 0.000000 0.000000 0.000000 0.077105
#
#
# Mechanical properties :
#
#
# Convention : Reuss Voigt Hill
#
# Bulk Modulus (GPa) = 54.86739 55.53881 55.20310
# Shear Modulus (GPa) = 4.50449 18.65026 11.57738
#
# Velocity S-wave (km/s) = 1.63519 3.32727 2.62150
# Velocity P-wave (km/s) = 6.01117 6.90858 6.47544
#
# Compressibility (1/GPa) = 0.01822576
#
# Stress axis : x y z
#
# Youngs Moduli (GPa) = 77.25300 65.38196 66.31720
#
# Poissons Ratio (x) = 0.25909 0.29668
# Poissons Ratio (y) = 0.30613 0.27255
# Poissons Ratio (z) = 0.34561 0.26871
#
# Static dielectric constant tensor:
#      x y z
#    x 1.736440 0.000000 0.000000 
#    y 0.000000 1.592640 0.000000 
#    z 0.000000 0.000000 1.554940 
# 
# From -- ./inp_files/4797.got.cif
#   From: 2010.05.17/outbox.cif.g08.bks.cpg/sg22_3_cif.got.tgz:4797.got - 2010.06.03 23:40:54.
