data_PCOD9326831
_publ_section_title
;
Structure prediction by ZEFSAII (Michael W. Deem and Ramdas Pophale) SiO2 
 PCOD9326831
Probable space group: F 2 2 2
;
_chemical_formula_sum "Si O2"
_cell_formula_units_Z 108
_cell_length_a 10.688290
_cell_length_b 21.814314
_cell_length_c 22.051820
_cell_angle_alpha 90.000000
_cell_angle_beta 90.000000
_cell_angle_gamma 90.000000
_cell_volume 5141.551945
_symmetry_space_group_name_H-M "F 2 2 2"
_symmetry_group_IT_number 22
_symmetry_cell_setting 'orthorhombic'
loop_
_space_group_symop_operation_xyz
x,y,z
-x,-y,z
x,-y,-z
-x,y,-z
x,1/2+y,1/2+z
-x,1/2-y,1/2+z
x,1/2-y,1/2-z
-x,1/2+y,1/2-z
1/2+x,y,1/2+z
1/2-x,-y,1/2+z
1/2+x,-y,1/2-z
1/2-x,y,1/2-z
1/2+x,1/2+y,z
1/2-x,1/2-y,z
1/2+x,1/2-y,-z
1/2-x,1/2+y,-z
loop_
_atom_site_type_symbol
_atom_site_label
_atom_site_fract_x
_atom_site_fract_y
_atom_site_fract_z
Si Si1 0.500000 0.792813 0.000000
Si Si2 0.495177 0.881974 0.824674
Si Si3 0.398973 0.745165 0.375006
Si Si4 0.737859 0.041334 0.183045
Si Si5 0.837841 0.603278 0.061015
Si Si6 0.892103 0.543825 0.406852
Si Si7 0.532987 0.130689 0.312742
Si Si8 0.500000 0.000000 0.000000
O O1 0.451032 0.754193 0.056535
O O2 0.609753 0.838259 0.024429
O O3 0.561868 0.820063 0.847502
O O4 0.597500 0.936574 0.831095
O O5 0.375854 0.888761 0.868330
O O6 0.472405 0.875303 0.753442
O O7 0.250000 0.750000 0.375325
O O8 0.455759 0.800330 0.335924
O O9 0.750000 0.011158 0.250000
O O10 0.828018 0.100889 0.189512
O O11 0.797436 0.999819 0.130961
O O12 0.693900 0.586014 0.050933
O O13 0.915401 0.544930 0.038951
O O14 0.000000 0.500000 0.432604
O O15 0.958109 0.588862 0.359457
#
# Coordination Sequence:
#
# PCOD9326831 Si02
#       8
#     8  16  16  16  16  16  16   4
#     4   9  24  41  60  96 113 164 223 274 324 380
#     4  10  20  35  61  96 121 161 213 264 325 372
#     4  11  21  39  66  86 120 164 216 273 320 382
#     4   9  18  32  54  88 127 160 199 242 306 381
#     4  10  21  39  62  87 125 162 218 266 312 382
#     4  10  22  38  57  88 132 168 202 256 324 394
#     4  10  21  35  57  95 128 159 203 259 326 396
#     4  10  20  40  66  92 116 176 222 264 302 360
#
# _framework density 21.005331000000002
#
# number of rings (size 3 to 8) (size 9 to 14) (size 15 to 20)
#    0.000    2.074    1.481    1.333    2.074    1.778 
#    1.333    2.593    0.000    3.556    0.000    0.000 
#    0.000    0.000    0.000    0.000    0.000    0.000 
#
# Total GULP energy -150873.354581 kJ/mol
# GULP energy per Si atom -5587.902022 kJ/mol
# Density = 2.095752 g / cm^3
# Si number density = 21.005331 Si / 1000 Ang^3
#
#
#
# Elastic Constant Matrix: (Units=GPa)
#
#
# Indices 1 2 3 4 5 6 
#
# 1 80.8929 24.6630 19.8782 0.0000 0.0000 0.0000
# 2 24.6630 57.8041 15.3094 0.0000 0.0000 0.0000
# 3 19.8782 15.3094 64.0450 0.0000 0.0000 0.0000
# 4 0.0000 0.0000 0.0000 -5.6354 0.0000 0.0000
# 5 0.0000 0.0000 0.0000 0.0000 0.2398 0.0000
# 6 0.0000 0.0000 0.0000 0.0000 0.0000 18.9330
#
#
#
# Elastic Compliance Matrix: (Units=1/GPa)
#
#
# Indices 1 2 3 4 5 6 
#
# 1 0.014837 -0.005456 -0.003301 0.000000 0.000000 0.000000
# 2 -0.005456 0.020476 -0.003201 0.000000 0.000000 0.000000
# 3 -0.003301 -0.003201 0.017404 0.000000 0.000000 0.000000
# 4 0.000000 0.000000 0.000000 -0.177451 0.000000 0.000000
# 5 0.000000 0.000000 0.000000 0.000000 4.169560 0.000000
# 6 0.000000 0.000000 0.000000 0.000000 0.000000 0.052818
#
#
# Mechanical properties :
#
#
# Convention : Reuss Voigt Hill
#
# Bulk Modulus (GPa) = 34.72209 35.82702 35.27456
# Shear Modulus (GPa) = 1.21031 12.23358 6.72195
#
# Velocity S-wave (km/s) = 0.75990 2.41592 1.79083
# Velocity P-wave (km/s) = 4.16365 4.98753 4.59409
#
# Compressibility (1/GPa) = 0.02880011
#
# Stress axis : x y z
#
# Youngs Moduli (GPa) = 67.40081 48.83882 57.45909
#
# Poissons Ratio (x) = 0.26647 0.18966
# Poissons Ratio (y) = 0.36774 0.18393
# Poissons Ratio (z) = 0.22247 0.15633
#
# Static dielectric constant tensor:
#      x y z
#    x 1.854540 0.000000 0.000000 
#    y 0.000000 1.733590 0.000000 
#    z 0.000000 0.000000 1.769350 
# 
# From -- ./inp_files/48290.got.cif
#   From: 2010.05.17/outbox.cif.g08.bks.cpg/sg22_25_cif.got.tgz:48290.got - 2010.06.03 23:40:54.
