data_PCOD9326357
_publ_section_title
;
Structure prediction by ZEFSAII (Michael W. Deem and Ramdas Pophale) SiO2 
 PCOD9326357
Probable space group: F 2 2 2
;
_chemical_formula_sum "Si O2"
_cell_formula_units_Z 80
_cell_length_a 21.242857
_cell_length_b 8.358400
_cell_length_c 21.536622
_cell_angle_alpha 90.000000
_cell_angle_beta 90.000000
_cell_angle_gamma 90.000000
_cell_volume 3823.962830
_symmetry_space_group_name_H-M "F 2 2 2"
_symmetry_group_IT_number 22
_symmetry_cell_setting 'orthorhombic'
loop_
_space_group_symop_operation_xyz
x,y,z
-x,-y,z
x,-y,-z
-x,y,-z
x,1/2+y,1/2+z
-x,1/2-y,1/2+z
x,1/2-y,1/2-z
-x,1/2+y,1/2-z
1/2+x,y,1/2+z
1/2-x,-y,1/2+z
1/2+x,-y,1/2-z
1/2-x,y,1/2-z
1/2+x,1/2+y,z
1/2-x,1/2-y,z
1/2+x,1/2-y,-z
1/2-x,1/2+y,-z
loop_
_atom_site_type_symbol
_atom_site_label
_atom_site_fract_x
_atom_site_fract_y
_atom_site_fract_z
Si Si1 0.678147 0.693740 0.616098
Si Si2 0.430787 0.167201 0.471129
Si Si3 0.362578 0.537787 0.868068
Si Si4 0.250000 0.250000 0.144850
Si Si5 0.181515 0.501732 0.230485
Si Si6 0.639107 0.000000 0.000000
O O1 0.750000 0.750000 0.623116
O O2 0.652745 0.618548 0.679943
O O3 0.675186 0.564103 0.560986
O O4 0.639800 0.856404 0.607740
O O5 0.500000 0.177805 0.500000
O O6 0.420939 0.130733 0.397928
O O7 0.399140 0.339179 0.482793
O O8 0.403652 0.000000 0.500000
O O9 0.298183 0.631341 0.889398
O O10 0.356561 0.529878 0.793157
O O11 0.203530 0.350064 0.189556
O O12 0.250000 0.568675 0.250000
#
# Coordination Sequence:
#
# PCOD9326357 Si02
#       6
#    16  16  16   8  16   8
#     4  12  23  38  60 101 150 189 224 277 352 455
#     4  11  25  48  70  94 125 183 253 311 361 406
#     4  11  21  37  65  99 134 185 235 285 359 431
#     4  10  19  32  62 102 146 180 224 281 364 449
#     4  10  19  34  61  95 142 188 224 277 347 437
#     4  12  27  44  66 100 134 194 247 296 354 428
#
# _framework density 20.920704000000001
#
# number of rings (size 3 to 8) (size 9 to 14) (size 15 to 20)
#    0.000    1.000    6.000    4.800    0.000    1.600 
#    1.800    0.000    0.000    0.000   41.600    0.000 
#    0.000    0.000    0.000    0.000    0.000    0.000 
#
# Total GULP energy -111428.069981 kJ/mol
# GULP energy per Si atom -5571.403499 kJ/mol
# Density = 2.087309 g / cm^3
# Si number density = 20.920704 Si / 1000 Ang^3
#
#
#
# Elastic Constant Matrix: (Units=GPa)
#
#
# Indices 1 2 3 4 5 6 
#
# 1 48.9979 32.5439 55.9534 0.0000 0.0000 0.0000
# 2 32.5439 160.4806 48.2535 0.0000 0.0000 0.0000
# 3 55.9534 48.2535 133.5678 0.0000 0.0000 0.0000
# 4 0.0000 0.0000 0.0000 33.3166 0.0000 0.0000
# 5 0.0000 0.0000 0.0000 0.0000 32.5058 0.0000
# 6 0.0000 0.0000 0.0000 0.0000 0.0000 25.5123
#
#
#
# Elastic Compliance Matrix: (Units=1/GPa)
#
#
# Indices 1 2 3 4 5 6 
#
# 1 0.040824 -0.003519 -0.015830 0.000000 0.000000 0.000000
# 2 -0.003519 0.007294 -0.001161 0.000000 0.000000 0.000000
# 3 -0.015830 -0.001161 0.014538 0.000000 0.000000 0.000000
# 4 0.000000 0.000000 0.000000 0.030015 0.000000 0.000000
# 5 0.000000 0.000000 0.000000 0.000000 0.030764 0.000000
# 6 0.000000 0.000000 0.000000 0.000000 0.000000 0.039197
#
#
# Mechanical properties :
#
#
# Convention : Reuss Voigt Hill
#
# Bulk Modulus (GPa) = 46.22094 68.50532 57.36313
# Shear Modulus (GPa) = 23.71203 32.01998 27.86600
#
# Velocity S-wave (km/s) = 3.37029 3.91646 3.65359
# Velocity P-wave (km/s) = 6.10627 7.29848 6.72883
#
# Compressibility (1/GPa) = 0.02163522
#
# Stress axis : x y z
#
# Youngs Moduli (GPa) = 24.49549 137.10009 68.78594
#
# Poissons Ratio (x) = 0.48242 1.08891
# Poissons Ratio (y) = 0.08619 0.07986
# Poissons Ratio (z) = 0.38777 0.15917
#
# Static dielectric constant tensor:
#      x y z
#    x 1.753630 0.000000 0.000000 
#    y 0.000000 1.855330 0.000000 
#    z 0.000000 0.000000 1.841460 
# 
# From -- ./inp_files/49739.got.cif
#   From: 2010.05.17/outbox.cif.g08.bks.cpg/sg22_25_cif.got.tgz:49739.got - 2010.06.03 23:40:54.
