data_PCOD9326736
_publ_section_title
;
Structure prediction by ZEFSAII (Michael W. Deem and Ramdas Pophale) SiO2 
 PCOD9326736
Probable space group: F 2 2 2
;
_chemical_formula_sum "Si O2"
_cell_formula_units_Z 104
_cell_length_a 20.408231
_cell_length_b 28.010401
_cell_length_c 8.075525
_cell_angle_alpha 90.000000
_cell_angle_beta 90.000000
_cell_angle_gamma 90.000000
_cell_volume 4616.315190
_symmetry_space_group_name_H-M "F 2 2 2"
_symmetry_group_IT_number 22
_symmetry_cell_setting 'orthorhombic'
loop_
_space_group_symop_operation_xyz
x,y,z
-x,-y,z
x,-y,-z
-x,y,-z
x,1/2+y,1/2+z
-x,1/2-y,1/2+z
x,1/2-y,1/2-z
-x,1/2+y,1/2-z
1/2+x,y,1/2+z
1/2-x,-y,1/2+z
1/2+x,-y,1/2-z
1/2-x,y,1/2-z
1/2+x,1/2+y,z
1/2-x,1/2-y,z
1/2+x,1/2-y,-z
1/2-x,1/2+y,-z
loop_
_atom_site_type_symbol
_atom_site_label
_atom_site_fract_x
_atom_site_fract_y
_atom_site_fract_z
Si Si1 0.466615 0.565785 0.322123
Si Si2 0.750000 0.908090 0.750000
Si Si3 0.562677 0.213887 0.895147
Si Si4 0.324375 0.402916 0.218957
Si Si5 0.138816 0.862182 0.438591
Si Si6 0.844525 0.507177 0.799553
Si Si7 0.549090 0.631722 0.137368
O O1 0.500000 0.561392 0.500000
O O2 0.416685 0.611460 0.331235
O O3 0.420651 0.520770 0.289356
O O4 0.520460 0.580392 0.189276
O O5 0.788820 0.872448 0.629770
O O6 0.806671 0.947734 0.780317
O O7 0.584393 0.250000 0.750000
O O8 0.541602 0.167327 0.791394
O O9 0.500000 0.231233 0.000000
O O10 0.618130 0.191736 0.016119
O O11 0.250000 0.386424 0.250000
O O12 0.360085 0.392722 0.392523
O O13 0.324905 0.459701 0.202125
O O14 0.373689 0.375510 0.095136
O O15 0.829361 0.500000 0.000000
O O16 0.500000 0.650627 0.000000
#
# Coordination Sequence:
#
# PCOD9326736 Si02
#       7
#    16   8  16  16  16  16  16
#     4  11  18  37  62  84 124 174 219 279 331 402
#     4  10  20  32  60  90 135 178 229 272 312 398
#     4  11  21  41  72 104 128 156 213 282 355 431
#     4  11  22  37  55  86 131 180 230 277 322 392
#     4  10  20  39  61  93 127 175 219 268 340 398
#     4  11  20  33  56  88 125 179 243 280 316 370
#     4  11  23  41  60  94 132 173 220 278 356 405
#
# _framework density 22.528793
#
# number of rings (size 3 to 8) (size 9 to 14) (size 15 to 20)
#    0.000    1.231    8.462    0.462    0.000    4.615 
#    0.000    3.077    0.000    7.385    0.000    0.000 
#    0.000    0.000    0.000    0.000    0.000    0.000 
#
# Total GULP energy -144896.899537 kJ/mol
# GULP energy per Si atom -5572.957674 kJ/mol
# Density = 2.247752 g / cm^3
# Si number density = 22.528793 Si / 1000 Ang^3
#
#
#
# Elastic Constant Matrix: (Units=GPa)
#
#
# Indices 1 2 3 4 5 6 
#
# 1 127.4470 26.6254 20.4636 -0.0001 0.0003 0.0000
# 2 26.6254 73.6106 13.0651 0.0001 0.0000 -0.0001
# 3 20.4636 13.0651 39.4753 0.0002 0.0001 -0.0002
# 4 -0.0001 0.0001 0.0002 22.2725 0.0000 -0.0001
# 5 0.0003 0.0000 0.0001 0.0000 32.4620 0.0001
# 6 0.0000 -0.0001 -0.0002 -0.0001 0.0001 17.8941
#
#
#
# Elastic Compliance Matrix: (Units=1/GPa)
#
#
# Indices 1 2 3 4 5 6 
#
# 1 0.008997 -0.002578 -0.003811 0.000000 0.000000 0.000000
# 2 -0.002578 0.015171 -0.003685 0.000000 0.000000 0.000000
# 3 -0.003811 -0.003685 0.028527 0.000000 0.000000 0.000000
# 4 0.000000 0.000000 0.000000 0.044898 0.000000 0.000000
# 5 0.000000 0.000000 0.000000 0.000000 0.030805 0.000000
# 6 0.000000 0.000000 0.000000 0.000000 0.000000 0.055884
#
#
# Mechanical properties :
#
#
# Convention : Reuss Voigt Hill
#
# Bulk Modulus (GPa) = 30.72324 40.09345 35.40835
# Shear Modulus (GPa) = 23.22557 26.55098 24.88827
#
# Velocity S-wave (km/s) = 3.21429 3.43670 3.32736
# Velocity P-wave (km/s) = 5.23856 5.79509 5.52384
#
# Compressibility (1/GPa) = 0.03254865
#
# Stress axis : x y z
#
# Youngs Moduli (GPa) = 111.15049 65.91318 35.05411
#
# Poissons Ratio (x) = 0.16991 0.13358
# Poissons Ratio (y) = 0.28653 0.12917
# Poissons Ratio (z) = 0.42356 0.24289
#
# Static dielectric constant tensor:
#      x y z
#    x 1.923130 0.000000 0.000000 
#    y 0.000000 1.857730 0.000000 
#    z 0.000000 0.000000 1.964720 
# 
# From -- ./inp_files/13062.got.cif
#   From: 2010.05.17/outbox.cif.g08.bks.cpg/sg22_7_cif.got.tgz:13062.got - 2010.06.03 23:40:54.
