data_PCOD9326078
_publ_section_title
;
Structure prediction by ZEFSAII (Michael W. Deem and Ramdas Pophale) SiO2 
 PCOD9326078
Probable space group: F 2 2 2
;
_chemical_formula_sum "Si O2"
_cell_formula_units_Z 96
_cell_length_a 9.882656
_cell_length_b 23.124042
_cell_length_c 21.131067
_cell_angle_alpha 90.000000
_cell_angle_beta 90.000000
_cell_angle_gamma 90.000000
_cell_volume 4829.018343
_symmetry_space_group_name_H-M "F 2 2 2"
_symmetry_group_IT_number 22
_symmetry_cell_setting 'orthorhombic'
loop_
_space_group_symop_operation_xyz
x,y,z
-x,-y,z
x,-y,-z
-x,y,-z
x,1/2+y,1/2+z
-x,1/2-y,1/2+z
x,1/2-y,1/2-z
-x,1/2+y,1/2-z
1/2+x,y,1/2+z
1/2-x,-y,1/2+z
1/2+x,-y,1/2-z
1/2-x,y,1/2-z
1/2+x,1/2+y,z
1/2-x,1/2-y,z
1/2+x,1/2-y,-z
1/2-x,1/2+y,-z
loop_
_atom_site_type_symbol
_atom_site_label
_atom_site_fract_x
_atom_site_fract_y
_atom_site_fract_z
Si Si1 0.975881 0.875050 0.176400
Si Si2 0.635781 0.535000 0.416940
Si Si3 0.410491 0.940495 0.554882
Si Si4 0.405820 0.750901 0.326546
Si Si5 0.750210 0.052978 0.182754
Si Si6 0.016938 0.628335 0.821252
O O1 0.895749 0.904665 0.119598
O O2 0.923783 0.874214 0.249316
O O3 0.018753 0.810254 0.157899
O O4 0.110355 0.914240 0.176246
O O5 0.500000 0.500000 0.435351
O O6 0.753289 0.552639 0.466088
O O7 0.716529 0.490519 0.372225
O O8 0.589065 0.588637 0.373138
O O9 0.500000 0.910742 0.500000
O O10 0.500000 0.000000 0.565379
O O11 0.396850 0.750000 0.250000
O O12 0.250000 0.750000 0.350145
O O13 0.491727 0.693957 0.343041
O O14 0.750000 0.020520 0.250000
O O15 0.632651 0.100678 0.185898
#
# Coordination Sequence:
#
# PCOD9326078 Si02
#       6
#    16  16  16  16  16  16
#     4  10  18  31  56  82 116 155 196 244 290 355
#     4  10  21  36  57  84 121 149 189 245 302 364
#     4  11  24  40  58  80 112 157 208 244 287 350
#     4   9  15  28  52  83 118 153 192 235 287 358
#     4   9  16  27  49  85 119 149 184 228 297 361
#     4   9  18  29  52  91 120 149 186 236 311 362
#
# _framework density 19.879816000000002
#
# number of rings (size 3 to 8) (size 9 to 14) (size 15 to 20)
#    0.000    2.333    3.333    0.000    2.333    0.667 
#    0.000    2.500    0.000    5.000    0.000    0.000 
#    0.000    0.000    0.000    0.000    0.000    0.000 
#
# Total GULP energy -133701.749856 kJ/mol
# GULP energy per Si atom -5570.906244 kJ/mol
# Density = 1.983457 g / cm^3
# Si number density = 19.879816 Si / 1000 Ang^3
#
#
#
# Elastic Constant Matrix: (Units=GPa)
#
#
# Indices 1 2 3 4 5 6 
#
# 1 118.9461 20.2092 26.7564 0.0000 0.0000 0.0000
# 2 20.2092 108.1153 28.0099 0.0000 0.0000 0.0000
# 3 26.7564 28.0099 57.6527 0.0000 0.0000 0.0000
# 4 0.0000 0.0000 0.0000 19.4190 0.0000 0.0000
# 5 0.0000 0.0000 0.0000 0.0000 7.8789 0.0000
# 6 0.0000 0.0000 0.0000 0.0000 0.0000 10.0704
#
#
#
# Elastic Compliance Matrix: (Units=1/GPa)
#
#
# Indices 1 2 3 4 5 6 
#
# 1 0.009436 -0.000720 -0.004029 0.000000 0.000000 0.000000
# 2 -0.000720 0.010636 -0.004833 0.000000 0.000000 0.000000
# 3 -0.004029 -0.004833 0.021564 0.000000 0.000000 0.000000
# 4 0.000000 0.000000 0.000000 0.051496 0.000000 0.000000
# 5 0.000000 0.000000 0.000000 0.000000 0.126922 0.000000
# 6 0.000000 0.000000 0.000000 0.000000 0.000000 0.099301
#
#
# Mechanical properties :
#
#
# Convention : Reuss Voigt Hill
#
# Bulk Modulus (GPa) = 44.50328 48.29611 46.39970
# Shear Modulus (GPa) = 14.45048 21.45623 17.95336
#
# Velocity S-wave (km/s) = 2.69902 3.28883 3.00841
# Velocity P-wave (km/s) = 5.66989 6.22645 5.95468
#
# Compressibility (1/GPa) = 0.02247025
#
# Stress axis : x y z
#
# Youngs Moduli (GPa) = 105.97856 94.01897 46.37458
#
# Poissons Ratio (x) = 0.06768 0.18686
# Poissons Ratio (y) = 0.07629 0.22415
# Poissons Ratio (z) = 0.42703 0.45443
#
# Static dielectric constant tensor:
#      x y z
#    x 1.710500 0.000000 0.000000 
#    y 0.000000 1.704770 0.000000 
#    z 0.000000 0.000000 1.768740 
# 
# From -- ./inp_files/52050.got.cif
#   From: 2010.05.17/outbox.cif.g08.bks.cpg/sg22_27_cif.got.tgz:52050.got - 2010.06.03 23:40:54.
