data_PCOD9326101
_publ_section_title
;
Structure prediction by ZEFSAII (Michael W. Deem and Ramdas Pophale) SiO2 
 PCOD9326101
Probable space group: F 2 2 2
;
_chemical_formula_sum "Si O2"
_cell_formula_units_Z 108
_cell_length_a 23.222855
_cell_length_b 10.548658
_cell_length_c 24.203126
_cell_angle_alpha 90.000000
_cell_angle_beta 90.000000
_cell_angle_gamma 90.000000
_cell_volume 5929.038691
_symmetry_space_group_name_H-M "F 2 2 2"
_symmetry_group_IT_number 22
_symmetry_cell_setting 'orthorhombic'
loop_
_space_group_symop_operation_xyz
x,y,z
-x,-y,z
x,-y,-z
-x,y,-z
x,1/2+y,1/2+z
-x,1/2-y,1/2+z
x,1/2-y,1/2-z
-x,1/2+y,1/2-z
1/2+x,y,1/2+z
1/2-x,-y,1/2+z
1/2+x,-y,1/2-z
1/2-x,y,1/2-z
1/2+x,1/2+y,z
1/2-x,1/2-y,z
1/2+x,1/2-y,-z
1/2-x,1/2+y,-z
loop_
_atom_site_type_symbol
_atom_site_label
_atom_site_fract_x
_atom_site_fract_y
_atom_site_fract_z
Si Si1 0.659658 0.623983 0.960478
Si Si2 0.241062 0.471355 0.383136
Si Si3 0.520044 0.855735 0.297282
Si Si4 0.587284 0.204880 0.361891
Si Si5 0.750000 0.250000 0.250000
Si Si6 0.360400 0.038024 0.300692
Si Si7 0.750000 0.250000 0.969875
Si Si8 0.660615 0.574152 0.685424
O O1 0.706752 0.582493 0.914442
O O2 0.606167 0.673621 0.924429
O O3 0.648143 0.500000 0.000000
O O4 0.692240 0.732808 0.994406
O O5 0.198870 0.430748 0.332403
O O6 0.249345 0.368667 0.429975
O O7 0.303446 0.505764 0.361453
O O8 0.511436 0.750000 0.250000
O O9 0.479437 0.815844 0.348099
O O10 0.587134 0.867328 0.312727
O O11 0.500000 0.000000 0.280520
O O12 0.610259 0.339411 0.339594
O O13 0.619302 0.098670 0.324118
O O14 0.708523 0.334197 0.287202
O O15 0.356095 0.019942 0.234968
#
# Coordination Sequence:
#
# PCOD9326101 Si02
#       8
#    16  16  16  16   4  16   8  16
#     4   9  18  33  52  74 102 136 180 235 291 334
#     4  10  20  32  51  78 110 144 183 220 285 353
#     4  10  21  36  55  79 114 153 192 234 275 337
#     4  10  18  32  54  78 101 139 189 239 277 316
#     4  12  16  26  52  78 124 136 182 232 264 316
#     4  10  19  32  49  77 115 147 173 216 277 342
#     4  10  20  35  49  72 109 144 175 228 290 360
#     4  12  18  30  53  86 116 149 183 229 274 340
#
# _framework density 18.215430999999999
#
# number of rings (size 3 to 8) (size 9 to 14) (size 15 to 20)
#    0.000    1.778    2.963    3.556    0.000    1.185 
#    0.000    0.741    0.000   20.889    0.000    0.000 
#    0.000    2.370    0.000    0.000    0.000    0.000 
#
# Total GULP energy -150509.569242 kJ/mol
# GULP energy per Si atom -5574.428490 kJ/mol
# Density = 1.817397 g / cm^3
# Si number density = 18.215431 Si / 1000 Ang^3
#
#
#
# Elastic Constant Matrix: (Units=GPa)
#
#
# Indices 1 2 3 4 5 6 
#
# 1 90.9483 41.0783 39.5911 0.0000 0.0000 0.0000
# 2 41.0783 39.7061 29.4972 0.0000 0.0000 0.0000
# 3 39.5911 29.4972 90.1066 0.0000 0.0000 0.0000
# 4 0.0000 0.0000 0.0000 16.2677 0.0000 0.0000
# 5 0.0000 0.0000 0.0000 0.0000 24.4298 0.0000
# 6 0.0000 0.0000 0.0000 0.0000 0.0000 -9.7238
#
#
#
# Elastic Compliance Matrix: (Units=1/GPa)
#
#
# Indices 1 2 3 4 5 6 
#
# 1 0.021167 -0.019806 -0.002817 0.000000 0.000000 0.000000
# 2 -0.019806 0.051811 -0.008258 0.000000 0.000000 0.000000
# 3 -0.002817 -0.008258 0.015039 0.000000 0.000000 0.000000
# 4 0.000000 0.000000 0.000000 0.061472 0.000000 0.000000
# 5 0.000000 0.000000 0.000000 0.000000 0.040934 0.000000
# 6 0.000000 0.000000 0.000000 0.000000 0.000000 -0.102841
#
#
# Mechanical properties :
#
#
# Convention : Reuss Voigt Hill
#
# Bulk Modulus (GPa) = 38.08865 49.01047 43.54956
# Shear Modulus (GPa) = 31.62656 13.56772 22.59714
#
# Velocity S-wave (km/s) = 4.17135 2.73215 3.52596
# Velocity P-wave (km/s) = 6.64498 6.07596 6.36683
#
# Compressibility (1/GPa) = 0.02625454
#
# Stress axis : x y z
#
# Youngs Moduli (GPa) = 47.24282 19.30106 66.49400
#
# Poissons Ratio (x) = 0.38228 0.18730
# Poissons Ratio (y) = 0.93570 0.54912
# Poissons Ratio (z) = 0.13307 0.15939
#
# Static dielectric constant tensor:
#      x y z
#    x 1.640080 0.000000 0.000000 
#    y 0.000000 1.451870 0.000000 
#    z 0.000000 0.000000 1.769530 
# 
# From -- ./inp_files/49996.got.cif
#   From: 2010.05.17/outbox.cif.g08.bks.cpg/sg22_25_cif.got.tgz:49996.got - 2010.06.03 23:40:54.
