data_PCOD9326218
_publ_section_title
;
Structure prediction by ZEFSAII (Michael W. Deem and Ramdas Pophale) SiO2 
 PCOD9326218
Probable space group: F 2 2 2
;
_chemical_formula_sum "Si O2"
_cell_formula_units_Z 88
_cell_length_a 27.979708
_cell_length_b 7.991807
_cell_length_c 17.694813
_cell_angle_alpha 90.000000
_cell_angle_beta 90.000000
_cell_angle_gamma 90.000000
_cell_volume 3956.709288
_symmetry_space_group_name_H-M "F 2 2 2"
_symmetry_group_IT_number 22
_symmetry_cell_setting 'orthorhombic'
loop_
_space_group_symop_operation_xyz
x,y,z
-x,-y,z
x,-y,-z
-x,y,-z
x,1/2+y,1/2+z
-x,1/2-y,1/2+z
x,1/2-y,1/2-z
-x,1/2+y,1/2-z
1/2+x,y,1/2+z
1/2-x,-y,1/2+z
1/2+x,-y,1/2-z
1/2-x,y,1/2-z
1/2+x,1/2+y,z
1/2-x,1/2-y,z
1/2+x,1/2-y,-z
1/2-x,1/2+y,-z
loop_
_atom_site_type_symbol
_atom_site_label
_atom_site_fract_x
_atom_site_fract_y
_atom_site_fract_z
Si Si1 0.920777 0.811525 0.107221
Si Si2 0.087441 0.068219 0.576064
Si Si3 0.845124 0.000000 0.000000
Si Si4 0.121347 0.750000 0.750000
Si Si5 0.698768 0.992802 0.223915
Si Si6 0.000000 0.230352 0.000000
Si Si7 0.826824 0.282921 0.366873
O O1 0.924623 0.608259 0.114644
O O2 0.910047 0.860112 0.193190
O O3 0.968308 0.861332 0.062956
O O4 0.878848 0.885655 0.054193
O O5 0.120808 0.197571 0.620514
O O6 0.039914 0.160784 0.545394
O O7 0.113769 0.000000 0.500000
O O8 0.816394 0.881686 0.943333
O O9 0.159678 0.856782 0.701549
O O10 0.750000 0.929903 0.250000
O O11 0.705445 0.126093 0.157205
O O12 0.676871 0.091855 0.295991
#
# Coordination Sequence:
#
# PCOD9326218 Si02
#       7
#    16  16   8   8  16   8  16
#     4  11  22  39  64  98 135 175 223 280 328 403
#     4  10  18  36  64  89 124 174 217 262 325 395
#     4  12  22  37  68  98 136 174 224 274 340 411
#     4  12  23  42  74 100 128 180 234 278 339 414
#     4  11  25  45  71  92 134 178 227 282 354 415
#     4  10  21  39  68  93 128 187 222 263 342 391
#     4  11  21  39  66  96 130 179 217 269 350 403
#
# _framework density 22.240703
#
# number of rings (size 3 to 8) (size 9 to 14) (size 15 to 20)
#    0.000    1.091    7.273    3.818    0.000    0.364 
#    0.000    1.818   24.000    0.000    0.000    0.000 
#    0.000    0.000    0.000    0.000    0.000    0.000 
#
# Total GULP energy -122623.983907 kJ/mol
# GULP energy per Si atom -5573.817450 kJ/mol
# Density = 2.219008 g / cm^3
# Si number density = 22.240703 Si / 1000 Ang^3
#
#
#
# Elastic Constant Matrix: (Units=GPa)
#
#
# Indices 1 2 3 4 5 6 
#
# 1 103.0191 24.3260 44.4544 0.0000 0.0000 0.0000
# 2 24.3260 71.6894 23.7062 0.0000 0.0000 0.0000
# 3 44.4544 23.7062 107.2874 0.0000 0.0000 0.0000
# 4 0.0000 0.0000 0.0000 26.9315 0.0000 0.0000
# 5 0.0000 0.0000 0.0000 0.0000 35.2912 0.0000
# 6 0.0000 0.0000 0.0000 0.0000 0.0000 32.2700
#
#
#
# Elastic Compliance Matrix: (Units=1/GPa)
#
#
# Indices 1 2 3 4 5 6 
#
# 1 0.012280 -0.002680 -0.004496 0.000000 0.000000 0.000000
# 2 -0.002680 0.015634 -0.002344 0.000000 0.000000 0.000000
# 3 -0.004496 -0.002344 0.011702 0.000000 0.000000 0.000000
# 4 0.000000 0.000000 0.000000 0.037131 0.000000 0.000000
# 5 0.000000 0.000000 0.000000 0.000000 0.028336 0.000000
# 6 0.000000 0.000000 0.000000 0.000000 0.000000 0.030989
#
#
# Mechanical properties :
#
#
# Convention : Reuss Voigt Hill
#
# Bulk Modulus (GPa) = 48.60253 51.88546 50.24399
# Shear Modulus (GPa) = 30.87015 31.53249 31.20132
#
# Velocity S-wave (km/s) = 3.72963 3.76943 3.74958
# Velocity P-wave (km/s) = 6.35982 6.50573 6.43319
#
# Compressibility (1/GPa) = 0.02057506
#
# Stress axis : x y z
#
# Youngs Moduli (GPa) = 81.43397 63.96486 85.45877
#
# Poissons Ratio (x) = 0.17144 0.38422
# Poissons Ratio (y) = 0.21826 0.20030
# Poissons Ratio (z) = 0.36612 0.14993
#
# Static dielectric constant tensor:
#      x y z
#    x 1.797580 0.000000 0.000000 
#    y 0.000000 1.938990 0.000000 
#    z 0.000000 0.000000 1.908360 
# 
# From -- ./inp_files/40352.got.cif
#   From: 2010.05.17/outbox.cif.g08.bks.cpg/sg22_21_cif.got.tgz:40352.got - 2010.06.03 23:40:54.
