data_PCOD9326505
_publ_section_title
;
Structure prediction by ZEFSAII (Michael W. Deem and Ramdas Pophale) SiO2 
 PCOD9326505
Probable space group: F 2 2 2
;
_chemical_formula_sum "Si O2"
_cell_formula_units_Z 72
_cell_length_a 9.092421
_cell_length_b 24.563991
_cell_length_c 17.451593
_cell_angle_alpha 90.000000
_cell_angle_beta 90.000000
_cell_angle_gamma 90.000000
_cell_volume 3897.746066
_symmetry_space_group_name_H-M "F 2 2 2"
_symmetry_group_IT_number 22
_symmetry_cell_setting 'orthorhombic'
loop_
_space_group_symop_operation_xyz
x,y,z
-x,-y,z
x,-y,-z
-x,y,-z
x,1/2+y,1/2+z
-x,1/2-y,1/2+z
x,1/2-y,1/2-z
-x,1/2+y,1/2-z
1/2+x,y,1/2+z
1/2-x,-y,1/2+z
1/2+x,-y,1/2-z
1/2-x,y,1/2-z
1/2+x,1/2+y,z
1/2-x,1/2-y,z
1/2+x,1/2-y,-z
1/2-x,1/2+y,-z
loop_
_atom_site_type_symbol
_atom_site_label
_atom_site_fract_x
_atom_site_fract_y
_atom_site_fract_z
Si Si1 0.000000 0.139174 0.000000
Si Si2 0.949454 0.153136 0.383081
Si Si3 0.188388 0.899855 0.536583
Si Si4 0.000000 0.500000 0.000000
Si Si5 0.250000 0.661622 0.250000
Si Si6 0.250000 0.750000 0.750000
Si Si7 0.514541 0.780775 0.644522
O O1 0.138441 0.102724 0.025284
O O2 0.979481 0.179877 0.071655
O O3 0.869281 0.130354 0.458894
O O4 0.858062 0.131843 0.310035
O O5 0.117322 0.133376 0.393011
O O6 0.954263 0.218479 0.379523
O O7 0.110984 0.958641 0.542200
O O8 0.358544 0.697769 0.199580
O O9 0.362770 0.781400 0.693206
#
# Coordination Sequence:
#
# PCOD9326505 Si02
#       7
#     8  16  16   4   8   4  16
#     4  12  24  34  56  94 116 150 188 250 288 354
#     4  10  19  36  55  82 118 167 194 221 278 345
#     4  10  22  38  62  89 108 148 198 250 304 346
#     4   8  20  44  64  80 104 144 192 258 300 360
#     4  12  21  36  56  80 125 175 198 222 276 347
#     4  12  24  34  48  80 126 178 196 232 276 322
#     4  12  23  35  52  84 130 161 197 230 273 351
#
# _framework density 18.472214000000001
#
# number of rings (size 3 to 8) (size 9 to 14) (size 15 to 20)
#    0.000    1.333    4.444    4.000    0.000    2.222 
#    0.000    0.000    0.000    0.000   46.222    0.000 
#    0.000    0.000    0.000    0.000    0.000    0.000 
#
# Total GULP energy -100274.801039 kJ/mol
# GULP energy per Si atom -5570.822280 kJ/mol
# Density = 1.843017 g / cm^3
# Si number density = 18.472214 Si / 1000 Ang^3
#
#
#
# Elastic Constant Matrix: (Units=GPa)
#
#
# Indices 1 2 3 4 5 6 
#
# 1 159.3855 28.7188 50.6716 0.0000 0.0000 0.0000
# 2 28.7188 63.6361 29.2227 0.0000 0.0000 0.0000
# 3 50.6716 29.2227 100.5590 0.0000 0.0000 0.0000
# 4 0.0000 0.0000 0.0000 5.9160 0.0000 0.0000
# 5 0.0000 0.0000 0.0000 0.0000 50.1327 0.0000
# 6 0.0000 0.0000 0.0000 0.0000 0.0000 2.5349
#
#
#
# Elastic Compliance Matrix: (Units=1/GPa)
#
#
# Indices 1 2 3 4 5 6 
#
# 1 0.007675 -0.001948 -0.003301 0.000000 0.000000 0.000000
# 2 -0.001948 0.018629 -0.004432 0.000000 0.000000 0.000000
# 3 -0.003301 -0.004432 0.012896 0.000000 0.000000 0.000000
# 4 0.000000 0.000000 0.000000 0.169033 0.000000 0.000000
# 5 0.000000 0.000000 0.000000 0.000000 0.019947 0.000000
# 6 0.000000 0.000000 0.000000 0.000000 0.000000 0.394491
#
#
# Mechanical properties :
#
#
# Convention : Reuss Voigt Hill
#
# Bulk Modulus (GPa) = 50.41039 60.08964 55.25001
# Shear Modulus (GPa) = 7.70839 26.04790 16.87815
#
# Velocity S-wave (km/s) = 2.04500 3.75922 3.02603
# Velocity P-wave (km/s) = 5.73804 7.17236 6.49491
#
# Compressibility (1/GPa) = 0.01983718
#
# Stress axis : x y z
#
# Youngs Moduli (GPa) = 130.30109 53.68101 77.54403
#
# Poissons Ratio (x) = 0.10454 0.25599
# Poissons Ratio (y) = 0.25376 0.34369
# Poissons Ratio (z) = 0.43015 0.23792
#
# Static dielectric constant tensor:
#      x y z
#    x 1.735250 0.000000 0.000000 
#    y 0.000000 1.622030 0.000000 
#    z 0.000000 0.000000 1.710710 
# 
# From -- ./inp_files/41788.got.cif
#   From: 2010.05.17/outbox.cif.g08.bks.cpg/sg22_21_cif.got.tgz:41788.got - 2010.06.03 23:40:54.
