data_PCOD9326172
_publ_section_title
;
Structure prediction by ZEFSAII (Michael W. Deem and Ramdas Pophale) SiO2 
 PCOD9326172
Probable space group: F 2 2 2
;
_chemical_formula_sum "Si O2"
_cell_formula_units_Z 64
_cell_length_a 12.308893
_cell_length_b 18.000004
_cell_length_c 15.442295
_cell_angle_alpha 90.000000
_cell_angle_beta 90.000000
_cell_angle_gamma 90.000000
_cell_volume 3421.396783
_symmetry_space_group_name_H-M "F 2 2 2"
_symmetry_group_IT_number 22
_symmetry_cell_setting 'orthorhombic'
loop_
_space_group_symop_operation_xyz
x,y,z
-x,-y,z
x,-y,-z
-x,y,-z
x,1/2+y,1/2+z
-x,1/2-y,1/2+z
x,1/2-y,1/2-z
-x,1/2+y,1/2-z
1/2+x,y,1/2+z
1/2-x,-y,1/2+z
1/2+x,-y,1/2-z
1/2-x,y,1/2-z
1/2+x,1/2+y,z
1/2-x,1/2-y,z
1/2+x,1/2-y,-z
1/2-x,1/2+y,-z
loop_
_atom_site_type_symbol
_atom_site_label
_atom_site_fract_x
_atom_site_fract_y
_atom_site_fract_z
Si Si1 0.335710 0.086501 0.026600
Si Si2 0.666984 0.618238 0.170230
Si Si3 0.553532 0.879081 0.862281
Si Si4 0.962090 0.750000 0.250000
Si Si5 0.000000 0.500000 0.267447
O O1 0.233051 0.112145 0.081768
O O2 0.441290 0.100326 0.087236
O O3 0.356478 0.127701 0.935998
O O4 0.330524 0.000000 0.000000
O O5 0.750000 0.605981 0.250000
O O6 0.612062 0.697635 0.189285
O O7 0.576020 0.554592 0.178145
O O8 0.532114 0.805209 0.808439
O O9 0.570777 0.946648 0.795420
#
# Coordination Sequence:
#
# PCOD9326172 Si02
#       5
#    16  16  16   8   8
#     4  11  19  33  61  92 114 161 208 265 303 365
#     4  11  20  34  62  90 126 161 211 253 316 376
#     4  10  18  34  60  88 120 153 219 247 309 366
#     4  10  21  34  62  92 115 170 209 252 306 389
#     4  10  18  35  59  90 116 156 210 262 293 376
#
# _framework density 18.70581
#
# number of rings (size 3 to 8) (size 9 to 14) (size 15 to 20)
#    0.000    1.500    7.500    1.125    0.000    0.000 
#    0.000    0.625   33.000    0.000    0.000    7.875 
#    0.000    0.000    0.000    0.000    0.000    0.000 
#
# Total GULP energy -89323.054300 kJ/mol
# GULP energy per Si atom -5582.690894 kJ/mol
# Density = 1.866323 g / cm^3
# Si number density = 18.705810 Si / 1000 Ang^3
#
#
#
# Elastic Constant Matrix: (Units=GPa)
#
#
# Indices 1 2 3 4 5 6 
#
# 1 44.1757 39.5966 56.3100 0.0000 0.0000 0.0000
# 2 39.5966 139.4827 69.8320 0.0000 0.0000 0.0000
# 3 56.3100 69.8320 127.8101 0.0000 0.0000 0.0000
# 4 0.0000 0.0000 0.0000 25.6786 0.0000 0.0000
# 5 0.0000 0.0000 0.0000 0.0000 44.5707 0.0000
# 6 0.0000 0.0000 0.0000 0.0000 0.0000 17.7427
#
#
#
# Elastic Compliance Matrix: (Units=1/GPa)
#
#
# Indices 1 2 3 4 5 6 
#
# 1 0.053771 -0.004686 -0.021130 0.000000 0.000000 0.000000
# 2 -0.004686 0.010277 -0.003551 0.000000 0.000000 0.000000
# 3 -0.021130 -0.003551 0.019073 0.000000 0.000000 0.000000
# 4 0.000000 0.000000 0.000000 0.038943 0.000000 0.000000
# 5 0.000000 0.000000 0.000000 0.000000 0.022436 0.000000
# 6 0.000000 0.000000 0.000000 0.000000 0.000000 0.056361
#
#
# Mechanical properties :
#
#
# Convention : Reuss Voigt Hill
#
# Bulk Modulus (GPa) = 41.00275 71.43842 56.22058
# Shear Modulus (GPa) = 18.67589 27.31372 22.99481
#
# Velocity S-wave (km/s) = 3.16318 3.82537 3.50992
# Velocity P-wave (km/s) = 5.94208 7.60162 6.82250
#
# Compressibility (1/GPa) = 0.02438861
#
# Stress axis : x y z
#
# Youngs Moduli (GPa) = 18.59738 97.30213 52.42889
#
# Poissons Ratio (x) = 0.45595 1.10782
# Poissons Ratio (y) = 0.08715 0.18616
# Poissons Ratio (z) = 0.39296 0.34549
#
# Static dielectric constant tensor:
#      x y z
#    x 1.655230 0.000000 0.000000 
#    y 0.000000 1.637870 0.000000 
#    z 0.000000 0.000000 1.652980 
# 
# From -- ./inp_files/19417.got.cif
#   From: 2010.05.17/outbox.cif.g08.bks.cpg/sg22_10_cif.got.tgz:19417.got - 2010.06.03 23:40:54.
