data_PCOD9326597
_publ_section_title
;
Structure prediction by ZEFSAII (Michael W. Deem and Ramdas Pophale) SiO2 
 PCOD9326597
Probable space group: F 2 2 2
;
_chemical_formula_sum "Si O2"
_cell_formula_units_Z 88
_cell_length_a 19.287639
_cell_length_b 25.787987
_cell_length_c 8.808402
_cell_angle_alpha 90.000000
_cell_angle_beta 90.000000
_cell_angle_gamma 90.000000
_cell_volume 4381.205643
_symmetry_space_group_name_H-M "F 2 2 2"
_symmetry_group_IT_number 22
_symmetry_cell_setting 'orthorhombic'
loop_
_space_group_symop_operation_xyz
x,y,z
-x,-y,z
x,-y,-z
-x,y,-z
x,1/2+y,1/2+z
-x,1/2-y,1/2+z
x,1/2-y,1/2-z
-x,1/2+y,1/2-z
1/2+x,y,1/2+z
1/2-x,-y,1/2+z
1/2+x,-y,1/2-z
1/2-x,y,1/2-z
1/2+x,1/2+y,z
1/2-x,1/2-y,z
1/2+x,1/2-y,-z
1/2-x,1/2+y,-z
loop_
_atom_site_type_symbol
_atom_site_label
_atom_site_fract_x
_atom_site_fract_y
_atom_site_fract_z
Si Si1 0.684705 0.100169 0.840145
Si Si2 0.064071 0.944649 0.238123
Si Si3 0.062422 0.750000 0.250000
Si Si4 0.500000 0.823710 0.500000
Si Si5 0.082509 0.423208 0.414850
Si Si6 0.851750 0.000000 0.500000
Si Si7 0.079375 0.842705 0.440461
O O1 0.750000 0.123651 0.750000
O O2 0.643434 0.076216 0.700458
O O3 0.693347 0.050086 0.950797
O O4 0.633191 0.138716 0.930830
O O5 0.073978 0.888477 0.316186
O O6 0.015502 0.054232 0.176048
O O7 0.096132 0.981725 0.365375
O O8 0.101046 0.948322 0.075778
O O9 0.017890 0.712624 0.358565
O O10 0.102144 0.789517 0.360347
O O11 0.560736 0.863910 0.455325
O O12 0.000000 0.836199 0.500000
#
# Coordination Sequence:
#
# PCOD9326597 Si02
#       7
#    16  16   8   8  16   8  16
#     4  11  25  42  62  88 130 173 210 269 329 402
#     4   9  19  36  60  90 122 157 205 276 317 377
#     4  12  18  30  64 101 125 158 214 270 330 386
#     4  10  20  32  60 101 124 157 206 284 320 380
#     4  10  19  38  57  88 131 159 208 260 339 375
#     4  10  24  39  62  88 118 169 226 266 328 397
#     4  11  19  37  62  98 128 166 213 272 333 382
#
# _framework density 20.085795999999998
#
# number of rings (size 3 to 8) (size 9 to 14) (size 15 to 20)
#    0.000    1.818    6.364    0.000    0.000    3.636 
#    0.000    6.364    0.000    3.273    0.000    0.000 
#    0.000    0.000    0.000    0.000    0.000    0.000 
#
# Total GULP energy -122591.008105 kJ/mol
# GULP energy per Si atom -5572.318550 kJ/mol
# Density = 2.004008 g / cm^3
# Si number density = 20.085796 Si / 1000 Ang^3
#
#
#
# Elastic Constant Matrix: (Units=GPa)
#
#
# Indices 1 2 3 4 5 6 
#
# 1 56.3617 15.4569 41.4318 0.0000 -0.0001 0.0000
# 2 15.4569 103.7456 40.9616 0.0000 0.0000 0.0000
# 3 41.4318 40.9616 139.6249 0.0000 -0.0001 0.0000
# 4 0.0000 0.0000 0.0000 48.0799 0.0000 0.0000
# 5 -0.0001 0.0000 -0.0001 0.0000 31.3739 0.0000
# 6 0.0000 0.0000 0.0000 0.0000 0.0000 1.2386
#
#
#
# Elastic Compliance Matrix: (Units=1/GPa)
#
#
# Indices 1 2 3 4 5 6 
#
# 1 0.022754 -0.000819 -0.006512 0.000000 0.000000 0.000000
# 2 -0.000819 0.010931 -0.002964 0.000000 0.000000 0.000000
# 3 -0.006512 -0.002964 0.009964 0.000000 0.000000 0.000000
# 4 0.000000 0.000000 0.000000 0.020799 0.000000 0.000000
# 5 0.000000 0.000000 0.000000 0.000000 0.031874 0.000000
# 6 0.000000 0.000000 0.000000 0.000000 0.000000 0.807355
#
#
# Mechanical properties :
#
#
# Convention : Reuss Voigt Hill
#
# Bulk Modulus (GPa) = 43.36551 55.04811 49.20681
# Shear Modulus (GPa) = 5.36508 29.59727 17.48118
#
# Velocity S-wave (km/s) = 1.63612 3.84284 2.95333
# Velocity P-wave (km/s) = 5.02058 6.86701 6.01507
#
# Compressibility (1/GPa) = 0.02305980
#
# Stress axis : x y z
#
# Youngs Moduli (GPa) = 43.94847 91.48130 100.36357
#
# Poissons Ratio (x) = 0.07493 0.65353
# Poissons Ratio (y) = 0.03600 0.29746
# Poissons Ratio (z) = 0.28618 0.27113
#
# Static dielectric constant tensor:
#      x y z
#    x 1.732560 0.000000 0.000000 
#    y 0.000000 1.792070 0.000000 
#    z 0.000000 0.000000 1.744670 
# 
# From -- ./inp_files/12721.got.cif
#   From: 2010.05.17/outbox.cif.g08.bks.cpg/sg22_7_cif.got.tgz:12721.got - 2010.06.03 23:40:54.
