data_PCOD9326167
_publ_section_title
;
Structure prediction by ZEFSAII (Michael W. Deem and Ramdas Pophale) SiO2 
 PCOD9326167
Probable space group: F 2 2 2
;
_chemical_formula_sum "Si O2"
_cell_formula_units_Z 104
_cell_length_a 17.957949
_cell_length_b 21.221751
_cell_length_c 13.026707
_cell_angle_alpha 90.000000
_cell_angle_beta 90.000000
_cell_angle_gamma 90.000000
_cell_volume 4964.466602
_symmetry_space_group_name_H-M "F 2 2 2"
_symmetry_group_IT_number 22
_symmetry_cell_setting 'orthorhombic'
loop_
_space_group_symop_operation_xyz
x,y,z
-x,-y,z
x,-y,-z
-x,y,-z
x,1/2+y,1/2+z
-x,1/2-y,1/2+z
x,1/2-y,1/2-z
-x,1/2+y,1/2-z
1/2+x,y,1/2+z
1/2-x,-y,1/2+z
1/2+x,-y,1/2-z
1/2-x,y,1/2-z
1/2+x,1/2+y,z
1/2-x,1/2-y,z
1/2+x,1/2-y,-z
1/2-x,1/2+y,-z
loop_
_atom_site_type_symbol
_atom_site_label
_atom_site_fract_x
_atom_site_fract_y
_atom_site_fract_z
Si Si1 0.147772 0.115565 0.919898
Si Si2 0.000000 0.381694 0.500000
Si Si3 0.163615 0.397189 0.216195
Si Si4 0.681500 0.893366 0.972874
Si Si5 0.559437 0.703061 0.170268
Si Si6 0.335322 0.746746 0.496210
Si Si7 0.161252 0.463313 0.772844
O O1 0.229226 0.096827 0.962277
O O2 0.151592 0.191595 0.927017
O O3 0.134263 0.088252 0.807638
O O4 0.081100 0.088278 0.990020
O O5 0.005804 0.338455 0.399085
O O6 0.250000 0.389506 0.250000
O O7 0.115088 0.343075 0.268515
O O8 0.134409 0.466208 0.248660
O O9 0.161170 0.398163 0.092258
O O10 0.659834 0.821353 0.943794
O O11 0.647930 0.940989 0.889393
O O12 0.521795 0.750000 0.250000
O O13 0.608511 0.743825 0.090208
O O14 0.250000 0.750000 0.535813
O O15 0.250000 0.465791 0.750000
#
# Coordination Sequence:
#
# PCOD9326167 Si02
#       7
#    16   8  16  16  16  16  16
#     4   9  19  37  56  82 118 153 192 228 282 341
#     4  10  22  42  55  82 116 155 202 228 268 342
#     4  11  20  33  58  89 117 148 185 242 297 336
#     4  10  18  34  59  88 118 145 183 244 298 345
#     4  11  22  37  57  84 116 147 191 238 286 340
#     4   9  17  31  54  87 111 140 182 235 294 334
#     4   9  20  35  54  85 121 153 187 228 291 350
#
# _framework density 20.948877
#
# number of rings (size 3 to 8) (size 9 to 14) (size 15 to 20)
#    0.000    2.154    1.538    3.231    0.000    0.615 
#    5.538   10.769    0.000    0.000    0.000    2.154 
#    0.000    0.000    0.000    0.000    0.000    0.000 
#
# Total GULP energy -144983.041816 kJ/mol
# GULP energy per Si atom -5576.270839 kJ/mol
# Density = 2.090120 g / cm^3
# Si number density = 20.948877 Si / 1000 Ang^3
#
#
#
# Elastic Constant Matrix: (Units=GPa)
#
#
# Indices 1 2 3 4 5 6 
#
# 1 43.5445 2.7260 7.4059 0.0000 0.0000 0.0000
# 2 2.7260 61.3359 18.7943 0.0000 0.0000 0.0000
# 3 7.4059 18.7943 90.0468 0.0000 0.0000 0.0000
# 4 0.0000 0.0000 0.0000 4.8563 0.0000 0.0000
# 5 0.0000 0.0000 0.0000 0.0000 17.4775 0.0000
# 6 0.0000 0.0000 0.0000 0.0000 0.0000 6.7144
#
#
#
# Elastic Compliance Matrix: (Units=1/GPa)
#
#
# Indices 1 2 3 4 5 6 
#
# 1 0.023304 -0.000479 -0.001817 0.000000 0.000000 0.000000
# 2 -0.000479 0.017427 -0.003598 0.000000 0.000000 0.000000
# 3 -0.001817 -0.003598 0.012006 0.000000 0.000000 0.000000
# 4 0.000000 0.000000 0.000000 0.205918 0.000000 0.000000
# 5 0.000000 0.000000 0.000000 0.000000 0.057216 0.000000
# 6 0.000000 0.000000 0.000000 0.000000 0.000000 0.148934
#
#
# Mechanical properties :
#
#
# Convention : Reuss Voigt Hill
#
# Bulk Modulus (GPa) = 24.42018 28.08660 26.25339
# Shear Modulus (GPa) = 10.19905 16.87638 13.53771
#
# Velocity S-wave (km/s) = 2.20887 2.84139 2.54486
# Velocity P-wave (km/s) = 4.26472 4.91945 4.60374
#
# Compressibility (1/GPa) = 0.04094973
#
# Stress axis : x y z
#
# Youngs Moduli (GPa) = 42.91111 57.38075 83.29366
#
# Poissons Ratio (x) = 0.02749 0.15132
# Poissons Ratio (y) = 0.02056 0.29969
# Poissons Ratio (z) = 0.07795 0.20646
#
# Static dielectric constant tensor:
#      x y z
#    x 1.814040 0.000000 0.000000 
#    y 0.000000 1.779390 0.000000 
#    z 0.000000 0.000000 1.753770 
# 
# From -- ./inp_files/30811.got.cif
#   From: 2010.05.17/outbox.cif.g08.bks.cpg/sg22_16_cif.got.tgz:30811.got - 2010.06.03 23:40:54.
