data_PCOD9326140
_publ_section_title
;
Structure prediction by ZEFSAII (Michael W. Deem and Ramdas Pophale) SiO2 
 PCOD9326140
Probable space group: F 2 2 2
;
_chemical_formula_sum "Si O2"
_cell_formula_units_Z 112
_cell_length_a 23.914297
_cell_length_b 20.332288
_cell_length_c 11.800138
_cell_angle_alpha 90.000000
_cell_angle_beta 90.000000
_cell_angle_gamma 90.000000
_cell_volume 5737.609112
_symmetry_space_group_name_H-M "F 2 2 2"
_symmetry_group_IT_number 22
_symmetry_cell_setting 'orthorhombic'
loop_
_space_group_symop_operation_xyz
x,y,z
-x,-y,z
x,-y,-z
-x,y,-z
x,1/2+y,1/2+z
-x,1/2-y,1/2+z
x,1/2-y,1/2-z
-x,1/2+y,1/2-z
1/2+x,y,1/2+z
1/2-x,-y,1/2+z
1/2+x,-y,1/2-z
1/2-x,y,1/2-z
1/2+x,1/2+y,z
1/2-x,1/2-y,z
1/2+x,1/2-y,-z
1/2-x,1/2+y,-z
loop_
_atom_site_type_symbol
_atom_site_label
_atom_site_fract_x
_atom_site_fract_y
_atom_site_fract_z
Si Si1 0.260688 0.146463 0.905853
Si Si2 0.060139 0.987023 0.634319
Si Si3 0.441747 0.286019 0.060497
Si Si4 0.345769 0.267626 0.871993
Si Si5 0.821673 0.485025 0.135494
Si Si6 0.790577 0.131969 0.658889
Si Si7 0.585466 0.661669 0.305707
O O1 0.307316 0.203619 0.896170
O O2 0.201178 0.174415 0.864162
O O3 0.283350 0.078678 0.852714
O O4 0.259298 0.133628 0.039825
O O5 0.071746 0.911013 0.654659
O O6 0.056620 0.000000 0.500000
O O7 0.114510 0.027103 0.675207
O O8 0.000000 0.000000 0.687368
O O9 0.425305 0.328968 0.171606
O O10 0.447827 0.214243 0.119156
O O11 0.500000 0.304898 0.000000
O O12 0.391920 0.282508 0.967477
O O13 0.372304 0.250000 0.750000
O O14 0.802975 0.554864 0.186601
O O15 0.824424 0.500000 0.000000
O O16 0.750000 0.161880 0.750000
O O17 0.849167 0.169724 0.663499
#
# Coordination Sequence:
#
# PCOD9326140 Si02
#       7
#    16  16  16  16  16  16  16
#     4  10  19  37  56  85 127 157 206 263 317 394
#     4   9  18  32  60  96 125 162 204 266 321 373
#     4  11  25  42  63  88 127 173 217 272 330 390
#     4  11  24  39  58  85 121 169 214 263 321 391
#     4   8  17  31  52  83 119 156 196 252 309 375
#     4  10  18  33  60  87 122 156 198 259 324 385
#     4  10  22  41  61  97 126 155 222 269 322 399
#
# _framework density 19.520325
#
# number of rings (size 3 to 8) (size 9 to 14) (size 15 to 20)
#    0.000    2.143    1.429    2.571    4.000    1.143 
#    0.000    0.000    0.000    0.429    0.000    0.000 
#    0.000    0.000    0.000    0.000    0.000    0.000 
#
# Total GULP energy -156052.553337 kJ/mol
# GULP energy per Si atom -5573.305476 kJ/mol
# Density = 1.947590 g / cm^3
# Si number density = 19.520325 Si / 1000 Ang^3
#
#
#
# Elastic Constant Matrix: (Units=GPa)
#
#
# Indices 1 2 3 4 5 6 
#
# 1 89.6877 17.8218 44.0919 0.0000 0.0000 0.0000
# 2 17.8218 73.6867 26.4983 0.0000 0.0000 0.0000
# 3 44.0919 26.4983 99.3685 0.0000 0.0000 0.0000
# 4 0.0000 0.0000 0.0000 22.3189 0.0000 0.0000
# 5 0.0000 0.0000 0.0000 0.0000 23.6421 0.0000
# 6 0.0000 0.0000 0.0000 0.0000 0.0000 23.3893
#
#
#
# Elastic Compliance Matrix: (Units=1/GPa)
#
#
# Indices 1 2 3 4 5 6 
#
# 1 0.014374 -0.001308 -0.006029 0.000000 0.000000 0.000000
# 2 -0.001308 0.015129 -0.003454 0.000000 0.000000 0.000000
# 3 -0.006029 -0.003454 0.013660 0.000000 0.000000 0.000000
# 4 0.000000 0.000000 0.000000 0.044805 0.000000 0.000000
# 5 0.000000 0.000000 0.000000 0.000000 0.042297 0.000000
# 6 0.000000 0.000000 0.000000 0.000000 0.000000 0.042755
#
#
# Mechanical properties :
#
#
# Convention : Reuss Voigt Hill
#
# Bulk Modulus (GPa) = 46.33854 48.84077 47.58965
# Shear Modulus (GPa) = 24.77745 25.49211 25.13478
#
# Velocity S-wave (km/s) = 3.56661 3.61768 3.59224
# Velocity P-wave (km/s) = 6.38366 6.52112 6.45275
#
# Compressibility (1/GPa) = 0.02158031
#
# Stress axis : x y z
#
# Youngs Moduli (GPa) = 69.57124 66.09605 73.20729
#
# Poissons Ratio (x) = 0.08648 0.44137
# Poissons Ratio (y) = 0.09102 0.25286
# Poissons Ratio (z) = 0.41945 0.22830
#
# Static dielectric constant tensor:
#      x y z
#    x 1.734210 0.000000 0.000000 
#    y 0.000000 1.685010 0.000000 
#    z 0.000000 0.000000 1.701990 
# 
# From -- ./inp_files/23948.got.cif
#   From: 2010.05.17/outbox.cif.g08.bks.cpg/sg22_12_cif.got.tgz:23948.got - 2010.06.03 23:40:54.
