data_PCOD9326027
_publ_section_title
;
Structure prediction by ZEFSAII (Michael W. Deem and Ramdas Pophale) SiO2 
 PCOD9326027
Probable space group: F 2 2 2
;
_chemical_formula_sum "Si O2"
_cell_formula_units_Z 64
_cell_length_a 9.470063
_cell_length_b 26.797548
_cell_length_c 11.797902
_cell_angle_alpha 90.000000
_cell_angle_beta 90.000000
_cell_angle_gamma 90.000000
_cell_volume 2994.006301
_symmetry_space_group_name_H-M "F 2 2 2"
_symmetry_group_IT_number 22
_symmetry_cell_setting 'orthorhombic'
loop_
_space_group_symop_operation_xyz
x,y,z
-x,-y,z
x,-y,-z
-x,y,-z
x,1/2+y,1/2+z
-x,1/2-y,1/2+z
x,1/2-y,1/2-z
-x,1/2+y,1/2-z
1/2+x,y,1/2+z
1/2-x,-y,1/2+z
1/2+x,-y,1/2-z
1/2-x,y,1/2-z
1/2+x,1/2+y,z
1/2-x,1/2-y,z
1/2+x,1/2-y,-z
1/2-x,1/2+y,-z
loop_
_atom_site_type_symbol
_atom_site_label
_atom_site_fract_x
_atom_site_fract_y
_atom_site_fract_z
Si Si1 0.896639 0.335081 0.609981
Si Si2 0.500000 0.500000 0.500000
Si Si3 0.250000 0.750000 0.750000
Si Si4 0.616195 0.093609 0.301818
Si Si5 0.000000 0.000000 0.808752
Si Si6 0.229924 0.433866 0.450172
O O1 0.841379 0.285597 0.668074
O O2 0.772530 0.375707 0.586813
O O3 0.000000 0.327522 0.500000
O O4 0.993307 0.367194 0.694058
O O5 0.380027 0.460936 0.450317
O O6 0.750000 0.119368 0.250000
O O7 0.659022 0.072384 0.425515
O O8 0.579392 0.042419 0.237707
O O9 0.117153 0.967124 0.877496
#
# Coordination Sequence:
#
# PCOD9326027 Si02
#       6
#    16   4   4  16   8  16
#     4   9  23  47  69  93 132 176 226 289 354 404
#     4  12  20  28  62 104 128 182 230 248 322 430
#     4  12  24  52  74  94 128 184 240 302 364 404
#     4  10  19  35  59  90 128 170 216 265 328 412
#     4  10  17  39  59  76 131 192 197 248 341 397
#     4  10  20  37  61  90 135 177 214 265 334 406
#
# _framework density 21.376041000000001
#
# number of rings (size 3 to 8) (size 9 to 14) (size 15 to 20)
#    0.000    2.000    2.500    3.000    0.000    3.000 
#   20.250    0.000    0.000    0.000    0.000    0.000 
#    0.000    0.000    0.000    0.000    0.000    0.000 
#
# Total GULP energy -89131.961925 kJ/mol
# GULP energy per Si atom -5570.747620 kJ/mol
# Density = 2.132739 g / cm^3
# Si number density = 21.376041 Si / 1000 Ang^3
#
#
#
# Elastic Constant Matrix: (Units=GPa)
#
#
# Indices 1 2 3 4 5 6 
#
# 1 151.4879 72.7809 35.5399 0.0000 0.0000 0.0000
# 2 72.7809 190.7167 46.0909 0.0000 0.0000 0.0000
# 3 35.5399 46.0909 41.1943 0.0000 0.0000 0.0000
# 4 0.0000 0.0000 0.0000 16.1247 0.0000 0.0000
# 5 0.0000 0.0000 0.0000 0.0000 33.7894 0.0000
# 6 0.0000 0.0000 0.0000 0.0000 0.0000 38.5736
#
#
#
# Elastic Compliance Matrix: (Units=1/GPa)
#
#
# Indices 1 2 3 4 5 6 
#
# 1 0.008850 -0.002100 -0.005286 0.000000 0.000000 0.000000
# 2 -0.002100 0.007685 -0.006787 0.000000 0.000000 0.000000
# 3 -0.005286 -0.006787 0.036429 0.000000 0.000000 0.000000
# 4 0.000000 0.000000 0.000000 0.062017 0.000000 0.000000
# 5 0.000000 0.000000 0.000000 0.000000 0.029595 0.000000
# 6 0.000000 0.000000 0.000000 0.000000 0.000000 0.025924
#
#
# Mechanical properties :
#
#
# Convention : Reuss Voigt Hill
#
# Bulk Modulus (GPa) = 40.61897 76.91359 58.76628
# Shear Modulus (GPa) = 24.14861 32.96336 28.55598
#
# Velocity S-wave (km/s) = 3.36475 3.93118 3.65894
# Velocity P-wave (km/s) = 5.84284 7.52761 6.73809
#
# Compressibility (1/GPa) = 0.02461904
#
# Stress axis : x y z
#
# Youngs Moduli (GPa) = 112.99216 130.12523 27.45079
#
# Poissons Ratio (x) = 0.27326 0.14510
# Poissons Ratio (y) = 0.23728 0.18630
# Poissons Ratio (z) = 0.59726 0.88312
#
# Static dielectric constant tensor:
#      x y z
#    x 1.840470 0.000000 0.000000 
#    y 0.000000 1.765660 0.000000 
#    z 0.000000 0.000000 1.997500 
# 
# From -- ./inp_files/26914.got.cif
#   From: 2010.05.17/outbox.cif.g08.bks.cpg/sg22_14_cif.got.tgz:26914.got - 2010.06.03 23:40:54.
