data_PCOD9326135
_publ_section_title
;
Structure prediction by ZEFSAII (Michael W. Deem and Ramdas Pophale) SiO2 
 PCOD9326135
Probable space group: F 2 2 2
;
_chemical_formula_sum "Si O2"
_cell_formula_units_Z 92
_cell_length_a 8.989641
_cell_length_b 28.858933
_cell_length_c 17.480985
_cell_angle_alpha 90.000000
_cell_angle_beta 90.000000
_cell_angle_gamma 90.000000
_cell_volume 4535.117239
_symmetry_space_group_name_H-M "F 2 2 2"
_symmetry_group_IT_number 22
_symmetry_cell_setting 'orthorhombic'
loop_
_space_group_symop_operation_xyz
x,y,z
-x,-y,z
x,-y,-z
-x,y,-z
x,1/2+y,1/2+z
-x,1/2-y,1/2+z
x,1/2-y,1/2-z
-x,1/2+y,1/2-z
1/2+x,y,1/2+z
1/2-x,-y,1/2+z
1/2+x,-y,1/2-z
1/2-x,y,1/2-z
1/2+x,1/2+y,z
1/2-x,1/2-y,z
1/2+x,1/2-y,-z
1/2-x,1/2+y,-z
loop_
_atom_site_type_symbol
_atom_site_label
_atom_site_fract_x
_atom_site_fract_y
_atom_site_fract_z
Si Si1 0.190320 0.651479 0.369919
Si Si2 0.500000 0.000000 0.500000
Si Si3 0.462804 0.769625 0.591677
Si Si4 0.006072 0.331224 0.158776
Si Si5 0.233777 0.659350 0.958492
Si Si6 0.567658 0.917884 0.390104
Si Si7 0.750000 0.385686 0.750000
O O1 0.339727 0.653454 0.320025
O O2 0.266839 0.664048 0.451770
O O3 0.070526 0.692838 0.367274
O O4 0.096383 0.603540 0.371475
O O5 0.425595 0.035544 0.439551
O O6 0.500000 0.761257 0.500000
O O7 0.484923 0.723362 0.640657
O O8 0.304661 0.795797 0.583417
O O9 0.079947 0.352615 0.081501
O O10 0.120938 0.351621 0.219993
O O11 0.355927 0.620501 0.943227
O O12 0.670744 0.916609 0.314783
#
# Coordination Sequence:
#
# PCOD9326135 Si02
#       7
#    16   4  16  16  16  16   8
#     4  10  18  33  58  92 124 155 218 267 307 344
#     4  12  20  44  88  98 112 150 224 242 328 396
#     4   9  17  30  53  88 124 166 221 264 301 347
#     4  11  20  32  55  81 125 181 204 246 299 380
#     4   9  17  33  55  90 129 154 205 265 307 349
#     4  10  21  41  67  97 118 160 189 261 310 392
#     4  10  26  44  55  86 142 164 206 246 335 360
#
# _framework density 20.286135999999999
#
# number of rings (size 3 to 8) (size 9 to 14) (size 15 to 20)
#    0.000    2.087    1.739    3.652    0.000    3.478 
#    0.000   17.391    0.000   15.652    0.000    0.000 
#    0.000    0.000    0.000    0.000    0.000    0.000 
#
# Total GULP energy -128095.565174 kJ/mol
# GULP energy per Si atom -5569.372399 kJ/mol
# Density = 2.023996 g / cm^3
# Si number density = 20.286136 Si / 1000 Ang^3
#
#
#
# Elastic Constant Matrix: (Units=GPa)
#
#
# Indices 1 2 3 4 5 6 
#
# 1 148.6213 34.8382 42.5555 0.0000 0.0000 0.0000
# 2 34.8382 112.5630 31.2405 0.0000 0.0000 0.0000
# 3 42.5555 31.2405 77.3499 0.0000 0.0000 0.0000
# 4 0.0000 0.0000 0.0000 -3.7013 0.0000 0.0000
# 5 0.0000 0.0000 0.0000 0.0000 29.8107 0.0000
# 6 0.0000 0.0000 0.0000 0.0000 0.0000 10.3915
#
#
#
# Elastic Compliance Matrix: (Units=1/GPa)
#
#
# Indices 1 2 3 4 5 6 
#
# 1 0.008191 -0.001446 -0.003922 0.000000 0.000000 0.000000
# 2 -0.001446 0.010261 -0.003348 0.000000 0.000000 0.000000
# 3 -0.003922 -0.003348 0.016438 0.000000 0.000000 0.000000
# 4 0.000000 0.000000 0.000000 -0.270174 0.000000 0.000000
# 5 0.000000 0.000000 0.000000 0.000000 0.033545 0.000000
# 6 0.000000 0.000000 0.000000 0.000000 0.000000 0.096232
#
#
# Mechanical properties :
#
#
# Convention : Reuss Voigt Hill
#
# Bulk Modulus (GPa) = 57.28654 61.75584 59.52119
# Shear Modulus (GPa) = -60.78722 22.62686 -19.08018
#
# Velocity S-wave (km/s) = -5.47996 3.34336 -3.07017
# Velocity P-wave (km/s) = 3.42628 6.73888 4.10324
#
# Compressibility (1/GPa) = 0.01745611
#
# Stress axis : x y z
#
# Youngs Moduli (GPa) = 122.09147 97.45718 60.83314
#
# Poissons Ratio (x) = 0.14097 0.23859
# Poissons Ratio (y) = 0.17660 0.20370
# Poissons Ratio (z) = 0.47884 0.32633
#
# Static dielectric constant tensor:
#      x y z
#    x 1.930850 0.000000 0.000000 
#    y 0.000000 1.715610 0.000000 
#    z 0.000000 0.000000 1.826040 
# 
# From -- ./inp_files/42079.got.cif
#   From: 2010.05.17/outbox.cif.g08.bks.cpg/sg22_22_cif.got.tgz:42079.got - 2010.06.03 23:40:54.
