data_PCOD9326386
_publ_section_title
;
Structure prediction by ZEFSAII (Michael W. Deem and Ramdas Pophale) SiO2 
 PCOD9326386
Probable space group: F 2 2 2
;
_chemical_formula_sum "Si O2"
_cell_formula_units_Z 64
_cell_length_a 30.792662
_cell_length_b 21.479316
_cell_length_c 5.053229
_cell_angle_alpha 90.000000
_cell_angle_beta 90.000000
_cell_angle_gamma 90.000000
_cell_volume 3342.232532
_symmetry_space_group_name_H-M "F 2 2 2"
_symmetry_group_IT_number 22
_symmetry_cell_setting 'orthorhombic'
loop_
_space_group_symop_operation_xyz
x,y,z
-x,-y,z
x,-y,-z
-x,y,-z
x,1/2+y,1/2+z
-x,1/2-y,1/2+z
x,1/2-y,1/2-z
-x,1/2+y,1/2-z
1/2+x,y,1/2+z
1/2-x,-y,1/2+z
1/2+x,-y,1/2-z
1/2-x,y,1/2-z
1/2+x,1/2+y,z
1/2-x,1/2-y,z
1/2+x,1/2-y,-z
1/2-x,1/2+y,-z
loop_
_atom_site_type_symbol
_atom_site_label
_atom_site_fract_x
_atom_site_fract_y
_atom_site_fract_z
Si Si1 0.657812 0.927453 0.073702
Si Si2 0.391123 0.250000 0.250000
Si Si3 0.957856 0.316594 0.130080
Si Si4 0.880638 0.363636 0.436723
Si Si5 0.750000 0.456032 0.750000
O O1 0.627714 0.910070 0.321581
O O2 0.707571 0.918252 0.165098
O O3 0.645528 0.887065 0.818180
O O4 0.653716 0.000000 0.000000
O O5 0.422136 0.295973 0.415225
O O6 0.366887 0.204683 0.453241
O O7 0.972589 0.250000 0.250000
O O8 0.930723 0.355292 0.344571
O O9 0.000000 0.346809 0.000000
O O10 0.761903 0.500000 0.500000
#
# Coordination Sequence:
#
# PCOD9326386 Si02
#       5
#    16   8  16  16   8
#     4  11  22  39  62  93 122 156 199 253 310 361
#     4  10  20  38  56  95 118 160 200 245 308 346
#     4  10  19  33  59  90 121 154 204 259 299 334
#     4  11  22  36  59  94 126 158 192 254 302 369
#     4  10  20  38  64  93 118 145 202 264 300 342
#
# _framework density 19.148878
#
# number of rings (size 3 to 8) (size 9 to 14) (size 15 to 20)
#    0.000    1.500    3.750    3.750    0.000    0.000 
#    0.000    0.000    0.000    1.500   19.500    0.000 
#    0.000    0.000    0.000    0.000    0.000    0.000 
#
# Total GULP energy -89265.584506 kJ/mol
# GULP energy per Si atom -5579.099032 kJ/mol
# Density = 1.910529 g / cm^3
# Si number density = 19.148878 Si / 1000 Ang^3
#
#
#
# Elastic Constant Matrix: (Units=GPa)
#
#
# Indices 1 2 3 4 5 6 
#
# 1 87.4837 65.1814 55.9591 0.0050 -0.0013 -0.0008
# 2 65.1814 67.8546 54.0399 -0.0103 -0.0002 -0.0002
# 3 55.9591 54.0399 154.4179 -0.0130 -0.0029 -0.0015
# 4 0.0050 -0.0103 -0.0130 52.2519 -0.0011 -0.0006
# 5 -0.0013 -0.0002 -0.0029 -0.0011 31.7149 0.0015
# 6 -0.0008 -0.0002 -0.0015 -0.0006 0.0015 25.3024
#
#
#
# Elastic Compliance Matrix: (Units=1/GPa)
#
#
# Indices 1 2 3 4 5 6 
#
# 1 0.040448 -0.037684 -0.001470 -0.000012 0.000001 0.000001
# 2 -0.037684 0.055540 -0.005781 0.000013 -0.000002 -0.000001
# 3 -0.001470 -0.005781 0.009032 0.000001 0.000001 0.000000
# 4 -0.000012 0.000013 0.000001 0.019138 0.000001 0.000000
# 5 0.000001 -0.000002 0.000001 0.000001 0.031531 -0.000002
# 6 0.000001 -0.000001 0.000000 0.000000 -0.000002 0.039522
#
#
# Mechanical properties :
#
#
# Convention : Reuss Voigt Hill
#
# Bulk Modulus (GPa) = 66.00244 73.34633 69.67438
# Shear Modulus (GPa) = 17.23361 30.82558 24.02960
#
# Velocity S-wave (km/s) = 3.00322 4.01657 3.54628
# Velocity P-wave (km/s) = 6.82412 7.73930 7.29607
#
# Compressibility (1/GPa) = 0.01515096
#
# Stress axis : x y z
#
# Youngs Moduli (GPa) = 24.72306 18.00490 110.72125
#
# Poissons Ratio (x) = 0.67849 0.16277
# Poissons Ratio (y) = 0.93166 0.64005
# Poissons Ratio (z) = 0.03635 0.10408
#
# Static dielectric constant tensor:
#      x y z
#    x 1.681490 0.000000 0.000000 
#    y 0.000000 1.677840 0.000000 
#    z 0.000000 0.000000 1.753650 
# 
# From -- ./inp_files/5357.got.cif
#   From: 2010.05.17/outbox.cif.g08.bks.cpg/sg22_3_cif.got.tgz:5357.got - 2010.06.03 23:40:54.
