data_PCOD9326818
_publ_section_title
;
Structure prediction by ZEFSAII (Michael W. Deem and Ramdas Pophale) SiO2 
 PCOD9326818
Probable space group: F 2 2 2
;
_chemical_formula_sum "Si O2"
_cell_formula_units_Z 68
_cell_length_a 30.451215
_cell_length_b 10.653639
_cell_length_c 10.278609
_cell_angle_alpha 90.000000
_cell_angle_beta 90.000000
_cell_angle_gamma 90.000000
_cell_volume 3334.547805
_symmetry_space_group_name_H-M "F 2 2 2"
_symmetry_group_IT_number 22
_symmetry_cell_setting 'orthorhombic'
loop_
_space_group_symop_operation_xyz
x,y,z
-x,-y,z
x,-y,-z
-x,y,-z
x,1/2+y,1/2+z
-x,1/2-y,1/2+z
x,1/2-y,1/2-z
-x,1/2+y,1/2-z
1/2+x,y,1/2+z
1/2-x,-y,1/2+z
1/2+x,-y,1/2-z
1/2-x,y,1/2-z
1/2+x,1/2+y,z
1/2-x,1/2-y,z
1/2+x,1/2-y,-z
1/2-x,1/2+y,-z
loop_
_atom_site_type_symbol
_atom_site_label
_atom_site_fract_x
_atom_site_fract_y
_atom_site_fract_z
Si Si1 0.135887 0.865707 0.032209
Si Si2 0.701685 0.195485 0.934081
Si Si3 0.000000 0.000000 0.500000
Si Si4 0.333433 0.052462 0.812668
Si Si5 0.924834 0.340866 0.127549
O O1 0.163125 0.888798 0.167836
O O2 0.098693 0.759980 0.034586
O O3 0.169958 0.815029 0.927654
O O4 0.116465 0.000000 0.000000
O O5 0.750000 0.250000 0.919585
O O6 0.688014 0.082996 0.837904
O O7 0.691705 0.138047 0.079353
O O8 0.032228 0.911281 0.417719
O O9 0.385472 0.058818 0.848616
O O10 0.933148 0.250000 0.250000
#
# Coordination Sequence:
#
# PCOD9326818 Si02
#       5
#    16  16   4  16  16
#     4  10  21  38  59  85 121 166 202 245 315 374
#     4  10  20  35  58  87 113 159 215 253 305 347
#     4  12  20  40  70  90 128 156 196 266 316 362
#     4   9  20  40  61  79 122 164 203 255 300 377
#     4   9  20  41  63  90 117 163 206 240 318 379
#
# _framework density 20.392569999999999
#
# number of rings (size 3 to 8) (size 9 to 14) (size 15 to 20)
#    0.000    2.353    0.000    4.941    3.294    2.824 
#    8.471    1.176    0.000    0.000    0.000    0.000 
#    0.000    0.000    0.000    0.000    0.000    0.000 
#
# Total GULP energy -94688.379708 kJ/mol
# GULP energy per Si atom -5569.904689 kJ/mol
# Density = 2.034616 g / cm^3
# Si number density = 20.392570 Si / 1000 Ang^3
#
#
#
# Elastic Constant Matrix: (Units=GPa)
#
#
# Indices 1 2 3 4 5 6 
#
# 1 174.0280 88.6384 30.5772 0.0000 0.0000 0.0000
# 2 88.6384 118.9018 36.2025 0.0000 0.0000 0.0000
# 3 30.5772 36.2025 74.6236 0.0000 0.0000 0.0000
# 4 0.0000 0.0000 0.0000 24.7384 0.0000 0.0000
# 5 0.0000 0.0000 0.0000 0.0000 3.0168 0.0000
# 6 0.0000 0.0000 0.0000 0.0000 0.0000 26.9041
#
#
#
# Elastic Compliance Matrix: (Units=1/GPa)
#
#
# Indices 1 2 3 4 5 6 
#
# 1 0.009281 -0.006759 -0.000524 0.000000 0.000000 0.000000
# 2 -0.006759 0.014791 -0.004406 0.000000 0.000000 0.000000
# 3 -0.000524 -0.004406 0.015753 0.000000 0.000000 0.000000
# 4 0.000000 0.000000 0.000000 0.040423 0.000000 0.000000
# 5 0.000000 0.000000 0.000000 0.000000 0.331473 0.000000
# 6 0.000000 0.000000 0.000000 0.000000 0.000000 0.037169
#
#
# Mechanical properties :
#
#
# Convention : Reuss Voigt Hill
#
# Bulk Modulus (GPa) = 60.80306 75.37662 68.08984
# Shear Modulus (GPa) = 10.46576 25.07420 17.76998
#
# Velocity S-wave (km/s) = 2.26788 3.51033 2.95514
# Velocity P-wave (km/s) = 6.06125 7.31252 6.71609
#
# Compressibility (1/GPa) = 0.01644654
#
# Stress axis : x y z
#
# Youngs Moduli (GPa) = 107.74766 67.61044 63.48152
#
# Poissons Ratio (x) = 0.45700 0.03325
# Poissons Ratio (y) = 0.72829 0.27969
# Poissons Ratio (z) = 0.05643 0.29788
#
# Static dielectric constant tensor:
#      x y z
#    x 1.679810 0.000000 0.000000 
#    y 0.000000 1.793270 0.000000 
#    z 0.000000 0.000000 1.832330 
# 
# From -- ./inp_files/24393.got.cif
#   From: 2010.05.17/outbox.cif.g08.bks.cpg/sg22_13_cif.got.tgz:24393.got - 2010.06.03 23:40:54.
