data_PCOD9326484
_publ_section_title
;
Structure prediction by ZEFSAII (Michael W. Deem and Ramdas Pophale) SiO2 
 PCOD9326484
Probable space group: F 2 2 2
;
_chemical_formula_sum "Si O2"
_cell_formula_units_Z 100
_cell_length_a 19.247547
_cell_length_b 16.838875
_cell_length_c 15.920462
_cell_angle_alpha 90.000000
_cell_angle_beta 90.000000
_cell_angle_gamma 90.000000
_cell_volume 5159.933782
_symmetry_space_group_name_H-M "F 2 2 2"
_symmetry_group_IT_number 22
_symmetry_cell_setting 'orthorhombic'
loop_
_space_group_symop_operation_xyz
x,y,z
-x,-y,z
x,-y,-z
-x,y,-z
x,1/2+y,1/2+z
-x,1/2-y,1/2+z
x,1/2-y,1/2-z
-x,1/2+y,1/2-z
1/2+x,y,1/2+z
1/2-x,-y,1/2+z
1/2+x,-y,1/2-z
1/2-x,y,1/2-z
1/2+x,1/2+y,z
1/2-x,1/2-y,z
1/2+x,1/2-y,-z
1/2-x,1/2+y,-z
loop_
_atom_site_type_symbol
_atom_site_label
_atom_site_fract_x
_atom_site_fract_y
_atom_site_fract_z
Si Si1 0.111983 0.386837 0.920061
Si Si2 0.500000 0.000000 0.658247
Si Si3 0.201848 0.440101 0.330368
Si Si4 0.078729 0.137821 0.087683
Si Si5 0.427520 0.292708 0.910690
Si Si6 0.500000 0.500000 0.500000
Si Si7 0.722759 0.000000 0.000000
Si Si8 0.118744 0.903911 0.226838
O O1 0.089493 0.296720 0.936444
O O2 0.047735 0.444302 0.942088
O O3 0.174834 0.426145 0.970831
O O4 0.132488 0.387239 0.822817
O O5 0.450430 0.950423 0.598951
O O6 0.541249 0.939242 0.715948
O O7 0.250000 0.417735 0.250000
O O8 0.146416 0.369576 0.352873
O O9 0.237239 0.465691 0.418614
O O10 0.165866 0.522782 0.301911
O O11 0.010798 0.193903 0.106130
O O12 0.093729 0.154531 0.990892
O O13 0.383761 0.326884 0.832567
#
# Coordination Sequence:
#
# PCOD9326484 Si02
#       8
#    16   8  16  16  16   4   8  16
#     4  11  22  39  59  89 125 166 208 262 322 383
#     4   8  17  31  59  91 118 150 212 270 312 350
#     4  11  21  40  66  92 129 169 222 256 304 386
#     4   9  19  35  62  94 123 165 204 271 318 372
#     4  10  20  36  61  93 129 155 208 274 343 369
#     4  10  22  36  58  84 120 170 216 260 308 388
#     4  11  24  41  64  93 122 175 216 252 308 383
#     4  10  19  35  60  92 121 158 207 269 315 367
#
# _framework density 19.380092999999999
#
# number of rings (size 3 to 8) (size 9 to 14) (size 15 to 20)
#    0.000    1.920    1.600    2.880    0.000   10.240 
#    0.000    3.200    0.000    0.960    0.000    0.000 
#    0.000    0.000    0.000    0.000    0.000    0.000 
#
# Total GULP energy -139206.285962 kJ/mol
# GULP energy per Si atom -5568.251438 kJ/mol
# Density = 1.933598 g / cm^3
# Si number density = 19.380093 Si / 1000 Ang^3
#
#
#
# Elastic Constant Matrix: (Units=GPa)
#
#
# Indices 1 2 3 4 5 6 
#
# 1 70.8503 22.3827 50.8042 0.0000 0.0000 0.0000
# 2 22.3827 53.7168 14.7362 0.0000 0.0000 0.0000
# 3 50.8042 14.7362 122.2029 0.0000 0.0000 0.0000
# 4 0.0000 0.0000 0.0000 13.3185 0.0000 0.0000
# 5 0.0000 0.0000 0.0000 0.0000 23.6228 0.0000
# 6 0.0000 0.0000 0.0000 0.0000 0.0000 11.9605
#
#
#
# Elastic Compliance Matrix: (Units=1/GPa)
#
#
# Indices 1 2 3 4 5 6 
#
# 1 0.022401 -0.007011 -0.008467 0.000000 0.000000 0.000000
# 2 -0.007011 0.021447 0.000328 0.000000 0.000000 0.000000
# 3 -0.008467 0.000328 0.011664 0.000000 0.000000 0.000000
# 4 0.000000 0.000000 0.000000 0.075084 0.000000 0.000000
# 5 0.000000 0.000000 0.000000 0.000000 0.042332 0.000000
# 6 0.000000 0.000000 0.000000 0.000000 0.000000 0.083608
#
#
# Mechanical properties :
#
#
# Convention : Reuss Voigt Hill
#
# Bulk Modulus (GPa) = 39.66380 46.95737 43.31059
# Shear Modulus (GPa) = 16.93537 20.37015 18.65276
#
# Velocity S-wave (km/s) = 2.95931 3.24556 3.10574
# Velocity P-wave (km/s) = 5.67339 6.19090 5.93778
#
# Compressibility (1/GPa) = 0.02521190
#
# Stress axis : x y z
#
# Youngs Moduli (GPa) = 44.64125 46.62567 85.73617
#
# Poissons Ratio (x) = 0.32690 0.72596
# Poissons Ratio (y) = 0.31298 -0.02816
# Poissons Ratio (z) = 0.37799 -0.01531
#
# Static dielectric constant tensor:
#      x y z
#    x 1.767650 0.000000 0.000000 
#    y 0.000000 1.670260 0.000000 
#    z 0.000000 0.000000 1.696450 
# 
# From -- ./inp_files/31725.got.cif
#   From: 2010.05.17/outbox.cif.g08.bks.cpg/sg22_16_cif.got.tgz:31725.got - 2010.06.03 23:40:54.
