data_PCOD9326298
_publ_section_title
;
Structure prediction by ZEFSAII (Michael W. Deem and Ramdas Pophale) SiO2 
 PCOD9326298
Probable space group: F 2 2 2
;
_chemical_formula_sum "Si O2"
_cell_formula_units_Z 56
_cell_length_a 31.358514
_cell_length_b 5.137905
_cell_length_c 14.850461
_cell_angle_alpha 90.000000
_cell_angle_beta 90.000000
_cell_angle_gamma 90.000000
_cell_volume 2392.662703
_symmetry_space_group_name_H-M "F 2 2 2"
_symmetry_group_IT_number 22
_symmetry_cell_setting 'orthorhombic'
loop_
_space_group_symop_operation_xyz
x,y,z
-x,-y,z
x,-y,-z
-x,y,-z
x,1/2+y,1/2+z
-x,1/2-y,1/2+z
x,1/2-y,1/2-z
-x,1/2+y,1/2-z
1/2+x,y,1/2+z
1/2-x,-y,1/2+z
1/2+x,-y,1/2-z
1/2-x,y,1/2-z
1/2+x,1/2+y,z
1/2-x,1/2-y,z
1/2+x,1/2-y,-z
1/2-x,1/2+y,-z
loop_
_atom_site_type_symbol
_atom_site_label
_atom_site_fract_x
_atom_site_fract_y
_atom_site_fract_z
Si Si1 0.019582 0.252937 0.601592
Si Si2 0.661735 0.389031 0.662435
Si Si3 0.382975 0.089891 0.601138
Si Si4 0.723469 0.000000 0.000000
O O1 0.069963 0.289388 0.596136
O O2 0.000000 0.500000 0.648696
O O3 0.000000 0.251897 0.500000
O O4 0.000000 0.000000 0.644518
O O5 0.682554 0.250000 0.750000
O O6 0.644837 0.686591 0.650809
O O7 0.694811 0.382626 0.580070
O O8 0.622280 0.187066 0.649721
O O9 0.370273 0.000000 0.500000
O O10 0.750000 0.250000 0.034229
#
# Coordination Sequence:
#
# PCOD9326298 Si02
#       4
#    16  16  16   8
#     4  10  19  30  56 101 130 178 250 304 362 427
#     4  12  27  47  73 108 147 192 245 306 382 456
#     4  12  21  41  71 104 139 195 256 306 363 453
#     4  12  26  48  80 112 145 188 245 306 382 476
#
# _framework density 23.404886000000001
#
# number of rings (size 3 to 8) (size 9 to 14) (size 15 to 20)
#    0.000    0.571    5.714    4.286    4.000    0.571 
#    0.000    1.429    0.000   17.143    0.000    0.000 
#    0.000    0.000    0.000    0.000    0.000    0.000 
#
# Total GULP energy -78006.585826 kJ/mol
# GULP energy per Si atom -5571.898988 kJ/mol
# Density = 2.335162 g / cm^3
# Si number density = 23.404886 Si / 1000 Ang^3
#
#
#
# Elastic Constant Matrix: (Units=GPa)
#
#
# Indices 1 2 3 4 5 6 
#
# 1 91.9355 37.9260 37.7399 0.0000 0.0007 0.0001
# 2 37.9260 222.3770 46.1764 0.0012 0.0008 0.0000
# 3 37.7399 46.1764 157.7493 0.0007 -0.0059 0.0000
# 4 0.0000 0.0012 0.0007 19.2521 -0.0014 0.0000
# 5 0.0007 0.0008 -0.0059 -0.0014 858.8333 0.0099
# 6 0.0001 0.0000 0.0000 0.0000 0.0099 34.7232
#
#
#
# Elastic Compliance Matrix: (Units=1/GPa)
#
#
# Indices 1 2 3 4 5 6 
#
# 1 0.012587 -0.001620 -0.002537 0.000000 0.000000 0.000000
# 2 -0.001620 0.004996 -0.001075 0.000000 0.000000 0.000000
# 3 -0.002537 -0.001075 0.007261 0.000000 0.000000 0.000000
# 4 0.000000 0.000000 0.000000 0.051942 0.000000 0.000000
# 5 0.000000 0.000000 0.000000 0.000000 0.001164 0.000000
# 6 0.000000 0.000000 0.000000 0.000000 0.000000 0.028799
#
#
# Mechanical properties :
#
#
# Convention : Reuss Voigt Hill
#
# Bulk Modulus (GPa) = 69.54030 79.52738 74.53384
# Shear Modulus (GPa) = 40.98115 205.90970 123.44543
#
# Velocity S-wave (km/s) = 4.18899 9.38979 7.27035
# Velocity P-wave (km/s) = 7.29200 12.31302 10.11888
#
# Compressibility (1/GPa) = 0.01438015
#
# Stress axis : x y z
#
# Youngs Moduli (GPa) = 79.44753 200.14607 137.72533
#
# Poissons Ratio (x) = 0.32421 0.34943
# Poissons Ratio (y) = 0.12869 0.14805
# Poissons Ratio (z) = 0.20157 0.21516
#
# Static dielectric constant tensor:
#      x y z
#    x 1.950580 0.000010 0.000000 
#    y 0.000010 1.015500 -0.000010 
#    z 0.000000 -0.000010 2.007340 
# 
# From -- ./inp_files/1864.got.cif
#   From: 2010.05.17/outbox.cif.g08.bks.cpg/sg22_1_cif.got.tgz:1864.got - 2010.06.03 23:40:54.
