data_PCOD9326393
_publ_section_title
;
Structure prediction by ZEFSAII (Michael W. Deem and Ramdas Pophale) SiO2 
 PCOD9326393
Probable space group: F 2 2 2
;
_chemical_formula_sum "Si O2"
_cell_formula_units_Z 92
_cell_length_a 24.822012
_cell_length_b 8.466535
_cell_length_c 20.293200
_cell_angle_alpha 90.000000
_cell_angle_beta 90.000000
_cell_angle_gamma 90.000000
_cell_volume 4264.746534
_symmetry_space_group_name_H-M "F 2 2 2"
_symmetry_group_IT_number 22
_symmetry_cell_setting 'orthorhombic'
loop_
_space_group_symop_operation_xyz
x,y,z
-x,-y,z
x,-y,-z
-x,y,-z
x,1/2+y,1/2+z
-x,1/2-y,1/2+z
x,1/2-y,1/2-z
-x,1/2+y,1/2-z
1/2+x,y,1/2+z
1/2-x,-y,1/2+z
1/2+x,-y,1/2-z
1/2-x,y,1/2-z
1/2+x,1/2+y,z
1/2-x,1/2-y,z
1/2+x,1/2-y,-z
1/2-x,1/2+y,-z
loop_
_atom_site_type_symbol
_atom_site_label
_atom_site_fract_x
_atom_site_fract_y
_atom_site_fract_z
Si Si1 0.019611 0.818515 0.322108
Si Si2 0.131265 0.940895 0.307857
Si Si3 0.692593 0.780173 0.910474
Si Si4 0.617975 0.000000 0.000000
Si Si5 0.916523 0.723299 0.114294
Si Si6 0.665247 0.967009 0.333349
Si Si7 0.750000 0.750000 0.250000
O O1 0.010614 0.750000 0.250000
O O2 0.083422 0.825591 0.333425
O O3 0.978208 0.732890 0.370508
O O4 0.000000 0.000000 0.323753
O O5 0.185790 0.892309 0.345291
O O6 0.109461 0.111428 0.329076
O O7 0.137786 0.949962 0.230223
O O8 0.750000 0.750000 0.943185
O O9 0.682743 0.607824 0.880602
O O10 0.654150 0.873465 0.960321
O O11 0.585597 0.889964 0.050750
O O12 0.876690 0.869265 0.121766
O O13 0.711339 0.856898 0.298053
#
# Coordination Sequence:
#
# PCOD9326393 Si02
#       7
#    16  16  16   8  16  16   4
#     4  10  19  33  62  94 129 164 201 264 341 406
#     4  10  20  40  61 102 135 158 203 265 344 419
#     4  11  25  42  65  90 127 175 223 270 333 394
#     4  10  26  46  59  86 128 172 241 280 306 392
#     4  10  21  40  61  88 129 171 220 267 325 388
#     4  12  22  38  67  99 134 169 208 273 349 412
#     4  12  24  36  66 104 148 156 210 288 352 426
#
# _framework density 21.572209000000001
#
# number of rings (size 3 to 8) (size 9 to 14) (size 15 to 20)
#    0.000    1.391    1.739    4.696    2.435    2.783 
#    0.000   10.870    0.000    0.000    0.000   21.913 
#    0.000    0.000    0.000    0.000    0.000    0.000 
#
# Total GULP energy -128163.024619 kJ/mol
# GULP energy per Si atom -5572.305418 kJ/mol
# Density = 2.152311 g / cm^3
# Si number density = 21.572209 Si / 1000 Ang^3
#
#
#
# Elastic Constant Matrix: (Units=GPa)
#
#
# Indices 1 2 3 4 5 6 
#
# 1 75.0085 23.9686 22.9099 0.0000 0.0000 0.0000
# 2 23.9686 45.9982 7.4351 0.0000 0.0000 0.0000
# 3 22.9099 7.4351 81.1906 0.0000 0.0000 0.0000
# 4 0.0000 0.0000 0.0000 21.7033 0.0000 0.0000
# 5 0.0000 0.0000 0.0000 0.0000 -1.5627 0.0000
# 6 0.0000 0.0000 0.0000 0.0000 0.0000 12.7071
#
#
#
# Elastic Compliance Matrix: (Units=1/GPa)
#
#
# Indices 1 2 3 4 5 6 
#
# 1 0.017245 -0.008322 -0.004104 0.000000 0.000000 0.000000
# 2 -0.008322 0.026083 -0.000040 0.000000 0.000000 0.000000
# 3 -0.004104 -0.000040 0.013478 0.000000 0.000000 0.000000
# 4 0.000000 0.000000 0.000000 0.046076 0.000000 0.000000
# 5 0.000000 0.000000 0.000000 0.000000 -0.639928 0.000000
# 6 0.000000 0.000000 0.000000 0.000000 0.000000 0.078696
#
#
# Mechanical properties :
#
#
# Convention : Reuss Voigt Hill
#
# Bulk Modulus (GPa) = 31.37438 34.53605 32.95522
# Shear Modulus (GPa) = -11.82614 16.42846 2.30116
#
# Velocity S-wave (km/s) = -2.34393 2.76263 1.03394
# Velocity P-wave (km/s) = 2.69260 5.12059 4.09087
#
# Compressibility (1/GPa) = 0.03187314
#
# Stress axis : x y z
#
# Youngs Moduli (GPa) = 57.98892 38.33899 74.19288
#
# Poissons Ratio (x) = 0.31907 0.30448
# Poissons Ratio (y) = 0.48261 0.00298
# Poissons Ratio (z) = 0.23798 0.00154
#
# Static dielectric constant tensor:
#      x y z
#    x 1.879170 0.000000 0.000000 
#    y 0.000000 1.809360 0.000000 
#    z 0.000000 0.000000 1.769990 
# 
# From -- ./inp_files/45254.got.cif
#   From: 2010.05.17/outbox.cif.g08.bks.cpg/sg22_23_cif.got.tgz:45254.got - 2010.06.03 23:40:54.
