data_PCOD9326785
_publ_section_title
;
Structure prediction by ZEFSAII (Michael W. Deem and Ramdas Pophale) SiO2 
 PCOD9326785
Probable space group: F 2 2 2
;
_chemical_formula_sum "Si O2"
_cell_formula_units_Z 92
_cell_length_a 26.654411
_cell_length_b 9.325914
_cell_length_c 17.037414
_cell_angle_alpha 90.000000
_cell_angle_beta 90.000000
_cell_angle_gamma 90.000000
_cell_volume 4235.104910
_symmetry_space_group_name_H-M "F 2 2 2"
_symmetry_group_IT_number 22
_symmetry_cell_setting 'orthorhombic'
loop_
_space_group_symop_operation_xyz
x,y,z
-x,-y,z
x,-y,-z
-x,y,-z
x,1/2+y,1/2+z
-x,1/2-y,1/2+z
x,1/2-y,1/2-z
-x,1/2+y,1/2-z
1/2+x,y,1/2+z
1/2-x,-y,1/2+z
1/2+x,-y,1/2-z
1/2-x,y,1/2-z
1/2+x,1/2+y,z
1/2-x,1/2-y,z
1/2+x,1/2-y,-z
1/2-x,1/2+y,-z
loop_
_atom_site_type_symbol
_atom_site_label
_atom_site_fract_x
_atom_site_fract_y
_atom_site_fract_z
Si Si1 0.493521 0.337554 0.352902
Si Si2 0.750000 0.250000 0.250000
Si Si3 0.886702 0.998916 0.854853
Si Si4 0.335904 0.438516 0.695518
Si Si5 0.122346 0.315159 0.096925
Si Si6 0.093843 0.790790 0.426145
Si Si7 0.000000 0.500000 0.295449
O O1 0.500000 0.500000 0.307057
O O2 0.435637 0.341312 0.376122
O O3 0.535940 0.341400 0.420378
O O4 0.505428 0.182499 0.316019
O O5 0.715441 0.350962 0.304638
O O6 0.868564 0.148143 0.889797
O O7 0.938990 0.019984 0.810328
O O8 0.848562 0.953499 0.786968
O O9 0.898694 0.879426 0.919913
O O10 0.340775 0.588684 0.649306
O O11 0.379557 0.350194 0.651581
O O12 0.120839 0.343732 0.004293
#
# Coordination Sequence:
#
# PCOD9326785 Si02
#       7
#    16   4  16  16  16  16   8
#     4  10  20  35  59 102 145 190 233 276 312 417
#     4  12  28  52  78 108 116 176 248 312 360 446
#     4  12  23  41  65 103 141 185 229 283 335 414
#     4  12  24  45  76  92 127 173 234 290 350 418
#     4  12  25  40  67 107 147 179 226 284 349 414
#     4  12  23  41  68 101 143 193 223 273 350 414
#     4  10  20  34  60  98 140 194 242 266 324 386
#
# _framework density 21.723192999999998
#
# number of rings (size 3 to 8) (size 9 to 14) (size 15 to 20)
#    0.522    0.000    6.957    3.130    0.000    2.087 
#    0.000    4.348    7.652    0.000    0.000    0.000 
#    0.000    0.000    0.000    0.000    0.000    0.000 
#
# Total GULP energy -128135.535775 kJ/mol
# GULP energy per Si atom -5571.110251 kJ/mol
# Density = 2.167375 g / cm^3
# Si number density = 21.723193 Si / 1000 Ang^3
#
#
#
# Elastic Constant Matrix: (Units=GPa)
#
#
# Indices 1 2 3 4 5 6 
#
# 1 74.2045 36.7970 17.4934 0.0000 0.0000 0.0000
# 2 36.7970 130.0223 43.7444 0.0000 0.0000 0.0000
# 3 17.4934 43.7444 89.0533 0.0000 0.0000 0.0000
# 4 0.0000 0.0000 0.0000 27.3776 0.0000 0.0000
# 5 0.0000 0.0000 0.0000 0.0000 11.2155 0.0000
# 6 0.0000 0.0000 0.0000 0.0000 0.0000 44.4630
#
#
#
# Elastic Compliance Matrix: (Units=1/GPa)
#
#
# Indices 1 2 3 4 5 6 
#
# 1 0.015763 -0.004096 -0.001084 0.000000 0.000000 0.000000
# 2 -0.004096 0.010278 -0.004244 0.000000 0.000000 0.000000
# 3 -0.001084 -0.004244 0.013527 0.000000 0.000000 0.000000
# 4 0.000000 0.000000 0.000000 0.036526 0.000000 0.000000
# 5 0.000000 0.000000 0.000000 0.000000 0.089162 0.000000
# 6 0.000000 0.000000 0.000000 0.000000 0.000000 0.022491
#
#
# Mechanical properties :
#
#
# Convention : Reuss Voigt Hill
#
# Bulk Modulus (GPa) = 48.26509 54.37218 51.31864
# Shear Modulus (GPa) = 23.41890 29.62759 26.52324
#
# Velocity S-wave (km/s) = 3.28694 3.69707 3.49802
# Velocity P-wave (km/s) = 6.05572 6.58090 6.32377
#
# Compressibility (1/GPa) = 0.02071891
#
# Stress axis : x y z
#
# Youngs Moduli (GPa) = 63.43901 97.29392 73.92612
#
# Poissons Ratio (x) = 0.39854 0.08016
# Poissons Ratio (y) = 0.25986 0.31375
# Poissons Ratio (z) = 0.06879 0.41293
#
# Static dielectric constant tensor:
#      x y z
#    x 1.731030 0.000000 0.000000 
#    y 0.000000 1.929800 0.000000 
#    z 0.000000 0.000000 1.871130 
# 
# From -- ./inp_files/45749.got.cif
#   From: 2010.05.17/outbox.cif.g08.bks.cpg/sg22_23_cif.got.tgz:45749.got - 2010.06.03 23:40:54.
