data_PCOD9326449
_publ_section_title
;
Structure prediction by ZEFSAII (Michael W. Deem and Ramdas Pophale) SiO2 
 PCOD9326449
Probable space group: F 2 2 2
;
_chemical_formula_sum "Si O2"
_cell_formula_units_Z 88
_cell_length_a 14.283221
_cell_length_b 17.229272
_cell_length_c 17.097563
_cell_angle_alpha 90.000000
_cell_angle_beta 90.000000
_cell_angle_gamma 90.000000
_cell_volume 4207.530724
_symmetry_space_group_name_H-M "F 2 2 2"
_symmetry_group_IT_number 22
_symmetry_cell_setting 'orthorhombic'
loop_
_space_group_symop_operation_xyz
x,y,z
-x,-y,z
x,-y,-z
-x,y,-z
x,1/2+y,1/2+z
-x,1/2-y,1/2+z
x,1/2-y,1/2-z
-x,1/2+y,1/2-z
1/2+x,y,1/2+z
1/2-x,-y,1/2+z
1/2+x,-y,1/2-z
1/2-x,y,1/2-z
1/2+x,1/2+y,z
1/2-x,1/2-y,z
1/2+x,1/2-y,-z
1/2-x,1/2+y,-z
loop_
_atom_site_type_symbol
_atom_site_label
_atom_site_fract_x
_atom_site_fract_y
_atom_site_fract_z
Si Si1 0.642313 0.722071 0.335846
Si Si2 0.500000 0.000000 0.308760
Si Si3 0.161227 0.952087 0.695862
Si Si4 0.803053 0.067208 0.441304
Si Si5 0.360615 0.767078 0.009694
Si Si6 0.416698 0.109519 0.562185
O O1 0.603413 0.750000 0.250000
O O2 0.750000 0.750000 0.333725
O O3 0.644216 0.629216 0.346928
O O4 0.603997 0.748829 0.420655
O O5 0.424150 0.037283 0.253366
O O6 0.549769 0.064702 0.361521
O O7 0.250000 0.938733 0.750000
O O8 0.179561 0.027336 0.642588
O O9 0.861979 0.145246 0.458057
O O10 0.690829 0.081757 0.455156
O O11 0.833298 0.000000 0.500000
O O12 0.250000 0.750000 0.006395
O O13 0.405000 0.702237 0.065169
O O14 0.500000 0.092266 0.500000
#
# Coordination Sequence:
#
# PCOD9326449 Si02
#       6
#    16   8  16  16  16  16
#     4  10  19  34  64 101 132 175 224 279 350 409
#     4  12  27  44  65 106 132 184 236 284 357 418
#     4  12  24  43  69  97 142 183 235 292 347 426
#     4  11  21  43  72  98 136 189 226 284 359 423
#     4   9  21  39  65  97 132 181 225 275 353 419
#     4  11  24  41  68 105 140 170 234 297 352 421
#
# _framework density 20.91488
#
# number of rings (size 3 to 8) (size 9 to 14) (size 15 to 20)
#    0.000    1.273    5.455    1.364    2.545    0.000 
#    3.273    1.364    0.000    0.000    0.000    0.000 
#    0.000    0.000    0.000    0.000    0.000    0.000 
#
# Total GULP energy -122677.101788 kJ/mol
# GULP energy per Si atom -5576.231899 kJ/mol
# Density = 2.086728 g / cm^3
# Si number density = 20.914880 Si / 1000 Ang^3
#
#
#
# Elastic Constant Matrix: (Units=GPa)
#
#
# Indices 1 2 3 4 5 6 
#
# 1 34.1727 23.6291 -4.0209 0.0000 0.0000 0.0000
# 2 23.6291 156.3955 40.7674 0.0000 0.0000 0.0000
# 3 -4.0209 40.7674 42.2900 0.0000 0.0000 0.0000
# 4 0.0000 0.0000 0.0000 37.9202 0.0000 0.0000
# 5 0.0000 0.0000 0.0000 0.0000 21.9539 0.0000
# 6 0.0000 0.0000 0.0000 0.0000 0.0000 -79.9363
#
#
#
# Elastic Compliance Matrix: (Units=1/GPa)
#
#
# Indices 1 2 3 4 5 6 
#
# 1 0.036590 -0.008595 0.011764 0.000000 0.000000 0.000000
# 2 -0.008595 0.010559 -0.010996 0.000000 0.000000 0.000000
# 3 0.011764 -0.010996 0.035365 0.000000 0.000000 0.000000
# 4 0.000000 0.000000 0.000000 0.026371 0.000000 0.000000
# 5 0.000000 0.000000 0.000000 0.000000 0.045550 0.000000
# 6 0.000000 0.000000 0.000000 0.000000 0.000000 -0.012510
#
#
# Mechanical properties :
#
#
# Convention : Reuss Voigt Hill
#
# Bulk Modulus (GPa) = 14.95629 39.28991 27.12310
# Shear Modulus (GPa) = 27.79856 7.48639 17.64248
#
# Velocity S-wave (km/s) = 3.64968 1.89400 2.90752
# Velocity P-wave (km/s) = 4.99267 4.85895 4.92626
#
# Compressibility (1/GPa) = 0.06686151
#
# Stress axis : x y z
#
# Youngs Moduli (GPa) = 27.32951 94.70668 28.27663
#
# Poissons Ratio (x) = 0.81400 -0.33266
# Poissons Ratio (y) = 0.23489 0.31093
# Poissons Ratio (z) = -0.32152 1.04139
#
# Static dielectric constant tensor:
#      x y z
#    x 1.716730 0.000000 0.000000 
#    y 0.000000 1.762680 0.000000 
#    z 0.000000 0.000000 1.875560 
# 
# From -- ./inp_files/37146.got.cif
#   From: 2010.05.17/outbox.cif.g08.bks.cpg/sg22_19_cif.got.tgz:37146.got - 2010.06.03 23:40:54.
