data_PCOD9326482
_publ_section_title
;
Structure prediction by ZEFSAII (Michael W. Deem and Ramdas Pophale) SiO2 
 PCOD9326482
Probable space group: F 2 2 2
;
_chemical_formula_sum "Si O2"
_cell_formula_units_Z 88
_cell_length_a 21.676882
_cell_length_b 14.873476
_cell_length_c 14.196104
_cell_angle_alpha 90.000000
_cell_angle_beta 90.000000
_cell_angle_gamma 90.000000
_cell_volume 4576.974184
_symmetry_space_group_name_H-M "F 2 2 2"
_symmetry_group_IT_number 22
_symmetry_cell_setting 'orthorhombic'
loop_
_space_group_symop_operation_xyz
x,y,z
-x,-y,z
x,-y,-z
-x,y,-z
x,1/2+y,1/2+z
-x,1/2-y,1/2+z
x,1/2-y,1/2-z
-x,1/2+y,1/2-z
1/2+x,y,1/2+z
1/2-x,-y,1/2+z
1/2+x,-y,1/2-z
1/2-x,y,1/2-z
1/2+x,1/2+y,z
1/2-x,1/2-y,z
1/2+x,1/2-y,-z
1/2-x,1/2+y,-z
loop_
_atom_site_type_symbol
_atom_site_label
_atom_site_fract_x
_atom_site_fract_y
_atom_site_fract_z
Si Si1 0.808283 0.420993 0.691340
Si Si2 0.138812 0.200578 0.657240
Si Si3 0.678708 0.724293 0.031876
Si Si4 0.983466 0.898194 0.609671
Si Si5 0.605895 0.831313 0.180439
Si Si6 0.250000 0.406229 0.750000
O O1 0.750000 0.377764 0.750000
O O2 0.823677 0.365822 0.596686
O O3 0.864442 0.415571 0.765528
O O4 0.786664 0.523993 0.681655
O O5 0.114980 0.250000 0.750000
O O6 0.152166 0.271497 0.573628
O O7 0.086498 0.130419 0.626188
O O8 0.202029 0.152015 0.689932
O O9 0.750000 0.750000 0.027155
O O10 0.641761 0.803638 0.086214
O O11 0.000000 0.888485 0.500000
O O12 0.033669 0.838801 0.663827
O O13 0.000000 0.000000 0.636108
O O14 0.619974 0.750000 0.250000
#
# Coordination Sequence:
#
# PCOD9326482 Si02
#       6
#    16  16  16  16  16   8
#     4   9  19  35  63  93 120 158 213 265 316 368
#     4  12  25  42  62  89 135 176 213 259 332 407
#     4  11  19  34  59  91 122 159 206 263 311 376
#     4  11  23  40  61  90 121 165 216 268 327 383
#     4  10  19  35  60  89 120 153 208 266 319 368
#     4  10  21  42  61  92 136 170 212 258 335 392
#
# _framework density 19.226676000000001
#
# number of rings (size 3 to 8) (size 9 to 14) (size 15 to 20)
#    0.545    0.909    3.636    3.000    0.000    0.000 
#    0.000    4.545    0.000    0.000    0.000    1.273 
#    0.000    0.000    0.000    0.000    0.000    0.000 
#
# Total GULP energy -122607.463876 kJ/mol
# GULP energy per Si atom -5573.066540 kJ/mol
# Density = 1.918291 g / cm^3
# Si number density = 19.226676 Si / 1000 Ang^3
#
#
#
# Elastic Constant Matrix: (Units=GPa)
#
#
# Indices 1 2 3 4 5 6 
#
# 1 99.9884 18.8582 24.3131 0.0000 0.0000 0.0000
# 2 18.8582 59.6068 29.7573 0.0000 0.0000 0.0000
# 3 24.3131 29.7573 102.0966 0.0000 0.0000 0.0000
# 4 0.0000 0.0000 0.0000 15.9838 0.0000 0.0000
# 5 0.0000 0.0000 0.0000 0.0000 26.7801 0.0000
# 6 0.0000 0.0000 0.0000 0.0000 0.0000 33.0812
#
#
#
# Elastic Compliance Matrix: (Units=1/GPa)
#
#
# Indices 1 2 3 4 5 6 
#
# 1 0.010932 -0.002527 -0.001867 0.000000 0.000000 0.000000
# 2 -0.002527 0.020217 -0.005291 0.000000 0.000000 0.000000
# 3 -0.001867 -0.005291 0.011781 0.000000 0.000000 0.000000
# 4 0.000000 0.000000 0.000000 0.062563 0.000000 0.000000
# 5 0.000000 0.000000 0.000000 0.000000 0.037341 0.000000
# 6 0.000000 0.000000 0.000000 0.000000 0.000000 0.030229
#
#
# Mechanical properties :
#
#
# Convention : Reuss Voigt Hill
#
# Bulk Modulus (GPa) = 42.44184 45.28322 43.86253
# Shear Modulus (GPa) = 24.96430 27.75321 26.35876
#
# Velocity S-wave (km/s) = 3.60727 3.80343 3.70665
# Velocity P-wave (km/s) = 6.28269 6.54916 6.41731
#
# Compressibility (1/GPa) = 0.02356166
#
# Stress axis : x y z
#
# Youngs Moduli (GPa) = 91.47776 49.46253 84.88009
#
# Poissons Ratio (x) = 0.12497 0.15846
# Poissons Ratio (y) = 0.23112 0.44909
# Poissons Ratio (z) = 0.17078 0.26170
#
# Static dielectric constant tensor:
#      x y z
#    x 1.652480 0.000000 0.000000 
#    y 0.000000 1.706870 0.000000 
#    z 0.000000 0.000000 1.701650 
# 
# From -- ./inp_files/31653.got.cif
#   From: 2010.05.17/outbox.cif.g08.bks.cpg/sg22_16_cif.got.tgz:31653.got - 2010.06.03 23:40:54.
