data_PCOD9326518
_publ_section_title
;
Structure prediction by ZEFSAII (Michael W. Deem and Ramdas Pophale) SiO2 
 PCOD9326518
Probable space group: F 2 2 2
;
_chemical_formula_sum "Si O2"
_cell_formula_units_Z 88
_cell_length_a 14.981548
_cell_length_b 22.434406
_cell_length_c 12.412298
_cell_angle_alpha 90.000000
_cell_angle_beta 90.000000
_cell_angle_gamma 90.000000
_cell_volume 4171.799800
_symmetry_space_group_name_H-M "F 2 2 2"
_symmetry_group_IT_number 22
_symmetry_cell_setting 'orthorhombic'
loop_
_space_group_symop_operation_xyz
x,y,z
-x,-y,z
x,-y,-z
-x,y,-z
x,1/2+y,1/2+z
-x,1/2-y,1/2+z
x,1/2-y,1/2-z
-x,1/2+y,1/2-z
1/2+x,y,1/2+z
1/2-x,-y,1/2+z
1/2+x,-y,1/2-z
1/2-x,y,1/2-z
1/2+x,1/2+y,z
1/2-x,1/2-y,z
1/2+x,1/2-y,-z
1/2-x,1/2+y,-z
loop_
_atom_site_type_symbol
_atom_site_label
_atom_site_fract_x
_atom_site_fract_y
_atom_site_fract_z
Si Si1 0.394022 0.569968 0.490409
Si Si2 0.914536 0.764325 0.571313
Si Si3 0.851857 0.637696 0.776428
Si Si4 0.743536 0.621446 0.129170
Si Si5 0.905978 0.620237 0.549500
Si Si6 0.250000 0.750000 0.925551
O O1 0.376411 0.500000 0.500000
O O2 0.500000 0.579455 0.500000
O O3 0.357932 0.593939 0.377278
O O4 0.339312 0.605090 0.580542
O O5 0.905891 0.804144 0.678841
O O6 0.912573 0.692189 0.573134
O O7 0.825502 0.775994 0.503352
O O8 0.000000 0.781233 0.500000
O O9 0.750000 0.656489 0.750000
O O10 0.886258 0.601923 0.671753
O O11 0.750000 0.596457 0.250000
O O12 0.720120 0.692169 0.139211
O O13 0.670297 0.603730 0.037641
O O14 0.000000 0.601181 0.500000
#
# Coordination Sequence:
#
# PCOD9326518 Si02
#       6
#    16  16  16  16  16   8
#     4  11  26  47  70  97 124 174 237 279 334 396
#     4  10  20  35  59  95 137 177 215 262 321 403
#     4  12  21  40  69  93 134 173 222 281 329 396
#     4  11  23  41  63  94 134 175 211 275 328 399
#     4  10  23  38  59  99 137 173 216 260 335 399
#     4  10  19  36  59  96 132 167 227 256 328 410
#
# _framework density 21.094014000000001
#
# number of rings (size 3 to 8) (size 9 to 14) (size 15 to 20)
#    0.000    1.273    3.636    2.455    2.545    1.455 
#    0.000    5.455    0.000    0.545    0.000    0.000 
#    0.000    0.000    0.000    0.000    0.000    0.000 
#
# Total GULP energy -122614.205500 kJ/mol
# GULP energy per Si atom -5573.372977 kJ/mol
# Density = 2.104600 g / cm^3
# Si number density = 21.094014 Si / 1000 Ang^3
#
#
#
# Elastic Constant Matrix: (Units=GPa)
#
#
# Indices 1 2 3 4 5 6 
#
# 1 120.8868 6.2604 59.8101 0.0000 0.0000 0.0000
# 2 6.2604 60.1664 6.4805 0.0000 0.0000 0.0000
# 3 59.8101 6.4805 187.1044 0.0000 0.0000 0.0000
# 4 0.0000 0.0000 0.0000 13.7269 0.0000 0.0000
# 5 0.0000 0.0000 0.0000 0.0000 35.2105 0.0000
# 6 0.0000 0.0000 0.0000 0.0000 0.0000 14.0533
#
#
#
# Elastic Compliance Matrix: (Units=1/GPa)
#
#
# Indices 1 2 3 4 5 6 
#
# 1 0.009855 -0.000689 -0.003126 0.000000 0.000000 0.000000
# 2 -0.000689 0.016731 -0.000359 0.000000 0.000000 0.000000
# 3 -0.003126 -0.000359 0.006356 0.000000 0.000000 0.000000
# 4 0.000000 0.000000 0.000000 0.072850 0.000000 0.000000
# 5 0.000000 0.000000 0.000000 0.000000 0.028401 0.000000
# 6 0.000000 0.000000 0.000000 0.000000 0.000000 0.071158
#
#
# Mechanical properties :
#
#
# Convention : Reuss Voigt Hill
#
# Bulk Modulus (GPa) = 40.66136 57.02885 48.84511
# Shear Modulus (GPa) = 22.53303 32.30526 27.41914
#
# Velocity S-wave (km/s) = 3.27191 3.91767 3.60926
# Velocity P-wave (km/s) = 5.79586 6.89626 6.36987
#
# Compressibility (1/GPa) = 0.02459337
#
# Stress axis : x y z
#
# Youngs Moduli (GPa) = 101.47512 59.76956 157.32144
#
# Poissons Ratio (x) = 0.04116 0.49183
# Poissons Ratio (y) = 0.06988 0.05653
# Poissons Ratio (z) = 0.31724 0.02148
#
# Static dielectric constant tensor:
#      x y z
#    x 1.756770 0.000000 0.000000 
#    y 0.000000 1.818560 0.000000 
#    z 0.000000 0.000000 1.805720 
# 
# From -- ./inp_files/19958.got.cif
#   From: 2010.05.17/outbox.cif.g08.bks.cpg/sg22_10_cif.got.tgz:19958.got - 2010.06.03 23:40:54.
