data_PCOD9326194
_publ_section_title
;
Structure prediction by ZEFSAII (Michael W. Deem and Ramdas Pophale) SiO2 
 PCOD9326194
Probable space group: F 2 2 2
;
_chemical_formula_sum "Si O2"
_cell_formula_units_Z 112
_cell_length_a 19.177090
_cell_length_b 10.828494
_cell_length_c 25.205452
_cell_angle_alpha 90.000000
_cell_angle_beta 90.000000
_cell_angle_gamma 90.000000
_cell_volume 5234.139058
_symmetry_space_group_name_H-M "F 2 2 2"
_symmetry_group_IT_number 22
_symmetry_cell_setting 'orthorhombic'
loop_
_space_group_symop_operation_xyz
x,y,z
-x,-y,z
x,-y,-z
-x,y,-z
x,1/2+y,1/2+z
-x,1/2-y,1/2+z
x,1/2-y,1/2-z
-x,1/2+y,1/2-z
1/2+x,y,1/2+z
1/2-x,-y,1/2+z
1/2+x,-y,1/2-z
1/2-x,y,1/2-z
1/2+x,1/2+y,z
1/2-x,1/2-y,z
1/2+x,1/2-y,-z
1/2-x,1/2+y,-z
loop_
_atom_site_type_symbol
_atom_site_label
_atom_site_fract_x
_atom_site_fract_y
_atom_site_fract_z
Si Si1 0.457996 0.378855 0.412293
Si Si2 0.859997 0.375195 0.279992
Si Si3 0.304065 0.137668 0.545688
Si Si4 0.373293 0.504617 0.672976
Si Si5 0.668786 0.211338 0.566825
Si Si6 0.084258 0.257587 0.625105
Si Si7 0.724484 0.029419 0.636671
O O1 0.500000 0.500000 0.434352
O O2 0.434090 0.416373 0.353028
O O3 0.387689 0.321719 0.437773
O O4 0.513946 0.272013 0.405448
O O5 0.836008 0.250000 0.250000
O O6 0.878870 0.471849 0.234433
O O7 0.920949 0.332457 0.319986
O O8 0.802681 0.433908 0.319005
O O9 0.250000 0.250000 0.542762
O O10 0.335783 0.130255 0.486804
O O11 0.365854 0.171487 0.585372
O O12 0.263172 0.033553 0.578987
O O13 0.379804 0.373016 0.641825
O O14 0.299614 0.568180 0.658942
O O15 0.750000 0.250000 0.569239
O O16 0.665639 0.130091 0.620863
#
# Coordination Sequence:
#
# PCOD9326194 Si02
#       7
#    16  16  16  16  16  16  16
#     4  10  22  42  63  88 132 175 216 270 327 397
#     4   9  20  35  61  92 122 166 216 268 326 394
#     4  10  20  36  62  91 125 163 213 270 333 402
#     4  10  18  35  58  90 124 159 210 269 327 388
#     4  11  23  40  61  89 129 173 215 271 338 398
#     4   9  19  37  59  90 119 160 214 270 320 385
#     4  11  20  36  61  94 125 161 213 280 335 393
#
# _framework density 21.397977999999998
#
# number of rings (size 3 to 8) (size 9 to 14) (size 15 to 20)
#    0.000    2.000    2.857    0.857    0.000    2.286 
#    0.000   18.571    0.000    3.429    0.000    0.000 
#    0.000    0.000    0.000    0.000    0.000    0.000 
#
# Total GULP energy -155906.120513 kJ/mol
# GULP energy per Si atom -5568.075733 kJ/mol
# Density = 2.134928 g / cm^3
# Si number density = 21.397978 Si / 1000 Ang^3
#
#
#
# Elastic Constant Matrix: (Units=GPa)
#
#
# Indices 1 2 3 4 5 6 
#
# 1 79.5186 18.4763 12.5409 0.0000 0.0000 0.0000
# 2 18.4763 46.8462 17.3024 0.0000 0.0000 0.0000
# 3 12.5409 17.3024 99.2978 0.0000 0.0000 0.0000
# 4 0.0000 0.0000 0.0000 32.2277 0.0000 0.0000
# 5 0.0000 0.0000 0.0000 0.0000 7.0085 0.0000
# 6 0.0000 0.0000 0.0000 0.0000 0.0000 34.8007
#
#
#
# Elastic Compliance Matrix: (Units=1/GPa)
#
#
# Indices 1 2 3 4 5 6 
#
# 1 0.013912 -0.005171 -0.000856 0.000000 0.000000 0.000000
# 2 -0.005171 0.024737 -0.003657 0.000000 0.000000 0.000000
# 3 -0.000856 -0.003657 0.010816 0.000000 0.000000 0.000000
# 4 0.000000 0.000000 0.000000 0.031029 0.000000 0.000000
# 5 0.000000 0.000000 0.000000 0.000000 0.142684 0.000000
# 6 0.000000 0.000000 0.000000 0.000000 0.000000 0.028735
#
#
# Mechanical properties :
#
#
# Convention : Reuss Voigt Hill
#
# Bulk Modulus (GPa) = 33.22630 35.81130 34.51880
# Shear Modulus (GPa) = 17.77377 26.63025 22.20201
#
# Velocity S-wave (km/s) = 2.88519 3.53161 3.22464
# Velocity P-wave (km/s) = 5.16339 5.77943 5.48007
#
# Compressibility (1/GPa) = 0.03009664
#
# Stress axis : x y z
#
# Youngs Moduli (GPa) = 71.87973 40.42595 92.45481
#
# Poissons Ratio (x) = 0.20903 0.07915
# Poissons Ratio (y) = 0.37168 0.33813
# Poissons Ratio (z) = 0.06153 0.14785
#
# Static dielectric constant tensor:
#      x y z
#    x 1.775030 0.000000 0.000000 
#    y 0.000000 1.893090 0.000000 
#    z 0.000000 0.000000 1.786710 
# 
# From -- ./inp_files/49952.got.cif
#   From: 2010.05.17/outbox.cif.g08.bks.cpg/sg22_25_cif.got.tgz:49952.got - 2010.06.03 23:40:54.
