data_PCOD9326378
_publ_section_title
;
Structure prediction by ZEFSAII (Michael W. Deem and Ramdas Pophale) SiO2 
 PCOD9326378
Probable space group: F 2 2 2
;
_chemical_formula_sum "Si O2"
_cell_formula_units_Z 96
_cell_length_a 9.601805
_cell_length_b 22.988745
_cell_length_c 24.114721
_cell_angle_alpha 90.000000
_cell_angle_beta 90.000000
_cell_angle_gamma 90.000000
_cell_volume 5322.925482
_symmetry_space_group_name_H-M "F 2 2 2"
_symmetry_group_IT_number 22
_symmetry_cell_setting 'orthorhombic'
loop_
_space_group_symop_operation_xyz
x,y,z
-x,-y,z
x,-y,-z
-x,y,-z
x,1/2+y,1/2+z
-x,1/2-y,1/2+z
x,1/2-y,1/2-z
-x,1/2+y,1/2-z
1/2+x,y,1/2+z
1/2-x,-y,1/2+z
1/2+x,-y,1/2-z
1/2-x,y,1/2-z
1/2+x,1/2+y,z
1/2-x,1/2-y,z
1/2+x,1/2-y,-z
1/2-x,1/2+y,-z
loop_
_atom_site_type_symbol
_atom_site_label
_atom_site_fract_x
_atom_site_fract_y
_atom_site_fract_z
Si Si1 0.500000 0.500000 0.904866
Si Si2 0.585435 0.238127 0.686306
Si Si3 0.324427 0.621145 0.543968
Si Si4 0.349068 0.180210 0.551295
Si Si5 0.766466 0.500000 0.500000
Si Si6 0.069503 0.696108 0.089935
Si Si7 0.073439 0.378435 0.379004
O O1 0.368882 0.491390 0.946932
O O2 0.525491 0.443574 0.867545
O O3 0.549924 0.250000 0.750000
O O4 0.750000 0.250000 0.678855
O O5 0.502106 0.280547 0.645317
O O6 0.557384 0.172125 0.666015
O O7 0.234604 0.662862 0.503446
O O8 0.320585 0.557931 0.514762
O O9 0.471162 0.649363 0.560195
O O10 0.231489 0.618665 0.599546
O O11 0.227253 0.174333 0.597602
O O12 0.407388 0.245547 0.553079
O O13 0.476697 0.139995 0.568484
#
# Coordination Sequence:
#
# PCOD9326378 Si02
#       7
#     8  16  16  16   8  16  16
#     4   9  16  32  54  82 112 142 196 220 259 322
#     4  10  20  37  57  83 105 134 184 241 287 326
#     4  11  19  34  53  80 114 150 189 213 266 323
#     4  10  21  33  48  79 117 142 176 219 270 333
#     4   9  18  30  53  80 112 157 185 224 246 323
#     4  10  22  35  50  78 108 147 179 221 281 329
#     4  10  19  33  57  82 106 145 184 228 266 321
#
# _framework density 18.035194000000001
#
# number of rings (size 3 to 8) (size 9 to 14) (size 15 to 20)
#    0.000    2.000    3.333    1.000    0.000    9.333 
#    0.000    8.333    0.000    0.000   13.000    0.000 
#    0.000    0.000    0.000    0.000    0.000    0.000 
#
# Total GULP energy -133834.871781 kJ/mol
# GULP energy per Si atom -5576.452991 kJ/mol
# Density = 1.799415 g / cm^3
# Si number density = 18.035194 Si / 1000 Ang^3
#
#
#
# Elastic Constant Matrix: (Units=GPa)
#
#
# Indices 1 2 3 4 5 6 
#
# 1 104.9323 42.1498 25.1264 0.0000 0.0000 0.0000
# 2 42.1498 125.2050 38.3159 0.0000 0.0000 0.0000
# 3 25.1264 38.3159 81.9950 0.0000 0.0000 0.0000
# 4 0.0000 0.0000 0.0000 20.3852 0.0000 0.0000
# 5 0.0000 0.0000 0.0000 0.0000 21.2534 0.0000
# 6 0.0000 0.0000 0.0000 0.0000 0.0000 30.3722
#
#
#
# Elastic Compliance Matrix: (Units=1/GPa)
#
#
# Indices 1 2 3 4 5 6 
#
# 1 0.011285 -0.003198 -0.001964 0.000000 0.000000 0.000000
# 2 -0.003198 0.010226 -0.003799 0.000000 0.000000 0.000000
# 3 -0.001964 -0.003799 0.014573 0.000000 0.000000 0.000000
# 4 0.000000 0.000000 0.000000 0.049055 0.000000 0.000000
# 5 0.000000 0.000000 0.000000 0.000000 0.047051 0.000000
# 6 0.000000 0.000000 0.000000 0.000000 0.000000 0.032925
#
#
# Mechanical properties :
#
#
# Convention : Reuss Voigt Hill
#
# Bulk Modulus (GPa) = 55.05731 58.14629 56.60180
# Shear Modulus (GPa) = 26.44249 28.17150 27.30699
#
# Velocity S-wave (km/s) = 3.83320 3.95654 3.89536
# Velocity P-wave (km/s) = 7.08415 7.29265 7.18916
#
# Compressibility (1/GPa) = 0.01816289
#
# Stress axis : x y z
#
# Youngs Moduli (GPa) = 88.61498 97.79029 68.62173
#
# Poissons Ratio (x) = 0.31274 0.13475
# Poissons Ratio (y) = 0.28340 0.26066
# Poissons Ratio (z) = 0.17401 0.37146
#
# Static dielectric constant tensor:
#      x y z
#    x 1.655700 0.000000 0.000000 
#    y 0.000000 1.668640 0.000000 
#    z 0.000000 0.000000 1.619530 
# 
# From -- ./inp_files/14021.got.cif
#   From: 2010.05.17/outbox.cif.g08.bks.cpg/sg22_8_cif.got.tgz:14021.got - 2010.06.03 23:40:54.
