data_PCOD9326119
_publ_section_title
;
Structure prediction by ZEFSAII (Michael W. Deem and Ramdas Pophale) SiO2 
 PCOD9326119
Probable space group: F 2 2 2
;
_chemical_formula_sum "Si O2"
_cell_formula_units_Z 80
_cell_length_a 28.999900
_cell_length_b 16.278118
_cell_length_c 8.166272
_cell_angle_alpha 90.000000
_cell_angle_beta 90.000000
_cell_angle_gamma 90.000000
_cell_volume 3855.001345
_symmetry_space_group_name_H-M "F 2 2 2"
_symmetry_group_IT_number 22
_symmetry_cell_setting 'orthorhombic'
loop_
_space_group_symop_operation_xyz
x,y,z
-x,-y,z
x,-y,-z
-x,y,-z
x,1/2+y,1/2+z
-x,1/2-y,1/2+z
x,1/2-y,1/2-z
-x,1/2+y,1/2-z
1/2+x,y,1/2+z
1/2-x,-y,1/2+z
1/2+x,-y,1/2-z
1/2-x,y,1/2-z
1/2+x,1/2+y,z
1/2-x,1/2-y,z
1/2+x,1/2-y,-z
1/2-x,1/2+y,-z
loop_
_atom_site_type_symbol
_atom_site_label
_atom_site_fract_x
_atom_site_fract_y
_atom_site_fract_z
Si Si1 0.077434 0.250000 0.250000
Si Si2 0.500000 0.299570 0.500000
Si Si3 0.458500 0.950642 0.172979
Si Si4 0.656304 0.632600 0.114344
Si Si5 0.250000 0.119115 0.250000
Si Si6 0.200550 0.000000 0.500000
Si Si7 0.356904 0.556732 0.213795
O O1 0.042332 0.242118 0.404092
O O2 0.112854 0.323453 0.298813
O O3 0.476550 0.360672 0.630822
O O4 0.411579 0.944480 0.267424
O O5 0.500000 0.000000 0.257235
O O6 0.450406 0.000000 0.000000
O O7 0.705075 0.664766 0.181009
O O8 0.655320 0.535942 0.159138
O O9 0.655307 0.626947 0.916994
O O10 0.232291 0.058948 0.393044
O O11 0.168627 0.059177 0.611815
#
# Coordination Sequence:
#
# PCOD9326119 Si02
#       7
#     8   8  16  16   8   8  16
#     4  12  26  45  58  90 126 179 212 266 326 410
#     4  10  25  38  60  79 124 160 214 246 328 385
#     4   9  17  34  59  89 116 159 200 254 317 376
#     4  10  23  39  61  91 129 162 218 259 329 379
#     4  10  20  37  60  94 122 167 204 268 320 388
#     4  10  18  32  65  96 134 153 206 272 336 376
#     4  10  19  36  64  96 121 161 209 274 316 382
#
# _framework density 20.752262999999999
#
# number of rings (size 3 to 8) (size 9 to 14) (size 15 to 20)
#    0.000    2.200    1.000    4.800    5.600    0.400 
#    0.000    1.000    0.000    0.000    5.200    0.000 
#    0.000    0.000    0.000    0.000    0.000    0.000 
#
# Total GULP energy -111462.736957 kJ/mol
# GULP energy per Si atom -5573.136848 kJ/mol
# Density = 2.070503 g / cm^3
# Si number density = 20.752263 Si / 1000 Ang^3
#
#
#
# Elastic Constant Matrix: (Units=GPa)
#
#
# Indices 1 2 3 4 5 6 
#
# 1 192.8259 37.1950 64.6612 0.0000 0.0000 0.0000
# 2 37.1950 41.5829 20.4521 0.0000 0.0000 0.0000
# 3 64.6612 20.4521 85.8771 0.0000 0.0000 0.0000
# 4 0.0000 0.0000 0.0000 2.2534 0.0000 0.0000
# 5 0.0000 0.0000 0.0000 0.0000 36.6600 0.0000
# 6 0.0000 0.0000 0.0000 0.0000 0.0000 39.8865
#
#
#
# Elastic Compliance Matrix: (Units=1/GPa)
#
#
# Indices 1 2 3 4 5 6 
#
# 1 0.007622 -0.004525 -0.004661 0.000000 0.000000 0.000000
# 2 -0.004525 0.029925 -0.003720 0.000000 0.000000 0.000000
# 3 -0.004661 -0.003720 0.016040 0.000000 0.000000 0.000000
# 4 0.000000 0.000000 0.000000 0.443772 0.000000 0.000000
# 5 0.000000 0.000000 0.000000 0.000000 0.027278 0.000000
# 6 0.000000 0.000000 0.000000 0.000000 0.000000 0.025071
#
#
# Mechanical properties :
#
#
# Convention : Reuss Voigt Hill
#
# Bulk Modulus (GPa) = 36.00316 62.76693 49.38504
# Shear Modulus (GPa) = 8.55024 28.95849 18.75437
#
# Velocity S-wave (km/s) = 2.03202 3.73961 3.00947
# Velocity P-wave (km/s) = 4.78457 6.99698 5.99374
#
# Compressibility (1/GPa) = 0.02777534
#
# Stress axis : x y z
#
# Youngs Moduli (GPa) = 131.19947 33.41637 62.34356
#
# Poissons Ratio (x) = 0.15121 0.29060
# Poissons Ratio (y) = 0.59369 0.23190
# Poissons Ratio (z) = 0.61156 0.12430
#
# Static dielectric constant tensor:
#      x y z
#    x 1.768990 0.000000 0.000000 
#    y 0.000000 1.740350 0.000000 
#    z 0.000000 0.000000 1.632710 
# 
# From -- ./inp_files/15511.got.cif
#   From: 2010.05.17/outbox.cif.g08.bks.cpg/sg22_8_cif.got.tgz:15511.got - 2010.06.03 23:40:54.
