data_PCOD9326180
_publ_section_title
;
Structure prediction by ZEFSAII (Michael W. Deem and Ramdas Pophale) SiO2 
 PCOD9326180
Probable space group: F 2 2 2
;
_chemical_formula_sum "Si O2"
_cell_formula_units_Z 96
_cell_length_a 22.775914
_cell_length_b 27.474772
_cell_length_c 7.709651
_cell_angle_alpha 90.000000
_cell_angle_beta 90.000000
_cell_angle_gamma 90.000000
_cell_volume 4824.414680
_symmetry_space_group_name_H-M "F 2 2 2"
_symmetry_group_IT_number 22
_symmetry_cell_setting 'orthorhombic'
loop_
_space_group_symop_operation_xyz
x,y,z
-x,-y,z
x,-y,-z
-x,y,-z
x,1/2+y,1/2+z
-x,1/2-y,1/2+z
x,1/2-y,1/2-z
-x,1/2+y,1/2-z
1/2+x,y,1/2+z
1/2-x,-y,1/2+z
1/2+x,-y,1/2-z
1/2-x,y,1/2-z
1/2+x,1/2+y,z
1/2-x,1/2-y,z
1/2+x,1/2-y,-z
1/2-x,1/2+y,-z
loop_
_atom_site_type_symbol
_atom_site_label
_atom_site_fract_x
_atom_site_fract_y
_atom_site_fract_z
Si Si1 0.968372 0.848897 0.329033
Si Si2 0.827191 0.369617 0.417496
Si Si3 0.844823 0.693694 0.268619
Si Si4 0.087705 0.556972 0.010215
Si Si5 0.197667 0.118012 0.519453
Si Si6 0.049733 0.592454 0.383045
O O1 0.913603 0.817461 0.267894
O O2 0.944539 0.903076 0.387382
O O3 0.000000 0.828578 0.500000
O O4 0.016903 0.858511 0.182885
O O5 0.828976 0.322214 0.536631
O O6 0.823764 0.362247 0.209468
O O7 0.765948 0.395243 0.466053
O O8 0.887350 0.397187 0.468555
O O9 0.831037 0.750000 0.250000
O O10 0.812816 0.658436 0.128656
O O11 0.155645 0.572081 0.986972
O O12 0.066949 0.567441 0.205006
O O13 0.077249 0.500000 0.000000
O O14 0.000000 0.567491 0.500000
#
# Coordination Sequence:
#
# PCOD9326180 Si02
#       6
#    16  16  16  16  16  16
#     4   9  19  37  57  83 122 157 194 245 301 353
#     4  10  20  38  64  85 120 160 198 248 304 354
#     4  11  22  38  61  92 119 162 207 248 303 361
#     4   9  19  37  64  86 113 158 199 244 303 358
#     4   9  21  39  63  87 121 160 197 253 307 353
#     4  10  18  34  62  83 117 152 194 241 300 356
#
# _framework density 19.898786999999999
#
# number of rings (size 3 to 8) (size 9 to 14) (size 15 to 20)
#    0.000    2.333    1.667    1.500    0.000    5.000 
#    3.000    3.333   29.333    0.000    0.000    0.000 
#    0.000    0.000    0.000    0.000    0.000    0.000 
#
# Total GULP energy -133695.274161 kJ/mol
# GULP energy per Si atom -5570.636423 kJ/mol
# Density = 1.985350 g / cm^3
# Si number density = 19.898787 Si / 1000 Ang^3
#
#
#
# Elastic Constant Matrix: (Units=GPa)
#
#
# Indices 1 2 3 4 5 6 
#
# 1 142.8480 8.2631 9.9898 -0.0052 0.0099 0.0045
# 2 8.2631 52.3812 5.0663 -0.0035 0.0061 0.0030
# 3 9.9898 5.0663 53.2475 -0.0158 0.0284 0.0089
# 4 -0.0052 -0.0035 -0.0158 10.1219 0.0090 0.0050
# 5 0.0099 0.0061 0.0284 0.0090 23.8560 -0.0058
# 6 0.0045 0.0030 0.0089 0.0050 -0.0058 0.1631
#
#
#
# Elastic Compliance Matrix: (Units=1/GPa)
#
#
# Indices 1 2 3 4 5 6 
#
# 1 0.007146 -0.001007 -0.001245 0.000001 -0.000001 -0.000109
# 2 -0.001007 0.019410 -0.001658 0.000004 -0.000003 -0.000233
# 3 -0.001245 -0.001658 0.019172 0.000029 -0.000022 -0.000990
# 4 0.000001 0.000004 0.000029 0.098797 -0.000038 -0.003061
# 5 -0.000001 -0.000003 -0.000022 -0.000038 0.041919 0.001490
# 6 -0.000109 -0.000233 -0.000990 -0.003061 0.001490 6.131561
#
#
# Mechanical properties :
#
#
# Convention : Reuss Voigt Hill
#
# Bulk Modulus (GPa) = 26.37935 32.79057 29.58496
# Shear Modulus (GPa) = 0.78884 21.83869 11.31377
#
# Velocity S-wave (km/s) = 0.63030 3.31643 2.38705
# Velocity P-wave (km/s) = 3.71689 5.58385 4.74313
#
# Compressibility (1/GPa) = 0.03790844
#
# Stress axis : x y z
#
# Youngs Moduli (GPa) = 139.94342 51.51978 52.16027
#
# Poissons Ratio (x) = 0.05187 0.06493
# Poissons Ratio (y) = 0.14090 0.08648
# Poissons Ratio (z) = 0.17420 0.08541
#
# Static dielectric constant tensor:
#      x y z
#    x 1.789650 0.000000 0.000000 
#    y 0.000000 1.657900 0.000000 
#    z 0.000000 0.000000 1.752220 
# 
# From -- ./inp_files/14001.got.cif
#   From: 2010.05.17/outbox.cif.g08.bks.cpg/sg22_8_cif.got.tgz:14001.got - 2010.06.03 23:40:54.
