data_PCOD9326186
_publ_section_title
;
Structure prediction by ZEFSAII (Michael W. Deem and Ramdas Pophale) SiO2 
 PCOD9326186
Probable space group: F 2 2 2
;
_chemical_formula_sum "Si O2"
_cell_formula_units_Z 72
_cell_length_a 7.670993
_cell_length_b 16.193446
_cell_length_c 27.424249
_cell_angle_alpha 90.000000
_cell_angle_beta 90.000000
_cell_angle_gamma 90.000000
_cell_volume 3406.635025
_symmetry_space_group_name_H-M "F 2 2 2"
_symmetry_group_IT_number 22
_symmetry_cell_setting 'orthorhombic'
loop_
_space_group_symop_operation_xyz
x,y,z
-x,-y,z
x,-y,-z
-x,y,-z
x,1/2+y,1/2+z
-x,1/2-y,1/2+z
x,1/2-y,1/2-z
-x,1/2+y,1/2-z
1/2+x,y,1/2+z
1/2-x,-y,1/2+z
1/2+x,-y,1/2-z
1/2-x,y,1/2-z
1/2+x,1/2+y,z
1/2-x,1/2-y,z
1/2+x,1/2-y,-z
1/2-x,1/2+y,-z
loop_
_atom_site_type_symbol
_atom_site_label
_atom_site_fract_x
_atom_site_fract_y
_atom_site_fract_z
Si Si1 0.954927 0.642052 0.107982
Si Si2 0.960661 0.255896 0.695201
Si Si3 0.750000 0.250000 0.534787
Si Si4 0.713701 0.156199 0.439749
Si Si5 0.433534 0.410966 0.128768
O O1 0.015018 0.682089 0.159110
O O2 0.894738 0.715302 0.070952
O O3 0.774146 0.594394 0.118647
O O4 0.119890 0.604521 0.079846
O O5 0.029187 0.250000 0.750000
O O6 0.750000 0.250000 0.697227
O O7 0.989239 0.342795 0.668623
O O8 0.710208 0.175576 0.497262
O O9 0.750000 0.250000 0.419636
O O10 0.541717 0.114778 0.419209
O O11 0.500000 0.500000 0.144175
#
# Coordination Sequence:
#
# PCOD9326186 Si02
#       5
#    16  16   8  16  16
#     4  11  19  37  62  86 122 160 207 256 292 364
#     4   9  17  35  66  86 112 160 211 247 302 372
#     4  10  18  34  63  92 111 162 216 248 278 356
#     4  10  21  34  62  90 116 161 218 239 295 377
#     4  11  23  39  60  92 131 154 194 267 325 361
#
# _framework density 21.135227
#
# number of rings (size 3 to 8) (size 9 to 14) (size 15 to 20)
#    0.667    1.111    5.556    0.667    3.111    0.889 
#    0.000    4.444   19.556    2.667    0.000    0.000 
#    0.000    0.000    0.000    0.000    0.000    0.000 
#
# Total GULP energy -100328.215924 kJ/mol
# GULP energy per Si atom -5573.789774 kJ/mol
# Density = 2.108712 g / cm^3
# Si number density = 21.135227 Si / 1000 Ang^3
#
#
#
# Elastic Constant Matrix: (Units=GPa)
#
#
# Indices 1 2 3 4 5 6 
#
# 1 92.9354 31.4368 33.4469 0.0000 0.0000 0.0000
# 2 31.4368 67.6056 16.3282 0.0000 0.0000 0.0000
# 3 33.4469 16.3282 146.1878 0.0000 0.0000 0.0000
# 4 0.0000 0.0000 0.0000 7.3485 0.0000 0.0000
# 5 0.0000 0.0000 0.0000 0.0000 10.4362 0.0000
# 6 0.0000 0.0000 0.0000 0.0000 0.0000 17.5617
#
#
#
# Elastic Compliance Matrix: (Units=1/GPa)
#
#
# Indices 1 2 3 4 5 6 
#
# 1 0.013584 -0.005720 -0.002469 0.000000 0.000000 0.000000
# 2 -0.005720 0.017611 -0.000658 0.000000 0.000000 0.000000
# 3 -0.002469 -0.000658 0.007479 0.000000 0.000000 0.000000
# 4 0.000000 0.000000 0.000000 0.136083 0.000000 0.000000
# 5 0.000000 0.000000 0.000000 0.000000 0.095821 0.000000
# 6 0.000000 0.000000 0.000000 0.000000 0.000000 0.056942
#
#
# Mechanical properties :
#
#
# Convention : Reuss Voigt Hill
#
# Bulk Modulus (GPa) = 47.66799 52.12806 49.89802
# Shear Modulus (GPa) = 14.19624 22.10373 18.14999
#
# Velocity S-wave (km/s) = 2.59450 3.23743 2.93363
# Velocity P-wave (km/s) = 5.61943 6.22031 5.92749
#
# Compressibility (1/GPa) = 0.02097844
#
# Stress axis : x y z
#
# Youngs Moduli (GPa) = 73.61794 56.78420 133.70907
#
# Poissons Ratio (x) = 0.32481 0.33012
# Poissons Ratio (y) = 0.42110 0.08801
# Poissons Ratio (z) = 0.18176 0.03738
#
# Static dielectric constant tensor:
#      x y z
#    x 1.927740 0.000000 0.000000 
#    y 0.000000 1.762800 0.000000 
#    z 0.000000 0.000000 1.755460 
# 
# From -- ./inp_files/55431.got.cif
#   From: 2010.05.17/outbox.cif.g08.bks.cpg/sg22_28_cif.got.tgz:55431.got - 2010.06.03 23:40:54.
