data_PCOD9326506
_publ_section_title
;
Structure prediction by ZEFSAII (Michael W. Deem and Ramdas Pophale) SiO2 
 PCOD9326506
Probable space group: F 2 2 2
;
_chemical_formula_sum "Si O2"
_cell_formula_units_Z 112
_cell_length_a 14.146174
_cell_length_b 14.766363
_cell_length_c 26.475384
_cell_angle_alpha 90.000000
_cell_angle_beta 90.000000
_cell_angle_gamma 90.000000
_cell_volume 5530.377843
_symmetry_space_group_name_H-M "F 2 2 2"
_symmetry_group_IT_number 22
_symmetry_cell_setting 'orthorhombic'
loop_
_space_group_symop_operation_xyz
x,y,z
-x,-y,z
x,-y,-z
-x,y,-z
x,1/2+y,1/2+z
-x,1/2-y,1/2+z
x,1/2-y,1/2-z
-x,1/2+y,1/2-z
1/2+x,y,1/2+z
1/2-x,-y,1/2+z
1/2+x,-y,1/2-z
1/2-x,y,1/2-z
1/2+x,1/2+y,z
1/2-x,1/2-y,z
1/2+x,1/2-y,-z
1/2-x,1/2+y,-z
loop_
_atom_site_type_symbol
_atom_site_label
_atom_site_fract_x
_atom_site_fract_y
_atom_site_fract_z
Si Si1 0.626927 0.941446 0.183100
Si Si2 0.747941 0.646779 0.895570
Si Si3 0.610174 0.495597 0.939590
Si Si4 0.568601 0.622857 0.646729
Si Si5 0.938602 0.655402 0.280053
Si Si6 0.701389 0.846252 0.372058
Si Si7 0.868208 0.696740 0.698396
O O1 0.541597 0.901208 0.147837
O O2 0.614588 0.906180 0.239655
O O3 0.722018 0.908589 0.157007
O O4 0.610497 0.048216 0.184738
O O5 0.750000 0.750000 0.915437
O O6 0.672096 0.580118 0.919658
O O7 0.856106 0.611455 0.898703
O O8 0.714436 0.656452 0.836338
O O9 0.500000 0.500000 0.923107
O O10 0.657823 0.404453 0.917570
O O11 0.612092 0.500000 0.000000
O O12 0.583359 0.725251 0.663916
O O13 0.946163 0.750000 0.250000
O O14 0.880226 0.669385 0.330681
O O15 0.046429 0.627196 0.291202
O O16 0.750000 0.750000 0.385047
O O17 0.844797 0.750000 0.750000
#
# Coordination Sequence:
#
# PCOD9326506 Si02
#       7
#    16  16  16  16  16  16  16
#     4  11  21  35  55  85 131 173 209 254 314 380
#     4  10  22  40  67  92 124 176 219 268 329 395
#     4  11  26  49  72  99 130 164 220 290 345 397
#     4  10  20  36  52  83 122 172 207 262 308 374
#     4  11  20  36  54  90 134 175 212 258 315 385
#     4  12  23  39  67  96 129 172 220 266 327 397
#     4  10  19  36  55  84 130 168 216 257 306 384
#
# _framework density 20.25178
#
# number of rings (size 3 to 8) (size 9 to 14) (size 15 to 20)
#    0.000    1.286    5.714    1.286    0.000    5.429 
#    5.143    0.000    0.000    1.714    0.000    0.000 
#    0.000    0.000    0.000    0.000    0.000    0.000 
#
# Total GULP energy -156156.088601 kJ/mol
# GULP energy per Si atom -5577.003164 kJ/mol
# Density = 2.020569 g / cm^3
# Si number density = 20.251780 Si / 1000 Ang^3
#
#
#
# Elastic Constant Matrix: (Units=GPa)
#
#
# Indices 1 2 3 4 5 6 
#
# 1 135.0956 29.7242 41.5870 0.0000 0.0000 0.0000
# 2 29.7242 64.1561 24.3716 0.0000 0.0000 0.0000
# 3 41.5870 24.3716 61.4361 0.0000 0.0000 0.0000
# 4 0.0000 0.0000 0.0000 22.1037 0.0000 0.0000
# 5 0.0000 0.0000 0.0000 0.0000 22.7989 0.0000
# 6 0.0000 0.0000 0.0000 0.0000 0.0000 27.7089
#
#
#
# Elastic Compliance Matrix: (Units=1/GPa)
#
#
# Indices 1 2 3 4 5 6 
#
# 1 0.009640 -0.002340 -0.005597 0.000000 0.000000 0.000000
# 2 -0.002340 0.018921 -0.005922 0.000000 0.000000 0.000000
# 3 -0.005597 -0.005922 0.022415 0.000000 0.000000 0.000000
# 4 0.000000 0.000000 0.000000 0.045241 0.000000 0.000000
# 5 0.000000 0.000000 0.000000 0.000000 0.043862 0.000000
# 6 0.000000 0.000000 0.000000 0.000000 0.000000 0.036089
#
#
# Mechanical properties :
#
#
# Convention : Reuss Voigt Hill
#
# Bulk Modulus (GPa) = 42.99647 50.22816 46.61232
# Shear Modulus (GPa) = 23.62513 25.52264 24.57389
#
# Velocity S-wave (km/s) = 3.41922 3.55387 3.48719
# Velocity P-wave (km/s) = 6.07166 6.45722 6.26741
#
# Compressibility (1/GPa) = 0.02325772
#
# Stress axis : x y z
#
# Youngs Moduli (GPa) = 103.73409 52.85199 44.61289
#
# Poissons Ratio (x) = 0.12368 0.24971
# Poissons Ratio (y) = 0.24275 0.26419
# Poissons Ratio (z) = 0.58062 0.31298
#
# Static dielectric constant tensor:
#      x y z
#    x 1.800050 0.000000 0.000000 
#    y 0.000000 1.753090 0.000000 
#    z 0.000000 0.000000 1.694570 
# 
# From -- ./inp_files/32511.got.cif
#   From: 2010.05.17/outbox.cif.g08.bks.cpg/sg22_17_cif.got.tgz:32511.got - 2010.06.03 23:40:54.
