data_PCOD9326742
_publ_section_title
;
Structure prediction by ZEFSAII (Michael W. Deem and Ramdas Pophale) SiO2 
 PCOD9326742
Probable space group: F 2 2 2
;
_chemical_formula_sum "Si O2"
_cell_formula_units_Z 80
_cell_length_a 35.179939
_cell_length_b 5.026857
_cell_length_c 20.673978
_cell_angle_alpha 90.000000
_cell_angle_beta 90.000000
_cell_angle_gamma 90.000000
_cell_volume 3656.079770
_symmetry_space_group_name_H-M "F 2 2 2"
_symmetry_group_IT_number 22
_symmetry_cell_setting 'orthorhombic'
loop_
_space_group_symop_operation_xyz
x,y,z
-x,-y,z
x,-y,-z
-x,y,-z
x,1/2+y,1/2+z
-x,1/2-y,1/2+z
x,1/2-y,1/2-z
-x,1/2+y,1/2-z
1/2+x,y,1/2+z
1/2-x,-y,1/2+z
1/2+x,-y,1/2-z
1/2-x,y,1/2-z
1/2+x,1/2+y,z
1/2-x,1/2-y,z
1/2+x,1/2-y,-z
1/2-x,1/2+y,-z
loop_
_atom_site_type_symbol
_atom_site_label
_atom_site_fract_x
_atom_site_fract_y
_atom_site_fract_z
Si Si1 0.226151 0.003207 0.422109
Si Si2 0.378424 0.036621 0.696407
Si Si3 0.360405 0.528485 0.620520
Si Si4 0.960342 0.579990 0.654161
Si Si5 0.441807 0.908201 0.928766
O O1 0.250000 0.250000 0.397272
O O2 0.182410 0.034413 0.403585
O O3 0.227249 0.000000 0.500000
O O4 0.250000 0.750000 0.398796
O O5 0.364507 0.250000 0.750000
O O6 0.368862 0.218388 0.634266
O O7 0.424134 0.021616 0.699466
O O8 0.364076 0.739555 0.680632
O O9 0.395772 0.611866 0.575615
O O10 0.957161 0.375555 0.593820
O O11 0.000000 0.500000 0.686397
O O12 0.955567 0.874384 0.624442
O O13 0.453001 0.000000 0.000000
#
# Coordination Sequence:
#
# PCOD9326742 Si02
#       5
#    16  16  16  16  16
#     4  10  20  34  56  87 119 148 176 213 269 330
#     4  10  21  38  58  78 102 142 189 232 280 320
#     4  10  20  36  57  80 110 142 183 229 266 324
#     4  10  21  35  51  77 108 138 181 231 277 328
#     4  10  20  33  52  77 108 147 181 215 268 333
#
# _framework density 21.881363
#
# number of rings (size 3 to 8) (size 9 to 14) (size 15 to 20)
#    0.000    2.000    0.000    3.600    0.000    2.400 
#    0.000   12.000    0.000    9.000    0.000    0.000 
#    0.000    0.000    0.000    0.000    0.000    0.000 
#
# Total GULP energy -111548.699735 kJ/mol
# GULP energy per Si atom -5577.434987 kJ/mol
# Density = 2.183156 g / cm^3
# Si number density = 21.881363 Si / 1000 Ang^3
#
#
#
# Elastic Constant Matrix: (Units=GPa)
#
#
# Indices 1 2 3 4 5 6 
#
# 1 156.4907 40.2805 -16.4814 -0.0012 -0.0011 -0.0009
# 2 40.2805 155.4156 8.6407 -0.0018 -0.0079 -0.0044
# 3 -16.4814 8.6407 20.1095 0.0020 -0.0028 -0.0019
# 4 -0.0012 -0.0018 0.0020 278.5652 -0.0132 0.0082
# 5 -0.0011 -0.0079 -0.0028 -0.0132 -5.6563 -0.0014
# 6 -0.0009 -0.0044 -0.0019 0.0082 -0.0014 26.5947
#
#
#
# Elastic Compliance Matrix: (Units=1/GPa)
#
#
# Indices 1 2 3 4 5 6 
#
# 1 0.007801 -0.002435 0.007440 0.000000 -0.000002 0.000000
# 2 -0.002435 0.007352 -0.005155 0.000000 -0.000007 0.000001
# 3 0.007440 -0.005155 0.058040 0.000000 -0.000022 0.000004
# 4 0.000000 0.000000 0.000000 0.003590 -0.000008 -0.000001
# 5 -0.000002 -0.000007 -0.000022 -0.000008 -0.176795 -0.000009
# 6 0.000000 0.000001 0.000004 -0.000001 -0.000009 0.037602
#
#
# Mechanical properties :
#
#
# Convention : Reuss Voigt Hill
#
# Bulk Modulus (GPa) = 13.71903 44.09948 28.90926
# Shear Modulus (GPa) = -132.23501 79.87245 -26.18128
#
# Velocity S-wave (km/s) = -7.78228 6.04828 -3.46281
# Velocity P-wave (km/s) = 8.62952 8.30502 1.65759
#
# Compressibility (1/GPa) = 0.07289145
#
# Stress axis : x y z
#
# Youngs Moduli (GPa) = 128.19602 136.01439 17.22940
#
# Poissons Ratio (x) = 0.33124 -0.12818
# Poissons Ratio (y) = 0.31220 0.08882
# Poissons Ratio (z) = -0.95373 0.70117
#
# Static dielectric constant tensor:
#      x y z
#    x 0.975840 -0.000050 -0.000040 
#    y -0.000050 1.771050 0.000000 
#    z -0.000040 0.000000 1.899210 
# 
# From -- ./inp_files/4783.got.cif
#   From: 2010.05.17/outbox.cif.g08.bks.cpg/sg22_3_cif.got.tgz:4783.got - 2010.06.03 23:40:54.
