data_PCOD9326453
_publ_section_title
;
Structure prediction by ZEFSAII (Michael W. Deem and Ramdas Pophale) SiO2 
 PCOD9326453
Probable space group: F 2 2 2
;
_chemical_formula_sum "Si O2"
_cell_formula_units_Z 56
_cell_length_a 17.185281
_cell_length_b 17.898367
_cell_length_c 7.299272
_cell_angle_alpha 90.000000
_cell_angle_beta 90.000000
_cell_angle_gamma 90.000000
_cell_volume 2245.171880
_symmetry_space_group_name_H-M "F 2 2 2"
_symmetry_group_IT_number 22
_symmetry_cell_setting 'orthorhombic'
loop_
_space_group_symop_operation_xyz
x,y,z
-x,-y,z
x,-y,-z
-x,y,-z
x,1/2+y,1/2+z
-x,1/2-y,1/2+z
x,1/2-y,1/2-z
-x,1/2+y,1/2-z
1/2+x,y,1/2+z
1/2-x,-y,1/2+z
1/2+x,-y,1/2-z
1/2-x,y,1/2-z
1/2+x,1/2+y,z
1/2-x,1/2-y,z
1/2+x,1/2-y,-z
1/2-x,1/2+y,-z
loop_
_atom_site_type_symbol
_atom_site_label
_atom_site_fract_x
_atom_site_fract_y
_atom_site_fract_z
Si Si1 0.909644 0.891953 0.499645
Si Si2 0.135815 0.076632 0.919586
Si Si3 0.791357 0.000000 0.500000
Si Si4 0.159718 0.739046 0.472046
O O1 0.885978 0.908157 0.710236
O O2 0.891209 0.806868 0.451808
O O3 0.000000 0.909027 0.500000
O O4 0.851345 0.946927 0.389333
O O5 0.126177 0.157004 0.015503
O O6 0.228182 0.059397 0.929209
O O7 0.099126 0.000000 0.000000
O O8 0.158665 0.750000 0.250000
O O9 0.250000 0.750000 0.527326
#
# Coordination Sequence:
#
# PCOD9326453 Si02
#       4
#    16  16   8  16
#     4  11  21  35  63 102 140 171 217 282 332 377
#     4   9  19  35  68  97 128 176 228 258 324 404
#     4  10  19  34  64  98 129 172 228 256 329 400
#     4   9  15  31  61  93 126 175 218 255 320 410
#
# _framework density 24.942409999999999
#
# number of rings (size 3 to 8) (size 9 to 14) (size 15 to 20)
#    0.857    1.429    2.857    1.286    0.000    0.000 
#    0.000    0.000   37.714    0.000    7.429    0.000 
#    0.000    0.000    0.000    0.000    0.000    0.000 
#
# Total GULP energy -78066.758671 kJ/mol
# GULP energy per Si atom -5576.197048 kJ/mol
# Density = 2.488564 g / cm^3
# Si number density = 24.942410 Si / 1000 Ang^3
#
#
#
# Elastic Constant Matrix: (Units=GPa)
#
#
# Indices 1 2 3 4 5 6 
#
# 1 153.9152 36.2783 2.1132 0.0001 0.0000 0.0000
# 2 36.2783 255.8944 28.9506 0.0000 0.0000 0.0001
# 3 2.1132 28.9506 63.6241 0.0001 -0.0001 -0.0001
# 4 0.0001 0.0000 0.0001 19.2714 0.0000 0.0000
# 5 0.0000 0.0000 -0.0001 0.0000 19.2866 0.0001
# 6 0.0000 0.0001 -0.0001 0.0000 0.0001 4.3580
#
#
#
# Elastic Compliance Matrix: (Units=1/GPa)
#
#
# Indices 1 2 3 4 5 6 
#
# 1 0.006725 -0.000978 0.000222 0.000000 0.000000 0.000000
# 2 -0.000978 0.004262 -0.001907 0.000000 0.000000 0.000000
# 3 0.000222 -0.001907 0.016578 0.000000 0.000000 0.000000
# 4 0.000000 0.000000 0.000000 0.051890 0.000000 0.000000
# 5 0.000000 0.000000 0.000000 0.000000 0.051850 -0.000001
# 6 0.000000 0.000000 0.000000 0.000000 -0.000001 0.229463
#
#
# Mechanical properties :
#
#
# Convention : Reuss Voigt Hill
#
# Bulk Modulus (GPa) = 44.96903 67.56867 56.26885
# Shear Modulus (GPa) = 13.38664 35.65598 24.52131
#
# Velocity S-wave (km/s) = 2.31920 3.78502 3.13887
# Velocity P-wave (km/s) = 5.02393 6.80077 5.97873
#
# Compressibility (1/GPa) = 0.02223752
#
# Stress axis : x y z
#
# Youngs Moduli (GPa) = 148.70629 234.61387 60.32217
#
# Poissons Ratio (x) = 0.22956 -0.01338
# Poissons Ratio (y) = 0.14550 0.11503
# Poissons Ratio (z) = -0.03299 0.44740
#
# Static dielectric constant tensor:
#      x y z
#    x 1.894970 0.000000 0.000000 
#    y 0.000000 2.050850 0.000000 
#    z 0.000000 0.000000 2.276030 
# 
# From -- ./inp_files/10937.got.cif
#   From: 2010.05.17/outbox.cif.g08.bks.cpg/sg22_6_cif.got.tgz:10937.got - 2010.06.03 23:40:54.
