data_PCOD9326577
_publ_section_title
;
Structure prediction by ZEFSAII (Michael W. Deem and Ramdas Pophale) SiO2 
 PCOD9326577
Probable space group: F 2 2 2
;
_chemical_formula_sum "Si O2"
_cell_formula_units_Z 104
_cell_length_a 20.917941
_cell_length_b 25.870450
_cell_length_c 8.495970
_cell_angle_alpha 90.000000
_cell_angle_beta 90.000000
_cell_angle_gamma 90.000000
_cell_volume 4597.649786
_symmetry_space_group_name_H-M "F 2 2 2"
_symmetry_group_IT_number 22
_symmetry_cell_setting 'orthorhombic'
loop_
_space_group_symop_operation_xyz
x,y,z
-x,-y,z
x,-y,-z
-x,y,-z
x,1/2+y,1/2+z
-x,1/2-y,1/2+z
x,1/2-y,1/2-z
-x,1/2+y,1/2-z
1/2+x,y,1/2+z
1/2-x,-y,1/2+z
1/2+x,-y,1/2-z
1/2-x,y,1/2-z
1/2+x,1/2+y,z
1/2-x,1/2-y,z
1/2+x,1/2-y,-z
1/2-x,1/2+y,-z
loop_
_atom_site_type_symbol
_atom_site_label
_atom_site_fract_x
_atom_site_fract_y
_atom_site_fract_z
Si Si1 0.709153 0.577601 0.383794
Si Si2 0.807010 0.346921 0.444004
Si Si3 0.838596 0.250000 0.250000
Si Si4 0.902666 0.134963 0.787750
Si Si5 0.985825 0.055094 0.184153
Si Si6 0.575672 0.684171 0.510852
Si Si7 0.360353 0.086380 0.825950
O O1 0.750000 0.548586 0.250000
O O2 0.751036 0.628022 0.446721
O O3 0.648628 0.595424 0.283000
O O4 0.681163 0.555907 0.546272
O O5 0.801404 0.290686 0.363522
O O6 0.873556 0.349413 0.543860
O O7 0.816007 0.383483 0.294426
O O8 0.885261 0.279589 0.127991
O O9 0.902134 0.183473 0.670319
O O10 0.970398 0.104980 0.774584
O O11 0.911196 0.058976 0.216804
O O12 0.000000 0.000000 0.264424
O O13 0.000000 0.051166 0.000000
O O14 0.500000 0.693136 0.500000
O O15 0.595839 0.627441 0.576624
#
# Coordination Sequence:
#
# PCOD9326577 Si02
#       7
#    16  16   8  16  16  16  16
#     4   9  20  37  61  87 118 168 220 257 311 390
#     4  10  20  39  61  88 123 172 221 269 318 387
#     4  10  24  36  57  92 118 172 225 278 320 374
#     4  10  20  38  63  90 127 170 207 260 341 402
#     4  11  22  38  67 105 134 160 209 276 332 408
#     4  10  20  36  54  84 128 165 215 259 328 400
#     4  10  19  37  63  91 124 169 208 256 337 399
#
# _framework density 22.620252000000001
#
# number of rings (size 3 to 8) (size 9 to 14) (size 15 to 20)
#    0.000    2.000    3.077    0.462    0.000    1.846 
#    0.000   20.000    0.000   24.923    0.000    0.000 
#    0.000    0.000    0.000    0.000    0.000    0.000 
#
# Total GULP energy -144775.177149 kJ/mol
# GULP energy per Si atom -5568.276044 kJ/mol
# Density = 2.256877 g / cm^3
# Si number density = 22.620252 Si / 1000 Ang^3
#
#
#
# Elastic Constant Matrix: (Units=GPa)
#
#
# Indices 1 2 3 4 5 6 
#
# 1 85.2089 3.1343 25.7862 0.0013 0.0000 0.0000
# 2 3.1343 53.4446 12.1536 0.0008 0.0000 0.0000
# 3 25.7862 12.1536 132.9728 0.0021 -0.0002 -0.0001
# 4 0.0013 0.0008 0.0021 -397.7846 -0.0017 -0.0010
# 5 0.0000 0.0000 -0.0002 -0.0017 53.1986 0.0000
# 6 0.0000 0.0000 -0.0001 -0.0010 0.0000 20.4184
#
#
#
# Elastic Compliance Matrix: (Units=1/GPa)
#
#
# Indices 1 2 3 4 5 6 
#
# 1 0.012469 -0.000185 -0.002401 0.000000 0.000000 0.000000
# 2 -0.000185 0.019111 -0.001711 0.000000 0.000000 0.000000
# 3 -0.002401 -0.001711 0.008142 0.000000 0.000000 0.000000
# 4 0.000000 0.000000 0.000000 -0.002514 0.000000 0.000000
# 5 0.000000 0.000000 0.000000 0.000000 0.018797 0.000000
# 6 0.000000 0.000000 0.000000 0.000000 0.000000 0.048976
#
#
# Mechanical properties :
#
#
# Convention : Reuss Voigt Hill
#
# Bulk Modulus (GPa) = 32.12523 39.30827 35.71675
# Shear Modulus (GPa) = 40.33821 -49.46337 -4.56258
#
# Velocity S-wave (km/s) = 4.22747 -4.68127 -1.42176
# Velocity P-wave (km/s) = 6.16940 3.43568 3.62337
#
# Compressibility (1/GPa) = 0.03112818
#
# Stress axis : x y z
#
# Youngs Moduli (GPa) = 80.19687 52.32627 122.81503
#
# Poissons Ratio (x) = 0.00969 0.29489
# Poissons Ratio (y) = 0.01486 0.21011
# Poissons Ratio (z) = 0.19256 0.08952
#
# Static dielectric constant tensor:
#      x y z
#    x 1.897070 0.000000 0.000000 
#    y 0.000000 1.882320 0.000000 
#    z 0.000000 0.000000 1.870710 
# 
# From -- ./inp_files/13071.got.cif
#   From: 2010.05.17/outbox.cif.g08.bks.cpg/sg22_7_cif.got.tgz:13071.got - 2010.06.03 23:40:54.
