data_PCOD9326306
_publ_section_title
;
Structure prediction by ZEFSAII (Michael W. Deem and Ramdas Pophale) SiO2 
 PCOD9326306
Probable space group: F 2 2 2
;
_chemical_formula_sum "Si O2"
_cell_formula_units_Z 80
_cell_length_a 11.413675
_cell_length_b 11.707525
_cell_length_c 26.893672
_cell_angle_alpha 90.000000
_cell_angle_beta 90.000000
_cell_angle_gamma 90.000000
_cell_volume 3593.690733
_symmetry_space_group_name_H-M "F 2 2 2"
_symmetry_group_IT_number 22
_symmetry_cell_setting 'orthorhombic'
loop_
_space_group_symop_operation_xyz
x,y,z
-x,-y,z
x,-y,-z
-x,y,-z
x,1/2+y,1/2+z
-x,1/2-y,1/2+z
x,1/2-y,1/2-z
-x,1/2+y,1/2-z
1/2+x,y,1/2+z
1/2-x,-y,1/2+z
1/2+x,-y,1/2-z
1/2-x,y,1/2-z
1/2+x,1/2+y,z
1/2-x,1/2-y,z
1/2+x,1/2-y,-z
1/2-x,1/2+y,-z
loop_
_atom_site_type_symbol
_atom_site_label
_atom_site_fract_x
_atom_site_fract_y
_atom_site_fract_z
Si Si1 0.976120 0.827629 0.846966
Si Si2 0.940752 0.733082 0.447643
Si Si3 0.145088 0.181806 0.302077
Si Si4 0.276771 0.560558 0.553515
Si Si5 0.201856 0.000404 0.839115
O O1 0.970726 0.811701 0.905971
O O2 0.021020 0.707369 0.825929
O O3 0.087268 0.914576 0.838335
O O4 0.858955 0.880818 0.825195
O O5 0.836873 0.641306 0.452067
O O6 0.883948 0.854657 0.434520
O O7 0.000000 0.744408 0.500000
O O8 0.137891 0.250000 0.250000
O O9 0.250000 0.250000 0.331218
O O10 0.196887 0.055218 0.304889
O O11 0.294896 0.500000 0.500000
O O12 0.250879 0.491814 0.604389
#
# Coordination Sequence:
#
# PCOD9326306 Si02
#       5
#    16  16  16  16  16
#     4   9  16  28  48  77 110 145 191 244 295 359
#     4  10  19  31  48  75 110 149 197 246 291 359
#     4   9  16  28  48  80 108 144 184 244 306 354
#     4  10  19  31  48  75 110 149 195 244 293 352
#     4   9  16  28  48  77 110 143 189 242 293 355
#
# _framework density 22.261237000000001
#
# number of rings (size 3 to 8) (size 9 to 14) (size 15 to 20)
#    0.000    2.600    2.000    1.200    0.000    2.400 
#    0.000    0.000    0.000    0.000   52.000    0.000 
#    0.000    0.000    0.000    0.000    0.000    0.000 
#
# Total GULP energy -111363.175170 kJ/mol
# GULP energy per Si atom -5568.158758 kJ/mol
# Density = 2.221057 g / cm^3
# Si number density = 22.261237 Si / 1000 Ang^3
#
#
#
# Elastic Constant Matrix: (Units=GPa)
#
#
# Indices 1 2 3 4 5 6 
#
# 1 50.3248 43.6903 32.4377 0.0000 0.0000 0.0000
# 2 43.6903 63.6998 25.8707 0.0000 0.0000 0.0000
# 3 32.4377 25.8707 84.3152 0.0000 0.0000 0.0000
# 4 0.0000 0.0000 0.0000 17.2858 0.0000 0.0000
# 5 0.0000 0.0000 0.0000 0.0000 11.7910 0.0000
# 6 0.0000 0.0000 0.0000 0.0000 0.0000 33.6302
#
#
#
# Elastic Compliance Matrix: (Units=1/GPa)
#
#
# Indices 1 2 3 4 5 6 
#
# 1 0.057361 -0.034705 -0.011419 0.000000 0.000000 0.000000
# 2 -0.034705 0.038931 0.001406 0.000000 0.000000 0.000000
# 3 -0.011419 0.001406 0.015822 0.000000 0.000000 0.000000
# 4 0.000000 0.000000 0.000000 0.057851 0.000000 0.000000
# 5 0.000000 0.000000 0.000000 0.000000 0.084810 0.000000
# 6 0.000000 0.000000 0.000000 0.000000 0.000000 0.029735
#
#
# Mechanical properties :
#
#
# Convention : Reuss Voigt Hill
#
# Bulk Modulus (GPa) = 44.09525 44.70413 44.39969
# Shear Modulus (GPa) = 13.10600 18.96415 16.03508
#
# Velocity S-wave (km/s) = 2.42902 2.92188 2.68678
# Velocity P-wave (km/s) = 5.26478 5.61323 5.44180
#
# Compressibility (1/GPa) = 0.02267818
#
# Stress axis : x y z
#
# Youngs Moduli (GPa) = 17.43348 25.68668 63.20339
#
# Poissons Ratio (x) = 0.89145 0.72174
# Poissons Ratio (y) = 0.60503 -0.08889
# Poissons Ratio (z) = 0.19908 -0.03613
#
# Static dielectric constant tensor:
#      x y z
#    x 1.824300 0.000000 0.000000 
#    y 0.000000 1.893320 0.000000 
#    z 0.000000 0.000000 1.874130 
# 
# From -- ./inp_files/55898.got.cif
#   From: 2010.05.17/outbox.cif.g08.bks.cpg/sg22_28_cif.got.tgz:55898.got - 2010.06.03 23:40:54.
