data_PCOD9326257
_publ_section_title
;
Structure prediction by ZEFSAII (Michael W. Deem and Ramdas Pophale) SiO2 
 PCOD9326257
Probable space group: F 2 2 2
;
_chemical_formula_sum "Si O2"
_cell_formula_units_Z 88
_cell_length_a 16.164594
_cell_length_b 27.482708
_cell_length_c 8.751399
_cell_angle_alpha 90.000000
_cell_angle_beta 90.000000
_cell_angle_gamma 90.000000
_cell_volume 3887.781149
_symmetry_space_group_name_H-M "F 2 2 2"
_symmetry_group_IT_number 22
_symmetry_cell_setting 'orthorhombic'
loop_
_space_group_symop_operation_xyz
x,y,z
-x,-y,z
x,-y,-z
-x,y,-z
x,1/2+y,1/2+z
-x,1/2-y,1/2+z
x,1/2-y,1/2-z
-x,1/2+y,1/2-z
1/2+x,y,1/2+z
1/2-x,-y,1/2+z
1/2+x,-y,1/2-z
1/2-x,y,1/2-z
1/2+x,1/2+y,z
1/2-x,1/2-y,z
1/2+x,1/2-y,-z
1/2-x,1/2+y,-z
loop_
_atom_site_type_symbol
_atom_site_label
_atom_site_fract_x
_atom_site_fract_y
_atom_site_fract_z
Si Si1 0.465574 0.250000 0.750000
Si Si2 0.057135 0.846143 0.851008
Si Si3 0.513246 0.054951 0.315972
Si Si4 0.810453 0.460953 0.373516
Si Si5 0.693820 0.791308 0.906976
Si Si6 0.260812 0.874406 0.579107
O O1 0.524323 0.203618 0.722080
O O2 0.396751 0.230161 0.872151
O O3 0.150863 0.846846 0.910141
O O4 0.039225 0.897935 0.764601
O O5 0.000000 0.849520 0.000000
O O6 0.500000 0.052150 0.500000
O O7 0.610390 0.063156 0.294545
O O8 0.500000 0.000000 0.254168
O O9 0.837512 0.500000 0.500000
O O10 0.750000 0.483815 0.250000
O O11 0.765446 0.418403 0.463096
O O12 0.750000 0.802494 0.750000
O O13 0.750000 0.750000 0.983191
O O14 0.693016 0.837289 0.016468
O O15 0.250000 0.892524 0.750000
#
# Coordination Sequence:
#
# PCOD9326257 Si02
#       6
#     8  16  16  16  16  16
#     4  10  23  38  65  92 128 170 246 276 329 392
#     4  11  21  39  65  91 127 182 231 267 331 420
#     4  10  18  38  69  97 124 168 227 263 323 413
#     4  12  24  41  71 103 133 170 221 274 335 401
#     4   9  20  39  62  88 126 171 218 273 334 391
#     4  12  25  40  62  95 136 171 219 274 341 390
#
# _framework density 22.635020000000001
#
# number of rings (size 3 to 8) (size 9 to 14) (size 15 to 20)
#    0.000    1.455    5.455    3.273    2.545    3.273 
#    0.000    0.000    0.000    2.727    0.000    0.000 
#    0.000    0.000    0.000    0.000    0.000    0.000 
#
# Total GULP energy -122678.015451 kJ/mol
# GULP energy per Si atom -5576.273430 kJ/mol
# Density = 2.258350 g / cm^3
# Si number density = 22.635020 Si / 1000 Ang^3
#
#
#
# Elastic Constant Matrix: (Units=GPa)
#
#
# Indices 1 2 3 4 5 6 
#
# 1 75.0151 13.1088 8.6653 0.0000 0.0000 0.0000
# 2 13.1088 170.5771 19.1698 0.0000 0.0000 0.0000
# 3 8.6653 19.1698 27.9283 0.0000 0.0000 0.0000
# 4 0.0000 0.0000 0.0000 -11.8621 0.0000 0.0000
# 5 0.0000 0.0000 0.0000 0.0000 6.0208 0.0000
# 6 0.0000 0.0000 0.0000 0.0000 0.0000 30.5439
#
#
#
# Elastic Compliance Matrix: (Units=1/GPa)
#
#
# Indices 1 2 3 4 5 6 
#
# 1 0.013889 -0.000632 -0.003876 0.000000 0.000000 0.000000
# 2 -0.000632 0.006381 -0.004184 0.000000 0.000000 0.000000
# 3 -0.003876 -0.004184 0.039880 0.000000 0.000000 0.000000
# 4 0.000000 0.000000 0.000000 -0.084302 0.000000 0.000000
# 5 0.000000 0.000000 0.000000 0.000000 0.166091 0.000000
# 6 0.000000 0.000000 0.000000 0.000000 0.000000 0.032740
#
#
# Mechanical properties :
#
#
# Convention : Reuss Voigt Hill
#
# Bulk Modulus (GPa) = 23.38220 39.48978 31.43599
# Shear Modulus (GPa) = 24.23452 20.44563 22.34008
#
# Velocity S-wave (km/s) = 3.27565 3.00871 3.14502
# Velocity P-wave (km/s) = 4.96579 5.43636 5.20639
#
# Compressibility (1/GPa) = 0.04276758
#
# Stress axis : x y z
#
# Youngs Moduli (GPa) = 72.00078 156.71005 25.07499
#
# Poissons Ratio (x) = 0.09901 0.09718
# Poissons Ratio (y) = 0.04549 0.10491
# Poissons Ratio (z) = 0.27904 0.65567
#
# Static dielectric constant tensor:
#      x y z
#    x 1.920260 0.000000 0.000000 
#    y 0.000000 1.894900 0.000000 
#    z 0.000000 0.000000 1.908530 
# 
# From -- ./inp_files/20135.got.cif
#   From: 2010.05.17/outbox.cif.g08.bks.cpg/sg22_11_cif.got.tgz:20135.got - 2010.06.03 23:40:54.
