data_PCOD9326529
_publ_section_title
;
Structure prediction by ZEFSAII (Michael W. Deem and Ramdas Pophale) SiO2 
 PCOD9326529
Probable space group: F 2 2 2
;
_chemical_formula_sum "Si O2"
_cell_formula_units_Z 108
_cell_length_a 19.335968
_cell_length_b 12.049119
_cell_length_c 20.867464
_cell_angle_alpha 90.000000
_cell_angle_beta 90.000000
_cell_angle_gamma 90.000000
_cell_volume 4861.730548
_symmetry_space_group_name_H-M "F 2 2 2"
_symmetry_group_IT_number 22
_symmetry_cell_setting 'orthorhombic'
loop_
_space_group_symop_operation_xyz
x,y,z
-x,-y,z
x,-y,-z
-x,y,-z
x,1/2+y,1/2+z
-x,1/2-y,1/2+z
x,1/2-y,1/2-z
-x,1/2+y,1/2-z
1/2+x,y,1/2+z
1/2-x,-y,1/2+z
1/2+x,-y,1/2-z
1/2-x,y,1/2-z
1/2+x,1/2+y,z
1/2-x,1/2-y,z
1/2+x,1/2-y,-z
1/2-x,1/2+y,-z
loop_
_atom_site_type_symbol
_atom_site_label
_atom_site_fract_x
_atom_site_fract_y
_atom_site_fract_z
Si Si1 0.655320 0.943542 0.296969
Si Si2 0.693107 0.340370 0.970916
Si Si3 0.376405 0.417585 0.556162
Si Si4 0.500000 0.263462 0.500000
Si Si5 0.725109 0.567989 0.903991
Si Si6 0.568680 0.201540 0.620130
Si Si7 0.750000 0.250000 0.750000
Si Si8 0.430456 0.553730 0.675595
O O1 0.692982 0.043919 0.334145
O O2 0.586777 0.901650 0.334606
O O3 0.703773 0.833669 0.292203
O O4 0.632136 0.965495 0.224630
O O5 0.750000 0.250000 0.977627
O O6 0.725008 0.444069 0.933315
O O7 0.635175 0.291737 0.925684
O O8 0.674725 0.373507 0.043901
O O9 0.354551 0.500000 0.500000
O O10 0.433991 0.338835 0.522368
O O11 0.302585 0.381977 0.588796
O O12 0.415178 0.487978 0.610503
O O13 0.511759 0.192918 0.564700
O O14 0.560701 0.315641 0.659715
O O15 0.500000 0.500000 0.703097
#
# Coordination Sequence:
#
# PCOD9326529 Si02
#       8
#    16  16  16   8  16  16   4  16
#     4  11  25  40  63  97 133 176 227 271 345 404
#     4  10  19  36  61  93 132 169 210 267 331 398
#     4  12  19  34  60  94 133 154 208 269 336 397
#     4  12  23  36  60 101 122 168 210 271 332 405
#     4  10  22  37  62  98 133 174 216 271 343 404
#     4  11  22  38  61  89 128 161 221 271 329 390
#     4  12  20  36  68 100 130 168 228 290 326 392
#     4  12  22  40  62  90 128 175 222 277 336 398
#
# _framework density 22.214310999999999
#
# number of rings (size 3 to 8) (size 9 to 14) (size 15 to 20)
#    0.000    0.889    5.926    2.889    4.148    0.000 
#    2.667    0.000    0.000    0.000    0.000    3.630 
#    0.000    0.000    0.000    0.000    0.000    0.000 
#
# Total GULP energy -150568.338642 kJ/mol
# GULP energy per Si atom -5576.605135 kJ/mol
# Density = 2.216375 g / cm^3
# Si number density = 22.214311 Si / 1000 Ang^3
#
#
#
# Elastic Constant Matrix: (Units=GPa)
#
#
# Indices 1 2 3 4 5 6 
#
# 1 73.8289 13.7466 18.3884 0.0000 0.0000 0.0000
# 2 13.7466 37.3436 10.3695 0.0000 0.0000 0.0000
# 3 18.3884 10.3695 100.4357 0.0000 0.0000 0.0000
# 4 0.0000 0.0000 0.0000 24.1563 0.0000 0.0000
# 5 0.0000 0.0000 0.0000 0.0000 65.0611 0.0000
# 6 0.0000 0.0000 0.0000 0.0000 0.0000 33.7104
#
#
#
# Elastic Compliance Matrix: (Units=1/GPa)
#
#
# Indices 1 2 3 4 5 6 
#
# 1 0.015017 -0.004905 -0.002243 0.000000 0.000000 0.000000
# 2 -0.004905 0.029171 -0.002114 0.000000 0.000000 0.000000
# 3 -0.002243 -0.002114 0.010586 0.000000 0.000000 0.000000
# 4 0.000000 0.000000 0.000000 0.041397 0.000000 0.000000
# 5 0.000000 0.000000 0.000000 0.000000 0.015370 0.000000
# 6 0.000000 0.000000 0.000000 0.000000 0.000000 0.029664
#
#
# Mechanical properties :
#
#
# Convention : Reuss Voigt Hill
#
# Bulk Modulus (GPa) = 27.58640 32.95749 30.27194
# Shear Modulus (GPa) = 29.10166 35.85913 32.48039
#
# Velocity S-wave (km/s) = 3.62338 4.02211 3.82794
# Velocity P-wave (km/s) = 5.47270 6.03641 5.76145
#
# Compressibility (1/GPa) = 0.03624975
#
# Stress axis : x y z
#
# Youngs Moduli (GPa) = 66.59214 34.28077 94.46876
#
# Poissons Ratio (x) = 0.16815 0.21189
# Poissons Ratio (y) = 0.32664 0.19968
# Poissons Ratio (z) = 0.14936 0.07246
#
# Static dielectric constant tensor:
#      x y z
#    x 1.913860 0.000000 0.000000 
#    y 0.000000 1.792060 0.000000 
#    z 0.000000 0.000000 1.746600 
# 
# From -- ./inp_files/45440.got.cif
#   From: 2010.05.17/outbox.cif.g08.bks.cpg/sg22_23_cif.got.tgz:45440.got - 2010.06.03 23:40:54.
