data_PCOD9326236
_publ_section_title
;
Structure prediction by ZEFSAII (Michael W. Deem and Ramdas Pophale) SiO2 
 PCOD9326236
Probable space group: F 2 2 2
;
_chemical_formula_sum "Si O2"
_cell_formula_units_Z 108
_cell_length_a 16.723919
_cell_length_b 11.013373
_cell_length_c 28.266989
_cell_angle_alpha 90.000000
_cell_angle_beta 90.000000
_cell_angle_gamma 90.000000
_cell_volume 5206.405061
_symmetry_space_group_name_H-M "F 2 2 2"
_symmetry_group_IT_number 22
_symmetry_cell_setting 'orthorhombic'
loop_
_space_group_symop_operation_xyz
x,y,z
-x,-y,z
x,-y,-z
-x,y,-z
x,1/2+y,1/2+z
-x,1/2-y,1/2+z
x,1/2-y,1/2-z
-x,1/2+y,1/2-z
1/2+x,y,1/2+z
1/2-x,-y,1/2+z
1/2+x,-y,1/2-z
1/2-x,y,1/2-z
1/2+x,1/2+y,z
1/2-x,1/2-y,z
1/2+x,1/2-y,-z
1/2-x,1/2+y,-z
loop_
_atom_site_type_symbol
_atom_site_label
_atom_site_fract_x
_atom_site_fract_y
_atom_site_fract_z
Si Si1 0.573345 0.313576 0.073175
Si Si2 0.350163 0.526814 0.151663
Si Si3 0.547010 0.750000 0.250000
Si Si4 0.156738 0.012787 0.253255
Si Si5 0.057841 0.276920 0.351379
Si Si6 0.591587 0.450071 0.451480
Si Si7 0.500000 0.500000 0.000000
Si Si8 0.167394 0.044716 0.355364
O O1 0.630333 0.371995 0.113012
O O2 0.496936 0.265044 0.102897
O O3 0.601388 0.194237 0.046635
O O4 0.550804 0.414949 0.034983
O O5 0.356267 0.568617 0.206738
O O6 0.411897 0.415357 0.146774
O O7 0.262745 0.469188 0.143673
O O8 0.602374 0.869025 0.252862
O O9 0.509819 0.749958 0.197590
O O10 0.250000 0.049234 0.250000
O O11 0.141763 0.973321 0.307177
O O12 0.131316 0.181087 0.350979
O O13 0.500000 0.500000 0.449977
O O14 0.627894 0.500000 0.500000
O O15 0.631756 0.492012 0.403071
#
# Coordination Sequence:
#
# PCOD9326236 Si02
#       8
#    16  16   8  16  16  16   4  16
#     4  12  24  41  66  91 123 162 209 263 326 383
#     4  10  20  37  61  96 133 161 204 265 314 372
#     4   8  15  26  54  86 124 161 206 246 294 356
#     4   8  15  30  55  87 126 167 200 243 308 375
#     4  10  18  37  59  95 126 167 206 256 308 373
#     4  11  24  44  65  85 117 163 214 266 313 381
#     4  12  24  44  66  88 116 168 198 250 334 388
#     4  10  20  38  64  92 125 171 215 249 307 376
#
# _framework density 20.743679
#
# number of rings (size 3 to 8) (size 9 to 14) (size 15 to 20)
#    0.000    1.926    2.963    1.556    0.000    4.148 
#    4.000    0.000    0.000    2.667    0.000    0.000 
#    0.000    0.000    0.000    0.000    0.000    0.000 
#
# Total GULP energy -150511.744753 kJ/mol
# GULP energy per Si atom -5574.509065 kJ/mol
# Density = 2.069647 g / cm^3
# Si number density = 20.743679 Si / 1000 Ang^3
#
#
#
# Elastic Constant Matrix: (Units=GPa)
#
#
# Indices 1 2 3 4 5 6 
#
# 1 39.0008 13.3310 25.9684 0.0000 0.0000 0.0000
# 2 13.3310 91.1023 52.0089 0.0000 0.0000 0.0000
# 3 25.9684 52.0089 188.6991 0.0000 0.0000 0.0000
# 4 0.0000 0.0000 0.0000 9.4100 0.0000 0.0000
# 5 0.0000 0.0000 0.0000 0.0000 27.3831 0.0000
# 6 0.0000 0.0000 0.0000 0.0000 0.0000 196.6429
#
#
#
# Elastic Compliance Matrix: (Units=1/GPa)
#
#
# Indices 1 2 3 4 5 6 
#
# 1 0.028628 -0.002302 -0.003305 0.000000 0.000000 0.000000
# 2 -0.002302 0.013211 -0.003324 0.000000 0.000000 0.000000
# 3 -0.003305 -0.003324 0.006671 0.000000 0.000000 0.000000
# 4 0.000000 0.000000 0.000000 0.106270 0.000000 0.000000
# 5 0.000000 0.000000 0.000000 0.000000 0.036519 0.000000
# 6 0.000000 0.000000 0.000000 0.000000 0.000000 0.005085
#
#
# Mechanical properties :
#
#
# Convention : Reuss Voigt Hill
#
# Bulk Modulus (GPa) = 32.63037 55.71321 44.17179
# Shear Modulus (GPa) = 22.27531 61.85346 42.06439
#
# Velocity S-wave (km/s) = 3.28050 5.46651 4.50801
# Velocity P-wave (km/s) = 5.48756 8.17067 6.95964
#
# Compressibility (1/GPa) = 0.03064630
#
# Stress axis : x y z
#
# Youngs Moduli (GPa) = 34.93061 75.69183 149.91179
#
# Poissons Ratio (x) = 0.17426 0.49549
# Poissons Ratio (y) = 0.08042 0.49838
# Poissons Ratio (z) = 0.11545 0.25164
#
# Static dielectric constant tensor:
#      x y z
#    x 1.752170 0.000000 0.000000 
#    y 0.000000 1.738340 0.000000 
#    z 0.000000 0.000000 1.511980 
# 
# From -- ./inp_files/49989.got.cif
#   From: 2010.05.17/outbox.cif.g08.bks.cpg/sg22_25_cif.got.tgz:49989.got - 2010.06.03 23:40:54.
