data_PCOD9326841
_publ_section_title
;
Structure prediction by ZEFSAII (Michael W. Deem and Ramdas Pophale) SiO2 
 PCOD9326841
Probable space group: F 2 2 2
;
_chemical_formula_sum "Si O2"
_cell_formula_units_Z 108
_cell_length_a 22.648646
_cell_length_b 19.217496
_cell_length_c 12.287128
_cell_angle_alpha 90.000000
_cell_angle_beta 90.000000
_cell_angle_gamma 90.000000
_cell_volume 5347.975705
_symmetry_space_group_name_H-M "F 2 2 2"
_symmetry_group_IT_number 22
_symmetry_cell_setting 'orthorhombic'
loop_
_space_group_symop_operation_xyz
x,y,z
-x,-y,z
x,-y,-z
-x,y,-z
x,1/2+y,1/2+z
-x,1/2-y,1/2+z
x,1/2-y,1/2-z
-x,1/2+y,1/2-z
1/2+x,y,1/2+z
1/2-x,-y,1/2+z
1/2+x,-y,1/2-z
1/2-x,y,1/2-z
1/2+x,1/2+y,z
1/2-x,1/2-y,z
1/2+x,1/2-y,-z
1/2-x,1/2+y,-z
loop_
_atom_site_type_symbol
_atom_site_label
_atom_site_fract_x
_atom_site_fract_y
_atom_site_fract_z
Si Si1 0.888129 0.558351 0.800443
Si Si2 0.500000 0.735077 0.000000
Si Si3 0.118467 0.896036 0.684827
Si Si4 0.325832 0.928570 0.428317
Si Si5 0.500000 0.000000 0.500000
Si Si6 0.492480 0.135429 0.883013
Si Si7 0.417346 0.380184 0.082516
Si Si8 0.304043 0.084160 0.989114
O O1 0.897345 0.477614 0.829102
O O2 0.846174 0.558455 0.694885
O O3 0.951470 0.595852 0.797770
O O4 0.853460 0.596111 0.898142
O O5 0.467457 0.789609 0.080233
O O6 0.540478 0.685613 0.072675
O O7 0.124769 0.883473 0.812893
O O8 0.172914 0.884526 0.603146
O O9 0.059204 0.854710 0.656014
O O10 0.375897 0.879999 0.477885
O O11 0.260915 0.897437 0.446595
O O12 0.328594 0.000000 0.500000
O O13 0.458443 0.949428 0.571870
O O14 0.500000 0.096162 0.000000
O O15 0.301587 0.000000 0.000000
#
# Coordination Sequence:
#
# PCOD9326841 Si02
#       8
#    16   8  16  16   4  16  16  16
#     4  11  20  36  61  93 123 163 202 254 314 369
#     4   9  24  43  55  86 127 168 204 254 313 378
#     4  11  21  34  61  93 121 163 202 255 310 374
#     4  11  21  37  56  88 127 162 200 251 312 376
#     4  10  20  36  52  88 124 160 202 250 320 380
#     4  10  22  40  59  86 123 161 210 254 306 376
#     4  11  22  37  58  85 126 162 201 251 310 378
#     4   9  20  34  55  87 127 160 200 247 306 373
#
# _framework density 20.194555999999999
#
# number of rings (size 3 to 8) (size 9 to 14) (size 15 to 20)
#    0.444    1.185    3.704    0.889    6.222    1.778 
#    0.000    0.000    0.000    3.556    0.000    8.296 
#    0.000    0.000    0.000    0.000    0.000    0.000 
#
# Total GULP energy -150465.715776 kJ/mol
# GULP energy per Si atom -5572.804288 kJ/mol
# Density = 2.014859 g / cm^3
# Si number density = 20.194556 Si / 1000 Ang^3
#
#
#
# Elastic Constant Matrix: (Units=GPa)
#
#
# Indices 1 2 3 4 5 6 
#
# 1 84.5652 18.0218 18.4797 0.0000 0.0000 0.0000
# 2 18.0218 57.4111 15.6434 0.0000 0.0000 0.0000
# 3 18.4797 15.6434 81.8777 0.0000 0.0000 0.0000
# 4 0.0000 0.0000 0.0000 15.6304 0.0000 0.0000
# 5 0.0000 0.0000 0.0000 0.0000 33.0189 0.0000
# 6 0.0000 0.0000 0.0000 0.0000 0.0000 9.7281
#
#
#
# Elastic Compliance Matrix: (Units=1/GPa)
#
#
# Indices 1 2 3 4 5 6 
#
# 1 0.013066 -0.003479 -0.002284 0.000000 0.000000 0.000000
# 2 -0.003479 0.019301 -0.002902 0.000000 0.000000 0.000000
# 3 -0.002284 -0.002902 0.013283 0.000000 0.000000 0.000000
# 4 0.000000 0.000000 0.000000 0.063978 0.000000 0.000000
# 5 0.000000 0.000000 0.000000 0.000000 0.030286 0.000000
# 6 0.000000 0.000000 0.000000 0.000000 0.000000 0.102795
#
#
# Mechanical properties :
#
#
# Convention : Reuss Voigt Hill
#
# Bulk Modulus (GPa) = 35.31202 36.46043 35.88623
# Shear Modulus (GPa) = 18.55425 23.12275 20.83850
#
# Velocity S-wave (km/s) = 3.03442 3.38745 3.21578
# Velocity P-wave (km/s) = 5.45901 5.77872 5.62114
#
# Compressibility (1/GPa) = 0.02831897
#
# Stress axis : x y z
#
# Youngs Moduli (GPa) = 76.53581 51.81026 75.28182
#
# Poissons Ratio (x) = 0.18025 0.17196
# Poissons Ratio (y) = 0.26627 0.21850
# Poissons Ratio (z) = 0.17483 0.15038
#
# Static dielectric constant tensor:
#      x y z
#    x 1.750180 0.000000 0.000000 
#    y 0.000000 1.725440 0.000000 
#    z 0.000000 0.000000 1.826460 
# 
# From -- ./inp_files/23979.got.cif
#   From: 2010.05.17/outbox.cif.g08.bks.cpg/sg22_12_cif.got.tgz:23979.got - 2010.06.03 23:40:54.
