data_PCOD9326871
_publ_section_title
;
Structure prediction by ZEFSAII (Michael W. Deem and Ramdas Pophale) SiO2 
 PCOD9326871
Probable space group: F 2 2 2
;
_chemical_formula_sum "Si O2"
_cell_formula_units_Z 112
_cell_length_a 11.938888
_cell_length_b 14.793441
_cell_length_c 28.737216
_cell_angle_alpha 90.000000
_cell_angle_beta 90.000000
_cell_angle_gamma 90.000000
_cell_volume 5075.487638
_symmetry_space_group_name_H-M "F 2 2 2"
_symmetry_group_IT_number 22
_symmetry_cell_setting 'orthorhombic'
loop_
_space_group_symop_operation_xyz
x,y,z
-x,-y,z
x,-y,-z
-x,y,-z
x,1/2+y,1/2+z
-x,1/2-y,1/2+z
x,1/2-y,1/2-z
-x,1/2+y,1/2-z
1/2+x,y,1/2+z
1/2-x,-y,1/2+z
1/2+x,-y,1/2-z
1/2-x,y,1/2-z
1/2+x,1/2+y,z
1/2-x,1/2-y,z
1/2+x,1/2-y,-z
1/2-x,1/2+y,-z
loop_
_atom_site_type_symbol
_atom_site_label
_atom_site_fract_x
_atom_site_fract_y
_atom_site_fract_z
Si Si1 0.907811 0.619468 0.750689
Si Si2 0.172796 0.463502 0.115091
Si Si3 0.965608 0.641832 0.902254
Si Si4 0.126907 0.530300 0.446677
Si Si5 0.375454 0.269196 0.976528
Si Si6 0.651149 0.916334 0.221295
Si Si7 0.367581 0.244564 0.670768
O O1 0.869631 0.517584 0.758463
O O2 0.846066 0.683247 0.787673
O O3 0.896028 0.653134 0.697921
O O4 0.034708 0.630949 0.768044
O O5 0.104817 0.558026 0.118169
O O6 0.286643 0.483251 0.088293
O O7 0.180977 0.426279 0.167332
O O8 0.089529 0.395084 0.088174
O O9 0.903272 0.680685 0.946595
O O10 0.962678 0.720011 0.863501
O O11 0.150985 0.500000 0.500000
O O12 0.138196 0.638766 0.446673
O O13 0.000000 0.500000 0.436217
O O14 0.250000 0.250000 0.998731
O O15 0.500000 0.285778 0.000000
O O16 0.750000 0.872612 0.250000
O O17 0.250000 0.250000 0.643674
#
# Coordination Sequence:
#
# PCOD9326871 Si02
#       7
#    16  16  16  16  16  16  16
#     4  10  20  36  59  87 120 168 226 277 337 386
#     4  11  23  44  68 101 141 178 232 283 351 413
#     4  11  23  41  71 102 135 176 228 294 340 413
#     4  11  25  50  75 100 142 184 224 286 357 426
#     4  12  26  46  74 110 142 181 232 289 353 427
#     4  11  21  40  60  87 131 180 223 282 337 411
#     4  11  20  35  62  92 123 166 225 285 335 387
#
# _framework density 22.066845000000001
#
# number of rings (size 3 to 8) (size 9 to 14) (size 15 to 20)
#    0.000    1.000    5.714    3.000    2.000    0.000 
#    5.143    2.857    0.000    0.000    0.000    0.000 
#    0.000    0.000    0.000    0.000    0.000    0.000 
#
# Total GULP energy -156291.765595 kJ/mol
# GULP energy per Si atom -5581.848771 kJ/mol
# Density = 2.201662 g / cm^3
# Si number density = 22.066845 Si / 1000 Ang^3
#
#
#
# Elastic Constant Matrix: (Units=GPa)
#
#
# Indices 1 2 3 4 5 6 
#
# 1 194.0275 23.0587 67.8297 0.0000 0.0000 0.0000
# 2 23.0587 48.1831 6.4225 0.0000 0.0000 0.0000
# 3 67.8297 6.4225 65.2424 0.0000 0.0000 0.0000
# 4 0.0000 0.0000 0.0000 2.9557 0.0000 0.0000
# 5 0.0000 0.0000 0.0000 0.0000 36.2927 0.0000
# 6 0.0000 0.0000 0.0000 0.0000 0.0000 35.8234
#
#
#
# Elastic Compliance Matrix: (Units=1/GPa)
#
#
# Indices 1 2 3 4 5 6 
#
# 1 0.008484 -0.002923 -0.008533 0.000000 0.000000 0.000000
# 2 -0.002923 0.022037 0.000869 0.000000 0.000000 0.000000
# 3 -0.008533 0.000869 0.024113 0.000000 0.000000 0.000000
# 4 0.000000 0.000000 0.000000 0.338334 0.000000 0.000000
# 5 0.000000 0.000000 0.000000 0.000000 0.027554 0.000000
# 6 0.000000 0.000000 0.000000 0.000000 0.000000 0.027915
#
#
# Mechanical properties :
#
#
# Convention : Reuss Voigt Hill
#
# Bulk Modulus (GPa) = 29.88490 55.78608 42.83549
# Shear Modulus (GPa) = 10.40012 29.02384 19.71198
#
# Velocity S-wave (km/s) = 2.17330 3.63060 2.99203
# Velocity P-wave (km/s) = 4.45757 6.55060 5.60269
#
# Compressibility (1/GPa) = 0.03346172
#
# Stress axis : x y z
#
# Youngs Moduli (GPa) = 117.86443 45.37815 41.47091
#
# Poissons Ratio (x) = 0.13264 0.35387
# Poissons Ratio (y) = 0.34450 -0.03606
# Poissons Ratio (z) = 1.00574 -0.03946
#
# Static dielectric constant tensor:
#      x y z
#    x 2.043090 0.000000 0.000000 
#    y 0.000000 1.831850 0.000000 
#    z 0.000000 0.000000 1.469640 
# 
# From -- ./inp_files/56086.got.cif
#   From: 2010.05.17/outbox.cif.g08.bks.cpg/sg22_29_cif.got.tgz:56086.got - 2010.06.03 23:40:54.
