data_PCOD9326920
_publ_section_title
;
Structure prediction by ZEFSAII (Michael W. Deem and Ramdas Pophale) SiO2 
 PCOD9326920
Probable space group: F 2 2 2
;
_chemical_formula_sum "Si O2"
_cell_formula_units_Z 88
_cell_length_a 8.320078
_cell_length_b 30.220432
_cell_length_c 14.091212
_cell_angle_alpha 90.000000
_cell_angle_beta 90.000000
_cell_angle_gamma 90.000000
_cell_volume 3543.042933
_symmetry_space_group_name_H-M "F 2 2 2"
_symmetry_group_IT_number 22
_symmetry_cell_setting 'orthorhombic'
loop_
_space_group_symop_operation_xyz
x,y,z
-x,-y,z
x,-y,-z
-x,y,-z
x,1/2+y,1/2+z
-x,1/2-y,1/2+z
x,1/2-y,1/2-z
-x,1/2+y,1/2-z
1/2+x,y,1/2+z
1/2-x,-y,1/2+z
1/2+x,-y,1/2-z
1/2-x,y,1/2-z
1/2+x,1/2+y,z
1/2-x,1/2-y,z
1/2+x,1/2-y,-z
1/2-x,1/2+y,-z
loop_
_atom_site_type_symbol
_atom_site_label
_atom_site_fract_x
_atom_site_fract_y
_atom_site_fract_z
Si Si1 0.232184 0.150547 0.476884
Si Si2 0.902737 0.538457 0.310889
Si Si3 0.951095 0.873785 0.861348
Si Si4 0.422892 0.287391 0.800450
Si Si5 0.750000 0.750000 0.978223
Si Si6 0.261290 0.000000 0.000000
Si Si7 0.000000 0.577921 0.000000
O O1 0.395662 0.136807 0.426415
O O2 0.283844 0.138265 0.586118
O O3 0.200375 0.203562 0.470727
O O4 0.101179 0.114951 0.441543
O O5 0.750000 0.552948 0.250000
O O6 0.029315 0.577029 0.328590
O O7 0.838940 0.519365 0.411608
O O8 0.000000 0.500000 0.258490
O O9 0.982445 0.836215 0.784560
O O10 0.525145 0.250000 0.750000
O O11 0.250000 0.289611 0.750000
O O12 0.389011 0.269484 0.907046
O O13 0.367913 0.042100 0.964758
#
# Coordination Sequence:
#
# PCOD9326920 Si02
#       7
#    16  16  16  16   8   8   8
#     4  10  20  36  64  97 124 177 216 283 337 407
#     4  12  28  47  71 100 135 180 232 286 349 417
#     4  10  21  41  62  93 131 169 224 270 345 407
#     4   8  16  35  60  89 124 180 215 269 332 399
#     4   8  17  34  56  94 133 160 234 262 328 404
#     4  11  25  48  72  97 135 182 226 295 349 412
#     4  11  22  38  72  92 126 168 234 271 354 396
#
# _framework density 24.837406000000001
#
# number of rings (size 3 to 8) (size 9 to 14) (size 15 to 20)
#    0.000    2.182    1.818    1.364    5.091    3.636 
#    9.818    1.818    0.000    0.000    0.000    1.273 
#    0.000    0.000    0.000    0.000    0.000    0.000 
#
# Total GULP energy -122498.169474 kJ/mol
# GULP energy per Si atom -5568.098612 kJ/mol
# Density = 2.478088 g / cm^3
# Si number density = 24.837406 Si / 1000 Ang^3
#
#
#
# Elastic Constant Matrix: (Units=GPa)
#
#
# Indices 1 2 3 4 5 6 
#
# 1 65.1596 27.6153 -0.9492 0.0000 0.0000 0.0000
# 2 27.6153 240.2420 11.5238 0.0000 0.0000 0.0000
# 3 -0.9492 11.5238 35.5025 0.0000 0.0000 0.0000
# 4 0.0000 0.0000 0.0000 35.2706 0.0000 0.0000
# 5 0.0000 0.0000 0.0000 0.0000 9.8516 0.0000
# 6 0.0000 0.0000 0.0000 0.0000 0.0000 60.3107
#
#
#
# Elastic Compliance Matrix: (Units=1/GPa)
#
#
# Indices 1 2 3 4 5 6 
#
# 1 0.016171 -0.001909 0.001052 0.000000 0.000000 0.000000
# 2 -0.001909 0.004454 -0.001497 0.000000 0.000000 0.000000
# 3 0.001052 -0.001497 0.028681 0.000000 0.000000 0.000000
# 4 0.000000 0.000000 0.000000 0.028352 0.000000 0.000000
# 5 0.000000 0.000000 0.000000 0.000000 0.101506 0.000000
# 6 0.000000 0.000000 0.000000 0.000000 0.000000 0.016581
#
#
# Mechanical properties :
#
#
# Convention : Reuss Voigt Hill
#
# Bulk Modulus (GPa) = 22.42236 46.36489 34.39362
# Shear Modulus (GPa) = 23.22134 41.26754 32.24444
#
# Velocity S-wave (km/s) = 3.06099 4.08058 3.60699
# Velocity P-wave (km/s) = 4.64113 6.39605 5.58791
#
# Compressibility (1/GPa) = 0.04459834
#
# Stress axis : x y z
#
# Youngs Moduli (GPa) = 61.83729 224.53055 34.86634
#
# Poissons Ratio (x) = 0.42871 -0.03668
# Poissons Ratio (y) = 0.11807 0.05218
# Poissons Ratio (z) = -0.06506 0.33605
#
# Static dielectric constant tensor:
#      x y z
#    x 1.824930 0.000000 0.000000 
#    y 0.000000 2.132390 0.000000 
#    z 0.000000 0.000000 1.969310 
# 
# From -- ./inp_files/35282.got.cif
#   From: 2010.05.17/outbox.cif.g08.bks.cpg/sg22_18_cif.got.tgz:35282.got - 2010.06.03 23:40:54.
