data_PCOD9326917
_publ_section_title
;
Structure prediction by ZEFSAII (Michael W. Deem and Ramdas Pophale) SiO2 
 PCOD9326917
Probable space group: F 2 2 2
;
_chemical_formula_sum "Si O2"
_cell_formula_units_Z 108
_cell_length_a 29.847638
_cell_length_b 15.182192
_cell_length_c 12.885077
_cell_angle_alpha 90.000000
_cell_angle_beta 90.000000
_cell_angle_gamma 90.000000
_cell_volume 5838.905768
_symmetry_space_group_name_H-M "F 2 2 2"
_symmetry_group_IT_number 22
_symmetry_cell_setting 'orthorhombic'
loop_
_space_group_symop_operation_xyz
x,y,z
-x,-y,z
x,-y,-z
-x,y,-z
x,1/2+y,1/2+z
-x,1/2-y,1/2+z
x,1/2-y,1/2-z
-x,1/2+y,1/2-z
1/2+x,y,1/2+z
1/2-x,-y,1/2+z
1/2+x,-y,1/2-z
1/2-x,y,1/2-z
1/2+x,1/2+y,z
1/2-x,1/2-y,z
1/2+x,1/2-y,-z
1/2-x,1/2+y,-z
loop_
_atom_site_type_symbol
_atom_site_label
_atom_site_fract_x
_atom_site_fract_y
_atom_site_fract_z
Si Si1 0.428972 0.516717 0.342096
Si Si2 0.000000 0.500000 0.000000
Si Si3 0.200070 0.141221 0.370595
Si Si4 0.350201 0.000000 0.000000
Si Si5 0.693760 0.648567 0.133742
Si Si6 0.544941 0.151096 0.711909
Si Si7 0.440506 0.336805 0.820657
Si Si8 0.106706 0.601898 0.521118
O O1 0.466511 0.551421 0.423651
O O2 0.383071 0.517577 0.403963
O O3 0.445707 0.421233 0.301866
O O4 0.425043 0.579411 0.244989
O O5 0.178010 0.083126 0.460183
O O6 0.253630 0.128182 0.378981
O O7 0.190295 0.245401 0.376795
O O8 0.183805 0.118843 0.252869
O O9 0.658979 0.610234 0.051157
O O10 0.552164 0.250000 0.750000
O O11 0.494102 0.147966 0.668000
O O12 0.579649 0.130855 0.622017
O O13 0.434488 0.250000 0.750000
O O14 0.412172 0.339485 0.926204
O O15 0.096190 0.500000 0.500000
#
# Coordination Sequence:
#
# PCOD9326917 Si02
#       8
#    16   4  16   8  16  16  16  16
#     4  11  22  40  59  90 124 164 209 261 310 365
#     4  10  20  36  64  74 128 162 204 264 314 358
#     4   9  20  42  65  93 127 156 205 260 309 367
#     4  11  24  33  64  96 118 160 203 256 313 362
#     4   9  21  41  67  92 123 163 202 257 310 374
#     4  11  24  42  65  89 123 168 218 259 305 367
#     4  11  25  43  60  88 129 168 210 259 312 374
#     4  12  25  38  67  93 126 167 209 256 319 372
#
# _framework density 18.496616
#
# number of rings (size 3 to 8) (size 9 to 14) (size 15 to 20)
#    0.000    1.481    2.963    2.222    7.259    1.778 
#    0.000    0.000    0.000    0.000    0.000    0.000 
#    0.000    0.000    0.000    0.000    0.000    0.000 
#
# Total GULP energy -150621.066931 kJ/mol
# GULP energy per Si atom -5578.558034 kJ/mol
# Density = 1.845452 g / cm^3
# Si number density = 18.496616 Si / 1000 Ang^3
#
#
#
# Elastic Constant Matrix: (Units=GPa)
#
#
# Indices 1 2 3 4 5 6 
#
# 1 79.8042 36.8902 51.1259 0.0000 0.0000 0.0000
# 2 36.8902 75.3504 30.1383 0.0000 0.0000 0.0000
# 3 51.1259 30.1383 88.5801 0.0000 0.0000 0.0000
# 4 0.0000 0.0000 0.0000 25.1018 0.0000 0.0000
# 5 0.0000 0.0000 0.0000 0.0000 46.9650 0.0000
# 6 0.0000 0.0000 0.0000 0.0000 0.0000 19.8636
#
#
#
# Elastic Compliance Matrix: (Units=1/GPa)
#
#
# Indices 1 2 3 4 5 6 
#
# 1 0.022494 -0.006736 -0.010691 0.000000 0.000000 0.000000
# 2 -0.006736 0.017379 -0.002025 0.000000 0.000000 0.000000
# 3 -0.010691 -0.002025 0.018149 0.000000 0.000000 0.000000
# 4 0.000000 0.000000 0.000000 0.039838 0.000000 0.000000
# 5 0.000000 0.000000 0.000000 0.000000 0.021292 0.000000
# 6 0.000000 0.000000 0.000000 0.000000 0.000000 0.050343
#
#
# Mechanical properties :
#
#
# Convention : Reuss Voigt Hill
#
# Bulk Modulus (GPa) = 52.30891 53.33816 52.82353
# Shear Modulus (GPa) = 23.28054 26.75809 25.01931
#
# Velocity S-wave (km/s) = 3.55158 3.80761 3.68182
# Velocity P-wave (km/s) = 6.72011 6.94477 6.83336
#
# Compressibility (1/GPa) = 0.01911720
#
# Stress axis : x y z
#
# Youngs Moduli (GPa) = 44.45725 57.53959 55.10086
#
# Poissons Ratio (x) = 0.38761 0.58906
# Poissons Ratio (y) = 0.29948 0.11158
# Poissons Ratio (z) = 0.47528 0.11652
#
# Static dielectric constant tensor:
#      x y z
#    x 1.664490 0.000000 0.000000 
#    y 0.000000 1.632340 0.000000 
#    z 0.000000 0.000000 1.687420 
# 
# From -- ./inp_files/25430.got.cif
#   From: 2010.05.17/outbox.cif.g08.bks.cpg/sg22_13_cif.got.tgz:25430.got - 2010.06.03 23:40:54.
