data_PCOD9326978
_publ_section_title
;
Structure prediction by ZEFSAII (Michael W. Deem and Ramdas Pophale) SiO2 
 PCOD9326978
Probable space group: F 2 2 2
;
_chemical_formula_sum "Si O2"
_cell_formula_units_Z 88
_cell_length_a 11.636567
_cell_length_b 11.303964
_cell_length_c 28.790713
_cell_angle_alpha 90.000000
_cell_angle_beta 90.000000
_cell_angle_gamma 90.000000
_cell_volume 3787.111226
_symmetry_space_group_name_H-M "F 2 2 2"
_symmetry_group_IT_number 22
_symmetry_cell_setting 'orthorhombic'
loop_
_space_group_symop_operation_xyz
x,y,z
-x,-y,z
x,-y,-z
-x,y,-z
x,1/2+y,1/2+z
-x,1/2-y,1/2+z
x,1/2-y,1/2-z
-x,1/2+y,1/2-z
1/2+x,y,1/2+z
1/2-x,-y,1/2+z
1/2+x,-y,1/2-z
1/2-x,y,1/2-z
1/2+x,1/2+y,z
1/2-x,1/2-y,z
1/2+x,1/2-y,-z
1/2-x,1/2+y,-z
loop_
_atom_site_type_symbol
_atom_site_label
_atom_site_fract_x
_atom_site_fract_y
_atom_site_fract_z
Si Si1 0.040631 0.868679 0.165070
Si Si2 0.334902 0.994123 0.099405
Si Si3 0.539037 0.250000 0.250000
Si Si4 0.289230 0.564219 0.298053
Si Si5 0.384255 0.568515 0.953804
Si Si6 0.496136 0.704943 0.423690
O O1 0.973407 0.818907 0.209984
O O2 0.174036 0.876508 0.180520
O O3 0.021247 0.784289 0.121947
O O4 0.000000 0.000000 0.156656
O O5 0.209490 0.039247 0.084724
O O6 0.418108 0.096796 0.082425
O O7 0.343233 0.990882 0.155532
O O8 0.374676 0.869870 0.074751
O O9 0.618819 0.343065 0.277764
O O10 0.250000 0.499173 0.250000
O O11 0.500000 0.500000 0.943095
O O12 0.431182 0.703677 0.956895
O O13 0.340405 0.500000 0.000000
#
# Coordination Sequence:
#
# PCOD9326978 Si02
#       6
#    16  16   8  16  16  16
#     4  11  21  34  61  92 134 184 236 297 347 421
#     4  11  24  45  76 104 151 197 235 313 377 439
#     4  10  21  36  56  92 139 188 251 290 332 435
#     4  10  20  37  61  97 139 193 248 291 343 433
#     4  11  26  51  75 108 139 187 247 310 381 461
#     4  11  24  44  71 109 144 186 246 293 379 461
#
# _framework density 23.236706999999999
#
# number of rings (size 3 to 8) (size 9 to 14) (size 15 to 20)
#    0.000    1.273    1.818    5.727    0.000    5.091 
#   13.091    0.909    0.000    8.727    0.000    0.000 
#    0.000    0.000    0.000    0.000    0.000    0.000 
#
# Total GULP energy -122581.286283 kJ/mol
# GULP energy per Si atom -5571.876649 kJ/mol
# Density = 2.318382 g / cm^3
# Si number density = 23.236707 Si / 1000 Ang^3
#
#
#
# Elastic Constant Matrix: (Units=GPa)
#
#
# Indices 1 2 3 4 5 6 
#
# 1 53.7948 12.7815 -4.3606 0.0000 0.0000 0.0000
# 2 12.7815 148.1378 34.8478 0.0000 0.0000 0.0000
# 3 -4.3606 34.8478 90.2297 0.0000 0.0000 0.0000
# 4 0.0000 0.0000 0.0000 11.9891 0.0000 0.0000
# 5 0.0000 0.0000 0.0000 0.0000 3.0340 0.0000
# 6 0.0000 0.0000 0.0000 0.0000 0.0000 5.1739
#
#
#
# Elastic Compliance Matrix: (Units=1/GPa)
#
#
# Indices 1 2 3 4 5 6 
#
# 1 0.019220 -0.002064 0.001726 0.000000 0.000000 0.000000
# 2 -0.002064 0.007647 -0.003053 0.000000 0.000000 0.000000
# 3 0.001726 -0.003053 0.012345 0.000000 0.000000 0.000000
# 4 0.000000 0.000000 0.000000 0.083409 0.000000 0.000000
# 5 0.000000 0.000000 0.000000 0.000000 0.329596 0.000000
# 6 0.000000 0.000000 0.000000 0.000000 0.000000 0.193280
#
#
# Mechanical properties :
#
#
# Convention : Reuss Voigt Hill
#
# Bulk Modulus (GPa) = 30.83642 42.07774 36.45708
# Shear Modulus (GPa) = 7.54047 20.63230 14.08638
#
# Velocity S-wave (km/s) = 1.80336 2.98303 2.46481
# Velocity P-wave (km/s) = 4.19947 5.47834 4.88097
#
# Compressibility (1/GPa) = 0.03242919
#
# Stress axis : x y z
#
# Youngs Moduli (GPa) = 52.03029 130.77400 81.00204
#
# Poissons Ratio (x) = 0.26996 -0.13982
# Poissons Ratio (y) = 0.10741 0.24730
# Poissons Ratio (z) = -0.08981 0.39926
#
# Static dielectric constant tensor:
#      x y z
#    x 1.986800 0.000000 0.000000 
#    y 0.000000 1.923680 0.000000 
#    z 0.000000 0.000000 2.027020 
# 
# From -- ./inp_files/55955.got.cif
#   From: 2010.05.17/outbox.cif.g08.bks.cpg/sg22_28_cif.got.tgz:55955.got - 2010.06.03 23:40:54.
