data_PCOD9326516
_publ_section_title
;
Structure prediction by ZEFSAII (Michael W. Deem and Ramdas Pophale) SiO2 
 PCOD9326516
Probable space group: F 2 2 2
;
_chemical_formula_sum "Si O2"
_cell_formula_units_Z 108
_cell_length_a 12.587519
_cell_length_b 22.496450
_cell_length_c 21.137146
_cell_angle_alpha 90.000000
_cell_angle_beta 90.000000
_cell_angle_gamma 90.000000
_cell_volume 5985.500577
_symmetry_space_group_name_H-M "F 2 2 2"
_symmetry_group_IT_number 22
_symmetry_cell_setting 'orthorhombic'
loop_
_space_group_symop_operation_xyz
x,y,z
-x,-y,z
x,-y,-z
-x,y,-z
x,1/2+y,1/2+z
-x,1/2-y,1/2+z
x,1/2-y,1/2-z
-x,1/2+y,1/2-z
1/2+x,y,1/2+z
1/2-x,-y,1/2+z
1/2+x,-y,1/2-z
1/2-x,y,1/2-z
1/2+x,1/2+y,z
1/2-x,1/2-y,z
1/2+x,1/2-y,-z
1/2-x,1/2+y,-z
loop_
_atom_site_type_symbol
_atom_site_label
_atom_site_fract_x
_atom_site_fract_y
_atom_site_fract_z
Si Si1 0.024686 0.798844 0.925484
Si Si2 0.459471 0.342520 0.427227
Si Si3 0.857279 0.148282 0.332649
Si Si4 0.872780 0.501293 0.364527
Si Si5 0.250000 0.750000 0.250000
Si Si6 0.326595 0.125827 0.576929
Si Si7 0.714545 0.378689 0.927613
Si Si8 0.750000 0.546779 0.750000
O O1 0.031465 0.728654 0.919002
O O2 0.134124 0.828044 0.902648
O O3 0.925015 0.834797 0.897509
O O4 0.000000 0.808458 0.000000
O O5 0.500000 0.356474 0.500000
O O6 0.531891 0.363586 0.368294
O O7 0.338743 0.364914 0.419564
O O8 0.828017 0.206461 0.290684
O O9 0.776702 0.153066 0.391356
O O10 0.823537 0.091425 0.290919
O O11 0.841336 0.441676 0.401727
O O12 0.825161 0.559244 0.398508
O O13 0.820868 0.492958 0.295976
O O14 0.000000 0.500000 0.361962
O O15 0.309437 0.123464 0.502356
#
# Coordination Sequence:
#
# PCOD9326516 Si02
#       8
#    16  16  16  16   4  16  16   8
#     4   9  19  31  54  88 123 157 189 238 292 370
#     4  11  21  36  58  90 134 168 190 247 329 386
#     4  10  20  38  61  88 123 159 213 260 298 375
#     4  11  22  39  64  84 113 160 211 264 307 365
#     4  10  20  36  64  96 114 176 226 262 294 338
#     4  10  19  36  59  91 121 154 210 256 308 358
#     4  11  21  35  58  93 126 158 199 248 319 383
#     4   9  24  41  60  88 109 156 219 264 300 352
#
# _framework density 18.043603999999998
#
# number of rings (size 3 to 8) (size 9 to 14) (size 15 to 20)
#    0.000    1.778    2.963    1.778    0.000    1.778 
#    0.000    2.222    0.000    0.000    0.000    0.000 
#    0.000    0.000    0.000    0.000    0.000    0.000 
#
# Total GULP energy -150401.644794 kJ/mol
# GULP energy per Si atom -5570.431289 kJ/mol
# Density = 1.800254 g / cm^3
# Si number density = 18.043604 Si / 1000 Ang^3
#
#
#
# Elastic Constant Matrix: (Units=GPa)
#
#
# Indices 1 2 3 4 5 6 
#
# 1 141.8245 40.5767 48.4572 0.0000 0.0000 0.0000
# 2 40.5767 67.4709 29.7137 0.0000 0.0000 0.0000
# 3 48.4572 29.7137 78.8383 0.0000 0.0000 0.0000
# 4 0.0000 0.0000 0.0000 3.0782 0.0000 0.0000
# 5 0.0000 0.0000 0.0000 0.0000 26.8102 0.0000
# 6 0.0000 0.0000 0.0000 0.0000 0.0000 13.4015
#
#
#
# Elastic Compliance Matrix: (Units=1/GPa)
#
#
# Indices 1 2 3 4 5 6 
#
# 1 0.009691 -0.003843 -0.004508 0.000000 0.000000 0.000000
# 2 -0.003843 0.019295 -0.004910 0.000000 0.000000 0.000000
# 3 -0.004508 -0.004910 0.017306 0.000000 0.000000 0.000000
# 4 0.000000 0.000000 0.000000 0.324864 0.000000 0.000000
# 5 0.000000 0.000000 0.000000 0.000000 0.037299 0.000000
# 6 0.000000 0.000000 0.000000 0.000000 0.000000 0.074619
#
#
# Mechanical properties :
#
#
# Convention : Reuss Voigt Hill
#
# Bulk Modulus (GPa) = 50.58374 58.40324 54.49349
# Shear Modulus (GPa) = 9.68647 19.95037 14.81842
#
# Velocity S-wave (km/s) = 2.31949 3.32878 2.86887
# Velocity P-wave (km/s) = 5.93872 6.87113 6.42187
#
# Compressibility (1/GPa) = 0.01976920
#
# Stress axis : x y z
#
# Youngs Moduli (GPa) = 103.19281 51.82814 57.78472
#
# Poissons Ratio (x) = 0.19915 0.26049
# Poissons Ratio (y) = 0.39653 0.28373
# Poissons Ratio (z) = 0.46519 0.25449
#
# Static dielectric constant tensor:
#      x y z
#    x 1.669550 0.000000 0.000000 
#    y 0.000000 1.609860 0.000000 
#    z 0.000000 0.000000 1.640240 
# 
# From -- ./inp_files/22994.got.cif
#   From: 2010.05.17/outbox.cif.g08.bks.cpg/sg22_12_cif.got.tgz:22994.got - 2010.06.03 23:40:54.
