data_PCOD9326245
_publ_section_title
;
Structure prediction by ZEFSAII (Michael W. Deem and Ramdas Pophale) SiO2 
 PCOD9326245
Probable space group: F 2 2 2
;
_chemical_formula_sum "Si O2"
_cell_formula_units_Z 120
_cell_length_a 16.380159
_cell_length_b 18.081585
_cell_length_c 21.401582
_cell_angle_alpha 90.000000
_cell_angle_beta 90.000000
_cell_angle_gamma 90.000000
_cell_volume 6338.704233
_symmetry_space_group_name_H-M "F 2 2 2"
_symmetry_group_IT_number 22
_symmetry_cell_setting 'orthorhombic'
loop_
_space_group_symop_operation_xyz
x,y,z
-x,-y,z
x,-y,-z
-x,y,-z
x,1/2+y,1/2+z
-x,1/2-y,1/2+z
x,1/2-y,1/2-z
-x,1/2+y,1/2-z
1/2+x,y,1/2+z
1/2-x,-y,1/2+z
1/2+x,-y,1/2-z
1/2-x,y,1/2-z
1/2+x,1/2+y,z
1/2-x,1/2-y,z
1/2+x,1/2-y,-z
1/2-x,1/2+y,-z
loop_
_atom_site_type_symbol
_atom_site_label
_atom_site_fract_x
_atom_site_fract_y
_atom_site_fract_z
Si Si1 0.445384 0.199027 0.442535
Si Si2 0.597554 0.513049 0.339193
Si Si3 0.372165 0.522115 0.199878
Si Si4 0.284276 0.388197 0.033429
Si Si5 0.474642 0.879555 0.678196
Si Si6 0.879798 0.750000 0.250000
Si Si7 0.256200 0.547116 0.406293
Si Si8 0.155143 0.824032 0.625630
O O1 0.500000 0.220935 0.500000
O O2 0.375017 0.143032 0.464895
O O3 0.493417 0.156083 0.388454
O O4 0.405029 0.269870 0.410769
O O5 0.500000 0.500000 0.335625
O O6 0.640647 0.500846 0.271806
O O7 0.649374 0.461619 0.386187
O O8 0.614584 0.596667 0.360704
O O9 0.409716 0.446512 0.170753
O O10 0.444063 0.582699 0.203675
O O11 0.300181 0.552371 0.155812
O O12 0.272863 0.469707 0.062574
O O13 0.231993 0.337728 0.080876
O O14 0.255069 0.393258 0.961403
O O15 0.435395 0.816065 0.721369
O O16 0.830692 0.786331 0.307124
#
# Coordination Sequence:
#
# PCOD9326245 Si02
#       8
#    16  16  16  16  16   8  16  16
#     4  11  22  38  57  84 116 156 198 240 297 368
#     4  11  21  38  60  88 118 154 198 253 304 355
#     4  11  18  37  57  90 118 151 188 254 297 362
#     4  10  21  40  53  81 116 157 194 243 295 359
#     4  10  20  33  60  86 122 148 197 239 307 354
#     4  10  18  38  57  92 117 162 190 252 305 368
#     4  10  22  36  58  82 118 151 197 242 298 357
#     4  10  22  37  59  85 119 155 200 249 303 361
#
# _framework density 18.931312999999999
#
# number of rings (size 3 to 8) (size 9 to 14) (size 15 to 20)
#    0.000    1.600    4.000    1.600    0.000    1.067 
#    0.000   10.000    0.000    0.000    0.000    5.600 
#    0.000    0.000    0.000    0.000    0.000    0.000 
#
# Total GULP energy -167348.188946 kJ/mol
# GULP energy per Si atom -5578.272965 kJ/mol
# Density = 1.888822 g / cm^3
# Si number density = 18.931313 Si / 1000 Ang^3
#
#
#
# Elastic Constant Matrix: (Units=GPa)
#
#
# Indices 1 2 3 4 5 6 
#
# 1 68.8903 9.8995 34.5412 0.0000 0.0000 0.0000
# 2 9.8995 54.4017 19.6381 0.0000 0.0000 0.0000
# 3 34.5412 19.6381 112.2456 0.0000 0.0000 0.0000
# 4 0.0000 0.0000 0.0000 22.0004 0.0000 0.0000
# 5 0.0000 0.0000 0.0000 0.0000 25.4888 0.0000
# 6 0.0000 0.0000 0.0000 0.0000 0.0000 9.3447
#
#
#
# Elastic Compliance Matrix: (Units=1/GPa)
#
#
# Indices 1 2 3 4 5 6 
#
# 1 0.017251 -0.001305 -0.005080 0.000000 0.000000 0.000000
# 2 -0.001305 0.019720 -0.003048 0.000000 0.000000 0.000000
# 3 -0.005080 -0.003048 0.011006 0.000000 0.000000 0.000000
# 4 0.000000 0.000000 0.000000 0.045454 0.000000 0.000000
# 5 0.000000 0.000000 0.000000 0.000000 0.039233 0.000000
# 6 0.000000 0.000000 0.000000 0.000000 0.000000 0.107013
#
#
# Mechanical properties :
#
#
# Convention : Reuss Voigt Hill
#
# Bulk Modulus (GPa) = 34.35443 40.41058 37.38251
# Shear Modulus (GPa) = 18.63963 22.79736 20.71849
#
# Velocity S-wave (km/s) = 3.14123 3.47394 3.31177
# Velocity P-wave (km/s) = 5.59845 6.12236 5.86626
#
# Compressibility (1/GPa) = 0.02910832
#
# Stress axis : x y z
#
# Youngs Moduli (GPa) = 57.96919 50.71066 90.86216
#
# Poissons Ratio (x) = 0.06619 0.46159
# Poissons Ratio (y) = 0.07566 0.27699
# Poissons Ratio (z) = 0.29449 0.15459
#
# Static dielectric constant tensor:
#      x y z
#    x 1.654680 0.000000 0.000000 
#    y 0.000000 1.647500 0.000000 
#    z 0.000000 0.000000 1.695480 
# 
# From -- ./inp_files/39100.got.cif
#   From: 2010.05.17/outbox.cif.g08.bks.cpg/sg22_20_cif.got.tgz:39100.got - 2010.06.03 23:40:54.
