data_PCOD9326312
_publ_section_title
;
Structure prediction by ZEFSAII (Michael W. Deem and Ramdas Pophale) SiO2 
 PCOD9326312
Probable space group: F 2 2 2
;
_chemical_formula_sum "Si O2"
_cell_formula_units_Z 96
_cell_length_a 22.068407
_cell_length_b 7.932872
_cell_length_c 23.638406
_cell_angle_alpha 90.000000
_cell_angle_beta 90.000000
_cell_angle_gamma 90.000000
_cell_volume 4138.277591
_symmetry_space_group_name_H-M "F 2 2 2"
_symmetry_group_IT_number 22
_symmetry_cell_setting 'orthorhombic'
loop_
_space_group_symop_operation_xyz
x,y,z
-x,-y,z
x,-y,-z
-x,y,-z
x,1/2+y,1/2+z
-x,1/2-y,1/2+z
x,1/2-y,1/2-z
-x,1/2+y,1/2-z
1/2+x,y,1/2+z
1/2-x,-y,1/2+z
1/2+x,-y,1/2-z
1/2-x,y,1/2-z
1/2+x,1/2+y,z
1/2-x,1/2-y,z
1/2+x,1/2-y,-z
1/2-x,1/2+y,-z
loop_
_atom_site_type_symbol
_atom_site_label
_atom_site_fract_x
_atom_site_fract_y
_atom_site_fract_z
Si Si1 0.925798 0.103858 0.054632
Si Si2 0.967735 0.764995 0.657856
Si Si3 0.093499 0.614653 0.814558
Si Si4 0.312467 0.701767 0.495641
Si Si5 0.647204 0.911373 0.714506
Si Si6 0.836426 0.868787 0.114913
O O1 0.973275 0.201617 0.093357
O O2 0.871502 0.229396 0.036328
O O3 0.895779 0.964864 0.094294
O O4 0.942900 0.000000 0.000000
O O5 0.917518 0.655216 0.690433
O O6 0.032966 0.770270 0.687366
O O7 0.935415 0.946813 0.658052
O O8 0.126860 0.556528 0.757839
O O9 0.143599 0.700840 0.853281
O O10 0.316229 0.500000 0.500000
O O11 0.250000 0.750000 0.464384
O O12 0.308368 0.807676 0.555192
O O13 0.672577 0.750000 0.750000
O O14 0.686190 0.998433 0.663658
#
# Coordination Sequence:
#
# PCOD9326312 Si02
#       6
#    16  16  16  16  16  16
#     4   9  19  36  55  79 112 144 182 229 280 334
#     4   9  19  33  50  79 113 151 196 234 276 327
#     4  10  19  31  51  78 112 154 193 232 275 329
#     4  11  22  40  65  88 110 139 181 234 292 349
#     4   9  19  32  50  78 115 156 196 234 272 325
#     4  10  20  34  54  83 113 146 189 231 279 332
#
# _framework density 23.198056000000001
#
# number of rings (size 3 to 8) (size 9 to 14) (size 15 to 20)
#    0.000    2.333    0.000    3.000    0.000   10.667 
#    0.000    5.833    0.000   11.000    0.000   10.500 
#    0.000    0.000    0.000    0.000    0.000    0.000 
#
# Total GULP energy -133803.227842 kJ/mol
# GULP energy per Si atom -5575.134493 kJ/mol
# Density = 2.314526 g / cm^3
# Si number density = 23.198056 Si / 1000 Ang^3
#
#
#
# Elastic Constant Matrix: (Units=GPa)
#
#
# Indices 1 2 3 4 5 6 
#
# 1 51.0453 17.3151 1.7961 0.0000 0.0000 0.0000
# 2 17.3151 95.7987 29.6836 0.0000 0.0000 0.0000
# 3 1.7961 29.6836 115.3153 0.0000 0.0000 0.0000
# 4 0.0000 0.0000 0.0000 38.7531 0.0000 0.0000
# 5 0.0000 0.0000 0.0000 0.0000 2.3674 0.0000
# 6 0.0000 0.0000 0.0000 0.0000 0.0000 8.4322
#
#
#
# Elastic Compliance Matrix: (Units=1/GPa)
#
#
# Indices 1 2 3 4 5 6 
#
# 1 0.020922 -0.004000 0.000704 0.000000 0.000000 0.000000
# 2 -0.004000 0.012108 -0.003054 0.000000 0.000000 0.000000
# 3 0.000704 -0.003054 0.009447 0.000000 0.000000 0.000000
# 4 0.000000 0.000000 0.000000 0.025804 0.000000 0.000000
# 5 0.000000 0.000000 0.000000 0.000000 0.422403 0.000000
# 6 0.000000 0.000000 0.000000 0.000000 0.000000 0.118594
#
#
# Mechanical properties :
#
#
# Convention : Reuss Voigt Hill
#
# Bulk Modulus (GPa) = 33.58336 39.97212 36.77774
# Shear Modulus (GPa) = 7.91259 24.13483 16.02371
#
# Velocity S-wave (km/s) = 1.84886 3.22899 2.63103
# Velocity P-wave (km/s) = 4.36646 5.58302 5.01179
#
# Compressibility (1/GPa) = 0.02977665
#
# Stress axis : x y z
#
# Youngs Moduli (GPa) = 47.79566 82.59067 105.85181
#
# Poissons Ratio (x) = 0.33033 -0.07449
# Poissons Ratio (y) = 0.19117 0.32332
# Poissons Ratio (z) = -0.03363 0.25227
#
# Static dielectric constant tensor:
#      x y z
#    x 1.881540 0.000000 0.000000 
#    y 0.000000 1.960370 0.000000 
#    z 0.000000 0.000000 2.020540 
# 
# From -- ./inp_files/50201.got.cif
#   From: 2010.05.17/outbox.cif.g08.bks.cpg/sg22_26_cif.got.tgz:50201.got - 2010.06.03 23:40:54.
