data_PCOD9326244
_publ_section_title
;
Structure prediction by ZEFSAII (Michael W. Deem and Ramdas Pophale) SiO2 
 PCOD9326244
Probable space group: F 2 2 2
;
_chemical_formula_sum "Si O2"
_cell_formula_units_Z 84
_cell_length_a 20.438531
_cell_length_b 22.161980
_cell_length_c 9.251617
_cell_angle_alpha 90.000000
_cell_angle_beta 90.000000
_cell_angle_gamma 90.000000
_cell_volume 4190.596850
_symmetry_space_group_name_H-M "F 2 2 2"
_symmetry_group_IT_number 22
_symmetry_cell_setting 'orthorhombic'
loop_
_space_group_symop_operation_xyz
x,y,z
-x,-y,z
x,-y,-z
-x,y,-z
x,1/2+y,1/2+z
-x,1/2-y,1/2+z
x,1/2-y,1/2-z
-x,1/2+y,1/2-z
1/2+x,y,1/2+z
1/2-x,-y,1/2+z
1/2+x,-y,1/2-z
1/2-x,y,1/2-z
1/2+x,1/2+y,z
1/2-x,1/2-y,z
1/2+x,1/2-y,-z
1/2-x,1/2+y,-z
loop_
_atom_site_type_symbol
_atom_site_label
_atom_site_fract_x
_atom_site_fract_y
_atom_site_fract_z
Si Si1 0.750000 0.250000 0.750000
Si Si2 0.043893 0.681299 0.723972
Si Si3 0.831099 0.000000 0.500000
Si Si4 0.827914 0.646468 0.424174
Si Si5 0.893636 0.819708 0.788458
Si Si6 0.430501 0.605277 0.494882
Si Si7 0.750000 0.957162 0.250000
O O1 0.792114 0.295016 0.647304
O O2 0.062559 0.750000 0.750000
O O3 0.097746 0.646694 0.632730
O O4 0.970365 0.680530 0.661132
O O5 0.051905 0.653320 0.882527
O O6 0.874892 0.941849 0.470751
O O7 0.789226 0.001253 0.355396
O O8 0.841157 0.655214 0.595771
O O9 0.790492 0.588283 0.357711
O O10 0.877837 0.750000 0.750000
O O11 0.903060 0.860242 0.645590
O O12 0.500000 0.570711 0.500000
#
# Coordination Sequence:
#
# PCOD9326244 Si02
#       7
#     4  16   8  16  16  16   8
#     4  10  24  36  62  80 136 184 208 250 310 404
#     4  10  18  37  65  94 134 165 205 255 329 397
#     4  12  25  48  64  88 121 174 228 268 320 386
#     4  11  21  41  58  93 126 173 219 257 323 379
#     4  10  22  35  65 103 132 162 203 269 325 389
#     4  10  22  41  67  97 125 166 208 266 329 381
#     4  11  28  41  68  84 119 180 227 274 318 380
#
# _framework density 20.044877
#
# number of rings (size 3 to 8) (size 9 to 14) (size 15 to 20)
#    0.000    1.524    2.857    2.000    2.667    3.048 
#    0.000    2.381    0.000    0.000    0.000    0.000 
#    0.000    0.000    0.000    0.000    0.000    0.000 
#
# Total GULP energy -116919.994222 kJ/mol
# GULP energy per Si atom -5567.618772 kJ/mol
# Density = 1.999925 g / cm^3
# Si number density = 20.044877 Si / 1000 Ang^3
#
#
#
# Elastic Constant Matrix: (Units=GPa)
#
#
# Indices 1 2 3 4 5 6 
#
# 1 64.3864 11.6345 37.7170 0.0000 0.0000 0.0000
# 2 11.6345 36.4536 17.7077 0.0000 0.0000 0.0000
# 3 37.7170 17.7077 117.2059 -0.0001 0.0000 0.0000
# 4 0.0000 0.0000 -0.0001 -3.6834 0.0000 0.0001
# 5 0.0000 0.0000 0.0000 0.0000 49.9139 -0.0001
# 6 0.0000 0.0000 0.0000 0.0001 -0.0001 -23.1698
#
#
#
# Elastic Compliance Matrix: (Units=1/GPa)
#
#
# Indices 1 2 3 4 5 6 
#
# 1 0.019529 -0.003432 -0.005766 0.000000 0.000000 0.000000
# 2 -0.003432 0.030208 -0.003459 0.000000 0.000000 0.000000
# 3 -0.005766 -0.003459 0.010910 0.000000 0.000000 0.000000
# 4 0.000000 0.000000 0.000000 -0.271485 0.000000 -0.000001
# 5 0.000000 0.000000 0.000000 0.000000 0.020035 0.000000
# 6 0.000000 0.000000 0.000000 -0.000001 0.000000 -0.043160
#
#
# Mechanical properties :
#
#
# Convention : Reuss Voigt Hill
#
# Bulk Modulus (GPa) = 28.30273 39.12937 33.71605
# Shear Modulus (GPa) = -25.39736 14.67791 -5.35972
#
# Velocity S-wave (km/s) = -3.56339 2.70895 -1.63697
# Velocity P-wave (km/s) = 1.66733 5.41736 3.64471
#
# Compressibility (1/GPa) = 0.03533228
#
# Stress axis : x y z
#
# Youngs Moduli (GPa) = 51.20586 33.10389 91.65795
#
# Poissons Ratio (x) = 0.11361 0.52849
# Poissons Ratio (y) = 0.17574 0.31708
# Poissons Ratio (z) = 0.29525 0.11452
#
# Static dielectric constant tensor:
#      x y z
#    x 1.784400 0.000000 0.000000 
#    y 0.000000 1.677820 0.000000 
#    z 0.000000 0.000000 1.700650 
# 
# From -- ./inp_files/12613.got.cif
#   From: 2010.05.17/outbox.cif.g08.bks.cpg/sg22_7_cif.got.tgz:12613.got - 2010.06.03 23:40:54.
