data_PCOD9326811
_publ_section_title
;
Structure prediction by ZEFSAII (Michael W. Deem and Ramdas Pophale) SiO2 
 PCOD9326811
Probable space group: F 2 2 2
;
_chemical_formula_sum "Si O2"
_cell_formula_units_Z 112
_cell_length_a 31.488111
_cell_length_b 12.193000
_cell_length_c 15.651622
_cell_angle_alpha 90.000000
_cell_angle_beta 90.000000
_cell_angle_gamma 90.000000
_cell_volume 6009.198252
_symmetry_space_group_name_H-M "F 2 2 2"
_symmetry_group_IT_number 22
_symmetry_cell_setting 'orthorhombic'
loop_
_space_group_symop_operation_xyz
x,y,z
-x,-y,z
x,-y,-z
-x,y,-z
x,1/2+y,1/2+z
-x,1/2-y,1/2+z
x,1/2-y,1/2-z
-x,1/2+y,1/2-z
1/2+x,y,1/2+z
1/2-x,-y,1/2+z
1/2+x,-y,1/2-z
1/2-x,y,1/2-z
1/2+x,1/2+y,z
1/2-x,1/2-y,z
1/2+x,1/2-y,-z
1/2-x,1/2+y,-z
loop_
_atom_site_type_symbol
_atom_site_label
_atom_site_fract_x
_atom_site_fract_y
_atom_site_fract_z
Si Si1 0.930525 0.884180 0.990339
Si Si2 0.472519 0.901380 0.822120
Si Si3 0.203986 0.736714 0.388962
Si Si4 0.621877 0.517754 0.355485
Si Si5 0.497300 0.838751 0.630989
Si Si6 0.626878 0.175851 0.013156
Si Si7 0.201766 0.563616 0.247828
O O1 0.905531 0.772717 0.006550
O O2 0.955233 0.862864 0.901207
O O3 0.965990 0.894546 0.063763
O O4 0.906236 0.000000 0.000000
O O5 0.422989 0.935498 0.821206
O O6 0.488254 0.880476 0.725593
O O7 0.484579 0.789563 0.870410
O O8 0.500000 0.000000 0.860224
O O9 0.250000 0.750000 0.429575
O O10 0.168696 0.763180 0.456480
O O11 0.195551 0.623091 0.339252
O O12 0.204384 0.834144 0.318314
O O13 0.634835 0.601125 0.430838
O O14 0.613831 0.403286 0.407079
O O15 0.660482 0.502245 0.287371
O O16 0.250000 0.513497 0.250000
#
# Coordination Sequence:
#
# PCOD9326811 Si02
#       7
#    16  16  16  16  16  16  16
#     4  11  21  38  56  77 108 150 191 236 286 350
#     4  11  21  36  55  81 109 148 189 240 288 345
#     4   8  15  30  55  82 113 147 190 240 278 346
#     4  10  20  35  57  87 121 146 190 244 299 359
#     4  10  22  37  54  76 107 145 193 233 285 341
#     4  10  20  35  57  86 116 152 185 243 304 348
#     4   8  15  30  55  85 113 147 192 240 296 338
#
# _framework density 18.638093999999999
#
# number of rings (size 3 to 8) (size 9 to 14) (size 15 to 20)
#    0.000    2.286    1.429    3.429    0.000    2.286 
#    0.000    2.857   12.571    0.000    0.000    0.000 
#    0.000    0.000    0.000    0.000    0.000    0.000 
#
# Total GULP energy -155915.497967 kJ/mol
# GULP energy per Si atom -5568.410642 kJ/mol
# Density = 1.859567 g / cm^3
# Si number density = 18.638094 Si / 1000 Ang^3
#
#
#
# Elastic Constant Matrix: (Units=GPa)
#
#
# Indices 1 2 3 4 5 6 
#
# 1 88.0002 42.8833 19.1985 0.0000 0.0000 0.0000
# 2 42.8833 112.8346 16.6108 0.0000 0.0000 0.0000
# 3 19.1985 16.6108 43.9643 0.0000 0.0000 0.0000
# 4 0.0000 0.0000 0.0000 1.2635 0.0000 0.0000
# 5 0.0000 0.0000 0.0000 0.0000 10.0418 0.0000
# 6 0.0000 0.0000 0.0000 0.0000 0.0000 20.1292
#
#
#
# Elastic Compliance Matrix: (Units=1/GPa)
#
#
# Indices 1 2 3 4 5 6 
#
# 1 0.014770 -0.004939 -0.004584 0.000000 0.000000 0.000000
# 2 -0.004939 0.011036 -0.002013 0.000000 0.000000 0.000000
# 3 -0.004584 -0.002013 0.025508 0.000000 0.000000 0.000000
# 4 0.000000 0.000000 0.000000 0.791451 0.000000 0.000000
# 5 0.000000 0.000000 0.000000 0.000000 0.099584 0.000000
# 6 0.000000 0.000000 0.000000 0.000000 0.000000 0.049679
#
#
# Mechanical properties :
#
#
# Convention : Reuss Voigt Hill
#
# Bulk Modulus (GPa) = 35.40715 44.68715 40.04715
# Shear Modulus (GPa) = 4.88036 17.36066 11.12051
#
# Velocity S-wave (km/s) = 1.61993 3.05530 2.44530
# Velocity P-wave (km/s) = 4.74735 6.03943 5.43195
#
# Compressibility (1/GPa) = 0.02824288
#
# Stress axis : x y z
#
# Youngs Moduli (GPa) = 67.70311 90.61376 39.20329
#
# Poissons Ratio (x) = 0.44752 0.17971
# Poissons Ratio (y) = 0.33437 0.07891
# Poissons Ratio (z) = 0.31035 0.18240
#
# Static dielectric constant tensor:
#      x y z
#    x 1.676690 0.000000 0.000000 
#    y 0.000000 1.691260 0.000000 
#    z 0.000000 0.000000 1.637000 
# 
# From -- ./inp_files/33535.got.cif
#   From: 2010.05.17/outbox.cif.g08.bks.cpg/sg22_17_cif.got.tgz:33535.got - 2010.06.03 23:40:54.
