data_PCOD9326643
_publ_section_title
;
Structure prediction by ZEFSAII (Michael W. Deem and Ramdas Pophale) SiO2 
 PCOD9326643
Probable space group: F 2 2 2
;
_chemical_formula_sum "Si O2"
_cell_formula_units_Z 64
_cell_length_a 7.586465
_cell_length_b 26.783781
_cell_length_c 17.051954
_cell_angle_alpha 90.000000
_cell_angle_beta 90.000000
_cell_angle_gamma 90.000000
_cell_volume 3464.858443
_symmetry_space_group_name_H-M "F 2 2 2"
_symmetry_group_IT_number 22
_symmetry_cell_setting 'orthorhombic'
loop_
_space_group_symop_operation_xyz
x,y,z
-x,-y,z
x,-y,-z
-x,y,-z
x,1/2+y,1/2+z
-x,1/2-y,1/2+z
x,1/2-y,1/2-z
-x,1/2+y,1/2-z
1/2+x,y,1/2+z
1/2-x,-y,1/2+z
1/2+x,-y,1/2-z
1/2-x,y,1/2-z
1/2+x,1/2+y,z
1/2-x,1/2-y,z
1/2+x,1/2-y,-z
1/2-x,1/2+y,-z
loop_
_atom_site_type_symbol
_atom_site_label
_atom_site_fract_x
_atom_site_fract_y
_atom_site_fract_z
Si Si1 0.600792 0.602064 0.423122
Si Si2 0.292417 0.192836 0.508975
Si Si3 0.470788 0.442850 0.094199
Si Si4 0.762781 0.633159 0.839993
O O1 0.500000 0.580215 0.500000
O O2 0.682688 0.654597 0.454665
O O3 0.767738 0.571561 0.393789
O O4 0.452070 0.608756 0.358245
O O5 0.500000 0.183847 0.500000
O O6 0.250000 0.250000 0.491004
O O7 0.247829 0.178544 0.598409
O O8 0.500000 0.500000 0.117484
O O9 0.607888 0.405516 0.135736
O O10 0.500000 0.438611 0.000000
O O11 0.750000 0.647645 0.750000
#
# Coordination Sequence:
#
# PCOD9326643 Si02
#       4
#    16  16  16  16
#     4  10  19  39  62  88 117 156 202 244 295 347
#     4  11  20  39  65  89 118 157 205 247 294 356
#     4  11  21  40  64  89 118 159 208 251 288 352
#     4  11  23  40  59  90 129 158 194 250 302 354
#
# _framework density 18.471173
#
# number of rings (size 3 to 8) (size 9 to 14) (size 15 to 20)
#    0.000    1.250    7.500    2.250    0.000    2.500 
#    4.500    0.000    0.000    0.000    0.000    0.000 
#    0.000    0.000    0.000    0.000    0.000    0.000 
#
# Total GULP energy -89331.559873 kJ/mol
# GULP energy per Si atom -5583.222492 kJ/mol
# Density = 1.842913 g / cm^3
# Si number density = 18.471173 Si / 1000 Ang^3
#
#
#
# Elastic Constant Matrix: (Units=GPa)
#
#
# Indices 1 2 3 4 5 6 
#
# 1 166.2975 27.8878 18.2586 0.0000 0.0000 0.0000
# 2 27.8878 84.9031 5.2904 0.0000 0.0000 0.0000
# 3 18.2586 5.2904 59.4261 0.0000 0.0000 0.0000
# 4 0.0000 0.0000 0.0000 11.4337 0.0000 0.0000
# 5 0.0000 0.0000 0.0000 0.0000 17.8676 0.0000
# 6 0.0000 0.0000 0.0000 0.0000 0.0000 25.1639
#
#
#
# Elastic Compliance Matrix: (Units=1/GPa)
#
#
# Indices 1 2 3 4 5 6 
#
# 1 0.006557 -0.002039 -0.001833 0.000000 0.000000 0.000000
# 2 -0.002039 0.012478 -0.000484 0.000000 0.000000 0.000000
# 3 -0.001833 -0.000484 0.017434 0.000000 0.000000 0.000000
# 4 0.000000 0.000000 0.000000 0.087460 0.000000 0.000000
# 5 0.000000 0.000000 0.000000 0.000000 0.055967 0.000000
# 6 0.000000 0.000000 0.000000 0.000000 0.000000 0.039739
#
#
# Mechanical properties :
#
#
# Convention : Reuss Voigt Hill
#
# Bulk Modulus (GPa) = 36.02898 45.94447 40.98672
# Shear Modulus (GPa) = 21.04372 28.17239 24.60805
#
# Velocity S-wave (km/s) = 3.37897 3.90963 3.65395
# Velocity P-wave (km/s) = 5.89671 6.73111 6.32768
#
# Compressibility (1/GPa) = 0.02775544
#
# Stress axis : x y z
#
# Youngs Moduli (GPa) = 152.51873 80.13988 57.35954
#
# Poissons Ratio (x) = 0.16344 0.10514
# Poissons Ratio (y) = 0.31105 0.02778
# Poissons Ratio (z) = 0.27956 0.03881
#
# Static dielectric constant tensor:
#      x y z
#    x 1.661530 0.000000 0.000000 
#    y 0.000000 1.651180 0.000000 
#    z 0.000000 0.000000 1.618870 
# 
# From -- ./inp_files/34933.got.cif
#   From: 2010.05.17/outbox.cif.g08.bks.cpg/sg22_18_cif.got.tgz:34933.got - 2010.06.03 23:40:54.
