data_PCOD9326319
_publ_section_title
;
Structure prediction by ZEFSAII (Michael W. Deem and Ramdas Pophale) SiO2 
 PCOD9326319
Probable space group: F 2 2 2
;
_chemical_formula_sum "Si O2"
_cell_formula_units_Z 104
_cell_length_a 20.534393
_cell_length_b 13.876041
_cell_length_c 17.636857
_cell_angle_alpha 90.000000
_cell_angle_beta 90.000000
_cell_angle_gamma 90.000000
_cell_volume 5025.376883
_symmetry_space_group_name_H-M "F 2 2 2"
_symmetry_group_IT_number 22
_symmetry_cell_setting 'orthorhombic'
loop_
_space_group_symop_operation_xyz
x,y,z
-x,-y,z
x,-y,-z
-x,y,-z
x,1/2+y,1/2+z
-x,1/2-y,1/2+z
x,1/2-y,1/2-z
-x,1/2+y,1/2-z
1/2+x,y,1/2+z
1/2-x,-y,1/2+z
1/2+x,-y,1/2-z
1/2-x,y,1/2-z
1/2+x,1/2+y,z
1/2-x,1/2-y,z
1/2+x,1/2-y,-z
1/2-x,1/2+y,-z
loop_
_atom_site_type_symbol
_atom_site_label
_atom_site_fract_x
_atom_site_fract_y
_atom_site_fract_z
Si Si1 0.606785 0.483916 0.710051
Si Si2 0.492907 0.662376 0.308150
Si Si3 0.619397 0.155587 0.499830
Si Si4 0.940488 0.840721 0.533824
Si Si5 0.420065 0.496440 0.878761
Si Si6 0.689082 0.053917 0.074910
Si Si7 0.750000 0.250000 0.052692
O O1 0.561903 0.392843 0.686957
O O2 0.559779 0.578163 0.708280
O O3 0.617320 0.480844 0.800395
O O4 0.666478 0.496431 0.650598
O O5 0.495608 0.750000 0.250000
O O6 0.464416 0.699632 0.386396
O O7 0.575149 0.247870 0.515136
O O8 0.603514 0.078110 0.563164
O O9 0.690785 0.203429 0.494762
O O10 0.601803 0.102580 0.420086
O O11 0.878669 0.906437 0.542158
O O12 0.000000 0.897485 0.500000
O O13 0.500000 0.500000 0.869813
O O14 0.725234 0.154228 0.096327
O O15 0.719725 0.000000 0.000000
#
# Coordination Sequence:
#
# PCOD9326319 Si02
#       7
#    16  16  16  16  16  16   8
#     4  10  21  37  57  96 131 171 201 263 335 391
#     4  10  19  31  54  82 134 174 191 241 313 395
#     4  10  22  36  62  90 121 173 211 270 311 379
#     4  10  19  31  54  90 123 156 207 246 313 388
#     4  11  20  37  64  98 134 160 206 265 344 399
#     4  10  22  41  65  88 126 169 223 274 327 387
#     4  10  24  46  67  91 120 174 238 276 318 373
#
# _framework density 20.694965
#
# number of rings (size 3 to 8) (size 9 to 14) (size 15 to 20)
#    0.000    1.846    1.538    3.692    4.308    1.538 
#    0.000    1.538    0.000    0.923    0.000    0.000 
#    0.000    0.000    0.000    0.000    0.000    0.000 
#
# Total GULP energy -144768.621689 kJ/mol
# GULP energy per Si atom -5568.023911 kJ/mol
# Density = 2.064786 g / cm^3
# Si number density = 20.694965 Si / 1000 Ang^3
#
#
#
# Elastic Constant Matrix: (Units=GPa)
#
#
# Indices 1 2 3 4 5 6 
#
# 1 50.3030 25.6115 -1.6864 0.0000 0.0000 0.0000
# 2 25.6115 109.9014 31.1199 0.0000 0.0000 0.0000
# 3 -1.6864 31.1199 62.9732 0.0000 0.0000 0.0000
# 4 0.0000 0.0000 0.0000 20.8218 0.0000 0.0000
# 5 0.0000 0.0000 0.0000 0.0000 7.4966 0.0000
# 6 0.0000 0.0000 0.0000 0.0000 0.0000 320.5860
#
#
#
# Elastic Compliance Matrix: (Units=1/GPa)
#
#
# Indices 1 2 3 4 5 6 
#
# 1 0.023332 -0.006528 0.003851 0.000000 0.000000 0.000000
# 2 -0.006528 0.012406 -0.006305 0.000000 0.000000 0.000000
# 3 0.003851 -0.006305 0.019099 0.000000 0.000000 0.000000
# 4 0.000000 0.000000 0.000000 0.048027 0.000000 0.000000
# 5 0.000000 0.000000 0.000000 0.000000 0.133395 0.000000
# 6 0.000000 0.000000 0.000000 0.000000 0.000000 0.003119
#
#
# Mechanical properties :
#
#
# Convention : Reuss Voigt Hill
#
# Bulk Modulus (GPa) = 27.12098 37.02976 32.07537
# Shear Modulus (GPa) = 18.54373 80.98970 49.76671
#
# Velocity S-wave (km/s) = 2.99666 6.26258 4.90917
# Velocity P-wave (km/s) = 5.01067 8.38005 6.90406
#
# Compressibility (1/GPa) = 0.03687182
#
# Stress axis : x y z
#
# Youngs Moduli (GPa) = 42.85924 80.60777 52.35907
#
# Poissons Ratio (x) = 0.52618 -0.20162
# Poissons Ratio (y) = 0.27977 0.33015
# Poissons Ratio (z) = -0.16504 0.50827
#
# Static dielectric constant tensor:
#      x y z
#    x 1.792130 0.000000 0.000000 
#    y 0.000000 1.788060 0.000000 
#    z 0.000000 0.000000 1.644040 
# 
# From -- ./inp_files/38949.got.cif
#   From: 2010.05.17/outbox.cif.g08.bks.cpg/sg22_20_cif.got.tgz:38949.got - 2010.06.03 23:40:54.
