data_PCOD9326377
_publ_section_title
;
Structure prediction by ZEFSAII (Michael W. Deem and Ramdas Pophale) SiO2 
 PCOD9326377
Probable space group: F 2 2 2
;
_chemical_formula_sum "Si O2"
_cell_formula_units_Z 120
_cell_length_a 17.102696
_cell_length_b 19.046467
_cell_length_c 16.310676
_cell_angle_alpha 90.000000
_cell_angle_beta 90.000000
_cell_angle_gamma 90.000000
_cell_volume 5313.136404
_symmetry_space_group_name_H-M "F 2 2 2"
_symmetry_group_IT_number 22
_symmetry_cell_setting 'orthorhombic'
loop_
_space_group_symop_operation_xyz
x,y,z
-x,-y,z
x,-y,-z
-x,y,-z
x,1/2+y,1/2+z
-x,1/2-y,1/2+z
x,1/2-y,1/2-z
-x,1/2+y,1/2-z
1/2+x,y,1/2+z
1/2-x,-y,1/2+z
1/2+x,-y,1/2-z
1/2-x,y,1/2-z
1/2+x,1/2+y,z
1/2-x,1/2-y,z
1/2+x,1/2-y,-z
1/2-x,1/2+y,-z
loop_
_atom_site_type_symbol
_atom_site_label
_atom_site_fract_x
_atom_site_fract_y
_atom_site_fract_z
Si Si1 0.582082 0.029135 0.872647
Si Si2 0.416794 0.129226 0.284788
Si Si3 0.918106 0.151716 0.167333
Si Si4 0.319390 0.603758 0.309272
Si Si5 0.235218 0.432301 0.080551
Si Si6 0.218190 0.323341 0.550937
Si Si7 0.384813 0.499033 0.906003
Si Si8 0.750000 0.855669 0.250000
O O1 0.566141 0.086173 0.799848
O O2 0.643921 0.058782 0.939201
O O3 0.500000 0.000000 0.902938
O O4 0.628965 0.962267 0.835943
O O5 0.492446 0.171228 0.316053
O O6 0.403028 0.067956 0.352906
O O7 0.336213 0.173065 0.273536
O O8 0.871588 0.154816 0.252657
O O9 0.865518 0.185297 0.095678
O O10 0.915680 0.069071 0.140537
O O11 0.250000 0.577880 0.250000
O O12 0.278570 0.647039 0.381405
O O13 0.289804 0.500766 0.086907
O O14 0.231417 0.402298 0.171545
O O15 0.280368 0.378316 0.022801
O O16 0.250000 0.250000 0.519238
O O17 0.413102 0.500000 0.000000
#
# Coordination Sequence:
#
# PCOD9326377 Si02
#       8
#    16  16  16  16  16  16  16   8
#     4  11  19  33  61  92 131 164 197 253 330 406
#     4  10  19  33  56  96 134 165 193 249 319 407
#     4  11  20  35  60  96 128 164 206 258 320 398
#     4  10  21  34  60  91 130 156 200 254 320 393
#     4  10  21  37  59  88 127 165 213 261 326 400
#     4  11  25  44  62  85 122 174 226 277 313 366
#     4  11  19  32  54  93 133 165 195 257 334 393
#     4   8  20  36  61  88 120 168 205 250 322 384
#
# _framework density 22.585529999999999
#
# number of rings (size 3 to 8) (size 9 to 14) (size 15 to 20)
#    0.000    1.600    4.000    2.000    3.733    3.467 
#    0.000    1.667    0.000    6.400    6.933    0.000 
#    0.000    0.000    0.000    0.000    0.000    0.000 
#
# Total GULP energy -167487.117898 kJ/mol
# GULP energy per Si atom -5582.903930 kJ/mol
# Density = 2.253412 g / cm^3
# Si number density = 22.585530 Si / 1000 Ang^3
#
#
#
# Elastic Constant Matrix: (Units=GPa)
#
#
# Indices 1 2 3 4 5 6 
#
# 1 196.0208 8.1295 3.7486 0.0000 0.0000 0.0000
# 2 8.1295 51.3314 4.2828 0.0000 0.0000 0.0000
# 3 3.7486 4.2828 84.7324 0.0000 0.0000 0.0000
# 4 0.0000 0.0000 0.0000 9.5327 0.0000 0.0000
# 5 0.0000 0.0000 0.0000 0.0000 6.8983 0.0000
# 6 0.0000 0.0000 0.0000 0.0000 0.0000 6.7142
#
#
#
# Elastic Compliance Matrix: (Units=1/GPa)
#
#
# Indices 1 2 3 4 5 6 
#
# 1 0.005138 -0.000798 -0.000187 0.000000 0.000000 0.000000
# 2 -0.000798 0.019688 -0.000960 0.000000 0.000000 0.000000
# 3 -0.000187 -0.000960 0.011859 0.000000 0.000000 0.000000
# 4 0.000000 0.000000 0.000000 0.104902 0.000000 0.000000
# 5 0.000000 0.000000 0.000000 0.000000 0.144964 0.000000
# 6 0.000000 0.000000 0.000000 0.000000 0.000000 0.148938
#
#
# Mechanical properties :
#
#
# Convention : Reuss Voigt Hill
#
# Bulk Modulus (GPa) = 30.49271 40.48959 35.49115
# Shear Modulus (GPa) = 11.10345 25.69061 18.39703
#
# Velocity S-wave (km/s) = 2.21965 3.37632 2.85713
# Velocity P-wave (km/s) = 4.48324 5.75895 5.16066
#
# Compressibility (1/GPa) = 0.03279473
#
# Stress axis : x y z
#
# Youngs Moduli (GPa) = 194.62162 50.79305 84.32664
#
# Poissons Ratio (x) = 0.04054 0.01577
# Poissons Ratio (y) = 0.15534 0.08094
# Poissons Ratio (z) = 0.03639 0.04875
#
# Static dielectric constant tensor:
#      x y z
#    x 1.946310 0.000000 0.000000 
#    y 0.000000 1.813000 0.000000 
#    z 0.000000 0.000000 1.877380 
# 
# From -- ./inp_files/38276.got.cif
#   From: 2010.05.17/outbox.cif.g08.bks.cpg/sg22_20_cif.got.tgz:38276.got - 2010.06.03 23:40:54.
