data_PCOD9326339
_publ_section_title
;
Structure prediction by ZEFSAII (Michael W. Deem and Ramdas Pophale) SiO2 
 PCOD9326339
Probable space group: F 2 2 2
;
_chemical_formula_sum "Si O2"
_cell_formula_units_Z 128
_cell_length_a 16.913706
_cell_length_b 17.462615
_cell_length_c 23.582025
_cell_angle_alpha 90.000000
_cell_angle_beta 90.000000
_cell_angle_gamma 90.000000
_cell_volume 6965.128800
_symmetry_space_group_name_H-M "F 2 2 2"
_symmetry_group_IT_number 22
_symmetry_cell_setting 'orthorhombic'
loop_
_space_group_symop_operation_xyz
x,y,z
-x,-y,z
x,-y,-z
-x,y,-z
x,1/2+y,1/2+z
-x,1/2-y,1/2+z
x,1/2-y,1/2-z
-x,1/2+y,1/2-z
1/2+x,y,1/2+z
1/2-x,-y,1/2+z
1/2+x,-y,1/2-z
1/2-x,y,1/2-z
1/2+x,1/2+y,z
1/2-x,1/2-y,z
1/2+x,1/2-y,-z
1/2-x,1/2+y,-z
loop_
_atom_site_type_symbol
_atom_site_label
_atom_site_fract_x
_atom_site_fract_y
_atom_site_fract_z
Si Si1 0.079286 0.178806 0.109592
Si Si2 0.042037 0.300647 0.694590
Si Si3 0.436303 0.096008 0.548045
Si Si4 0.216408 0.928252 0.309376
Si Si5 0.644897 0.476435 0.870151
Si Si6 0.843407 0.737591 0.496775
Si Si7 0.336378 0.288714 0.615121
Si Si8 0.076691 0.471405 0.739531
O O1 0.107312 0.238813 0.061838
O O2 0.046938 0.208265 0.169383
O O3 0.997030 0.137991 0.090444
O O4 0.146063 0.112348 0.112165
O O5 0.048464 0.250000 0.750000
O O6 0.105438 0.265646 0.650389
O O7 0.066656 0.385875 0.714724
O O8 0.500000 0.076422 0.500000
O O9 0.392806 0.026890 0.579548
O O10 0.371065 0.154952 0.523142
O O11 0.250000 0.891138 0.250000
O O12 0.279905 0.977884 0.344663
O O13 0.177206 0.866495 0.350506
O O14 0.149702 0.980234 0.281229
O O15 0.586886 0.477028 0.816156
O O16 0.750000 0.750000 0.485521
O O17 0.863894 0.793917 0.549470
O O18 0.250000 0.250000 0.612284
O O19 0.000000 0.500000 0.771189
#
# Coordination Sequence:
#
# PCOD9326339 Si02
#       8
#    16  16  16  16  16  16  16  16
#     4  11  22  36  57  83 117 159 206 245 301 366
#     4  12  22  35  57  89 120 156 199 258 312 367
#     4  10  19  32  53  88 113 147 190 238 302 358
#     4  10  22  33  56  91 124 165 194 244 326 384
#     4  11  19  35  56  86 125 156 192 249 316 371
#     4  10  21  37  55  77 119 162 198 246 300 365
#     4  11  20  33  55  86 128 150 188 241 309 379
#     4  11  19  35  56  83 122 163 204 252 310 370
#
# _framework density 18.377262999999999
#
# number of rings (size 3 to 8) (size 9 to 14) (size 15 to 20)
#    0.000    1.250    5.000    3.375    0.000    3.500 
#    0.000    1.250    0.000    0.000    0.000    0.000 
#    0.000    0.000    0.000    0.000    0.000    0.000 
#
# Total GULP energy -178185.391888 kJ/mol
# GULP energy per Si atom -5568.293496 kJ/mol
# Density = 1.833544 g / cm^3
# Si number density = 18.377263 Si / 1000 Ang^3
#
#
#
# Elastic Constant Matrix: (Units=GPa)
#
#
# Indices 1 2 3 4 5 6 
#
# 1 85.1634 27.9750 36.8399 0.0000 0.0000 0.0000
# 2 27.9750 37.9244 21.1866 0.0000 0.0000 0.0000
# 3 36.8399 21.1866 93.8908 0.0000 0.0000 0.0000
# 4 0.0000 0.0000 0.0000 14.2214 0.0000 0.0000
# 5 0.0000 0.0000 0.0000 0.0000 33.9445 0.0000
# 6 0.0000 0.0000 0.0000 0.0000 0.0000 26.9074
#
#
#
# Elastic Compliance Matrix: (Units=1/GPa)
#
#
# Indices 1 2 3 4 5 6 
#
# 1 0.016936 -0.010047 -0.004378 0.000000 0.000000 0.000000
# 2 -0.010047 0.036132 -0.004211 0.000000 0.000000 0.000000
# 3 -0.004378 -0.004211 0.013319 0.000000 0.000000 0.000000
# 4 0.000000 0.000000 0.000000 0.070317 0.000000 0.000000
# 5 0.000000 0.000000 0.000000 0.000000 0.029460 0.000000
# 6 0.000000 0.000000 0.000000 0.000000 0.000000 0.037164
#
#
# Mechanical properties :
#
#
# Convention : Reuss Voigt Hill
#
# Bulk Modulus (GPa) = 34.34730 43.22019 38.78375
# Shear Modulus (GPa) = 19.97553 23.74647 21.86100
#
# Velocity S-wave (km/s) = 3.30050 3.59857 3.45275
# Velocity P-wave (km/s) = 5.76672 6.39028 6.08649
#
# Compressibility (1/GPa) = 0.02911437
#
# Stress axis : x y z
#
# Youngs Moduli (GPa) = 59.04424 27.67614 75.08216
#
# Poissons Ratio (x) = 0.27807 0.32872
# Poissons Ratio (y) = 0.59324 0.31617
# Poissons Ratio (z) = 0.25850 0.11654
#
# Static dielectric constant tensor:
#      x y z
#    x 1.679320 0.000000 0.000000 
#    y 0.000000 1.704090 0.000000 
#    z 0.000000 0.000000 1.727400 
# 
# From -- ./inp_files/49560.got.cif
#   From: 2010.05.17/outbox.cif.g08.bks.cpg/sg22_25_cif.got.tgz:49560.got - 2010.06.03 23:40:54.
