data_PCOD9326666
_publ_section_title
;
Structure prediction by ZEFSAII (Michael W. Deem and Ramdas Pophale) SiO2 
 PCOD9326666
Probable space group: F 2 2 2
;
_chemical_formula_sum "Si O2"
_cell_formula_units_Z 72
_cell_length_a 15.709814
_cell_length_b 11.988883
_cell_length_c 19.971715
_cell_angle_alpha 90.000000
_cell_angle_beta 90.000000
_cell_angle_gamma 90.000000
_cell_volume 3761.535155
_symmetry_space_group_name_H-M "F 2 2 2"
_symmetry_group_IT_number 22
_symmetry_cell_setting 'orthorhombic'
loop_
_space_group_symop_operation_xyz
x,y,z
-x,-y,z
x,-y,-z
-x,y,-z
x,1/2+y,1/2+z
-x,1/2-y,1/2+z
x,1/2-y,1/2-z
-x,1/2+y,1/2-z
1/2+x,y,1/2+z
1/2-x,-y,1/2+z
1/2+x,-y,1/2-z
1/2-x,y,1/2-z
1/2+x,1/2+y,z
1/2-x,1/2-y,z
1/2+x,1/2-y,-z
1/2-x,1/2+y,-z
loop_
_atom_site_type_symbol
_atom_site_label
_atom_site_fract_x
_atom_site_fract_y
_atom_site_fract_z
Si Si1 0.656109 0.000000 0.000000
Si Si2 0.530576 0.621100 0.923426
Si Si3 0.875146 0.992768 0.354594
Si Si4 0.506547 0.312085 0.680865
Si Si5 0.731614 0.625326 0.905030
O O1 0.716655 0.899896 0.973932
O O2 0.605341 0.030467 0.933563
O O3 0.500000 0.500000 0.899243
O O4 0.496364 0.721370 0.878057
O O5 0.632506 0.616356 0.917834
O O6 0.500000 0.635019 0.000000
O O7 0.906184 0.883391 0.316910
O O8 0.932584 0.096879 0.332215
O O9 0.777290 0.034531 0.356630
O O10 0.491229 0.250000 0.750000
O O11 0.750000 0.750000 0.881033
#
# Coordination Sequence:
#
# PCOD9326666 Si02
#       5
#     8  16  16  16  16
#     4   8  18  35  67  94 126 158 220 274 327 401
#     4  11  24  39  63 100 134 173 219 281 350 388
#     4   9  22  40  68  96 127 174 226 277 344 400
#     4  11  24  41  66  93 137 178 226 284 337 407
#     4  10  19  40  63 100 132 171 222 274 340 411
#
# _framework density 19.141121999999999
#
# number of rings (size 3 to 8) (size 9 to 14) (size 15 to 20)
#    1.333    0.667    2.222    1.333    9.333    0.889 
#    0.000    3.333    0.000    1.333    0.000    0.000 
#    0.000    0.000    0.000    0.000    0.000    0.000 
#
# Total GULP energy -100212.626758 kJ/mol
# GULP energy per Si atom -5567.368153 kJ/mol
# Density = 1.909756 g / cm^3
# Si number density = 19.141122 Si / 1000 Ang^3
#
#
#
# Elastic Constant Matrix: (Units=GPa)
#
#
# Indices 1 2 3 4 5 6 
#
# 1 119.5297 41.5497 18.5861 0.0000 0.0000 0.0000
# 2 41.5497 116.7442 44.3164 0.0000 0.0000 0.0000
# 3 18.5861 44.3164 47.7460 0.0000 0.0000 0.0000
# 4 0.0000 0.0000 0.0000 24.1397 0.0000 0.0000
# 5 0.0000 0.0000 0.0000 0.0000 668.1305 0.0000
# 6 0.0000 0.0000 0.0000 0.0000 0.0000 7.8471
#
#
#
# Elastic Compliance Matrix: (Units=1/GPa)
#
#
# Indices 1 2 3 4 5 6 
#
# 1 0.009571 -0.003076 -0.000871 0.000000 0.000000 0.000000
# 2 -0.003076 0.014214 -0.011996 0.000000 0.000000 0.000000
# 3 -0.000871 -0.011996 0.032417 0.000000 0.000000 0.000000
# 4 0.000000 0.000000 0.000000 0.041425 0.000000 0.000000
# 5 0.000000 0.000000 0.000000 0.000000 0.001497 0.000000
# 6 0.000000 0.000000 0.000000 0.000000 0.000000 0.127436
#
#
# Mechanical properties :
#
#
# Convention : Reuss Voigt Hill
#
# Bulk Modulus (GPa) = 41.12281 54.76935 47.94608
# Shear Modulus (GPa) = 18.75820 151.99466 85.37643
#
# Velocity S-wave (km/s) = 3.13388 8.92075 6.68584
# Velocity P-wave (km/s) = 5.88435 11.60956 9.20347
#
# Compressibility (1/GPa) = 0.02431741
#
# Stress axis : x y z
#
# Youngs Moduli (GPa) = 104.48599 70.35336 30.84787
#
# Poissons Ratio (x) = 0.21638 0.02686
# Poissons Ratio (y) = 0.32136 0.37004
# Poissons Ratio (z) = 0.09099 0.84394
#
# Static dielectric constant tensor:
#      x y z
#    x 1.710730 0.000000 0.000000 
#    y 0.000000 1.612050 0.000000 
#    z 0.000000 0.000000 1.675880 
# 
# From -- ./inp_files/44052.got.cif
#   From: 2010.05.17/outbox.cif.g08.bks.cpg/sg22_23_cif.got.tgz:44052.got - 2010.06.03 23:40:54.
