data_PCOD9326905
_publ_section_title
;
Structure prediction by ZEFSAII (Michael W. Deem and Ramdas Pophale) SiO2 
 PCOD9326905
Probable space group: F 2 2 2
;
_chemical_formula_sum "Si O2"
_cell_formula_units_Z 52
_cell_length_a 18.935621
_cell_length_b 27.075227
_cell_length_c 4.964842
_cell_angle_alpha 90.000000
_cell_angle_beta 90.000000
_cell_angle_gamma 90.000000
_cell_volume 2545.406162
_symmetry_space_group_name_H-M "F 2 2 2"
_symmetry_group_IT_number 22
_symmetry_cell_setting 'orthorhombic'
loop_
_space_group_symop_operation_xyz
x,y,z
-x,-y,z
x,-y,-z
-x,y,-z
x,1/2+y,1/2+z
-x,1/2-y,1/2+z
x,1/2-y,1/2-z
-x,1/2+y,1/2-z
1/2+x,y,1/2+z
1/2-x,-y,1/2+z
1/2+x,-y,1/2-z
1/2-x,y,1/2-z
1/2+x,1/2+y,z
1/2-x,1/2-y,z
1/2+x,1/2-y,-z
1/2-x,1/2+y,-z
loop_
_atom_site_type_symbol
_atom_site_label
_atom_site_fract_x
_atom_site_fract_y
_atom_site_fract_z
Si Si1 0.110309 0.579717 0.652216
Si Si2 0.750000 0.471099 0.750000
Si Si3 0.948566 0.750000 0.750000
Si Si4 0.577827 0.856375 0.865660
Si Si5 0.500000 0.500000 0.000000
O O1 0.187145 0.557483 0.600267
O O2 0.083560 0.615347 0.415093
O O3 0.052192 0.535847 0.669069
O O4 0.120341 0.611860 0.919799
O O5 0.714697 0.500000 0.500000
O O6 0.905091 0.798795 0.675093
O O7 0.000000 0.736836 0.500000
O O8 0.500000 0.856374 0.000000
#
# Coordination Sequence:
#
# PCOD9326905 Si02
#       5
#    16   8   8  16   4
#     4  12  25  39  64  91 133 167 220 268 330 386
#     4  12  26  44  62  91 134 187 222 264 328 404
#     4  10  20  36  62  93 130 161 206 280 348 392
#     4  11  21  39  62  95 123 164 214 274 331 390
#     4  12  24  42  64  98 128 172 216 286 312 380
#
# _framework density 20.42896
#
# number of rings (size 3 to 8) (size 9 to 14) (size 15 to 20)
#    0.000    0.615    4.615    5.538    0.000    1.231 
#    0.000    0.000    0.000    5.538    0.000    0.000 
#    0.000    0.000    0.000    0.000    0.000    0.000 
#
# Total GULP energy -72585.393202 kJ/mol
# GULP energy per Si atom -5583.491785 kJ/mol
# Density = 2.038246 g / cm^3
# Si number density = 20.428960 Si / 1000 Ang^3
#
#
#
# Elastic Constant Matrix: (Units=GPa)
#
#
# Indices 1 2 3 4 5 6 
#
# 1 71.2956 28.6326 -5.7544 -0.0236 -0.1460 -0.0119
# 2 28.6326 146.9314 42.3135 -0.0312 -0.0317 -0.0055
# 3 -5.7544 42.3135 101.2545 -0.0031 -0.0349 -0.0589
# 4 -0.0236 -0.0312 -0.0031 33.9853 0.0077 -0.1432
# 5 -0.1460 -0.0317 -0.0349 0.0077 26.2867 0.0378
# 6 -0.0119 -0.0055 -0.0589 -0.1432 0.0378 32.5856
#
#
#
# Elastic Compliance Matrix: (Units=1/GPa)
#
#
# Indices 1 2 3 4 5 6 
#
# 1 0.015744 -0.003781 0.002475 0.000008 0.000086 0.000010
# 2 -0.003781 0.008645 -0.003828 0.000005 -0.000016 -0.000007
# 3 0.002475 -0.003828 0.011616 -0.000001 0.000025 0.000021
# 4 0.000008 0.000005 -0.000001 0.029425 -0.000009 0.000129
# 5 0.000086 -0.000016 0.000025 -0.000009 0.038043 -0.000044
# 6 0.000010 -0.000007 0.000021 0.000129 -0.000044 0.030689
#
#
# Mechanical properties :
#
#
# Convention : Reuss Voigt Hill
#
# Bulk Modulus (GPa) = 38.85230 49.98498 44.41864
# Shear Modulus (GPa) = 32.67786 35.52419 34.10103
#
# Velocity S-wave (km/s) = 4.00382 4.17455 4.09008
# Velocity P-wave (km/s) = 6.35874 6.91062 6.64042
#
# Compressibility (1/GPa) = 0.02573850
#
# Stress axis : x y z
#
# Youngs Moduli (GPa) = 63.51461 115.67496 86.08625
#
# Poissons Ratio (x) = 0.43734 -0.21304
# Poissons Ratio (y) = 0.24014 0.32950
# Poissons Ratio (z) = -0.15718 0.44275
#
# Static dielectric constant tensor:
#      x y z
#    x 1.920490 -0.000880 0.004290 
#    y -0.000880 1.760380 0.000060 
#    z 0.004290 0.000060 1.666840 
# 
# From -- ./inp_files/2541.got.cif
#   From: 2010.05.17/outbox.cif.g08.bks.cpg/sg22_2_cif.got.tgz:2541.got - 2010.06.03 23:40:54.
