data_PCOD9326836
_publ_section_title
;
Structure prediction by ZEFSAII (Michael W. Deem and Ramdas Pophale) SiO2 
 PCOD9326836
Probable space group: F 2 2 2
;
_chemical_formula_sum "Si O2"
_cell_formula_units_Z 112
_cell_length_a 15.543408
_cell_length_b 26.266167
_cell_length_c 14.794943
_cell_angle_alpha 90.000000
_cell_angle_beta 90.000000
_cell_angle_gamma 90.000000
_cell_volume 6040.268504
_symmetry_space_group_name_H-M "F 2 2 2"
_symmetry_group_IT_number 22
_symmetry_cell_setting 'orthorhombic'
loop_
_space_group_symop_operation_xyz
x,y,z
-x,-y,z
x,-y,-z
-x,y,-z
x,1/2+y,1/2+z
-x,1/2-y,1/2+z
x,1/2-y,1/2-z
-x,1/2+y,1/2-z
1/2+x,y,1/2+z
1/2-x,-y,1/2+z
1/2+x,-y,1/2-z
1/2-x,y,1/2-z
1/2+x,1/2+y,z
1/2-x,1/2-y,z
1/2+x,1/2-y,-z
1/2-x,1/2+y,-z
loop_
_atom_site_type_symbol
_atom_site_label
_atom_site_fract_x
_atom_site_fract_y
_atom_site_fract_z
Si Si1 0.962791 0.944840 0.600382
Si Si2 0.045263 0.655493 0.210155
Si Si3 0.771339 0.345643 0.902546
Si Si4 0.867437 0.808759 0.228787
Si Si5 0.692276 0.108383 0.327352
Si Si6 0.729772 0.057391 0.027365
Si Si7 0.693786 0.300182 0.407199
O O1 0.987410 0.894503 0.655890
O O2 0.859576 0.940730 0.585168
O O3 0.000000 0.940202 0.500000
O O4 0.000000 0.000000 0.634142
O O5 0.108659 0.631723 0.284386
O O6 0.101665 0.691855 0.142635
O O7 0.968877 0.683545 0.261590
O O8 0.828417 0.340176 0.813185
O O9 0.678339 0.327008 0.863968
O O10 0.773350 0.401908 0.945932
O O11 0.806967 0.310469 0.984818
O O12 0.846768 0.750000 0.250000
O O13 0.750000 0.082812 0.250000
O O14 0.688338 0.071432 0.411405
O O15 0.750014 0.154451 0.364963
O O16 0.736214 0.000000 0.000000
O O17 0.750000 0.250000 0.388552
#
# Coordination Sequence:
#
# PCOD9326836 Si02
#       7
#    16  16  16  16  16  16  16
#     4  11  20  34  59  87 122 148 194 267 311 354
#     4  11  23  38  59  94 126 157 206 263 311 372
#     4  10  21  44  60  85 124 167 200 257 314 386
#     4  11  24  39  62  89 131 162 208 259 316 379
#     4   9  19  37  56  84 121 155 193 252 301 374
#     4  11  20  39  64  85 115 163 209 251 314 375
#     4  10  20  35  65  85 119 163 206 241 307 375
#
# _framework density 18.542223
#
# number of rings (size 3 to 8) (size 9 to 14) (size 15 to 20)
#    0.000    1.571    5.714    2.571    2.000    2.000 
#    5.143    2.857    0.000    0.857    0.000    0.000 
#    0.000    0.000    0.000    0.000    0.000    0.000 
#
# Total GULP energy -155932.363816 kJ/mol
# GULP energy per Si atom -5569.012993 kJ/mol
# Density = 1.850002 g / cm^3
# Si number density = 18.542223 Si / 1000 Ang^3
#
#
#
# Elastic Constant Matrix: (Units=GPa)
#
#
# Indices 1 2 3 4 5 6 
#
# 1 98.3784 22.7765 29.7532 0.0000 0.0000 0.0000
# 2 22.7765 100.7967 18.2774 0.0000 0.0000 0.0000
# 3 29.7532 18.2774 60.6719 0.0000 0.0000 0.0000
# 4 0.0000 0.0000 0.0000 0.7621 0.0000 0.0000
# 5 0.0000 0.0000 0.0000 0.0000 27.9900 0.0000
# 6 0.0000 0.0000 0.0000 0.0000 0.0000 21.2038
#
#
#
# Elastic Compliance Matrix: (Units=1/GPa)
#
#
# Indices 1 2 3 4 5 6 
#
# 1 0.012227 -0.001772 -0.005462 0.000000 0.000000 0.000000
# 2 -0.001772 0.010751 -0.002370 0.000000 0.000000 0.000000
# 3 -0.005462 -0.002370 0.019875 0.000000 0.000000 0.000000
# 4 0.000000 0.000000 0.000000 1.312111 0.000000 0.000000
# 5 0.000000 0.000000 0.000000 0.000000 0.035727 0.000000
# 6 0.000000 0.000000 0.000000 0.000000 0.000000 0.047161
#
#
# Mechanical properties :
#
#
# Convention : Reuss Voigt Hill
#
# Bulk Modulus (GPa) = 42.29327 44.60680 43.45003
# Shear Modulus (GPa) = 3.41310 22.59384 13.00347
#
# Velocity S-wave (km/s) = 1.35820 3.49450 2.65106
# Velocity P-wave (km/s) = 5.03173 6.35540 5.73190
#
# Compressibility (1/GPa) = 0.02364442
#
# Stress axis : x y z
#
# Youngs Moduli (GPa) = 81.78527 93.01331 50.31561
#
# Poissons Ratio (x) = 0.16486 0.27483
# Poissons Ratio (y) = 0.14496 0.11923
# Poissons Ratio (z) = 0.44673 0.22040
#
# Static dielectric constant tensor:
#      x y z
#    x 1.696250 0.000000 0.000000 
#    y 0.000000 1.690320 0.000000 
#    z 0.000000 0.000000 1.691450 
# 
# From -- ./inp_files/29754.got.cif
#   From: 2010.05.17/outbox.cif.g08.bks.cpg/sg22_15_cif.got.tgz:29754.got - 2010.06.03 23:40:54.
