data_PCOD9326799
_publ_section_title
;
Structure prediction by ZEFSAII (Michael W. Deem and Ramdas Pophale) SiO2 
 PCOD9326799
Probable space group: F 2 2 2
;
_chemical_formula_sum "Si O2"
_cell_formula_units_Z 104
_cell_length_a 27.724795
_cell_length_b 15.722487
_cell_length_c 14.218671
_cell_angle_alpha 90.000000
_cell_angle_beta 90.000000
_cell_angle_gamma 90.000000
_cell_volume 6197.957491
_symmetry_space_group_name_H-M "F 2 2 2"
_symmetry_group_IT_number 22
_symmetry_cell_setting 'orthorhombic'
loop_
_space_group_symop_operation_xyz
x,y,z
-x,-y,z
x,-y,-z
-x,y,-z
x,1/2+y,1/2+z
-x,1/2-y,1/2+z
x,1/2-y,1/2-z
-x,1/2+y,1/2-z
1/2+x,y,1/2+z
1/2-x,-y,1/2+z
1/2+x,-y,1/2-z
1/2-x,y,1/2-z
1/2+x,1/2+y,z
1/2-x,1/2-y,z
1/2+x,1/2-y,-z
1/2-x,1/2+y,-z
loop_
_atom_site_type_symbol
_atom_site_label
_atom_site_fract_x
_atom_site_fract_y
_atom_site_fract_z
Si Si1 0.664127 0.816505 0.505048
Si Si2 0.750000 0.250000 0.400701
Si Si3 0.851256 0.494037 0.287484
Si Si4 0.892556 0.832710 0.186605
Si Si5 0.829865 0.000000 0.000000
Si Si6 0.905818 0.332276 0.314071
Si Si7 0.004983 0.899317 0.887674
Si Si8 0.750000 0.097706 0.250000
O O1 0.702811 0.747987 0.535231
O O2 0.638506 0.807668 0.405555
O O3 0.693238 0.907138 0.500758
O O4 0.625314 0.821873 0.589803
O O5 0.750037 0.165390 0.336041
O O6 0.866465 0.588718 0.258529
O O7 0.858170 0.500742 0.401674
O O8 0.885495 0.415778 0.260780
O O9 0.797341 0.461902 0.262369
O O10 0.898210 0.750000 0.250000
O O11 0.944024 0.866467 0.149982
O O12 0.899006 0.250000 0.250000
O O13 0.960913 0.349534 0.340232
O O14 0.000000 0.000000 0.868185
O O15 0.000000 0.888381 0.000000
#
# Coordination Sequence:
#
# PCOD9326799 Si02
#       8
#    16   8  16  16   8  16  16   8
#     4  10  20  35  55  83 113 147 196 240 289 346
#     4  11  20  34  57  86 116 152 193 254 303 344
#     4  10  20  35  55  83 113 147 196 240 289 346
#     4  11  23  42  57  81 123 161 193 244 290 357
#     4   8  16  32  52  73 108 144 172 245 290 308
#     4  11  19  34  59  89 113 143 185 248 301 346
#     4  11  21  34  64  92 113 145 192 246 308 348
#     4  11  20  34  57  86 116 152 193 254 303 344
#
# _framework density 16.779722
#
# number of rings (size 3 to 8) (size 9 to 14) (size 15 to 20)
#    0.000    1.538    6.154    1.385    0.000    0.000 
#    5.538    0.000    0.000    2.769    0.000    2.154 
#    0.000    0.000    0.000    0.000    0.000    0.000 
#
# Total GULP energy -144738.977780 kJ/mol
# GULP energy per Si atom -5566.883761 kJ/mol
# Density = 1.674153 g / cm^3
# Si number density = 16.779722 Si / 1000 Ang^3
#
#
#
# Elastic Constant Matrix: (Units=GPa)
#
#
# Indices 1 2 3 4 5 6 
#
# 1 124.5293 53.1367 36.7496 0.0000 0.0000 0.0000
# 2 53.1367 129.0264 53.2624 0.0000 0.0000 0.0000
# 3 36.7496 53.2624 64.3246 0.0000 0.0000 0.0000
# 4 0.0000 0.0000 0.0000 22.7991 0.0000 0.0000
# 5 0.0000 0.0000 0.0000 0.0000 1.6383 0.0000
# 6 0.0000 0.0000 0.0000 0.0000 0.0000 30.9673
#
#
#
# Elastic Compliance Matrix: (Units=1/GPa)
#
#
# Indices 1 2 3 4 5 6 
#
# 1 0.010260 -0.002743 -0.003590 0.000000 0.000000 0.000000
# 2 -0.002743 0.012509 -0.008790 0.000000 0.000000 0.000000
# 3 -0.003590 -0.008790 0.024876 0.000000 0.000000 0.000000
# 4 0.000000 0.000000 0.000000 0.043861 0.000000 0.000000
# 5 0.000000 0.000000 0.000000 0.000000 0.610389 0.000000
# 6 0.000000 0.000000 0.000000 0.000000 0.000000 0.032292
#
#
# Mechanical properties :
#
#
# Convention : Reuss Voigt Hill
#
# Bulk Modulus (GPa) = 57.48066 67.13085 62.30576
# Shear Modulus (GPa) = 6.49153 22.72972 14.61062
#
# Velocity S-wave (km/s) = 1.96903 3.68447 2.95402
# Velocity P-wave (km/s) = 6.28489 7.62853 6.98907
#
# Compressibility (1/GPa) = 0.01739715
#
# Stress axis : x y z
#
# Youngs Moduli (GPa) = 97.46226 79.94365 40.19963
#
# Poissons Ratio (x) = 0.21932 0.14433
# Poissons Ratio (y) = 0.26738 0.35336
# Poissons Ratio (z) = 0.34991 0.70272
#
# Static dielectric constant tensor:
#      x y z
#    x 1.576260 0.000000 0.000000 
#    y 0.000000 1.599240 0.000000 
#    z 0.000000 0.000000 1.569050 
# 
# From -- ./inp_files/24697.got.cif
#   From: 2010.05.17/outbox.cif.g08.bks.cpg/sg22_13_cif.got.tgz:24697.got - 2010.06.03 23:40:54.
