data_PCOD9326862
_publ_section_title
;
Structure prediction by ZEFSAII (Michael W. Deem and Ramdas Pophale) SiO2 
 PCOD9326862
Probable space group: F 2 2 2
;
_chemical_formula_sum "Si O2"
_cell_formula_units_Z 92
_cell_length_a 11.247074
_cell_length_b 16.508131
_cell_length_c 25.350618
_cell_angle_alpha 90.000000
_cell_angle_beta 90.000000
_cell_angle_gamma 90.000000
_cell_volume 4706.802877
_symmetry_space_group_name_H-M "F 2 2 2"
_symmetry_group_IT_number 22
_symmetry_cell_setting 'orthorhombic'
loop_
_space_group_symop_operation_xyz
x,y,z
-x,-y,z
x,-y,-z
-x,y,-z
x,1/2+y,1/2+z
-x,1/2-y,1/2+z
x,1/2-y,1/2-z
-x,1/2+y,1/2-z
1/2+x,y,1/2+z
1/2-x,-y,1/2+z
1/2+x,-y,1/2-z
1/2-x,y,1/2-z
1/2+x,1/2+y,z
1/2-x,1/2-y,z
1/2+x,1/2-y,-z
1/2-x,1/2+y,-z
loop_
_atom_site_type_symbol
_atom_site_label
_atom_site_fract_x
_atom_site_fract_y
_atom_site_fract_z
Si Si1 0.000000 0.000000 0.306297
Si Si2 0.750000 0.750000 0.922281
Si Si3 0.500000 0.500000 0.864559
Si Si4 0.876057 0.397889 0.720892
Si Si5 0.250000 0.250000 0.750000
Si Si6 0.391053 0.740431 0.859399
Si Si7 0.037565 0.858734 0.057103
Si Si8 0.892982 0.648358 0.837835
O O1 0.099949 0.949570 0.337112
O O2 0.959702 0.929266 0.266981
O O3 0.850378 0.800058 0.952048
O O4 0.814117 0.684476 0.884932
O O5 0.398783 0.537951 0.826455
O O6 0.556862 0.568175 0.901904
O O7 0.750000 0.393503 0.750000
O O8 0.909791 0.314603 0.692790
O O9 0.167881 0.308313 0.786764
O O10 0.250000 0.750000 0.863725
O O11 0.440569 0.694714 0.910997
O O12 0.474076 0.818008 0.850348
O O13 0.000000 0.889321 0.000000
#
# Coordination Sequence:
#
# PCOD9326862 Si02
#       8
#     8   8   8  16   4  16  16  16
#     4  11  22  30  51  84 114 153 202 228 289 336
#     4   9  22  39  60  84 118 154 197 250 305 368
#     4   9  21  38  57  90 122 149 203 250 295 352
#     4  10  21  33  53  80 118 157 192 233 283 353
#     4  10  20  36  58  72 116 166 212 230 290 356
#     4  10  21  39  56  83 118 156 198 249 306 358
#     4  10  21  39  66  88 116 152 206 255 311 364
#     4  10  21  36  55  82 117 159 199 249 291 358
#
# _framework density 19.546177
#
# number of rings (size 3 to 8) (size 9 to 14) (size 15 to 20)
#    0.000    2.087    0.000    2.348    4.870    4.522 
#    0.000    0.000    0.000    0.000    0.000    5.478 
#    0.000    0.000    0.000    0.000    0.000    0.000 
#
# Total GULP energy -128148.277792 kJ/mol
# GULP energy per Si atom -5571.664252 kJ/mol
# Density = 1.950169 g / cm^3
# Si number density = 19.546177 Si / 1000 Ang^3
#
#
#
# Elastic Constant Matrix: (Units=GPa)
#
#
# Indices 1 2 3 4 5 6 
#
# 1 70.5100 10.5258 3.8342 0.0000 0.0000 0.0000
# 2 10.5258 68.2788 20.0796 0.0000 0.0000 0.0000
# 3 3.8342 20.0796 75.9560 0.0000 0.0000 0.0000
# 4 0.0000 0.0000 0.0000 12.9448 0.0000 0.0000
# 5 0.0000 0.0000 0.0000 0.0000 5.3136 0.0000
# 6 0.0000 0.0000 0.0000 0.0000 0.0000 24.2784
#
#
#
# Elastic Compliance Matrix: (Units=1/GPa)
#
#
# Indices 1 2 3 4 5 6 
#
# 1 0.014518 -0.002193 -0.000153 0.000000 0.000000 0.000000
# 2 -0.002193 0.016212 -0.004175 0.000000 0.000000 0.000000
# 3 -0.000153 -0.004175 0.014277 0.000000 0.000000 0.000000
# 4 0.000000 0.000000 0.000000 0.077251 0.000000 0.000000
# 5 0.000000 0.000000 0.000000 0.000000 0.188195 0.000000
# 6 0.000000 0.000000 0.000000 0.000000 0.000000 0.041189
#
#
# Mechanical properties :
#
#
# Convention : Reuss Voigt Hill
#
# Bulk Modulus (GPa) = 31.28480 31.51377 31.39929
# Shear Modulus (GPa) = 13.32129 20.52771 16.92450
#
# Velocity S-wave (km/s) = 2.61344 3.24422 2.94576
# Velocity P-wave (km/s) = 5.01469 5.49463 5.26014
#
# Compressibility (1/GPa) = 0.03196441
#
# Stress axis : x y z
#
# Youngs Moduli (GPa) = 68.87952 61.68381 70.04305
#
# Poissons Ratio (x) = 0.13528 0.01072
# Poissons Ratio (y) = 0.15106 0.29243
# Poissons Ratio (z) = 0.01055 0.25753
#
# Static dielectric constant tensor:
#      x y z
#    x 1.734390 0.000000 0.000000 
#    y 0.000000 1.729980 0.000000 
#    z 0.000000 0.000000 1.675270 
# 
# From -- ./inp_files/48207.got.cif
#   From: 2010.05.17/outbox.cif.g08.bks.cpg/sg22_25_cif.got.tgz:48207.got - 2010.06.03 23:40:54.
