data_PCOD9326428
_publ_section_title
;
Structure prediction by ZEFSAII (Michael W. Deem and Ramdas Pophale) SiO2 
 PCOD9326428
Probable space group: F 2 2 2
;
_chemical_formula_sum "Si O2"
_cell_formula_units_Z 56
_cell_length_a 16.369585
_cell_length_b 5.131780
_cell_length_c 30.229143
_cell_angle_alpha 90.000000
_cell_angle_beta 90.000000
_cell_angle_gamma 90.000000
_cell_volume 2539.402450
_symmetry_space_group_name_H-M "F 2 2 2"
_symmetry_group_IT_number 22
_symmetry_cell_setting 'orthorhombic'
loop_
_space_group_symop_operation_xyz
x,y,z
-x,-y,z
x,-y,-z
-x,y,-z
x,1/2+y,1/2+z
-x,1/2-y,1/2+z
x,1/2-y,1/2-z
-x,1/2+y,1/2-z
1/2+x,y,1/2+z
1/2-x,-y,1/2+z
1/2+x,-y,1/2-z
1/2-x,y,1/2-z
1/2+x,1/2+y,z
1/2-x,1/2-y,z
1/2+x,1/2-y,-z
1/2-x,1/2+y,-z
loop_
_atom_site_type_symbol
_atom_site_label
_atom_site_fract_x
_atom_site_fract_y
_atom_site_fract_z
Si Si1 0.305283 0.500000 0.500000
Si Si2 0.157879 0.498631 0.270225
Si Si3 0.340399 0.144549 0.371603
Si Si4 0.588810 0.883019 0.913322
O O1 0.250000 0.750000 0.508681
O O2 0.358002 0.558980 0.456703
O O3 0.116848 0.750000 0.250000
O O4 0.250000 0.499404 0.250000
O O5 0.165374 0.472914 0.322569
O O6 0.114865 0.250000 0.250000
O O7 0.250000 0.250000 0.385411
O O8 0.387815 0.417898 0.373846
O O9 0.387049 0.915702 0.399601
O O10 0.500000 0.000000 0.925072
#
# Coordination Sequence:
#
# PCOD9326428 Si02
#       4
#     8  16  16  16
#     4  12  25  48  73 104 134 170 240 296 333 412
#     4  10  19  34  59 100 130 163 227 296 353 386
#     4  12  23  41  71 104 134 177 245 297 335 415
#     4  12  27  45  68 100 147 189 221 278 373 434
#
# _framework density 22.052432
#
# number of rings (size 3 to 8) (size 9 to 14) (size 15 to 20)
#    0.000    0.571    2.857    8.143    4.000    0.000 
#    0.000    4.286    0.000   17.143    0.000    0.000 
#    0.000    0.000    0.000    0.000    0.000    0.000 
#
# Total GULP energy -78022.712575 kJ/mol
# GULP energy per Si atom -5573.050898 kJ/mol
# Density = 2.200224 g / cm^3
# Si number density = 22.052432 Si / 1000 Ang^3
#
#
#
# Elastic Constant Matrix: (Units=GPa)
#
#
# Indices 1 2 3 4 5 6 
#
# 1 70.3925 22.8138 14.8045 0.0000 0.0000 0.0000
# 2 22.8138 192.2833 14.8028 0.0000 0.0000 0.0000
# 3 14.8045 14.8028 107.5554 0.0000 0.0000 0.0000
# 4 0.0000 0.0000 0.0000 29.7643 0.0000 0.0000
# 5 0.0000 0.0000 0.0000 0.0000 -7.4689 0.0000
# 6 0.0000 0.0000 0.0000 0.0000 0.0000 21.0630
#
#
#
# Elastic Compliance Matrix: (Units=1/GPa)
#
#
# Indices 1 2 3 4 5 6 
#
# 1 0.015132 -0.001653 -0.001855 0.000000 0.000000 0.000000
# 2 -0.001653 0.005437 -0.000521 0.000000 0.000000 0.000000
# 3 -0.001855 -0.000521 0.009625 0.000000 0.000000 0.000000
# 4 0.000000 0.000000 0.000000 0.033597 0.000000 0.000000
# 5 0.000000 0.000000 0.000000 0.000000 -0.133889 0.000000
# 6 0.000000 0.000000 0.000000 0.000000 0.000000 0.047477
#
#
# Mechanical properties :
#
#
# Convention : Reuss Voigt Hill
#
# Bulk Modulus (GPa) = 45.17558 52.78592 48.98075
# Shear Modulus (GPa) = -695.83018 29.85902 -332.98558
#
# Velocity S-wave (km/s) = -17.78256 3.68367 -12.30142
# Velocity P-wave (km/s) = 20.02738 6.48699 13.39804
#
# Compressibility (1/GPa) = 0.02213585
#
# Stress axis : x y z
#
# Youngs Moduli (GPa) = 66.08579 183.93104 103.90045
#
# Poissons Ratio (x) = 0.30395 0.19278
# Poissons Ratio (y) = 0.10921 0.05411
# Poissons Ratio (z) = 0.12261 0.09579
#
# Static dielectric constant tensor:
#      x y z
#    x 1.932980 0.000000 0.000000 
#    y 0.000000 1.817910 0.000000 
#    z 0.000000 0.000000 1.799830 
# 
# From -- ./inp_files/40159.got.cif
#   From: 2010.05.17/outbox.cif.g08.bks.cpg/sg22_21_cif.got.tgz:40159.got - 2010.06.03 23:40:54.
