data_PCOD9326899
_publ_section_title
;
Structure prediction by ZEFSAII (Michael W. Deem and Ramdas Pophale) SiO2 
 PCOD9326899
Probable space group: F 2 2 2
;
_chemical_formula_sum "Si O2"
_cell_formula_units_Z 84
_cell_length_a 20.272399
_cell_length_b 18.903058
_cell_length_c 9.599468
_cell_angle_alpha 90.000000
_cell_angle_beta 90.000000
_cell_angle_gamma 90.000000
_cell_volume 3678.615339
_symmetry_space_group_name_H-M "F 2 2 2"
_symmetry_group_IT_number 22
_symmetry_cell_setting 'orthorhombic'
loop_
_space_group_symop_operation_xyz
x,y,z
-x,-y,z
x,-y,-z
-x,y,-z
x,1/2+y,1/2+z
-x,1/2-y,1/2+z
x,1/2-y,1/2-z
-x,1/2+y,1/2-z
1/2+x,y,1/2+z
1/2-x,-y,1/2+z
1/2+x,-y,1/2-z
1/2-x,y,1/2-z
1/2+x,1/2+y,z
1/2-x,1/2-y,z
1/2+x,1/2-y,-z
1/2-x,1/2+y,-z
loop_
_atom_site_type_symbol
_atom_site_label
_atom_site_fract_x
_atom_site_fract_y
_atom_site_fract_z
Si Si1 0.420587 0.363723 0.984247
Si Si2 0.340540 0.500000 0.000000
Si Si3 0.333256 0.132781 0.094247
Si Si4 0.750000 0.984283 0.250000
Si Si5 0.828217 0.834381 0.728118
Si Si6 0.949110 0.281105 0.884990
Si Si7 0.250000 0.750000 0.750000
O O1 0.383955 0.432535 0.045391
O O2 0.386096 0.360880 0.832088
O O3 0.500000 0.371947 0.000000
O O4 0.408158 0.286423 0.054139
O O5 0.294871 0.479950 0.868114
O O6 0.299009 0.064282 0.156953
O O7 0.404591 0.152781 0.153734
O O8 0.289602 0.198023 0.149331
O O9 0.340364 0.137712 0.928271
O O10 0.832170 0.750000 0.750000
O O11 0.750000 0.850128 0.750000
O O12 0.984327 0.250000 0.750000
O O13 0.000000 0.302461 0.000000
#
# Coordination Sequence:
#
# PCOD9326899 Si02
#       7
#    16   8  16   8  16  16   4
#     4  11  26  44  70 100 142 192 235 286 361 438
#     4  12  27  50  68  98 133 194 248 296 342 431
#     4  11  22  40  66 100 144 175 224 297 363 427
#     4  11  28  45  72 102 137 184 245 306 364 411
#     4  11  22  38  68 111 146 181 229 299 362 432
#     4  11  24  40  65 102 141 177 224 281 365 444
#     4  10  20  36  62 100 140 180 208 270 370 438
#
# _framework density 22.834679999999999
#
# number of rings (size 3 to 8) (size 9 to 14) (size 15 to 20)
#    0.000    0.952    2.857    3.714   12.000    0.000 
#    0.000    0.000    0.000    0.000    0.000    0.000 
#    0.000    0.000    0.000    0.000    0.000    0.000 
#
# Total GULP energy -117266.836073 kJ/mol
# GULP energy per Si atom -5584.135051 kJ/mol
# Density = 2.278271 g / cm^3
# Si number density = 22.834680 Si / 1000 Ang^3
#
#
#
# Elastic Constant Matrix: (Units=GPa)
#
#
# Indices 1 2 3 4 5 6 
#
# 1 134.0902 42.3565 46.9355 0.0000 0.0000 0.0000
# 2 42.3565 75.3485 1.1293 0.0000 0.0000 0.0000
# 3 46.9355 1.1293 137.3065 0.0000 0.0000 0.0000
# 4 0.0000 0.0000 0.0000 23.4071 0.0000 0.0000
# 5 0.0000 0.0000 0.0000 0.0000 37.4309 0.0000
# 6 0.0000 0.0000 0.0000 0.0000 0.0000 54.7748
#
#
#
# Elastic Compliance Matrix: (Units=1/GPa)
#
#
# Indices 1 2 3 4 5 6 
#
# 1 0.010564 -0.005885 -0.003563 0.000000 0.000000 0.000000
# 2 -0.005885 0.016552 0.001875 0.000000 0.000000 0.000000
# 3 -0.003563 0.001875 0.008485 0.000000 0.000000 0.000000
# 4 0.000000 0.000000 0.000000 0.042722 0.000000 0.000000
# 5 0.000000 0.000000 0.000000 0.000000 0.026716 0.000000
# 6 0.000000 0.000000 0.000000 0.000000 0.000000 0.018257
#
#
# Mechanical properties :
#
#
# Convention : Reuss Voigt Hill
#
# Bulk Modulus (GPa) = 48.88353 58.62085 53.75219
# Shear Modulus (GPa) = 34.42155 40.21081 37.31618
#
# Velocity S-wave (km/s) = 3.88677 4.20092 4.04690
# Velocity P-wave (km/s) = 6.44955 7.01840 6.73998
#
# Compressibility (1/GPa) = 0.02045679
#
# Stress axis : x y z
#
# Youngs Moduli (GPa) = 94.66505 60.41694 117.85035
#
# Poissons Ratio (x) = 0.35554 0.41985
# Poissons Ratio (y) = 0.55709 -0.22103
# Poissons Ratio (z) = 0.33725 -0.11331
#
# Static dielectric constant tensor:
#      x y z
#    x 1.881680 0.000000 0.000000 
#    y 0.000000 1.887230 0.000000 
#    z 0.000000 0.000000 1.877470 
# 
# From -- ./inp_files/12603.got.cif
#   From: 2010.05.17/outbox.cif.g08.bks.cpg/sg22_7_cif.got.tgz:12603.got - 2010.06.03 23:40:54.
