data_PCOD9326903
_publ_section_title
;
Structure prediction by ZEFSAII (Michael W. Deem and Ramdas Pophale) SiO2 
 PCOD9326903
Probable space group: F 2 2 2
;
_chemical_formula_sum "Si O2"
_cell_formula_units_Z 72
_cell_length_a 19.106369
_cell_length_b 7.887761
_cell_length_c 22.537791
_cell_angle_alpha 90.000000
_cell_angle_beta 90.000000
_cell_angle_gamma 90.000000
_cell_volume 3396.590974
_symmetry_space_group_name_H-M "F 2 2 2"
_symmetry_group_IT_number 22
_symmetry_cell_setting 'orthorhombic'
loop_
_space_group_symop_operation_xyz
x,y,z
-x,-y,z
x,-y,-z
-x,y,-z
x,1/2+y,1/2+z
-x,1/2-y,1/2+z
x,1/2-y,1/2-z
-x,1/2+y,1/2-z
1/2+x,y,1/2+z
1/2-x,-y,1/2+z
1/2+x,-y,1/2-z
1/2-x,y,1/2-z
1/2+x,1/2+y,z
1/2-x,1/2-y,z
1/2+x,1/2-y,-z
1/2-x,1/2+y,-z
loop_
_atom_site_type_symbol
_atom_site_label
_atom_site_fract_x
_atom_site_fract_y
_atom_site_fract_z
Si Si1 0.570438 0.759629 0.091323
Si Si2 0.578102 0.579416 0.212611
Si Si3 0.829461 0.799567 0.512543
Si Si4 0.581045 0.342781 0.383580
Si Si5 0.895244 0.250000 0.250000
O O1 0.584259 0.628701 0.144149
O O2 0.487270 0.775480 0.081669
O O3 0.586072 0.952885 0.113498
O O4 0.617116 0.718418 0.034567
O O5 0.500000 0.500000 0.223487
O O6 0.584060 0.750000 0.250000
O O7 0.633171 0.436926 0.234102
O O8 0.750000 0.750000 0.502124
O O9 0.853538 0.770196 0.580166
O O10 0.836750 0.000000 0.500000
O O11 0.572203 0.290359 0.315309
#
# Coordination Sequence:
#
# PCOD9326903 Si02
#       5
#    16  16  16  16   8
#     4  10  20  36  62  91 123 158 206 255 307 361
#     4  12  20  32  55  95 134 162 196 247 313 372
#     4  10  23  43  63  84 121 169 210 256 308 363
#     4  10  20  36  63  93 121 159 207 252 307 369
#     4  12  22  34  59  96 129 162 196 250 318 368
#
# _framework density 21.197724999999998
#
# number of rings (size 3 to 8) (size 9 to 14) (size 15 to 20)
#    0.000    1.333    5.556    0.667    0.000    4.444 
#    0.000    0.556    0.000    0.667    0.000    0.000 
#    0.000    0.000    0.000    0.000    0.000    0.000 
#
# Total GULP energy -100292.104069 kJ/mol
# GULP energy per Si atom -5571.783559 kJ/mol
# Density = 2.114948 g / cm^3
# Si number density = 21.197725 Si / 1000 Ang^3
#
#
#
# Elastic Constant Matrix: (Units=GPa)
#
#
# Indices 1 2 3 4 5 6 
#
# 1 56.7597 6.8032 53.5668 0.0000 0.0000 0.0000
# 2 6.8032 100.8456 31.1321 0.0000 0.0000 0.0000
# 3 53.5668 31.1321 127.7701 0.0000 0.0000 0.0000
# 4 0.0000 0.0000 0.0000 14.9713 0.0000 0.0000
# 5 0.0000 0.0000 0.0000 0.0000 4.7342 0.0000
# 6 0.0000 0.0000 0.0000 0.0000 0.0000 18.5953
#
#
#
# Elastic Compliance Matrix: (Units=1/GPa)
#
#
# Indices 1 2 3 4 5 6 
#
# 1 0.029513 0.001977 -0.012855 0.000000 0.000000 0.000000
# 2 0.001977 0.010855 -0.003474 0.000000 0.000000 0.000000
# 3 -0.012855 -0.003474 0.014062 0.000000 0.000000 0.000000
# 4 0.000000 0.000000 0.000000 0.066795 0.000000 0.000000
# 5 0.000000 0.000000 0.000000 0.000000 0.211229 0.000000
# 6 0.000000 0.000000 0.000000 0.000000 0.000000 0.053777
#
#
# Mechanical properties :
#
#
# Convention : Reuss Voigt Hill
#
# Bulk Modulus (GPa) = 38.86875 52.04218 45.45546
# Shear Modulus (GPa) = 11.80611 20.58503 16.19557
#
# Velocity S-wave (km/s) = 2.36254 3.11962 2.76710
# Velocity P-wave (km/s) = 5.08116 6.13027 5.63021
#
# Compressibility (1/GPa) = 0.02572761
#
# Stress axis : x y z
#
# Youngs Moduli (GPa) = 33.88344 92.12172 71.11178
#
# Poissons Ratio (x) = -0.18217 0.91414
# Poissons Ratio (y) = -0.06700 0.24704
# Poissons Ratio (z) = 0.43557 0.32003
#
# Static dielectric constant tensor:
#      x y z
#    x 1.782590 0.000000 0.000000 
#    y 0.000000 1.852020 0.000000 
#    z 0.000000 0.000000 1.748480 
# 
# From -- ./inp_files/12451.got.cif
#   From: 2010.05.17/outbox.cif.g08.bks.cpg/sg22_7_cif.got.tgz:12451.got - 2010.06.03 23:40:54.
