data_PCOD9326228
_publ_section_title
;
Structure prediction by ZEFSAII (Michael W. Deem and Ramdas Pophale) SiO2 
 PCOD9326228
Probable space group: F 2 2 2
;
_chemical_formula_sum "Si O2"
_cell_formula_units_Z 88
_cell_length_a 14.484161
_cell_length_b 12.264404
_cell_length_c 22.375106
_cell_angle_alpha 90.000000
_cell_angle_beta 90.000000
_cell_angle_gamma 90.000000
_cell_volume 3974.704927
_symmetry_space_group_name_H-M "F 2 2 2"
_symmetry_group_IT_number 22
_symmetry_cell_setting 'orthorhombic'
loop_
_space_group_symop_operation_xyz
x,y,z
-x,-y,z
x,-y,-z
-x,y,-z
x,1/2+y,1/2+z
-x,1/2-y,1/2+z
x,1/2-y,1/2-z
-x,1/2+y,1/2-z
1/2+x,y,1/2+z
1/2-x,-y,1/2+z
1/2+x,-y,1/2-z
1/2-x,y,1/2-z
1/2+x,1/2+y,z
1/2-x,1/2-y,z
1/2+x,1/2-y,-z
1/2-x,1/2+y,-z
loop_
_atom_site_type_symbol
_atom_site_label
_atom_site_fract_x
_atom_site_fract_y
_atom_site_fract_z
Si Si1 0.032576 0.750000 0.250000
Si Si2 0.397007 0.550051 0.178947
Si Si3 0.063403 0.106121 0.352492
Si Si4 0.896906 0.100203 0.046836
Si Si5 0.404351 0.706450 0.937828
Si Si6 0.269588 0.629541 0.832511
O O1 0.093448 0.657755 0.282044
O O2 0.971541 0.811484 0.300275
O O3 0.500000 0.500000 0.175261
O O4 0.358768 0.578860 0.112616
O O5 0.333457 0.453174 0.203688
O O6 0.062741 0.178017 0.412919
O O7 0.170636 0.077337 0.344608
O O8 0.000000 0.000000 0.352687
O O9 0.004154 0.130004 0.061781
O O10 0.867145 0.201691 0.005347
O O11 0.881574 0.000000 0.000000
O O12 0.329575 0.658850 0.891974
O O13 0.250000 0.750000 0.808637
#
# Coordination Sequence:
#
# PCOD9326228 Si02
#       6
#     8  16  16  16  16  16
#     4  12  26  44  72  96 142 198 240 292 364 434
#     4  12  20  41  72 106 140 178 241 304 359 427
#     4  11  25  46  67  96 145 191 234 292 364 425
#     4  11  18  33  77 110 132 174 233 297 354 418
#     4  10  18  36  69 102 128 173 233 288 348 423
#     4  10  21  40  70 103 133 173 235 299 352 426
#
# _framework density 22.140008000000002
#
# number of rings (size 3 to 8) (size 9 to 14) (size 15 to 20)
#    0.000    1.091    5.455    3.818    0.000    0.000 
#    0.000   23.182   40.000    0.000    0.000    0.000 
#    0.000    0.000    0.000    0.000    0.000    0.000 
#
# Total GULP energy -122783.970166 kJ/mol
# GULP energy per Si atom -5581.089553 kJ/mol
# Density = 2.208962 g / cm^3
# Si number density = 22.140008 Si / 1000 Ang^3
#
#
#
# Elastic Constant Matrix: (Units=GPa)
#
#
# Indices 1 2 3 4 5 6 
#
# 1 112.4653 64.0441 22.4609 0.0000 0.0000 0.0000
# 2 64.0441 157.5519 63.3266 0.0000 0.0000 0.0000
# 3 22.4609 63.3266 129.9220 0.0000 0.0000 0.0000
# 4 0.0000 0.0000 0.0000 43.6971 0.0000 0.0000
# 5 0.0000 0.0000 0.0000 0.0000 -4.6081 0.0000
# 6 0.0000 0.0000 0.0000 0.0000 0.0000 41.3258
#
#
#
# Elastic Compliance Matrix: (Units=1/GPa)
#
#
# Indices 1 2 3 4 5 6 
#
# 1 0.011584 -0.004855 0.000364 0.000000 0.000000 0.000000
# 2 -0.004855 0.009928 -0.004000 0.000000 0.000000 0.000000
# 3 0.000364 -0.004000 0.009584 0.000000 0.000000 0.000000
# 4 0.000000 0.000000 0.000000 0.022885 0.000000 0.000000
# 5 0.000000 0.000000 0.000000 0.000000 -0.217010 0.000000
# 6 0.000000 0.000000 0.000000 0.000000 0.000000 0.024198
#
#
# Mechanical properties :
#
#
# Convention : Reuss Voigt Hill
#
# Bulk Modulus (GPa) = 70.85396 77.73360 74.29378
# Shear Modulus (GPa) = -42.68237 32.75680 -4.96278
#
# Velocity S-wave (km/s) = -4.39548 3.85064 -1.49880
# Velocity P-wave (km/s) = 2.51234 7.41324 5.53480
#
# Compressibility (1/GPa) = 0.01411354
#
# Stress axis : x y z
#
# Youngs Moduli (GPa) = 86.32860 100.72143 104.34389
#
# Poissons Ratio (x) = 0.48900 -0.03796
# Poissons Ratio (y) = 0.41912 0.41737
# Poissons Ratio (z) = -0.03141 0.40288
#
# Static dielectric constant tensor:
#      x y z
#    x 1.851660 0.000000 0.000000 
#    y 0.000000 1.876850 0.000000 
#    z 0.000000 0.000000 1.922250 
# 
# From -- ./inp_files/48800.got.cif
#   From: 2010.05.17/outbox.cif.g08.bks.cpg/sg22_25_cif.got.tgz:48800.got - 2010.06.03 23:40:54.
