data_PCOD9326143
_publ_section_title
;
Structure prediction by ZEFSAII (Michael W. Deem and Ramdas Pophale) SiO2 
 PCOD9326143
Probable space group: F 2 2 2
;
_chemical_formula_sum "Si O2"
_cell_formula_units_Z 112
_cell_length_a 24.959883
_cell_length_b 11.792484
_cell_length_c 17.750905
_cell_angle_alpha 90.000000
_cell_angle_beta 90.000000
_cell_angle_gamma 90.000000
_cell_volume 5224.783998
_symmetry_space_group_name_H-M "F 2 2 2"
_symmetry_group_IT_number 22
_symmetry_cell_setting 'orthorhombic'
loop_
_space_group_symop_operation_xyz
x,y,z
-x,-y,z
x,-y,-z
-x,y,-z
x,1/2+y,1/2+z
-x,1/2-y,1/2+z
x,1/2-y,1/2-z
-x,1/2+y,1/2-z
1/2+x,y,1/2+z
1/2-x,-y,1/2+z
1/2+x,-y,1/2-z
1/2-x,y,1/2-z
1/2+x,1/2+y,z
1/2-x,1/2-y,z
1/2+x,1/2-y,-z
1/2-x,1/2+y,-z
loop_
_atom_site_type_symbol
_atom_site_label
_atom_site_fract_x
_atom_site_fract_y
_atom_site_fract_z
Si Si1 0.991752 0.624251 0.409764
Si Si2 0.672472 0.439082 0.254204
Si Si3 0.194405 0.183234 0.320305
Si Si4 0.093331 0.207016 0.403756
Si Si5 0.691623 0.268554 0.129138
Si Si6 0.438711 0.001283 0.194045
Si Si7 0.579294 0.303862 0.424901
O O1 0.036368 0.716922 0.389303
O O2 0.000000 0.500000 0.379299
O O3 0.000000 0.618053 0.500000
O O4 0.932884 0.670582 0.392191
O O5 0.697252 0.553062 0.291465
O O6 0.691179 0.387944 0.174463
O O7 0.684412 0.334753 0.310798
O O8 0.608807 0.464473 0.250200
O O9 0.167914 0.250000 0.250000
O O10 0.250000 0.250000 0.331930
O O11 0.156719 0.196491 0.392572
O O12 0.072359 0.171904 0.486414
O O13 0.071629 0.125077 0.339239
O O14 0.750000 0.250000 0.092916
O O15 0.638037 0.253343 0.080758
O O16 0.427858 0.916957 0.123331
O O17 0.500000 0.000000 0.217992
#
# Coordination Sequence:
#
# PCOD9326143 Si02
#       7
#    16  16  16  16  16  16  16
#     4   9  18  33  52  77 114 154 187 221 275 351
#     4   9  20  38  57  84 111 145 194 234 282 344
#     4  10  23  38  59  81 108 153 194 239 289 347
#     4  10  20  36  57  84 118 149 189 238 289 353
#     4  10  21  36  61  84 111 152 189 242 290 342
#     4  10  18  33  61  90 114 147 188 239 289 339
#     4  10  20  34  57  90 116 148 191 234 294 352
#
# _framework density 21.436292999999999
#
# number of rings (size 3 to 8) (size 9 to 14) (size 15 to 20)
#    0.000    2.286    1.429    1.286    4.000    2.286 
#    0.000    3.571    0.000    0.000    0.000    0.000 
#    0.000    0.000    0.000    0.000    0.000    0.000 
#
# Total GULP energy -156126.158971 kJ/mol
# GULP energy per Si atom -5575.934249 kJ/mol
# Density = 2.138750 g / cm^3
# Si number density = 21.436293 Si / 1000 Ang^3
#
#
#
# Elastic Constant Matrix: (Units=GPa)
#
#
# Indices 1 2 3 4 5 6 
#
# 1 143.2440 24.0976 8.0112 0.0000 0.0000 0.0000
# 2 24.0976 124.8897 13.0147 0.0000 0.0000 0.0000
# 3 8.0112 13.0147 36.2545 0.0000 0.0000 0.0000
# 4 0.0000 0.0000 0.0000 7.2550 0.0000 0.0000
# 5 0.0000 0.0000 0.0000 0.0000 23.4633 0.0000
# 6 0.0000 0.0000 0.0000 0.0000 0.0000 31.0503
#
#
#
# Elastic Compliance Matrix: (Units=1/GPa)
#
#
# Indices 1 2 3 4 5 6 
#
# 1 0.007261 -0.001282 -0.001144 0.000000 0.000000 0.000000
# 2 -0.001282 0.008545 -0.002784 0.000000 0.000000 0.000000
# 3 -0.001144 -0.002784 0.028835 0.000000 0.000000 0.000000
# 4 0.000000 0.000000 0.000000 0.137837 0.000000 0.000000
# 5 0.000000 0.000000 0.000000 0.000000 0.042620 0.000000
# 6 0.000000 0.000000 0.000000 0.000000 0.000000 0.032206
#
#
# Mechanical properties :
#
#
# Convention : Reuss Voigt Hill
#
# Bulk Modulus (GPa) = 29.22263 43.84836 36.53549
# Shear Modulus (GPa) = 17.91284 29.63803 23.77544
#
# Velocity S-wave (km/s) = 2.89387 3.72238 3.33396
# Velocity P-wave (km/s) = 4.98276 6.24295 5.64811
#
# Compressibility (1/GPa) = 0.03422006
#
# Stress axis : x y z
#
# Youngs Moduli (GPa) = 137.72758 117.03431 34.68000
#
# Poissons Ratio (x) = 0.15000 0.03968
# Poissons Ratio (y) = 0.17653 0.09655
# Poissons Ratio (z) = 0.15760 0.32584
#
# Static dielectric constant tensor:
#      x y z
#    x 1.855960 0.000000 0.000000 
#    y 0.000000 1.769070 0.000000 
#    z 0.000000 0.000000 1.786290 
# 
# From -- ./inp_files/45333.got.cif
#   From: 2010.05.17/outbox.cif.g08.bks.cpg/sg22_23_cif.got.tgz:45333.got - 2010.06.03 23:40:54.
