data_PCOD9326392
_publ_section_title
;
Structure prediction by ZEFSAII (Michael W. Deem and Ramdas Pophale) SiO2 
 PCOD9326392
Probable space group: F 2 2 2
;
_chemical_formula_sum "Si O2"
_cell_formula_units_Z 64
_cell_length_a 20.738669
_cell_length_b 9.382184
_cell_length_c 17.518016
_cell_angle_alpha 90.000000
_cell_angle_beta 90.000000
_cell_angle_gamma 90.000000
_cell_volume 3408.550594
_symmetry_space_group_name_H-M "F 2 2 2"
_symmetry_group_IT_number 22
_symmetry_cell_setting 'orthorhombic'
loop_
_space_group_symop_operation_xyz
x,y,z
-x,-y,z
x,-y,-z
-x,y,-z
x,1/2+y,1/2+z
-x,1/2-y,1/2+z
x,1/2-y,1/2-z
-x,1/2+y,1/2-z
1/2+x,y,1/2+z
1/2-x,-y,1/2+z
1/2+x,-y,1/2-z
1/2-x,y,1/2-z
1/2+x,1/2+y,z
1/2-x,1/2-y,z
1/2+x,1/2-y,-z
1/2-x,1/2+y,-z
loop_
_atom_site_type_symbol
_atom_site_label
_atom_site_fract_x
_atom_site_fract_y
_atom_site_fract_z
Si Si1 0.622946 0.750000 0.750000
Si Si2 0.393471 0.000000 0.500000
Si Si3 0.879017 0.712643 0.372261
Si Si4 0.022786 0.148938 0.871647
Si Si5 0.323470 0.943985 0.773015
O O1 0.574914 0.776146 0.679907
O O2 0.664339 0.611886 0.728729
O O3 0.357750 0.111404 0.443303
O O4 0.439418 0.095904 0.553528
O O5 0.843578 0.860136 0.350315
O O6 0.866248 0.620090 0.295986
O O7 0.956037 0.732996 0.383227
O O8 0.000000 0.000000 0.833520
O O9 0.250000 0.914221 0.750000
#
# Coordination Sequence:
#
# PCOD9326392 Si02
#       5
#     8   8  16  16  16
#     4  12  21  36  60  88 123 156 206 264 298 358
#     4  10  19  38  62  96 126 160 182 253 338 381
#     4  10  19  36  63  88 117 158 201 242 309 379
#     4  10  19  33  61  90 121 151 192 251 321 371
#     4  11  23  38  60  86 121 165 216 254 291 353
#
# _framework density 18.776309000000001
#
# number of rings (size 3 to 8) (size 9 to 14) (size 15 to 20)
#    0.000    1.500    5.000    6.750    0.000    0.000 
#    0.000    1.250   11.000    6.000    0.000    0.000 
#    0.000    0.000    0.000    0.000    0.000    0.000 
#
# Total GULP energy -89083.674663 kJ/mol
# GULP energy per Si atom -5567.729666 kJ/mol
# Density = 1.873357 g / cm^3
# Si number density = 18.776309 Si / 1000 Ang^3
#
#
#
# Elastic Constant Matrix: (Units=GPa)
#
#
# Indices 1 2 3 4 5 6 
#
# 1 78.5865 38.8251 31.4523 0.0000 0.0000 0.0000
# 2 38.8251 131.7416 42.1730 0.0000 0.0000 0.0000
# 3 31.4523 42.1730 103.1607 0.0000 0.0000 0.0000
# 4 0.0000 0.0000 0.0000 45.0227 0.0000 0.0000
# 5 0.0000 0.0000 0.0000 0.0000 -2.2413 0.0000
# 6 0.0000 0.0000 0.0000 0.0000 0.0000 19.8522
#
#
#
# Elastic Compliance Matrix: (Units=1/GPa)
#
#
# Indices 1 2 3 4 5 6 
#
# 1 0.015846 -0.003594 -0.003362 0.000000 0.000000 0.000000
# 2 -0.003594 0.009549 -0.002808 0.000000 0.000000 0.000000
# 3 -0.003362 -0.002808 0.011867 0.000000 0.000000 0.000000
# 4 0.000000 0.000000 0.000000 0.022211 0.000000 0.000000
# 5 0.000000 0.000000 0.000000 0.000000 -0.446164 0.000000
# 6 0.000000 0.000000 0.000000 0.000000 0.000000 0.050372
#
#
# Mechanical properties :
#
#
# Convention : Reuss Voigt Hill
#
# Bulk Modulus (GPa) = 56.38958 59.82108 58.10533
# Shear Modulus (GPa) = -16.08327 25.92926 4.92299
#
# Velocity S-wave (km/s) = -2.92990 3.72015 1.62099
# Velocity P-wave (km/s) = 4.31877 7.09801 5.87510
#
# Compressibility (1/GPa) = 0.01773377
#
# Stress axis : x y z
#
# Youngs Moduli (GPa) = 63.10809 104.72805 84.27047
#
# Poissons Ratio (x) = 0.37635 0.28332
# Poissons Ratio (y) = 0.22679 0.23662
# Poissons Ratio (z) = 0.21217 0.29406
#
# Static dielectric constant tensor:
#      x y z
#    x 1.671000 0.000000 0.000000 
#    y 0.000000 1.712670 0.000000 
#    z 0.000000 0.000000 1.711980 
# 
# From -- ./inp_files/34825.got.cif
#   From: 2010.05.17/outbox.cif.g08.bks.cpg/sg22_18_cif.got.tgz:34825.got - 2010.06.03 23:40:54.
