data_PCOD9326049
_publ_section_title
;
Structure prediction by ZEFSAII (Michael W. Deem and Ramdas Pophale) SiO2 
 PCOD9326049
Probable space group: F 2 2 2
;
_chemical_formula_sum "Si O2"
_cell_formula_units_Z 112
_cell_length_a 20.147390
_cell_length_b 20.487675
_cell_length_c 14.153392
_cell_angle_alpha 90.000000
_cell_angle_beta 90.000000
_cell_angle_gamma 90.000000
_cell_volume 5842.140601
_symmetry_space_group_name_H-M "F 2 2 2"
_symmetry_group_IT_number 22
_symmetry_cell_setting 'orthorhombic'
loop_
_space_group_symop_operation_xyz
x,y,z
-x,-y,z
x,-y,-z
-x,y,-z
x,1/2+y,1/2+z
-x,1/2-y,1/2+z
x,1/2-y,1/2-z
-x,1/2+y,1/2-z
1/2+x,y,1/2+z
1/2-x,-y,1/2+z
1/2+x,-y,1/2-z
1/2-x,y,1/2-z
1/2+x,1/2+y,z
1/2-x,1/2-y,z
1/2+x,1/2-y,-z
1/2-x,1/2+y,-z
loop_
_atom_site_type_symbol
_atom_site_label
_atom_site_fract_x
_atom_site_fract_y
_atom_site_fract_z
Si Si1 0.786681 0.522729 0.609937
Si Si2 0.648743 0.205381 0.021852
Si Si3 0.864229 0.501028 0.886139
Si Si4 0.036758 0.888339 0.400666
Si Si5 0.687347 0.387511 0.820184
Si Si6 0.100300 0.646884 0.831249
Si Si7 0.702699 0.343571 0.035875
O O1 0.785465 0.500000 0.500000
O O2 0.709643 0.523690 0.641929
O O3 0.823917 0.465616 0.666426
O O4 0.814146 0.595772 0.603634
O O5 0.632519 0.193254 0.910656
O O6 0.655989 0.281075 0.046930
O O7 0.720065 0.175095 0.048694
O O8 0.591431 0.165539 0.073817
O O9 0.923604 0.549923 0.859028
O O10 0.875574 0.426755 0.856707
O O11 0.864738 0.500000 0.000000
O O12 0.000000 0.907372 0.500000
O O13 0.978624 0.856980 0.338887
O O14 0.750000 0.379081 0.750000
O O15 0.628867 0.345926 0.773060
O O16 0.700508 0.363473 0.925614
#
# Coordination Sequence:
#
# PCOD9326049 Si02
#       7
#    16  16  16  16  16  16  16
#     4   9  17  30  50  72 111 146 185 229 285 346
#     4  10  18  30  48  79 110 145 192 229 280 344
#     4  11  15  26  46  77 110 140 170 226 286 341
#     4  10  19  28  47  79 110 142 186 227 281 349
#     4  11  19  32  47  80 118 147 178 240 312 342
#     4  11  20  29  46  80 115 146 181 232 295 346
#     4  10  19  32  50  76 113 150 192 235 282 347
#
# _framework density 19.171054999999999
#
# number of rings (size 3 to 8) (size 9 to 14) (size 15 to 20)
#    0.000    1.714    7.143    1.286    0.000    0.571 
#    0.000    0.000    0.000    0.000   33.429    6.000 
#    0.000    0.000    0.000    0.000    0.000    0.000 
#
# Total GULP energy -156169.161831 kJ/mol
# GULP energy per Si atom -5577.470065 kJ/mol
# Density = 1.912742 g / cm^3
# Si number density = 19.171055 Si / 1000 Ang^3
#
#
#
# Elastic Constant Matrix: (Units=GPa)
#
#
# Indices 1 2 3 4 5 6 
#
# 1 68.4702 21.7456 4.3832 0.0000 0.0000 0.0000
# 2 21.7456 84.0820 -10.4563 0.0000 0.0000 0.0000
# 3 4.3832 -10.4563 20.8730 0.0000 0.0000 0.0000
# 4 0.0000 0.0000 0.0000 19.6664 0.0000 0.0000
# 5 0.0000 0.0000 0.0000 0.0000 19.4202 0.0000
# 6 0.0000 0.0000 0.0000 0.0000 0.0000 25.6100
#
#
#
# Elastic Compliance Matrix: (Units=1/GPa)
#
#
# Indices 1 2 3 4 5 6 
#
# 1 0.016589 -0.005037 -0.006007 0.000000 0.000000 0.000000
# 2 -0.005037 0.014213 0.008178 0.000000 0.000000 0.000000
# 3 -0.006007 0.008178 0.053267 0.000000 0.000000 0.000000
# 4 0.000000 0.000000 0.000000 0.050848 0.000000 0.000000
# 5 0.000000 0.000000 0.000000 0.000000 0.051493 0.000000
# 6 0.000000 0.000000 0.000000 0.000000 0.000000 0.039047
#
#
# Mechanical properties :
#
#
# Convention : Reuss Voigt Hill
#
# Bulk Modulus (GPa) = 12.76560 22.75224 17.75892
# Shear Modulus (GPa) = 19.43237 23.45618 21.44428
#
# Velocity S-wave (km/s) = 3.18721 3.50168 3.34814
# Velocity P-wave (km/s) = 4.49641 5.31440 4.92242
#
# Compressibility (1/GPa) = 0.07833554
#
# Stress axis : x y z
#
# Youngs Moduli (GPa) = 60.27983 70.35854 18.77339
#
# Poissons Ratio (x) = 0.35443 0.11277
# Poissons Ratio (y) = 0.30365 -0.15352
# Poissons Ratio (z) = 0.36211 -0.57537
#
# Static dielectric constant tensor:
#      x y z
#    x 1.676870 0.000000 0.000000 
#    y 0.000000 1.706470 0.000000 
#    z 0.000000 0.000000 1.709450 
# 
# From -- ./inp_files/39125.got.cif
#   From: 2010.05.17/outbox.cif.g08.bks.cpg/sg22_20_cif.got.tgz:39125.got - 2010.06.03 23:40:54.
