data_PCOD9326381
_publ_section_title
;
Structure prediction by ZEFSAII (Michael W. Deem and Ramdas Pophale) SiO2 
 PCOD9326381
Probable space group: F 2 2 2
;
_chemical_formula_sum "Si O2"
_cell_formula_units_Z 72
_cell_length_a 20.810054
_cell_length_b 5.074118
_cell_length_c 37.076619
_cell_angle_alpha 90.000000
_cell_angle_beta 90.000000
_cell_angle_gamma 90.000000
_cell_volume 3915.019179
_symmetry_space_group_name_H-M "F 2 2 2"
_symmetry_group_IT_number 22
_symmetry_cell_setting 'orthorhombic'
loop_
_space_group_symop_operation_xyz
x,y,z
-x,-y,z
x,-y,-z
-x,y,-z
x,1/2+y,1/2+z
-x,1/2-y,1/2+z
x,1/2-y,1/2-z
-x,1/2+y,1/2-z
1/2+x,y,1/2+z
1/2-x,-y,1/2+z
1/2+x,-y,1/2-z
1/2-x,y,1/2-z
1/2+x,1/2+y,z
1/2-x,1/2-y,z
1/2+x,1/2-y,-z
1/2-x,1/2+y,-z
loop_
_atom_site_type_symbol
_atom_site_label
_atom_site_fract_x
_atom_site_fract_y
_atom_site_fract_z
Si Si1 0.681115 0.374191 0.035476
Si Si2 0.952985 0.248674 0.789137
Si Si3 0.135157 0.920489 0.399098
Si Si4 0.926075 0.592270 0.365610
Si Si5 0.250000 0.250000 0.090477
O O1 0.750000 0.250000 0.024126
O O2 0.701564 0.593609 0.064481
O O3 0.641001 0.166695 0.058980
O O4 0.650773 0.500000 0.000000
O O5 0.919112 0.250000 0.750000
O O6 0.087435 0.801363 0.825158
O O7 0.000000 0.500000 0.794305
O O8 0.000000 0.000000 0.786366
O O9 0.086657 0.158603 0.391301
O O10 0.205431 0.040424 0.389215
O O11 0.115547 0.661390 0.376812
O O12 0.000000 0.500000 0.367090
#
# Coordination Sequence:
#
# PCOD9326381 Si02
#       5
#    16  16  16  16   8
#     4  10  19  33  58  84 112 135 178 245 302 329
#     4   9  17  31  53  81 113 144 182 232 277 320
#     4  11  22  35  55  85 117 146 186 228 284 340
#     4  11  21  36  55  83 119 157 184 219 278 343
#     4  10  20  38  54  88 109 138 184 238 295 330
#
# _framework density 18.390713999999999
#
# number of rings (size 3 to 8) (size 9 to 14) (size 15 to 20)
#    0.000    1.778    3.333    3.333    0.000    0.000 
#    0.000    0.000    0.000    0.667    5.778    0.778 
#   13.333    0.000    0.000    0.000    0.000    0.000 
#
# Total GULP energy -100280.814197 kJ/mol
# GULP energy per Si atom -5571.156344 kJ/mol
# Density = 1.834886 g / cm^3
# Si number density = 18.390714 Si / 1000 Ang^3
#
#
#
# Elastic Constant Matrix: (Units=GPa)
#
#
# Indices 1 2 3 4 5 6 
#
# 1 43.1537 35.0904 55.3387 0.0000 0.0004 0.0000
# 2 35.0904 143.6681 54.0039 0.0000 0.0010 0.0001
# 3 55.3387 54.0039 110.1110 0.0000 0.0000 0.0000
# 4 0.0000 0.0000 0.0000 29.0831 -0.0003 0.0000
# 5 0.0004 0.0010 0.0000 -0.0003 -53.1076 -0.0006
# 6 0.0000 0.0001 0.0000 0.0000 -0.0006 42.4900
#
#
#
# Elastic Compliance Matrix: (Units=1/GPa)
#
#
# Indices 1 2 3 4 5 6 
#
# 1 0.067555 -0.004583 -0.031704 0.000000 0.000000 0.000000
# 2 -0.004583 0.008845 -0.002035 0.000000 0.000000 0.000000
# 3 -0.031704 -0.002035 0.026013 0.000000 0.000000 0.000000
# 4 0.000000 0.000000 0.000000 0.034384 0.000000 0.000000
# 5 0.000000 0.000000 0.000000 0.000000 -0.018830 0.000000
# 6 0.000000 0.000000 0.000000 0.000000 0.000000 0.023535
#
#
# Mechanical properties :
#
#
# Convention : Reuss Voigt Hill
#
# Bulk Modulus (GPa) = 38.80412 65.08877 51.94644
# Shear Modulus (GPa) = 22.05221 13.85976 17.95598
#
# Velocity S-wave (km/s) = 3.46655 2.74821 3.12807
# Velocity P-wave (km/s) = 6.09658 6.74827 6.43069
#
# Compressibility (1/GPa) = 0.02577046
#
# Stress axis : x y z
#
# Youngs Moduli (GPa) = 14.80272 113.06279 38.44236
#
# Poissons Ratio (x) = 0.51816 1.21876
# Poissons Ratio (y) = 0.06784 0.07822
# Poissons Ratio (z) = 0.46930 0.23004
#
# Static dielectric constant tensor:
#      x y z
#    x 1.647790 0.000000 0.000000 
#    y 0.000000 1.703180 0.000000 
#    z 0.000000 0.000000 1.700180 
# 
# From -- ./inp_files/57032.got.cif
#   From: 2010.05.17/outbox.cif.g08.bks.cpg/sg22_29_cif.got.tgz:57032.got - 2010.06.03 23:40:54.
