data_PCOD9326730
_publ_section_title
;
Structure prediction by ZEFSAII (Michael W. Deem and Ramdas Pophale) SiO2 
 PCOD9326730
Probable space group: F 2 2 2
;
_chemical_formula_sum "Si O2"
_cell_formula_units_Z 108
_cell_length_a 27.811820
_cell_length_b 6.594310
_cell_length_c 29.893590
_cell_angle_alpha 90.000000
_cell_angle_beta 90.000000
_cell_angle_gamma 90.000000
_cell_volume 5482.477314
_symmetry_space_group_name_H-M "F 2 2 2"
_symmetry_group_IT_number 22
_symmetry_cell_setting 'orthorhombic'
loop_
_space_group_symop_operation_xyz
x,y,z
-x,-y,z
x,-y,-z
-x,y,-z
x,1/2+y,1/2+z
-x,1/2-y,1/2+z
x,1/2-y,1/2-z
-x,1/2+y,1/2-z
1/2+x,y,1/2+z
1/2-x,-y,1/2+z
1/2+x,-y,1/2-z
1/2-x,y,1/2-z
1/2+x,1/2+y,z
1/2-x,1/2-y,z
1/2+x,1/2-y,-z
1/2-x,1/2+y,-z
loop_
_atom_site_type_symbol
_atom_site_label
_atom_site_fract_x
_atom_site_fract_y
_atom_site_fract_z
Si Si1 0.401379 0.211626 0.654763
Si Si2 0.250000 0.250000 0.110445
Si Si3 0.451563 0.902011 0.714108
Si Si4 0.188390 0.449974 0.549498
Si Si5 0.953395 0.894611 0.365552
Si Si6 0.298942 0.853620 0.123895
Si Si7 0.000000 0.500000 0.500000
Si Si8 0.081515 0.926884 0.928243
O O1 0.425624 0.428654 0.659513
O O2 0.345344 0.255950 0.647089
O O3 0.414826 0.067608 0.695698
O O4 0.423371 0.101844 0.610061
O O5 0.281993 0.404463 0.082051
O O6 0.210962 0.407407 0.131450
O O7 0.429958 0.750000 0.750000
O O8 0.468341 0.772889 0.670744
O O9 0.500000 0.000000 0.733720
O O10 0.206406 0.500000 0.500000
O O11 0.194147 0.225155 0.571719
O O12 0.132818 0.519343 0.550948
O O13 0.919774 0.783862 0.401277
O O14 0.000000 0.000000 0.386735
O O15 0.250000 0.750000 0.140304
O O16 0.961299 0.590315 0.464299
#
# Coordination Sequence:
#
# PCOD9326730 Si02
#       8
#    16   8  16  16  16  16   4  16
#     4  10  21  39  60  87 120 158 203 252 309 369
#     4  10  20  32  56  78 108 146 197 260 314 357
#     4  11  23  37  60  94 129 157 193 241 299 371
#     4  10  20  34  50  76 106 150 193 260 317 361
#     4  11  20  36  58  80 114 161 197 248 303 358
#     4   9  20  37  58  84 113 150 203 252 301 366
#     4  12  20  36  54  72 112 166 216 268 298 362
#     4  10  22  36  53  75 113 156 214 259 308 359
#
# _framework density 19.699123
#
# number of rings (size 3 to 8) (size 9 to 14) (size 15 to 20)
#    0.000    1.778    2.222    2.222    5.185    1.185 
#    0.000    3.333    0.000    0.000    0.000    3.111 
#    0.000    0.000    0.000    0.000    0.000    0.000 
#
# Total GULP energy -150359.594516 kJ/mol
# GULP energy per Si atom -5568.873871 kJ/mol
# Density = 1.965429 g / cm^3
# Si number density = 19.699123 Si / 1000 Ang^3
#
#
#
# Elastic Constant Matrix: (Units=GPa)
#
#
# Indices 1 2 3 4 5 6 
#
# 1 101.6793 33.1651 19.1235 -0.0004 -0.0002 0.0009
# 2 33.1651 113.9385 26.3202 0.0013 -0.0008 -0.0014
# 3 19.1235 26.3202 42.6527 0.0000 -0.0002 0.0000
# 4 -0.0004 0.0013 0.0000 16.0611 -0.0002 -0.0001
# 5 -0.0002 -0.0008 -0.0002 -0.0002 13.3654 0.0002
# 6 0.0009 -0.0014 0.0000 -0.0001 0.0002 29.5765
#
#
#
# Elastic Compliance Matrix: (Units=1/GPa)
#
#
# Indices 1 2 3 4 5 6 
#
# 1 0.011308 -0.002473 -0.003544 0.000000 0.000000 0.000000
# 2 -0.002473 0.010777 -0.005541 -0.000001 0.000001 0.000001
# 3 -0.003544 -0.005541 0.028454 0.000000 0.000000 0.000000
# 4 0.000000 -0.000001 0.000000 0.062262 0.000001 0.000000
# 5 0.000000 0.000001 0.000000 0.000001 0.074820 0.000000
# 6 0.000000 0.000001 0.000000 0.000000 0.000000 0.033811
#
#
# Mechanical properties :
#
#
# Convention : Reuss Voigt Hill
#
# Bulk Modulus (GPa) = 36.46737 46.16534 41.31636
# Shear Modulus (GPa) = 19.70925 23.77804 21.74365
#
# Velocity S-wave (km/s) = 3.16652 3.47805 3.32593
# Velocity P-wave (km/s) = 5.64991 6.29406 5.98066
#
# Compressibility (1/GPa) = 0.02742177
#
# Stress axis : x y z
#
# Youngs Moduli (GPa) = 88.43323 92.79437 35.14494
#
# Poissons Ratio (x) = 0.22946 0.12455
# Poissons Ratio (y) = 0.21868 0.19475
# Poissons Ratio (z) = 0.31341 0.51420
#
# Static dielectric constant tensor:
#      x y z
#    x 1.727940 0.000000 0.000000 
#    y 0.000000 1.748960 0.000000 
#    z 0.000000 0.000000 1.713760 
# 
# From -- ./inp_files/57382.got.cif
#   From: 2010.05.17/outbox.cif.g08.bks.cpg/sg22_29_cif.got.tgz:57382.got - 2010.06.03 23:40:54.
