data_PCOD9326014
_publ_section_title
;
Structure prediction by ZEFSAII (Michael W. Deem and Ramdas Pophale) SiO2 
 PCOD9326014
Probable space group: F 2 2 2
;
_chemical_formula_sum "Si O2"
_cell_formula_units_Z 92
_cell_length_a 24.043688
_cell_length_b 22.786925
_cell_length_c 8.314039
_cell_angle_alpha 90.000000
_cell_angle_beta 90.000000
_cell_angle_gamma 90.000000
_cell_volume 4555.109947
_symmetry_space_group_name_H-M "F 2 2 2"
_symmetry_group_IT_number 22
_symmetry_cell_setting 'orthorhombic'
loop_
_space_group_symop_operation_xyz
x,y,z
-x,-y,z
x,-y,-z
-x,y,-z
x,1/2+y,1/2+z
-x,1/2-y,1/2+z
x,1/2-y,1/2-z
-x,1/2+y,1/2-z
1/2+x,y,1/2+z
1/2-x,-y,1/2+z
1/2+x,-y,1/2-z
1/2-x,y,1/2-z
1/2+x,1/2+y,z
1/2-x,1/2-y,z
1/2+x,1/2-y,-z
1/2-x,1/2+y,-z
loop_
_atom_site_type_symbol
_atom_site_label
_atom_site_fract_x
_atom_site_fract_y
_atom_site_fract_z
Si Si1 0.612773 0.601846 0.721993
Si Si2 0.428104 0.500000 0.500000
Si Si3 0.000000 0.000000 0.000000
Si Si4 0.781225 0.936721 0.575918
Si Si5 0.491400 0.316357 0.807098
Si Si6 0.331328 0.068617 0.451250
Si Si7 0.567421 0.083523 0.740401
O O1 0.595392 0.537794 0.653714
O O2 0.668254 0.607876 0.610961
O O3 0.561180 0.646294 0.736919
O O4 0.635566 0.598855 0.903427
O O5 0.452675 0.447067 0.401156
O O6 0.962249 0.044701 0.897897
O O7 0.750000 0.947356 0.750000
O O8 0.732853 0.913454 0.459220
O O9 0.799531 0.000000 0.500000
O O10 0.487192 0.250000 0.750000
O O11 0.546192 0.350713 0.750604
O O12 0.500000 0.318250 0.000000
O O13 0.366787 0.079307 0.291861
O O14 0.331173 0.000000 0.500000
#
# Coordination Sequence:
#
# PCOD9326014 Si02
#       7
#    16   8   4  16  16  16  16
#     4  11  21  39  59  93 132 166 213 269 319 398
#     4  12  24  33  59 102 131 164 212 265 328 390
#     4  12  20  38  62  88 122 174 216 254 360 404
#     4   9  19  32  59  93 134 171 205 253 324 404
#     4  12  28  46  64  84 123 180 230 276 335 394
#     4  10  17  35  60  91 132 176 200 246 335 409
#     4  12  22  39  61  92 133 173 216 266 330 411
#
# _framework density 20.197099000000001
#
# number of rings (size 3 to 8) (size 9 to 14) (size 15 to 20)
#    0.000    1.043    6.087    1.043    2.435    2.435 
#    0.000    0.000    0.000    4.696    0.000    0.000 
#    0.000    0.000    0.000    0.000    0.000    0.000 
#
# Total GULP energy -128109.121759 kJ/mol
# GULP energy per Si atom -5569.961816 kJ/mol
# Density = 2.015113 g / cm^3
# Si number density = 20.197099 Si / 1000 Ang^3
#
#
#
# Elastic Constant Matrix: (Units=GPa)
#
#
# Indices 1 2 3 4 5 6 
#
# 1 129.9274 49.7017 37.7159 0.0002 0.0000 -0.0002
# 2 49.7017 100.2767 23.0249 0.0003 -0.0001 0.0001
# 3 37.7159 23.0249 76.8517 0.0009 -0.0003 -0.0006
# 4 0.0002 0.0003 0.0009 23.4695 -0.0002 -0.0001
# 5 0.0000 -0.0001 -0.0003 -0.0002 27.7245 0.0001
# 6 -0.0002 0.0001 -0.0006 -0.0001 0.0001 33.2572
#
#
#
# Elastic Compliance Matrix: (Units=1/GPa)
#
#
# Indices 1 2 3 4 5 6 
#
# 1 0.010458 -0.004301 -0.003844 0.000000 0.000000 0.000000
# 2 -0.004301 0.012478 -0.001628 0.000000 0.000000 0.000000
# 3 -0.003844 -0.001628 0.015386 -0.000001 0.000000 0.000000
# 4 0.000000 0.000000 -0.000001 0.042608 0.000000 0.000000
# 5 0.000000 0.000000 0.000000 0.000000 0.036069 0.000000
# 6 0.000000 0.000000 0.000000 0.000000 0.000000 0.030069
#
#
# Mechanical properties :
#
#
# Convention : Reuss Voigt Hill
#
# Bulk Modulus (GPa) = 53.25612 58.66009 55.95811
# Shear Modulus (GPa) = 28.92332 29.99780 29.46056
#
# Velocity S-wave (km/s) = 3.78835 3.85808 3.82338
# Velocity P-wave (km/s) = 6.74988 6.99666 6.87438
#
# Compressibility (1/GPa) = 0.01877718
#
# Stress axis : x y z
#
# Youngs Moduli (GPa) = 95.62499 80.14250 64.99386
#
# Poissons Ratio (x) = 0.34467 0.24981
# Poissons Ratio (y) = 0.41125 0.10579
# Poissons Ratio (z) = 0.36755 0.13045
#
# Static dielectric constant tensor:
#      x y z
#    x 1.894960 0.000000 0.000000 
#    y 0.000000 1.654480 0.000000 
#    z 0.000000 0.000000 1.593890 
# 
# From -- ./inp_files/14768.got.cif
#   From: 2010.05.17/outbox.cif.g08.bks.cpg/sg22_8_cif.got.tgz:14768.got - 2010.06.03 23:40:54.
