data_PCOD9326309
_publ_section_title
;
Structure prediction by ZEFSAII (Michael W. Deem and Ramdas Pophale) SiO2 
 PCOD9326309
Probable space group: F 2 2 2
;
_chemical_formula_sum "Si O2"
_cell_formula_units_Z 112
_cell_length_a 20.922549
_cell_length_b 25.961429
_cell_length_c 10.732157
_cell_angle_alpha 90.000000
_cell_angle_beta 90.000000
_cell_angle_gamma 90.000000
_cell_volume 5829.485209
_symmetry_space_group_name_H-M "F 2 2 2"
_symmetry_group_IT_number 22
_symmetry_cell_setting 'orthorhombic'
loop_
_space_group_symop_operation_xyz
x,y,z
-x,-y,z
x,-y,-z
-x,y,-z
x,1/2+y,1/2+z
-x,1/2-y,1/2+z
x,1/2-y,1/2-z
-x,1/2+y,1/2-z
1/2+x,y,1/2+z
1/2-x,-y,1/2+z
1/2+x,-y,1/2-z
1/2-x,y,1/2-z
1/2+x,1/2+y,z
1/2-x,1/2-y,z
1/2+x,1/2-y,-z
1/2-x,1/2+y,-z
loop_
_atom_site_type_symbol
_atom_site_label
_atom_site_fract_x
_atom_site_fract_y
_atom_site_fract_z
Si Si1 0.589270 0.265360 0.874531
Si Si2 0.303649 0.677537 0.639590
Si Si3 0.603905 0.382988 0.791799
Si Si4 0.404853 0.711704 0.136989
Si Si5 0.152356 0.441943 0.531443
Si Si6 0.773543 0.844679 0.890836
Si Si7 0.470339 0.896698 0.361166
O O1 0.549716 0.250000 0.750000
O O2 0.651333 0.228089 0.866159
O O3 0.598925 0.326147 0.854206
O O4 0.566578 0.260773 0.015415
O O5 0.250000 0.681134 0.750000
O O6 0.350243 0.629693 0.676239
O O7 0.272887 0.669377 0.504563
O O8 0.532036 0.404527 0.773210
O O9 0.636052 0.417520 0.896931
O O10 0.399379 0.750000 0.250000
O O11 0.334983 0.691931 0.096587
O O12 0.441917 0.659272 0.168787
O O13 0.170403 0.500000 0.500000
O O14 0.204177 0.403834 0.590808
O O15 0.088638 0.436183 0.619343
O O16 0.750000 0.837531 0.750000
O O17 0.500000 0.893964 0.500000
#
# Coordination Sequence:
#
# PCOD9326309 Si02
#       7
#    16  16  16  16  16  16  16
#     4  10  19  31  50  78 112 152 195 228 276 339
#     4  11  21  35  57  82 119 164 198 237 286 351
#     4  10  19  36  56  85 115 146 197 246 287 345
#     4  11  21  34  53  82 115 159 199 235 289 352
#     4  10  20  39  62  85 111 149 202 247 308 353
#     4  11  22  39  55  83 123 156 194 250 291 353
#     4   9  18  36  56  81 120 147 187 259 293 337
#
# _framework density 19.212674
#
# number of rings (size 3 to 8) (size 9 to 14) (size 15 to 20)
#    0.000    1.714    5.714    1.714    0.000   12.286 
#    2.571    0.000    0.000    2.571    0.000    0.000 
#    0.000   20.571    0.000    0.000    0.000    0.000 
#
# Total GULP energy -156055.830835 kJ/mol
# GULP energy per Si atom -5573.422530 kJ/mol
# Density = 1.916895 g / cm^3
# Si number density = 19.212674 Si / 1000 Ang^3
#
#
#
# Elastic Constant Matrix: (Units=GPa)
#
#
# Indices 1 2 3 4 5 6 
#
# 1 84.7679 2.0150 25.1713 0.0000 0.0000 0.0000
# 2 2.0150 60.7491 18.2004 0.0000 0.0000 0.0000
# 3 25.1713 18.2004 112.4128 0.0000 0.0000 0.0000
# 4 0.0000 0.0000 0.0000 24.7995 0.0000 0.0000
# 5 0.0000 0.0000 0.0000 0.0000 15.0878 0.0000
# 6 0.0000 0.0000 0.0000 0.0000 0.0000 3.6712
#
#
#
# Elastic Compliance Matrix: (Units=1/GPa)
#
#
# Indices 1 2 3 4 5 6 
#
# 1 0.012649 0.000451 -0.002905 0.000000 0.000000 0.000000
# 2 0.000451 0.017316 -0.002905 0.000000 0.000000 0.000000
# 3 -0.002905 -0.002905 0.010017 0.000000 0.000000 0.000000
# 4 0.000000 0.000000 0.000000 0.040323 0.000000 0.000000
# 5 0.000000 0.000000 0.000000 0.000000 0.066279 0.000000
# 6 0.000000 0.000000 0.000000 0.000000 0.000000 0.272389
#
#
# Mechanical properties :
#
#
# Convention : Reuss Voigt Hill
#
# Bulk Modulus (GPa) = 34.17188 38.74482 36.45835
# Shear Modulus (GPa) = 11.37797 22.88125 17.12961
#
# Velocity S-wave (km/s) = 2.43618 3.45475 2.98917
# Velocity P-wave (km/s) = 5.07327 6.01031 5.56156
#
# Compressibility (1/GPa) = 0.02926383
#
# Stress axis : x y z
#
# Youngs Moduli (GPa) = 79.05814 57.74869 99.83408
#
# Poissons Ratio (x) = -0.02604 0.29005
# Poissons Ratio (y) = -0.03565 0.28998
# Poissons Ratio (z) = 0.22969 0.16774
#
# Static dielectric constant tensor:
#      x y z
#    x 1.782770 0.000000 0.000000 
#    y 0.000000 1.647210 0.000000 
#    z 0.000000 0.000000 1.718830 
# 
# From -- ./inp_files/22972.got.cif
#   From: 2010.05.17/outbox.cif.g08.bks.cpg/sg22_12_cif.got.tgz:22972.got - 2010.06.03 23:40:54.
