data_PCOD9326980
_publ_section_title
;
Structure prediction by ZEFSAII (Michael W. Deem and Ramdas Pophale) SiO2 
 PCOD9326980
Probable space group: F 2 2 2
;
_chemical_formula_sum "Si O2"
_cell_formula_units_Z 84
_cell_length_a 18.273939
_cell_length_b 10.677069
_cell_length_c 21.180965
_cell_angle_alpha 90.000000
_cell_angle_beta 90.000000
_cell_angle_gamma 90.000000
_cell_volume 4132.662722
_symmetry_space_group_name_H-M "F 2 2 2"
_symmetry_group_IT_number 22
_symmetry_cell_setting 'orthorhombic'
loop_
_space_group_symop_operation_xyz
x,y,z
-x,-y,z
x,-y,-z
-x,y,-z
x,1/2+y,1/2+z
-x,1/2-y,1/2+z
x,1/2-y,1/2-z
-x,1/2+y,1/2-z
1/2+x,y,1/2+z
1/2-x,-y,1/2+z
1/2+x,-y,1/2-z
1/2-x,y,1/2-z
1/2+x,1/2+y,z
1/2-x,1/2-y,z
1/2+x,1/2-y,-z
1/2-x,1/2+y,-z
loop_
_atom_site_type_symbol
_atom_site_label
_atom_site_fract_x
_atom_site_fract_y
_atom_site_fract_z
Si Si1 0.381886 0.184148 0.683831
Si Si2 0.000000 0.500000 0.000000
Si Si3 0.000000 0.500000 0.276131
Si Si4 0.366959 0.115991 0.065487
Si Si5 0.369635 0.136045 0.205658
Si Si6 0.677095 0.828495 0.930757
Si Si7 0.750000 0.944910 0.750000
O O1 0.401834 0.250000 0.750000
O O2 0.377297 0.274216 0.623230
O O3 0.300825 0.130372 0.700744
O O4 0.443564 0.077702 0.680321
O O5 0.948505 0.420538 0.955044
O O6 0.052909 0.417335 0.230956
O O7 0.368744 0.178192 0.133355
O O8 0.325235 0.980758 0.072260
O O9 0.339985 0.192972 0.005064
O O10 0.348681 0.250000 0.250000
O O11 0.309311 0.028400 0.214073
O O12 0.750000 0.750000 0.919407
#
# Coordination Sequence:
#
# PCOD9326980 Si02
#       7
#    16   4   8  16  16  16   8
#     4  11  20  36  61  86 117 153 192 240 288 341
#     4   8  18  36  56  76 106 142 184 236 270 320
#     4  10  23  36  58  90 117 150 200 238 283 350
#     4  10  22  37  59  87 113 147 195 236 278 347
#     4  11  22  38  59  85 121 157 190 242 295 337
#     4  10  20  37  62  86 113 149 189 237 287 336
#     4  10  22  36  58  90 116 150 202 238 280 350
#
# _framework density 20.325877999999999
#
# number of rings (size 3 to 8) (size 9 to 14) (size 15 to 20)
#    0.000    1.905    0.000    6.286    0.000    6.095 
#    0.000    1.905    0.000    1.143    0.000    0.000 
#    0.000    0.000    0.000    0.000    0.000    0.000 
#
# Total GULP energy -117087.426287 kJ/mol
# GULP energy per Si atom -5575.591728 kJ/mol
# Density = 2.027962 g / cm^3
# Si number density = 20.325878 Si / 1000 Ang^3
#
#
#
# Elastic Constant Matrix: (Units=GPa)
#
#
# Indices 1 2 3 4 5 6 
#
# 1 100.0640 30.2853 20.4686 0.0000 0.0000 0.0000
# 2 30.2853 59.8703 44.7748 0.0000 0.0000 0.0000
# 3 20.4686 44.7748 190.8738 0.0000 0.0000 0.0000
# 4 0.0000 0.0000 0.0000 21.3163 0.0000 0.0000
# 5 0.0000 0.0000 0.0000 0.0000 -20.7000 0.0000
# 6 0.0000 0.0000 0.0000 0.0000 0.0000 -21.8535
#
#
#
# Elastic Compliance Matrix: (Units=1/GPa)
#
#
# Indices 1 2 3 4 5 6 
#
# 1 0.011804 -0.006094 0.000164 0.000000 0.000000 0.000000
# 2 -0.006094 0.023402 -0.004836 0.000000 0.000000 0.000000
# 3 0.000164 -0.004836 0.006356 0.000000 0.000000 0.000000
# 4 0.000000 0.000000 0.000000 0.046912 0.000000 0.000000
# 5 0.000000 0.000000 0.000000 0.000000 -0.048309 0.000000
# 6 0.000000 0.000000 0.000000 0.000000 0.000000 -0.045759
#
#
# Mechanical properties :
#
#
# Convention : Reuss Voigt Hill
#
# Bulk Modulus (GPa) = 49.92494 60.20729 55.06612
# Shear Modulus (GPa) = 221.08978 12.77120 116.93049
#
# Velocity S-wave (km/s) = 10.44072 2.50935 7.59294
# Velocity P-wave (km/s) = 13.03689 6.17099 10.19906
#
# Compressibility (1/GPa) = 0.02003007
#
# Stress axis : x y z
#
# Youngs Moduli (GPa) = 84.71406 42.73146 157.33224
#
# Poissons Ratio (x) = 0.26039 -0.02573
# Poissons Ratio (y) = 0.51621 0.76088
# Poissons Ratio (z) = -0.01386 0.20666
#
# Static dielectric constant tensor:
#      x y z
#    x 1.804940 0.000000 0.000000 
#    y 0.000000 1.799040 0.000000 
#    z 0.000000 0.000000 1.773490 
# 
# From -- ./inp_files/44109.got.cif
#   From: 2010.05.17/outbox.cif.g08.bks.cpg/sg22_23_cif.got.tgz:44109.got - 2010.06.03 23:40:54.
