data_PCOD9326609
_publ_section_title
;
Structure prediction by ZEFSAII (Michael W. Deem and Ramdas Pophale) SiO2 
 PCOD9326609
Probable space group: F 2 2 2
;
_chemical_formula_sum "Si O2"
_cell_formula_units_Z 96
_cell_length_a 29.199783
_cell_length_b 10.068000
_cell_length_c 15.703032
_cell_angle_alpha 90.000000
_cell_angle_beta 90.000000
_cell_angle_gamma 90.000000
_cell_volume 4616.430977
_symmetry_space_group_name_H-M "F 2 2 2"
_symmetry_group_IT_number 22
_symmetry_cell_setting 'orthorhombic'
loop_
_space_group_symop_operation_xyz
x,y,z
-x,-y,z
x,-y,-z
-x,y,-z
x,1/2+y,1/2+z
-x,1/2-y,1/2+z
x,1/2-y,1/2-z
-x,1/2+y,1/2-z
1/2+x,y,1/2+z
1/2-x,-y,1/2+z
1/2+x,-y,1/2-z
1/2-x,y,1/2-z
1/2+x,1/2+y,z
1/2-x,1/2-y,z
1/2+x,1/2-y,-z
1/2-x,1/2+y,-z
loop_
_atom_site_type_symbol
_atom_site_label
_atom_site_fract_x
_atom_site_fract_y
_atom_site_fract_z
Si Si1 0.440961 0.380181 0.066411
Si Si2 0.910550 0.101856 0.286433
Si Si3 0.252910 0.911466 0.351914
Si Si4 0.000000 0.500000 0.700045
Si Si5 0.685354 0.500000 0.500000
Si Si6 0.389020 0.801793 0.037013
Si Si7 0.644303 0.533952 0.865968
O O1 0.480774 0.385745 0.136402
O O2 0.390847 0.420234 0.104286
O O3 0.450166 0.500000 0.000000
O O4 0.431903 0.243149 0.019286
O O5 0.916235 0.250000 0.250000
O O6 0.903326 0.102747 0.386084
O O7 0.866722 0.050105 0.234170
O O8 0.956311 0.031582 0.255980
O O9 0.250000 0.936666 0.250000
O O10 0.250000 0.750000 0.361739
O O11 0.215386 0.972465 0.415641
O O12 0.301967 0.971344 0.380139
O O13 0.652329 0.627464 0.488976
O O14 0.372087 0.666880 0.084223
#
# Coordination Sequence:
#
# PCOD9326609 Si02
#       7
#    16  16  16   8   8  16  16
#     4   9  19  34  63  87 118 152 203 253 295 364
#     4   9  19  36  63  83 121 153 202 253 302 369
#     4  11  23  37  62  93 119 163 221 262 294 374
#     4  10  19  38  62  95 108 156 208 250 299 361
#     4  12  24  36  64  93 134 163 206 260 322 386
#     4  10  20  37  56  89 122 166 188 251 320 365
#     4   9  18  36  59  87 114 153 205 258 299 342
#
# _framework density 20.795286000000001
#
# number of rings (size 3 to 8) (size 9 to 14) (size 15 to 20)
#    0.000    2.167    1.667    2.250    8.167    0.000 
#    3.000    0.000    0.000    7.500    0.000    0.000 
#    0.000    0.000    0.000    0.000    0.000    0.000 
#
# Total GULP energy -133850.885615 kJ/mol
# GULP energy per Si atom -5577.120234 kJ/mol
# Density = 2.074795 g / cm^3
# Si number density = 20.795286 Si / 1000 Ang^3
#
#
#
# Elastic Constant Matrix: (Units=GPa)
#
#
# Indices 1 2 3 4 5 6 
#
# 1 107.8396 16.1878 41.7949 0.0000 0.0000 0.0000
# 2 16.1878 24.9851 34.1820 0.0000 0.0000 0.0000
# 3 41.7949 34.1820 111.5833 0.0000 0.0000 0.0000
# 4 0.0000 0.0000 0.0000 14.3907 0.0000 0.0000
# 5 0.0000 0.0000 0.0000 0.0000 9.2243 0.0000
# 6 0.0000 0.0000 0.0000 0.0000 0.0000 11.2660
#
#
#
# Elastic Compliance Matrix: (Units=1/GPa)
#
#
# Indices 1 2 3 4 5 6 
#
# 1 0.010941 -0.002551 -0.003317 0.000000 0.000000 0.000000
# 2 -0.002551 0.069494 -0.020333 0.000000 0.000000 0.000000
# 3 -0.003317 -0.020333 0.016433 0.000000 0.000000 0.000000
# 4 0.000000 0.000000 0.000000 0.069489 0.000000 0.000000
# 5 0.000000 0.000000 0.000000 0.000000 0.108410 0.000000
# 6 0.000000 0.000000 0.000000 0.000000 0.000000 0.088762
#
#
# Mechanical properties :
#
#
# Convention : Reuss Voigt Hill
#
# Bulk Modulus (GPa) = 22.48882 47.63751 35.06317
# Shear Modulus (GPa) = 11.60755 17.12575 14.36665
#
# Velocity S-wave (km/s) = 2.36515 2.87285 2.63128
# Velocity P-wave (km/s) = 4.27743 5.82769 5.11167
#
# Compressibility (1/GPa) = 0.04446653
#
# Stress axis : x y z
#
# Youngs Moduli (GPa) = 91.39555 14.38970 60.85351
#
# Poissons Ratio (x) = 0.03671 0.20183
# Poissons Ratio (y) = 0.23319 1.23733
# Poissons Ratio (z) = 0.30313 0.29258
#
# Static dielectric constant tensor:
#      x y z
#    x 1.766620 0.000000 0.000000 
#    y 0.000000 1.755230 0.000000 
#    z 0.000000 0.000000 1.802760 
# 
# From -- ./inp_files/33480.got.cif
#   From: 2010.05.17/outbox.cif.g08.bks.cpg/sg22_17_cif.got.tgz:33480.got - 2010.06.03 23:40:54.
