data_PCOD9326979
_publ_section_title
;
Structure prediction by ZEFSAII (Michael W. Deem and Ramdas Pophale) SiO2 
 PCOD9326979
Probable space group: F 2 2 2
;
_chemical_formula_sum "Si O2"
_cell_formula_units_Z 96
_cell_length_a 13.830864
_cell_length_b 14.357858
_cell_length_c 20.367055
_cell_angle_alpha 90.000000
_cell_angle_beta 90.000000
_cell_angle_gamma 90.000000
_cell_volume 4044.521989
_symmetry_space_group_name_H-M "F 2 2 2"
_symmetry_group_IT_number 22
_symmetry_cell_setting 'orthorhombic'
loop_
_space_group_symop_operation_xyz
x,y,z
-x,-y,z
x,-y,-z
-x,y,-z
x,1/2+y,1/2+z
-x,1/2-y,1/2+z
x,1/2-y,1/2-z
-x,1/2+y,1/2-z
1/2+x,y,1/2+z
1/2-x,-y,1/2+z
1/2+x,-y,1/2-z
1/2-x,y,1/2-z
1/2+x,1/2+y,z
1/2-x,1/2-y,z
1/2+x,1/2-y,-z
1/2-x,1/2+y,-z
loop_
_atom_site_type_symbol
_atom_site_label
_atom_site_fract_x
_atom_site_fract_y
_atom_site_fract_z
Si Si1 0.139069 0.220210 0.459919
Si Si2 0.054135 0.232376 0.909156
Si Si3 0.687540 0.475128 0.577981
Si Si4 0.602930 0.524762 0.922452
Si Si5 0.510725 0.658111 0.281736
Si Si6 0.854364 0.478186 0.216517
O O1 0.250000 0.250000 0.457920
O O2 0.105225 0.206554 0.534564
O O3 0.134853 0.124170 0.420536
O O4 0.056845 0.289117 0.432534
O O5 0.112619 0.135596 0.910624
O O6 0.037768 0.292088 0.844974
O O7 0.683266 0.500000 0.500000
O O8 0.800719 0.471069 0.597839
O O9 0.647158 0.537077 0.637120
O O10 0.500000 0.500000 0.891411
O O11 0.597097 0.500000 0.000000
O O12 0.555258 0.750000 0.250000
O O13 0.418724 0.603193 0.251132
O O14 0.590412 0.577002 0.280340
O O15 0.750000 0.481049 0.250000
#
# Coordination Sequence:
#
# PCOD9326979 Si02
#       6
#    16  16  16  16  16  16
#     4  11  21  38  67 106 147 187 232 300 374 439
#     4  11  23  42  68 107 146 190 250 308 363 453
#     4  11  22  41  69 106 142 187 237 299 374 442
#     4  10  20  37  61  99 150 193 232 286 363 436
#     4  11  27  52  74 103 141 197 254 309 380 453
#     4  11  27  52  75 109 146 193 254 317 380 458
#
# _framework density 23.735807999999999
#
# number of rings (size 3 to 8) (size 9 to 14) (size 15 to 20)
#    0.000    1.167    1.667    6.000    2.333    3.333 
#    0.000    0.000    0.000    0.000    0.000    0.000 
#    0.000    0.000    0.000    0.000    0.000    0.000 
#
# Total GULP energy -133810.385388 kJ/mol
# GULP energy per Si atom -5575.432724 kJ/mol
# Density = 2.368178 g / cm^3
# Si number density = 23.735808 Si / 1000 Ang^3
#
#
#
# Elastic Constant Matrix: (Units=GPa)
#
#
# Indices 1 2 3 4 5 6 
#
# 1 60.2259 37.7615 -6.1908 0.0000 0.0000 0.0000
# 2 37.7615 91.5770 19.4280 0.0000 0.0000 0.0000
# 3 -6.1908 19.4280 54.0268 0.0000 0.0000 0.0000
# 4 0.0000 0.0000 0.0000 15.3474 0.0000 0.0000
# 5 0.0000 0.0000 0.0000 0.0000 17.8214 0.0000
# 6 0.0000 0.0000 0.0000 0.0000 0.0000 33.5252
#
#
#
# Elastic Compliance Matrix: (Units=1/GPa)
#
#
# Indices 1 2 3 4 5 6 
#
# 1 0.024622 -0.011639 0.007007 0.000000 0.000000 0.000000
# 2 -0.011639 0.017324 -0.007563 0.000000 0.000000 0.000000
# 3 0.007007 -0.007563 0.022032 0.000000 0.000000 0.000000
# 4 0.000000 0.000000 0.000000 0.065157 0.000000 0.000000
# 5 0.000000 0.000000 0.000000 0.000000 0.056112 0.000000
# 6 0.000000 0.000000 0.000000 0.000000 0.000000 0.029828
#
#
# Mechanical properties :
#
#
# Convention : Reuss Voigt Hill
#
# Bulk Modulus (GPa) = 25.26120 34.20301 29.73210
# Shear Modulus (GPa) = 19.78916 23.66086 21.72501
#
# Velocity S-wave (km/s) = 2.89056 3.16071 3.02865
# Velocity P-wave (km/s) = 4.66972 5.26889 4.97833
#
# Compressibility (1/GPa) = 0.03958640
#
# Stress axis : x y z
#
# Youngs Moduli (GPa) = 40.61356 57.72394 45.38848
#
# Poissons Ratio (x) = 0.67188 -0.31803
# Poissons Ratio (y) = 0.47272 0.34329
# Poissons Ratio (z) = -0.28458 0.43659
#
# Static dielectric constant tensor:
#      x y z
#    x 1.880530 0.000000 0.000000 
#    y 0.000000 1.897930 0.000000 
#    z 0.000000 0.000000 2.001720 
# 
# From -- ./inp_files/43489.got.cif
#   From: 2010.05.17/outbox.cif.g08.bks.cpg/sg22_22_cif.got.tgz:43489.got - 2010.06.03 23:40:54.
