data_PCOD9326858
_publ_section_title
;
Structure prediction by ZEFSAII (Michael W. Deem and Ramdas Pophale) SiO2 
 PCOD9326858
Probable space group: F 2 2 2
;
_chemical_formula_sum "Si O2"
_cell_formula_units_Z 96
_cell_length_a 7.996311
_cell_length_b 19.802879
_cell_length_c 28.536543
_cell_angle_alpha 90.000000
_cell_angle_beta 90.000000
_cell_angle_gamma 90.000000
_cell_volume 4518.760990
_symmetry_space_group_name_H-M "F 2 2 2"
_symmetry_group_IT_number 22
_symmetry_cell_setting 'orthorhombic'
loop_
_space_group_symop_operation_xyz
x,y,z
-x,-y,z
x,-y,-z
-x,y,-z
x,1/2+y,1/2+z
-x,1/2-y,1/2+z
x,1/2-y,1/2-z
-x,1/2+y,1/2-z
1/2+x,y,1/2+z
1/2-x,-y,1/2+z
1/2+x,-y,1/2-z
1/2-x,y,1/2-z
1/2+x,1/2+y,z
1/2-x,1/2-y,z
1/2+x,1/2-y,-z
1/2-x,1/2+y,-z
loop_
_atom_site_type_symbol
_atom_site_label
_atom_site_fract_x
_atom_site_fract_y
_atom_site_fract_z
Si Si1 0.183646 0.965332 0.197975
Si Si2 0.207045 0.674016 0.038796
Si Si3 0.427700 0.285930 0.391679
Si Si4 0.681556 0.561986 0.475002
Si Si5 0.213579 0.579630 0.868959
Si Si6 0.079590 0.146093 0.871333
O O1 0.250000 0.955838 0.250000
O O2 0.172203 0.894651 0.169847
O O3 0.291119 0.020416 0.168768
O O4 0.000000 0.000000 0.200295
O O5 0.250000 0.750000 0.028173
O O6 0.313489 0.642180 0.081301
O O7 0.023310 0.684518 0.062699
O O8 0.255071 0.631430 0.993237
O O9 0.250000 0.250000 0.402335
O O10 0.392661 0.352256 0.360261
O O11 0.537893 0.226419 0.367928
O O12 0.772276 0.500000 0.500000
O O13 0.500000 0.565442 0.500000
O O14 0.667362 0.552214 0.420224
O O15 0.403392 0.606989 0.874758
#
# Coordination Sequence:
#
# PCOD9326858 Si02
#       6
#    16  16  16  16  16  16
#     4  10  22  41  64  94 120 158 213 270 337 395
#     4  10  20  36  57  89 123 165 216 250 305 382
#     4   9  18  35  60  85 119 170 209 257 317 372
#     4  11  22  36  54  88 129 165 212 251 302 375
#     4  10  20  38  60  84 124 165 204 258 316 380
#     4   9  20  37  60  88 123 156 206 264 322 379
#
# _framework density 21.244762000000001
#
# number of rings (size 3 to 8) (size 9 to 14) (size 15 to 20)
#    0.000    2.167    1.667    1.000    0.000    4.000 
#    3.000    0.833    0.000   31.000    0.000    0.000 
#    0.000    0.000    0.000    0.000    0.000    0.000 
#
# Total GULP energy -133863.942011 kJ/mol
# GULP energy per Si atom -5577.664250 kJ/mol
# Density = 2.119641 g / cm^3
# Si number density = 21.244762 Si / 1000 Ang^3
#
#
#
# Elastic Constant Matrix: (Units=GPa)
#
#
# Indices 1 2 3 4 5 6 
#
# 1 39.4929 18.3713 8.0021 0.0000 0.0000 0.0000
# 2 18.3713 133.0669 74.5900 0.0000 0.0000 0.0000
# 3 8.0021 74.5900 125.0138 0.0000 0.0000 0.0000
# 4 0.0000 0.0000 0.0000 33.0212 0.0000 0.0000
# 5 0.0000 0.0000 0.0000 0.0000 26.1452 0.0000
# 6 0.0000 0.0000 0.0000 0.0000 0.0000 11.0457
#
#
#
# Elastic Compliance Matrix: (Units=1/GPa)
#
#
# Indices 1 2 3 4 5 6 
#
# 1 0.027105 -0.004161 0.000748 0.000000 0.000000 0.000000
# 2 -0.004161 0.011930 -0.006852 0.000000 0.000000 0.000000
# 3 0.000748 -0.006852 0.012039 0.000000 0.000000 0.000000
# 4 0.000000 0.000000 0.000000 0.030284 0.000000 0.000000
# 5 0.000000 0.000000 0.000000 0.000000 0.038248 0.000000
# 6 0.000000 0.000000 0.000000 0.000000 0.000000 0.090533
#
#
# Mechanical properties :
#
#
# Convention : Reuss Voigt Hill
#
# Bulk Modulus (GPa) = 32.73935 55.50004 44.11969
# Shear Modulus (GPa) = 20.75963 27.14975 23.95469
#
# Velocity S-wave (km/s) = 3.12935 3.57872 3.36156
# Velocity P-wave (km/s) = 5.33865 6.57702 5.98992
#
# Compressibility (1/GPa) = 0.03054429
#
# Stress axis : x y z
#
# Youngs Moduli (GPa) = 36.89315 83.81973 83.06011
#
# Poissons Ratio (x) = 0.34881 -0.06212
# Poissons Ratio (y) = 0.15353 0.56912
# Poissons Ratio (z) = -0.02759 0.57433
#
# Static dielectric constant tensor:
#      x y z
#    x 1.878300 0.000000 0.000000 
#    y 0.000000 1.894350 0.000000 
#    z 0.000000 0.000000 1.720050 
# 
# From -- ./inp_files/41960.got.cif
#   From: 2010.05.17/outbox.cif.g08.bks.cpg/sg22_21_cif.got.tgz:41960.got - 2010.06.03 23:40:54.
