data_PCOD9326542
_publ_section_title
;
Structure prediction by ZEFSAII (Michael W. Deem and Ramdas Pophale) SiO2 
 PCOD9326542
Probable space group: F 2 2 2
;
_chemical_formula_sum "Si O2"
_cell_formula_units_Z 96
_cell_length_a 9.736241
_cell_length_b 18.785340
_cell_length_c 27.127935
_cell_angle_alpha 90.000000
_cell_angle_beta 90.000000
_cell_angle_gamma 90.000000
_cell_volume 4961.661265
_symmetry_space_group_name_H-M "F 2 2 2"
_symmetry_group_IT_number 22
_symmetry_cell_setting 'orthorhombic'
loop_
_space_group_symop_operation_xyz
x,y,z
-x,-y,z
x,-y,-z
-x,y,-z
x,1/2+y,1/2+z
-x,1/2-y,1/2+z
x,1/2-y,1/2-z
-x,1/2+y,1/2-z
1/2+x,y,1/2+z
1/2-x,-y,1/2+z
1/2+x,-y,1/2-z
1/2-x,y,1/2-z
1/2+x,1/2+y,z
1/2-x,1/2-y,z
1/2+x,1/2-y,-z
1/2-x,1/2+y,-z
loop_
_atom_site_type_symbol
_atom_site_label
_atom_site_fract_x
_atom_site_fract_y
_atom_site_fract_z
Si Si1 0.728817 0.551622 0.453133
Si Si2 0.751009 0.830707 0.602133
Si Si3 0.360284 0.463576 0.643116
Si Si4 0.531988 0.415420 0.887974
Si Si5 0.851862 0.307178 0.991413
Si Si6 0.355616 0.962476 0.708822
O O1 0.747303 0.500000 0.500000
O O2 0.677429 0.503987 0.407839
O O3 0.867008 0.590581 0.434412
O O4 0.629591 0.617764 0.464005
O O5 0.750000 0.750000 0.620548
O O6 0.859855 0.880657 0.630164
O O7 0.603445 0.868675 0.607440
O O8 0.787701 0.827184 0.544378
O O9 0.500000 0.500000 0.660402
O O10 0.239305 0.478522 0.681741
O O11 0.500000 0.500000 0.888457
O O12 0.605701 0.406883 0.834817
O O13 0.750000 0.250000 0.967320
O O14 0.000000 0.273300 0.000000
O O15 0.250000 0.933820 0.750000
O O16 0.500000 0.000000 0.724547
#
# Coordination Sequence:
#
# PCOD9326542 Si02
#       6
#    16  16  16  16  16  16
#     4  11  21  34  59  81 120 162 215 262 300 351
#     4  11  22  38  60  86 130 168 207 257 309 367
#     4  11  21  38  59  89 122 159 205 250 307 370
#     4  10  19  38  58  91 120 161 209 247 308 377
#     4  11  25  38  52  82 122 170 217 262 308 355
#     4  10  19  36  63  98 120 146 198 262 305 369
#
# _framework density 19.348358000000001
#
# number of rings (size 3 to 8) (size 9 to 14) (size 15 to 20)
#    0.000    1.333    6.667    1.500    4.667    1.667 
#    0.000    0.000    0.000    0.500    0.000    1.167 
#    0.000    0.000    0.000    0.000    0.000    0.000 
#
# Total GULP energy -133834.991944 kJ/mol
# GULP energy per Si atom -5576.457998 kJ/mol
# Density = 1.930432 g / cm^3
# Si number density = 19.348358 Si / 1000 Ang^3
#
#
#
# Elastic Constant Matrix: (Units=GPa)
#
#
# Indices 1 2 3 4 5 6 
#
# 1 115.6990 30.5732 20.5129 0.0000 0.0000 0.0000
# 2 30.5732 112.2921 4.7401 0.0000 0.0000 0.0000
# 3 20.5129 4.7401 63.6200 0.0000 0.0000 0.0000
# 4 0.0000 0.0000 0.0000 7.0960 0.0000 0.0000
# 5 0.0000 0.0000 0.0000 0.0000 35.7269 0.0000
# 6 0.0000 0.0000 0.0000 0.0000 0.0000 26.8270
#
#
#
# Elastic Compliance Matrix: (Units=1/GPa)
#
#
# Indices 1 2 3 4 5 6 
#
# 1 0.009847 -0.002555 -0.002985 0.000000 0.000000 0.000000
# 2 -0.002555 0.009596 0.000109 0.000000 0.000000 0.000000
# 3 -0.002985 0.000109 0.016673 0.000000 0.000000 0.000000
# 4 0.000000 0.000000 0.000000 0.140925 0.000000 0.000000
# 5 0.000000 0.000000 0.000000 0.000000 0.027990 0.000000
# 6 0.000000 0.000000 0.000000 0.000000 0.000000 0.037276
#
#
# Mechanical properties :
#
#
# Convention : Reuss Voigt Hill
#
# Bulk Modulus (GPa) = 39.59698 44.80705 42.20202
# Shear Modulus (GPa) = 19.11403 29.64896 24.38149
#
# Velocity S-wave (km/s) = 3.14648 3.91880 3.55369
# Velocity P-wave (km/s) = 5.80605 6.60942 6.22071
#
# Compressibility (1/GPa) = 0.02525445
#
# Stress axis : x y z
#
# Youngs Moduli (GPa) = 101.54883 104.20549 59.97874
#
# Poissons Ratio (x) = 0.26626 0.17902
# Poissons Ratio (y) = 0.25947 -0.00653
# Poissons Ratio (z) = 0.30310 -0.01134
#
# Static dielectric constant tensor:
#      x y z
#    x 1.757950 0.000000 0.000000 
#    y 0.000000 1.692030 0.000000 
#    z 0.000000 0.000000 1.748810 
# 
# From -- ./inp_files/52651.got.cif
#   From: 2010.05.17/outbox.cif.g08.bks.cpg/sg22_27_cif.got.tgz:52651.got - 2010.06.03 23:40:54.
