data_PCOD9326045
_publ_section_title
;
Structure prediction by ZEFSAII (Michael W. Deem and Ramdas Pophale) SiO2 
 PCOD9326045
Probable space group: F 2 2 2
;
_chemical_formula_sum "Si O2"
_cell_formula_units_Z 80
_cell_length_a 29.178915
_cell_length_b 8.826320
_cell_length_c 16.668756
_cell_angle_alpha 90.000000
_cell_angle_beta 90.000000
_cell_angle_gamma 90.000000
_cell_volume 4292.912109
_symmetry_space_group_name_H-M "F 2 2 2"
_symmetry_group_IT_number 22
_symmetry_cell_setting 'orthorhombic'
loop_
_space_group_symop_operation_xyz
x,y,z
-x,-y,z
x,-y,-z
-x,y,-z
x,1/2+y,1/2+z
-x,1/2-y,1/2+z
x,1/2-y,1/2-z
-x,1/2+y,1/2-z
1/2+x,y,1/2+z
1/2-x,-y,1/2+z
1/2+x,-y,1/2-z
1/2-x,y,1/2-z
1/2+x,1/2+y,z
1/2-x,1/2-y,z
1/2+x,1/2-y,-z
1/2-x,1/2+y,-z
loop_
_atom_site_type_symbol
_atom_site_label
_atom_site_fract_x
_atom_site_fract_y
_atom_site_fract_z
Si Si1 0.452267 0.581055 0.353095
Si Si2 0.356130 0.947532 0.911005
Si Si3 0.804265 0.924602 0.738308
Si Si4 0.369912 0.351572 0.170471
Si Si5 0.951692 0.069629 0.158174
O O1 0.500000 0.500000 0.377314
O O2 0.407937 0.497433 0.387814
O O3 0.448798 0.759122 0.373543
O O4 0.450481 0.575041 0.255876
O O5 0.353642 0.768582 0.894894
O O6 0.321457 0.025049 0.848842
O O7 0.346367 0.000000 0.000000
O O8 0.818173 0.750000 0.750000
O O9 0.750000 0.937631 0.750000
O O10 0.830716 0.035246 0.798997
O O11 0.383484 0.250000 0.250000
O O12 0.411118 0.454224 0.138336
O O13 0.000000 0.000000 0.133560
#
# Coordination Sequence:
#
# PCOD9326045 Si02
#       5
#    16  16  16  16  16
#     4  10  19  32  54  82 121 158 196 246 295 345
#     4  11  23  38  58  88 124 155 193 244 300 353
#     4  10  21  41  65  87 112 150 195 244 299 360
#     4  10  19  34  57  84 114 152 198 240 290 352
#     4  10  18  29  55  85 111 152 210 251 279 339
#
# _framework density 18.635368
#
# number of rings (size 3 to 8) (size 9 to 14) (size 15 to 20)
#    0.000    1.800    4.000    2.400    2.800    4.000 
#    0.000    8.000    0.000    1.200    0.000    0.000 
#    0.000    0.000    0.000    0.000    0.000    0.000 
#
# Total GULP energy -111664.637372 kJ/mol
# GULP energy per Si atom -5583.231869 kJ/mol
# Density = 1.859295 g / cm^3
# Si number density = 18.635368 Si / 1000 Ang^3
#
#
#
# Elastic Constant Matrix: (Units=GPa)
#
#
# Indices 1 2 3 4 5 6 
#
# 1 94.6519 68.5602 45.4083 0.0000 0.0000 0.0000
# 2 68.5602 183.7996 53.1552 0.0000 0.0000 0.0000
# 3 45.4083 53.1552 71.9897 0.0000 0.0000 0.0000
# 4 0.0000 0.0000 0.0000 12.8966 0.0000 0.0000
# 5 0.0000 0.0000 0.0000 0.0000 5.8002 0.0000
# 6 0.0000 0.0000 0.0000 0.0000 0.0000 32.9738
#
#
#
# Elastic Compliance Matrix: (Units=1/GPa)
#
#
# Indices 1 2 3 4 5 6 
#
# 1 0.017385 -0.004213 -0.007855 0.000000 0.000000 0.000000
# 2 -0.004213 0.007939 -0.003204 0.000000 0.000000 0.000000
# 3 -0.007855 -0.003204 0.021211 0.000000 0.000000 0.000000
# 4 0.000000 0.000000 0.000000 0.077540 0.000000 0.000000
# 5 0.000000 0.000000 0.000000 0.000000 0.172408 0.000000
# 6 0.000000 0.000000 0.000000 0.000000 0.000000 0.030327
#
#
# Mechanical properties :
#
#
# Convention : Reuss Voigt Hill
#
# Bulk Modulus (GPa) = 62.53705 76.07649 69.30677
# Shear Modulus (GPa) = 13.78602 22.55529 18.17065
#
# Velocity S-wave (km/s) = 2.72284 3.48278 3.12599
# Velocity P-wave (km/s) = 6.59668 7.55548 7.09230
#
# Compressibility (1/GPa) = 0.01599052
#
# Stress axis : x y z
#
# Youngs Moduli (GPa) = 57.52011 125.95955 47.14426
#
# Poissons Ratio (x) = 0.53071 0.37031
# Poissons Ratio (y) = 0.24235 0.15107
# Poissons Ratio (z) = 0.45182 0.40362
#
# Static dielectric constant tensor:
#      x y z
#    x 1.623720 0.000000 0.000000 
#    y 0.000000 1.657950 0.000000 
#    z 0.000000 0.000000 1.639970 
# 
# From -- ./inp_files/11596.got.cif
#   From: 2010.05.17/outbox.cif.g08.bks.cpg/sg22_6_cif.got.tgz:11596.got - 2010.06.03 23:40:54.
