data_PCOD9326715
_publ_section_title
;
Structure prediction by ZEFSAII (Michael W. Deem and Ramdas Pophale) SiO2 
 PCOD9326715
Probable space group: F 2 2 2
;
_chemical_formula_sum "Si O2"
_cell_formula_units_Z 80
_cell_length_a 5.033108
_cell_length_b 23.260801
_cell_length_c 35.678736
_cell_angle_alpha 90.000000
_cell_angle_beta 90.000000
_cell_angle_gamma 90.000000
_cell_volume 4177.056748
_symmetry_space_group_name_H-M "F 2 2 2"
_symmetry_group_IT_number 22
_symmetry_cell_setting 'orthorhombic'
loop_
_space_group_symop_operation_xyz
x,y,z
-x,-y,z
x,-y,-z
-x,y,-z
x,1/2+y,1/2+z
-x,1/2-y,1/2+z
x,1/2-y,1/2-z
-x,1/2+y,1/2-z
1/2+x,y,1/2+z
1/2-x,-y,1/2+z
1/2+x,-y,1/2-z
1/2-x,y,1/2-z
1/2+x,1/2+y,z
1/2-x,1/2-y,z
1/2+x,1/2-y,-z
1/2-x,1/2+y,-z
loop_
_atom_site_type_symbol
_atom_site_label
_atom_site_fract_x
_atom_site_fract_y
_atom_site_fract_z
Si Si1 0.136099 0.626317 0.609943
Si Si2 0.359597 0.619460 0.288392
Si Si3 0.358944 0.561055 0.368035
Si Si4 0.499228 0.791636 0.542880
Si Si5 0.633524 0.686626 0.189464
O O1 0.439478 0.605177 0.611335
O O2 0.115131 0.669046 0.645679
O O3 0.935943 0.573063 0.616913
O O4 0.040408 0.658726 0.573049
O O5 0.250000 0.592616 0.250000
O O6 0.339922 0.577672 0.324080
O O7 0.657020 0.643775 0.290663
O O8 0.157690 0.673109 0.294807
O O9 0.500000 0.500000 0.372143
O O10 0.500000 0.813635 0.500000
O O11 0.750000 0.750000 0.549324
O O12 0.250000 0.750000 0.546486
O O13 0.750000 0.750000 0.193921
#
# Coordination Sequence:
#
# PCOD9326715 Si02
#       5
#    16  16  16  16  16
#     4  10  20  35  56  79 107 139 179 223 261 319
#     4  10  21  35  50  74 102 131 174 221 267 321
#     4  10  21  38  57  76 100 138 185 230 275 314
#     4  10  20  34  56  87 119 148 176 212 266 326
#     4  10  20  32  50  75 104 139 171 206 260 325
#
# _framework density 19.152242000000001
#
# number of rings (size 3 to 8) (size 9 to 14) (size 15 to 20)
#    0.000    2.000    0.000    3.600    0.000    5.600 
#    0.000    6.000    0.000    3.600    0.000    0.000 
#    0.000    0.000    0.000    0.000    0.000    0.000 
#
# Total GULP energy -111596.046979 kJ/mol
# GULP energy per Si atom -5579.802349 kJ/mol
# Density = 1.910865 g / cm^3
# Si number density = 19.152242 Si / 1000 Ang^3
#
#
#
# Elastic Constant Matrix: (Units=GPa)
#
#
# Indices 1 2 3 4 5 6 
#
# 1 99.8104 -2.2598 26.8323 0.0000 0.0000 0.0000
# 2 -2.2598 32.3930 38.3029 0.0000 0.0000 0.0000
# 3 26.8323 38.3029 113.4025 0.0000 0.0000 0.0000
# 4 0.0000 0.0000 0.0000 0.1205 0.0000 0.0000
# 5 0.0000 0.0000 0.0000 0.0000 28.7169 0.0000
# 6 0.0000 0.0000 0.0000 0.0000 0.0000 5.3326
#
#
#
# Elastic Compliance Matrix: (Units=1/GPa)
#
#
# Indices 1 2 3 4 5 6 
#
# 1 0.011511 0.006699 -0.004986 0.000000 0.000000 0.000000
# 2 0.006699 0.055297 -0.020262 0.000000 0.000000 0.000000
# 3 -0.004986 -0.020262 0.016842 0.000000 0.000000 0.000000
# 4 0.000000 0.000000 0.000000 8.297890 0.000000 0.000000
# 5 0.000000 0.000000 0.000000 0.000000 0.034823 0.000000
# 6 0.000000 0.000000 0.000000 0.000000 0.000000 0.187524
#
#
# Mechanical properties :
#
#
# Convention : Reuss Voigt Hill
#
# Bulk Modulus (GPa) = 21.48177 41.26184 31.37181
# Shear Modulus (GPa) = 0.57760 19.01605 9.79683
#
# Velocity S-wave (km/s) = 0.54976 3.15443 2.26414
# Velocity P-wave (km/s) = 3.41228 5.90408 4.82192
#
# Compressibility (1/GPa) = 0.04655110
#
# Stress axis : x y z
#
# Youngs Moduli (GPa) = 86.87213 18.08410 59.37615
#
# Poissons Ratio (x) = -0.12115 0.29607
# Poissons Ratio (y) = -0.58197 1.20310
# Poissons Ratio (z) = 0.43318 0.36643
#
# Static dielectric constant tensor:
#      x y z
#    x 1.648530 0.000000 0.000000 
#    y 0.000000 1.650330 0.000000 
#    z 0.000000 0.000000 1.724760 
# 
# From -- ./inp_files/50596.got.cif
#   From: 2010.05.17/outbox.cif.g08.bks.cpg/sg22_26_cif.got.tgz:50596.got - 2010.06.03 23:40:54.
