data_PCOD9326780
_publ_section_title
;
Structure prediction by ZEFSAII (Michael W. Deem and Ramdas Pophale) SiO2 
 PCOD9326780
Probable space group: F 2 2 2
;
_chemical_formula_sum "Si O2"
_cell_formula_units_Z 84
_cell_length_a 21.695672
_cell_length_b 14.202150
_cell_length_c 14.335842
_cell_angle_alpha 90.000000
_cell_angle_beta 90.000000
_cell_angle_gamma 90.000000
_cell_volume 4417.234013
_symmetry_space_group_name_H-M "F 2 2 2"
_symmetry_group_IT_number 22
_symmetry_cell_setting 'orthorhombic'
loop_
_space_group_symop_operation_xyz
x,y,z
-x,-y,z
x,-y,-z
-x,y,-z
x,1/2+y,1/2+z
-x,1/2-y,1/2+z
x,1/2-y,1/2-z
-x,1/2+y,1/2-z
1/2+x,y,1/2+z
1/2-x,-y,1/2+z
1/2+x,-y,1/2-z
1/2-x,y,1/2-z
1/2+x,1/2+y,z
1/2-x,1/2-y,z
1/2+x,1/2-y,-z
1/2-x,1/2+y,-z
loop_
_atom_site_type_symbol
_atom_site_label
_atom_site_fract_x
_atom_site_fract_y
_atom_site_fract_z
Si Si1 0.000000 0.500000 0.000000
Si Si2 0.914164 0.909089 0.348825
Si Si3 0.382821 0.294892 0.096492
Si Si4 0.006848 0.659134 0.307466
Si Si5 0.681201 0.539925 0.214351
Si Si6 0.882851 0.416980 0.426619
O O1 0.953809 0.440500 0.936274
O O2 0.877211 0.813535 0.374750
O O3 0.864067 0.977295 0.302333
O O4 0.965434 0.893841 0.268698
O O5 0.455642 0.312281 0.115912
O O6 0.344201 0.364582 0.163983
O O7 0.368731 0.326807 0.991200
O O8 0.030579 0.750000 0.250000
O O9 0.060458 0.604008 0.358440
O O10 0.750000 0.549535 0.250000
O O11 0.671332 0.458521 0.137544
O O12 0.899264 0.500000 0.500000
#
# Coordination Sequence:
#
# PCOD9326780 Si02
#       6
#     4  16  16  16  16  16
#     4  12  24  36  56  88 132 156 192 242 316 388
#     4  10  22  37  55  88 119 158 191 236 307 371
#     4   9  20  35  58  91 113 147 198 247 298 355
#     4   9  18  32  57  85 120 148 182 236 307 361
#     4  10  21  40  61  80 117 155 207 254 296 346
#     4  10  20  34  59  89 112 151 195 252 291 346
#
# _framework density 19.016425000000002
#
# number of rings (size 3 to 8) (size 9 to 14) (size 15 to 20)
#    0.000    2.286    0.000    3.429    5.333   11.429 
#    5.143    0.000    0.000    0.571    0.000    0.000 
#    0.000    0.000    0.000    0.000    0.000    0.000 
#
# Total GULP energy -117091.353197 kJ/mol
# GULP energy per Si atom -5575.778724 kJ/mol
# Density = 1.897314 g / cm^3
# Si number density = 19.016425 Si / 1000 Ang^3
#
#
#
# Elastic Constant Matrix: (Units=GPa)
#
#
# Indices 1 2 3 4 5 6 
#
# 1 90.7156 20.1243 54.5093 0.0000 0.0000 0.0000
# 2 20.1243 40.3230 39.7783 0.0000 0.0000 0.0000
# 3 54.5093 39.7783 114.2956 0.0000 0.0000 0.0000
# 4 0.0000 0.0000 0.0000 31.3337 0.0000 0.0000
# 5 0.0000 0.0000 0.0000 0.0000 21.7920 0.0000
# 6 0.0000 0.0000 0.0000 0.0000 0.0000 7.5283
#
#
#
# Elastic Compliance Matrix: (Units=1/GPa)
#
#
# Indices 1 2 3 4 5 6 
#
# 1 0.015463 -0.000674 -0.007140 0.000000 0.000000 0.000000
# 2 -0.000674 0.037795 -0.012833 0.000000 0.000000 0.000000
# 3 -0.007140 -0.012833 0.016621 0.000000 0.000000 0.000000
# 4 0.000000 0.000000 0.000000 0.031915 0.000000 0.000000
# 5 0.000000 0.000000 0.000000 0.000000 0.045888 0.000000
# 6 0.000000 0.000000 0.000000 0.000000 0.000000 0.132832
#
#
# Mechanical properties :
#
#
# Convention : Reuss Voigt Hill
#
# Bulk Modulus (GPa) = 34.98184 52.68420 43.83302
# Shear Modulus (GPa) = 15.09045 20.85896 17.97470
#
# Velocity S-wave (km/s) = 2.82005 3.31553 3.07778
# Velocity P-wave (km/s) = 5.38880 6.51319 5.97749
#
# Compressibility (1/GPa) = 0.02858626
#
# Stress axis : x y z
#
# Youngs Moduli (GPa) = 64.66903 26.45841 60.16606
#
# Poissons Ratio (x) = 0.01782 0.42960
# Poissons Ratio (y) = 0.04356 0.77209
# Poissons Ratio (z) = 0.46175 0.33953
#
# Static dielectric constant tensor:
#      x y z
#    x 1.614640 0.000000 0.000000 
#    y 0.000000 1.728760 0.000000 
#    z 0.000000 0.000000 1.695940 
# 
# From -- ./inp_files/21338.got.cif
#   From: 2010.05.17/outbox.cif.g08.bks.cpg/sg22_11_cif.got.tgz:21338.got - 2010.06.03 23:40:54.
