data_PCOD9326912
_publ_section_title
;
Structure prediction by ZEFSAII (Michael W. Deem and Ramdas Pophale) SiO2 
 PCOD9326912
Probable space group: F 2 2 2
;
_chemical_formula_sum "Si O2"
_cell_formula_units_Z 80
_cell_length_a 24.707252
_cell_length_b 12.016716
_cell_length_c 11.552430
_cell_angle_alpha 90.000000
_cell_angle_beta 90.000000
_cell_angle_gamma 90.000000
_cell_volume 3429.916818
_symmetry_space_group_name_H-M "F 2 2 2"
_symmetry_group_IT_number 22
_symmetry_cell_setting 'orthorhombic'
loop_
_space_group_symop_operation_xyz
x,y,z
-x,-y,z
x,-y,-z
-x,y,-z
x,1/2+y,1/2+z
-x,1/2-y,1/2+z
x,1/2-y,1/2-z
-x,1/2+y,1/2-z
1/2+x,y,1/2+z
1/2-x,-y,1/2+z
1/2+x,-y,1/2-z
1/2-x,y,1/2-z
1/2+x,1/2+y,z
1/2-x,1/2-y,z
1/2+x,1/2-y,-z
1/2-x,1/2+y,-z
loop_
_atom_site_type_symbol
_atom_site_label
_atom_site_fract_x
_atom_site_fract_y
_atom_site_fract_z
Si Si1 0.161907 0.990564 0.750269
Si Si2 0.120242 0.750000 0.750000
Si Si3 0.195443 0.309459 0.627003
Si Si4 0.054557 0.440541 0.622997
Si Si5 0.911907 0.759436 0.500269
Si Si6 0.370242 0.500000 0.500000
O O1 0.157780 0.858528 0.758501
O O2 0.200044 0.061354 0.835125
O O3 0.102677 0.037626 0.788303
O O4 0.166767 0.008823 0.613653
O O5 0.083233 0.741177 0.636347
O O6 0.180996 0.250000 0.750000
O O7 0.250000 0.250000 0.587384
O O8 0.147323 0.287626 0.538303
O O9 0.069003 0.500000 0.500000
O O10 0.049956 0.311353 0.585125
O O11 0.000000 0.500000 0.662617
O O12 0.907780 0.891472 0.508501
#
# Coordination Sequence:
#
# PCOD9326912 Si02
#       6
#    16   8  16  16  16   8
#     4  10  20  38  63  92 123 167 210 258 330 375
#     4  10  20  36  63  88 128 158 202 262 343 366
#     4  10  20  37  64  89 120 169 223 255 293 395
#     4  10  20  37  64  89 120 169 223 255 293 395
#     4  10  20  38  63  92 123 167 210 258 330 375
#     4  10  20  36  63  88 128 158 202 262 343 366
#
# _framework density 23.324182
#
# number of rings (size 3 to 8) (size 9 to 14) (size 15 to 20)
#    0.000    2.000    4.000    0.000    0.000    0.000 
#    0.000    5.000    0.000    0.000    0.000    0.000 
#    0.000    0.000    0.000    0.000    0.000    0.000 
#
# Total GULP energy -111652.205805 kJ/mol
# GULP energy per Si atom -5582.610290 kJ/mol
# Density = 2.327110 g / cm^3
# Si number density = 23.324182 Si / 1000 Ang^3
#
#
#
# Elastic Constant Matrix: (Units=GPa)
#
#
# Indices 1 2 3 4 5 6 
#
# 1 96.2615 21.4125 18.4929 0.0000 0.0000 0.0000
# 2 21.4125 170.7695 12.5130 0.0000 0.0000 0.0000
# 3 18.4929 12.5130 74.3190 0.0000 0.0000 0.0000
# 4 0.0000 0.0000 0.0000 25.1742 0.0000 0.0000
# 5 0.0000 0.0000 0.0000 0.0000 14.4710 0.0000
# 6 0.0000 0.0000 0.0000 0.0000 0.0000 22.1758
#
#
#
# Elastic Compliance Matrix: (Units=1/GPa)
#
#
# Indices 1 2 3 4 5 6 
#
# 1 0.011151 -0.001210 -0.002571 0.000000 0.000000 0.000000
# 2 -0.001210 0.006060 -0.000719 0.000000 0.000000 0.000000
# 3 -0.002571 -0.000719 0.014216 0.000000 0.000000 0.000000
# 4 0.000000 0.000000 0.000000 0.039723 0.000000 0.000000
# 5 0.000000 0.000000 0.000000 0.000000 0.069104 0.000000
# 6 0.000000 0.000000 0.000000 0.000000 0.000000 0.045094
#
#
# Mechanical properties :
#
#
# Convention : Reuss Voigt Hill
#
# Bulk Modulus (GPa) = 44.58812 49.57630 47.08221
# Shear Modulus (GPa) = 24.77387 31.62631 28.20009
#
# Velocity S-wave (km/s) = 3.26261 3.68631 3.48091
# Velocity P-wave (km/s) = 5.77503 6.27853 6.03204
#
# Compressibility (1/GPa) = 0.02242750
#
# Stress axis : x y z
#
# Youngs Moduli (GPa) = 89.67454 165.00955 70.34132
#
# Poissons Ratio (x) = 0.19964 0.18086
# Poissons Ratio (y) = 0.10849 0.05060
# Poissons Ratio (z) = 0.23056 0.11869
#
# Static dielectric constant tensor:
#      x y z
#    x 1.878450 0.000000 0.000000 
#    y 0.000000 1.976910 0.000000 
#    z 0.000000 0.000000 1.863390 
# 
# From -- ./inp_files/25158.got.cif
#   From: 2010.05.17/outbox.cif.g08.bks.cpg/sg22_13_cif.got.tgz:25158.got - 2010.06.03 23:40:54.
