data_PCOD9326977
_publ_section_title
;
Structure prediction by ZEFSAII (Michael W. Deem and Ramdas Pophale) SiO2 
 PCOD9326977
Probable space group: F 2 2 2
;
_chemical_formula_sum "Si O2"
_cell_formula_units_Z 64
_cell_length_a 23.439004
_cell_length_b 21.336909
_cell_length_c 5.110648
_cell_angle_alpha 90.000000
_cell_angle_beta 90.000000
_cell_angle_gamma 90.000000
_cell_volume 2555.916301
_symmetry_space_group_name_H-M "F 2 2 2"
_symmetry_group_IT_number 22
_symmetry_cell_setting 'orthorhombic'
loop_
_space_group_symop_operation_xyz
x,y,z
-x,-y,z
x,-y,-z
-x,y,-z
x,1/2+y,1/2+z
-x,1/2-y,1/2+z
x,1/2-y,1/2-z
-x,1/2+y,1/2-z
1/2+x,y,1/2+z
1/2-x,-y,1/2+z
1/2+x,-y,1/2-z
1/2-x,y,1/2-z
1/2+x,1/2+y,z
1/2-x,1/2-y,z
1/2+x,1/2-y,-z
1/2-x,1/2+y,-z
loop_
_atom_site_type_symbol
_atom_site_label
_atom_site_fract_x
_atom_site_fract_y
_atom_site_fract_z
Si Si1 0.116003 0.565706 0.405963
Si Si2 0.195521 0.925312 0.602600
Si Si3 0.180799 0.292225 0.004794
Si Si4 0.943918 0.320567 0.149138
O O1 0.088683 0.500000 0.500000
O O2 0.153992 0.584500 0.652566
O O3 0.074461 0.623358 0.342903
O O4 0.158323 0.552918 0.153778
O O5 0.250000 0.957404 0.750000
O O6 0.215060 0.856654 0.506030
O O7 0.187645 0.250000 0.750000
O O8 0.113926 0.311294 0.014654
O O9 0.192412 0.250000 0.250000
O O10 0.956163 0.250000 0.250000
O O11 0.000000 0.341641 0.000000
#
# Coordination Sequence:
#
# PCOD9326977 Si02
#       4
#    16  16  16  16
#     4  11  25  45  71 106 148 188 239 305 368 432
#     4  11  23  42  69 102 140 191 246 297 358 437
#     4  10  20  37  61  95 138 178 227 294 357 418
#     4  10  21  40  73 106 139 187 244 298 359 433
#
# _framework density 25.039943999999998
#
# number of rings (size 3 to 8) (size 9 to 14) (size 15 to 20)
#    0.000    1.500    0.000    6.750    0.000    4.500 
#    0.000    5.000    0.000   42.750    0.000    0.000 
#    0.000    0.000    0.000    0.000    0.000    0.000 
#
# Total GULP energy -89428.392144 kJ/mol
# GULP energy per Si atom -5589.274509 kJ/mol
# Density = 2.498295 g / cm^3
# Si number density = 25.039944 Si / 1000 Ang^3
#
#
#
# Elastic Constant Matrix: (Units=GPa)
#
#
# Indices 1 2 3 4 5 6 
#
# 1 129.8680 30.6705 52.7110 -0.0088 -0.0010 -0.0051
# 2 30.6705 173.6799 70.0959 -0.0447 0.0210 0.0112
# 3 52.7110 70.0959 199.0493 -0.0491 0.0213 0.0119
# 4 -0.0088 -0.0447 -0.0491 54.7248 0.0243 0.0080
# 5 -0.0010 0.0210 0.0213 0.0243 46.5344 0.0048
# 6 -0.0051 0.0112 0.0119 0.0080 0.0048 7.0440
#
#
#
# Elastic Compliance Matrix: (Units=1/GPa)
#
#
# Indices 1 2 3 4 5 6 
#
# 1 0.008701 -0.000707 -0.002055 -0.000001 0.000001 0.000011
# 2 -0.000707 0.006769 -0.002196 0.000003 -0.000002 -0.000008
# 3 -0.002055 -0.002196 0.006342 0.000004 -0.000002 -0.000009
# 4 -0.000001 0.000003 0.000004 0.018273 -0.000010 -0.000021
# 5 0.000001 -0.000002 -0.000002 -0.000010 0.021489 -0.000015
# 6 0.000011 -0.000008 -0.000009 -0.000021 -0.000015 0.141965
#
#
# Mechanical properties :
#
#
# Convention : Reuss Voigt Hill
#
# Bulk Modulus (GPa) = 84.07342 89.95020 87.01181
# Shear Modulus (GPa) = 22.99676 44.93530 33.96603
#
# Velocity S-wave (km/s) = 3.03380 4.24080 3.68703
# Velocity P-wave (km/s) = 6.77647 7.74467 7.27669
#
# Compressibility (1/GPa) = 0.01189437
#
# Stress axis : x y z
#
# Youngs Moduli (GPa) = 114.92538 147.73060 157.68798
#
# Poissons Ratio (x) = 0.10446 0.32408
# Poissons Ratio (y) = 0.08126 0.34636
# Poissons Ratio (z) = 0.23620 0.32449
#
# Static dielectric constant tensor:
#      x y z
#    x 1.949650 0.000010 0.000000 
#    y 0.000010 2.131920 0.000000 
#    z 0.000000 0.000000 1.987660 
# 
# From -- ./inp_files/5474.got.cif
#   From: 2010.05.17/outbox.cif.g08.bks.cpg/sg22_3_cif.got.tgz:5474.got - 2010.06.03 23:40:54.
