data_PCOD9326264
_publ_section_title
;
Structure prediction by ZEFSAII (Michael W. Deem and Ramdas Pophale) SiO2 
 PCOD9326264
Probable space group: F 2 2 2
;
_chemical_formula_sum "Si O2"
_cell_formula_units_Z 88
_cell_length_a 15.167483
_cell_length_b 10.800254
_cell_length_c 29.402456
_cell_angle_alpha 90.000000
_cell_angle_beta 90.000000
_cell_angle_gamma 90.000000
_cell_volume 4816.494791
_symmetry_space_group_name_H-M "F 2 2 2"
_symmetry_group_IT_number 22
_symmetry_cell_setting 'orthorhombic'
loop_
_space_group_symop_operation_xyz
x,y,z
-x,-y,z
x,-y,-z
-x,y,-z
x,1/2+y,1/2+z
-x,1/2-y,1/2+z
x,1/2-y,1/2-z
-x,1/2+y,1/2-z
1/2+x,y,1/2+z
1/2-x,-y,1/2+z
1/2+x,-y,1/2-z
1/2-x,y,1/2-z
1/2+x,1/2+y,z
1/2-x,1/2-y,z
1/2+x,1/2-y,-z
1/2-x,1/2+y,-z
loop_
_atom_site_type_symbol
_atom_site_label
_atom_site_fract_x
_atom_site_fract_y
_atom_site_fract_z
Si Si1 0.899740 0.966240 0.635150
Si Si2 0.356015 0.258238 0.696982
Si Si3 0.147104 0.280544 0.944844
Si Si4 0.592839 0.932131 0.616994
Si Si5 0.664950 0.500000 0.500000
Si Si6 0.244787 0.395636 0.091968
O O1 0.889394 0.893450 0.681663
O O2 0.861780 0.865966 0.599629
O O3 0.836201 0.080868 0.626567
O O4 0.000000 0.000000 0.625183
O O5 0.378687 0.250000 0.750000
O O6 0.250000 0.250000 0.692277
O O7 0.393032 0.154053 0.661935
O O8 0.250000 0.250000 0.953783
O O9 0.099578 0.156049 0.928095
O O10 0.114667 0.374681 0.984169
O O11 0.500000 0.000000 0.619035
O O12 0.670545 0.033318 0.611842
O O13 0.721920 0.457382 0.543227
O O14 0.250000 0.250000 0.085024
#
# Coordination Sequence:
#
# PCOD9326264 Si02
#       6
#    16  16  16  16   8  16
#     4  10  20  36  61  87 119 156 195 245 302 372
#     4  10  20  40  69  91 113 157 208 256 307 373
#     4  10  18  39  63  82 115 161 209 252 306 356
#     4  11  22  39  64  90 126 161 204 253 310 372
#     4  10  20  38  66  80 114 160 214 262 312 330
#     4  11  23  37  59  86 119 165 201 251 305 365
#
# _framework density 18.270547000000001
#
# number of rings (size 3 to 8) (size 9 to 14) (size 15 to 20)
#    0.000    1.636    5.455    1.636    5.091    0.727 
#    0.000    7.727    8.000    1.091    0.000    0.000 
#    0.000    0.000    0.000    0.000    0.000    0.000 
#
# Total GULP energy -122495.646343 kJ/mol
# GULP energy per Si atom -5567.983925 kJ/mol
# Density = 1.822896 g / cm^3
# Si number density = 18.270547 Si / 1000 Ang^3
#
#
#
# Elastic Constant Matrix: (Units=GPa)
#
#
# Indices 1 2 3 4 5 6 
#
# 1 86.5298 48.8922 38.0330 0.0000 0.0000 0.0000
# 2 48.8922 128.7173 49.4324 0.0000 0.0000 0.0000
# 3 38.0330 49.4324 99.5186 0.0000 0.0000 0.0000
# 4 0.0000 0.0000 0.0000 32.9912 0.0000 0.0000
# 5 0.0000 0.0000 0.0000 0.0000 -26.7771 0.0000
# 6 0.0000 0.0000 0.0000 0.0000 0.0000 27.0935
#
#
#
# Elastic Compliance Matrix: (Units=1/GPa)
#
#
# Indices 1 2 3 4 5 6 
#
# 1 0.015784 -0.004546 -0.003774 0.000000 0.000000 0.000000
# 2 -0.004546 0.010910 -0.003682 0.000000 0.000000 0.000000
# 3 -0.003774 -0.003682 0.013319 0.000000 0.000000 0.000000
# 4 0.000000 0.000000 0.000000 0.030311 0.000000 0.000000
# 5 0.000000 0.000000 0.000000 0.000000 -0.037345 0.000000
# 6 0.000000 0.000000 0.000000 0.000000 0.000000 0.036909
#
#
# Mechanical properties :
#
#
# Convention : Reuss Voigt Hill
#
# Bulk Modulus (GPa) = 62.46236 65.27569 63.86902
# Shear Modulus (GPa) = 50.38863 18.55538 34.47201
#
# Velocity S-wave (km/s) = 5.25728 3.19029 4.34839
# Velocity P-wave (km/s) = 8.43289 7.02677 7.76174
#
# Compressibility (1/GPa) = 0.01600964
#
# Stress axis : x y z
#
# Youngs Moduli (GPa) = 63.35405 91.66204 75.07817
#
# Poissons Ratio (x) = 0.41671 0.28336
# Poissons Ratio (y) = 0.28801 0.27641
# Poissons Ratio (z) = 0.23911 0.33746
#
# Static dielectric constant tensor:
#      x y z
#    x 1.622160 0.000000 0.000000 
#    y 0.000000 1.781210 0.000000 
#    z 0.000000 0.000000 1.662670 
# 
# From -- ./inp_files/28387.got.cif
#   From: 2010.05.17/outbox.cif.g08.bks.cpg/sg22_15_cif.got.tgz:28387.got - 2010.06.03 23:40:54.
