data_PCOD9326226
_publ_section_title
;
Structure prediction by ZEFSAII (Michael W. Deem and Ramdas Pophale) SiO2 
 PCOD9326226
Probable space group: F 2 2 2
;
_chemical_formula_sum "Si O2"
_cell_formula_units_Z 48
_cell_length_a 5.804546
_cell_length_b 26.677223
_cell_length_c 14.389522
_cell_angle_alpha 90.000000
_cell_angle_beta 90.000000
_cell_angle_gamma 90.000000
_cell_volume 2228.205510
_symmetry_space_group_name_H-M "F 2 2 2"
_symmetry_group_IT_number 22
_symmetry_cell_setting 'orthorhombic'
loop_
_space_group_symop_operation_xyz
x,y,z
-x,-y,z
x,-y,-z
-x,y,-z
x,1/2+y,1/2+z
-x,1/2-y,1/2+z
x,1/2-y,1/2-z
-x,1/2+y,1/2-z
1/2+x,y,1/2+z
1/2-x,-y,1/2+z
1/2+x,-y,1/2-z
1/2-x,y,1/2-z
1/2+x,1/2+y,z
1/2-x,1/2-y,z
1/2+x,1/2-y,-z
1/2-x,1/2+y,-z
loop_
_atom_site_type_symbol
_atom_site_label
_atom_site_fract_x
_atom_site_fract_y
_atom_site_fract_z
Si Si1 0.112985 0.393221 0.847545
Si Si2 0.105326 0.799384 0.100681
Si Si3 0.250000 0.669332 0.750000
Si Si4 0.000000 0.500000 0.191699
O O1 0.250000 0.396837 0.750000
O O2 0.258352 0.352578 0.904747
O O3 0.055686 0.450682 0.869392
O O4 0.877405 0.365651 0.824011
O O5 0.250000 0.750000 0.119867
O O6 0.930930 0.801979 0.186940
O O7 0.000000 0.791597 0.000000
O O8 0.250000 0.491273 0.250000
#
# Coordination Sequence:
#
# PCOD9326226 Si02
#       4
#    16  16   8   8
#     4   9  20  38  67 103 133 180 231 287 352 434
#     4  11  27  45  65 102 138 189 236 298 363 433
#     4  10  22  45  68  94 138 174 235 288 350 438
#     4  10  18  36  68 111 141 182 240 296 359 430
#
# _framework density 21.541996999999999
#
# number of rings (size 3 to 8) (size 9 to 14) (size 15 to 20)
#    0.000    2.000    1.667    0.000    4.667    7.333 
#    0.000    0.000    0.000    6.000    0.000    0.000 
#    0.000    0.000    0.000    0.000    0.000    0.000 
#
# Total GULP energy -66853.836848 kJ/mol
# GULP energy per Si atom -5571.153071 kJ/mol
# Density = 2.149297 g / cm^3
# Si number density = 21.541997 Si / 1000 Ang^3
#
#
#
# Elastic Constant Matrix: (Units=GPa)
#
#
# Indices 1 2 3 4 5 6 
#
# 1 109.1424 85.5138 27.4868 0.0000 0.0000 0.0000
# 2 85.5138 203.8422 58.0421 0.0000 0.0000 0.0000
# 3 27.4868 58.0421 48.1480 0.0000 0.0000 0.0000
# 4 0.0000 0.0000 0.0000 51.1061 0.0000 0.0000
# 5 0.0000 0.0000 0.0000 0.0000 36.5911 0.0000
# 6 0.0000 0.0000 0.0000 0.0000 0.0000 12.8673
#
#
#
# Elastic Compliance Matrix: (Units=1/GPa)
#
#
# Indices 1 2 3 4 5 6 
#
# 1 0.013707 -0.005363 -0.001360 0.000000 0.000000 0.000000
# 2 -0.005363 0.009568 -0.008473 0.000000 0.000000 0.000000
# 3 -0.001360 -0.008473 0.031759 0.000000 0.000000 0.000000
# 4 0.000000 0.000000 0.000000 0.019567 0.000000 0.000000
# 5 0.000000 0.000000 0.000000 0.000000 0.027329 0.000000
# 6 0.000000 0.000000 0.000000 0.000000 0.000000 0.077716
#
#
# Mechanical properties :
#
#
# Convention : Reuss Voigt Hill
#
# Bulk Modulus (GPa) = 40.57928 78.13533 59.35730
# Shear Modulus (GPa) = 22.90930 32.78557 27.84743
#
# Velocity S-wave (km/s) = 3.26463 3.90543 3.59932
# Velocity P-wave (km/s) = 5.75227 7.52904 6.69981
#
# Compressibility (1/GPa) = 0.02464312
#
# Stress axis : x y z
#
# Youngs Moduli (GPa) = 72.95728 104.51492 31.48670
#
# Poissons Ratio (x) = 0.56049 0.04282
# Poissons Ratio (y) = 0.39126 0.26678
# Poissons Ratio (z) = 0.09922 0.88552
#
# Static dielectric constant tensor:
#      x y z
#    x 1.873660 0.000000 0.000000 
#    y 0.000000 1.824840 0.000000 
#    z 0.000000 0.000000 1.714720 
# 
# From -- ./inp_files/1616.got.cif
#   From: 2010.05.17/outbox.cif.g08.bks.cpg/sg22_1_cif.got.tgz:1616.got - 2010.06.03 23:40:54.
