data_PCOD9326705
_publ_section_title
;
Structure prediction by ZEFSAII (Michael W. Deem and Ramdas Pophale) SiO2 
 PCOD9326705
Probable space group: F 2 2 2
;
_chemical_formula_sum "Si O2"
_cell_formula_units_Z 96
_cell_length_a 29.413296
_cell_length_b 8.340252
_cell_length_c 18.640096
_cell_angle_alpha 90.000000
_cell_angle_beta 90.000000
_cell_angle_gamma 90.000000
_cell_volume 4572.682117
_symmetry_space_group_name_H-M "F 2 2 2"
_symmetry_group_IT_number 22
_symmetry_cell_setting 'orthorhombic'
loop_
_space_group_symop_operation_xyz
x,y,z
-x,-y,z
x,-y,-z
-x,y,-z
x,1/2+y,1/2+z
-x,1/2-y,1/2+z
x,1/2-y,1/2-z
-x,1/2+y,1/2-z
1/2+x,y,1/2+z
1/2-x,-y,1/2+z
1/2+x,-y,1/2-z
1/2-x,y,1/2-z
1/2+x,1/2+y,z
1/2-x,1/2-y,z
1/2+x,1/2-y,-z
1/2-x,1/2+y,-z
loop_
_atom_site_type_symbol
_atom_site_label
_atom_site_fract_x
_atom_site_fract_y
_atom_site_fract_z
Si Si1 0.953190 0.402376 0.595719
Si Si2 0.354066 0.003072 0.412535
Si Si3 0.067474 0.166207 0.534905
Si Si4 0.326218 0.332783 0.573539
Si Si5 0.510910 0.818552 0.820954
Si Si6 0.201268 0.816149 0.589330
O O1 0.907096 0.500765 0.609131
O O2 0.943020 0.302269 0.523512
O O3 0.000000 0.500000 0.588368
O O4 0.965326 0.279812 0.659478
O O5 0.334299 0.175893 0.389966
O O6 0.351860 0.000000 0.500000
O O7 0.326283 0.843336 0.389353
O O8 0.120847 0.151375 0.551068
O O9 0.041018 0.188199 0.608249
O O10 0.052373 0.000000 0.500000
O O11 0.310920 0.499929 0.610389
O O12 0.299618 0.320912 0.498049
O O13 0.533595 0.750000 0.750000
O O14 0.500000 0.000000 0.805682
O O15 0.250000 0.750000 0.613077
#
# Coordination Sequence:
#
# PCOD9326705 Si02
#       6
#    16  16  16  16  16  16
#     4  12  24  38  63  89 120 170 229 276 320 390
#     4  10  20  33  49  80 114 155 210 257 311 390
#     4  12  21  41  65  88 116 173 233 273 313 403
#     4  10  20  32  53  80 115 160 206 254 319 392
#     4  12  28  41  59  88 130 173 219 279 341 385
#     4  10  20  31  48  78 122 158 194 262 338 399
#
# _framework density 20.994243999999998
#
# number of rings (size 3 to 8) (size 9 to 14) (size 15 to 20)
#    0.000    1.000    6.667    2.000    9.333    0.667 
#    0.000    0.000    0.000    0.000    0.000    0.000 
#    0.000    1.333    6.333    0.833    0.000    0.167 
#
# Total GULP energy -134023.482835 kJ/mol
# GULP energy per Si atom -5584.311785 kJ/mol
# Density = 2.094646 g / cm^3
# Si number density = 20.994244 Si / 1000 Ang^3
#
#
#
# Elastic Constant Matrix: (Units=GPa)
#
#
# Indices 1 2 3 4 5 6 
#
# 1 93.4743 45.9562 2.6137 0.0000 0.0000 0.0000
# 2 45.9562 199.6621 18.9931 -0.0001 0.0000 0.0000
# 3 2.6137 18.9931 56.8685 0.0000 0.0000 0.0000
# 4 0.0000 -0.0001 0.0000 18.3001 0.0000 0.0000
# 5 0.0000 0.0000 0.0000 0.0000 -6.8381 0.0000
# 6 0.0000 0.0000 0.0000 0.0000 0.0000 -5.0807
#
#
#
# Elastic Compliance Matrix: (Units=1/GPa)
#
#
# Indices 1 2 3 4 5 6 
#
# 1 0.012071 -0.002815 0.000385 0.000000 0.000000 0.000000
# 2 -0.002815 0.005829 -0.001818 0.000000 0.000000 0.000000
# 3 0.000385 -0.001818 0.018174 0.000000 0.000000 0.000000
# 4 0.000000 0.000000 0.000000 0.054645 0.000000 0.000000
# 5 0.000000 0.000000 0.000000 0.000000 -0.146240 0.000000
# 6 0.000000 0.000000 0.000000 0.000000 0.000000 -0.196824
#
#
# Mechanical properties :
#
#
# Convention : Reuss Voigt Hill
#
# Bulk Modulus (GPa) = 36.25819 53.90341 45.08080
# Shear Modulus (GPa) = -21.30769 20.10572 -0.60098
#
# Velocity S-wave (km/s) = -3.18925 3.09799 -0.53561
# Velocity P-wave (km/s) = 1.93552 6.20708 4.59750
#
# Compressibility (1/GPa) = 0.02757998
#
# Stress axis : x y z
#
# Youngs Moduli (GPa) = 82.84044 171.54683 55.02445
#
# Poissons Ratio (x) = 0.48293 -0.02121
# Poissons Ratio (y) = 0.23321 0.10001
# Poissons Ratio (z) = -0.03193 0.31179
#
# Static dielectric constant tensor:
#      x y z
#    x 1.786780 0.000000 0.000000 
#    y 0.000000 1.901910 0.000000 
#    z 0.000000 0.000000 1.808960 
# 
# From -- ./inp_files/45684.got.cif
#   From: 2010.05.17/outbox.cif.g08.bks.cpg/sg22_23_cif.got.tgz:45684.got - 2010.06.03 23:40:54.
