data_PCOD9326653
_publ_section_title
;
Structure prediction by ZEFSAII (Michael W. Deem and Ramdas Pophale) SiO2 
 PCOD9326653
Probable space group: F 2 2 2
;
_chemical_formula_sum "Si O2"
_cell_formula_units_Z 108
_cell_length_a 32.020821
_cell_length_b 14.586644
_cell_length_c 11.712014
_cell_angle_alpha 90.000000
_cell_angle_beta 90.000000
_cell_angle_gamma 90.000000
_cell_volume 5470.404358
_symmetry_space_group_name_H-M "F 2 2 2"
_symmetry_group_IT_number 22
_symmetry_cell_setting 'orthorhombic'
loop_
_space_group_symop_operation_xyz
x,y,z
-x,-y,z
x,-y,-z
-x,y,-z
x,1/2+y,1/2+z
-x,1/2-y,1/2+z
x,1/2-y,1/2-z
-x,1/2+y,1/2-z
1/2+x,y,1/2+z
1/2-x,-y,1/2+z
1/2+x,-y,1/2-z
1/2-x,y,1/2-z
1/2+x,1/2+y,z
1/2-x,1/2-y,z
1/2+x,1/2-y,-z
1/2-x,1/2+y,-z
loop_
_atom_site_type_symbol
_atom_site_label
_atom_site_fract_x
_atom_site_fract_y
_atom_site_fract_z
Si Si1 0.145859 0.032560 0.734302
Si Si2 0.369729 0.857808 0.455734
Si Si3 0.187200 0.702727 0.133153
Si Si4 0.178375 0.845310 0.810033
Si Si5 0.054718 0.113625 0.674437
Si Si6 0.539423 0.181523 0.415639
Si Si7 0.750000 0.750000 0.434802
Si Si8 0.500000 0.500000 0.500000
O O1 0.145321 0.065625 0.866502
O O2 0.175606 0.100122 0.664324
O O3 0.099019 0.061206 0.692877
O O4 0.164986 0.930708 0.730981
O O5 0.353779 0.763226 0.396864
O O6 0.347761 0.861108 0.575926
O O7 0.419185 0.861014 0.471589
O O8 0.203864 0.750000 0.250000
O O9 0.216493 0.707893 0.022821
O O10 0.166460 0.750000 0.750000
O O11 0.225312 0.824356 0.857731
O O12 0.032971 0.124592 0.798651
O O13 0.054200 0.217215 0.624843
O O14 0.028499 0.058911 0.583019
O O15 0.500000 0.184442 0.500000
#
# Coordination Sequence:
#
# PCOD9326653 Si02
#       8
#    16  16  16  16  16  16   8   4
#     4  10  20  41  67  91 120 169 224 260 322 399
#     4   9  19  38  65  92 123 166 217 267 315 399
#     4   9  17  36  66  92 115 154 211 267 321 397
#     4  11  24  42  60  89 127 169 208 270 335 403
#     4  10  22  38  62  96 134 173 216 279 325 390
#     4  10  19  39  66  96 131 176 220 271 339 384
#     4  10  22  42  60  86 130 158 202 270 340 392
#     4  12  24  40  58 100 148 166 216 290 320 372
#
# _framework density 19.742598999999998
#
# number of rings (size 3 to 8) (size 9 to 14) (size 15 to 20)
#    0.000    2.074    2.222    0.889    0.000    2.370 
#    2.667   16.667    0.000    0.000    0.000    0.000 
#    0.000    0.000    0.000    0.000    0.000    0.000 
#
# Total GULP energy -150452.732999 kJ/mol
# GULP energy per Si atom -5572.323444 kJ/mol
# Density = 1.969766 g / cm^3
# Si number density = 19.742599 Si / 1000 Ang^3
#
#
#
# Elastic Constant Matrix: (Units=GPa)
#
#
# Indices 1 2 3 4 5 6 
#
# 1 113.1997 51.8317 70.2013 0.0000 0.0000 0.0000
# 2 51.8317 149.7897 50.4311 0.0000 0.0000 0.0000
# 3 70.2013 50.4311 97.8876 0.0000 0.0000 0.0000
# 4 0.0000 0.0000 0.0000 22.0070 0.0000 0.0000
# 5 0.0000 0.0000 0.0000 0.0000 39.3284 0.0000
# 6 0.0000 0.0000 0.0000 0.0000 0.0000 18.8655
#
#
#
# Elastic Compliance Matrix: (Units=1/GPa)
#
#
# Indices 1 2 3 4 5 6 
#
# 1 0.016428 -0.002078 -0.010711 0.000000 0.000000 0.000000
# 2 -0.002078 0.008340 -0.002806 0.000000 0.000000 0.000000
# 3 -0.010711 -0.002806 0.019343 0.000000 0.000000 0.000000
# 4 0.000000 0.000000 0.000000 0.045440 0.000000 0.000000
# 5 0.000000 0.000000 0.000000 0.000000 0.025427 0.000000
# 6 0.000000 0.000000 0.000000 0.000000 0.000000 0.053007
#
#
# Mechanical properties :
#
#
# Convention : Reuss Voigt Hill
#
# Bulk Modulus (GPa) = 77.39830 78.42280 77.91055
# Shear Modulus (GPa) = 24.57223 28.60104 26.58664
#
# Velocity S-wave (km/s) = 3.53176 3.81030 3.67367
# Velocity P-wave (km/s) = 7.47796 7.69199 7.58573
#
# Compressibility (1/GPa) = 0.01292018
#
# Stress axis : x y z
#
# Youngs Moduli (GPa) = 60.87201 119.90405 51.69889
#
# Poissons Ratio (x) = 0.24922 0.55373
# Poissons Ratio (y) = 0.12652 0.14507
# Poissons Ratio (z) = 0.65198 0.33646
#
# Static dielectric constant tensor:
#      x y z
#    x 1.723260 0.000000 0.000000 
#    y 0.000000 1.781940 0.000000 
#    z 0.000000 0.000000 1.697840 
# 
# From -- ./inp_files/25449.got.cif
#   From: 2010.05.17/outbox.cif.g08.bks.cpg/sg22_13_cif.got.tgz:25449.got - 2010.06.03 23:40:54.
