data_PCOD9326888
_publ_section_title
;
Structure prediction by ZEFSAII (Michael W. Deem and Ramdas Pophale) SiO2 
 PCOD9326888
Probable space group: F 2 2 2
;
_chemical_formula_sum "Si O2"
_cell_formula_units_Z 112
_cell_length_a 27.334295
_cell_length_b 16.419110
_cell_length_c 11.145397
_cell_angle_alpha 90.000000
_cell_angle_beta 90.000000
_cell_angle_gamma 90.000000
_cell_volume 5002.107631
_symmetry_space_group_name_H-M "F 2 2 2"
_symmetry_group_IT_number 22
_symmetry_cell_setting 'orthorhombic'
loop_
_space_group_symop_operation_xyz
x,y,z
-x,-y,z
x,-y,-z
-x,y,-z
x,1/2+y,1/2+z
-x,1/2-y,1/2+z
x,1/2-y,1/2-z
-x,1/2+y,1/2-z
1/2+x,y,1/2+z
1/2-x,-y,1/2+z
1/2+x,-y,1/2-z
1/2-x,y,1/2-z
1/2+x,1/2+y,z
1/2-x,1/2-y,z
1/2+x,1/2-y,-z
1/2-x,1/2+y,-z
loop_
_atom_site_type_symbol
_atom_site_label
_atom_site_fract_x
_atom_site_fract_y
_atom_site_fract_z
Si Si1 0.918200 0.938660 0.781240
Si Si2 0.802210 0.290046 0.495558
Si Si3 0.389792 0.931457 0.899681
Si Si4 0.180881 0.949934 0.114055
Si Si5 0.019110 0.303686 0.637409
Si Si6 0.194270 0.110368 0.232663
Si Si7 0.393234 0.810973 0.084225
O O1 0.878328 0.947293 0.886190
O O2 0.968382 0.895459 0.818934
O O3 0.891408 0.874849 0.691915
O O4 0.919409 0.021907 0.704467
O O5 0.750000 0.250000 0.518889
O O6 0.798121 0.360356 0.394653
O O7 0.821402 0.339059 0.614152
O O8 0.841295 0.224995 0.451054
O O9 0.344511 0.883407 0.839029
O O10 0.417176 0.862417 0.975228
O O11 0.375125 0.000000 0.000000
O O12 0.194012 0.011983 0.218613
O O13 0.199876 0.000000 0.000000
O O14 0.996485 0.250000 0.750000
O O15 0.071704 0.261565 0.619437
O O16 0.000000 0.304021 0.500000
O O17 0.250000 0.136125 0.250000
#
# Coordination Sequence:
#
# PCOD9326888 Si02
#       7
#    16  16  16  16  16  16  16
#     4   9  18  38  63  84 125 160 200 259 319 376
#     4  11  22  34  53  86 124 161 212 264 313 373
#     4   9  19  35  59  87 114 166 212 250 314 387
#     4   9  19  35  54  79 110 162 201 247 311 373
#     4  10  21  41  68  98 129 163 210 272 335 395
#     4  10  21  35  51  77 120 165 210 263 310 366
#     4  10  20  36  61  90 123 164 207 263 320 374
#
# _framework density 22.390561999999999
#
# number of rings (size 3 to 8) (size 9 to 14) (size 15 to 20)
#    0.000    2.286    1.429    0.857    0.000    7.143 
#    2.571    0.714    0.000   14.571    0.000    0.000 
#    0.000    0.000    0.000    0.000    0.000    0.000 
#
# Total GULP energy -155949.072516 kJ/mol
# GULP energy per Si atom -5569.609733 kJ/mol
# Density = 2.233960 g / cm^3
# Si number density = 22.390562 Si / 1000 Ang^3
#
#
#
# Elastic Constant Matrix: (Units=GPa)
#
#
# Indices 1 2 3 4 5 6 
#
# 1 29.6945 12.6065 27.0608 0.0000 0.0000 0.0000
# 2 12.6065 81.2760 34.7709 0.0000 0.0000 0.0000
# 3 27.0608 34.7709 97.8924 0.0000 0.0000 0.0000
# 4 0.0000 0.0000 0.0000 22.0740 0.0000 0.0000
# 5 0.0000 0.0000 0.0000 0.0000 24.3197 0.0000
# 6 0.0000 0.0000 0.0000 0.0000 0.0000 5.1697
#
#
#
# Elastic Compliance Matrix: (Units=1/GPa)
#
#
# Indices 1 2 3 4 5 6 
#
# 1 0.045282 -0.001967 -0.011819 0.000000 0.000000 0.000000
# 2 -0.001967 0.014594 -0.004640 0.000000 0.000000 0.000000
# 3 -0.011819 -0.004640 0.015130 0.000000 0.000000 0.000000
# 4 0.000000 0.000000 0.000000 0.045302 0.000000 0.000000
# 5 0.000000 0.000000 0.000000 0.000000 0.041119 0.000000
# 6 0.000000 0.000000 0.000000 0.000000 0.000000 0.193434
#
#
# Mechanical properties :
#
#
# Convention : Reuss Voigt Hill
#
# Bulk Modulus (GPa) = 26.20922 39.74880 32.97901
# Shear Modulus (GPa) = 12.36303 19.27432 15.81867
#
# Velocity S-wave (km/s) = 2.35234 2.93716 2.66087
# Velocity P-wave (km/s) = 4.37137 5.41235 4.91948
#
# Compressibility (1/GPa) = 0.03815451
#
# Stress axis : x y z
#
# Youngs Moduli (GPa) = 22.08388 68.52178 66.09198
#
# Poissons Ratio (x) = 0.13481 0.78112
# Poissons Ratio (y) = 0.04345 0.30666
# Poissons Ratio (z) = 0.26100 0.31793
#
# Static dielectric constant tensor:
#      x y z
#    x 1.798070 0.000000 0.000000 
#    y 0.000000 1.885090 0.000000 
#    z 0.000000 0.000000 1.959060 
# 
# From -- ./inp_files/25415.got.cif
#   From: 2010.05.17/outbox.cif.g08.bks.cpg/sg22_13_cif.got.tgz:25415.got - 2010.06.03 23:40:54.
