data_PCOD9326041
_publ_section_title
;
Structure prediction by ZEFSAII (Michael W. Deem and Ramdas Pophale) SiO2 
 PCOD9326041
Probable space group: F 2 2 2
;
_chemical_formula_sum "Si O2"
_cell_formula_units_Z 100
_cell_length_a 5.560339
_cell_length_b 32.390299
_cell_length_c 28.459559
_cell_angle_alpha 90.000000
_cell_angle_beta 90.000000
_cell_angle_gamma 90.000000
_cell_volume 5125.596252
_symmetry_space_group_name_H-M "F 2 2 2"
_symmetry_group_IT_number 22
_symmetry_cell_setting 'orthorhombic'
loop_
_space_group_symop_operation_xyz
x,y,z
-x,-y,z
x,-y,-z
-x,y,-z
x,1/2+y,1/2+z
-x,1/2-y,1/2+z
x,1/2-y,1/2-z
-x,1/2+y,1/2-z
1/2+x,y,1/2+z
1/2-x,-y,1/2+z
1/2+x,-y,1/2-z
1/2-x,y,1/2-z
1/2+x,1/2+y,z
1/2-x,1/2-y,z
1/2+x,1/2-y,-z
1/2-x,1/2+y,-z
loop_
_atom_site_type_symbol
_atom_site_label
_atom_site_fract_x
_atom_site_fract_y
_atom_site_fract_z
Si Si1 0.492633 0.426350 0.398970
Si Si2 0.000000 0.885157 0.000000
Si Si3 0.500542 0.201155 0.331066
Si Si4 0.495185 0.954532 0.419336
Si Si5 0.998696 0.261492 0.923530
Si Si6 0.500000 0.616488 0.500000
Si Si7 0.498696 0.836297 0.859324
Si Si8 0.750000 0.250000 0.250000
O O1 0.745916 0.449047 0.391348
O O2 0.497239 0.412804 0.454179
O O3 0.477516 0.384046 0.370574
O O4 0.245504 0.450726 0.391496
O O5 0.001425 0.916206 0.044332
O O6 0.247008 0.860251 0.000241
O O7 0.498513 0.233671 0.374785
O O8 0.238852 0.179537 0.331404
O O9 0.572839 0.224583 0.283865
O O10 0.735093 0.172380 0.339146
O O11 0.500000 0.000000 0.442078
O O12 0.750000 0.250000 0.947490
O O13 0.993449 0.308864 0.906922
O O14 0.250000 0.250000 0.946497
#
# Coordination Sequence:
#
# PCOD9326041 Si02
#       8
#    16   8  16  16  16   8  16   4
#     4  10  19  30  47  63  93 128 159 211 239 284
#     4   8  15  26  42  60  90 115 147 196 245 303
#     4  10  20  30  48  70  97 127 158 177 224 283
#     4  10  18  29  43  66  89 122 160 199 250 293
#     4   8  14  27  40  60  83 111 152 174 202 267
#     4   8  16  28  41  66  84 117 167 196 249 281
#     4  10  18  32  43  66  93 129 164 185 227 281
#     4  12  20  34  52  78 108 126 160 194 216 290
#
# _framework density 19.509924999999999
#
# number of rings (size 3 to 8) (size 9 to 14) (size 15 to 20)
#    0.000    2.560    2.400    1.680    0.000    1.280 
#    0.000    4.800    0.000    0.000    0.000   10.080 
#    0.000    0.000    0.000   40.320    0.000    0.000 
#
# Total GULP energy -139231.030755 kJ/mol
# GULP energy per Si atom -5569.241230 kJ/mol
# Density = 1.946552 g / cm^3
# Si number density = 19.509925 Si / 1000 Ang^3
#
#
#
# Elastic Constant Matrix: (Units=GPa)
#
#
# Indices 1 2 3 4 5 6 
#
# 1 241.7803 33.0320 18.8828 0.0000 0.0000 0.0000
# 2 33.0320 58.3164 19.7031 0.0000 0.0000 0.0000
# 3 18.8828 19.7031 52.2989 0.0000 0.0000 0.0000
# 4 0.0000 0.0000 0.0000 9.2304 0.0000 0.0000
# 5 0.0000 0.0000 0.0000 0.0000 -17.0564 0.0000
# 6 0.0000 0.0000 0.0000 0.0000 0.0000 22.7452
#
#
#
# Elastic Compliance Matrix: (Units=1/GPa)
#
#
# Indices 1 2 3 4 5 6 
#
# 1 0.004509 -0.002296 -0.000763 0.000000 0.000000 0.000000
# 2 -0.002296 0.020818 -0.007014 0.000000 0.000000 0.000000
# 3 -0.000763 -0.007014 0.022039 0.000000 0.000000 0.000000
# 4 0.000000 0.000000 0.000000 0.108338 0.000000 0.000000
# 5 0.000000 0.000000 0.000000 0.000000 -0.058629 0.000000
# 6 0.000000 0.000000 0.000000 0.000000 0.000000 0.043965
#
#
# Mechanical properties :
#
#
# Convention : Reuss Voigt Hill
#
# Bulk Modulus (GPa) = 36.73803 55.07016 45.90410
# Shear Modulus (GPa) = 29.36675 21.70234 25.53454
#
# Velocity S-wave (km/s) = 3.88393 3.33885 3.62166
# Velocity P-wave (km/s) = 6.24376 6.56901 6.40845
#
# Compressibility (1/GPa) = 0.02721975
#
# Stress axis : x y z
#
# Youngs Moduli (GPa) = 221.76349 48.03451 45.37459
#
# Poissons Ratio (x) = 0.11031 0.03462
# Poissons Ratio (y) = 0.50926 0.31826
# Poissons Ratio (z) = 0.16920 0.33691
#
# Static dielectric constant tensor:
#      x y z
#    x 1.805630 0.000000 0.000000 
#    y 0.000000 1.673080 0.000000 
#    z 0.000000 0.000000 1.709730 
# 
# From -- ./inp_files/55155.got.cif
#   From: 2010.05.17/outbox.cif.g08.bks.cpg/sg22_28_cif.got.tgz:55155.got - 2010.06.03 23:40:54.
