data_PCOD9326252
_publ_section_title
;
Structure prediction by ZEFSAII (Michael W. Deem and Ramdas Pophale) SiO2 
 PCOD9326252
Probable space group: F 2 2 2
;
_chemical_formula_sum "Si O2"
_cell_formula_units_Z 52
_cell_length_a 22.053848
_cell_length_b 4.860042
_cell_length_c 20.839394
_cell_angle_alpha 90.000000
_cell_angle_beta 90.000000
_cell_angle_gamma 90.000000
_cell_volume 2233.621005
_symmetry_space_group_name_H-M "F 2 2 2"
_symmetry_group_IT_number 22
_symmetry_cell_setting 'orthorhombic'
loop_
_space_group_symop_operation_xyz
x,y,z
-x,-y,z
x,-y,-z
-x,y,-z
x,1/2+y,1/2+z
-x,1/2-y,1/2+z
x,1/2-y,1/2-z
-x,1/2+y,1/2-z
1/2+x,y,1/2+z
1/2-x,-y,1/2+z
1/2+x,-y,1/2-z
1/2-x,y,1/2-z
1/2+x,1/2+y,z
1/2-x,1/2-y,z
1/2+x,1/2-y,-z
1/2-x,1/2+y,-z
loop_
_atom_site_type_symbol
_atom_site_label
_atom_site_fract_x
_atom_site_fract_y
_atom_site_fract_z
Si Si1 0.709841 0.511875 0.896186
Si Si2 0.606430 0.206736 0.176347
Si Si3 0.000000 0.500000 0.000000
Si Si4 0.085632 0.320798 0.405049
O O1 0.750000 0.250000 0.876853
O O2 0.674105 0.674926 0.838995
O O3 0.652237 0.387981 0.933419
O O4 0.750000 0.750000 0.928608
O O5 0.591511 0.250000 0.250000
O O6 0.566275 0.396849 0.129127
O O7 0.598178 0.899044 0.151669
O O8 0.042589 0.690581 0.956789
#
# Coordination Sequence:
#
# PCOD9326252 Si02
#       4
#    16  16   4  16
#     4  10  18  38  64 104 149 179 230 280 361 440
#     4  10  21  41  64 107 147 178 228 285 367 437
#     4  12  28  54  76  94 140 198 272 298 352 414
#     4  10  24  41  70 101 131 196 235 297 346 422
#
# _framework density 23.280583
#
# number of rings (size 3 to 8) (size 9 to 14) (size 15 to 20)
#    1.846    0.000    3.077    0.923    0.000    4.308 
#    5.538    3.077    6.769    0.000    0.000    0.000 
#    0.000    0.000    0.000    0.000    0.000    0.000 
#
# Total GULP energy -72552.850605 kJ/mol
# GULP energy per Si atom -5580.988508 kJ/mol
# Density = 2.322760 g / cm^3
# Si number density = 23.280583 Si / 1000 Ang^3
#
#
#
# Elastic Constant Matrix: (Units=GPa)
#
#
# Indices 1 2 3 4 5 6 
#
# 1 95.5383 14.0121 35.9187 -0.0012 -0.0013 0.0024
# 2 14.0121 119.9705 17.0208 0.0138 -0.0012 -0.0017
# 3 35.9187 17.0208 95.7396 -0.0020 0.0002 0.0003
# 4 -0.0012 0.0138 -0.0020 25.9662 -0.0009 -0.0025
# 5 -0.0013 -0.0012 0.0002 -0.0009 25.1915 -0.0011
# 6 0.0024 -0.0017 0.0003 -0.0025 -0.0011 43.9666
#
#
#
# Elastic Compliance Matrix: (Units=1/GPa)
#
#
# Indices 1 2 3 4 5 6 
#
# 1 0.012260 -0.000800 -0.004457 0.000001 0.000001 -0.000001
# 2 -0.000800 0.008603 -0.001230 -0.000005 0.000000 0.000000
# 3 -0.004457 -0.001230 0.012336 0.000001 0.000000 0.000000
# 4 0.000001 -0.000005 0.000001 0.038512 0.000001 0.000002
# 5 0.000001 0.000000 0.000000 0.000001 0.039696 0.000001
# 6 -0.000001 0.000000 0.000000 0.000002 0.000001 0.022745
#
#
# Mechanical properties :
#
#
# Convention : Reuss Voigt Hill
#
# Bulk Modulus (GPa) = 49.44102 49.46126 49.45114
# Shear Modulus (GPa) = 32.49573 35.31132 33.90353
#
# Velocity S-wave (km/s) = 3.74013 3.89880 3.82029
# Velocity P-wave (km/s) = 6.31938 6.44665 6.38334
#
# Compressibility (1/GPa) = 0.02022612
#
# Stress axis : x y z
#
# Youngs Moduli (GPa) = 81.56531 116.23575 81.06413
#
# Poissons Ratio (x) = 0.09293 0.36134
# Poissons Ratio (y) = 0.06521 0.09967
# Poissons Ratio (z) = 0.36358 0.14292
#
# Static dielectric constant tensor:
#      x y z
#    x 1.974410 0.000010 0.000000 
#    y 0.000010 1.831510 0.000000 
#    z 0.000000 0.000000 1.828680 
# 
# From -- ./inp_files/45051.got.cif
#   From: 2010.05.17/outbox.cif.g08.bks.cpg/sg22_23_cif.got.tgz:45051.got - 2010.06.03 23:40:54.
