data_PCOD9326052
_publ_section_title
;
Structure prediction by ZEFSAII (Michael W. Deem and Ramdas Pophale) SiO2 
 PCOD9326052
Probable space group: F 2 2 2
;
_chemical_formula_sum "Si O2"
_cell_formula_units_Z 112
_cell_length_a 29.201650
_cell_length_b 21.675033
_cell_length_c 7.542520
_cell_angle_alpha 90.000000
_cell_angle_beta 90.000000
_cell_angle_gamma 90.000000
_cell_volume 4774.013350
_symmetry_space_group_name_H-M "F 2 2 2"
_symmetry_group_IT_number 22
_symmetry_cell_setting 'orthorhombic'
loop_
_space_group_symop_operation_xyz
x,y,z
-x,-y,z
x,-y,-z
-x,y,-z
x,1/2+y,1/2+z
-x,1/2-y,1/2+z
x,1/2-y,1/2-z
-x,1/2+y,1/2-z
1/2+x,y,1/2+z
1/2-x,-y,1/2+z
1/2+x,-y,1/2-z
1/2-x,y,1/2-z
1/2+x,1/2+y,z
1/2-x,1/2-y,z
1/2+x,1/2-y,-z
1/2-x,1/2+y,-z
loop_
_atom_site_type_symbol
_atom_site_label
_atom_site_fract_x
_atom_site_fract_y
_atom_site_fract_z
Si Si1 0.415407 0.112767 0.274731
Si Si2 0.270885 0.854924 0.560448
Si Si3 0.687232 0.411204 0.368551
Si Si4 0.831534 0.460419 0.734412
Si Si5 0.601913 0.165470 0.120679
Si Si6 0.503441 0.178174 0.212014
Si Si7 0.855151 0.718764 0.440700
O O1 0.385937 0.049995 0.304421
O O2 0.468945 0.129299 0.301642
O O3 0.387431 0.161885 0.390363
O O4 0.409286 0.131228 0.066599
O O5 0.250000 0.834419 0.750000
O O6 0.232151 0.873212 0.421402
O O7 0.300398 0.915553 0.616089
O O8 0.306253 0.804205 0.492502
O O9 0.688170 0.470708 0.242131
O O10 0.674268 0.436321 0.564571
O O11 0.645511 0.369478 0.302217
O O12 0.557152 0.166842 0.242725
O O13 0.618505 0.232775 0.060926
O O14 0.490845 0.250000 0.250000
O O15 0.500000 0.172441 0.000000
O O16 0.846349 0.750000 0.250000
#
# Coordination Sequence:
#
# PCOD9326052 Si02
#       7
#    16  16  16  16  16  16  16
#     4   8  14  26  44  67  91 119 159 210 261 302
#     4   9  16  25  44  69  90 124 172 220 266 306
#     4   9  16  27  42  64  95 126 157 202 259 311
#     4   8  15  27  43  64  92 120 159 213 258 299
#     4   9  17  26  41  67 100 129 153 195 259 324
#     4  10  18  30  50  74 100 133 172 210 260 327
#     4   9  15  25  42  69  99 125 163 219 268 306
#
# _framework density 23.460345
#
# number of rings (size 3 to 8) (size 9 to 14) (size 15 to 20)
#    0.000    3.143    0.000    4.714    0.000    2.000 
#    0.000    0.714    0.000   18.000    0.000    1.000 
#    0.000    5.714    0.000    0.286    0.000    0.000 
#
# Total GULP energy -156344.107156 kJ/mol
# GULP energy per Si atom -5583.718113 kJ/mol
# Density = 2.340695 g / cm^3
# Si number density = 23.460345 Si / 1000 Ang^3
#
#
#
# Elastic Constant Matrix: (Units=GPa)
#
#
# Indices 1 2 3 4 5 6 
#
# 1 184.2635 37.7345 19.4601 -0.0003 0.0002 0.0001
# 2 37.7345 19.6889 8.2767 -0.0007 0.0006 0.0004
# 3 19.4601 8.2767 37.0757 -0.0021 0.0016 -0.0033
# 4 -0.0003 -0.0007 -0.0021 8.1986 0.0011 -0.0014
# 5 0.0002 0.0006 0.0016 0.0011 10.3364 0.0018
# 6 0.0001 0.0004 -0.0033 -0.0014 0.0018 -28.9655
#
#
#
# Elastic Compliance Matrix: (Units=1/GPa)
#
#
# Indices 1 2 3 4 5 6 
#
# 1 0.008964 -0.016776 -0.000960 -0.000001 0.000001 0.000000
# 2 -0.016776 0.087447 -0.010716 0.000004 -0.000003 0.000002
# 3 -0.000960 -0.010716 0.029868 0.000007 -0.000004 -0.000004
# 4 -0.000001 0.000004 0.000007 0.121973 -0.000012 -0.000006
# 5 0.000001 -0.000003 -0.000004 -0.000012 0.096746 0.000006
# 6 0.000000 0.000002 -0.000004 -0.000006 0.000006 -0.034524
#
#
# Mechanical properties :
#
#
# Convention : Reuss Voigt Hill
#
# Bulk Modulus (GPa) = 14.41451 41.33007 27.87229
# Shear Modulus (GPa) = 12.80404 9.61767 11.21086
#
# Velocity S-wave (km/s) = 2.33871 2.02693 2.18838
# Velocity P-wave (km/s) = 3.66747 4.80969 4.27688
#
# Compressibility (1/GPa) = 0.06937455
#
# Stress axis : x y z
#
# Youngs Moduli (GPa) = 111.55888 11.43555 33.48082
#
# Poissons Ratio (x) = 0.19184 0.03214
# Poissons Ratio (y) = 1.87152 0.35878
# Poissons Ratio (z) = 0.10708 0.12254
#
# Static dielectric constant tensor:
#      x y z
#    x 1.971420 0.000000 0.000000 
#    y 0.000000 1.883350 0.000000 
#    z 0.000000 0.000000 1.983810 
# 
# From -- ./inp_files/24767.got.cif
#   From: 2010.05.17/outbox.cif.g08.bks.cpg/sg22_13_cif.got.tgz:24767.got - 2010.06.03 23:40:54.
