data_PCOD9326575
_publ_section_title
;
Structure prediction by ZEFSAII (Michael W. Deem and Ramdas Pophale) SiO2 
 PCOD9326575
Probable space group: F 2 2 2
;
_chemical_formula_sum "Si O2"
_cell_formula_units_Z 104
_cell_length_a 28.175656
_cell_length_b 21.389505
_cell_length_c 7.824778
_cell_angle_alpha 90.000000
_cell_angle_beta 90.000000
_cell_angle_gamma 90.000000
_cell_volume 4715.706804
_symmetry_space_group_name_H-M "F 2 2 2"
_symmetry_group_IT_number 22
_symmetry_cell_setting 'orthorhombic'
loop_
_space_group_symop_operation_xyz
x,y,z
-x,-y,z
x,-y,-z
-x,y,-z
x,1/2+y,1/2+z
-x,1/2-y,1/2+z
x,1/2-y,1/2-z
-x,1/2+y,1/2-z
1/2+x,y,1/2+z
1/2-x,-y,1/2+z
1/2+x,-y,1/2-z
1/2-x,y,1/2-z
1/2+x,1/2+y,z
1/2-x,1/2-y,z
1/2+x,1/2-y,-z
1/2-x,1/2+y,-z
loop_
_atom_site_type_symbol
_atom_site_label
_atom_site_fract_x
_atom_site_fract_y
_atom_site_fract_z
Si Si1 0.926259 0.750000 0.750000
Si Si2 0.415449 0.478110 0.811006
Si Si3 0.648543 0.637190 0.771975
Si Si4 0.500000 0.194725 0.000000
Si Si5 0.000000 0.087385 0.000000
Si Si6 0.665342 0.670488 0.139876
Si Si7 0.703366 0.293883 0.523038
Si Si8 0.430648 0.615787 0.727253
O O1 0.892647 0.689897 0.726399
O O2 0.963288 0.737968 0.900493
O O3 0.379482 0.427272 0.735254
O O4 0.467082 0.449261 0.861143
O O5 0.422301 0.541606 0.705447
O O6 0.397278 0.500000 0.000000
O O7 0.686674 0.662616 0.633029
O O8 0.670972 0.632213 0.963020
O O9 0.536568 0.148193 0.908403
O O10 0.960698 0.124011 0.899575
O O11 0.703121 0.670426 0.295156
O O12 0.664071 0.740685 0.063678
O O13 0.618647 0.648533 0.236382
O O14 0.750000 0.250000 0.491364
#
# Coordination Sequence:
#
# PCOD9326575 Si02
#       8
#     8  16  16   8   8  16  16  16
#     4  12  28  44  57 102 138 188 245 300 356 408
#     4  10  20  39  68  98 137 196 240 291 344 412
#     4  12  23  43  72 101 139 182 236 293 367 431
#     4  12  30  37  66  92 144 199 244 302 342 406
#     4  10  19  37  63  90 135 185 238 278 319 392
#     4  11  22  41  72  96 142 179 227 291 363 425
#     4  11  26  45  69 109 137 169 228 294 367 455
#     4  11  23  41  65  99 136 193 243 287 352 413
#
# _framework density 22.053958999999999
#
# number of rings (size 3 to 8) (size 9 to 14) (size 15 to 20)
#    0.000    0.923    4.615    4.846    4.308    2.462 
#    0.000   11.538    0.000    0.000   16.000    0.000 
#    0.000    0.000    0.000    0.000    0.000    0.000 
#
# Total GULP energy -145042.116747 kJ/mol
# GULP energy per Si atom -5578.542952 kJ/mol
# Density = 2.200376 g / cm^3
# Si number density = 22.053959 Si / 1000 Ang^3
#
#
#
# Elastic Constant Matrix: (Units=GPa)
#
#
# Indices 1 2 3 4 5 6 
#
# 1 146.8358 54.7623 62.5165 0.0000 0.0000 0.0000
# 2 54.7623 89.7137 24.9604 0.0004 0.0000 0.0000
# 3 62.5165 24.9604 88.2075 0.0012 -0.0001 0.0001
# 4 0.0000 0.0004 0.0012 33.9474 0.0000 0.0001
# 5 0.0000 0.0000 -0.0001 0.0000 26.0360 0.0000
# 6 0.0000 0.0000 0.0001 0.0001 0.0000 56.8099
#
#
#
# Elastic Compliance Matrix: (Units=1/GPa)
#
#
# Indices 1 2 3 4 5 6 
#
# 1 0.011642 -0.005222 -0.006773 0.000000 0.000000 0.000000
# 2 -0.005222 0.014441 -0.000386 0.000000 0.000000 0.000000
# 3 -0.006773 -0.000386 0.016247 -0.000001 0.000000 0.000000
# 4 0.000000 0.000000 -0.000001 0.029457 0.000000 0.000000
# 5 0.000000 0.000000 0.000000 0.000000 0.038408 0.000000
# 6 0.000000 0.000000 0.000000 0.000000 0.000000 0.017603
#
#
# Mechanical properties :
#
#
# Convention : Reuss Voigt Hill
#
# Bulk Modulus (GPa) = 56.92126 67.69282 62.30704
# Shear Modulus (GPa) = 31.56271 35.52651 33.54461
#
# Velocity S-wave (km/s) = 3.78717 4.01794 3.90426
# Velocity P-wave (km/s) = 6.70743 7.23090 6.97408
#
# Compressibility (1/GPa) = 0.01756813
#
# Stress axis : x y z
#
# Youngs Moduli (GPa) = 85.89956 69.24614 61.55152
#
# Poissons Ratio (x) = 0.36158 0.41690
# Poissons Ratio (y) = 0.44854 0.02374
# Poissons Ratio (z) = 0.58182 0.02671
#
# Static dielectric constant tensor:
#      x y z
#    x 1.755640 0.000000 0.000000 
#    y 0.000000 1.837970 0.000000 
#    z 0.000000 0.000000 1.813540 
# 
# From -- ./inp_files/14963.got.cif
#   From: 2010.05.17/outbox.cif.g08.bks.cpg/sg22_8_cif.got.tgz:14963.got - 2010.06.03 23:40:54.
