data_PCOD9326678
_publ_section_title
;
Structure prediction by ZEFSAII (Michael W. Deem and Ramdas Pophale) SiO2 
 PCOD9326678
Probable space group: F 2 2 2
;
_chemical_formula_sum "Si O2"
_cell_formula_units_Z 92
_cell_length_a 18.968172
_cell_length_b 24.194864
_cell_length_c 9.634711
_cell_angle_alpha 90.000000
_cell_angle_beta 90.000000
_cell_angle_gamma 90.000000
_cell_volume 4421.680482
_symmetry_space_group_name_H-M "F 2 2 2"
_symmetry_group_IT_number 22
_symmetry_cell_setting 'orthorhombic'
loop_
_space_group_symop_operation_xyz
x,y,z
-x,-y,z
x,-y,-z
-x,y,-z
x,1/2+y,1/2+z
-x,1/2-y,1/2+z
x,1/2-y,1/2-z
-x,1/2+y,1/2-z
1/2+x,y,1/2+z
1/2-x,-y,1/2+z
1/2+x,-y,1/2-z
1/2-x,y,1/2-z
1/2+x,1/2+y,z
1/2-x,1/2-y,z
1/2+x,1/2-y,-z
1/2-x,1/2+y,-z
loop_
_atom_site_type_symbol
_atom_site_label
_atom_site_fract_x
_atom_site_fract_y
_atom_site_fract_z
Si Si1 0.000000 0.000000 0.500000
Si Si2 0.587570 0.904972 0.860530
Si Si3 0.250000 0.015513 0.750000
Si Si4 0.115659 0.558049 0.428279
Si Si5 0.916104 0.750000 0.250000
Si Si6 0.301947 0.588135 0.578796
Si Si7 0.653407 0.639247 0.160597
Si Si8 0.500000 0.691281 0.500000
O O1 0.049649 0.040652 0.583505
O O2 0.576995 0.912250 0.697911
O O3 0.554010 0.849622 0.921165
O O4 0.666438 0.908307 0.925839
O O5 0.286327 0.972162 0.858260
O O6 0.191372 0.044763 0.849486
O O7 0.094543 0.500000 0.500000
O O8 0.112948 0.602606 0.549857
O O9 0.868253 0.702037 0.318919
O O10 0.962383 0.774040 0.377620
O O11 0.358129 0.612265 0.688072
O O12 0.233342 0.626279 0.607147
#
# Coordination Sequence:
#
# PCOD9326678 Si02
#       8
#     4  16   8  16   8  16  16   8
#     4  10  24  40  66  92 140 208 216 266 330 428
#     4  11  24  42  64  98 140 180 237 270 340 417
#     4  10  20  34  62 101 145 180 208 262 350 420
#     4  12  22  36  64 102 141 176 218 279 342 416
#     4  12  26  51  74  94 133 176 250 292 358 416
#     4  10  19  40  68 101 137 180 223 273 355 431
#     4  10  23  40  67 105 130 174 232 286 360 405
#     4  11  28  49  72  92 121 190 227 304 348 412
#
# _framework density 20.806567999999999
#
# number of rings (size 3 to 8) (size 9 to 14) (size 15 to 20)
#    0.000    1.391    5.217    2.087    2.435    1.391 
#    0.000    2.174    0.000    0.000    0.000    0.000 
#    0.000    0.000    0.000    0.000    0.000    0.000 
#
# Total GULP energy -128238.415372 kJ/mol
# GULP energy per Si atom -5575.583277 kJ/mol
# Density = 2.075921 g / cm^3
# Si number density = 20.806568 Si / 1000 Ang^3
#
#
#
# Elastic Constant Matrix: (Units=GPa)
#
#
# Indices 1 2 3 4 5 6 
#
# 1 36.2498 29.6183 15.9501 0.0000 0.0000 0.0000
# 2 29.6183 141.0185 62.7410 0.0000 0.0000 0.0000
# 3 15.9501 62.7410 156.2754 0.0000 0.0000 0.0000
# 4 0.0000 0.0000 0.0000 41.2716 0.0000 0.0000
# 5 0.0000 0.0000 0.0000 0.0000 -19.8140 0.0000
# 6 0.0000 0.0000 0.0000 0.0000 0.0000 168.9004
#
#
#
# Elastic Compliance Matrix: (Units=1/GPa)
#
#
# Indices 1 2 3 4 5 6 
#
# 1 0.033368 -0.006688 -0.000721 0.000000 0.000000 0.000000
# 2 -0.006688 0.009974 -0.003322 0.000000 0.000000 0.000000
# 3 -0.000721 -0.003322 0.007806 0.000000 0.000000 0.000000
# 4 0.000000 0.000000 0.000000 0.024230 0.000000 0.000000
# 5 0.000000 0.000000 0.000000 0.000000 -0.050469 0.000000
# 6 0.000000 0.000000 0.000000 0.000000 0.000000 0.005921
#
#
# Mechanical properties :
#
#
# Convention : Reuss Voigt Hill
#
# Bulk Modulus (GPa) = 33.68423 61.12917 47.40670
# Shear Modulus (GPa) = 80.40636 53.08724 66.74680
#
# Velocity S-wave (km/s) = 6.22323 5.05668 5.67004
# Velocity P-wave (km/s) = 8.23787 7.97100 8.10554
#
# Compressibility (1/GPa) = 0.02968748
#
# Stress axis : x y z
#
# Youngs Moduli (GPa) = 29.96919 100.26349 128.10510
#
# Poissons Ratio (x) = 0.67052 0.09233
# Poissons Ratio (y) = 0.20042 0.42552
# Poissons Ratio (z) = 0.02160 0.33304
#
# Static dielectric constant tensor:
#      x y z
#    x 1.878600 0.000000 0.000000 
#    y 0.000000 1.722710 0.000000 
#    z 0.000000 0.000000 1.626810 
# 
# From -- ./inp_files/12741.got.cif
#   From: 2010.05.17/outbox.cif.g08.bks.cpg/sg22_7_cif.got.tgz:12741.got - 2010.06.03 23:40:54.
