data_PCOD9326931
_publ_section_title
;
Structure prediction by ZEFSAII (Michael W. Deem and Ramdas Pophale) SiO2 
 PCOD9326931
Probable space group: F 2 2 2
;
_chemical_formula_sum "Si O2"
_cell_formula_units_Z 84
_cell_length_a 21.305289
_cell_length_b 20.053104
_cell_length_c 9.527223
_cell_angle_alpha 90.000000
_cell_angle_beta 90.000000
_cell_angle_gamma 90.000000
_cell_volume 4070.383850
_symmetry_space_group_name_H-M "F 2 2 2"
_symmetry_group_IT_number 22
_symmetry_cell_setting 'orthorhombic'
loop_
_space_group_symop_operation_xyz
x,y,z
-x,-y,z
x,-y,-z
-x,y,-z
x,1/2+y,1/2+z
-x,1/2-y,1/2+z
x,1/2-y,1/2-z
-x,1/2+y,1/2-z
1/2+x,y,1/2+z
1/2-x,-y,1/2+z
1/2+x,-y,1/2-z
1/2-x,y,1/2-z
1/2+x,1/2+y,z
1/2-x,1/2-y,z
1/2+x,1/2-y,-z
1/2-x,1/2+y,-z
loop_
_atom_site_type_symbol
_atom_site_label
_atom_site_fract_x
_atom_site_fract_y
_atom_site_fract_z
Si Si1 0.000000 0.000000 0.500000
Si Si2 0.431056 0.577295 0.033331
Si Si3 0.570698 0.706793 0.455420
Si Si4 0.895743 0.411003 0.147376
Si Si5 0.210075 0.500000 0.000000
Si Si6 0.375941 0.663839 0.809723
Si Si7 0.250000 0.595419 0.750000
O O1 0.955252 0.046788 0.408397
O O2 0.404856 0.591973 0.186639
O O3 0.435337 0.500000 0.000000
O O4 0.500000 0.607052 0.000000
O O5 0.385491 0.605956 0.918653
O O6 0.500000 0.725070 0.500000
O O7 0.600637 0.661886 0.576810
O O8 0.572128 0.662131 0.313693
O O9 0.611954 0.768978 0.399870
O O10 0.835150 0.451379 0.092345
O O11 0.246306 0.453221 0.112807
O O12 0.309327 0.645591 0.743627
#
# Coordination Sequence:
#
# PCOD9326931 Si02
#       7
#     4  16  16  16   8  16   8
#     4  10  20  36  66  96 152 184 226 296 362 436
#     4  11  23  37  65 105 144 181 230 307 372 430
#     4  11  23  44  71 101 141 190 239 290 366 452
#     4  11  22  40  66 105 143 188 243 292 372 434
#     4  11  26  43  72 102 139 196 247 310 356 432
#     4  11  26  45  68 104 142 193 241 295 364 437
#     4  12  26  49  74 102 145 196 250 308 364 440
#
# _framework density 20.636875
#
# number of rings (size 3 to 8) (size 9 to 14) (size 15 to 20)
#    0.000    0.952    2.857    4.000    6.667    3.810 
#    0.000    0.000    0.000    0.000    0.000    0.000 
#    0.000    0.000    0.000    0.000    0.000    0.000 
#
# Total GULP energy -117237.489569 kJ/mol
# GULP energy per Si atom -5582.737599 kJ/mol
# Density = 2.058990 g / cm^3
# Si number density = 20.636875 Si / 1000 Ang^3
#
#
#
# Elastic Constant Matrix: (Units=GPa)
#
#
# Indices 1 2 3 4 5 6 
#
# 1 72.8681 35.5003 36.2777 0.0000 0.0000 0.0000
# 2 35.5003 89.2297 38.3776 0.0000 0.0000 0.0000
# 3 36.2777 38.3776 131.5255 0.0001 -0.0001 0.0000
# 4 0.0000 0.0000 0.0001 24.8810 0.0000 0.0000
# 5 0.0000 0.0000 -0.0001 0.0000 30.1224 0.0000
# 6 0.0000 0.0000 0.0000 0.0000 0.0000 26.2914
#
#
#
# Elastic Compliance Matrix: (Units=1/GPa)
#
#
# Indices 1 2 3 4 5 6 
#
# 1 0.018213 -0.005815 -0.003327 0.000000 0.000000 0.000000
# 2 -0.005815 0.014672 -0.002677 0.000000 0.000000 0.000000
# 3 -0.003327 -0.002677 0.009302 0.000000 0.000000 0.000000
# 4 0.000000 0.000000 0.000000 0.040191 0.000000 0.000000
# 5 0.000000 0.000000 0.000000 0.000000 0.033198 0.000000
# 6 0.000000 0.000000 0.000000 0.000000 0.000000 0.038035
#
#
# Mechanical properties :
#
#
# Convention : Reuss Voigt Hill
#
# Bulk Modulus (GPa) = 53.91261 57.10383 55.50822
# Shear Modulus (GPa) = 27.25807 28.49014 27.87411
#
# Velocity S-wave (km/s) = 3.63828 3.71960 3.67917
# Velocity P-wave (km/s) = 6.62047 6.79545 6.70853
#
# Compressibility (1/GPa) = 0.01854854
#
# Stress axis : x y z
#
# Youngs Moduli (GPa) = 54.90679 68.15676 107.50575
#
# Poissons Ratio (x) = 0.39634 0.35764
# Poissons Ratio (y) = 0.31929 0.28781
# Poissons Ratio (z) = 0.18266 0.18247
#
# Static dielectric constant tensor:
#      x y z
#    x 1.842620 0.000000 0.000000 
#    y 0.000000 1.646700 0.000000 
#    z 0.000000 0.000000 1.716000 
# 
# From -- ./inp_files/13708.got.cif
#   From: 2010.05.17/outbox.cif.g08.bks.cpg/sg22_7_cif.got.tgz:13708.got - 2010.06.03 23:40:54.
