data_PCOD9326225
_publ_section_title
;
Structure prediction by ZEFSAII (Michael W. Deem and Ramdas Pophale) SiO2 
 PCOD9326225
Probable space group: F 2 2 2
;
_chemical_formula_sum "Si O2"
_cell_formula_units_Z 60
_cell_length_a 8.726557
_cell_length_b 18.656111
_cell_length_c 15.131248
_cell_angle_alpha 90.000000
_cell_angle_beta 90.000000
_cell_angle_gamma 90.000000
_cell_volume 2463.421890
_symmetry_space_group_name_H-M "F 2 2 2"
_symmetry_group_IT_number 22
_symmetry_cell_setting 'orthorhombic'
loop_
_space_group_symop_operation_xyz
x,y,z
-x,-y,z
x,-y,-z
-x,y,-z
x,1/2+y,1/2+z
-x,1/2-y,1/2+z
x,1/2-y,1/2-z
-x,1/2+y,1/2-z
1/2+x,y,1/2+z
1/2-x,-y,1/2+z
1/2+x,-y,1/2-z
1/2-x,y,1/2-z
1/2+x,1/2+y,z
1/2-x,1/2-y,z
1/2+x,1/2-y,-z
1/2-x,1/2+y,-z
loop_
_atom_site_type_symbol
_atom_site_label
_atom_site_fract_x
_atom_site_fract_y
_atom_site_fract_z
Si Si1 0.000000 0.500000 0.500000
Si Si2 0.000000 0.500000 0.794192
Si Si3 0.500000 0.180973 0.000000
Si Si4 0.750000 0.250000 0.381850
Si Si5 0.925082 0.107204 0.141068
Si Si6 0.724946 0.886944 0.146858
O O1 0.893231 0.549724 0.563015
O O2 0.940162 0.563295 0.731562
O O3 0.853248 0.465506 0.841706
O O4 0.611234 0.226726 0.058494
O O5 0.391582 0.143983 0.074057
O O6 0.818202 0.324265 0.342479
O O7 0.101936 0.124694 0.114590
O O8 0.750000 0.860292 0.250000
#
# Coordination Sequence:
#
# PCOD9326225 Si02
#       6
#     4   8   8   8  16  16
#     4  10  18  36  68 100 130 188 248 320 398 460
#     4   9  22  44  72 107 148 200 266 341 416 488
#     4  12  25  43  72 103 151 212 270 338 421 504
#     4  12  26  46  68 110 156 214 280 342 425 508
#     4  10  22  42  71 103 153 201 262 342 413 493
#     4  10  23  45  72 110 151 198 262 337 409 496
#
# _framework density 24.356363999999999
#
# number of rings (size 3 to 8) (size 9 to 14) (size 15 to 20)
#    0.000    1.600    0.000    4.000    0.000   11.200 
#    0.000   24.667    0.000    0.000    0.000    0.000 
#    0.000    0.000    0.000    0.000    0.000    0.000 
#
# Total GULP energy -83548.847525 kJ/mol
# GULP energy per Si atom -5569.923168 kJ/mol
# Density = 2.430093 g / cm^3
# Si number density = 24.356364 Si / 1000 Ang^3
#
#
#
# Elastic Constant Matrix: (Units=GPa)
#
#
# Indices 1 2 3 4 5 6 
#
# 1 157.3452 76.9311 52.5520 0.0000 0.0000 0.0000
# 2 76.9311 158.5546 60.6325 0.0000 0.0000 0.0000
# 3 52.5520 60.6325 114.2287 0.0000 0.0000 0.0000
# 4 0.0000 0.0000 0.0000 50.4150 0.0000 0.0000
# 5 0.0000 0.0000 0.0000 0.0000 48.4213 0.0000
# 6 0.0000 0.0000 0.0000 0.0000 0.0000 -246.9779
#
#
#
# Elastic Compliance Matrix: (Units=1/GPa)
#
#
# Indices 1 2 3 4 5 6 
#
# 1 0.008761 -0.003400 -0.002226 0.000000 0.000000 0.000000
# 2 -0.003400 0.009232 -0.003337 0.000000 0.000000 0.000000
# 3 -0.002226 -0.003337 0.011550 0.000000 0.000000 0.000000
# 4 0.000000 0.000000 0.000000 0.019835 0.000000 0.000000
# 5 0.000000 0.000000 0.000000 0.000000 0.020652 0.000000
# 6 0.000000 0.000000 0.000000 0.000000 0.000000 -0.004049
#
#
# Mechanical properties :
#
#
# Convention : Reuss Voigt Hill
#
# Bulk Modulus (GPa) = 86.06945 90.03999 88.05472
# Shear Modulus (GPa) = 56.96125 -13.62745 21.66690
#
# Velocity S-wave (km/s) = 4.84122 -2.36795 2.98582
# Velocity P-wave (km/s) = 8.16481 5.43799 6.93671
#
# Compressibility (1/GPa) = 0.01161852
#
# Stress axis : x y z
#
# Youngs Moduli (GPa) = 114.14012 108.31420 86.58356
#
# Poissons Ratio (x) = 0.36823 0.19275
# Poissons Ratio (y) = 0.38804 0.28889
# Poissons Ratio (z) = 0.25409 0.36139
#
# Static dielectric constant tensor:
#      x y z
#    x 1.891920 0.000000 0.000000 
#    y 0.000000 2.011460 0.000000 
#    z 0.000000 0.000000 2.023370 
# 
# From -- ./inp_files/10994.got.cif
#   From: 2010.05.17/outbox.cif.g08.bks.cpg/sg22_6_cif.got.tgz:10994.got - 2010.06.03 23:40:54.
