data_PCOD9326656
_publ_section_title
;
Structure prediction by ZEFSAII (Michael W. Deem and Ramdas Pophale) SiO2 
 PCOD9326656
Probable space group: F 2 2 2
;
_chemical_formula_sum "Si O2"
_cell_formula_units_Z 88
_cell_length_a 22.827125
_cell_length_b 16.026566
_cell_length_c 10.733768
_cell_angle_alpha 90.000000
_cell_angle_beta 90.000000
_cell_angle_gamma 90.000000
_cell_volume 3926.846251
_symmetry_space_group_name_H-M "F 2 2 2"
_symmetry_group_IT_number 22
_symmetry_cell_setting 'orthorhombic'
loop_
_space_group_symop_operation_xyz
x,y,z
-x,-y,z
x,-y,-z
-x,y,-z
x,1/2+y,1/2+z
-x,1/2-y,1/2+z
x,1/2-y,1/2-z
-x,1/2+y,1/2-z
1/2+x,y,1/2+z
1/2-x,-y,1/2+z
1/2+x,-y,1/2-z
1/2-x,y,1/2-z
1/2+x,1/2+y,z
1/2-x,1/2-y,z
1/2+x,1/2-y,-z
1/2-x,1/2+y,-z
loop_
_atom_site_type_symbol
_atom_site_label
_atom_site_fract_x
_atom_site_fract_y
_atom_site_fract_z
Si Si1 0.943124 0.656030 0.623219
Si Si2 0.392625 0.912247 0.953643
Si Si3 0.656731 0.160282 0.198653
Si Si4 0.933296 0.252730 0.615291
Si Si5 0.106138 0.500000 0.500000
Si Si6 0.683841 0.477264 0.774642
O O1 0.910425 0.661444 0.753296
O O2 0.909421 0.706953 0.512900
O O3 0.935282 0.562097 0.576445
O O4 0.007623 0.693612 0.633257
O O5 0.440344 0.843938 0.917657
O O6 0.354923 0.939032 0.834792
O O7 0.348957 0.868518 0.055091
O O8 0.417369 0.000000 0.000000
O O9 0.680120 0.250000 0.250000
O O10 0.683506 0.079089 0.267179
O O11 0.901779 0.250000 0.750000
O O12 0.150254 0.456061 0.402267
O O13 0.750000 0.449464 0.750000
#
# Coordination Sequence:
#
# PCOD9326656 Si02
#       6
#    16  16  16  16   8  16
#     4  10  22  38  62  93 129 182 221 276 343 414
#     4  10  22  41  66  96 136 179 225 285 340 406
#     4  10  19  39  67  93 133 172 223 287 346 404
#     4  11  22  36  65  91 132 177 226 276 337 411
#     4  10  22  43  64  94 140 176 226 283 350 420
#     4  10  23  40  70  99 130 177 228 288 353 421
#
# _framework density 22.409841
#
# number of rings (size 3 to 8) (size 9 to 14) (size 15 to 20)
#    0.000    1.818    1.818    1.636    6.364    1.818 
#    0.000    1.818    0.000    4.909    0.000    0.000 
#    0.000    0.000    0.000    0.000    0.000    0.000 
#
# Total GULP energy -122571.708466 kJ/mol
# GULP energy per Si atom -5571.441294 kJ/mol
# Density = 2.235884 g / cm^3
# Si number density = 22.409841 Si / 1000 Ang^3
#
#
#
# Elastic Constant Matrix: (Units=GPa)
#
#
# Indices 1 2 3 4 5 6 
#
# 1 70.9793 19.2569 -0.5129 0.0000 0.0000 0.0000
# 2 19.2569 106.4867 8.3241 0.0000 0.0000 0.0000
# 3 -0.5129 8.3241 128.8101 0.0000 0.0000 0.0000
# 4 0.0000 0.0000 0.0000 39.5158 0.0000 0.0000
# 5 0.0000 0.0000 0.0000 0.0000 9.8767 0.0000
# 6 0.0000 0.0000 0.0000 0.0000 0.0000 4.2726
#
#
#
# Elastic Compliance Matrix: (Units=1/GPa)
#
#
# Indices 1 2 3 4 5 6 
#
# 1 0.014822 -0.002699 0.000233 0.000000 0.000000 0.000000
# 2 -0.002699 0.009930 -0.000652 0.000000 0.000000 0.000000
# 3 0.000233 -0.000652 0.007806 0.000000 0.000000 0.000000
# 4 0.000000 0.000000 0.000000 0.025306 0.000000 0.000000
# 5 0.000000 0.000000 0.000000 0.000000 0.101248 0.000000
# 6 0.000000 0.000000 0.000000 0.000000 0.000000 0.234052
#
#
# Mechanical properties :
#
#
# Convention : Reuss Voigt Hill
#
# Bulk Modulus (GPa) = 37.98913 40.04582 39.01748
# Shear Modulus (GPa) = 12.24965 29.34688 20.79827
#
# Velocity S-wave (km/s) = 2.34053 3.62270 3.04976
# Velocity P-wave (km/s) = 4.92878 5.95039 5.46352
#
# Compressibility (1/GPa) = 0.02632332
#
# Stress axis : x y z
#
# Youngs Moduli (GPa) = 67.46510 100.70623 128.09903
#
# Poissons Ratio (x) = 0.27178 -0.02990
# Poissons Ratio (y) = 0.18207 0.08358
# Poissons Ratio (z) = -0.01575 0.06571
#
# Static dielectric constant tensor:
#      x y z
#    x 1.826090 0.000000 0.000000 
#    y 0.000000 1.884320 0.000000 
#    z 0.000000 0.000000 1.916240 
# 
# From -- ./inp_files/24541.got.cif
#   From: 2010.05.17/outbox.cif.g08.bks.cpg/sg22_13_cif.got.tgz:24541.got - 2010.06.03 23:40:54.
