data_PCOD9326544
_publ_section_title
;
Structure prediction by ZEFSAII (Michael W. Deem and Ramdas Pophale) SiO2 
 PCOD9326544
Probable space group: F 2 2 2
;
_chemical_formula_sum "Si O2"
_cell_formula_units_Z 80
_cell_length_a 16.377333
_cell_length_b 15.374720
_cell_length_c 14.382133
_cell_angle_alpha 90.000000
_cell_angle_beta 90.000000
_cell_angle_gamma 90.000000
_cell_volume 3621.376637
_symmetry_space_group_name_H-M "F 2 2 2"
_symmetry_group_IT_number 22
_symmetry_cell_setting 'orthorhombic'
loop_
_space_group_symop_operation_xyz
x,y,z
-x,-y,z
x,-y,-z
-x,y,-z
x,1/2+y,1/2+z
-x,1/2-y,1/2+z
x,1/2-y,1/2-z
-x,1/2+y,1/2-z
1/2+x,y,1/2+z
1/2-x,-y,1/2+z
1/2+x,-y,1/2-z
1/2-x,y,1/2-z
1/2+x,1/2+y,z
1/2-x,1/2-y,z
1/2+x,1/2-y,-z
1/2-x,1/2+y,-z
loop_
_atom_site_type_symbol
_atom_site_label
_atom_site_fract_x
_atom_site_fract_y
_atom_site_fract_z
Si Si1 0.566516 0.179439 0.670640
Si Si2 0.838050 0.233379 0.006954
Si Si3 0.871431 0.338788 0.302979
Si Si4 0.096456 0.478577 0.223461
Si Si5 0.403950 0.592727 0.525644
O O1 0.588436 0.250000 0.750000
O O2 0.596000 0.207960 0.569897
O O3 0.468898 0.168632 0.677394
O O4 0.605839 0.085663 0.690114
O O5 0.750000 0.250000 0.962492
O O6 0.867153 0.329915 0.034093
O O7 0.832316 0.169513 0.094503
O O8 0.847588 0.250000 0.250000
O O9 0.860535 0.428983 0.245732
O O10 0.112014 0.414080 0.135876
O O11 0.000000 0.500000 0.210993
O O12 0.368356 0.500000 0.500000
O O13 0.500000 0.593523 0.500000
#
# Coordination Sequence:
#
# PCOD9326544 Si02
#       5
#    16  16  16  16  16
#     4  10  20  39  67  95 125 159 218 274 324 371
#     4  12  26  42  61  93 136 182 213 256 331 408
#     4  10  22  40  68  94 128 161 214 276 326 379
#     4  10  19  36  64 103 121 155 208 281 334 371
#     4  11  20  37  71  98 124 160 233 281 315 379
#
# _framework density 22.091047
#
# number of rings (size 3 to 8) (size 9 to 14) (size 15 to 20)
#    0.000    1.400    4.000    3.000    2.800    1.600 
#    3.600    3.000    0.000    0.000    0.000    0.000 
#    0.000    0.000    0.000    0.000    0.000    0.000 
#
# Total GULP energy -111463.062075 kJ/mol
# GULP energy per Si atom -5573.153104 kJ/mol
# Density = 2.204077 g / cm^3
# Si number density = 22.091047 Si / 1000 Ang^3
#
#
#
# Elastic Constant Matrix: (Units=GPa)
#
#
# Indices 1 2 3 4 5 6 
#
# 1 30.2538 12.9797 8.0983 0.0000 0.0000 0.0000
# 2 12.9797 94.5382 8.2512 0.0000 0.0000 0.0000
# 3 8.0983 8.2512 75.9713 0.0000 0.0000 0.0000
# 4 0.0000 0.0000 0.0000 26.4906 0.0000 0.0000
# 5 0.0000 0.0000 0.0000 0.0000 -1.5727 0.0000
# 6 0.0000 0.0000 0.0000 0.0000 0.0000 -11.7671
#
#
#
# Elastic Compliance Matrix: (Units=1/GPa)
#
#
# Indices 1 2 3 4 5 6 
#
# 1 0.035936 -0.004644 -0.003326 0.000000 0.000000 0.000000
# 2 -0.004644 0.011279 -0.000730 0.000000 0.000000 0.000000
# 3 -0.003326 -0.000730 0.013597 0.000000 0.000000 0.000000
# 4 0.000000 0.000000 0.000000 0.037749 0.000000 0.000000
# 5 0.000000 0.000000 0.000000 0.000000 -0.635860 0.000000
# 6 0.000000 0.000000 0.000000 0.000000 0.000000 -0.084983
#
#
# Mechanical properties :
#
#
# Convention : Reuss Voigt Hill
#
# Bulk Modulus (GPa) = 23.03506 28.82466 25.92986
# Shear Modulus (GPa) = -8.46868 14.05911 2.79521
#
# Velocity S-wave (km/s) = -1.96007 2.52547 1.12608
# Velocity P-wave (km/s) = 2.30813 4.64547 3.66796
#
# Compressibility (1/GPa) = 0.04341209
#
# Stress axis : x y z
#
# Youngs Moduli (GPa) = 27.82701 88.66039 73.54712
#
# Poissons Ratio (x) = 0.41170 0.24464
# Poissons Ratio (y) = 0.12922 0.05369
# Poissons Ratio (z) = 0.09256 0.06472
#
# Static dielectric constant tensor:
#      x y z
#    x 1.671510 0.000000 0.000000 
#    y 0.000000 1.848490 0.000000 
#    z 0.000000 0.000000 2.079110 
# 
# From -- ./inp_files/31360.got.cif
#   From: 2010.05.17/outbox.cif.g08.bks.cpg/sg22_16_cif.got.tgz:31360.got - 2010.06.03 23:40:54.
