data_PCOD9326148
_publ_section_title
;
Structure prediction by ZEFSAII (Michael W. Deem and Ramdas Pophale) SiO2 
 PCOD9326148
Probable space group: F 2 2 2
;
_chemical_formula_sum "Si O2"
_cell_formula_units_Z 56
_cell_length_a 25.753922
_cell_length_b 21.784234
_cell_length_c 5.281448
_cell_angle_alpha 90.000000
_cell_angle_beta 90.000000
_cell_angle_gamma 90.000000
_cell_volume 2963.047937
_symmetry_space_group_name_H-M "F 2 2 2"
_symmetry_group_IT_number 22
_symmetry_cell_setting 'orthorhombic'
loop_
_space_group_symop_operation_xyz
x,y,z
-x,-y,z
x,-y,-z
-x,y,-z
x,1/2+y,1/2+z
-x,1/2-y,1/2+z
x,1/2-y,1/2-z
-x,1/2+y,1/2-z
1/2+x,y,1/2+z
1/2-x,-y,1/2+z
1/2+x,-y,1/2-z
1/2-x,y,1/2-z
1/2+x,1/2+y,z
1/2-x,1/2-y,z
1/2+x,1/2-y,-z
1/2-x,1/2+y,-z
loop_
_atom_site_type_symbol
_atom_site_label
_atom_site_fract_x
_atom_site_fract_y
_atom_site_fract_z
Si Si1 0.798557 0.637989 0.062922
Si Si2 0.250000 0.460511 0.750000
Si Si3 0.682184 0.750000 0.750000
Si Si4 0.500000 0.707164 0.000000
Si Si5 0.389359 0.682865 0.879807
O O1 0.750000 0.626992 0.250000
O O2 0.853727 0.640168 0.205014
O O3 0.794431 0.585743 0.850242
O O4 0.789818 0.706257 0.950705
O O5 0.235885 0.500000 0.500000
O O6 0.645495 0.800502 0.619716
O O7 0.490315 0.750000 0.250000
O O8 0.551745 0.667536 0.050895
O O9 0.394241 0.750000 0.750000
#
# Coordination Sequence:
#
# PCOD9326148 Si02
#       5
#    16   8   8   8  16
#     4  11  23  38  57  87 125 165 208 246 304 373
#     4  12  26  45  60  81 116 166 210 260 306 362
#     4  10  20  33  54  88 126 162 193 236 296 354
#     4  10  18  34  52  80 124 173 205 240 282 362
#     4   9  19  32  52  83 122 169 202 238 293 354
#
# _framework density 18.899459
#
# number of rings (size 3 to 8) (size 9 to 14) (size 15 to 20)
#    0.000    1.714    2.857    1.714    0.000   13.714 
#    0.000    0.000    0.000    0.000    0.000    0.000 
#    0.000   32.000    0.000    0.000    0.000    0.000 
#
# Total GULP energy -78014.374928 kJ/mol
# GULP energy per Si atom -5572.455352 kJ/mol
# Density = 1.885644 g / cm^3
# Si number density = 18.899459 Si / 1000 Ang^3
#
#
#
# Elastic Constant Matrix: (Units=GPa)
#
#
# Indices 1 2 3 4 5 6 
#
# 1 124.6158 56.9052 51.9947 -0.0060 -0.0005 0.0604
# 2 56.9052 74.7508 44.3127 -0.0181 0.0030 0.0882
# 3 51.9947 44.3127 111.4072 -0.0272 0.0062 0.1723
# 4 -0.0060 -0.0181 -0.0272 46.9400 0.0031 0.1235
# 5 -0.0005 0.0030 0.0062 0.0031 29.9597 -0.0052
# 6 0.0604 0.0882 0.1723 0.1235 -0.0052 -125.6909
#
#
#
# Elastic Compliance Matrix: (Units=1/GPa)
#
#
# Indices 1 2 3 4 5 6 
#
# 1 0.012923 -0.008195 -0.002772 -0.000003 0.000002 -0.000003
# 2 -0.008195 0.022702 -0.005205 0.000005 -0.000001 0.000005
# 3 -0.002772 -0.005205 0.012340 0.000005 -0.000002 0.000012
# 4 -0.000003 0.000005 0.000005 0.021304 -0.000002 0.000021
# 5 0.000002 -0.000001 -0.000002 -0.000002 0.033378 -0.000001
# 6 -0.000003 0.000005 0.000012 0.000021 -0.000001 -0.007956
#
#
# Mechanical properties :
#
#
# Convention : Reuss Voigt Hill
#
# Bulk Modulus (GPa) = 64.01440 68.57767 66.29603
# Shear Modulus (GPa) = 37.80934 0.74585 19.27759
#
# Velocity S-wave (km/s) = 4.47760 0.62888 3.19722
# Velocity P-wave (km/s) = 7.78951 6.07385 6.98456
#
# Compressibility (1/GPa) = 0.01562149
#
# Stress axis : x y z
#
# Youngs Moduli (GPa) = 77.37917 44.04906 81.03657
#
# Poissons Ratio (x) = 0.36098 0.22462
# Poissons Ratio (y) = 0.63412 0.42181
# Poissons Ratio (z) = 0.21449 0.22928
#
# Static dielectric constant tensor:
#      x y z
#    x 1.734910 0.000000 0.000000 
#    y 0.000000 1.647370 0.000010 
#    z 0.000000 0.000010 1.862590 
# 
# From -- ./inp_files/3662.got.cif
#   From: 2010.05.17/outbox.cif.g08.bks.cpg/sg22_2_cif.got.tgz:3662.got - 2010.06.03 23:40:54.
