data_PCOD9326854
_publ_section_title
;
Structure prediction by ZEFSAII (Michael W. Deem and Ramdas Pophale) SiO2 
 PCOD9326854
Probable space group: F 2 2 2
;
_chemical_formula_sum "Si O2"
_cell_formula_units_Z 92
_cell_length_a 7.640870
_cell_length_b 22.465658
_cell_length_c 31.070098
_cell_angle_alpha 90.000000
_cell_angle_beta 90.000000
_cell_angle_gamma 90.000000
_cell_volume 5333.405164
_symmetry_space_group_name_H-M "F 2 2 2"
_symmetry_group_IT_number 22
_symmetry_cell_setting 'orthorhombic'
loop_
_space_group_symop_operation_xyz
x,y,z
-x,-y,z
x,-y,-z
-x,y,-z
x,1/2+y,1/2+z
-x,1/2-y,1/2+z
x,1/2-y,1/2-z
-x,1/2+y,1/2-z
1/2+x,y,1/2+z
1/2-x,-y,1/2+z
1/2+x,-y,1/2-z
1/2-x,y,1/2-z
1/2+x,1/2+y,z
1/2-x,1/2-y,z
1/2+x,1/2-y,-z
1/2-x,1/2+y,-z
loop_
_atom_site_type_symbol
_atom_site_label
_atom_site_fract_x
_atom_site_fract_y
_atom_site_fract_z
Si Si1 0.692025 0.657029 0.822654
Si Si2 0.854997 0.193871 0.875760
Si Si3 0.750000 0.750000 0.750000
Si Si4 0.303721 0.519696 0.201580
Si Si5 0.500000 0.500000 0.636701
Si Si6 0.997979 0.368136 0.887808
Si Si7 0.547634 0.764958 0.950202
O O1 0.524302 0.668572 0.852284
O O2 0.667342 0.703971 0.784098
O O3 0.701520 0.590908 0.803710
O O4 0.869261 0.660993 0.852098
O O5 0.750000 0.250000 0.854903
O O6 0.705146 0.144339 0.877827
O O7 0.928047 0.221511 0.920692
O O8 0.500000 0.500000 0.192641
O O9 0.250000 0.502956 0.250000
O O10 0.166266 0.492480 0.168119
O O11 0.529349 0.561311 0.611134
O O12 0.025746 0.331343 0.931435
O O13 0.750000 0.750000 0.943869
O O14 0.500000 0.760172 0.000000
#
# Coordination Sequence:
#
# PCOD9326854 Si02
#       7
#    16  16   4  16   8  16  16
#     4  11  22  37  53  79 117 151 190 238 294 332
#     4  10  20  36  57  82 114 149 188 234 285 342
#     4  12  20  32  54  76 108 154 184 226 298 340
#     4  11  21  37  56  80 108 150 202 246 281 331
#     4  10  22  38  61  80 112 152 196 236 293 338
#     4  10  21  39  58  84 113 152 190 238 285 346
#     4  11  20  36  61  91 117 149 186 232 283 346
#
# _framework density 17.249769000000001
#
# number of rings (size 3 to 8) (size 9 to 14) (size 15 to 20)
#    0.000    1.391    3.478    4.696    0.000    0.000 
#    0.000    4.348    0.000    0.000    0.000    0.000 
#    0.000    0.000    0.000    0.000    0.000    0.000 
#
# Total GULP energy -128148.662664 kJ/mol
# GULP energy per Si atom -5571.680985 kJ/mol
# Density = 1.721051 g / cm^3
# Si number density = 17.249769 Si / 1000 Ang^3
#
#
#
# Elastic Constant Matrix: (Units=GPa)
#
#
# Indices 1 2 3 4 5 6 
#
# 1 138.4338 13.3648 37.3241 0.0000 0.0000 0.0000
# 2 13.3648 56.6947 16.9594 0.0000 0.0000 0.0000
# 3 37.3241 16.9594 56.9088 0.0000 0.0000 0.0000
# 4 0.0000 0.0000 0.0000 110.9391 0.0000 0.0000
# 5 0.0000 0.0000 0.0000 0.0000 -55.6545 0.0000
# 6 0.0000 0.0000 0.0000 0.0000 0.0000 22.7954
#
#
#
# Elastic Compliance Matrix: (Units=1/GPa)
#
#
# Indices 1 2 3 4 5 6 
#
# 1 0.008783 -0.000381 -0.005647 0.000000 0.000000 0.000000
# 2 -0.000381 0.019381 -0.005526 0.000000 0.000000 0.000000
# 3 -0.005647 -0.005526 0.022922 0.000000 0.000000 0.000000
# 4 0.000000 0.000000 0.000000 0.009014 0.000000 0.000000
# 5 0.000000 0.000000 0.000000 0.000000 -0.017968 0.000000
# 6 0.000000 0.000000 0.000000 0.000000 0.000000 0.043869
#
#
# Mechanical properties :
#
#
# Convention : Reuss Voigt Hill
#
# Bulk Modulus (GPa) = 35.74139 43.03710 39.38925
# Shear Modulus (GPa) = 42.21746 27.90859 35.06302
#
# Velocity S-wave (km/s) = 4.95251 4.02669 4.51340
# Velocity P-wave (km/s) = 7.31218 6.82807 7.07427
#
# Compressibility (1/GPa) = 0.02797876
#
# Stress axis : x y z
#
# Youngs Moduli (GPa) = 113.85721 51.59647 43.62598
#
# Poissons Ratio (x) = 0.01967 0.24634
# Poissons Ratio (y) = 0.04341 0.24106
# Poissons Ratio (z) = 0.64292 0.28511
#
# Static dielectric constant tensor:
#      x y z
#    x 1.589560 0.000000 0.000000 
#    y 0.000000 1.624220 0.000000 
#    z 0.000000 0.000000 1.575400 
# 
# From -- ./inp_files/51932.got.cif
#   From: 2010.05.17/outbox.cif.g08.bks.cpg/sg22_26_cif.got.tgz:51932.got - 2010.06.03 23:40:54.
