data_PCOD9326145
_publ_section_title
;
Structure prediction by ZEFSAII (Michael W. Deem and Ramdas Pophale) SiO2 
 PCOD9326145
Probable space group: F 2 2 2
;
_chemical_formula_sum "Si O2"
_cell_formula_units_Z 112
_cell_length_a 14.076843
_cell_length_b 15.588660
_cell_length_c 23.162796
_cell_angle_alpha 90.000000
_cell_angle_beta 90.000000
_cell_angle_gamma 90.000000
_cell_volume 5082.823557
_symmetry_space_group_name_H-M "F 2 2 2"
_symmetry_group_IT_number 22
_symmetry_cell_setting 'orthorhombic'
loop_
_space_group_symop_operation_xyz
x,y,z
-x,-y,z
x,-y,-z
-x,y,-z
x,1/2+y,1/2+z
-x,1/2-y,1/2+z
x,1/2-y,1/2-z
-x,1/2+y,1/2-z
1/2+x,y,1/2+z
1/2-x,-y,1/2+z
1/2+x,-y,1/2-z
1/2-x,y,1/2-z
1/2+x,1/2+y,z
1/2-x,1/2-y,z
1/2+x,1/2-y,-z
1/2-x,1/2+y,-z
loop_
_atom_site_type_symbol
_atom_site_label
_atom_site_fract_x
_atom_site_fract_y
_atom_site_fract_z
Si Si1 0.892751 0.221960 0.333431
Si Si2 0.234213 0.477382 0.939156
Si Si3 0.604701 0.040610 0.733704
Si Si4 0.369318 0.610640 0.635615
Si Si5 0.449476 0.637793 0.440652
Si Si6 0.778565 0.607554 0.673652
Si Si7 0.105679 0.225625 0.188866
O O1 0.903880 0.213926 0.402758
O O2 0.836146 0.305808 0.315132
O O3 0.831658 0.137150 0.317081
O O4 0.998311 0.235303 0.310321
O O5 0.206896 0.561011 0.902311
O O6 0.134412 0.429144 0.952696
O O7 0.287602 0.417187 0.893711
O O8 0.280536 0.500000 0.000000
O O9 0.626828 0.071843 0.799375
O O10 0.605426 0.123324 0.690757
O O11 0.500000 0.000000 0.734091
O O12 0.676869 0.970187 0.708943
O O13 0.470164 0.600467 0.602674
O O14 0.349844 0.712362 0.641057
O O15 0.500000 0.662192 0.500000
O O16 0.149606 0.250000 0.250000
#
# Coordination Sequence:
#
# PCOD9326145 Si02
#       7
#    16  16  16  16  16  16  16
#     4   9  19  39  57  88 127 155 200 253 314 367
#     4  11  21  36  57  85 122 158 198 255 312 360
#     4  11  20  37  63  88 122 164 205 247 302 379
#     4  10  21  35  58  92 121 153 204 253 310 366
#     4  10  18  33  63  91 116 151 202 260 311 360
#     4  10  22  38  59  87 127 163 200 252 312 375
#     4   9  19  37  61  87 120 160 202 252 298 365
#
# _framework density 22.034997000000001
#
# number of rings (size 3 to 8) (size 9 to 14) (size 15 to 20)
#    0.000    2.000    2.857    1.286    0.000    1.714 
#    2.571    4.286    3.143    2.571    0.000    0.000 
#    0.000    0.000    0.000    0.000    0.000    0.000 
#
# Total GULP energy -156355.480679 kJ/mol
# GULP energy per Si atom -5584.124310 kJ/mol
# Density = 2.198484 g / cm^3
# Si number density = 22.034997 Si / 1000 Ang^3
#
#
#
# Elastic Constant Matrix: (Units=GPa)
#
#
# Indices 1 2 3 4 5 6 
#
# 1 91.3563 32.5136 21.5051 0.0000 0.0000 0.0000
# 2 32.5136 130.3743 44.1617 0.0000 0.0000 0.0000
# 3 21.5051 44.1617 122.2569 0.0000 0.0000 0.0000
# 4 0.0000 0.0000 0.0000 31.5930 0.0000 0.0000
# 5 0.0000 0.0000 0.0000 0.0000 14.8825 0.0000
# 6 0.0000 0.0000 0.0000 0.0000 0.0000 22.1194
#
#
#
# Elastic Compliance Matrix: (Units=1/GPa)
#
#
# Indices 1 2 3 4 5 6 
#
# 1 0.012162 -0.002630 -0.001189 0.000000 0.000000 0.000000
# 2 -0.002630 0.009308 -0.002900 0.000000 0.000000 0.000000
# 3 -0.001189 -0.002900 0.009436 0.000000 0.000000 0.000000
# 4 0.000000 0.000000 0.000000 0.031653 0.000000 0.000000
# 5 0.000000 0.000000 0.000000 0.000000 0.067193 0.000000
# 6 0.000000 0.000000 0.000000 0.000000 0.000000 0.045209
#
#
# Mechanical properties :
#
#
# Convention : Reuss Voigt Hill
#
# Bulk Modulus (GPa) = 57.24660 60.03871 58.64265
# Shear Modulus (GPa) = 25.74362 30.10611 27.92487
#
# Velocity S-wave (km/s) = 3.42176 3.70034 3.56377
# Velocity P-wave (km/s) = 6.45349 6.75002 6.60342
#
# Compressibility (1/GPa) = 0.01746829
#
# Stress axis : x y z
#
# Youngs Moduli (GPa) = 82.22196 107.42990 105.97572
#
# Poissons Ratio (x) = 0.28257 0.12603
# Poissons Ratio (y) = 0.21626 0.30730
# Poissons Ratio (z) = 0.09778 0.31152
#
# Static dielectric constant tensor:
#      x y z
#    x 1.851840 0.000000 0.000000 
#    y 0.000000 1.861810 0.000000 
#    z 0.000000 0.000000 1.822150 
# 
# From -- ./inp_files/48963.got.cif
#   From: 2010.05.17/outbox.cif.g08.bks.cpg/sg22_25_cif.got.tgz:48963.got - 2010.06.03 23:40:54.
