data_PCOD9326060
_publ_section_title
;
Structure prediction by ZEFSAII (Michael W. Deem and Ramdas Pophale) SiO2 
 PCOD9326060
Probable space group: F 2 2 2
;
_chemical_formula_sum "Si O2"
_cell_formula_units_Z 72
_cell_length_a 18.036354
_cell_length_b 14.965474
_cell_length_c 10.792101
_cell_angle_alpha 90.000000
_cell_angle_beta 90.000000
_cell_angle_gamma 90.000000
_cell_volume 2913.031819
_symmetry_space_group_name_H-M "F 2 2 2"
_symmetry_group_IT_number 22
_symmetry_cell_setting 'orthorhombic'
loop_
_space_group_symop_operation_xyz
x,y,z
-x,-y,z
x,-y,-z
-x,y,-z
x,1/2+y,1/2+z
-x,1/2-y,1/2+z
x,1/2-y,1/2-z
-x,1/2+y,1/2-z
1/2+x,y,1/2+z
1/2-x,-y,1/2+z
1/2+x,-y,1/2-z
1/2-x,y,1/2-z
1/2+x,1/2+y,z
1/2-x,1/2-y,z
1/2+x,1/2-y,-z
1/2-x,1/2+y,-z
loop_
_atom_site_type_symbol
_atom_site_label
_atom_site_fract_x
_atom_site_fract_y
_atom_site_fract_z
Si Si1 0.727051 0.565972 0.395553
Si Si2 0.952793 0.250000 0.750000
Si Si3 0.080813 0.041157 0.661523
Si Si4 0.059569 0.623751 0.397882
Si Si5 0.365417 0.794189 0.996329
O O1 0.764645 0.500000 0.500000
O O2 0.750000 0.574160 0.250000
O O3 0.645087 0.524486 0.380925
O O4 0.713460 0.660787 0.463689
O O5 0.905374 0.214205 0.636191
O O6 0.005353 0.325753 0.697395
O O7 0.093490 0.049935 0.809647
O O8 0.095252 0.134993 0.589948
O O9 0.000000 0.000000 0.638669
O O10 0.119183 0.696035 0.446182
O O11 0.000000 0.595779 0.500000
#
# Coordination Sequence:
#
# PCOD9326060 Si02
#       5
#    16   8  16  16  16
#     4  10  24  45  69  93 134 187 238 287 348 420
#     4  10  18  30  59  96 133 156 212 280 330 400
#     4  11  22  38  69 104 135 177 231 283 358 419
#     4  10  20  34  58  98 145 167 208 282 347 402
#     4  10  21  38  63  92 133 183 221 272 342 415
#
# _framework density 24.716515000000001
#
# number of rings (size 3 to 8) (size 9 to 14) (size 15 to 20)
#    0.000    1.778    2.222    1.333    6.222    5.333 
#   12.000    0.556    4.889    1.333    0.000    0.000 
#    0.000    0.000    0.000    0.000    0.000    0.000 
#
# Total GULP energy -100500.132860 kJ/mol
# GULP energy per Si atom -5583.340714 kJ/mol
# Density = 2.466026 g / cm^3
# Si number density = 24.716515 Si / 1000 Ang^3
#
#
#
# Elastic Constant Matrix: (Units=GPa)
#
#
# Indices 1 2 3 4 5 6 
#
# 1 61.5523 26.9463 37.2502 0.0000 0.0000 0.0000
# 2 26.9463 98.1709 42.1065 0.0000 0.0000 0.0000
# 3 37.2502 42.1065 189.7570 0.0000 0.0000 0.0000
# 4 0.0000 0.0000 0.0000 34.9843 0.0000 0.0000
# 5 0.0000 0.0000 0.0000 0.0000 36.4361 0.0000
# 6 0.0000 0.0000 0.0000 0.0000 0.0000 19.5299
#
#
#
# Elastic Compliance Matrix: (Units=1/GPa)
#
#
# Indices 1 2 3 4 5 6 
#
# 1 0.019876 -0.004180 -0.002974 0.000000 0.000000 0.000000
# 2 -0.004180 0.012137 -0.001873 0.000000 0.000000 0.000000
# 3 -0.002974 -0.001873 0.006269 0.000000 0.000000 0.000000
# 4 0.000000 0.000000 0.000000 0.028584 0.000000 0.000000
# 5 0.000000 0.000000 0.000000 0.000000 0.027445 0.000000
# 6 0.000000 0.000000 0.000000 0.000000 0.000000 0.051203
#
#
# Mechanical properties :
#
#
# Convention : Reuss Voigt Hill
#
# Bulk Modulus (GPa) = 49.43487 62.45405 55.94446
# Shear Modulus (GPa) = 29.35789 34.40187 31.87988
#
# Velocity S-wave (km/s) = 3.45016 3.73481 3.59530
# Velocity P-wave (km/s) = 5.99297 6.62732 6.31811
#
# Compressibility (1/GPa) = 0.02022864
#
# Stress axis : x y z
#
# Youngs Moduli (GPa) = 50.31133 82.39385 159.50795
#
# Poissons Ratio (x) = 0.34441 0.47442
# Poissons Ratio (y) = 0.21030 0.29869
# Poissons Ratio (z) = 0.14964 0.15429
#
# Static dielectric constant tensor:
#      x y z
#    x 1.965970 0.000000 0.000000 
#    y 0.000000 2.333050 0.000000 
#    z 0.000000 0.000000 2.093130 
# 
# From -- ./inp_files/21107.got.cif
#   From: 2010.05.17/outbox.cif.g08.bks.cpg/sg22_11_cif.got.tgz:21107.got - 2010.06.03 23:40:54.
