data_PCOD9326359
_publ_section_title
;
Structure prediction by ZEFSAII (Michael W. Deem and Ramdas Pophale) SiO2 
 PCOD9326359
Probable space group: F 2 2 2
;
_chemical_formula_sum "Si O2"
_cell_formula_units_Z 104
_cell_length_a 18.959879
_cell_length_b 24.125373
_cell_length_c 13.623999
_cell_angle_alpha 90.000000
_cell_angle_beta 90.000000
_cell_angle_gamma 90.000000
_cell_volume 6231.809962
_symmetry_space_group_name_H-M "F 2 2 2"
_symmetry_group_IT_number 22
_symmetry_cell_setting 'orthorhombic'
loop_
_space_group_symop_operation_xyz
x,y,z
-x,-y,z
x,-y,-z
-x,y,-z
x,1/2+y,1/2+z
-x,1/2-y,1/2+z
x,1/2-y,1/2-z
-x,1/2+y,1/2-z
1/2+x,y,1/2+z
1/2-x,-y,1/2+z
1/2+x,-y,1/2-z
1/2-x,y,1/2-z
1/2+x,1/2+y,z
1/2-x,1/2-y,z
1/2+x,1/2-y,-z
1/2-x,1/2+y,-z
loop_
_atom_site_type_symbol
_atom_site_label
_atom_site_fract_x
_atom_site_fract_y
_atom_site_fract_z
Si Si1 0.427316 0.550458 0.439295
Si Si2 0.615639 0.751445 0.547558
Si Si3 0.836899 0.363422 0.350739
Si Si4 0.511906 0.401984 0.115361
Si Si5 0.819824 0.142622 0.380896
Si Si6 0.000000 0.000000 0.253781
Si Si7 0.969745 0.226714 0.856017
O O1 0.393903 0.500000 0.500000
O O2 0.500000 0.563327 0.500000
O O3 0.376744 0.601923 0.427940
O O4 0.445568 0.527304 0.331142
O O5 0.647635 0.807898 0.588723
O O6 0.668614 0.701447 0.567065
O O7 0.589391 0.759580 0.436568
O O8 0.542666 0.744039 0.609004
O O9 0.903594 0.402874 0.367844
O O10 0.835103 0.349851 0.235008
O O11 0.759176 0.381626 0.383973
O O12 0.477665 0.449385 0.183060
O O13 0.485450 0.339603 0.141830
O O14 0.500000 0.410588 0.000000
O O15 0.951420 0.250000 0.750000
#
# Coordination Sequence:
#
# PCOD9326359 Si02
#       7
#    16  16  16  16  16   8  16
#     4   9  21  37  54  84 110 138 189 232 273 324
#     4  10  19  33  51  85 115 141 180 224 285 334
#     4  10  20  35  55  85 114 143 177 228 279 331
#     4  11  19  37  54  80 113 140 193 229 275 323
#     4  11  20  33  61  81 114 146 179 225 286 335
#     4  10  20  34  58  76 106 148 182 232 264 326
#     4  10  20  31  53  83 114 143 178 238 276 328
#
# _framework density 16.688569999999999
#
# number of rings (size 3 to 8) (size 9 to 14) (size 15 to 20)
#    0.000    2.000    4.615    3.000    2.154    2.462 
#    0.000    1.538    0.000    1.846    0.000    0.000 
#    0.000    0.000    0.000    0.000    0.000    0.000 
#
# Total GULP energy -144864.047774 kJ/mol
# GULP energy per Si atom -5571.694145 kJ/mol
# Density = 1.665059 g / cm^3
# Si number density = 16.688570 Si / 1000 Ang^3
#
#
#
# Elastic Constant Matrix: (Units=GPa)
#
#
# Indices 1 2 3 4 5 6 
#
# 1 68.6397 14.2382 34.2972 0.0000 0.0000 0.0000
# 2 14.2382 44.6497 33.8184 0.0000 0.0000 0.0000
# 3 34.2972 33.8184 120.7056 0.0000 0.0000 0.0000
# 4 0.0000 0.0000 0.0000 25.1783 0.0000 0.0000
# 5 0.0000 0.0000 0.0000 0.0000 20.0479 0.0000
# 6 0.0000 0.0000 0.0000 0.0000 0.0000 9.3579
#
#
#
# Elastic Compliance Matrix: (Units=1/GPa)
#
#
# Indices 1 2 3 4 5 6 
#
# 1 0.017157 -0.002258 -0.004242 0.000000 0.000000 0.000000
# 2 -0.002258 0.028727 -0.007407 0.000000 0.000000 0.000000
# 3 -0.004242 -0.007407 0.011565 0.000000 0.000000 0.000000
# 4 0.000000 0.000000 0.000000 0.039717 0.000000 0.000000
# 5 0.000000 0.000000 0.000000 0.000000 0.049880 0.000000
# 6 0.000000 0.000000 0.000000 0.000000 0.000000 0.106861
#
#
# Mechanical properties :
#
#
# Convention : Reuss Voigt Hill
#
# Bulk Modulus (GPa) = 33.74432 44.30028 39.02230
# Shear Modulus (GPa) = 17.14678 21.02624 19.08651
#
# Velocity S-wave (km/s) = 3.20887 3.55338 3.38551
# Velocity P-wave (km/s) = 5.83036 6.59077 6.22219
#
# Compressibility (1/GPa) = 0.02963462
#
# Stress axis : x y z
#
# Youngs Moduli (GPa) = 58.28536 34.81088 86.46595
#
# Poissons Ratio (x) = 0.07860 0.36682
# Poissons Ratio (y) = 0.13160 0.64044
# Poissons Ratio (z) = 0.24727 0.25784
#
# Static dielectric constant tensor:
#      x y z
#    x 1.606010 0.000000 0.000000 
#    y 0.000000 1.562980 0.000000 
#    z 0.000000 0.000000 1.556470 
# 
# From -- ./inp_files/30888.got.cif
#   From: 2010.05.17/outbox.cif.g08.bks.cpg/sg22_16_cif.got.tgz:30888.got - 2010.06.03 23:40:54.
