data_PCOD9326468
_publ_section_title
;
Structure prediction by ZEFSAII (Michael W. Deem and Ramdas Pophale) SiO2 
 PCOD9326468
Probable space group: F 2 2 2
;
_chemical_formula_sum "Si O2"
_cell_formula_units_Z 80
_cell_length_a 15.768649
_cell_length_b 26.331587
_cell_length_c 8.722687
_cell_angle_alpha 90.000000
_cell_angle_beta 90.000000
_cell_angle_gamma 90.000000
_cell_volume 3621.777861
_symmetry_space_group_name_H-M "F 2 2 2"
_symmetry_group_IT_number 22
_symmetry_cell_setting 'orthorhombic'
loop_
_space_group_symop_operation_xyz
x,y,z
-x,-y,z
x,-y,-z
-x,y,-z
x,1/2+y,1/2+z
-x,1/2-y,1/2+z
x,1/2-y,1/2-z
-x,1/2+y,1/2-z
1/2+x,y,1/2+z
1/2-x,-y,1/2+z
1/2+x,-y,1/2-z
1/2-x,y,1/2-z
1/2+x,1/2+y,z
1/2-x,1/2-y,z
1/2+x,1/2-y,-z
1/2-x,1/2+y,-z
loop_
_atom_site_type_symbol
_atom_site_label
_atom_site_fract_x
_atom_site_fract_y
_atom_site_fract_z
Si Si1 0.353173 0.648520 0.417466
Si Si2 0.090938 0.951282 0.577672
Si Si3 0.348460 0.856075 0.424172
Si Si4 0.145797 0.751715 0.927165
Si Si5 0.329763 0.955936 0.626496
O O1 0.368445 0.602405 0.533784
O O2 0.385009 0.635337 0.246422
O O3 0.252070 0.653579 0.405947
O O4 0.385279 0.702112 0.481653
O O5 0.092402 0.962514 0.756577
O O6 0.000000 0.948309 0.500000
O O7 0.135257 0.000000 0.500000
O O8 0.383053 0.804351 0.497316
O O9 0.349065 0.904250 0.535343
O O10 0.120443 0.750000 0.750000
O O11 0.250000 0.750000 0.929300
O O12 0.250000 0.953602 0.750000
O O13 0.321555 0.000000 0.500000
#
# Coordination Sequence:
#
# PCOD9326468 Si02
#       5
#    16  16  16  16  16
#     4  10  19  35  57  86 126 162 210 262 322 380
#     4  11  24  43  62  86 127 174 215 264 327 396
#     4  10  20  32  58  91 123 158 203 272 327 375
#     4   9  17  29  52  85 122 159 201 258 322 377
#     4  12  24  38  65  97 129 166 222 281 336 390
#
# _framework density 22.088598000000001
#
# number of rings (size 3 to 8) (size 9 to 14) (size 15 to 20)
#    0.000    1.600    2.000    3.600    5.600    2.400 
#    0.000    7.000    0.000    7.200    0.000    0.000 
#    0.000    0.000    0.000    0.000    0.000    0.000 
#
# Total GULP energy -111597.427819 kJ/mol
# GULP energy per Si atom -5579.871391 kJ/mol
# Density = 2.203832 g / cm^3
# Si number density = 22.088598 Si / 1000 Ang^3
#
#
#
# Elastic Constant Matrix: (Units=GPa)
#
#
# Indices 1 2 3 4 5 6 
#
# 1 34.2208 4.6419 22.8160 0.0000 0.0000 0.0000
# 2 4.6419 199.4613 94.4360 0.0000 0.0000 0.0000
# 3 22.8160 94.4360 195.2339 0.0000 0.0000 0.0000
# 4 0.0000 0.0000 0.0000 30.4440 0.0000 0.0000
# 5 0.0000 0.0000 0.0000 0.0000 14.6032 0.0000
# 6 0.0000 0.0000 0.0000 0.0000 0.0000 15.4104
#
#
#
# Elastic Compliance Matrix: (Units=1/GPa)
#
#
# Indices 1 2 3 4 5 6 
#
# 1 0.031961 0.001329 -0.004378 0.000000 0.000000 0.000000
# 2 0.001329 0.006558 -0.003327 0.000000 0.000000 0.000000
# 3 -0.004378 -0.003327 0.007243 0.000000 0.000000 0.000000
# 4 0.000000 0.000000 0.000000 0.032847 0.000000 0.000000
# 5 0.000000 0.000000 0.000000 0.000000 0.068478 0.000000
# 6 0.000000 0.000000 0.000000 0.000000 0.000000 0.064891
#
#
# Mechanical properties :
#
#
# Convention : Reuss Voigt Hill
#
# Bulk Modulus (GPa) = 30.29482 74.74487 52.51984
# Shear Modulus (GPa) = 21.21035 32.55965 26.88500
#
# Velocity S-wave (km/s) = 3.10214 3.84350 3.49254
# Velocity P-wave (km/s) = 5.15518 7.32180 6.33185
#
# Compressibility (1/GPa) = 0.03300895
#
# Stress axis : x y z
#
# Youngs Moduli (GPa) = 31.28856 152.48607 138.06067
#
# Poissons Ratio (x) = -0.20264 0.60441
# Poissons Ratio (y) = -0.04158 0.45939
# Poissons Ratio (z) = 0.13698 0.50739
#
# Static dielectric constant tensor:
#      x y z
#    x 1.916870 0.000000 0.000000 
#    y 0.000000 1.822820 0.000000 
#    z 0.000000 0.000000 1.835790 
# 
# From -- ./inp_files/11643.got.cif
#   From: 2010.05.17/outbox.cif.g08.bks.cpg/sg22_6_cif.got.tgz:11643.got - 2010.06.03 23:40:54.
