data_PCOD9326159
_publ_section_title
;
Structure prediction by ZEFSAII (Michael W. Deem and Ramdas Pophale) SiO2 
 PCOD9326159
Probable space group: F 2 2 2
;
_chemical_formula_sum "Si O2"
_cell_formula_units_Z 88
_cell_length_a 20.803445
_cell_length_b 12.939641
_cell_length_c 14.991552
_cell_angle_alpha 90.000000
_cell_angle_beta 90.000000
_cell_angle_gamma 90.000000
_cell_volume 4035.562538
_symmetry_space_group_name_H-M "F 2 2 2"
_symmetry_group_IT_number 22
_symmetry_cell_setting 'orthorhombic'
loop_
_space_group_symop_operation_xyz
x,y,z
-x,-y,z
x,-y,-z
-x,y,-z
x,1/2+y,1/2+z
-x,1/2-y,1/2+z
x,1/2-y,1/2-z
-x,1/2+y,1/2-z
1/2+x,y,1/2+z
1/2-x,-y,1/2+z
1/2+x,-y,1/2-z
1/2-x,y,1/2-z
1/2+x,1/2+y,z
1/2-x,1/2-y,z
1/2+x,1/2-y,-z
1/2-x,1/2+y,-z
loop_
_atom_site_type_symbol
_atom_site_label
_atom_site_fract_x
_atom_site_fract_y
_atom_site_fract_z
Si Si1 0.250000 0.456923 0.250000
Si Si2 0.046121 0.721419 0.083227
Si Si3 0.643695 0.357942 0.854964
Si Si4 0.419559 0.840610 0.841056
Si Si5 0.375343 0.442896 0.669977
Si Si6 0.569718 0.948673 0.632358
O O1 0.284997 0.383574 0.177662
O O2 0.302593 0.525630 0.302688
O O3 0.107655 0.652510 0.106704
O O4 0.064747 0.841203 0.080912
O O5 0.992459 0.696572 0.158303
O O6 0.000000 0.694352 0.000000
O O7 0.624490 0.245585 0.890909
O O8 0.605301 0.353546 0.760280
O O9 0.616471 0.459941 0.901919
O O10 0.408508 0.956521 0.874898
O O11 0.407153 0.423189 0.767184
O O12 0.500000 0.000000 0.634402
#
# Coordination Sequence:
#
# PCOD9326159 Si02
#       6
#     8  16  16  16  16  16
#     4   8  18  35  57  96 114 154 201 261 304 356
#     4  12  24  35  52  86 128 161 196 247 319 387
#     4   9  17  32  57  88 111 142 199 256 301 351
#     4   9  18  32  53  84 117 148 189 251 315 357
#     4  10  21  34  59  89 117 155 199 253 311 364
#     4  10  18  34  57  81 114 147 199 257 305 354
#
# _framework density 21.80613
#
# number of rings (size 3 to 8) (size 9 to 14) (size 15 to 20)
#    0.000    2.545    1.818    3.273    2.545    7.636 
#    0.000    7.273    0.000    0.000   56.727    0.000 
#    0.000    0.000    0.000    0.000    0.000    0.000 
#
# Total GULP energy -122613.569344 kJ/mol
# GULP energy per Si atom -5573.344061 kJ/mol
# Density = 2.175650 g / cm^3
# Si number density = 21.806130 Si / 1000 Ang^3
#
#
#
# Elastic Constant Matrix: (Units=GPa)
#
#
# Indices 1 2 3 4 5 6 
#
# 1 87.8164 27.3961 0.9261 0.0000 0.0000 0.0000
# 2 27.3961 100.2793 16.1067 0.0000 0.0000 0.0000
# 3 0.9261 16.1067 48.6038 0.0000 0.0000 0.0000
# 4 0.0000 0.0000 0.0000 18.6026 0.0000 0.0000
# 5 0.0000 0.0000 0.0000 0.0000 5.5310 0.0000
# 6 0.0000 0.0000 0.0000 0.0000 0.0000 21.6360
#
#
#
# Elastic Compliance Matrix: (Units=1/GPa)
#
#
# Indices 1 2 3 4 5 6 
#
# 1 0.012489 -0.003563 0.000943 0.000000 0.000000 0.000000
# 2 -0.003563 0.011550 -0.003759 0.000000 0.000000 0.000000
# 3 0.000943 -0.003759 0.021802 0.000000 0.000000 0.000000
# 4 0.000000 0.000000 0.000000 0.053756 0.000000 0.000000
# 5 0.000000 0.000000 0.000000 0.000000 0.180800 0.000000
# 6 0.000000 0.000000 0.000000 0.000000 0.000000 0.046219
#
#
# Mechanical properties :
#
#
# Convention : Reuss Voigt Hill
#
# Bulk Modulus (GPa) = 30.22880 36.17304 33.20092
# Shear Modulus (GPa) = 14.26926 21.97193 18.12060
#
# Velocity S-wave (km/s) = 2.56084 3.17772 2.88581
# Velocity P-wave (km/s) = 4.75778 5.48529 5.13443
#
# Compressibility (1/GPa) = 0.03308104
#
# Stress axis : x y z
#
# Youngs Moduli (GPa) = 80.06950 86.58365 45.86649
#
# Poissons Ratio (x) = 0.30854 -0.04325
# Poissons Ratio (y) = 0.28532 0.17243
# Poissons Ratio (z) = -0.07550 0.32551
#
# Static dielectric constant tensor:
#      x y z
#    x 1.815300 0.000000 0.000000 
#    y 0.000000 1.948300 0.000000 
#    z 0.000000 0.000000 1.935630 
# 
# From -- ./inp_files/38795.got.cif
#   From: 2010.05.17/outbox.cif.g08.bks.cpg/sg22_20_cif.got.tgz:38795.got - 2010.06.03 23:40:54.
