data_PCOD9326481
_publ_section_title
;
Structure prediction by ZEFSAII (Michael W. Deem and Ramdas Pophale) SiO2 
 PCOD9326481
Probable space group: F 2 2 2
;
_chemical_formula_sum "Si O2"
_cell_formula_units_Z 100
_cell_length_a 9.113753
_cell_length_b 22.183531
_cell_length_c 26.650504
_cell_angle_alpha 90.000000
_cell_angle_beta 90.000000
_cell_angle_gamma 90.000000
_cell_volume 5388.071568
_symmetry_space_group_name_H-M "F 2 2 2"
_symmetry_group_IT_number 22
_symmetry_cell_setting 'orthorhombic'
loop_
_space_group_symop_operation_xyz
x,y,z
-x,-y,z
x,-y,-z
-x,y,-z
x,1/2+y,1/2+z
-x,1/2-y,1/2+z
x,1/2-y,1/2-z
-x,1/2+y,1/2-z
1/2+x,y,1/2+z
1/2-x,-y,1/2+z
1/2+x,-y,1/2-z
1/2-x,y,1/2-z
1/2+x,1/2+y,z
1/2-x,1/2-y,z
1/2+x,1/2-y,-z
1/2-x,1/2+y,-z
loop_
_atom_site_type_symbol
_atom_site_label
_atom_site_fract_x
_atom_site_fract_y
_atom_site_fract_z
Si Si1 0.188139 0.446047 0.605845
Si Si2 0.853411 0.417028 0.586495
Si Si3 0.505874 0.336681 0.737286
Si Si4 0.372121 0.454215 0.784840
Si Si5 0.750000 0.750000 0.750000
Si Si6 0.164451 0.927166 0.491781
Si Si7 0.719081 0.817544 0.330926
O O1 0.211688 0.518485 0.604664
O O2 0.194335 0.428146 0.663809
O O3 0.295290 0.416447 0.565940
O O4 0.026626 0.430366 0.584708
O O5 0.779103 0.403047 0.532974
O O6 0.825847 0.364759 0.626658
O O7 0.442296 0.401244 0.752364
O O8 0.366829 0.294693 0.723440
O O9 0.593828 0.314053 0.787386
O O10 0.630751 0.339335 0.695430
O O11 0.500000 0.500000 0.800068
O O12 0.250000 0.484885 0.750000
O O13 0.000000 0.905601 0.500000
O O14 0.168471 0.000000 0.500000
O O15 0.750000 0.750000 0.349712
#
# Coordination Sequence:
#
# PCOD9326481 Si02
#       7
#    16  16  16  16   4  16  16
#     4  10  19  37  56  84 118 157 194 236 303 363
#     4  10  19  35  60  84 114 152 197 244 297 363
#     4  11  22  38  57  81 122 164 208 250 287 357
#     4  12  25  37  54  89 129 166 193 240 306 368
#     4  12  20  42  56  80 112 158 228 250 284 334
#     4   9  19  35  57  86 114 146 196 248 292 354
#     4  11  21  37  60  86 115 160 207 251 295 345
#
# _framework density 18.559517
#
# number of rings (size 3 to 8) (size 9 to 14) (size 15 to 20)
#    0.000    1.440    5.600    0.960    4.480    3.200 
#    2.880    0.000    0.000    1.920    2.080    0.000 
#    0.000    0.000    0.000    0.000    0.000    0.000 
#
# Total GULP energy -139415.208840 kJ/mol
# GULP energy per Si atom -5576.608354 kJ/mol
# Density = 1.851727 g / cm^3
# Si number density = 18.559517 Si / 1000 Ang^3
#
#
#
# Elastic Constant Matrix: (Units=GPa)
#
#
# Indices 1 2 3 4 5 6 
#
# 1 84.2982 12.0964 55.3328 0.0000 0.0000 0.0000
# 2 12.0964 67.5651 22.6867 0.0000 0.0000 0.0000
# 3 55.3328 22.6867 106.5398 0.0000 0.0000 0.0000
# 4 0.0000 0.0000 0.0000 11.0881 0.0000 0.0000
# 5 0.0000 0.0000 0.0000 0.0000 27.7278 0.0000
# 6 0.0000 0.0000 0.0000 0.0000 0.0000 19.6896
#
#
#
# Elastic Compliance Matrix: (Units=1/GPa)
#
#
# Indices 1 2 3 4 5 6 
#
# 1 0.017999 -0.000090 -0.009329 0.000000 0.000000 0.000000
# 2 -0.000090 0.015941 -0.003348 0.000000 0.000000 0.000000
# 3 -0.009329 -0.003348 0.014944 0.000000 0.000000 0.000000
# 4 0.000000 0.000000 0.000000 0.090187 0.000000 0.000000
# 5 0.000000 0.000000 0.000000 0.000000 0.036065 0.000000
# 6 0.000000 0.000000 0.000000 0.000000 0.000000 0.050788
#
#
# Mechanical properties :
#
#
# Convention : Reuss Voigt Hill
#
# Bulk Modulus (GPa) = 42.82526 48.73720 45.78123
# Shear Modulus (GPa) = 19.28715 22.92026 21.10371
#
# Velocity S-wave (km/s) = 3.22717 3.51801 3.37572
# Velocity P-wave (km/s) = 6.08365 6.54361 6.31782
#
# Compressibility (1/GPa) = 0.02335071
#
# Stress axis : x y z
#
# Youngs Moduli (GPa) = 55.55890 62.73239 66.91633
#
# Poissons Ratio (x) = 0.00565 0.62425
# Poissons Ratio (y) = 0.00500 0.22401
# Poissons Ratio (z) = 0.51830 0.21001
#
# Static dielectric constant tensor:
#      x y z
#    x 1.667130 0.000000 0.000000 
#    y 0.000000 1.643860 0.000000 
#    z 0.000000 0.000000 1.636500 
# 
# From -- ./inp_files/51966.got.cif
#   From: 2010.05.17/outbox.cif.g08.bks.cpg/sg22_26_cif.got.tgz:51966.got - 2010.06.03 23:40:54.
