data_PCOD9326327
_publ_section_title
;
Structure prediction by ZEFSAII (Michael W. Deem and Ramdas Pophale) SiO2 
 PCOD9326327
Probable space group: F 2 2 2
;
_chemical_formula_sum "Si O2"
_cell_formula_units_Z 80
_cell_length_a 29.600372
_cell_length_b 18.059018
_cell_length_c 7.019694
_cell_angle_alpha 90.000000
_cell_angle_beta 90.000000
_cell_angle_gamma 90.000000
_cell_volume 3752.403055
_symmetry_space_group_name_H-M "F 2 2 2"
_symmetry_group_IT_number 22
_symmetry_cell_setting 'orthorhombic'
loop_
_space_group_symop_operation_xyz
x,y,z
-x,-y,z
x,-y,-z
-x,y,-z
x,1/2+y,1/2+z
-x,1/2-y,1/2+z
x,1/2-y,1/2-z
-x,1/2+y,1/2-z
1/2+x,y,1/2+z
1/2-x,-y,1/2+z
1/2+x,-y,1/2-z
1/2-x,y,1/2-z
1/2+x,1/2+y,z
1/2-x,1/2-y,z
1/2+x,1/2-y,-z
1/2-x,1/2+y,-z
loop_
_atom_site_type_symbol
_atom_site_label
_atom_site_fract_x
_atom_site_fract_y
_atom_site_fract_z
Si Si1 0.000000 0.629267 0.000000
Si Si2 0.386518 0.800647 0.493504
Si Si3 0.500000 0.500000 0.000000
Si Si4 0.925517 0.925218 0.261505
Si Si5 0.467763 0.250000 0.750000
Si Si6 0.750000 0.250000 0.250000
Si Si7 0.642678 0.500000 0.500000
Si Si8 0.833003 0.837627 0.604721
O O1 0.003967 0.681120 0.182889
O O2 0.952310 0.590536 0.039032
O O3 0.398450 0.859368 0.656402
O O4 0.435221 0.774133 0.419498
O O5 0.359573 0.834927 0.309903
O O6 0.359248 0.723717 0.523978
O O7 0.465964 0.546692 0.870743
O O8 0.888717 0.986463 0.315326
O O9 0.783507 0.196722 0.366561
O O10 0.667328 0.578694 0.529345
#
# Coordination Sequence:
#
# PCOD9326327 Si02
#       8
#     8  16   4  16   8   4   8  16
#     4  12  22  32  50  75 114 159 204 262 302 326
#     4   9  19  38  61  79 111 161 208 243 297 365
#     4  12  24  36  56  84 120 168 216 278 312 312
#     4  12  23  38  55  83 123 167 214 259 301 351
#     4  10  19  32  50  79 104 146 210 259 294 340
#     4   8  18  44  72  90 120 146 184 230 300 384
#     4  12  24  37  58  91 126 158 200 247 304 365
#     4   9  20  40  67  93 116 153 191 243 305 369
#
# _framework density 21.319672000000001
#
# number of rings (size 3 to 8) (size 9 to 14) (size 15 to 20)
#    0.000    2.000    0.000    7.200    0.000    2.400 
#    0.000    4.000    0.000    4.800    0.000    0.000 
#    0.000    0.000    0.000    0.000    0.000    0.000 
#
# Total GULP energy -111573.199300 kJ/mol
# GULP energy per Si atom -5578.659965 kJ/mol
# Density = 2.127115 g / cm^3
# Si number density = 21.319672 Si / 1000 Ang^3
#
#
#
# Elastic Constant Matrix: (Units=GPa)
#
#
# Indices 1 2 3 4 5 6 
#
# 1 108.8411 73.1218 34.9564 0.0000 0.0000 0.0000
# 2 73.1218 180.6798 52.2010 0.0000 0.0000 0.0000
# 3 34.9564 52.2010 63.2444 -0.0001 0.0000 0.0000
# 4 0.0000 0.0000 -0.0001 44.9208 0.0000 0.0000
# 5 0.0000 0.0000 0.0000 0.0000 13.9769 0.0000
# 6 0.0000 0.0000 0.0000 0.0000 0.0000 49.0511
#
#
#
# Elastic Compliance Matrix: (Units=1/GPa)
#
#
# Indices 1 2 3 4 5 6 
#
# 1 0.013284 -0.004274 -0.003815 0.000000 0.000000 0.000000
# 2 -0.004274 0.008643 -0.004771 0.000000 0.000000 0.000000
# 3 -0.003815 -0.004771 0.021858 0.000000 0.000000 0.000000
# 4 0.000000 0.000000 0.000000 0.022261 0.000000 0.000000
# 5 0.000000 0.000000 0.000000 0.000000 0.071546 0.000000
# 6 0.000000 0.000000 0.000000 0.000000 0.000000 0.020387
#
#
# Mechanical properties :
#
#
# Convention : Reuss Voigt Hill
#
# Bulk Modulus (GPa) = 55.35497 74.81373 65.08435
# Shear Modulus (GPa) = 26.35430 34.42219 30.38825
#
# Velocity S-wave (km/s) = 3.51971 4.02254 3.77949
# Velocity P-wave (km/s) = 6.52215 7.53273 7.04558
#
# Compressibility (1/GPa) = 0.01806523
#
# Stress axis : x y z
#
# Youngs Moduli (GPa) = 75.27689 115.70197 45.74913
#
# Poissons Ratio (x) = 0.49452 0.17452
# Poissons Ratio (y) = 0.32174 0.21829
# Poissons Ratio (z) = 0.28716 0.55205
#
# Static dielectric constant tensor:
#      x y z
#    x 1.757380 0.000000 0.000000 
#    y 0.000000 1.855680 0.000000 
#    z 0.000000 0.000000 1.895440 
# 
# From -- ./inp_files/15523.got.cif
#   From: 2010.05.17/outbox.cif.g08.bks.cpg/sg22_8_cif.got.tgz:15523.got - 2010.06.03 23:40:54.
