data_PCOD9326429
_publ_section_title
;
Structure prediction by ZEFSAII (Michael W. Deem and Ramdas Pophale) SiO2 
 PCOD9326429
Probable space group: F 2 2 2
;
_chemical_formula_sum "Si O2"
_cell_formula_units_Z 80
_cell_length_a 24.375692
_cell_length_b 8.015848
_cell_length_c 17.643435
_cell_angle_alpha 90.000000
_cell_angle_beta 90.000000
_cell_angle_gamma 90.000000
_cell_volume 3447.383263
_symmetry_space_group_name_H-M "F 2 2 2"
_symmetry_group_IT_number 22
_symmetry_cell_setting 'orthorhombic'
loop_
_space_group_symop_operation_xyz
x,y,z
-x,-y,z
x,-y,-z
-x,y,-z
x,1/2+y,1/2+z
-x,1/2-y,1/2+z
x,1/2-y,1/2-z
-x,1/2+y,1/2-z
1/2+x,y,1/2+z
1/2-x,-y,1/2+z
1/2+x,-y,1/2-z
1/2-x,y,1/2-z
1/2+x,1/2+y,z
1/2-x,1/2-y,z
1/2+x,1/2-y,-z
1/2-x,1/2+y,-z
loop_
_atom_site_type_symbol
_atom_site_label
_atom_site_fract_x
_atom_site_fract_y
_atom_site_fract_z
Si Si1 0.684366 0.946012 0.912984
Si Si2 0.921169 0.560473 0.354169
Si Si3 0.309764 0.455709 0.913479
Si Si4 0.591886 0.422128 0.299486
Si Si5 0.512662 0.241755 0.086113
O O1 0.684506 0.744033 0.908158
O O2 0.746792 0.003598 0.898211
O O3 0.643790 0.993762 0.845076
O O4 0.669816 0.000000 0.000000
O O5 0.856384 0.546639 0.365728
O O6 0.932266 0.535103 0.266114
O O7 0.953039 0.721712 0.380167
O O8 0.949737 0.410486 0.403199
O O9 0.321353 0.500000 0.000000
O O10 0.604831 0.250000 0.250000
O O11 0.548154 0.381992 0.364149
O O12 0.500000 0.200054 0.000000
#
# Coordination Sequence:
#
# PCOD9326429 Si02
#       5
#    16  16  16  16  16
#     4  10  21  37  58  92 128 157 197 258 317 362
#     4  10  19  34  60  82 116 150 210 255 292 354
#     4  10  19  35  64  91 119 162 209 253 297 370
#     4  10  20  38  57  86 124 155 201 261 308 364
#     4  10  19  34  59  82 110 157 210 254 286 364
#
# _framework density 23.206005000000001
#
# number of rings (size 3 to 8) (size 9 to 14) (size 15 to 20)
#    0.000    2.000    4.000    2.400    0.000    0.800 
#    0.000   10.000    0.000    0.000    0.000    5.600 
#    0.000    0.000    0.000    0.000    0.000    0.000 
#
# Total GULP energy -111813.756038 kJ/mol
# GULP energy per Si atom -5590.687802 kJ/mol
# Density = 2.315319 g / cm^3
# Si number density = 23.206005 Si / 1000 Ang^3
#
#
#
# Elastic Constant Matrix: (Units=GPa)
#
#
# Indices 1 2 3 4 5 6 
#
# 1 120.6410 23.2212 88.1914 0.0000 0.0000 0.0000
# 2 23.2212 43.1572 26.8135 0.0000 0.0000 0.0000
# 3 88.1914 26.8135 197.7598 0.0000 0.0000 0.0000
# 4 0.0000 0.0000 0.0000 14.5224 0.0000 0.0000
# 5 0.0000 0.0000 0.0000 0.0000 99.1260 0.0000
# 6 0.0000 0.0000 0.0000 0.0000 0.0000 26.5882
#
#
#
# Elastic Compliance Matrix: (Units=1/GPa)
#
#
# Indices 1 2 3 4 5 6 
#
# 1 0.012804 -0.003649 -0.005215 0.000000 0.000000 0.000000
# 2 -0.003649 0.026343 -0.001944 0.000000 0.000000 0.000000
# 3 -0.005215 -0.001944 0.007646 0.000000 0.000000 0.000000
# 4 0.000000 0.000000 0.000000 0.068859 0.000000 0.000000
# 5 0.000000 0.000000 0.000000 0.000000 0.010088 0.000000
# 6 0.000000 0.000000 0.000000 0.000000 0.000000 0.037611
#
#
# Mechanical properties :
#
#
# Convention : Reuss Voigt Hill
#
# Bulk Modulus (GPa) = 39.72163 70.89002 55.30583
# Shear Modulus (GPa) = 25.85862 42.93613 34.39737
#
# Velocity S-wave (km/s) = 3.34175 4.30608 3.85419
# Velocity P-wave (km/s) = 5.66072 7.43892 6.60989
#
# Compressibility (1/GPa) = 0.02517520
#
# Stress axis : x y z
#
# Youngs Moduli (GPa) = 78.10171 37.96134 130.78797
#
# Poissons Ratio (x) = 0.13852 0.68208
# Poissons Ratio (y) = 0.28500 0.25430
# Poissons Ratio (z) = 0.40731 0.07381
#
# Static dielectric constant tensor:
#      x y z
#    x 1.880950 0.000000 0.000000 
#    y 0.000000 1.952510 0.000000 
#    z 0.000000 0.000000 1.815800 
# 
# From -- ./inp_files/24479.got.cif
#   From: 2010.05.17/outbox.cif.g08.bks.cpg/sg22_13_cif.got.tgz:24479.got - 2010.06.03 23:40:54.
