data_PCOD9326713
_publ_section_title
;
Structure prediction by ZEFSAII (Michael W. Deem and Ramdas Pophale) SiO2 
 PCOD9326713
Probable space group: F 2 2 2
;
_chemical_formula_sum "Si O2"
_cell_formula_units_Z 96
_cell_length_a 27.199988
_cell_length_b 8.675555
_cell_length_c 23.858379
_cell_angle_alpha 90.000000
_cell_angle_beta 90.000000
_cell_angle_gamma 90.000000
_cell_volume 5629.980791
_symmetry_space_group_name_H-M "F 2 2 2"
_symmetry_group_IT_number 22
_symmetry_cell_setting 'orthorhombic'
loop_
_space_group_symop_operation_xyz
x,y,z
-x,-y,z
x,-y,-z
-x,y,-z
x,1/2+y,1/2+z
-x,1/2-y,1/2+z
x,1/2-y,1/2-z
-x,1/2+y,1/2-z
1/2+x,y,1/2+z
1/2-x,-y,1/2+z
1/2+x,-y,1/2-z
1/2-x,y,1/2-z
1/2+x,1/2+y,z
1/2-x,1/2-y,z
1/2+x,1/2-y,-z
1/2-x,1/2+y,-z
loop_
_atom_site_type_symbol
_atom_site_label
_atom_site_fract_x
_atom_site_fract_y
_atom_site_fract_z
Si Si1 0.375239 0.947726 0.158056
Si Si2 0.552308 0.067778 0.061563
Si Si3 0.389408 0.082666 0.673176
Si Si4 0.054151 0.064227 0.937735
Si Si5 0.807804 0.065321 0.744890
Si Si6 0.452704 0.575503 0.736986
O O1 0.398367 0.967639 0.096899
O O2 0.384531 0.768234 0.173697
O O3 0.323247 0.997194 0.183752
O O4 0.408763 0.061588 0.194323
O O5 0.548196 0.251813 0.059219
O O6 0.500000 0.000000 0.083391
O O7 0.557875 0.000000 0.000000
O O8 0.404175 0.033125 0.609726
O O9 0.342023 0.012473 0.706218
O O10 0.435621 0.024122 0.709754
O O11 0.000000 0.000000 0.921819
O O12 0.065930 0.000000 0.000000
O O13 0.815564 0.250000 0.750000
O O14 0.750000 0.034640 0.750000
O O15 0.500000 0.500000 0.710999
O O16 0.462844 0.750000 0.750000
#
# Coordination Sequence:
#
# PCOD9326713 Si02
#       6
#    16  16  16  16  16  16
#     4  10  20  33  50  73  98 128 165 203 247 296
#     4  10  20  32  49  73 102 137 172 203 239 285
#     4  10  20  33  50  73  98 128 165 203 247 296
#     4  10  20  32  49  73 102 137 172 203 239 285
#     4  10  21  36  55  78 100 126 161 204 257 307
#     4  11  20  29  44  67  97 131 162 198 243 291
#
# _framework density 17.051566999999999
#
# number of rings (size 3 to 8) (size 9 to 14) (size 15 to 20)
#    0.000    1.833    0.000    8.000    0.000    9.333 
#    0.000    0.000    0.000    1.000    0.000    0.000 
#    0.000    0.000    0.000    0.000    0.000    0.000 
#
# Total GULP energy -133616.162929 kJ/mol
# GULP energy per Si atom -5567.340122 kJ/mol
# Density = 1.701276 g / cm^3
# Si number density = 17.051567 Si / 1000 Ang^3
#
#
#
# Elastic Constant Matrix: (Units=GPa)
#
#
# Indices 1 2 3 4 5 6 
#
# 1 97.6563 27.6289 48.7763 0.0000 0.0000 0.0000
# 2 27.6289 70.2017 31.8684 0.0000 0.0000 0.0000
# 3 48.7763 31.8684 108.6511 0.0000 0.0000 0.0000
# 4 0.0000 0.0000 0.0000 10.4299 0.0000 0.0000
# 5 0.0000 0.0000 0.0000 0.0000 -10.9787 0.0000
# 6 0.0000 0.0000 0.0000 0.0000 0.0000 21.8050
#
#
#
# Elastic Compliance Matrix: (Units=1/GPa)
#
#
# Indices 1 2 3 4 5 6 
#
# 1 0.013728 -0.003005 -0.005281 0.000000 0.000000 0.000000
# 2 -0.003005 0.017091 -0.003664 0.000000 0.000000 0.000000
# 3 -0.005281 -0.003664 0.012649 0.000000 0.000000 0.000000
# 4 0.000000 0.000000 0.000000 0.095878 0.000000 0.000000
# 5 0.000000 0.000000 0.000000 0.000000 -0.091086 0.000000
# 6 0.000000 0.000000 0.000000 0.000000 0.000000 0.045861
#
#
# Mechanical properties :
#
#
# Convention : Reuss Voigt Hill
#
# Bulk Modulus (GPa) = 51.10596 54.78404 52.94500
# Shear Modulus (GPa) = 40.14608 15.46694 27.80651
#
# Velocity S-wave (km/s) = 4.85747 3.01502 4.04261
# Velocity P-wave (km/s) = 7.84197 6.65723 7.27376
#
# Compressibility (1/GPa) = 0.01956719
#
# Stress axis : x y z
#
# Youngs Moduli (GPa) = 72.84280 58.51169 79.05564
#
# Poissons Ratio (x) = 0.17585 0.41753
# Poissons Ratio (y) = 0.21892 0.28963
# Poissons Ratio (z) = 0.38471 0.21436
#
# Static dielectric constant tensor:
#      x y z
#    x 1.900180 0.000000 0.000000 
#    y 0.000000 1.648060 0.000000 
#    z 0.000000 0.000000 1.631500 
# 
# From -- ./inp_files/50419.got.cif
#   From: 2010.05.17/outbox.cif.g08.bks.cpg/sg22_26_cif.got.tgz:50419.got - 2010.06.03 23:40:54.
