data_PCOD9326814
_publ_section_title
;
Structure prediction by ZEFSAII (Michael W. Deem and Ramdas Pophale) SiO2 
 PCOD9326814
Probable space group: F 2 2 2
;
_chemical_formula_sum "Si O2"
_cell_formula_units_Z 64
_cell_length_a 27.068446
_cell_length_b 14.225999
_cell_length_c 6.927577
_cell_angle_alpha 90.000000
_cell_angle_beta 90.000000
_cell_angle_gamma 90.000000
_cell_volume 2667.641464
_symmetry_space_group_name_H-M "F 2 2 2"
_symmetry_group_IT_number 22
_symmetry_cell_setting 'orthorhombic'
loop_
_space_group_symop_operation_xyz
x,y,z
-x,-y,z
x,-y,-z
-x,y,-z
x,1/2+y,1/2+z
-x,1/2-y,1/2+z
x,1/2-y,1/2-z
-x,1/2+y,1/2-z
1/2+x,y,1/2+z
1/2-x,-y,1/2+z
1/2+x,-y,1/2-z
1/2-x,y,1/2-z
1/2+x,1/2+y,z
1/2-x,1/2-y,z
1/2+x,1/2-y,-z
1/2-x,1/2+y,-z
loop_
_atom_site_type_symbol
_atom_site_label
_atom_site_fract_x
_atom_site_fract_y
_atom_site_fract_z
Si Si1 0.750000 0.750000 0.250000
Si Si2 0.933937 0.835182 0.363653
Si Si3 0.693240 0.107840 0.221566
Si Si4 0.326782 0.607246 0.739086
Si Si5 0.888815 0.250000 0.250000
Si Si6 0.500000 0.000000 0.000000
O O1 0.711236 0.677226 0.156530
O O2 0.959171 0.750000 0.250000
O O3 0.883395 0.861433 0.251356
O O4 0.919945 0.795362 0.575952
O O5 0.965601 0.929233 0.380379
O O6 0.750000 0.135283 0.250000
O O7 0.649684 0.169091 0.314364
O O8 0.684843 0.000276 0.284287
O O9 0.684486 0.115289 0.990911
#
# Coordination Sequence:
#
# PCOD9326814 Si02
#       6
#     4  16  16  16   8   4
#     4  12  20  36  60  94 140 186 222 268 340 430
#     4  11  25  49  76 103 142 188 239 311 377 427
#     4  10  20  35  57  93 137 184 229 284 344 413
#     4  10  22  38  60  94 138 184 232 287 346 427
#     4  10  23  42  71 102 138 183 240 293 366 444
#     4  12  28  52  82 106 148 182 252 332 362 444
#
# _framework density 23.991232
#
# number of rings (size 3 to 8) (size 9 to 14) (size 15 to 20)
#    0.000    1.500    2.500    3.375    8.750    0.000 
#    0.000    5.000    0.000    0.000    0.000    0.000 
#    0.000    0.000    0.000    0.000    0.000    0.000 
#
# Total GULP energy -89521.433865 kJ/mol
# GULP energy per Si atom -5595.089617 kJ/mol
# Density = 2.393663 g / cm^3
# Si number density = 23.991232 Si / 1000 Ang^3
#
#
#
# Elastic Constant Matrix: (Units=GPa)
#
#
# Indices 1 2 3 4 5 6 
#
# 1 126.0874 75.4327 32.2643 0.0000 0.0000 0.0000
# 2 75.4327 222.3437 24.1742 0.0000 0.0000 0.0000
# 3 32.2643 24.1742 105.2005 0.0000 0.0000 0.0000
# 4 0.0000 0.0000 0.0000 27.4624 0.0000 0.0000
# 5 0.0000 0.0000 0.0000 0.0000 -9.1679 0.0000
# 6 0.0000 0.0000 0.0000 0.0000 0.0000 63.3415
#
#
#
# Elastic Compliance Matrix: (Units=1/GPa)
#
#
# Indices 1 2 3 4 5 6 
#
# 1 0.010543 -0.003308 -0.002473 0.000000 0.000000 0.000000
# 2 -0.003308 0.005651 -0.000284 0.000000 0.000000 0.000000
# 3 -0.002473 -0.000284 0.010329 0.000000 0.000000 0.000000
# 4 0.000000 0.000000 0.000000 0.036413 0.000000 0.000000
# 5 0.000000 0.000000 0.000000 0.000000 -0.109076 0.000000
# 6 0.000000 0.000000 0.000000 0.000000 0.000000 0.015787
#
#
# Mechanical properties :
#
#
# Convention : Reuss Voigt Hill
#
# Bulk Modulus (GPa) = 69.47982 79.70822 74.59402
# Shear Modulus (GPa) = -372.46266 37.77788 -167.34239
#
# Velocity S-wave (km/s) = -12.47343 3.97250 -8.36080
# Velocity P-wave (km/s) = 13.35759 7.37136 7.87681
#
# Compressibility (1/GPa) = 0.01439267
#
# Stress axis : x y z
#
# Youngs Moduli (GPa) = 94.85090 176.97069 96.81048
#
# Poissons Ratio (x) = 0.58540 0.23944
# Poissons Ratio (y) = 0.31376 0.02749
# Poissons Ratio (z) = 0.23460 0.05025
#
# Static dielectric constant tensor:
#      x y z
#    x 1.894880 0.000000 0.000000 
#    y 0.000000 1.943020 0.000000 
#    z 0.000000 0.000000 2.045670 
# 
# From -- ./inp_files/13463.got.cif
#   From: 2010.05.17/outbox.cif.g08.bks.cpg/sg22_7_cif.got.tgz:13463.got - 2010.06.03 23:40:54.
