data_PCOD9326065
_publ_section_title
;
Structure prediction by ZEFSAII (Michael W. Deem and Ramdas Pophale) SiO2 
 PCOD9326065
Probable space group: F 2 2 2
;
_chemical_formula_sum "Si O2"
_cell_formula_units_Z 104
_cell_length_a 19.471889
_cell_length_b 14.263315
_cell_length_c 21.016837
_cell_angle_alpha 90.000000
_cell_angle_beta 90.000000
_cell_angle_gamma 90.000000
_cell_volume 5837.083618
_symmetry_space_group_name_H-M "F 2 2 2"
_symmetry_group_IT_number 22
_symmetry_cell_setting 'orthorhombic'
loop_
_space_group_symop_operation_xyz
x,y,z
-x,-y,z
x,-y,-z
-x,y,-z
x,1/2+y,1/2+z
-x,1/2-y,1/2+z
x,1/2-y,1/2-z
-x,1/2+y,1/2-z
1/2+x,y,1/2+z
1/2-x,-y,1/2+z
1/2+x,-y,1/2-z
1/2-x,y,1/2-z
1/2+x,1/2+y,z
1/2-x,1/2-y,z
1/2+x,1/2-y,-z
1/2-x,1/2+y,-z
loop_
_atom_site_type_symbol
_atom_site_label
_atom_site_fract_x
_atom_site_fract_y
_atom_site_fract_z
Si Si1 0.460994 0.250000 0.250000
Si Si2 0.424628 0.907504 0.032565
Si Si3 0.673622 0.860023 0.734253
Si Si4 0.094018 0.912704 0.114621
Si Si5 0.547483 0.088791 0.183145
Si Si6 0.583206 0.294498 0.995203
Si Si7 0.066238 0.370582 0.362432
O O1 0.507353 0.182775 0.204952
O O2 0.419323 0.319345 0.203838
O O3 0.435800 0.914261 0.108155
O O4 0.391078 0.807195 0.017431
O O5 0.500000 0.902550 0.000000
O O6 0.392030 0.000000 0.000000
O O7 0.670023 0.750000 0.750000
O O8 0.750000 0.893127 0.750000
O O9 0.650468 0.871552 0.661729
O O10 0.617041 0.912391 0.776622
O O11 0.106351 0.876562 0.043086
O O12 0.017477 0.875877 0.133258
O O13 0.090929 0.023573 0.126514
O O14 0.500000 0.000000 0.199108
O O15 0.500000 0.295639 0.000000
O O16 0.596287 0.312788 0.921479
#
# Coordination Sequence:
#
# PCOD9326065 Si02
#       7
#     8  16  16  16  16  16  16
#     4  12  20  30  47  82 123 144 180 238 298 350
#     4  10  18  31  47  78 111 146 186 230 296 349
#     4  11  22  36  54  82 120 160 194 238 303 358
#     4  10  18  34  49  77 106 145 193 238 284 343
#     4  12  21  34  57  82 118 153 190 248 292 348
#     4   9  17  29  49  72 112 147 181 237 287 346
#     4  10  19  29  50  79 113 146 182 234 302 342
#
# _framework density 17.817117
#
# number of rings (size 3 to 8) (size 9 to 14) (size 15 to 20)
#    0.000    1.538    3.846    5.077    0.000    1.846 
#    0.000    0.000    0.000    1.846    0.000    8.615 
#    0.000    0.000    0.000    0.000    0.000    0.000 
#
# Total GULP energy -144989.189870 kJ/mol
# GULP energy per Si atom -5576.507303 kJ/mol
# Density = 1.777656 g / cm^3
# Si number density = 17.817117 Si / 1000 Ang^3
#
#
#
# Elastic Constant Matrix: (Units=GPa)
#
#
# Indices 1 2 3 4 5 6 
#
# 1 48.1135 22.6893 21.7762 0.0000 0.0000 0.0000
# 2 22.6893 128.0609 52.4539 0.0000 0.0000 0.0000
# 3 21.7762 52.4539 132.6812 0.0000 0.0000 0.0000
# 4 0.0000 0.0000 0.0000 37.4705 0.0000 0.0000
# 5 0.0000 0.0000 0.0000 0.0000 6.9410 0.0000
# 6 0.0000 0.0000 0.0000 0.0000 0.0000 11.2925
#
#
#
# Elastic Compliance Matrix: (Units=1/GPa)
#
#
# Indices 1 2 3 4 5 6 
#
# 1 0.023423 -0.003073 -0.002629 0.000000 0.000000 0.000000
# 2 -0.003073 0.009721 -0.003339 0.000000 0.000000 0.000000
# 3 -0.002629 -0.003339 0.009288 0.000000 0.000000 0.000000
# 4 0.000000 0.000000 0.000000 0.026688 0.000000 0.000000
# 5 0.000000 0.000000 0.000000 0.000000 0.144072 0.000000
# 6 0.000000 0.000000 0.000000 0.000000 0.000000 0.088555
#
#
# Mechanical properties :
#
#
# Convention : Reuss Voigt Hill
#
# Bulk Modulus (GPa) = 41.06730 55.85492 48.46111
# Shear Modulus (GPa) = 15.24642 25.26988 20.25815
#
# Velocity S-wave (km/s) = 2.92844 3.77011 3.37561
# Velocity P-wave (km/s) = 5.87654 7.09709 6.51546
#
# Compressibility (1/GPa) = 0.02435028
#
# Stress axis : x y z
#
# Youngs Moduli (GPa) = 42.69224 102.87266 107.66224
#
# Poissons Ratio (x) = 0.31613 0.28309
# Poissons Ratio (y) = 0.13119 0.35944
# Poissons Ratio (z) = 0.11226 0.34345
#
# Static dielectric constant tensor:
#      x y z
#    x 1.537130 0.000000 0.000000 
#    y 0.000000 1.664930 0.000000 
#    z 0.000000 0.000000 1.640280 
# 
# From -- ./inp_files/44267.got.cif
#   From: 2010.05.17/outbox.cif.g08.bks.cpg/sg22_23_cif.got.tgz:44267.got - 2010.06.03 23:40:54.
