data_PCOD9326767
_publ_section_title
;
Structure prediction by ZEFSAII (Michael W. Deem and Ramdas Pophale) SiO2 
 PCOD9326767
Probable space group: F 2 2 2
;
_chemical_formula_sum "Si O2"
_cell_formula_units_Z 92
_cell_length_a 18.243438
_cell_length_b 8.889185
_cell_length_c 24.764239
_cell_angle_alpha 90.000000
_cell_angle_beta 90.000000
_cell_angle_gamma 90.000000
_cell_volume 4015.999190
_symmetry_space_group_name_H-M "F 2 2 2"
_symmetry_group_IT_number 22
_symmetry_cell_setting 'orthorhombic'
loop_
_space_group_symop_operation_xyz
x,y,z
-x,-y,z
x,-y,-z
-x,y,-z
x,1/2+y,1/2+z
-x,1/2-y,1/2+z
x,1/2-y,1/2-z
-x,1/2+y,1/2-z
1/2+x,y,1/2+z
1/2-x,-y,1/2+z
1/2+x,-y,1/2-z
1/2-x,y,1/2-z
1/2+x,1/2+y,z
1/2-x,1/2-y,z
1/2+x,1/2-y,-z
1/2-x,1/2+y,-z
loop_
_atom_site_type_symbol
_atom_site_label
_atom_site_fract_x
_atom_site_fract_y
_atom_site_fract_z
Si Si1 0.113008 0.021698 0.112992
Si Si2 0.713016 0.960435 0.104460
Si Si3 0.000000 0.000000 0.316767
Si Si4 0.250000 0.750000 0.508649
Si Si5 0.500000 0.500000 0.500000
Si Si6 0.639189 0.500000 0.000000
Si Si7 0.912598 0.678067 0.906831
Si Si8 0.121025 0.220276 0.306172
O O1 0.083576 0.852921 0.108597
O O2 0.201804 0.021636 0.118444
O O3 0.090511 0.137394 0.159478
O O4 0.097631 0.070527 0.050766
O O5 0.707670 0.861070 0.050067
O O6 0.672087 0.868361 0.151424
O O7 0.670085 0.113931 0.093939
O O8 0.945087 0.888761 0.287406
O O9 0.048623 0.901604 0.356776
O O10 0.192077 0.637377 0.481351
O O11 0.452120 0.609636 0.460431
O O12 0.161403 0.250000 0.250000
#
# Coordination Sequence:
#
# PCOD9326767 Si02
#       8
#    16  16   8   8   4   8  16  16
#     4  11  23  38  63 103 129 172 219 283 342 423
#     4  10  20  41  60  99 137 166 219 273 358 423
#     4   9  24  45  60  90 120 179 226 283 338 402
#     4  10  20  34  55  94 136 175 212 256 332 428
#     4  10  24  42  64  98 132 208 232 276 348 392
#     4  10  22  31  54  93 130 170 208 256 314 424
#     4  10  23  39  65  88 138 177 228 283 336 410
#     4  11  23  44  72  94 129 174 229 293 351 415
#
# _framework density 22.908372
#
# number of rings (size 3 to 8) (size 9 to 14) (size 15 to 20)
#    0.000    1.739    3.478    0.522    7.304    5.565 
#    0.000    2.609    0.000    5.217    0.000    0.000 
#    0.000    0.000    0.000    0.000    0.000    0.000 
#
# Total GULP energy -128368.066272 kJ/mol
# GULP energy per Si atom -5581.220273 kJ/mol
# Density = 2.285623 g / cm^3
# Si number density = 22.908372 Si / 1000 Ang^3
#
#
#
# Elastic Constant Matrix: (Units=GPa)
#
#
# Indices 1 2 3 4 5 6 
#
# 1 64.4365 20.0835 3.9935 0.0000 0.0000 0.0000
# 2 20.0835 148.0746 47.1367 0.0000 0.0000 0.0000
# 3 3.9935 47.1367 122.9855 0.0000 0.0000 0.0000
# 4 0.0000 0.0000 0.0000 26.7375 0.0000 0.0000
# 5 0.0000 0.0000 0.0000 0.0000 10.8998 0.0000
# 6 0.0000 0.0000 0.0000 0.0000 0.0000 23.5805
#
#
#
# Elastic Compliance Matrix: (Units=1/GPa)
#
#
# Indices 1 2 3 4 5 6 
#
# 1 0.016218 -0.002314 0.000360 0.000000 0.000000 0.000000
# 2 -0.002314 0.008022 -0.002999 0.000000 0.000000 0.000000
# 3 0.000360 -0.002999 0.009269 0.000000 0.000000 0.000000
# 4 0.000000 0.000000 0.000000 0.037401 0.000000 0.000000
# 5 0.000000 0.000000 0.000000 0.000000 0.091745 0.000000
# 6 0.000000 0.000000 0.000000 0.000000 0.000000 0.042408
#
#
# Mechanical properties :
#
#
# Convention : Reuss Voigt Hill
#
# Bulk Modulus (GPa) = 42.36883 53.10267 47.73575
# Shear Modulus (GPa) = 22.43793 29.86240 26.15016
#
# Velocity S-wave (km/s) = 3.13303 3.61440 3.38229
# Velocity P-wave (km/s) = 5.62343 6.37568 6.01133
#
# Compressibility (1/GPa) = 0.02360225
#
# Stress axis : x y z
#
# Youngs Moduli (GPa) = 61.65921 124.65582 107.88712
#
# Poissons Ratio (x) = 0.28851 -0.03888
# Poissons Ratio (y) = 0.14271 0.32360
# Poissons Ratio (z) = -0.02222 0.37390
#
# Static dielectric constant tensor:
#      x y z
#    x 1.949550 0.000000 0.000000 
#    y 0.000000 2.089450 0.000000 
#    z 0.000000 0.000000 1.825110 
# 
# From -- ./inp_files/12724.got.cif
#   From: 2010.05.17/outbox.cif.g08.bks.cpg/sg22_7_cif.got.tgz:12724.got - 2010.06.03 23:40:54.
