data_PCOD9326151
_publ_section_title
;
Structure prediction by ZEFSAII (Michael W. Deem and Ramdas Pophale) SiO2 
 PCOD9326151
Probable space group: F 2 2 2
;
_chemical_formula_sum "Si O2"
_cell_formula_units_Z 92
_cell_length_a 22.773396
_cell_length_b 20.066420
_cell_length_c 10.219140
_cell_angle_alpha 90.000000
_cell_angle_beta 90.000000
_cell_angle_gamma 90.000000
_cell_volume 4669.948003
_symmetry_space_group_name_H-M "F 2 2 2"
_symmetry_group_IT_number 22
_symmetry_cell_setting 'orthorhombic'
loop_
_space_group_symop_operation_xyz
x,y,z
-x,-y,z
x,-y,-z
-x,y,-z
x,1/2+y,1/2+z
-x,1/2-y,1/2+z
x,1/2-y,1/2-z
-x,1/2+y,1/2-z
1/2+x,y,1/2+z
1/2-x,-y,1/2+z
1/2+x,-y,1/2-z
1/2-x,y,1/2-z
1/2+x,1/2+y,z
1/2-x,1/2-y,z
1/2+x,1/2-y,-z
1/2-x,1/2+y,-z
loop_
_atom_site_type_symbol
_atom_site_label
_atom_site_fract_x
_atom_site_fract_y
_atom_site_fract_z
Si Si1 0.055092 0.732648 0.095778
Si Si2 0.625132 0.500000 0.000000
Si Si3 0.811668 0.493529 0.778175
Si Si4 0.646774 0.123708 0.153230
Si Si5 0.636229 0.643638 0.956637
Si Si6 0.750000 0.250000 0.750000
Si Si7 0.266462 0.638294 0.568212
O O1 0.041797 0.750000 0.250000
O O2 0.090781 0.663471 0.101656
O O3 0.096953 0.790580 0.035543
O O4 0.000000 0.727651 0.000000
O O5 0.661294 0.512665 0.133828
O O6 0.599441 0.425506 0.020587
O O7 0.750000 0.530172 0.750000
O O8 0.853889 0.543423 0.855295
O O9 0.791189 0.428185 0.858753
O O10 0.654560 0.141033 0.304779
O O11 0.701766 0.145704 0.068312
O O12 0.696172 0.641699 0.042666
O O13 0.715029 0.300051 0.658182
#
# Coordination Sequence:
#
# PCOD9326151 Si02
#       7
#    16   8  16  16  16   4  16
#     4  10  23  47  66  88 119 165 220 277 323 372
#     4  10  18  34  53  92 126 170 203 238 306 378
#     4  11  20  33  57  89 137 174 195 243 304 389
#     4  10  22  35  64  89 121 165 209 251 317 383
#     4  10  20  38  64  91 126 165 203 255 318 391
#     4  12  24  32  46  80 140 172 202 246 284 374
#     4  12  21  36  55  96 134 164 204 246 316 388
#
# _framework density 19.700433
#
# number of rings (size 3 to 8) (size 9 to 14) (size 15 to 20)
#    0.000    1.391    2.609    4.174    0.000    0.000 
#    9.391    5.652    0.000    2.087    0.000    0.000 
#    0.000    0.000    0.000    0.000    0.000    0.000 
#
# Total GULP energy -128036.390904 kJ/mol
# GULP energy per Si atom -5566.799605 kJ/mol
# Density = 1.965559 g / cm^3
# Si number density = 19.700433 Si / 1000 Ang^3
#
#
#
# Elastic Constant Matrix: (Units=GPa)
#
#
# Indices 1 2 3 4 5 6 
#
# 1 73.6656 70.0449 37.7752 0.0000 0.0000 0.0000
# 2 70.0449 166.2440 59.1558 0.0000 0.0000 0.0000
# 3 37.7752 59.1558 78.5973 0.0000 0.0000 0.0000
# 4 0.0000 0.0000 0.0000 21.8554 0.0000 0.0000
# 5 0.0000 0.0000 0.0000 0.0000 31.0597 0.0000
# 6 0.0000 0.0000 0.0000 0.0000 0.0000 11.6820
#
#
#
# Elastic Compliance Matrix: (Units=1/GPa)
#
#
# Indices 1 2 3 4 5 6 
#
# 1 0.024223 -0.008281 -0.005409 0.000000 0.000000 0.000000
# 2 -0.008281 0.011047 -0.004334 0.000000 0.000000 0.000000
# 3 -0.005409 -0.004334 0.018585 0.000000 0.000000 0.000000
# 4 0.000000 0.000000 0.000000 0.045755 0.000000 0.000000
# 5 0.000000 0.000000 0.000000 0.000000 0.032196 0.000000
# 6 0.000000 0.000000 0.000000 0.000000 0.000000 0.085602
#
#
# Mechanical properties :
#
#
# Convention : Reuss Voigt Hill
#
# Bulk Modulus (GPa) = 56.16252 72.49541 64.32896
# Shear Modulus (GPa) = 19.27587 23.02149 21.14868
#
# Velocity S-wave (km/s) = 3.13141 3.42216 3.28001
# Velocity P-wave (km/s) = 6.45325 7.24525 6.86069
#
# Compressibility (1/GPa) = 0.01780547
#
# Stress axis : x y z
#
# Youngs Moduli (GPa) = 41.28345 90.52485 53.80727
#
# Poissons Ratio (x) = 0.74966 0.29105
# Poissons Ratio (y) = 0.34188 0.23321
# Poissons Ratio (z) = 0.22330 0.39235
#
# Static dielectric constant tensor:
#      x y z
#    x 1.666740 0.000000 0.000000 
#    y 0.000000 1.800280 0.000000 
#    z 0.000000 0.000000 1.736950 
# 
# From -- ./inp_files/22665.got.cif
#   From: 2010.05.17/outbox.cif.g08.bks.cpg/sg22_12_cif.got.tgz:22665.got - 2010.06.03 23:40:54.
