data_PCOD9326563
_publ_section_title
;
Structure prediction by ZEFSAII (Michael W. Deem and Ramdas Pophale) SiO2 
 PCOD9326563
Probable space group: F 2 2 2
;
_chemical_formula_sum "Si O2"
_cell_formula_units_Z 80
_cell_length_a 10.825337
_cell_length_b 16.347398
_cell_length_c 22.326689
_cell_angle_alpha 90.000000
_cell_angle_beta 90.000000
_cell_angle_gamma 90.000000
_cell_volume 3951.066909
_symmetry_space_group_name_H-M "F 2 2 2"
_symmetry_group_IT_number 22
_symmetry_cell_setting 'orthorhombic'
loop_
_space_group_symop_operation_xyz
x,y,z
-x,-y,z
x,-y,-z
-x,y,-z
x,1/2+y,1/2+z
-x,1/2-y,1/2+z
x,1/2-y,1/2-z
-x,1/2+y,1/2-z
1/2+x,y,1/2+z
1/2-x,-y,1/2+z
1/2+x,-y,1/2-z
1/2-x,y,1/2-z
1/2+x,1/2+y,z
1/2-x,1/2-y,z
1/2+x,1/2-y,-z
1/2-x,1/2+y,-z
loop_
_atom_site_type_symbol
_atom_site_label
_atom_site_fract_x
_atom_site_fract_y
_atom_site_fract_z
Si Si1 0.439290 0.750000 0.250000
Si Si2 0.986461 0.156865 0.567508
Si Si3 0.768131 0.391501 0.433154
Si Si4 0.621153 0.291390 0.841791
Si Si5 0.250000 0.750000 0.153059
Si Si6 0.726118 0.419929 0.931247
O O1 0.530982 0.691259 0.213586
O O2 0.350262 0.787067 0.199180
O O3 0.944203 0.225868 0.613988
O O4 0.874774 0.091850 0.570444
O O5 0.000000 0.191420 0.500000
O O6 0.120099 0.116921 0.576606
O O7 0.811292 0.319028 0.389272
O O8 0.805314 0.485141 0.422931
O O9 0.803141 0.381445 0.503121
O O10 0.750000 0.250000 0.821919
O O11 0.658563 0.368585 0.880901
#
# Coordination Sequence:
#
# PCOD9326563 Si02
#       6
#     8  16  16  16   8  16
#     4  11  23  42  60  82 115 171 222 254 284 373
#     4   9  17  31  60  91 124 159 199 246 310 375
#     4  10  19  37  59  96 127 158 201 258 313 383
#     4  10  20  36  62  89 121 160 205 255 308 367
#     4  11  24  38  68  82 122 171 220 248 304 375
#     4   9  20  33  62  97 130 152 194 262 330 364
#
# _framework density 20.247695
#
# number of rings (size 3 to 8) (size 9 to 14) (size 15 to 20)
#    0.000    2.200    2.000    0.900    7.000    2.400 
#    0.000    1.000   26.400    2.400    0.000    0.000 
#    0.000    0.000    0.000    0.000    0.000    0.000 
#
# Total GULP energy -111423.773678 kJ/mol
# GULP energy per Si atom -5571.188684 kJ/mol
# Density = 2.020161 g / cm^3
# Si number density = 20.247695 Si / 1000 Ang^3
#
#
#
# Elastic Constant Matrix: (Units=GPa)
#
#
# Indices 1 2 3 4 5 6 
#
# 1 58.6804 19.9551 45.4477 0.0000 0.0000 0.0000
# 2 19.9551 65.5874 51.7653 0.0000 0.0000 0.0000
# 3 45.4477 51.7653 118.8644 0.0000 0.0000 0.0000
# 4 0.0000 0.0000 0.0000 14.2467 0.0000 0.0000
# 5 0.0000 0.0000 0.0000 0.0000 44.7906 0.0000
# 6 0.0000 0.0000 0.0000 0.0000 0.0000 17.9601
#
#
#
# Elastic Compliance Matrix: (Units=1/GPa)
#
#
# Indices 1 2 3 4 5 6 
#
# 1 0.024211 -0.000092 -0.009217 0.000000 0.000000 0.000000
# 2 -0.000092 0.023233 -0.010083 0.000000 0.000000 0.000000
# 3 -0.009217 -0.010083 0.016328 0.000000 0.000000 0.000000
# 4 0.000000 0.000000 0.000000 0.070192 0.000000 0.000000
# 5 0.000000 0.000000 0.000000 0.000000 0.022326 0.000000
# 6 0.000000 0.000000 0.000000 0.000000 0.000000 0.055679
#
#
# Mechanical properties :
#
#
# Convention : Reuss Voigt Hill
#
# Bulk Modulus (GPa) = 40.01777 53.05206 46.53491
# Shear Modulus (GPa) = 19.29892 23.79709 21.54800
#
# Velocity S-wave (km/s) = 3.09065 3.43198 3.26578
# Velocity P-wave (km/s) = 5.70466 6.47789 6.10353
#
# Compressibility (1/GPa) = 0.02498890
#
# Stress axis : x y z
#
# Youngs Moduli (GPa) = 41.30293 43.04306 61.24374
#
# Poissons Ratio (x) = 0.00394 0.56450
# Poissons Ratio (y) = 0.00378 0.61750
# Poissons Ratio (z) = 0.38070 0.43399
#
# Static dielectric constant tensor:
#      x y z
#    x 1.803790 0.000000 0.000000 
#    y 0.000000 1.687080 0.000000 
#    z 0.000000 0.000000 1.744090 
# 
# From -- ./inp_files/36189.got.cif
#   From: 2010.05.17/outbox.cif.g08.bks.cpg/sg22_19_cif.got.tgz:36189.got - 2010.06.03 23:40:54.
