data_PCOD9326951
_publ_section_title
;
Structure prediction by ZEFSAII (Michael W. Deem and Ramdas Pophale) SiO2 
 PCOD9326951
Probable space group: F 2 2 2
;
_chemical_formula_sum "Si O2"
_cell_formula_units_Z 88
_cell_length_a 26.343068
_cell_length_b 12.338431
_cell_length_c 12.339542
_cell_angle_alpha 90.000000
_cell_angle_beta 90.000000
_cell_angle_gamma 90.000000
_cell_volume 4010.747581
_symmetry_space_group_name_H-M "F 2 2 2"
_symmetry_group_IT_number 22
_symmetry_cell_setting 'orthorhombic'
loop_
_space_group_symop_operation_xyz
x,y,z
-x,-y,z
x,-y,-z
-x,y,-z
x,1/2+y,1/2+z
-x,1/2-y,1/2+z
x,1/2-y,1/2-z
-x,1/2+y,1/2-z
1/2+x,y,1/2+z
1/2-x,-y,1/2+z
1/2+x,-y,1/2-z
1/2-x,y,1/2-z
1/2+x,1/2+y,z
1/2-x,1/2-y,z
1/2+x,1/2-y,-z
1/2-x,1/2+y,-z
loop_
_atom_site_type_symbol
_atom_site_label
_atom_site_fract_x
_atom_site_fract_y
_atom_site_fract_z
Si Si1 0.699543 0.902695 0.916855
Si Si2 0.858125 0.709422 0.529194
Si Si3 0.250000 0.021378 0.250000
Si Si4 0.945005 0.377498 0.042748
Si Si5 0.892950 0.912542 0.752343
Si Si6 0.645413 0.132490 0.702341
O O1 0.692763 0.782823 0.962607
O O2 0.656169 0.898035 0.824571
O O3 0.749392 0.942412 0.854239
O O4 0.688167 0.000000 0.000000
O O5 0.901881 0.797055 0.499801
O O6 0.878776 0.650111 0.637374
O O7 0.850676 0.633326 0.427170
O O8 0.300004 0.094589 0.250872
O O9 0.938634 0.376085 0.173940
O O10 0.935910 0.500000 0.000000
O O11 0.000000 0.344926 0.000000
O O12 0.895541 0.040866 0.770157
O O13 0.633800 0.250000 0.750000
#
# Coordination Sequence:
#
# PCOD9326951 Si02
#       6
#    16  16   8  16  16  16
#     4  10  20  37  58  81 116 163 208 255 312 382
#     4  11  21  39  65  89 124 166 204 261 335 385
#     4  10  23  38  55  88 124 158 216 270 304 364
#     4  10  20  38  64  94 121 159 210 253 306 393
#     4  10  21  39  60  89 123 157 205 264 320 378
#     4  11  22  40  62  86 123 172 218 262 321 384
#
# _framework density 21.941047000000001
#
# number of rings (size 3 to 8) (size 9 to 14) (size 15 to 20)
#    0.000    1.636    0.000    8.455    0.000    2.909 
#    0.000   21.818    0.000    1.091    0.000    0.000 
#    0.000    0.000    0.000    0.000    0.000    0.000 
#
# Total GULP energy -122773.402793 kJ/mol
# GULP energy per Si atom -5580.609218 kJ/mol
# Density = 2.189111 g / cm^3
# Si number density = 21.941047 Si / 1000 Ang^3
#
#
#
# Elastic Constant Matrix: (Units=GPa)
#
#
# Indices 1 2 3 4 5 6 
#
# 1 60.8265 29.8637 18.0994 0.0000 0.0000 0.0000
# 2 29.8637 87.6295 19.0265 0.0000 0.0000 0.0000
# 3 18.0994 19.0265 116.1594 0.0000 0.0000 0.0000
# 4 0.0000 0.0000 0.0000 50.6359 0.0000 0.0000
# 5 0.0000 0.0000 0.0000 0.0000 25.0341 0.0000
# 6 0.0000 0.0000 0.0000 0.0000 0.0000 14.8309
#
#
#
# Elastic Compliance Matrix: (Units=1/GPa)
#
#
# Indices 1 2 3 4 5 6 
#
# 1 0.020225 -0.006437 -0.002097 0.000000 0.000000 0.000000
# 2 -0.006437 0.013881 -0.001271 0.000000 0.000000 0.000000
# 3 -0.002097 -0.001271 0.009144 0.000000 0.000000 0.000000
# 4 0.000000 0.000000 0.000000 0.019749 0.000000 0.000000
# 5 0.000000 0.000000 0.000000 0.000000 0.039945 0.000000
# 6 0.000000 0.000000 0.000000 0.000000 0.000000 0.067427
#
#
# Mechanical properties :
#
#
# Convention : Reuss Voigt Hill
#
# Bulk Modulus (GPa) = 42.30101 44.28830 43.29466
# Shear Modulus (GPa) = 25.27036 31.27524 28.27280
#
# Velocity S-wave (km/s) = 3.39741 3.77957 3.59357
# Velocity P-wave (km/s) = 5.89161 6.26704 6.08223
#
# Compressibility (1/GPa) = 0.02364010
#
# Stress axis : x y z
#
# Youngs Moduli (GPa) = 49.44484 72.03925 109.36460
#
# Poissons Ratio (x) = 0.46373 0.22933
# Poissons Ratio (y) = 0.31828 0.13897
# Poissons Ratio (z) = 0.10368 0.09154
#
# Static dielectric constant tensor:
#      x y z
#    x 1.831310 0.000000 0.000000 
#    y 0.000000 1.856810 0.000000 
#    z 0.000000 0.000000 1.861990 
# 
# From -- ./inp_files/25217.got.cif
#   From: 2010.05.17/outbox.cif.g08.bks.cpg/sg22_13_cif.got.tgz:25217.got - 2010.06.03 23:40:54.
