data_PCOD9326878
_publ_section_title
;
Structure prediction by ZEFSAII (Michael W. Deem and Ramdas Pophale) SiO2 
 PCOD9326878
Probable space group: F 2 2 2
;
_chemical_formula_sum "Si O2"
_cell_formula_units_Z 96
_cell_length_a 24.531889
_cell_length_b 13.168110
_cell_length_c 14.895161
_cell_angle_alpha 90.000000
_cell_angle_beta 90.000000
_cell_angle_gamma 90.000000
_cell_volume 4811.712148
_symmetry_space_group_name_H-M "F 2 2 2"
_symmetry_group_IT_number 22
_symmetry_cell_setting 'orthorhombic'
loop_
_space_group_symop_operation_xyz
x,y,z
-x,-y,z
x,-y,-z
-x,y,-z
x,1/2+y,1/2+z
-x,1/2-y,1/2+z
x,1/2-y,1/2-z
-x,1/2+y,1/2-z
1/2+x,y,1/2+z
1/2-x,-y,1/2+z
1/2+x,-y,1/2-z
1/2-x,y,1/2-z
1/2+x,1/2+y,z
1/2-x,1/2-y,z
1/2+x,1/2-y,-z
1/2-x,1/2+y,-z
loop_
_atom_site_type_symbol
_atom_site_label
_atom_site_fract_x
_atom_site_fract_y
_atom_site_fract_z
Si Si1 0.250000 0.440858 0.250000
Si Si2 0.874532 0.653815 0.016535
Si Si3 0.163395 0.184107 0.158489
Si Si4 0.577494 0.019469 0.700886
Si Si5 0.519781 0.668360 0.823787
Si Si6 0.000000 0.795907 0.500000
Si Si7 0.151716 0.464642 0.856630
O O1 0.222525 0.365581 0.323563
O O2 0.204548 0.510162 0.202793
O O3 0.851447 0.749864 0.071653
O O4 0.856271 0.560276 0.078131
O O5 0.848939 0.634783 0.918353
O O6 0.940502 0.650679 0.004671
O O7 0.151904 0.250000 0.250000
O O8 0.124018 0.087324 0.158067
O O9 0.560538 0.920577 0.645253
O O10 0.599668 0.970598 0.792084
O O11 0.529039 0.099892 0.717277
O O12 0.538624 0.750000 0.750000
O O13 0.500657 0.728532 0.910423
#
# Coordination Sequence:
#
# PCOD9326878 Si02
#       7
#     8  16  16  16  16   8  16
#     4  10  21  38  74  94 123 168 243 276 354 394
#     4  11  22  37  62  99 139 162 226 277 341 400
#     4  11  19  38  68  97 127 175 221 285 334 415
#     4  10  20  36  60  88 127 176 227 262 332 403
#     4  11  22  37  60  89 132 184 225 271 338 406
#     4  12  24  38  62  96 136 182 218 273 333 432
#     4  10  22  38  63  96 129 169 220 294 336 408
#
# _framework density 19.951319000000002
#
# number of rings (size 3 to 8) (size 9 to 14) (size 15 to 20)
#    0.000    1.333    5.000    2.750    0.000    4.000 
#    0.000    0.000   22.000    0.000    0.000    5.250 
#    0.000    0.000    0.000    0.000    0.000    0.000 
#
# Total GULP energy -133766.389860 kJ/mol
# GULP energy per Si atom -5573.599578 kJ/mol
# Density = 1.990591 g / cm^3
# Si number density = 19.951319 Si / 1000 Ang^3
#
#
#
# Elastic Constant Matrix: (Units=GPa)
#
#
# Indices 1 2 3 4 5 6 
#
# 1 78.6004 23.8224 28.2961 0.0000 0.0000 0.0000
# 2 23.8224 81.3947 35.2767 0.0000 0.0000 0.0000
# 3 28.2961 35.2767 91.7208 0.0000 0.0000 0.0000
# 4 0.0000 0.0000 0.0000 35.6435 0.0000 0.0000
# 5 0.0000 0.0000 0.0000 0.0000 18.3797 0.0000
# 6 0.0000 0.0000 0.0000 0.0000 0.0000 36.3075
#
#
#
# Elastic Compliance Matrix: (Units=1/GPa)
#
#
# Indices 1 2 3 4 5 6 
#
# 1 0.014836 -0.002830 -0.003488 0.000000 0.000000 0.000000
# 2 -0.002830 0.015283 -0.005005 0.000000 0.000000 0.000000
# 3 -0.003488 -0.005005 0.013904 0.000000 0.000000 0.000000
# 4 0.000000 0.000000 0.000000 0.028056 0.000000 0.000000
# 5 0.000000 0.000000 0.000000 0.000000 0.054408 0.000000
# 6 0.000000 0.000000 0.000000 0.000000 0.000000 0.027542
#
#
# Mechanical properties :
#
#
# Convention : Reuss Voigt Hill
#
# Bulk Modulus (GPa) = 46.78161 47.38958 47.08559
# Shear Modulus (GPa) = 27.20315 29.02084 28.11199
#
# Velocity S-wave (km/s) = 3.69653 3.81804 3.75778
# Velocity P-wave (km/s) = 6.45894 6.57577 6.51762
#
# Compressibility (1/GPa) = 0.02137592
#
# Stress axis : x y z
#
# Youngs Moduli (GPa) = 67.40245 65.43066 71.92275
#
# Poissons Ratio (x) = 0.18519 0.25090
# Poissons Ratio (y) = 0.19077 0.35997
# Poissons Ratio (z) = 0.23513 0.32748
#
# Static dielectric constant tensor:
#      x y z
#    x 1.775430 0.000000 0.000000 
#    y 0.000000 1.745130 0.000000 
#    z 0.000000 0.000000 1.646140 
# 
# From -- ./inp_files/33131.got.cif
#   From: 2010.05.17/outbox.cif.g08.bks.cpg/sg22_17_cif.got.tgz:33131.got - 2010.06.03 23:40:54.
