data_PCOD9326042
_publ_section_title
;
Structure prediction by ZEFSAII (Michael W. Deem and Ramdas Pophale) SiO2 
 PCOD9326042
Probable space group: F 2 2 2
;
_chemical_formula_sum "Si O2"
_cell_formula_units_Z 84
_cell_length_a 16.708448
_cell_length_b 11.099865
_cell_length_c 24.932227
_cell_angle_alpha 90.000000
_cell_angle_beta 90.000000
_cell_angle_gamma 90.000000
_cell_volume 4623.968646
_symmetry_space_group_name_H-M "F 2 2 2"
_symmetry_group_IT_number 22
_symmetry_cell_setting 'orthorhombic'
loop_
_space_group_symop_operation_xyz
x,y,z
-x,-y,z
x,-y,-z
-x,y,-z
x,1/2+y,1/2+z
-x,1/2-y,1/2+z
x,1/2-y,1/2-z
-x,1/2+y,1/2-z
1/2+x,y,1/2+z
1/2-x,-y,1/2+z
1/2+x,-y,1/2-z
1/2-x,y,1/2-z
1/2+x,1/2+y,z
1/2-x,1/2-y,z
1/2+x,1/2-y,-z
1/2-x,1/2+y,-z
loop_
_atom_site_type_symbol
_atom_site_label
_atom_site_fract_x
_atom_site_fract_y
_atom_site_fract_z
Si Si1 0.343106 0.134403 0.288875
Si Si2 0.580244 0.848059 0.091232
Si Si3 0.250000 0.250000 0.378369
Si Si4 0.500000 0.000000 0.000000
Si Si5 0.497629 0.632208 0.140224
Si Si6 0.883385 0.378018 0.263188
Si Si7 0.500000 0.500000 0.317790
O O1 0.336866 0.250000 0.250000
O O2 0.281456 0.147623 0.337616
O O3 0.429993 0.138897 0.316656
O O4 0.337255 0.004554 0.261587
O O5 0.670924 0.797783 0.091578
O O6 0.517397 0.738733 0.099838
O O7 0.562982 0.932904 0.143232
O O8 0.555631 0.920385 0.038727
O O9 0.500000 0.500000 0.114463
O O10 0.419066 0.637180 0.176870
O O11 0.844817 0.250000 0.250000
O O12 0.955378 0.404281 0.220569
#
# Coordination Sequence:
#
# PCOD9326042 Si02
#       7
#    16  16   8   4  16  16   8
#     4  10  18  29  47  80 119 166 196 220 268 347
#     4  10  21  38  60  86 108 151 194 252 295 358
#     4  10  21  34  60  80 116 144 204 241 306 356
#     4  10  24  44  70  80 108 134 212 256 312 366
#     4   9  16  27  50  83 118 141 186 233 277 326
#     4  11  17  26  49  83 124 156 194 233 268 324
#     4  11  18  29  54  84 122 161 196 223 272 338
#
# _framework density 18.166214
#
# number of rings (size 3 to 8) (size 9 to 14) (size 15 to 20)
#    0.000    1.905    4.762    3.143    0.000    0.000 
#    0.000    0.476   12.571    9.143    0.000    0.000 
#    0.000    0.000    0.000    0.000    0.000    0.000 
#
# Total GULP energy -117029.153253 kJ/mol
# GULP energy per Si atom -5572.816822 kJ/mol
# Density = 1.812487 g / cm^3
# Si number density = 18.166214 Si / 1000 Ang^3
#
#
#
# Elastic Constant Matrix: (Units=GPa)
#
#
# Indices 1 2 3 4 5 6 
#
# 1 80.1552 31.0489 34.3911 0.0000 0.0000 0.0000
# 2 31.0489 158.8413 53.7990 0.0000 0.0000 0.0000
# 3 34.3911 53.7990 84.8275 0.0000 0.0000 0.0000
# 4 0.0000 0.0000 0.0000 33.5449 0.0000 0.0000
# 5 0.0000 0.0000 0.0000 0.0000 10.1595 0.0000
# 6 0.0000 0.0000 0.0000 0.0000 0.0000 4.5868
#
#
#
# Elastic Compliance Matrix: (Units=1/GPa)
#
#
# Indices 1 2 3 4 5 6 
#
# 1 0.015261 -0.001130 -0.005470 0.000000 0.000000 0.000000
# 2 -0.001130 0.008102 -0.004680 0.000000 0.000000 0.000000
# 3 -0.005470 -0.004680 0.016974 0.000000 0.000000 0.000000
# 4 0.000000 0.000000 0.000000 0.029811 0.000000 0.000000
# 5 0.000000 0.000000 0.000000 0.000000 0.098430 0.000000
# 6 0.000000 0.000000 0.000000 0.000000 0.000000 0.218017
#
#
# Mechanical properties :
#
#
# Convention : Reuss Voigt Hill
#
# Bulk Modulus (GPa) = 56.25591 62.47801 59.36696
# Shear Modulus (GPa) = 12.04586 23.29725 17.67155
#
# Velocity S-wave (km/s) = 2.57785 3.58502 3.12231
# Velocity P-wave (km/s) = 6.31625 7.18356 6.76382
#
# Compressibility (1/GPa) = 0.01777591
#
# Stress axis : x y z
#
# Youngs Moduli (GPa) = 65.52806 123.43238 58.91206
#
# Poissons Ratio (x) = 0.13951 0.32226
# Poissons Ratio (y) = 0.07407 0.27570
# Poissons Ratio (z) = 0.35845 0.57765
#
# Static dielectric constant tensor:
#      x y z
#    x 1.654720 0.000000 0.000000 
#    y 0.000000 1.682250 0.000000 
#    z 0.000000 0.000000 1.601730 
# 
# From -- ./inp_files/49337.got.cif
#   From: 2010.05.17/outbox.cif.g08.bks.cpg/sg22_25_cif.got.tgz:49337.got - 2010.06.03 23:40:54.
