data_PCOD9326866
_publ_section_title
;
Structure prediction by ZEFSAII (Michael W. Deem and Ramdas Pophale) SiO2 
 PCOD9326866
Probable space group: F 2 2 2
;
_chemical_formula_sum "Si O2"
_cell_formula_units_Z 100
_cell_length_a 15.509680
_cell_length_b 17.232430
_cell_length_c 18.696700
_cell_angle_alpha 90.000000
_cell_angle_beta 90.000000
_cell_angle_gamma 90.000000
_cell_volume 4997.057192
_symmetry_space_group_name_H-M "F 2 2 2"
_symmetry_group_IT_number 22
_symmetry_cell_setting 'orthorhombic'
loop_
_space_group_symop_operation_xyz
x,y,z
-x,-y,z
x,-y,-z
-x,y,-z
x,1/2+y,1/2+z
-x,1/2-y,1/2+z
x,1/2-y,1/2-z
-x,1/2+y,1/2-z
1/2+x,y,1/2+z
1/2-x,-y,1/2+z
1/2+x,-y,1/2-z
1/2-x,y,1/2-z
1/2+x,1/2+y,z
1/2-x,1/2-y,z
1/2+x,1/2-y,-z
1/2-x,1/2+y,-z
loop_
_atom_site_type_symbol
_atom_site_label
_atom_site_fract_x
_atom_site_fract_y
_atom_site_fract_z
Si Si1 0.712921 0.660373 0.549155
Si Si2 0.864604 0.117345 0.958041
Si Si3 0.686038 0.945840 0.816382
Si Si4 0.917434 0.353178 0.918574
Si Si5 0.000000 0.500000 0.845306
Si Si6 0.500000 0.738495 0.000000
Si Si7 0.500000 0.000000 0.500000
Si Si8 0.741563 0.379608 0.666369
O O1 0.750000 0.750000 0.550998
O O2 0.785023 0.605684 0.511355
O O3 0.692122 0.622441 0.625375
O O4 0.632635 0.649651 0.494543
O O5 0.823123 0.140113 0.882546
O O6 0.917584 0.184727 0.996519
O O7 0.934624 0.049927 0.952249
O O8 0.750000 0.927981 0.750000
O O9 0.583799 0.965759 0.802740
O O10 0.723062 0.028357 0.845616
O O11 0.961099 0.432882 0.895590
O O12 0.842309 0.335597 0.862514
O O13 0.990341 0.289153 0.928655
O O14 0.750000 0.366887 0.750000
#
# Coordination Sequence:
#
# PCOD9326866 Si02
#       8
#    16  16  16  16   8   8   4  16
#     4  11  21  37  61  89 125 173 207 259 326 388
#     4  10  21  36  58  88 120 166 205 254 314 379
#     4  10  22  40  63  93 127 168 219 268 328 382
#     4  10  21  37  63  91 126 155 212 268 316 375
#     4  10  22  39  67 102 121 165 220 278 320 379
#     4  11  20  34  54  85 122 154 194 253 316 364
#     4  10  20  36  58  90 126 156 216 264 312 372
#     4   9  20  40  62  86 119 160 210 254 312 379
#
# _framework density 20.011778
#
# number of rings (size 3 to 8) (size 9 to 14) (size 15 to 20)
#    0.000    1.920    1.600    1.920    0.000    8.960 
#    0.000   19.200    0.000    0.000    0.000    0.000 
#    0.000    0.000    0.000    0.000    0.000    0.000 
#
# Total GULP energy -139234.847383 kJ/mol
# GULP energy per Si atom -5569.393895 kJ/mol
# Density = 1.996623 g / cm^3
# Si number density = 20.011778 Si / 1000 Ang^3
#
#
#
# Elastic Constant Matrix: (Units=GPa)
#
#
# Indices 1 2 3 4 5 6 
#
# 1 148.0180 42.4058 67.9667 0.0000 0.0000 0.0000
# 2 42.4058 55.8521 34.9418 0.0000 0.0000 0.0000
# 3 67.9667 34.9418 105.0433 0.0000 0.0000 0.0000
# 4 0.0000 0.0000 0.0000 194.3693 0.0000 0.0000
# 5 0.0000 0.0000 0.0000 0.0000 19.2701 0.0000
# 6 0.0000 0.0000 0.0000 0.0000 0.0000 29.1536
#
#
#
# Elastic Compliance Matrix: (Units=1/GPa)
#
#
# Indices 1 2 3 4 5 6 
#
# 1 0.010506 -0.004703 -0.005234 0.000000 0.000000 0.000000
# 2 -0.004703 0.024715 -0.005178 0.000000 0.000000 0.000000
# 3 -0.005234 -0.005178 0.014629 0.000000 0.000000 0.000000
# 4 0.000000 0.000000 0.000000 0.005145 0.000000 0.000000
# 5 0.000000 0.000000 0.000000 0.000000 0.051894 0.000000
# 6 0.000000 0.000000 0.000000 0.000000 0.000000 0.034301
#
#
# Mechanical properties :
#
#
# Convention : Reuss Voigt Hill
#
# Bulk Modulus (GPa) = 50.96739 66.61577 58.79158
# Shear Modulus (GPa) = 28.09635 59.46520 43.78078
#
# Velocity S-wave (km/s) = 3.75105 5.45707 4.68241
# Velocity P-wave (km/s) = 6.65466 8.54791 7.66000
#
# Compressibility (1/GPa) = 0.01962039
#
# Stress axis : x y z
#
# Youngs Moduli (GPa) = 95.17977 40.46191 68.35845
#
# Poissons Ratio (x) = 0.19028 0.35777
# Poissons Ratio (y) = 0.44761 0.35398
# Poissons Ratio (z) = 0.49814 0.20952
#
# Static dielectric constant tensor:
#      x y z
#    x 1.199850 0.000000 0.000000 
#    y 0.000000 1.807740 0.000000 
#    z 0.000000 0.000000 1.669380 
# 
# From -- ./inp_files/37301.got.cif
#   From: 2010.05.17/outbox.cif.g08.bks.cpg/sg22_19_cif.got.tgz:37301.got - 2010.06.03 23:40:54.
