data_PCOD9326272
_publ_section_title
;
Structure prediction by ZEFSAII (Michael W. Deem and Ramdas Pophale) SiO2 
 PCOD9326272
Probable space group: F 2 2 2
;
_chemical_formula_sum "Si O2"
_cell_formula_units_Z 108
_cell_length_a 13.411621
_cell_length_b 31.065644
_cell_length_c 13.017524
_cell_angle_alpha 90.000000
_cell_angle_beta 90.000000
_cell_angle_gamma 90.000000
_cell_volume 5423.629575
_symmetry_space_group_name_H-M "F 2 2 2"
_symmetry_group_IT_number 22
_symmetry_cell_setting 'orthorhombic'
loop_
_space_group_symop_operation_xyz
x,y,z
-x,-y,z
x,-y,-z
-x,y,-z
x,1/2+y,1/2+z
-x,1/2-y,1/2+z
x,1/2-y,1/2-z
-x,1/2+y,1/2-z
1/2+x,y,1/2+z
1/2-x,-y,1/2+z
1/2+x,-y,1/2-z
1/2-x,y,1/2-z
1/2+x,1/2+y,z
1/2-x,1/2-y,z
1/2+x,1/2-y,-z
1/2-x,1/2+y,-z
loop_
_atom_site_type_symbol
_atom_site_label
_atom_site_fract_x
_atom_site_fract_y
_atom_site_fract_z
Si Si1 0.356984 0.090588 0.147180
Si Si2 0.500000 0.136123 0.000000
Si Si3 0.140659 0.178914 0.221587
Si Si4 0.650749 0.610485 0.815514
Si Si5 0.519454 0.951467 0.313045
Si Si6 0.750000 0.750000 0.750000
Si Si7 0.350413 0.110237 0.440890
Si Si8 0.568102 0.689582 0.696520
O O1 0.363130 0.133991 0.215300
O O2 0.405544 0.053554 0.216196
O O3 0.244313 0.086925 0.111733
O O4 0.419876 0.104350 0.049118
O O5 0.451671 0.166417 0.912447
O O6 0.250000 0.197878 0.250000
O O7 0.139259 0.158835 0.106090
O O8 0.042125 0.203800 0.261150
O O9 0.750000 0.609599 0.750000
O O10 0.583950 0.570345 0.781762
O O11 0.595385 0.653661 0.780501
O O12 0.664080 0.610977 0.937689
O O13 0.560047 0.919753 0.401739
O O14 0.500000 0.000000 0.345174
O O15 0.666625 0.720275 0.691067
#
# Coordination Sequence:
#
# PCOD9326272 Si02
#       8
#    16   8  16  16  16   4  16  16
#     4   9  18  34  64  91 119 164 222 273 315 388
#     4  10  18  40  73  90 122 176 224 260 333 416
#     4   8  16  35  62  95 115 168 223 267 306 389
#     4  12  23  38  61  96 129 176 221 273 337 414
#     4  11  23  40  59  91 134 174 224 289 333 379
#     4  12  28  44  66 104 148 166 200 298 352 400
#     4  10  20  35  64  93 123 168 229 268 328 392
#     4  11  22  41  67  96 138 171 217 275 345 409
#
# _framework density 19.912865
#
# number of rings (size 3 to 8) (size 9 to 14) (size 15 to 20)
#    0.000    1.778    5.185    2.667    0.000    2.370 
#    0.000    2.222    0.000    0.000    0.000    0.000 
#    0.000    0.000    0.000    0.000    0.000    0.000 
#
# Total GULP energy -150376.767483 kJ/mol
# GULP energy per Si atom -5569.509907 kJ/mol
# Density = 1.986754 g / cm^3
# Si number density = 19.912865 Si / 1000 Ang^3
#
#
#
# Elastic Constant Matrix: (Units=GPa)
#
#
# Indices 1 2 3 4 5 6 
#
# 1 141.5522 19.9119 40.5077 0.0000 0.0000 0.0000
# 2 19.9119 62.5223 19.2795 0.0000 0.0000 0.0000
# 3 40.5077 19.2795 115.5386 0.0000 0.0000 0.0000
# 4 0.0000 0.0000 0.0000 22.3730 0.0000 0.0000
# 5 0.0000 0.0000 0.0000 0.0000 32.4781 0.0000
# 6 0.0000 0.0000 0.0000 0.0000 0.0000 12.2217
#
#
#
# Elastic Compliance Matrix: (Units=1/GPa)
#
#
# Indices 1 2 3 4 5 6 
#
# 1 0.008036 -0.001782 -0.002520 0.000000 0.000000 0.000000
# 2 -0.001782 0.017257 -0.002255 0.000000 0.000000 0.000000
# 3 -0.002520 -0.002255 0.009915 0.000000 0.000000 0.000000
# 4 0.000000 0.000000 0.000000 0.044697 0.000000 0.000000
# 5 0.000000 0.000000 0.000000 0.000000 0.030790 0.000000
# 6 0.000000 0.000000 0.000000 0.000000 0.000000 0.081822
#
#
# Mechanical properties :
#
#
# Convention : Reuss Voigt Hill
#
# Bulk Modulus (GPa) = 45.26094 53.22347 49.24220
# Shear Modulus (GPa) = 23.47461 29.40884 26.44172
#
# Velocity S-wave (km/s) = 3.43719 3.84718 3.64795
# Velocity P-wave (km/s) = 6.20735 6.82060 6.52119
#
# Compressibility (1/GPa) = 0.02209411
#
# Stress axis : x y z
#
# Youngs Moduli (GPa) = 124.43336 57.94682 100.85807
#
# Poissons Ratio (x) = 0.10328 0.25418
# Poissons Ratio (y) = 0.22178 0.22741
# Poissons Ratio (z) = 0.31359 0.13066
#
# Static dielectric constant tensor:
#      x y z
#    x 1.512910 0.000000 0.000000 
#    y 0.000000 1.702330 0.000000 
#    z 0.000000 0.000000 1.745730 
# 
# From -- ./inp_files/20350.got.cif
#   From: 2010.05.17/outbox.cif.g08.bks.cpg/sg22_11_cif.got.tgz:20350.got - 2010.06.03 23:40:54.
