data_PCOD9326150
_publ_section_title
;
Structure prediction by ZEFSAII (Michael W. Deem and Ramdas Pophale) SiO2 
 PCOD9326150
Probable space group: F 2 2 2
;
_chemical_formula_sum "Si O2"
_cell_formula_units_Z 96
_cell_length_a 20.366527
_cell_length_b 17.661069
_cell_length_c 14.890542
_cell_angle_alpha 90.000000
_cell_angle_beta 90.000000
_cell_angle_gamma 90.000000
_cell_volume 5356.048124
_symmetry_space_group_name_H-M "F 2 2 2"
_symmetry_group_IT_number 22
_symmetry_cell_setting 'orthorhombic'
loop_
_space_group_symop_operation_xyz
x,y,z
-x,-y,z
x,-y,-z
-x,y,-z
x,1/2+y,1/2+z
-x,1/2-y,1/2+z
x,1/2-y,1/2-z
-x,1/2+y,1/2-z
1/2+x,y,1/2+z
1/2-x,-y,1/2+z
1/2+x,-y,1/2-z
1/2-x,y,1/2-z
1/2+x,1/2+y,z
1/2-x,1/2-y,z
1/2+x,1/2-y,-z
1/2-x,1/2+y,-z
loop_
_atom_site_type_symbol
_atom_site_label
_atom_site_fract_x
_atom_site_fract_y
_atom_site_fract_z
Si Si1 0.095809 0.848613 0.948077
Si Si2 0.411038 0.071152 0.134142
Si Si3 0.826479 0.836894 0.226594
Si Si4 0.935284 0.905558 0.680825
Si Si5 0.077830 0.685231 0.019501
Si Si6 0.465117 0.082692 0.617147
O O1 0.152491 0.859067 0.874557
O O2 0.025706 0.858337 0.895959
O O3 0.105415 0.764797 0.987185
O O4 0.083548 0.903989 0.033109
O O5 0.366225 0.108583 0.208662
O O6 0.486801 0.086901 0.160845
O O7 0.403824 0.981199 0.138740
O O8 0.398528 0.114906 0.041418
O O9 0.846480 0.750000 0.250000
O O10 0.750000 0.842845 0.250000
O O11 0.911423 0.834212 0.623539
O O12 0.929933 0.905197 0.787918
O O13 0.000000 0.690280 0.000000
O O14 0.500000 0.000000 0.616539
#
# Coordination Sequence:
#
# PCOD9326150 Si02
#       6
#    16  16  16  16  16  16
#     4  11  20  33  51  79 113 145 184 241 286 353
#     4  10  18  34  53  78 115 144 192 237 289 351
#     4  11  22  36  58  82 109 153 199 244 291 341
#     4  10  19  32  54  81 112 155 176 231 309 363
#     4  10  19  30  49  80 111 146 183 231 289 348
#     4  11  20  34  52  82 118 157 178 228 313 374
#
# _framework density 17.923662
#
# number of rings (size 3 to 8) (size 9 to 14) (size 15 to 20)
#    0.000    1.500    6.667    1.500    0.000    2.667 
#    0.000    0.000    0.000    8.000    0.000    0.000 
#    0.000    0.000    0.000    0.000    0.000    0.000 
#
# Total GULP energy -133781.617033 kJ/mol
# GULP energy per Si atom -5574.234043 kJ/mol
# Density = 1.788287 g / cm^3
# Si number density = 17.923662 Si / 1000 Ang^3
#
#
#
# Elastic Constant Matrix: (Units=GPa)
#
#
# Indices 1 2 3 4 5 6 
#
# 1 36.8234 31.0753 28.9938 0.0000 0.0000 0.0000
# 2 31.0753 73.7221 49.2213 0.0000 0.0000 0.0000
# 3 28.9938 49.2213 158.7898 0.0000 0.0000 0.0000
# 4 0.0000 0.0000 0.0000 29.8902 0.0000 0.0000
# 5 0.0000 0.0000 0.0000 0.0000 19.1133 0.0000
# 6 0.0000 0.0000 0.0000 0.0000 0.0000 16.9650
#
#
#
# Elastic Compliance Matrix: (Units=1/GPa)
#
#
# Indices 1 2 3 4 5 6 
#
# 1 0.043132 -0.016295 -0.002824 0.000000 0.000000 0.000000
# 2 -0.016295 0.023261 -0.004235 0.000000 0.000000 0.000000
# 3 -0.002824 -0.004235 0.008126 0.000000 0.000000 0.000000
# 4 0.000000 0.000000 0.000000 0.033456 0.000000 0.000000
# 5 0.000000 0.000000 0.000000 0.000000 0.052320 0.000000
# 6 0.000000 0.000000 0.000000 0.000000 0.000000 0.058945
#
#
# Mechanical properties :
#
#
# Convention : Reuss Voigt Hill
#
# Bulk Modulus (GPa) = 35.95866 54.21288 45.08577
# Shear Modulus (GPa) = 18.16739 23.86335 21.01537
#
# Velocity S-wave (km/s) = 3.18716 3.65278 3.42788
# Velocity P-wave (km/s) = 5.80083 6.93560 6.39344
#
# Compressibility (1/GPa) = 0.02780971
#
# Stress axis : x y z
#
# Youngs Moduli (GPa) = 23.18454 42.99091 123.06060
#
# Poissons Ratio (x) = 0.70055 0.34758
# Poissons Ratio (y) = 0.37780 0.52115
# Poissons Ratio (z) = 0.06548 0.18206
#
# Static dielectric constant tensor:
#      x y z
#    x 1.580480 0.000000 0.000000 
#    y 0.000000 1.659540 0.000000 
#    z 0.000000 0.000000 1.654520 
# 
# From -- ./inp_files/31512.got.cif
#   From: 2010.05.17/outbox.cif.g08.bks.cpg/sg22_16_cif.got.tgz:31512.got - 2010.06.03 23:40:54.
