data_PCOD9326561
_publ_section_title
;
Structure prediction by ZEFSAII (Michael W. Deem and Ramdas Pophale) SiO2 
 PCOD9326561
Probable space group: F 2 2 2
;
_chemical_formula_sum "Si O2"
_cell_formula_units_Z 76
_cell_length_a 23.399569
_cell_length_b 29.051612
_cell_length_c 5.618285
_cell_angle_alpha 90.000000
_cell_angle_beta 90.000000
_cell_angle_gamma 90.000000
_cell_volume 3819.283173
_symmetry_space_group_name_H-M "F 2 2 2"
_symmetry_group_IT_number 22
_symmetry_cell_setting 'orthorhombic'
loop_
_space_group_symop_operation_xyz
x,y,z
-x,-y,z
x,-y,-z
-x,y,-z
x,1/2+y,1/2+z
-x,1/2-y,1/2+z
x,1/2-y,1/2-z
-x,1/2+y,1/2-z
1/2+x,y,1/2+z
1/2-x,-y,1/2+z
1/2+x,-y,1/2-z
1/2-x,y,1/2-z
1/2+x,1/2+y,z
1/2-x,1/2-y,z
1/2+x,1/2-y,-z
1/2-x,1/2+y,-z
loop_
_atom_site_type_symbol
_atom_site_label
_atom_site_fract_x
_atom_site_fract_y
_atom_site_fract_z
Si Si1 0.438291 0.168294 0.952922
Si Si2 0.000000 0.000000 0.500000
Si Si3 0.050691 0.579288 0.693621
Si Si4 0.362248 0.372412 0.953116
Si Si5 0.675102 0.299397 0.645283
Si Si6 0.750000 0.652771 0.750000
O O1 0.414850 0.149640 0.698790
O O2 0.500000 0.190800 0.000000
O O3 0.444311 0.123234 0.126915
O O4 0.386496 0.202114 0.016382
O O5 0.037908 0.966280 0.660224
O O6 0.110979 0.581759 0.560181
O O7 0.000000 0.583973 0.500000
O O8 0.305596 0.378027 0.799553
O O9 0.339045 0.337335 0.153439
O O10 0.687336 0.250000 0.750000
O O11 0.724659 0.315748 0.464353
#
# Coordination Sequence:
#
# PCOD9326561 Si02
#       6
#    16   4  16  16  16   8
#     4  10  19  37  57  85 126 164 202 250 313 390
#     4  12  22  32  60  98 132 152 198 252 316 392
#     4  11  20  36  59  89 132 156 195 252 316 386
#     4  10  21  37  61  85 125 159 211 261 311 370
#     4  10  23  38  56  91 119 168 215 270 318 363
#     4  10  22  39  60  84 122 160 230 262 312 376
#
# _framework density 19.899021999999999
#
# number of rings (size 3 to 8) (size 9 to 14) (size 15 to 20)
#    0.000    1.684    3.158    0.947    0.000    5.895 
#    3.789    0.000    0.000    0.000    0.000    0.000 
#  713.684    0.000    0.000    0.000    0.000    0.000 
#
# Total GULP energy -105813.214155 kJ/mol
# GULP energy per Si atom -5569.116534 kJ/mol
# Density = 1.985373 g / cm^3
# Si number density = 19.899022 Si / 1000 Ang^3
#
#
#
# Elastic Constant Matrix: (Units=GPa)
#
#
# Indices 1 2 3 4 5 6 
#
# 1 177.0822 56.0470 51.8239 0.0252 -0.0095 0.0402
# 2 56.0470 87.9266 44.1218 -0.0311 0.0279 0.0407
# 3 51.8239 44.1218 99.4661 -0.0184 0.0177 0.0411
# 4 0.0252 -0.0311 -0.0184 16.8598 0.0382 0.0443
# 5 -0.0095 0.0279 0.0177 0.0382 49.1865 -0.0453
# 6 0.0402 0.0407 0.0411 0.0443 -0.0453 15.6713
#
#
#
# Elastic Compliance Matrix: (Units=1/GPa)
#
#
# Indices 1 2 3 4 5 6 
#
# 1 0.007458 -0.003607 -0.002286 -0.000020 0.000004 -0.000004
# 2 -0.003607 0.016374 -0.005384 0.000030 -0.000008 -0.000019
# 3 -0.002286 -0.005384 0.013633 0.000008 -0.000002 -0.000016
# 4 -0.000020 0.000030 0.000008 0.059313 -0.000046 -0.000168
# 5 0.000004 -0.000008 -0.000002 -0.000046 0.020331 0.000059
# 6 -0.000004 -0.000019 -0.000016 -0.000168 0.000059 0.063812
#
#
# Mechanical properties :
#
#
# Convention : Reuss Voigt Hill
#
# Bulk Modulus (GPa) = 67.06251 74.27337 70.66794
# Shear Modulus (GPa) = 23.98732 30.50899 27.24816
#
# Velocity S-wave (km/s) = 3.47573 3.91985 3.70445
# Velocity P-wave (km/s) = 7.06273 7.60875 7.34082
#
# Compressibility (1/GPa) = 0.01491146
#
# Stress axis : x y z
#
# Youngs Moduli (GPa) = 134.09247 61.07275 73.35219
#
# Poissons Ratio (x) = 0.22027 0.16766
# Poissons Ratio (y) = 0.48363 0.39493
# Poissons Ratio (z) = 0.30649 0.32882
#
# Static dielectric constant tensor:
#      x y z
#    x 1.783050 0.000030 0.000120 
#    y 0.000030 1.640990 -0.000060 
#    z 0.000120 -0.000060 1.890330 
# 
# From -- ./inp_files/4793.got.cif
#   From: 2010.05.17/outbox.cif.g08.bks.cpg/sg22_3_cif.got.tgz:4793.got - 2010.06.03 23:40:54.
