data_PCOD9326118
_publ_section_title
;
Structure prediction by ZEFSAII (Michael W. Deem and Ramdas Pophale) SiO2 
 PCOD9326118
Probable space group: F 2 2 2
;
_chemical_formula_sum "Si O2"
_cell_formula_units_Z 88
_cell_length_a 14.494133
_cell_length_b 17.019508
_cell_length_c 18.170087
_cell_angle_alpha 90.000000
_cell_angle_beta 90.000000
_cell_angle_gamma 90.000000
_cell_volume 4482.251799
_symmetry_space_group_name_H-M "F 2 2 2"
_symmetry_group_IT_number 22
_symmetry_cell_setting 'orthorhombic'
loop_
_space_group_symop_operation_xyz
x,y,z
-x,-y,z
x,-y,-z
-x,y,-z
x,1/2+y,1/2+z
-x,1/2-y,1/2+z
x,1/2-y,1/2-z
-x,1/2+y,1/2-z
1/2+x,y,1/2+z
1/2-x,-y,1/2+z
1/2+x,-y,1/2-z
1/2-x,y,1/2-z
1/2+x,1/2+y,z
1/2-x,1/2-y,z
1/2+x,1/2-y,-z
1/2-x,1/2+y,-z
loop_
_atom_site_type_symbol
_atom_site_label
_atom_site_fract_x
_atom_site_fract_y
_atom_site_fract_z
Si Si1 0.622598 0.917699 0.620109
Si Si2 0.219767 0.336829 0.483010
Si Si3 0.914773 0.415715 0.958970
Si Si4 0.908691 0.395419 0.639074
Si Si5 0.750000 0.061253 0.250000
Si Si6 0.911074 0.450284 0.791633
O O1 0.668835 0.883693 0.547545
O O2 0.517683 0.887625 0.624786
O O3 0.685618 0.895361 0.690768
O O4 0.618267 0.013356 0.620153
O O5 0.250000 0.250000 0.505644
O O6 0.315641 0.378257 0.465242
O O7 0.153147 0.340380 0.411928
O O8 0.935468 0.421915 0.872546
O O9 0.908028 0.500000 0.000000
O O10 0.000000 0.373675 0.000000
O O11 0.892355 0.388421 0.726739
O O12 0.821898 0.006440 0.294742
O O13 0.000000 0.500000 0.764665
#
# Coordination Sequence:
#
# PCOD9326118 Si02
#       6
#    16  16  16  16   8  16
#     4  10  20  37  68  93 120 153 207 271 321 367
#     4  12  26  40  56  83 127 173 207 250 316 383
#     4  11  22  37  62  90 121 156 201 260 316 371
#     4  10  20  39  65  96 117 154 212 270 314 361
#     4  10  18  32  63  96 127 148 196 266 326 376
#     4  11  18  35  60  98 123 147 195 259 325 371
#
# _framework density 19.632988999999998
#
# number of rings (size 3 to 8) (size 9 to 14) (size 15 to 20)
#    0.000    1.273    5.455    5.455    0.000    2.909 
#    0.000    2.273    0.000    2.182    0.000    0.000 
#    0.000    0.000    0.000    0.000    0.000    0.000 
#
# Total GULP energy -122791.782081 kJ/mol
# GULP energy per Si atom -5581.444640 kJ/mol
# Density = 1.958830 g / cm^3
# Si number density = 19.632989 Si / 1000 Ang^3
#
#
#
# Elastic Constant Matrix: (Units=GPa)
#
#
# Indices 1 2 3 4 5 6 
#
# 1 138.8885 3.7160 38.3122 0.0000 0.0000 0.0000
# 2 3.7160 7.7698 3.9137 0.0000 0.0000 0.0000
# 3 38.3122 3.9137 152.6818 0.0000 0.0000 0.0000
# 4 0.0000 0.0000 0.0000 -12.6784 0.0000 0.0000
# 5 0.0000 0.0000 0.0000 0.0000 -62.5171 0.0000
# 6 0.0000 0.0000 0.0000 0.0000 0.0000 -2.7214
#
#
#
# Elastic Compliance Matrix: (Units=1/GPa)
#
#
# Indices 1 2 3 4 5 6 
#
# 1 0.007794 -0.002778 -0.001885 0.000000 0.000000 0.000000
# 2 -0.002778 0.131377 -0.002670 0.000000 0.000000 0.000000
# 3 -0.001885 -0.002670 0.007091 0.000000 0.000000 0.000000
# 4 0.000000 0.000000 0.000000 -0.078875 0.000000 0.000000
# 5 0.000000 0.000000 0.000000 0.000000 -0.015996 0.000000
# 6 0.000000 0.000000 0.000000 0.000000 0.000000 -0.367460
#
#
# Mechanical properties :
#
#
# Convention : Reuss Voigt Hill
#
# Bulk Modulus (GPa) = 7.59907 43.46931 25.53419
# Shear Modulus (GPa) = -19.41467 1.30986 -9.05241
#
# Velocity S-wave (km/s) = -3.14806 0.81769 -2.14961
# Velocity P-wave (km/s) = 3.05528 4.80422 2.62162
#
# Compressibility (1/GPa) = 0.13159514
#
# Stress axis : x y z
#
# Youngs Moduli (GPa) = 128.30031 7.61170 141.02559
#
# Poissons Ratio (x) = 0.02115 0.26577
# Poissons Ratio (y) = 0.35647 0.37659
# Poissons Ratio (z) = 0.24179 0.02033
#
# Static dielectric constant tensor:
#      x y z
#    x 1.725100 0.000000 0.000000 
#    y 0.000000 1.787830 0.000000 
#    z 0.000000 0.000000 1.721330 
# 
# From -- ./inp_files/37151.got.cif
#   From: 2010.05.17/outbox.cif.g08.bks.cpg/sg22_19_cif.got.tgz:37151.got - 2010.06.03 23:40:54.
