data_PCOD9326935
_publ_section_title
;
Structure prediction by ZEFSAII (Michael W. Deem and Ramdas Pophale) SiO2 
 PCOD9326935
Probable space group: F 2 2 2
;
_chemical_formula_sum "Si O2"
_cell_formula_units_Z 72
_cell_length_a 19.483035
_cell_length_b 7.211854
_cell_length_c 22.076371
_cell_angle_alpha 90.000000
_cell_angle_beta 90.000000
_cell_angle_gamma 90.000000
_cell_volume 3101.924484
_symmetry_space_group_name_H-M "F 2 2 2"
_symmetry_group_IT_number 22
_symmetry_cell_setting 'orthorhombic'
loop_
_space_group_symop_operation_xyz
x,y,z
-x,-y,z
x,-y,-z
-x,y,-z
x,1/2+y,1/2+z
-x,1/2-y,1/2+z
x,1/2-y,1/2-z
-x,1/2+y,1/2-z
1/2+x,y,1/2+z
1/2-x,-y,1/2+z
1/2+x,-y,1/2-z
1/2-x,y,1/2-z
1/2+x,1/2+y,z
1/2-x,1/2-y,z
1/2+x,1/2-y,-z
1/2-x,1/2+y,-z
loop_
_atom_site_type_symbol
_atom_site_label
_atom_site_fract_x
_atom_site_fract_y
_atom_site_fract_z
Si Si1 0.329093 0.930308 0.356558
Si Si2 0.500000 0.000000 0.500000
Si Si3 0.750000 0.250000 0.458650
Si Si4 0.053899 0.193768 0.594078
Si Si5 0.447505 0.326080 0.183260
Si Si6 0.133452 0.500000 0.000000
Si Si7 0.250000 0.750000 0.250000
O O1 0.277337 0.912250 0.413277
O O2 0.381167 0.759672 0.367031
O O3 0.291942 0.883894 0.294315
O O4 0.377702 0.107254 0.348962
O O5 0.540422 0.860155 0.544829
O O6 0.685510 0.326406 0.496022
O O7 0.081680 0.021628 0.555760
O O8 0.990217 0.192943 0.639381
O O9 0.500000 0.500000 0.189782
O O10 0.433892 0.250000 0.250000
#
# Coordination Sequence:
#
# PCOD9326935 Si02
#       7
#    16   4   8  16  16   8   4
#     4   9  19  39  65  93 132 181 224 272 345 407
#     4  12  20  44  68  88 138 178 220 274 374 398
#     4   9  20  41  68  94 134 187 227 278 344 414
#     4  10  22  41  67  99 132 180 225 289 350 403
#     4  10  21  42  66  98 134 177 220 283 353 405
#     4  10  22  42  66 102 138 172 236 278 340 416
#     4  10  20  36  70  92 132 184 224 270 334 400
#
# _framework density 23.211395
#
# number of rings (size 3 to 8) (size 9 to 14) (size 15 to 20)
#    0.000    2.222    3.333    0.000    6.222    4.000 
#    4.000    0.556    4.889    0.000    0.000    0.000 
#    0.000    0.000    0.000    0.000    0.000    0.000 
#
# Total GULP energy -100528.506750 kJ/mol
# GULP energy per Si atom -5584.917042 kJ/mol
# Density = 2.315856 g / cm^3
# Si number density = 23.211395 Si / 1000 Ang^3
#
#
#
# Elastic Constant Matrix: (Units=GPa)
#
#
# Indices 1 2 3 4 5 6 
#
# 1 118.6115 38.5205 69.0213 0.0000 0.0000 0.0000
# 2 38.5205 70.8525 55.0294 0.0000 0.0000 -0.0001
# 3 69.0213 55.0294 139.9719 0.0000 0.0000 0.0000
# 4 0.0000 0.0000 0.0000 36.2107 0.0000 0.0000
# 5 0.0000 0.0000 0.0000 0.0000 51.6009 0.0000
# 6 0.0000 -0.0001 0.0000 0.0000 0.0000 20.0408
#
#
#
# Elastic Compliance Matrix: (Units=1/GPa)
#
#
# Indices 1 2 3 4 5 6 
#
# 1 0.012204 -0.002823 -0.004908 0.000000 0.000000 0.000000
# 2 -0.002823 0.020971 -0.006853 0.000000 0.000000 0.000000
# 3 -0.004908 -0.006853 0.012258 0.000000 0.000000 0.000000
# 4 0.000000 0.000000 0.000000 0.027616 0.000000 0.000000
# 5 0.000000 0.000000 0.000000 0.000000 0.019380 0.000000
# 6 0.000000 0.000000 0.000000 0.000000 0.000000 0.049898
#
#
# Mechanical properties :
#
#
# Convention : Reuss Voigt Hill
#
# Bulk Modulus (GPa) = 61.47748 72.73091 67.10419
# Shear Modulus (GPa) = 28.26206 32.69479 30.47842
#
# Velocity S-wave (km/s) = 3.49319 3.75716 3.62758
# Velocity P-wave (km/s) = 6.54318 7.08688 6.82045
#
# Compressibility (1/GPa) = 0.01626612
#
# Stress axis : x y z
#
# Youngs Moduli (GPa) = 81.94301 47.68534 81.57631
#
# Poissons Ratio (x) = 0.13461 0.40037
# Poissons Ratio (y) = 0.23132 0.55901
# Poissons Ratio (z) = 0.40217 0.32677
#
# Static dielectric constant tensor:
#      x y z
#    x 1.870810 0.000000 0.000000 
#    y 0.000000 2.044070 0.000000 
#    z 0.000000 0.000000 1.877790 
# 
# From -- ./inp_files/11496.got.cif
#   From: 2010.05.17/outbox.cif.g08.bks.cpg/sg22_6_cif.got.tgz:11496.got - 2010.06.03 23:40:54.
