data_PCOD9326598
_publ_section_title
;
Structure prediction by ZEFSAII (Michael W. Deem and Ramdas Pophale) SiO2 
 PCOD9326598
Probable space group: F 2 2 2
;
_chemical_formula_sum "Si O2"
_cell_formula_units_Z 108
_cell_length_a 12.461338
_cell_length_b 22.594672
_cell_length_c 19.752716
_cell_angle_alpha 90.000000
_cell_angle_beta 90.000000
_cell_angle_gamma 90.000000
_cell_volume 5561.571651
_symmetry_space_group_name_H-M "F 2 2 2"
_symmetry_group_IT_number 22
_symmetry_cell_setting 'orthorhombic'
loop_
_space_group_symop_operation_xyz
x,y,z
-x,-y,z
x,-y,-z
-x,y,-z
x,1/2+y,1/2+z
-x,1/2-y,1/2+z
x,1/2-y,1/2-z
-x,1/2+y,1/2-z
1/2+x,y,1/2+z
1/2-x,-y,1/2+z
1/2+x,-y,1/2-z
1/2-x,y,1/2-z
1/2+x,1/2+y,z
1/2-x,1/2-y,z
1/2+x,1/2-y,-z
1/2-x,1/2+y,-z
loop_
_atom_site_type_symbol
_atom_site_label
_atom_site_fract_x
_atom_site_fract_y
_atom_site_fract_z
Si Si1 0.126000 0.127652 0.510312
Si Si2 0.894886 0.818016 0.276238
Si Si3 0.250000 0.250000 0.750000
Si Si4 0.501898 0.335920 0.134600
Si Si5 0.238361 0.179838 0.111141
Si Si6 0.569615 0.548536 0.929351
Si Si7 0.771326 0.500000 0.000000
Si Si8 0.096370 0.205881 0.637874
O O1 0.193237 0.157188 0.450832
O O2 0.145202 0.164877 0.579402
O O3 0.000000 0.134495 0.500000
O O4 0.156816 0.058619 0.502221
O O5 0.877227 0.750000 0.250000
O O6 0.959289 0.844055 0.211890
O O7 0.788986 0.840762 0.316426
O O8 0.983139 0.818678 0.335761
O O9 0.175932 0.210996 0.701333
O O10 0.385609 0.335406 0.098441
O O11 0.572349 0.389800 0.108378
O O12 0.564641 0.274451 0.121563
O O13 0.250000 0.250000 0.114464
O O14 0.500000 0.500000 0.889851
O O15 0.500000 0.558321 0.000000
O O16 0.683791 0.517859 0.942383
#
# Coordination Sequence:
#
# PCOD9326598 Si02
#       8
#    16  16   4  16  16  16   8  16
#     4  12  25  42  63  96 128 170 228 284 335 418
#     4  10  19  38  57  92 134 180 204 264 334 415
#     4  12  24  44  60  94 144 188 210 268 366 406
#     4  11  21  37  65  94 131 173 221 274 335 406
#     4  12  21  35  63  97 134 171 213 265 342 401
#     4   9  20  41  60  90 126 162 223 272 329 390
#     4  10  24  42  66  82 118 178 214 286 350 384
#     4  11  24  40  62  95 139 171 223 271 345 423
#
# _framework density 19.418972
#
# number of rings (size 3 to 8) (size 9 to 14) (size 15 to 20)
#    0.000    1.333    6.667    2.444    3.111    1.778 
#    0.000    0.000    3.259    0.000    3.852    0.000 
#    0.000    0.000    0.000    0.000    0.000    0.000 
#
# Total GULP energy -150347.138164 kJ/mol
# GULP energy per Si atom -5568.412525 kJ/mol
# Density = 1.937477 g / cm^3
# Si number density = 19.418972 Si / 1000 Ang^3
#
#
#
# Elastic Constant Matrix: (Units=GPa)
#
#
# Indices 1 2 3 4 5 6 
#
# 1 72.0749 27.2218 29.2493 0.0000 0.0000 0.0000
# 2 27.2218 101.3282 58.2035 0.0000 0.0000 0.0000
# 3 29.2493 58.2035 105.7876 0.0000 0.0000 0.0000
# 4 0.0000 0.0000 0.0000 3.4874 0.0000 0.0000
# 5 0.0000 0.0000 0.0000 0.0000 35.5596 0.0000
# 6 0.0000 0.0000 0.0000 0.0000 0.0000 32.0479
#
#
#
# Elastic Compliance Matrix: (Units=1/GPa)
#
#
# Indices 1 2 3 4 5 6 
#
# 1 0.016077 -0.002582 -0.003025 0.000000 0.000000 0.000000
# 2 -0.002582 0.014844 -0.007453 0.000000 0.000000 0.000000
# 3 -0.003025 -0.007453 0.014390 0.000000 0.000000 0.000000
# 4 0.000000 0.000000 0.000000 0.286750 0.000000 0.000000
# 5 0.000000 0.000000 0.000000 0.000000 0.028122 0.000000
# 6 0.000000 0.000000 0.000000 0.000000 0.000000 0.031203
#
#
# Mechanical properties :
#
#
# Convention : Reuss Voigt Hill
#
# Bulk Modulus (GPa) = 52.10624 56.50443 54.30533
# Shear Modulus (GPa) = 11.79519 25.18669 18.49094
#
# Velocity S-wave (km/s) = 2.46723 3.60532 3.08914
# Velocity P-wave (km/s) = 5.91669 6.81849 6.38353
#
# Compressibility (1/GPa) = 0.01919156
#
# Stress axis : x y z
#
# Youngs Moduli (GPa) = 62.20060 67.36942 69.49367
#
# Poissons Ratio (x) = 0.17393 0.21020
# Poissons Ratio (y) = 0.16058 0.51794
# Poissons Ratio (z) = 0.18814 0.50210
#
# Static dielectric constant tensor:
#      x y z
#    x 1.755390 0.000000 0.000000 
#    y 0.000000 1.619630 0.000000 
#    z 0.000000 0.000000 1.731920 
# 
# From -- ./inp_files/42915.got.cif
#   From: 2010.05.17/outbox.cif.g08.bks.cpg/sg22_22_cif.got.tgz:42915.got - 2010.06.03 23:40:54.
