data_PCOD9326530
_publ_section_title
;
Structure prediction by ZEFSAII (Michael W. Deem and Ramdas Pophale) SiO2 
 PCOD9326530
Probable space group: F 2 2 2
;
_chemical_formula_sum "Si O2"
_cell_formula_units_Z 92
_cell_length_a 23.456400
_cell_length_b 15.208454
_cell_length_c 11.954215
_cell_angle_alpha 90.000000
_cell_angle_beta 90.000000
_cell_angle_gamma 90.000000
_cell_volume 4264.493826
_symmetry_space_group_name_H-M "F 2 2 2"
_symmetry_group_IT_number 22
_symmetry_cell_setting 'orthorhombic'
loop_
_space_group_symop_operation_xyz
x,y,z
-x,-y,z
x,-y,-z
-x,y,-z
x,1/2+y,1/2+z
-x,1/2-y,1/2+z
x,1/2-y,1/2-z
-x,1/2+y,1/2-z
1/2+x,y,1/2+z
1/2-x,-y,1/2+z
1/2+x,-y,1/2-z
1/2-x,y,1/2-z
1/2+x,1/2+y,z
1/2-x,1/2-y,z
1/2+x,1/2-y,-z
1/2-x,1/2+y,-z
loop_
_atom_site_type_symbol
_atom_site_label
_atom_site_fract_x
_atom_site_fract_y
_atom_site_fract_z
Si Si1 0.541650 0.250000 0.750000
Si Si2 0.250000 0.540480 0.750000
Si Si3 0.384817 0.788074 0.525519
Si Si4 0.901312 0.500000 0.000000
Si Si5 0.192329 0.137750 0.429666
Si Si6 0.041216 0.352141 0.893905
Si Si7 0.700865 0.392786 0.090931
Si Si8 0.250000 0.250000 0.750000
O O1 0.577902 0.217965 0.640461
O O2 0.498653 0.326330 0.708747
O O3 0.206866 0.605908 0.808068
O O4 0.285694 0.478433 0.834384
O O5 0.326608 0.736832 0.556619
O O6 0.416310 0.728581 0.429325
O O7 0.359292 0.877840 0.472335
O O8 0.861848 0.421194 0.960107
O O9 0.932881 0.549542 0.897847
O O10 0.245182 0.113227 0.507881
O O11 0.000000 0.356491 0.000000
O O12 0.709911 0.311634 0.175764
#
# Coordination Sequence:
#
# PCOD9326530 Si02
#       8
#     8   8  16   8  16  16  16   4
#     4  10  22  41  61  96 117 164 223 290 332 372
#     4  11  24  35  61  88 143 176 206 249 316 367
#     4  10  22  38  64  92 127 172 214 270 337 381
#     4  10  19  36  62  86 122 172 201 264 322 368
#     4  11  21  39  55  97 134 169 214 257 308 409
#     4   9  20  38  61  89 121 155 222 279 315 379
#     4  11  21  39  59  94 138 170 216 261 302 410
#     4  10  20  34  60  86 126 180 220 238 316 354
#
# _framework density 21.573485999999999
#
# number of rings (size 3 to 8) (size 9 to 14) (size 15 to 20)
#    0.000    1.739    3.478    0.261    2.435    2.087 
#    0.000    0.000    0.000    0.000    0.000    0.000 
#    0.000    0.000    0.000    0.000    0.000    0.000 
#
# Total GULP energy -128172.266395 kJ/mol
# GULP energy per Si atom -5572.707235 kJ/mol
# Density = 2.152438 g / cm^3
# Si number density = 21.573486 Si / 1000 Ang^3
#
#
#
# Elastic Constant Matrix: (Units=GPa)
#
#
# Indices 1 2 3 4 5 6 
#
# 1 62.8363 3.6893 40.2062 0.0000 0.0000 0.0000
# 2 3.6893 38.6854 27.9528 0.0000 0.0000 0.0000
# 3 40.2062 27.9528 77.4310 0.0000 0.0000 0.0000
# 4 0.0000 0.0000 0.0000 21.6401 0.0000 0.0000
# 5 0.0000 0.0000 0.0000 0.0000 34.7298 0.0000
# 6 0.0000 0.0000 0.0000 0.0000 0.0000 -2.0707
#
#
#
# Elastic Compliance Matrix: (Units=1/GPa)
#
#
# Indices 1 2 3 4 5 6 
#
# 1 0.026412 0.009999 -0.017324 0.000000 0.000000 0.000000
# 2 0.009999 0.038757 -0.019184 0.000000 0.000000 0.000000
# 3 -0.017324 -0.019184 0.028836 0.000000 0.000000 0.000000
# 4 0.000000 0.000000 0.000000 0.046210 0.000000 0.000000
# 5 0.000000 0.000000 0.000000 0.000000 0.028794 0.000000
# 6 0.000000 0.000000 0.000000 0.000000 0.000000 -0.482934
#
#
# Mechanical properties :
#
#
# Convention : Reuss Voigt Hill
#
# Bulk Modulus (GPa) = 24.39744 35.84992 30.12368
# Shear Modulus (GPa) = -20.22297 18.00014 -1.11141
#
# Velocity S-wave (km/s) = -3.06502 2.89167 -0.71854
# Velocity P-wave (km/s) = 1.09190 5.27282 3.64763
#
# Compressibility (1/GPa) = 0.04098791
#
# Stress axis : x y z
#
# Youngs Moduli (GPa) = 37.86098 25.80152 34.67913
#
# Poissons Ratio (x) = -0.25799 0.60080
# Poissons Ratio (y) = -0.37858 0.66527
# Poissons Ratio (z) = 0.65592 0.49497
#
# Static dielectric constant tensor:
#      x y z
#    x 1.990330 0.000000 0.000000 
#    y 0.000000 1.886530 0.000000 
#    z 0.000000 0.000000 2.148280 
# 
# From -- ./inp_files/22679.got.cif
#   From: 2010.05.17/outbox.cif.g08.bks.cpg/sg22_12_cif.got.tgz:22679.got - 2010.06.03 23:40:54.
