data_PCOD9326134
_publ_section_title
;
Structure prediction by ZEFSAII (Michael W. Deem and Ramdas Pophale) SiO2 
 PCOD9326134
Probable space group: F 2 2 2
;
_chemical_formula_sum "Si O2"
_cell_formula_units_Z 84
_cell_length_a 9.663166
_cell_length_b 16.435057
_cell_length_c 22.948694
_cell_angle_alpha 90.000000
_cell_angle_beta 90.000000
_cell_angle_gamma 90.000000
_cell_volume 3644.589586
_symmetry_space_group_name_H-M "F 2 2 2"
_symmetry_group_IT_number 22
_symmetry_cell_setting 'orthorhombic'
loop_
_space_group_symop_operation_xyz
x,y,z
-x,-y,z
x,-y,-z
-x,y,-z
x,1/2+y,1/2+z
-x,1/2-y,1/2+z
x,1/2-y,1/2-z
-x,1/2+y,1/2-z
1/2+x,y,1/2+z
1/2-x,-y,1/2+z
1/2+x,-y,1/2-z
1/2-x,y,1/2-z
1/2+x,1/2+y,z
1/2-x,1/2-y,z
1/2+x,1/2-y,-z
1/2-x,1/2+y,-z
loop_
_atom_site_type_symbol
_atom_site_label
_atom_site_fract_x
_atom_site_fract_y
_atom_site_fract_z
Si Si1 0.256906 0.372401 0.616395
Si Si2 0.840438 0.901496 0.493144
Si Si3 0.498514 0.338051 0.814621
Si Si4 0.250000 0.750000 0.750000
Si Si5 0.224195 0.932259 0.869407
Si Si6 0.009623 0.096625 0.310359
O O1 0.257265 0.362847 0.546832
O O2 0.232147 0.469805 0.627628
O O3 0.412216 0.362349 0.641687
O O4 0.142631 0.320574 0.650803
O O5 0.777491 0.891947 0.429265
O O6 0.000000 0.875724 0.500000
O O7 0.840207 0.000000 0.500000
O O8 0.625978 0.279146 0.796647
O O9 0.571839 0.405348 0.854351
O O10 0.457929 0.375853 0.752277
O O11 0.326507 0.896323 0.819670
O O12 0.000000 0.000000 0.316826
#
# Coordination Sequence:
#
# PCOD9326134 Si02
#       6
#    16  16  16   4  16  16
#     4  10  20  32  59  96 125 152 194 244 294 370
#     4   9  16  30  53  89 132 164 181 217 302 381
#     4  12  23  39  55  81 112 162 213 251 304 348
#     4  12  28  44  58  72 116 184 210 262 318 352
#     4  10  18  33  59  89 129 160 186 235 304 370
#     4  10  18  33  58  90 123 154 188 244 305 360
#
# _framework density 23.047861999999999
#
# number of rings (size 3 to 8) (size 9 to 14) (size 15 to 20)
#    0.000    1.714    3.810    2.286    0.000    3.810 
#    0.000    4.762    0.000    0.000   14.857    0.000 
#    0.000    0.000    0.000    0.000    0.000    0.000 
#
# Total GULP energy -117005.343658 kJ/mol
# GULP energy per Si atom -5571.683031 kJ/mol
# Density = 2.299540 g / cm^3
# Si number density = 23.047862 Si / 1000 Ang^3
#
#
#
# Elastic Constant Matrix: (Units=GPa)
#
#
# Indices 1 2 3 4 5 6 
#
# 1 110.5261 15.7521 25.0607 0.0000 0.0000 0.0000
# 2 15.7521 52.7722 -6.6529 0.0000 0.0000 0.0000
# 3 25.0607 -6.6529 104.6499 0.0000 0.0000 0.0000
# 4 0.0000 0.0000 0.0000 21.9567 0.0000 0.0000
# 5 0.0000 0.0000 0.0000 0.0000 102.0941 0.0000
# 6 0.0000 0.0000 0.0000 0.0000 0.0000 -65.5113
#
#
#
# Elastic Compliance Matrix: (Units=1/GPa)
#
#
# Indices 1 2 3 4 5 6 
#
# 1 0.010124 -0.003354 -0.002638 0.000000 0.000000 0.000000
# 2 -0.003354 0.020214 0.002088 0.000000 0.000000 0.000000
# 3 -0.002638 0.002088 0.010320 0.000000 0.000000 0.000000
# 4 0.000000 0.000000 0.000000 0.045544 0.000000 0.000000
# 5 0.000000 0.000000 0.000000 0.000000 0.009795 0.000000
# 6 0.000000 0.000000 0.000000 0.000000 0.000000 -0.015265
#
#
# Mechanical properties :
#
#
# Convention : Reuss Voigt Hill
#
# Bulk Modulus (GPa) = 30.44103 37.36314 33.90208
# Shear Modulus (GPa) = 50.25642 27.29378 38.77510
#
# Velocity S-wave (km/s) = 4.67467 3.44499 4.10612
# Velocity P-wave (km/s) = 6.50947 5.66306 6.10096
#
# Compressibility (1/GPa) = 0.03285040
#
# Stress axis : x y z
#
# Youngs Moduli (GPa) = 98.77763 49.47091 96.89863
#
# Poissons Ratio (x) = 0.16594 0.25558
# Poissons Ratio (y) = 0.33134 -0.20236
# Poissons Ratio (z) = 0.26054 -0.10331
#
# Static dielectric constant tensor:
#      x y z
#    x 1.812360 0.000000 0.000000 
#    y 0.000000 1.964270 0.000000 
#    z 0.000000 0.000000 1.829340 
# 
# From -- ./inp_files/12573.got.cif
#   From: 2010.05.17/outbox.cif.g08.bks.cpg/sg22_7_cif.got.tgz:12573.got - 2010.06.03 23:40:54.
