data_PCOD9326618
_publ_section_title
;
Structure prediction by ZEFSAII (Michael W. Deem and Ramdas Pophale) SiO2 
 PCOD9326618
Probable space group: F 2 2 2
;
_chemical_formula_sum "Si O2"
_cell_formula_units_Z 108
_cell_length_a 26.181769
_cell_length_b 12.453822
_cell_length_c 15.601547
_cell_angle_alpha 90.000000
_cell_angle_beta 90.000000
_cell_angle_gamma 90.000000
_cell_volume 5087.088636
_symmetry_space_group_name_H-M "F 2 2 2"
_symmetry_group_IT_number 22
_symmetry_cell_setting 'orthorhombic'
loop_
_space_group_symop_operation_xyz
x,y,z
-x,-y,z
x,-y,-z
-x,y,-z
x,1/2+y,1/2+z
-x,1/2-y,1/2+z
x,1/2-y,1/2-z
-x,1/2+y,1/2-z
1/2+x,y,1/2+z
1/2-x,-y,1/2+z
1/2+x,-y,1/2-z
1/2-x,y,1/2-z
1/2+x,1/2+y,z
1/2-x,1/2-y,z
1/2+x,1/2-y,-z
1/2-x,1/2+y,-z
loop_
_atom_site_type_symbol
_atom_site_label
_atom_site_fract_x
_atom_site_fract_y
_atom_site_fract_z
Si Si1 0.163427 0.324989 0.625483
Si Si2 0.924061 0.750000 0.750000
Si Si3 0.446561 0.339309 0.457150
Si Si4 0.250000 0.250000 0.750000
Si Si5 0.315587 0.462262 0.337526
Si Si6 0.575590 0.945249 0.864852
Si Si7 0.297587 0.458711 0.135810
Si Si8 0.155986 0.748713 0.942926
O O1 0.112241 0.297204 0.675910
O O2 0.211016 0.313472 0.689999
O O3 0.165503 0.449180 0.600332
O O4 0.168837 0.250130 0.543368
O O5 0.947815 0.856348 0.701854
O O6 0.500000 0.303228 0.500000
O O7 0.449030 0.435212 0.384889
O O8 0.422817 0.395362 0.540810
O O9 0.405998 0.247970 0.431910
O O10 0.365214 0.537529 0.339557
O O11 0.306414 0.442238 0.237236
O O12 0.261077 0.495426 0.376331
O O13 0.329723 0.357485 0.391575
O O14 0.312045 0.346749 0.094107
#
# Coordination Sequence:
#
# PCOD9326618 Si02
#       8
#    16   8  16   4  16  16  16  16
#     4  11  23  37  55  86 125 169 213 259 318 379
#     4  11  20  37  60  88 122 164 196 268 323 373
#     4  10  22  42  71  93 117 160 223 277 330 387
#     4  10  24  36  60  84 124 168 220 264 316 396
#     4  10  22  38  60  89 128 178 216 258 311 387
#     4  10  19  38  65  91 120 155 205 267 325 380
#     4  11  22  39  58  88 132 181 213 255 321 391
#     4  11  23  39  60  90 126 165 218 275 320 382
#
# _framework density 21.230217
#
# number of rings (size 3 to 8) (size 9 to 14) (size 15 to 20)
#    0.000    1.481    2.963    3.111    4.148    1.185 
#    8.000    0.000    9.778    1.778    0.000    0.000 
#    0.000    0.000    0.000    0.000    0.000    0.000 
#
# Total GULP energy -150484.785134 kJ/mol
# GULP energy per Si atom -5573.510561 kJ/mol
# Density = 2.118190 g / cm^3
# Si number density = 21.230217 Si / 1000 Ang^3
#
#
#
# Elastic Constant Matrix: (Units=GPa)
#
#
# Indices 1 2 3 4 5 6 
#
# 1 85.0523 2.3888 8.7810 0.0000 0.0000 0.0000
# 2 2.3888 54.5554 18.3032 0.0000 0.0000 0.0000
# 3 8.7810 18.3032 72.4661 0.0000 0.0000 0.0000
# 4 0.0000 0.0000 0.0000 8.2880 0.0000 0.0000
# 5 0.0000 0.0000 0.0000 0.0000 20.6488 0.0000
# 6 0.0000 0.0000 0.0000 0.0000 0.0000 9.8932
#
#
#
# Elastic Compliance Matrix: (Units=1/GPa)
#
#
# Indices 1 2 3 4 5 6 
#
# 1 0.011907 -0.000041 -0.001432 0.000000 0.000000 0.000000
# 2 -0.000041 0.020027 -0.005053 0.000000 0.000000 0.000000
# 3 -0.001432 -0.005053 0.015250 0.000000 0.000000 0.000000
# 4 0.000000 0.000000 0.000000 0.120657 0.000000 0.000000
# 5 0.000000 0.000000 0.000000 0.000000 0.048429 0.000000
# 6 0.000000 0.000000 0.000000 0.000000 0.000000 0.101080
#
#
# Mechanical properties :
#
#
# Convention : Reuss Voigt Hill
#
# Bulk Modulus (GPa) = 29.29985 30.11331 29.70658
# Shear Modulus (GPa) = 14.62935 19.93937 17.28436
#
# Velocity S-wave (km/s) = 2.62788 3.06796 2.85641
# Velocity P-wave (km/s) = 4.79986 5.17347 4.99016
#
# Compressibility (1/GPa) = 0.03412987
#
# Stress axis : x y z
#
# Youngs Moduli (GPa) = 83.98771 49.93211 65.57590
#
# Poissons Ratio (x) = 0.00204 0.09393
# Poissons Ratio (y) = 0.00342 0.33138
# Poissons Ratio (z) = 0.12031 0.25233
#
# Static dielectric constant tensor:
#      x y z
#    x 1.837020 0.000000 0.000000 
#    y 0.000000 1.843400 0.000000 
#    z 0.000000 0.000000 1.770980 
# 
# From -- ./inp_files/33556.got.cif
#   From: 2010.05.17/outbox.cif.g08.bks.cpg/sg22_17_cif.got.tgz:33556.got - 2010.06.03 23:40:54.
