data_PCOD9326356
_publ_section_title
;
Structure prediction by ZEFSAII (Michael W. Deem and Ramdas Pophale) SiO2 
 PCOD9326356
Probable space group: F 2 2 2
;
_chemical_formula_sum "Si O2"
_cell_formula_units_Z 92
_cell_length_a 20.469738
_cell_length_b 14.452376
_cell_length_c 14.590495
_cell_angle_alpha 90.000000
_cell_angle_beta 90.000000
_cell_angle_gamma 90.000000
_cell_volume 4316.398788
_symmetry_space_group_name_H-M "F 2 2 2"
_symmetry_group_IT_number 22
_symmetry_cell_setting 'orthorhombic'
loop_
_space_group_symop_operation_xyz
x,y,z
-x,-y,z
x,-y,-z
-x,y,-z
x,1/2+y,1/2+z
-x,1/2-y,1/2+z
x,1/2-y,1/2-z
-x,1/2+y,1/2-z
1/2+x,y,1/2+z
1/2-x,-y,1/2+z
1/2+x,-y,1/2-z
1/2-x,y,1/2-z
1/2+x,1/2+y,z
1/2-x,1/2-y,z
1/2+x,1/2-y,-z
1/2-x,1/2+y,-z
loop_
_atom_site_type_symbol
_atom_site_label
_atom_site_fract_x
_atom_site_fract_y
_atom_site_fract_z
Si Si1 0.999398 0.287852 0.652964
Si Si2 0.750000 0.750000 0.250000
Si Si3 0.850711 0.040335 0.906742
Si Si4 0.350082 0.243986 0.104282
Si Si5 0.000000 0.000000 0.125782
Si Si6 0.373049 0.216961 0.901074
Si Si7 0.825420 0.617689 0.729948
O O1 0.020481 0.250000 0.750000
O O2 0.926273 0.251397 0.634275
O O3 0.011504 0.397734 0.665400
O O4 0.051563 0.245835 0.582729
O O5 0.698145 0.798899 0.180433
O O6 0.832650 0.147047 0.899955
O O7 0.834162 0.981695 0.816822
O O8 0.929361 0.027245 0.915806
O O9 0.820862 0.000000 0.000000
O O10 0.343320 0.203450 0.001947
O O11 0.345057 0.306738 0.847257
O O12 0.362266 0.136036 0.826493
O O13 0.750000 0.632852 0.750000
#
# Coordination Sequence:
#
# PCOD9326356 Si02
#       7
#    16   4  16  16   8  16  16
#     4  11  19  38  60  96 121 156 209 265 320 372
#     4  12  28  44  56  86 128 174 214 244 308 406
#     4  11  20  37  60  92 121 157 197 260 317 370
#     4  11  25  38  62  87 127 169 206 254 314 388
#     4  10  19  32  60  90 121 148 200 259 314 360
#     4  11  20  39  63  89 123 160 206 264 318 369
#     4  11  23  36  59  93 123 157 208 261 311 375
#
# _framework density 21.314063000000001
#
# number of rings (size 3 to 8) (size 9 to 14) (size 15 to 20)
#    0.000    1.043    6.087    1.826    3.652    2.783 
#    0.000    0.000    0.000    0.000    0.000    1.217 
#    0.000    0.000    0.000    0.000    0.000    0.000 
#
# Total GULP energy -128066.117802 kJ/mol
# GULP energy per Si atom -5568.092078 kJ/mol
# Density = 2.126555 g / cm^3
# Si number density = 21.314063 Si / 1000 Ang^3
#
#
#
# Elastic Constant Matrix: (Units=GPa)
#
#
# Indices 1 2 3 4 5 6 
#
# 1 90.3829 -6.3704 20.6536 0.0000 0.0000 0.0000
# 2 -6.3704 58.0734 26.8133 0.0000 0.0000 0.0000
# 3 20.6536 26.8133 140.3608 0.0000 0.0000 0.0000
# 4 0.0000 0.0000 0.0000 30.8714 0.0000 0.0000
# 5 0.0000 0.0000 0.0000 0.0000 32.7805 0.0000
# 6 0.0000 0.0000 0.0000 0.0000 0.0000 4.8301
#
#
#
# Elastic Compliance Matrix: (Units=1/GPa)
#
#
# Indices 1 2 3 4 5 6 
#
# 1 0.011719 0.002283 -0.002160 0.000000 0.000000 0.000000
# 2 0.002283 0.019330 -0.004029 0.000000 0.000000 0.000000
# 3 -0.002160 -0.004029 0.008212 0.000000 0.000000 0.000000
# 4 0.000000 0.000000 0.000000 0.032392 0.000000 0.000000
# 5 0.000000 0.000000 0.000000 0.000000 0.030506 0.000000
# 6 0.000000 0.000000 0.000000 0.000000 0.000000 0.207034
#
#
# Mechanical properties :
#
#
# Convention : Reuss Voigt Hill
#
# Bulk Modulus (GPa) = 31.79794 41.22337 36.51065
# Shear Modulus (GPa) = 15.26774 30.21110 22.73942
#
# Velocity S-wave (km/s) = 2.67932 3.76896 3.26985
# Velocity P-wave (km/s) = 4.95205 6.19055 5.60561
#
# Compressibility (1/GPa) = 0.03144858
#
# Stress axis : x y z
#
# Youngs Moduli (GPa) = 85.33408 51.73286 121.77309
#
# Poissons Ratio (x) = -0.11811 0.26309
# Poissons Ratio (y) = -0.19482 0.49057
# Poissons Ratio (z) = 0.18436 0.20841
#
# Static dielectric constant tensor:
#      x y z
#    x 1.756860 0.000000 0.000000 
#    y 0.000000 1.815230 0.000000 
#    z 0.000000 0.000000 1.860300 
# 
# From -- ./inp_files/31554.got.cif
#   From: 2010.05.17/outbox.cif.g08.bks.cpg/sg22_16_cif.got.tgz:31554.got - 2010.06.03 23:40:54.
