data_PCOD9326417
_publ_section_title
;
Structure prediction by ZEFSAII (Michael W. Deem and Ramdas Pophale) SiO2 
 PCOD9326417
Probable space group: F 2 2 2
;
_chemical_formula_sum "Si O2"
_cell_formula_units_Z 80
_cell_length_a 8.773858
_cell_length_b 29.104893
_cell_length_c 16.538631
_cell_angle_alpha 90.000000
_cell_angle_beta 90.000000
_cell_angle_gamma 90.000000
_cell_volume 4223.341169
_symmetry_space_group_name_H-M "F 2 2 2"
_symmetry_group_IT_number 22
_symmetry_cell_setting 'orthorhombic'
loop_
_space_group_symop_operation_xyz
x,y,z
-x,-y,z
x,-y,-z
-x,y,-z
x,1/2+y,1/2+z
-x,1/2-y,1/2+z
x,1/2-y,1/2-z
-x,1/2+y,1/2-z
1/2+x,y,1/2+z
1/2-x,-y,1/2+z
1/2+x,-y,1/2-z
1/2-x,y,1/2-z
1/2+x,1/2+y,z
1/2-x,1/2-y,z
1/2+x,1/2-y,-z
1/2-x,1/2+y,-z
loop_
_atom_site_type_symbol
_atom_site_label
_atom_site_fract_x
_atom_site_fract_y
_atom_site_fract_z
Si Si1 0.397554 0.630664 0.418514
Si Si2 0.319364 0.199531 0.491091
Si Si3 0.305529 0.852687 0.838959
Si Si4 0.815246 0.449484 0.404544
Si Si5 0.166775 0.946094 0.899247
O O1 0.500000 0.620781 0.500000
O O2 0.265679 0.665255 0.447039
O O3 0.515100 0.652257 0.355467
O O4 0.316113 0.585940 0.382191
O O5 0.500000 0.199739 0.500000
O O6 0.250000 0.250000 0.500501
O O7 0.278567 0.179289 0.403501
O O8 0.250000 0.842367 0.750000
O O9 0.263536 0.905557 0.860753
O O10 0.786311 0.501880 0.378038
O O11 0.819895 0.445572 0.502921
O O12 0.988388 0.438432 0.378466
#
# Coordination Sequence:
#
# PCOD9326417 Si02
#       5
#    16  16  16  16  16
#     4  10  19  34  57  87 113 151 201 240 286 348
#     4  11  22  41  67  89 112 147 199 250 292 357
#     4  11  23  38  55  86 128 156 188 244 306 351
#     4   9  16  31  55  80 108 150 207 243 282 341
#     4   9  17  31  53  80 113 153 193 246 291 341
#
# _framework density 18.942347999999999
#
# number of rings (size 3 to 8) (size 9 to 14) (size 15 to 20)
#    0.000    2.000    4.000    4.200    0.000    1.200 
#    0.000    8.000    0.000    1.200    0.000    0.000 
#    0.000    0.000    0.000    0.000    0.000    0.000 
#
# Total GULP energy -111612.270143 kJ/mol
# GULP energy per Si atom -5580.613507 kJ/mol
# Density = 1.889923 g / cm^3
# Si number density = 18.942348 Si / 1000 Ang^3
#
#
#
# Elastic Constant Matrix: (Units=GPa)
#
#
# Indices 1 2 3 4 5 6 
#
# 1 149.6882 57.2348 25.6391 0.0000 0.0000 0.0000
# 2 57.2348 82.6717 0.7001 0.0000 0.0000 0.0000
# 3 25.6391 0.7001 31.5912 0.0000 0.0000 0.0000
# 4 0.0000 0.0000 0.0000 4.3061 0.0000 0.0000
# 5 0.0000 0.0000 0.0000 0.0000 14.3065 0.0000
# 6 0.0000 0.0000 0.0000 0.0000 0.0000 38.3920
#
#
#
# Elastic Compliance Matrix: (Units=1/GPa)
#
#
# Indices 1 2 3 4 5 6 
#
# 1 0.011107 -0.007615 -0.008846 0.000000 0.000000 0.000000
# 2 -0.007615 0.017319 0.005796 0.000000 0.000000 0.000000
# 3 -0.008846 0.005796 0.038705 0.000000 0.000000 0.000000
# 4 0.000000 0.000000 0.000000 0.232230 0.000000 0.000000
# 5 0.000000 0.000000 0.000000 0.000000 0.069898 0.000000
# 6 0.000000 0.000000 0.000000 0.000000 0.000000 0.026047
#
#
# Mechanical properties :
#
#
# Convention : Reuss Voigt Hill
#
# Bulk Modulus (GPa) = 21.83281 47.89991 34.86636
# Shear Modulus (GPa) = 11.57666 23.42605 17.50136
#
# Velocity S-wave (km/s) = 2.47483 3.52049 3.04292
# Velocity P-wave (km/s) = 4.44042 6.47049 5.54908
#
# Compressibility (1/GPa) = 0.04580263
#
# Stress axis : x y z
#
# Youngs Moduli (GPa) = 90.03075 57.74064 25.83632
#
# Poissons Ratio (x) = 0.43969 0.22854
# Poissons Ratio (y) = 0.68557 -0.14976
# Poissons Ratio (z) = 0.79640 -0.33468
#
# Static dielectric constant tensor:
#      x y z
#    x 1.666140 0.000000 0.000000 
#    y 0.000000 1.666840 0.000000 
#    z 0.000000 0.000000 1.656020 
# 
# From -- ./inp_files/11744.got.cif
#   From: 2010.05.17/outbox.cif.g08.bks.cpg/sg22_6_cif.got.tgz:11744.got - 2010.06.03 23:40:54.
