data_PCOD9326790
_publ_section_title
;
Structure prediction by ZEFSAII (Michael W. Deem and Ramdas Pophale) SiO2 
 PCOD9326790
Probable space group: F 2 2 2
;
_chemical_formula_sum "Si O2"
_cell_formula_units_Z 48
_cell_length_a 25.993346
_cell_length_b 18.490977
_cell_length_c 5.208755
_cell_angle_alpha 90.000000
_cell_angle_beta 90.000000
_cell_angle_gamma 90.000000
_cell_volume 2503.548312
_symmetry_space_group_name_H-M "F 2 2 2"
_symmetry_group_IT_number 22
_symmetry_cell_setting 'orthorhombic'
loop_
_space_group_symop_operation_xyz
x,y,z
-x,-y,z
x,-y,-z
-x,y,-z
x,1/2+y,1/2+z
-x,1/2-y,1/2+z
x,1/2-y,1/2-z
-x,1/2+y,1/2-z
1/2+x,y,1/2+z
1/2-x,-y,1/2+z
1/2+x,-y,1/2-z
1/2-x,y,1/2-z
1/2+x,1/2+y,z
1/2-x,1/2-y,z
1/2+x,1/2-y,-z
1/2-x,1/2+y,-z
loop_
_atom_site_type_symbol
_atom_site_label
_atom_site_fract_x
_atom_site_fract_y
_atom_site_fract_z
Si Si1 0.877393 0.607786 0.014523
Si Si2 0.404872 0.750000 0.750000
Si Si3 0.285281 0.500000 0.500000
Si Si4 0.058914 0.889559 0.996903
O O1 0.823653 0.568239 0.983295
O O2 0.912475 0.599898 0.764314
O O3 0.872645 0.693090 0.081564
O O4 0.908226 0.576768 0.262429
O O5 0.438326 0.803778 0.574906
O O6 0.250000 0.504734 0.750000
O O7 0.000000 0.912832 0.000000
#
# Coordination Sequence:
#
# PCOD9326790 Si02
#       4
#    16   8   8  16
#     4  10  22  38  61  91 120 158 206 249 290 363
#     4   8  22  32  65  88 136 152 197 242 288 366
#     4  12  26  48  69  78 111 168 212 260 322 362
#     4  10  20  34  62  94 130 164 188 231 301 368
#
# _framework density 19.172787
#
# number of rings (size 3 to 8) (size 9 to 14) (size 15 to 20)
#    2.000    0.000    0.000    4.000    4.667    0.000 
#    0.000    5.833    0.000    0.000    0.000    0.000 
#    0.000    0.000    0.000    0.000    0.000    0.000 
#
# Total GULP energy -66868.607582 kJ/mol
# GULP energy per Si atom -5572.383965 kJ/mol
# Density = 1.912915 g / cm^3
# Si number density = 19.172787 Si / 1000 Ang^3
#
#
#
# Elastic Constant Matrix: (Units=GPa)
#
#
# Indices 1 2 3 4 5 6 
#
# 1 153.6318 44.2606 81.2488 -0.0001 0.0001 0.0000
# 2 44.2606 97.2029 25.0687 0.0016 0.0003 0.0000
# 3 81.2488 25.0687 176.8925 0.0019 0.0007 0.0000
# 4 -0.0001 0.0016 0.0019 2.3062 0.0003 -0.0001
# 5 0.0001 0.0003 0.0007 0.0003 31.8775 0.0000
# 6 0.0000 0.0000 0.0000 -0.0001 0.0000 25.7032
#
#
#
# Elastic Compliance Matrix: (Units=1/GPa)
#
#
# Indices 1 2 3 4 5 6 
#
# 1 0.009536 -0.003334 -0.003908 0.000006 0.000000 0.000000
# 2 -0.003334 0.011844 -0.000147 -0.000008 0.000000 0.000000
# 3 -0.003908 -0.000147 0.007469 -0.000006 0.000000 0.000000
# 4 0.000006 -0.000008 -0.000006 0.433615 -0.000004 0.000001
# 5 0.000000 0.000000 0.000000 -0.000004 0.031370 0.000000
# 6 0.000000 0.000000 0.000000 0.000001 0.000000 0.038906
#
#
# Mechanical properties :
#
#
# Convention : Reuss Voigt Hill
#
# Bulk Modulus (GPa) = 71.06794 80.98704 76.02749
# Shear Modulus (GPa) = 9.05456 30.45399 19.75427
#
# Velocity S-wave (km/s) = 2.17551 3.98979 3.21336
# Velocity P-wave (km/s) = 6.59227 7.97226 7.31488
#
# Compressibility (1/GPa) = 0.01407104
#
# Stress axis : x y z
#
# Youngs Moduli (GPa) = 104.86305 84.43105 133.89110
#
# Poissons Ratio (x) = 0.28153 0.52319
# Poissons Ratio (y) = 0.34967 0.01967
# Poissons Ratio (z) = 0.40976 0.01241
#
# Static dielectric constant tensor:
#      x y z
#    x 1.598580 0.000000 0.000000 
#    y 0.000000 1.730840 0.000000 
#    z 0.000000 0.000000 1.657560 
# 
# From -- ./inp_files/3256.got.cif
#   From: 2010.05.17/outbox.cif.g08.bks.cpg/sg22_2_cif.got.tgz:3256.got - 2010.06.03 23:40:54.
