data_PCOD9326123
_publ_section_title
;
Structure prediction by ZEFSAII (Michael W. Deem and Ramdas Pophale) SiO2 
 PCOD9326123
Probable space group: F 2 2 2
;
_chemical_formula_sum "Si O2"
_cell_formula_units_Z 104
_cell_length_a 17.062158
_cell_length_b 28.227307
_cell_length_c 10.465896
_cell_angle_alpha 90.000000
_cell_angle_beta 90.000000
_cell_angle_gamma 90.000000
_cell_volume 5040.571979
_symmetry_space_group_name_H-M "F 2 2 2"
_symmetry_group_IT_number 22
_symmetry_cell_setting 'orthorhombic'
loop_
_space_group_symop_operation_xyz
x,y,z
-x,-y,z
x,-y,-z
-x,y,-z
x,1/2+y,1/2+z
-x,1/2-y,1/2+z
x,1/2-y,1/2-z
-x,1/2+y,1/2-z
1/2+x,y,1/2+z
1/2-x,-y,1/2+z
1/2+x,-y,1/2-z
1/2-x,y,1/2-z
1/2+x,1/2+y,z
1/2-x,1/2-y,z
1/2+x,1/2-y,-z
1/2-x,1/2+y,-z
loop_
_atom_site_type_symbol
_atom_site_label
_atom_site_fract_x
_atom_site_fract_y
_atom_site_fract_z
Si Si1 0.250000 0.875271 0.750000
Si Si2 0.145266 0.803103 0.217492
Si Si3 0.350673 0.452047 0.945175
Si Si4 0.250000 0.386740 0.750000
Si Si5 0.474140 0.818739 0.646869
Si Si6 0.500000 0.000000 0.300148
Si Si7 0.597385 0.415448 0.778769
Si Si8 0.810713 0.793402 0.073166
O O1 0.321663 0.907435 0.793012
O O2 0.223664 0.839476 0.859409
O O3 0.169846 0.750000 0.250000
O O4 0.182922 0.847871 0.291317
O O5 0.051536 0.802627 0.219023
O O6 0.173115 0.807672 0.071757
O O7 0.295193 0.420532 0.853094
O O8 0.431314 0.471170 0.877199
O O9 0.310564 0.500000 0.000000
O O10 0.379197 0.425120 0.072502
O O11 0.500000 0.828589 0.500000
O O12 0.448577 0.866672 0.716194
O O13 0.397177 0.785690 0.634553
O O14 0.547353 0.959142 0.229529
O O15 0.750000 0.750000 0.084855
#
# Coordination Sequence:
#
# PCOD9326123 Si02
#       8
#     8  16  16   8  16   8  16  16
#     4  10  21  31  52  82 112 148 188 237 293 356
#     4  11  23  37  58  89 124 164 208 253 298 360
#     4  10  21  35  57  87 115 148 195 249 306 369
#     4  12  21  35  58  86 118 158 197 243 304 356
#     4   9  18  33  54  79 113 151 191 241 296 352
#     4  10  19  34  56  80 111 144 187 248 308 370
#     4  10  18  33  53  81 112 146 189 240 297 355
#     4  10  20  37  57  84 118 156 199 245 297 353
#
# _framework density 20.632580000000001
#
# number of rings (size 3 to 8) (size 9 to 14) (size 15 to 20)
#    0.000    1.846    0.000    8.077    0.000    4.923 
#    0.000    0.000    0.000    0.000    0.000   33.923 
#    0.000    0.000    0.000    0.000    0.000    0.000 
#
# Total GULP energy -144874.516425 kJ/mol
# GULP energy per Si atom -5572.096786 kJ/mol
# Density = 2.058562 g / cm^3
# Si number density = 20.632580 Si / 1000 Ang^3
#
#
#
# Elastic Constant Matrix: (Units=GPa)
#
#
# Indices 1 2 3 4 5 6 
#
# 1 173.3406 74.3069 18.0677 0.0000 0.0000 0.0000
# 2 74.3069 117.2927 17.7702 0.0000 0.0000 0.0000
# 3 18.0677 17.7702 29.8304 0.0000 0.0000 0.0000
# 4 0.0000 0.0000 0.0000 26.2683 0.0000 0.0000
# 5 0.0000 0.0000 0.0000 0.0000 29.2667 0.0000
# 6 0.0000 0.0000 0.0000 0.0000 0.0000 62.0826
#
#
#
# Elastic Compliance Matrix: (Units=1/GPa)
#
#
# Indices 1 2 3 4 5 6 
#
# 1 0.008028 -0.004781 -0.002015 0.000000 0.000000 0.000000
# 2 -0.004781 0.012219 -0.004383 0.000000 0.000000 0.000000
# 3 -0.002015 -0.004383 0.037354 0.000000 0.000000 0.000000
# 4 0.000000 0.000000 0.000000 0.038069 0.000000 0.000000
# 5 0.000000 0.000000 0.000000 0.000000 0.034169 0.000000
# 6 0.000000 0.000000 0.000000 0.000000 0.000000 0.016108
#
#
# Mechanical properties :
#
#
# Convention : Reuss Voigt Hill
#
# Bulk Modulus (GPa) = 28.37368 60.08368 44.22868
# Shear Modulus (GPa) = 27.76996 37.54478 32.65737
#
# Velocity S-wave (km/s) = 3.67267 4.27040 3.98277
# Velocity P-wave (km/s) = 5.63617 7.31431 6.52938
#
# Compressibility (1/GPa) = 0.03524393
#
# Stress axis : x y z
#
# Youngs Moduli (GPa) = 124.55704 81.84300 26.77094
#
# Poissons Ratio (x) = 0.39129 0.05393
# Poissons Ratio (y) = 0.59550 0.11733
# Poissons Ratio (z) = 0.25094 0.35871
#
# Static dielectric constant tensor:
#      x y z
#    x 1.821700 0.000000 0.000000 
#    y 0.000000 1.786000 0.000000 
#    z 0.000000 0.000000 1.670070 
# 
# From -- ./inp_files/21886.got.cif
#   From: 2010.05.17/outbox.cif.g08.bks.cpg/sg22_11_cif.got.tgz:21886.got - 2010.06.03 23:40:54.
