data_PCOD9326584
_publ_section_title
;
Structure prediction by ZEFSAII (Michael W. Deem and Ramdas Pophale) SiO2 
 PCOD9326584
Probable space group: F 2 2 2
;
_chemical_formula_sum "Si O2"
_cell_formula_units_Z 68
_cell_length_a 17.789592
_cell_length_b 11.990210
_cell_length_c 15.830558
_cell_angle_alpha 90.000000
_cell_angle_beta 90.000000
_cell_angle_gamma 90.000000
_cell_volume 3376.672964
_symmetry_space_group_name_H-M "F 2 2 2"
_symmetry_group_IT_number 22
_symmetry_cell_setting 'orthorhombic'
loop_
_space_group_symop_operation_xyz
x,y,z
-x,-y,z
x,-y,-z
-x,y,-z
x,1/2+y,1/2+z
-x,1/2-y,1/2+z
x,1/2-y,1/2-z
-x,1/2+y,1/2-z
1/2+x,y,1/2+z
1/2-x,-y,1/2+z
1/2+x,-y,1/2-z
1/2-x,y,1/2-z
1/2+x,1/2+y,z
1/2-x,1/2-y,z
1/2+x,1/2-y,-z
1/2-x,1/2+y,-z
loop_
_atom_site_type_symbol
_atom_site_label
_atom_site_fract_x
_atom_site_fract_y
_atom_site_fract_z
Si Si1 0.690706 0.033728 0.863627
Si Si2 0.864297 0.851831 0.535202
Si Si3 0.500000 0.000000 0.000000
Si Si4 0.847661 0.368995 0.703472
Si Si5 0.587278 0.378184 0.975656
O O1 0.770429 0.085746 0.837906
O O2 0.637848 0.048262 0.781776
O O3 0.690724 0.907213 0.896714
O O4 0.661453 0.105555 0.942739
O O5 0.872268 0.720617 0.526590
O O6 0.944438 0.915354 0.549312
O O7 0.839548 0.250000 0.750000
O O8 0.903497 0.361475 0.624855
O O9 0.617450 0.500000 0.000000
O O10 0.500000 0.373780 0.000000
#
# Coordination Sequence:
#
# PCOD9326584 Si02
#       5
#    16  16   4  16  16
#     4   9  20  35  65 103 118 158 225 275 333 388
#     4  10  19  37  65  99 122 172 213 287 325 396
#     4   8  16  32  58  88 124 148 220 250 320 396
#     4  11  21  40  64  98 134 170 222 272 334 420
#     4  11  25  43  61  93 136 182 227 272 333 402
#
# _framework density 20.138165999999998
#
# number of rings (size 3 to 8) (size 9 to 14) (size 15 to 20)
#    0.000    2.118    3.529    1.412    3.294    0.000 
#    0.000   15.294    0.000    2.824    0.000    0.000 
#    0.000    0.000    0.000    0.000    0.000    0.000 
#
# Total GULP energy -94744.498977 kJ/mol
# GULP energy per Si atom -5573.205822 kJ/mol
# Density = 2.009233 g / cm^3
# Si number density = 20.138166 Si / 1000 Ang^3
#
#
#
# Elastic Constant Matrix: (Units=GPa)
#
#
# Indices 1 2 3 4 5 6 
#
# 1 54.0955 24.2713 49.6150 0.0000 0.0000 0.0000
# 2 24.2713 184.9829 64.0711 0.0000 0.0000 0.0000
# 3 49.6150 64.0711 141.8475 0.0000 0.0000 0.0000
# 4 0.0000 0.0000 0.0000 39.8970 0.0000 0.0000
# 5 0.0000 0.0000 0.0000 0.0000 33.2190 0.0000
# 6 0.0000 0.0000 0.0000 0.0000 0.0000 6.9441
#
#
#
# Elastic Compliance Matrix: (Units=1/GPa)
#
#
# Indices 1 2 3 4 5 6 
#
# 1 0.027234 -0.000325 -0.009379 0.000000 0.000000 0.000000
# 2 -0.000325 0.006412 -0.002783 0.000000 0.000000 0.000000
# 3 -0.009379 -0.002783 0.011587 0.000000 0.000000 0.000000
# 4 0.000000 0.000000 0.000000 0.025065 0.000000 0.000000
# 5 0.000000 0.000000 0.000000 0.000000 0.030103 0.000000
# 6 0.000000 0.000000 0.000000 0.000000 0.000000 0.144007
#
#
# Mechanical properties :
#
#
# Convention : Reuss Voigt Hill
#
# Bulk Modulus (GPa) = 49.35769 72.98228 61.16999
# Shear Modulus (GPa) = 18.10709 32.20993 25.15851
#
# Velocity S-wave (km/s) = 3.00182 4.00365 3.53837
# Velocity P-wave (km/s) = 6.04792 7.59551 6.86546
#
# Compressibility (1/GPa) = 0.02026027
#
# Stress axis : x y z
#
# Youngs Moduli (GPa) = 36.71917 155.94839 86.30087
#
# Poissons Ratio (x) = 0.05064 0.80942
# Poissons Ratio (y) = 0.01192 0.24016
# Poissons Ratio (z) = 0.34439 0.43398
#
# Static dielectric constant tensor:
#      x y z
#    x 1.778430 0.000000 0.000000 
#    y 0.000000 1.775880 0.000000 
#    z 0.000000 0.000000 1.731560 
# 
# From -- ./inp_files/31284.got.cif
#   From: 2010.05.17/outbox.cif.g08.bks.cpg/sg22_16_cif.got.tgz:31284.got - 2010.06.03 23:40:54.
