data_PCOD9326328
_publ_section_title
;
Structure prediction by ZEFSAII (Michael W. Deem and Ramdas Pophale) SiO2 
 PCOD9326328
Probable space group: F 2 2 2
;
_chemical_formula_sum "Si O2"
_cell_formula_units_Z 100
_cell_length_a 20.874120
_cell_length_b 19.311822
_cell_length_c 14.928469
_cell_angle_alpha 90.000000
_cell_angle_beta 90.000000
_cell_angle_gamma 90.000000
_cell_volume 6017.923965
_symmetry_space_group_name_H-M "F 2 2 2"
_symmetry_group_IT_number 22
_symmetry_cell_setting 'orthorhombic'
loop_
_space_group_symop_operation_xyz
x,y,z
-x,-y,z
x,-y,-z
-x,y,-z
x,1/2+y,1/2+z
-x,1/2-y,1/2+z
x,1/2-y,1/2-z
-x,1/2+y,1/2-z
1/2+x,y,1/2+z
1/2-x,-y,1/2+z
1/2+x,-y,1/2-z
1/2-x,y,1/2-z
1/2+x,1/2+y,z
1/2-x,1/2-y,z
1/2+x,1/2-y,-z
1/2-x,1/2+y,-z
loop_
_atom_site_type_symbol
_atom_site_label
_atom_site_fract_x
_atom_site_fract_y
_atom_site_fract_z
Si Si1 0.573407 0.676958 0.522665
Si Si2 0.354326 0.740091 0.152681
Si Si3 0.196606 0.153242 0.403950
Si Si4 0.793879 0.498416 0.161979
Si Si5 0.250000 0.250000 0.250000
Si Si6 0.248548 0.852207 0.406664
Si Si7 0.571062 0.528463 0.601537
O O1 0.500000 0.684542 0.500000
O O2 0.597374 0.744587 0.573509
O O3 0.624215 0.661040 0.443145
O O4 0.574073 0.610767 0.588790
O O5 0.383586 0.750000 0.250000
O O6 0.316147 0.669350 0.135368
O O7 0.302367 0.802685 0.143678
O O8 0.212932 0.074224 0.379931
O O9 0.209646 0.201333 0.318093
O O10 0.241783 0.169421 0.489570
O O11 0.750000 0.495284 0.250000
O O12 0.770959 0.431918 0.104492
O O13 0.871315 0.491249 0.167734
O O14 0.500000 0.500000 0.624330
O O15 0.584673 0.500000 0.500000
#
# Coordination Sequence:
#
# PCOD9326328 Si02
#       7
#    16  16  16  16   4  16  16
#     4  11  20  35  58  78 112 155 194 234 297 362
#     4  10  19  32  50  81 110 143 177 239 295 331
#     4  11  21  36  54  79 114 151 186 234 284 353
#     4  12  20  32  55  89 116 145 194 247 288 347
#     4  12  24  40  52  80 122 150 192 230 300 348
#     4  10  19  33  56  78 112 145 184 233 294 340
#     4  11  18  33  56  83 112 146 191 247 297 343
#
# _framework density 16.617027
#
# number of rings (size 3 to 8) (size 9 to 14) (size 15 to 20)
#    0.000    1.120    7.200    4.320    0.000    0.000 
#    1.440    0.000    0.000    0.000    0.000    0.000 
#    0.000    0.000    0.000    0.000    0.000    0.000 
#
# Total GULP energy -139246.199076 kJ/mol
# GULP energy per Si atom -5569.847963 kJ/mol
# Density = 1.657921 g / cm^3
# Si number density = 16.617027 Si / 1000 Ang^3
#
#
#
# Elastic Constant Matrix: (Units=GPa)
#
#
# Indices 1 2 3 4 5 6 
#
# 1 98.9442 23.0803 40.0316 0.0000 0.0000 0.0000
# 2 23.0803 91.6678 23.4814 0.0000 0.0000 0.0000
# 3 40.0316 23.4814 84.7029 0.0000 0.0000 0.0000
# 4 0.0000 0.0000 0.0000 20.1075 0.0000 0.0000
# 5 0.0000 0.0000 0.0000 0.0000 6.3257 0.0000
# 6 0.0000 0.0000 0.0000 0.0000 0.0000 23.9789
#
#
#
# Elastic Compliance Matrix: (Units=1/GPa)
#
#
# Indices 1 2 3 4 5 6 
#
# 1 0.012765 -0.001796 -0.005535 0.000000 0.000000 0.000000
# 2 -0.001796 0.011996 -0.002477 0.000000 0.000000 0.000000
# 3 -0.005535 -0.002477 0.015108 0.000000 0.000000 0.000000
# 4 0.000000 0.000000 0.000000 0.049733 0.000000 0.000000
# 5 0.000000 0.000000 0.000000 0.000000 0.158086 0.000000
# 6 0.000000 0.000000 0.000000 0.000000 0.000000 0.041703
#
#
# Mechanical properties :
#
#
# Convention : Reuss Voigt Hill
#
# Bulk Modulus (GPa) = 49.37374 49.83350 49.60362
# Shear Modulus (GPa) = 15.83490 22.66384 19.24937
#
# Velocity S-wave (km/s) = 3.09031 3.69710 3.40724
# Velocity P-wave (km/s) = 6.52001 6.94833 6.73757
#
# Compressibility (1/GPa) = 0.02025368
#
# Stress axis : x y z
#
# Youngs Moduli (GPa) = 78.33872 83.36404 66.18827
#
# Poissons Ratio (x) = 0.14974 0.36635
# Poissons Ratio (y) = 0.14071 0.16392
# Poissons Ratio (z) = 0.43360 0.20645
#
# Static dielectric constant tensor:
#      x y z
#    x 1.592250 0.000000 0.000000 
#    y 0.000000 1.593970 0.000000 
#    z 0.000000 0.000000 1.587170 
# 
# From -- ./inp_files/31717.got.cif
#   From: 2010.05.17/outbox.cif.g08.bks.cpg/sg22_16_cif.got.tgz:31717.got - 2010.06.03 23:40:54.
