data_PCOD9326847
_publ_section_title
;
Structure prediction by ZEFSAII (Michael W. Deem and Ramdas Pophale) SiO2 
 PCOD9326847
Probable space group: F 2 2 2
;
_chemical_formula_sum "Si O2"
_cell_formula_units_Z 120
_cell_length_a 20.831392
_cell_length_b 13.197869
_cell_length_c 22.114393
_cell_angle_alpha 90.000000
_cell_angle_beta 90.000000
_cell_angle_gamma 90.000000
_cell_volume 6079.909685
_symmetry_space_group_name_H-M "F 2 2 2"
_symmetry_group_IT_number 22
_symmetry_cell_setting 'orthorhombic'
loop_
_space_group_symop_operation_xyz
x,y,z
-x,-y,z
x,-y,-z
-x,y,-z
x,1/2+y,1/2+z
-x,1/2-y,1/2+z
x,1/2-y,1/2-z
-x,1/2+y,1/2-z
1/2+x,y,1/2+z
1/2-x,-y,1/2+z
1/2+x,-y,1/2-z
1/2-x,y,1/2-z
1/2+x,1/2+y,z
1/2-x,1/2-y,z
1/2+x,1/2-y,-z
1/2-x,1/2+y,-z
loop_
_atom_site_type_symbol
_atom_site_label
_atom_site_fract_x
_atom_site_fract_y
_atom_site_fract_z
Si Si1 0.250000 0.750000 0.885535
Si Si2 0.795162 0.157353 0.379399
Si Si3 0.264920 0.615081 0.512161
Si Si4 0.349362 0.652901 0.794224
Si Si5 0.469493 0.613991 0.877379
Si Si6 0.398785 0.199669 0.632409
Si Si7 0.611530 0.618858 0.004989
Si Si8 0.794806 0.939551 0.801064
O O1 0.288388 0.827824 0.928714
O O2 0.299093 0.690677 0.844075
O O3 0.750000 0.250000 0.357989
O O4 0.791732 0.163968 0.451387
O O5 0.865813 0.190449 0.358965
O O6 0.756842 0.058555 0.356685
O O7 0.281552 0.500000 0.500000
O O8 0.187585 0.623595 0.518716
O O9 0.356997 0.750000 0.750000
O O10 0.414234 0.619647 0.827490
O O11 0.318697 0.545793 0.773122
O O12 0.500000 0.500000 0.883714
O O13 0.526793 0.686147 0.855143
O O14 0.435753 0.650427 0.940336
O O15 0.395323 0.168484 0.561106
O O16 0.355755 0.120924 0.671811
O O17 0.596701 0.500000 0.000000
O O18 0.750000 0.888669 0.750000
#
# Coordination Sequence:
#
# PCOD9326847 Si02
#       8
#     8  16  16  16  16  16  16  16
#     4  12  21  38  62  92 123 166 214 270 344 396
#     4  10  20  36  55  91 133 164 214 272 331 405
#     4  11  20  33  59  91 131 168 204 273 340 394
#     4  12  26  44  64  91 130 168 230 288 336 411
#     4  12  23  40  63  95 135 182 220 273 349 417
#     4  11  22  37  61  96 138 171 224 270 336 417
#     4  11  18  32  57  93 132 168 208 266 330 402
#     4  11  22  41  64  89 124 176 223 283 338 393
#
# _framework density 19.737136
#
# number of rings (size 3 to 8) (size 9 to 14) (size 15 to 20)
#    0.000    0.800    7.333    2.200    0.000    2.400 
#    2.400    0.000    0.000    0.000    0.000    0.933 
#    0.000    0.000    0.000    0.000    0.000    0.000 
#
# Total GULP energy -167112.582641 kJ/mol
# GULP energy per Si atom -5570.419421 kJ/mol
# Density = 1.969221 g / cm^3
# Si number density = 19.737136 Si / 1000 Ang^3
#
#
#
# Elastic Constant Matrix: (Units=GPa)
#
#
# Indices 1 2 3 4 5 6 
#
# 1 104.1126 15.9246 13.8587 0.0000 0.0000 0.0000
# 2 15.9246 71.1760 9.0975 0.0000 0.0000 0.0000
# 3 13.8587 9.0975 72.9199 0.0000 0.0000 0.0000
# 4 0.0000 0.0000 0.0000 23.8506 0.0000 0.0000
# 5 0.0000 0.0000 0.0000 0.0000 19.6292 0.0000
# 6 0.0000 0.0000 0.0000 0.0000 0.0000 26.3995
#
#
#
# Elastic Compliance Matrix: (Units=1/GPa)
#
#
# Indices 1 2 3 4 5 6 
#
# 1 0.010142 -0.002055 -0.001671 0.000000 0.000000 0.000000
# 2 -0.002055 0.014694 -0.001443 0.000000 0.000000 0.000000
# 3 -0.001671 -0.001443 0.014211 0.000000 0.000000 0.000000
# 4 0.000000 0.000000 0.000000 0.041928 0.000000 0.000000
# 5 0.000000 0.000000 0.000000 0.000000 0.050945 0.000000
# 6 0.000000 0.000000 0.000000 0.000000 0.000000 0.037879
#
#
# Mechanical properties :
#
#
# Convention : Reuss Voigt Hill
#
# Bulk Modulus (GPa) = 34.83254 36.21890 35.52572
# Shear Modulus (GPa) = 26.35650 27.93104 27.14377
#
# Velocity S-wave (km/s) = 3.65824 3.76593 3.71248
# Velocity P-wave (km/s) = 5.96072 6.10738 6.03450
#
# Compressibility (1/GPa) = 0.02870879
#
# Stress axis : x y z
#
# Youngs Moduli (GPa) = 98.60159 68.05524 70.36688
#
# Poissons Ratio (x) = 0.13989 0.11759
# Poissons Ratio (y) = 0.20268 0.10151
# Poissons Ratio (z) = 0.16477 0.09817
#
# Static dielectric constant tensor:
#      x y z
#    x 1.702790 0.000000 0.000000 
#    y 0.000000 1.803630 0.000000 
#    z 0.000000 0.000000 1.788690 
# 
# From -- ./inp_files/44896.got.cif
#   From: 2010.05.17/outbox.cif.g08.bks.cpg/sg22_23_cif.got.tgz:44896.got - 2010.06.03 23:40:54.
