data_PCOD9326548
_publ_section_title
;
Structure prediction by ZEFSAII (Michael W. Deem and Ramdas Pophale) SiO2 
 PCOD9326548
Probable space group: F 2 2 2
;
_chemical_formula_sum "Si O2"
_cell_formula_units_Z 56
_cell_length_a 13.640909
_cell_length_b 20.334094
_cell_length_c 9.809421
_cell_angle_alpha 90.000000
_cell_angle_beta 90.000000
_cell_angle_gamma 90.000000
_cell_volume 2720.893308
_symmetry_space_group_name_H-M "F 2 2 2"
_symmetry_group_IT_number 22
_symmetry_cell_setting 'orthorhombic'
loop_
_space_group_symop_operation_xyz
x,y,z
-x,-y,z
x,-y,-z
-x,y,-z
x,1/2+y,1/2+z
-x,1/2-y,1/2+z
x,1/2-y,1/2-z
-x,1/2+y,1/2-z
1/2+x,y,1/2+z
1/2-x,-y,1/2+z
1/2+x,-y,1/2-z
1/2-x,y,1/2-z
1/2+x,1/2+y,z
1/2-x,1/2-y,z
1/2+x,1/2-y,-z
1/2-x,1/2+y,-z
loop_
_atom_site_type_symbol
_atom_site_label
_atom_site_fract_x
_atom_site_fract_y
_atom_site_fract_z
Si Si1 0.500000 0.380745 0.000000
Si Si2 0.250000 0.365470 0.250000
Si Si3 0.797071 0.319010 0.458917
Si Si4 0.091207 0.966971 0.755897
Si Si5 0.750000 0.076376 0.250000
O O1 0.587321 0.335699 0.063116
O O2 0.452423 0.428774 0.113097
O O3 0.214197 0.324955 0.378488
O O4 0.163408 0.412773 0.193617
O O5 0.750000 0.250000 0.415867
O O6 0.738160 0.375696 0.378625
O O7 0.161203 0.028310 0.787746
O O8 0.000000 0.000000 0.678956
#
# Coordination Sequence:
#
# PCOD9326548 Si02
#       5
#     8   8  16  16   8
#     4  10  21  40  72  84 122 187 212 238 332 409
#     4   9  23  38  64  92 123 169 210 266 314 369
#     4  11  23  44  62  92 130 174 216 257 309 388
#     4  10  19  36  65  93 120 158 215 258 317 385
#     4  11  23  36  66 100 123 157 214 276 312 371
#
# _framework density 20.581475000000001
#
# number of rings (size 3 to 8) (size 9 to 14) (size 15 to 20)
#    0.000    1.714    2.857    1.286    4.000    3.429 
#    5.143    4.286    0.000    0.000    0.000    0.000 
#    0.000    0.000    0.000    0.000    0.000    0.000 
#
# Total GULP energy -77995.284453 kJ/mol
# GULP energy per Si atom -5571.091747 kJ/mol
# Density = 2.053463 g / cm^3
# Si number density = 20.581475 Si / 1000 Ang^3
#
#
#
# Elastic Constant Matrix: (Units=GPa)
#
#
# Indices 1 2 3 4 5 6 
#
# 1 123.7639 64.9248 11.8318 0.0000 0.0000 0.0000
# 2 64.9248 139.7902 19.5559 0.0000 0.0000 0.0000
# 3 11.8318 19.5559 64.2941 0.0000 0.0000 0.0000
# 4 0.0000 0.0000 0.0000 -20.4875 0.0000 0.0000
# 5 0.0000 0.0000 0.0000 0.0000 25.9952 0.0000
# 6 0.0000 0.0000 0.0000 0.0000 0.0000 27.2233
#
#
#
# Elastic Compliance Matrix: (Units=1/GPa)
#
#
# Indices 1 2 3 4 5 6 
#
# 1 0.010697 -0.004901 -0.000478 0.000000 0.000000 0.000000
# 2 -0.004901 0.009717 -0.002054 0.000000 0.000000 0.000000
# 3 -0.000478 -0.002054 0.016266 0.000000 0.000000 0.000000
# 4 0.000000 0.000000 0.000000 -0.048810 0.000000 0.000000
# 5 0.000000 0.000000 0.000000 0.000000 0.038469 0.000000
# 6 0.000000 0.000000 0.000000 0.000000 0.000000 0.036733
#
#
# Mechanical properties :
#
#
# Convention : Reuss Voigt Hill
#
# Bulk Modulus (GPa) = 45.84036 57.83034 51.83535
# Shear Modulus (GPa) = 58.67970 21.98191 40.33081
#
# Velocity S-wave (km/s) = 5.34536 3.27164 4.43150
# Velocity P-wave (km/s) = 7.77291 6.51389 7.17108
#
# Compressibility (1/GPa) = 0.02181484
#
# Stress axis : x y z
#
# Youngs Moduli (GPa) = 93.48723 102.91035 61.47761
#
# Poissons Ratio (x) = 0.50438 0.02937
# Poissons Ratio (y) = 0.45820 0.12625
# Poissons Ratio (z) = 0.04466 0.21134
#
# Static dielectric constant tensor:
#      x y z
#    x 1.863250 0.000000 0.000000 
#    y 0.000000 1.737840 0.000000 
#    z 0.000000 0.000000 1.744230 
# 
# From -- ./inp_files/9581.got.cif
#   From: 2010.05.17/outbox.cif.g08.bks.cpg/sg22_5_cif.got.tgz:9581.got - 2010.06.03 23:40:54.
