data_PCOD9326010
_publ_section_title
;
Structure prediction by ZEFSAII (Michael W. Deem and Ramdas Pophale) SiO2 
 PCOD9326010
Probable space group: F 2 2 2
;
_chemical_formula_sum "Si O2"
_cell_formula_units_Z 104
_cell_length_a 9.717359
_cell_length_b 26.251269
_cell_length_c 18.199051
_cell_angle_alpha 90.000000
_cell_angle_beta 90.000000
_cell_angle_gamma 90.000000
_cell_volume 4642.450609
_symmetry_space_group_name_H-M "F 2 2 2"
_symmetry_group_IT_number 22
_symmetry_cell_setting 'orthorhombic'
loop_
_space_group_symop_operation_xyz
x,y,z
-x,-y,z
x,-y,-z
-x,y,-z
x,1/2+y,1/2+z
-x,1/2-y,1/2+z
x,1/2-y,1/2-z
-x,1/2+y,1/2-z
1/2+x,y,1/2+z
1/2-x,-y,1/2+z
1/2+x,-y,1/2-z
1/2-x,y,1/2-z
1/2+x,1/2+y,z
1/2-x,1/2-y,z
1/2+x,1/2-y,-z
1/2-x,1/2+y,-z
loop_
_atom_site_type_symbol
_atom_site_label
_atom_site_fract_x
_atom_site_fract_y
_atom_site_fract_z
Si Si1 0.000000 0.412512 0.500000
Si Si2 0.627952 0.470097 0.576508
Si Si3 0.635686 0.211341 0.405663
Si Si4 0.786400 0.873842 0.669401
Si Si5 0.132979 0.475091 0.633769
Si Si6 0.852190 0.816513 0.070755
Si Si7 0.057884 0.146871 0.421373
O O1 0.078377 0.448632 0.558265
O O2 0.094303 0.373299 0.452468
O O3 0.500000 0.500000 0.612987
O O4 0.645469 0.500000 0.500000
O O5 0.767097 0.477857 0.619480
O O6 0.598345 0.411626 0.563174
O O7 0.750000 0.250000 0.374532
O O8 0.688736 0.155622 0.386252
O O9 0.646037 0.213069 0.493454
O O10 0.474716 0.211184 0.383936
O O11 0.750000 0.853982 0.750000
O O12 0.732638 0.931904 0.667356
O O13 0.938391 0.859678 0.639817
O O14 0.000000 0.500000 0.672613
O O15 0.696982 0.822953 0.099302
O O16 0.000000 0.167368 0.500000
#
# Coordination Sequence:
#
# PCOD9326010 Si02
#       7
#     8  16  16  16  16  16  16
#     4  10  17  34  62  96 126 160 212 280 336 393
#     4  11  19  28  53  95 126 160 215 277 322 384
#     4  10  22  42  68  99 130 165 213 278 346 409
#     4  12  26  44  60  88 137 181 223 274 345 408
#     4  12  21  36  59  87 127 173 224 268 334 397
#     4  10  20  36  70 100 133 157 217 281 340 399
#     4  12  20  37  64  96 134 172 225 279 343 389
#
# _framework density 22.401961
#
# number of rings (size 3 to 8) (size 9 to 14) (size 15 to 20)
#    0.000    1.077    7.692    3.000    0.000    2.769 
#    2.769    0.769    0.000    0.000    0.000    2.154 
#    0.000    0.000    0.000    0.000    0.000    0.000 
#
# Total GULP energy -144987.119183 kJ/mol
# GULP energy per Si atom -5576.427661 kJ/mol
# Density = 2.235097 g / cm^3
# Si number density = 22.401961 Si / 1000 Ang^3
#
#
#
# Elastic Constant Matrix: (Units=GPa)
#
#
# Indices 1 2 3 4 5 6 
#
# 1 223.8817 42.1939 39.5224 0.0000 0.0000 0.0000
# 2 42.1939 71.8872 2.3725 0.0000 0.0000 0.0000
# 3 39.5224 2.3725 35.5393 0.0000 0.0000 0.0000
# 4 0.0000 0.0000 0.0000 -3.4501 0.0000 0.0000
# 5 0.0000 0.0000 0.0000 0.0000 5.0860 0.0000
# 6 0.0000 0.0000 0.0000 0.0000 0.0000 52.6263
#
#
#
# Elastic Compliance Matrix: (Units=1/GPa)
#
#
# Indices 1 2 3 4 5 6 
#
# 1 0.006324 -0.003488 -0.006800 0.000000 0.000000 0.000000
# 2 -0.003488 0.015865 0.002819 0.000000 0.000000 0.000000
# 3 -0.006800 0.002819 0.035512 0.000000 0.000000 0.000000
# 4 0.000000 0.000000 0.000000 -0.289849 0.000000 0.000000
# 5 0.000000 0.000000 0.000000 0.000000 0.196618 0.000000
# 6 0.000000 0.000000 0.000000 0.000000 0.000000 0.019002
#
#
# Mechanical properties :
#
#
# Convention : Reuss Voigt Hill
#
# Bulk Modulus (GPa) = 23.38408 55.49840 39.44124
# Shear Modulus (GPa) = 394.80960 27.33375 211.07167
#
# Velocity S-wave (km/s) = 13.28990 3.49685 9.71724
# Velocity P-wave (km/s) = 15.68300 6.41340 11.98099
#
# Compressibility (1/GPa) = 0.04276414
#
# Stress axis : x y z
#
# Youngs Moduli (GPa) = 158.11653 63.03298 28.15931
#
# Poissons Ratio (x) = 0.21984 0.19150
# Poissons Ratio (y) = 0.55146 -0.07939
# Poissons Ratio (z) = 1.07526 -0.17772
#
# Static dielectric constant tensor:
#      x y z
#    x 1.952280 0.000000 0.000000 
#    y 0.000000 1.880040 0.000000 
#    z 0.000000 0.000000 1.858820 
# 
# From -- ./inp_files/42115.got.cif
#   From: 2010.05.17/outbox.cif.g08.bks.cpg/sg22_22_cif.got.tgz:42115.got - 2010.06.03 23:40:54.
