data_PCOD9326280
_publ_section_title
;
Structure prediction by ZEFSAII (Michael W. Deem and Ramdas Pophale) SiO2 
 PCOD9326280
Probable space group: F 2 2 2
;
_chemical_formula_sum "Si O2"
_cell_formula_units_Z 96
_cell_length_a 9.171588
_cell_length_b 22.827396
_cell_length_c 21.375636
_cell_angle_alpha 90.000000
_cell_angle_beta 90.000000
_cell_angle_gamma 90.000000
_cell_volume 4475.277353
_symmetry_space_group_name_H-M "F 2 2 2"
_symmetry_group_IT_number 22
_symmetry_cell_setting 'orthorhombic'
loop_
_space_group_symop_operation_xyz
x,y,z
-x,-y,z
x,-y,-z
-x,y,-z
x,1/2+y,1/2+z
-x,1/2-y,1/2+z
x,1/2-y,1/2-z
-x,1/2+y,1/2-z
1/2+x,y,1/2+z
1/2-x,-y,1/2+z
1/2+x,-y,1/2-z
1/2-x,y,1/2-z
1/2+x,1/2+y,z
1/2-x,1/2-y,z
1/2+x,1/2-y,-z
1/2-x,1/2+y,-z
loop_
_atom_site_type_symbol
_atom_site_label
_atom_site_fract_x
_atom_site_fract_y
_atom_site_fract_z
Si Si1 0.927237 0.378794 0.816609
Si Si2 0.876119 0.713340 0.548654
Si Si3 0.416489 0.748314 0.850899
Si Si4 0.102093 0.417691 0.561644
Si Si5 0.914973 0.389545 0.678161
Si Si6 0.427910 0.562766 0.434860
O O1 0.925880 0.307460 0.810443
O O2 0.965532 0.404495 0.748421
O O3 0.759166 0.397598 0.828979
O O4 0.026445 0.398556 0.874606
O O5 0.750000 0.750000 0.518741
O O6 0.834188 0.648755 0.568430
O O7 0.000000 0.701232 0.500000
O O8 0.950165 0.752631 0.601294
O O9 0.250000 0.750000 0.876000
O O10 0.434721 0.681317 0.828092
O O11 0.255259 0.450419 0.558688
O O12 0.000000 0.425700 0.500000
O O13 0.001353 0.422458 0.623160
O O14 0.500000 0.500000 0.424532
O O15 0.500000 0.586793 0.500000
#
# Coordination Sequence:
#
# PCOD9326280 Si02
#       6
#    16  16  16  16  16  16
#     4  10  19  36  60  86 124 165 200 244 294 347
#     4  10  19  29  46  79 117 154 195 236 286 350
#     4   9  17  30  52  82 119 160 197 232 281 349
#     4  10  21  39  62  86 117 154 195 247 304 359
#     4   9  19  35  58  93 125 157 198 239 292 358
#     4  11  25  44  63  85 113 151 205 257 305 359
#
# _framework density 21.451184999999999
#
# number of rings (size 3 to 8) (size 9 to 14) (size 15 to 20)
#    0.000    2.167    0.000    3.000    0.000    8.000 
#    0.000    9.167    0.000    3.000    0.000    0.000 
#    0.000    0.000    0.000    0.000    0.000    0.000 
#
# Total GULP energy -133682.128301 kJ/mol
# GULP energy per Si atom -5570.088679 kJ/mol
# Density = 2.140236 g / cm^3
# Si number density = 21.451185 Si / 1000 Ang^3
#
#
#
# Elastic Constant Matrix: (Units=GPa)
#
#
# Indices 1 2 3 4 5 6 
#
# 1 107.5898 37.1231 62.0594 0.0000 0.0000 0.0000
# 2 37.1231 38.3663 15.8910 0.0000 0.0000 0.0000
# 3 62.0594 15.8910 155.0907 0.0000 0.0000 0.0000
# 4 0.0000 0.0000 0.0000 9.4174 0.0000 0.0000
# 5 0.0000 0.0000 0.0000 0.0000 21.7421 0.0000
# 6 0.0000 0.0000 0.0000 0.0000 0.0000 124.9880
#
#
#
# Elastic Compliance Matrix: (Units=1/GPa)
#
#
# Indices 1 2 3 4 5 6 
#
# 1 0.017545 -0.014692 -0.005515 0.000000 0.000000 0.000000
# 2 -0.014692 0.039523 0.001830 0.000000 0.000000 0.000000
# 3 -0.005515 0.001830 0.008467 0.000000 0.000000 0.000000
# 4 0.000000 0.000000 0.000000 0.106186 0.000000 0.000000
# 5 0.000000 0.000000 0.000000 0.000000 0.045994 0.000000
# 6 0.000000 0.000000 0.000000 0.000000 0.000000 0.008001
#
#
# Mechanical properties :
#
#
# Convention : Reuss Voigt Hill
#
# Bulk Modulus (GPa) = 34.74717 59.02151 46.88434
# Shear Modulus (GPa) = 18.37789 43.62774 31.00281
#
# Velocity S-wave (km/s) = 2.93017 4.51468 3.80580
# Velocity P-wave (km/s) = 5.26130 7.39936 6.41996
#
# Compressibility (1/GPa) = 0.02877932
#
# Stress axis : x y z
#
# Youngs Moduli (GPa) = 56.99491 25.30165 118.10072
#
# Poissons Ratio (x) = 0.37174 0.65137
# Poissons Ratio (y) = 0.83740 -0.21607
# Poissons Ratio (z) = 0.31435 -0.04629
#
# Static dielectric constant tensor:
#      x y z
#    x 1.768040 0.000000 0.000000 
#    y 0.000000 1.987350 0.000000 
#    z 0.000000 0.000000 1.652890 
# 
# From -- ./inp_files/41956.got.cif
#   From: 2010.05.17/outbox.cif.g08.bks.cpg/sg22_21_cif.got.tgz:41956.got - 2010.06.03 23:40:54.
