data_PCOD9326521
_publ_section_title
;
Structure prediction by ZEFSAII (Michael W. Deem and Ramdas Pophale) SiO2 
 PCOD9326521
Probable space group: F 2 2 2
;
_chemical_formula_sum "Si O2"
_cell_formula_units_Z 96
_cell_length_a 9.602100
_cell_length_b 23.350747
_cell_length_c 19.685721
_cell_angle_alpha 90.000000
_cell_angle_beta 90.000000
_cell_angle_gamma 90.000000
_cell_volume 4413.857710
_symmetry_space_group_name_H-M "F 2 2 2"
_symmetry_group_IT_number 22
_symmetry_cell_setting 'orthorhombic'
loop_
_space_group_symop_operation_xyz
x,y,z
-x,-y,z
x,-y,-z
-x,y,-z
x,1/2+y,1/2+z
-x,1/2-y,1/2+z
x,1/2-y,1/2-z
-x,1/2+y,1/2-z
1/2+x,y,1/2+z
1/2-x,-y,1/2+z
1/2+x,-y,1/2-z
1/2-x,y,1/2-z
1/2+x,1/2+y,z
1/2-x,1/2-y,z
1/2+x,1/2-y,-z
1/2-x,1/2+y,-z
loop_
_atom_site_type_symbol
_atom_site_label
_atom_site_fract_x
_atom_site_fract_y
_atom_site_fract_z
Si Si1 0.903884 0.372630 0.829747
Si Si2 0.861437 0.713084 0.542103
Si Si3 0.998893 0.752961 0.826319
Si Si4 0.112978 0.418546 0.559478
Si Si5 0.904755 0.383259 0.671378
Si Si6 0.423691 0.557749 0.428820
O O1 0.906277 0.303450 0.830482
O O2 0.917334 0.393335 0.751829
O O3 0.752419 0.394344 0.853850
O O4 0.031500 0.394642 0.874564
O O5 0.750000 0.750000 0.502398
O O6 0.829647 0.646557 0.550666
O O7 0.000000 0.714073 0.500000
O O8 0.891336 0.746198 0.612172
O O9 0.937693 0.750000 0.750000
O O10 0.071042 0.814725 0.835434
O O11 0.258148 0.452344 0.563179
O O12 0.000000 0.431252 0.500000
O O13 0.020026 0.416228 0.627689
O O14 0.500000 0.500000 0.405220
O O15 0.500000 0.572465 0.500000
#
# Coordination Sequence:
#
# PCOD9326521 Si02
#       6
#    16  16  16  16  16  16
#     4  10  19  36  60  86 124 165 200 244 294 347
#     4  10  21  33  50  83 120 156 196 237 288 352
#     4   9  18  32  55  86 122 162 200 236 283 348
#     4  10  21  39  62  86 117 154 195 247 304 359
#     4   9  19  35  58  93 125 157 198 239 292 358
#     4  11  25  44  63  85 113 151 205 257 305 359
#
# _framework density 21.749682
#
# number of rings (size 3 to 8) (size 9 to 14) (size 15 to 20)
#    0.000    2.167    0.000    2.500    0.000    9.667 
#    0.000   14.167    0.000    0.000    0.000    0.000 
#    0.000    0.000    0.000    0.000    0.000    0.000 
#
# Total GULP energy -133932.728994 kJ/mol
# GULP energy per Si atom -5580.530375 kJ/mol
# Density = 2.170018 g / cm^3
# Si number density = 21.749682 Si / 1000 Ang^3
#
#
#
# Elastic Constant Matrix: (Units=GPa)
#
#
# Indices 1 2 3 4 5 6 
#
# 1 127.0140 29.2626 17.9793 0.0000 0.0000 0.0000
# 2 29.2626 30.5715 16.8271 0.0000 0.0000 0.0000
# 3 17.9793 16.8271 51.2403 0.0000 0.0000 0.0000
# 4 0.0000 0.0000 0.0000 11.8492 0.0000 0.0000
# 5 0.0000 0.0000 0.0000 0.0000-1059.2089 0.0000
# 6 0.0000 0.0000 0.0000 0.0000 0.0000 22.0927
#
#
#
# Elastic Compliance Matrix: (Units=1/GPa)
#
#
# Indices 1 2 3 4 5 6 
#
# 1 0.010109 -0.009428 -0.000451 0.000000 0.000000 0.000000
# 2 -0.009428 0.048720 -0.012691 0.000000 0.000000 0.000000
# 3 -0.000451 -0.012691 0.023842 0.000000 0.000000 0.000000
# 4 0.000000 0.000000 0.000000 0.084394 0.000000 0.000000
# 5 0.000000 0.000000 0.000000 0.000000 -0.000944 0.000000
# 6 0.000000 0.000000 0.000000 0.000000 0.000000 0.045264
#
#
# Mechanical properties :
#
#
# Convention : Reuss Voigt Hill
#
# Bulk Modulus (GPa) = 26.64504 37.44041 32.04272
# Shear Modulus (GPa) = 18.58487 -195.40296 -88.40905
#
# Velocity S-wave (km/s) = 2.92634 -9.48877 -6.38253
# Velocity P-wave (km/s) = 4.86778 10.13891 6.28897
#
# Compressibility (1/GPa) = 0.03753044
#
# Stress axis : x y z
#
# Youngs Moduli (GPa) = 98.92067 20.52533 41.94294
#
# Poissons Ratio (x) = 0.19352 0.01891
# Poissons Ratio (y) = 0.93263 0.53231
# Poissons Ratio (z) = 0.04461 0.26049
#
# Static dielectric constant tensor:
#      x y z
#    x 1.903310 0.000000 0.000000 
#    y 0.000000 33.558310 0.000000 
#    z 0.000000 0.000000 1.810160 
# 
# From -- ./inp_files/41955.got.cif
#   From: 2010.05.17/outbox.cif.g08.bks.cpg/sg22_21_cif.got.tgz:41955.got - 2010.06.03 23:40:54.
