data_PCOD9326086
_publ_section_title
;
Structure prediction by ZEFSAII (Michael W. Deem and Ramdas Pophale) SiO2 
 PCOD9326086
Probable space group: F 2 2 2
;
_chemical_formula_sum "Si O2"
_cell_formula_units_Z 116
_cell_length_a 9.921979
_cell_length_b 23.072546
_cell_length_c 29.990564
_cell_angle_alpha 90.000000
_cell_angle_beta 90.000000
_cell_angle_gamma 90.000000
_cell_volume 6865.599367
_symmetry_space_group_name_H-M "F 2 2 2"
_symmetry_group_IT_number 22
_symmetry_cell_setting 'orthorhombic'
loop_
_space_group_symop_operation_xyz
x,y,z
-x,-y,z
x,-y,-z
-x,y,-z
x,1/2+y,1/2+z
-x,1/2-y,1/2+z
x,1/2-y,1/2-z
-x,1/2+y,1/2-z
1/2+x,y,1/2+z
1/2-x,-y,1/2+z
1/2+x,-y,1/2-z
1/2-x,y,1/2-z
1/2+x,1/2+y,z
1/2-x,1/2-y,z
1/2+x,1/2-y,-z
1/2-x,1/2+y,-z
loop_
_atom_site_type_symbol
_atom_site_label
_atom_site_fract_x
_atom_site_fract_y
_atom_site_fract_z
Si Si1 0.149125 0.551434 0.580658
Si Si2 0.036663 0.809474 0.803809
Si Si3 0.000000 0.500000 0.500000
Si Si4 0.149597 0.929305 0.118173
Si Si5 0.237301 0.607218 0.841306
Si Si6 0.343074 0.008656 0.708443
Si Si7 0.503042 0.324362 0.701203
Si Si8 0.761830 0.814563 0.858599
O O1 0.200185 0.487029 0.593585
O O2 0.251991 0.594477 0.605557
O O3 0.095087 0.541243 0.530568
O O4 0.008992 0.568607 0.605963
O O5 0.158436 0.843593 0.825908
O O6 0.064001 0.740647 0.802424
O O7 0.005125 0.833893 0.754353
O O8 0.903230 0.815937 0.832937
O O9 0.225917 0.869653 0.108741
O O10 0.162420 0.942591 0.170509
O O11 0.284899 0.549478 0.815012
O O12 0.093460 0.628657 0.824018
O O13 0.250000 0.022924 0.750000
O O14 0.500000 0.000000 0.720601
O O15 0.358025 0.321871 0.677330
O O16 0.750000 0.750000 0.878874
#
# Coordination Sequence:
#
# PCOD9326086 Si02
#       8
#    16  16   4  16  16  16  16  16
#     4   9  17  33  56  77  99 119 162 223 266 325
#     4  10  18  32  46  63 103 149 194 225 242 282
#     4   8  16  32  60  88  94 112 168 216 274 338
#     4   9  16  32  47  65  97 126 159 213 256 296
#     4  11  19  32  47  68 101 129 168 222 273 304
#     4  11  20  30  42  61  88 131 171 204 256 297
#     4  10  21  29  43  71 101 146 194 222 248 290
#     4  10  19  31  47  68  98 139 187 224 250 283
#
# _framework density 16.89583
#
# number of rings (size 3 to 8) (size 9 to 14) (size 15 to 20)
#    0.000    2.207    4.138    2.069    0.000    6.069 
#    0.000    2.069    0.000    0.000    0.000   15.448 
#    0.000    0.000    0.000    0.000    0.000    0.000 
#
# Total GULP energy -161442.656926 kJ/mol
# GULP energy per Si atom -5566.988170 kJ/mol
# Density = 1.685737 g / cm^3
# Si number density = 16.895830 Si / 1000 Ang^3
#
#
#
# Elastic Constant Matrix: (Units=GPa)
#
#
# Indices 1 2 3 4 5 6 
#
# 1 22.4388 -1.4998 -7.6421 0.0000 0.0000 0.0000
# 2 -1.4998 69.7299 5.1799 0.0000 0.0000 0.0000
# 3 -7.6421 5.1799 57.4660 0.0000 0.0000 0.0000
# 4 0.0000 0.0000 0.0000 9.7762 0.0000 0.0000
# 5 0.0000 0.0000 0.0000 0.0000 16.5626 0.0000
# 6 0.0000 0.0000 0.0000 0.0000 0.0000 29.2585
#
#
#
# Elastic Compliance Matrix: (Units=1/GPa)
#
#
# Indices 1 2 3 4 5 6 
#
# 1 0.046701 0.000547 0.006161 0.000000 0.000000 0.000000
# 2 0.000547 0.014444 -0.001229 0.000000 0.000000 0.000000
# 3 0.006161 -0.001229 0.018332 0.000000 0.000000 0.000000
# 4 0.000000 0.000000 0.000000 0.102289 0.000000 0.000000
# 5 0.000000 0.000000 0.000000 0.000000 0.060377 0.000000
# 6 0.000000 0.000000 0.000000 0.000000 0.000000 0.034178
#
#
# Mechanical properties :
#
#
# Convention : Reuss Voigt Hill
#
# Bulk Modulus (GPa) = 11.05781 15.74564 13.40172
# Shear Modulus (GPa) = 16.92003 21.35924 19.13964
#
# Velocity S-wave (km/s) = 3.16798 3.55938 3.36936
# Velocity P-wave (km/s) = 4.46546 5.12169 4.80479
#
# Compressibility (1/GPa) = 0.09043383
#
# Stress axis : x y z
#
# Youngs Moduli (GPa) = 21.41301 69.23228 54.55024
#
# Poissons Ratio (x) = -0.03786 -0.33609
# Poissons Ratio (y) = -0.01171 0.06706
# Poissons Ratio (z) = -0.13193 0.08510
#
# Static dielectric constant tensor:
#      x y z
#    x 1.571710 0.000000 0.000000 
#    y 0.000000 1.661800 0.000000 
#    z 0.000000 0.000000 1.577880 
# 
# From -- ./inp_files/55674.got.cif
#   From: 2010.05.17/outbox.cif.g08.bks.cpg/sg22_28_cif.got.tgz:55674.got - 2010.06.03 23:40:54.
