data_PCOD9326022
_publ_section_title
;
Structure prediction by ZEFSAII (Michael W. Deem and Ramdas Pophale) SiO2 
 PCOD9326022
Probable space group: F 2 2 2
;
_chemical_formula_sum "Si O2"
_cell_formula_units_Z 104
_cell_length_a 8.313054
_cell_length_b 21.065194
_cell_length_c 26.174887
_cell_angle_alpha 90.000000
_cell_angle_beta 90.000000
_cell_angle_gamma 90.000000
_cell_volume 4583.644005
_symmetry_space_group_name_H-M "F 2 2 2"
_symmetry_group_IT_number 22
_symmetry_cell_setting 'orthorhombic'
loop_
_space_group_symop_operation_xyz
x,y,z
-x,-y,z
x,-y,-z
-x,y,-z
x,1/2+y,1/2+z
-x,1/2-y,1/2+z
x,1/2-y,1/2-z
-x,1/2+y,1/2-z
1/2+x,y,1/2+z
1/2-x,-y,1/2+z
1/2+x,-y,1/2-z
1/2-x,y,1/2-z
1/2+x,1/2+y,z
1/2-x,1/2-y,z
1/2+x,1/2-y,-z
1/2-x,1/2+y,-z
loop_
_atom_site_type_symbol
_atom_site_label
_atom_site_fract_x
_atom_site_fract_y
_atom_site_fract_z
Si Si1 0.283206 0.652725 0.471825
Si Si2 0.019005 0.298127 0.708397
Si Si3 0.879271 0.100711 0.127260
Si Si4 0.000000 0.748652 0.500000
Si Si5 0.750000 0.387402 0.750000
Si Si6 0.323894 0.519838 0.660169
Si Si7 0.750000 0.250000 0.632995
Si Si8 0.260115 0.887269 0.580387
O O1 0.230208 0.621662 0.419963
O O2 0.436363 0.697923 0.460301
O O3 0.285583 0.606795 0.520770
O O4 0.145191 0.699821 0.494313
O O5 0.088994 0.250000 0.750000
O O6 0.903529 0.343270 0.742025
O O7 0.903900 0.259527 0.669270
O O8 0.118194 0.345015 0.671263
O O9 0.057223 0.095987 0.100483
O O10 0.800573 0.037171 0.150103
O O11 0.746359 0.431837 0.701165
O O12 0.500000 0.500000 0.678808
O O13 0.348214 0.562422 0.610000
O O14 0.760256 0.185679 0.599765
#
# Coordination Sequence:
#
# PCOD9326022 Si02
#       8
#    16  16  16   8   8  16   8  16
#     4  11  23  43  70 106 147 196 235 304 363 445
#     4  11  20  40  75 112 146 182 245 302 370 435
#     4  11  25  45  69 108 149 189 245 301 368 433
#     4  10  22  40  70 102 142 192 238 280 372 434
#     4  12  23  46  74 100 137 200 244 298 362 446
#     4  12  29  46  71 101 143 197 253 304 363 443
#     4  10  17  36  70 112 136 180 245 290 354 428
#     4  11  22  42  74 103 144 192 241 294 364 440
#
# _framework density 22.68937
#
# number of rings (size 3 to 8) (size 9 to 14) (size 15 to 20)
#    0.000    0.923    6.154    1.385    6.462    0.615 
#    0.000    2.308    0.000    3.692    0.000    0.000 
#    0.000    0.000    0.000    0.000    0.000    0.000 
#
# Total GULP energy -144982.977858 kJ/mol
# GULP energy per Si atom -5576.268379 kJ/mol
# Density = 2.263773 g / cm^3
# Si number density = 22.689370 Si / 1000 Ang^3
#
#
#
# Elastic Constant Matrix: (Units=GPa)
#
#
# Indices 1 2 3 4 5 6 
#
# 1 61.1439 38.6017 11.3693 0.0000 0.0000 0.0000
# 2 38.6017 117.1706 65.4395 0.0000 0.0000 0.0000
# 3 11.3693 65.4395 153.6763 0.0000 0.0000 0.0000
# 4 0.0000 0.0000 0.0000 -137.9955 0.0000 0.0000
# 5 0.0000 0.0000 0.0000 0.0000 11.7455 0.0000
# 6 0.0000 0.0000 0.0000 0.0000 0.0000 24.8911
#
#
#
# Elastic Compliance Matrix: (Units=1/GPa)
#
#
# Indices 1 2 3 4 5 6 
#
# 1 0.021035 -0.007952 0.001830 0.000000 0.000000 0.000000
# 2 -0.007952 0.014204 -0.005460 0.000000 0.000000 0.000000
# 3 0.001830 -0.005460 0.008697 0.000000 0.000000 0.000000
# 4 0.000000 0.000000 0.000000 -0.007247 0.000000 0.000000
# 5 0.000000 0.000000 0.000000 0.000000 0.085139 0.000000
# 6 0.000000 0.000000 0.000000 0.000000 0.000000 0.040175
#
#
# Mechanical properties :
#
#
# Convention : Reuss Voigt Hill
#
# Bulk Modulus (GPa) = 48.14316 62.53465 55.33890
# Shear Modulus (GPa) = 26.02943 -5.83308 10.09817
#
# Velocity S-wave (km/s) = 3.39072 -1.60512 2.11194
# Velocity P-wave (km/s) = 6.04928 4.91791 5.51269
#
# Compressibility (1/GPa) = 0.02077138
#
# Stress axis : x y z
#
# Youngs Moduli (GPa) = 47.54019 70.40411 114.98441
#
# Poissons Ratio (x) = 0.55985 -0.21041
# Poissons Ratio (y) = 0.37803 0.62782
# Poissons Ratio (z) = -0.08700 0.38441
#
# Static dielectric constant tensor:
#      x y z
#    x 1.948360 0.000000 0.000000 
#    y 0.000000 1.805690 0.000000 
#    z 0.000000 0.000000 1.867700 
# 
# From -- ./inp_files/52004.got.cif
#   From: 2010.05.17/outbox.cif.g08.bks.cpg/sg22_27_cif.got.tgz:52004.got - 2010.06.03 23:40:54.
