data_PCOD9326291
_publ_section_title
;
Structure prediction by ZEFSAII (Michael W. Deem and Ramdas Pophale) SiO2 
 PCOD9326291
Probable space group: F 2 2 2
;
_chemical_formula_sum "Si O2"
_cell_formula_units_Z 116
_cell_length_a 23.243698
_cell_length_b 33.708094
_cell_length_c 8.129111
_cell_angle_alpha 90.000000
_cell_angle_beta 90.000000
_cell_angle_gamma 90.000000
_cell_volume 6369.164623
_symmetry_space_group_name_H-M "F 2 2 2"
_symmetry_group_IT_number 22
_symmetry_cell_setting 'orthorhombic'
loop_
_space_group_symop_operation_xyz
x,y,z
-x,-y,z
x,-y,-z
-x,y,-z
x,1/2+y,1/2+z
-x,1/2-y,1/2+z
x,1/2-y,1/2-z
-x,1/2+y,1/2-z
1/2+x,y,1/2+z
1/2-x,-y,1/2+z
1/2+x,-y,1/2-z
1/2-x,y,1/2-z
1/2+x,1/2+y,z
1/2-x,1/2-y,z
1/2+x,1/2-y,-z
1/2-x,1/2+y,-z
loop_
_atom_site_type_symbol
_atom_site_label
_atom_site_fract_x
_atom_site_fract_y
_atom_site_fract_z
Si Si1 0.702068 0.545787 0.953366
Si Si2 0.419801 0.932935 0.541780
Si Si3 0.558631 0.081050 0.912426
Si Si4 0.000000 0.500000 0.500000
Si Si5 0.827297 0.045280 0.434056
Si Si6 0.068006 0.794338 0.315701
Si Si7 0.567384 0.658665 0.990555
Si Si8 0.563554 0.324799 0.653857
O O1 0.765354 0.562317 0.993769
O O2 0.682906 0.546858 0.762244
O O3 0.705945 0.500000 0.000000
O O4 0.648610 0.563564 0.048426
O O5 0.440397 0.936857 0.729462
O O6 0.432412 0.888849 0.479843
O O7 0.452355 0.967184 0.438673
O O8 0.557533 0.128809 0.893107
O O9 0.500000 0.068427 0.000000
O O10 0.615946 0.068072 0.008607
O O11 0.832883 0.000000 0.500000
O O12 0.073492 0.750000 0.250000
O O13 0.091640 0.802543 0.498699
O O14 0.000120 0.805797 0.328350
O O15 0.092936 0.822758 0.173901
O O16 0.591867 0.674127 0.164865
O O17 0.500000 0.670166 0.000000
#
# Coordination Sequence:
#
# PCOD9326291 Si02
#       8
#    16  16  16   4  16  16  16  16
#     4  10  21  39  56  77 106 144 193 251 287 328
#     4  11  23  35  55  76 109 152 191 236 285 336
#     4  11  23  38  54  77 112 149 181 231 290 337
#     4  12  24  32  50  80 108 152 196 232 280 344
#     4  10  23  37  57  79 105 147 194 242 291 334
#     4  10  19  30  51  74 103 150 179 218 271 347
#     4   9  19  32  47  71 107 145 178 225 276 331
#     4   9  20  32  46  75 107 142 177 219 271 330
#
# _framework density 18.212748999999999
#
# number of rings (size 3 to 8) (size 9 to 14) (size 15 to 20)
#    0.000    1.931    2.759    0.828    9.655    1.931 
#    0.000    0.000    0.000    0.000    0.000    0.000 
#    0.000    2.207    5.517    0.000    0.000    0.000 
#
# Total GULP energy -161456.360972 kJ/mol
# GULP energy per Si atom -5567.460723 kJ/mol
# Density = 1.817130 g / cm^3
# Si number density = 18.212749 Si / 1000 Ang^3
#
#
#
# Elastic Constant Matrix: (Units=GPa)
#
#
# Indices 1 2 3 4 5 6 
#
# 1 104.7458 21.6461 31.4324 -0.0005 0.0012 -0.0002
# 2 21.6461 62.9701 49.0793 -0.0001 0.0003 -0.0004
# 3 31.4324 49.0793 102.1287 -0.0013 0.0033 0.0001
# 4 -0.0005 -0.0001 -0.0013 21.3615 0.0007 0.0000
# 5 0.0012 0.0003 0.0033 0.0007 27.2634 -0.0001
# 6 -0.0002 -0.0004 0.0001 0.0000 -0.0001 2.7496
#
#
#
# Elastic Compliance Matrix: (Units=1/GPa)
#
#
# Indices 1 2 3 4 5 6 
#
# 1 0.010640 -0.001767 -0.002426 0.000000 0.000000 0.000001
# 2 -0.001767 0.025684 -0.011799 -0.000001 0.000001 0.000004
# 3 -0.002426 -0.011799 0.016208 0.000001 -0.000002 -0.000003
# 4 0.000000 -0.000001 0.000001 0.046813 -0.000001 0.000000
# 5 0.000000 0.000001 -0.000002 -0.000001 0.036679 0.000002
# 6 0.000001 0.000004 -0.000003 0.000000 0.000002 0.363690
#
#
# Mechanical properties :
#
#
# Convention : Reuss Voigt Hill
#
# Bulk Modulus (GPa) = 48.66360 52.68446 50.67403
# Shear Modulus (GPa) = 9.28424 21.45402 15.36913
#
# Velocity S-wave (km/s) = 2.26025 3.43588 2.90809
# Velocity P-wave (km/s) = 5.79562 6.68808 6.25778
#
# Compressibility (1/GPa) = 0.02054924
#
# Stress axis : x y z
#
# Youngs Moduli (GPa) = 93.98549 38.93442 61.69700
#
# Poissons Ratio (x) = 0.06880 0.14965
# Poissons Ratio (y) = 0.16608 0.72796
# Poissons Ratio (z) = 0.22796 0.45939
#
# Static dielectric constant tensor:
#      x y z
#    x 1.669350 0.000000 0.000000 
#    y 0.000000 1.600630 0.000000 
#    z 0.000000 0.000000 1.731030 
# 
# From -- ./inp_files/14173.got.cif
#   From: 2010.05.17/outbox.cif.g08.bks.cpg/sg22_8_cif.got.tgz:14173.got - 2010.06.03 23:40:54.
