data_PCOD9326222
_publ_section_title
;
Structure prediction by ZEFSAII (Michael W. Deem and Ramdas Pophale) SiO2 
 PCOD9326222
Probable space group: F 2 2 2
;
_chemical_formula_sum "Si O2"
_cell_formula_units_Z 88
_cell_length_a 27.528624
_cell_length_b 8.406779
_cell_length_c 17.205549
_cell_angle_alpha 90.000000
_cell_angle_beta 90.000000
_cell_angle_gamma 90.000000
_cell_volume 3981.829589
_symmetry_space_group_name_H-M "F 2 2 2"
_symmetry_group_IT_number 22
_symmetry_cell_setting 'orthorhombic'
loop_
_space_group_symop_operation_xyz
x,y,z
-x,-y,z
x,-y,-z
-x,y,-z
x,1/2+y,1/2+z
-x,1/2-y,1/2+z
x,1/2-y,1/2-z
-x,1/2+y,1/2-z
1/2+x,y,1/2+z
1/2-x,-y,1/2+z
1/2+x,-y,1/2-z
1/2-x,y,1/2-z
1/2+x,1/2+y,z
1/2-x,1/2-y,z
1/2+x,1/2-y,-z
1/2-x,1/2+y,-z
loop_
_atom_site_type_symbol
_atom_site_label
_atom_site_fract_x
_atom_site_fract_y
_atom_site_fract_z
Si Si1 0.867793 0.926753 0.711498
Si Si2 0.038058 0.638264 0.821930
Si Si3 0.250000 0.750000 0.940069
Si Si4 0.165392 0.694572 0.053404
Si Si5 0.677524 0.023639 0.639875
Si Si6 0.414954 0.343692 0.049147
O O1 0.879585 0.750000 0.750000
O O2 0.846110 0.917456 0.625310
O O3 0.913659 0.043579 0.705784
O O4 0.828184 0.997765 0.769497
O O5 0.022203 0.750000 0.750000
O O6 0.047577 0.747837 0.897594
O O7 0.000000 0.500000 0.839454
O O8 0.278151 0.627156 0.887053
O O9 0.208584 0.669104 0.993184
O O10 0.180926 0.858142 0.094948
O O11 0.114713 0.728379 0.008974
O O12 0.627005 0.096646 0.608237
O O13 0.431652 0.500000 0.000000
#
# Coordination Sequence:
#
# PCOD9326222 Si02
#       6
#    16  16   8  16  16  16
#     4  10  21  43  72 102 144 193 239 299 371 431
#     4  12  25  45  77 112 145 185 245 295 365 449
#     4  10  18  36  67 103 136 184 242 292 350 415
#     4   9  20  39  69  96 140 188 237 299 352 412
#     4   9  18  39  69  98 138 188 236 291 352 426
#     4   9  19  42  74 100 140 188 233 292 365 421
#
# _framework density 22.100391999999999
#
# number of rings (size 3 to 8) (size 9 to 14) (size 15 to 20)
#    0.000    2.182    1.818    2.182    0.000    0.727 
#   13.091    5.909   16.000    0.000    0.000    0.000 
#    0.000    0.000    0.000    0.000    0.000    0.000 
#
# Total GULP energy -122994.447856 kJ/mol
# GULP energy per Si atom -5590.656721 kJ/mol
# Density = 2.205009 g / cm^3
# Si number density = 22.100392 Si / 1000 Ang^3
#
#
#
# Elastic Constant Matrix: (Units=GPa)
#
#
# Indices 1 2 3 4 5 6 
#
# 1 64.7895 53.9649 43.9684 0.0000 0.0000 0.0000
# 2 53.9649 84.4804 68.9913 0.0000 0.0000 0.0000
# 3 43.9684 68.9913 162.7828 0.0000 0.0000 0.0000
# 4 0.0000 0.0000 0.0000 40.7405 0.0000 0.0000
# 5 0.0000 0.0000 0.0000 0.0000 22.5750 0.0000
# 6 0.0000 0.0000 0.0000 0.0000 0.0000 17.6355
#
#
#
# Elastic Compliance Matrix: (Units=1/GPa)
#
#
# Indices 1 2 3 4 5 6 
#
# 1 0.032984 -0.021096 0.000032 0.000000 0.000000 0.000000
# 2 -0.021096 0.031595 -0.007693 0.000000 0.000000 0.000000
# 3 0.000032 -0.007693 0.009395 0.000000 0.000000 0.000000
# 4 0.000000 0.000000 0.000000 0.024546 0.000000 0.000000
# 5 0.000000 0.000000 0.000000 0.000000 0.044297 0.000000
# 6 0.000000 0.000000 0.000000 0.000000 0.000000 0.056704
#
#
# Mechanical properties :
#
#
# Convention : Reuss Voigt Hill
#
# Bulk Modulus (GPa) = 60.75063 71.76687 66.25875
# Shear Modulus (GPa) = 19.04608 25.86540 22.45574
#
# Velocity S-wave (km/s) = 2.93882 3.42476 3.19106
# Velocity P-wave (km/s) = 6.25010 6.94135 6.60477
#
# Compressibility (1/GPa) = 0.01646074
#
# Stress axis : x y z
#
# Youngs Moduli (GPa) = 30.31739 31.65052 106.44033
#
# Poissons Ratio (x) = 0.66769 -0.00337
# Poissons Ratio (y) = 0.63957 0.81881
# Poissons Ratio (z) = -0.00096 0.24348
#
# Static dielectric constant tensor:
#      x y z
#    x 1.780350 0.000000 0.000000 
#    y 0.000000 1.781470 0.000000 
#    z 0.000000 0.000000 1.804570 
# 
# From -- ./inp_files/40321.got.cif
#   From: 2010.05.17/outbox.cif.g08.bks.cpg/sg22_21_cif.got.tgz:40321.got - 2010.06.03 23:40:54.
