data_PCOD9326779
_publ_section_title
;
Structure prediction by ZEFSAII (Michael W. Deem and Ramdas Pophale) SiO2 
 PCOD9326779
Probable space group: F 2 2 2
;
_chemical_formula_sum "Si O2"
_cell_formula_units_Z 120
_cell_length_a 12.323030
_cell_length_b 19.702738
_cell_length_c 23.076146
_cell_angle_alpha 90.000000
_cell_angle_beta 90.000000
_cell_angle_gamma 90.000000
_cell_volume 5602.828977
_symmetry_space_group_name_H-M "F 2 2 2"
_symmetry_group_IT_number 22
_symmetry_cell_setting 'orthorhombic'
loop_
_space_group_symop_operation_xyz
x,y,z
-x,-y,z
x,-y,-z
-x,y,-z
x,1/2+y,1/2+z
-x,1/2-y,1/2+z
x,1/2-y,1/2-z
-x,1/2+y,1/2-z
1/2+x,y,1/2+z
1/2-x,-y,1/2+z
1/2+x,-y,1/2-z
1/2-x,y,1/2-z
1/2+x,1/2+y,z
1/2-x,1/2-y,z
1/2+x,1/2-y,-z
1/2-x,1/2+y,-z
loop_
_atom_site_type_symbol
_atom_site_label
_atom_site_fract_x
_atom_site_fract_y
_atom_site_fract_z
Si Si1 0.369269 0.216373 0.586650
Si Si2 0.080016 0.558838 0.416362
Si Si3 0.252435 0.487041 0.156124
Si Si4 0.592112 0.131638 0.887676
Si Si5 0.939636 0.597195 0.305059
Si Si6 0.449581 0.239530 0.318429
Si Si7 0.065854 0.429977 0.806971
Si Si8 0.000000 0.812739 0.500000
O O1 0.250000 0.250000 0.593956
O O2 0.384722 0.136574 0.565702
O O3 0.438533 0.225916 0.646209
O O4 0.428082 0.263718 0.539717
O O5 0.187826 0.518495 0.399370
O O6 0.000000 0.500000 0.443168
O O7 0.014618 0.574591 0.357463
O O8 0.174477 0.426822 0.133042
O O9 0.343065 0.456512 0.199148
O O10 0.188545 0.548039 0.186583
O O11 0.611996 0.200755 0.851928
O O12 0.473705 0.110160 0.863094
O O13 0.576083 0.144767 0.955730
O O14 0.886761 0.668465 0.321529
O O15 0.017214 0.604814 0.249805
O O16 0.465689 0.250000 0.250000
O O17 0.000000 0.500000 0.807204
#
# Coordination Sequence:
#
# PCOD9326779 Si02
#       8
#    16  16  16  16  16  16  16   8
#     4  10  23  43  72  97 128 176 225 271 341 407
#     4   9  20  39  65  96 135 167 217 278 331 400
#     4  10  22  38  63  91 132 174 221 263 331 409
#     4  10  22  41  65  93 126 169 221 272 332 395
#     4  10  20  37  58  94 135 175 209 263 331 398
#     4  10  20  39  63  93 137 167 208 278 323 392
#     4  10  20  34  58  88 129 168 215 261 320 394
#     4  10  24  48  68  88 134 168 218 294 328 388
#
# _framework density 21.417752
#
# number of rings (size 3 to 8) (size 9 to 14) (size 15 to 20)
#    0.000    2.133    1.333    1.200    3.733    5.600 
#    9.600    6.667    0.000    0.000    0.000    0.000 
#    0.000    0.000    0.000    0.000    0.000    0.000 
#
# Total GULP energy -167053.118813 kJ/mol
# GULP energy per Si atom -5568.437294 kJ/mol
# Density = 2.136900 g / cm^3
# Si number density = 21.417752 Si / 1000 Ang^3
#
#
#
# Elastic Constant Matrix: (Units=GPa)
#
#
# Indices 1 2 3 4 5 6 
#
# 1 91.4075 25.9391 18.3123 0.0000 0.0000 0.0000
# 2 25.9391 120.5984 15.6513 0.0000 0.0000 0.0000
# 3 18.3123 15.6513 108.0758 0.0000 0.0000 0.0000
# 4 0.0000 0.0000 0.0000 64.1910 0.0000 0.0000
# 5 0.0000 0.0000 0.0000 0.0000 -29.8188 0.0000
# 6 0.0000 0.0000 0.0000 0.0000 0.0000 32.7894
#
#
#
# Elastic Compliance Matrix: (Units=1/GPa)
#
#
# Indices 1 2 3 4 5 6 
#
# 1 0.011944 -0.002351 -0.001683 0.000000 0.000000 0.000000
# 2 -0.002351 0.008913 -0.000893 0.000000 0.000000 0.000000
# 3 -0.001683 -0.000893 0.009667 0.000000 0.000000 0.000000
# 4 0.000000 0.000000 0.000000 0.015579 0.000000 0.000000
# 5 0.000000 0.000000 0.000000 0.000000 -0.033536 0.000000
# 6 0.000000 0.000000 0.000000 0.000000 0.000000 0.030498
#
#
# Mechanical properties :
#
#
# Convention : Reuss Voigt Hill
#
# Bulk Modulus (GPa) = 48.37494 48.87635 48.62565
# Shear Modulus (GPa) = 83.59939 30.77757 57.18848
#
# Velocity S-wave (km/s) = 6.25440 3.79491 5.17295
# Velocity P-wave (km/s) = 8.64824 6.48628 7.64408
#
# Compressibility (1/GPa) = 0.02067186
#
# Stress axis : x y z
#
# Youngs Moduli (GPa) = 83.72191 112.19062 103.44196
#
# Poissons Ratio (x) = 0.26371 0.17414
# Poissons Ratio (y) = 0.19680 0.09233
# Poissons Ratio (z) = 0.14094 0.10013
#
# Static dielectric constant tensor:
#      x y z
#    x 1.802150 0.000000 0.000000 
#    y 0.000000 1.877150 0.000000 
#    z 0.000000 0.000000 1.791430 
# 
# From -- ./inp_files/48334.got.cif
#   From: 2010.05.17/outbox.cif.g08.bks.cpg/sg22_25_cif.got.tgz:48334.got - 2010.06.03 23:40:54.
