data_PCOD9326095
_publ_section_title
;
Structure prediction by ZEFSAII (Michael W. Deem and Ramdas Pophale) SiO2 
 PCOD9326095
Probable space group: F 2 2 2
;
_chemical_formula_sum "Si O2"
_cell_formula_units_Z 120
_cell_length_a 26.913289
_cell_length_b 10.845487
_cell_length_c 18.154426
_cell_angle_alpha 90.000000
_cell_angle_beta 90.000000
_cell_angle_gamma 90.000000
_cell_volume 5299.054122
_symmetry_space_group_name_H-M "F 2 2 2"
_symmetry_group_IT_number 22
_symmetry_cell_setting 'orthorhombic'
loop_
_space_group_symop_operation_xyz
x,y,z
-x,-y,z
x,-y,-z
-x,y,-z
x,1/2+y,1/2+z
-x,1/2-y,1/2+z
x,1/2-y,1/2-z
-x,1/2+y,1/2-z
1/2+x,y,1/2+z
1/2-x,-y,1/2+z
1/2+x,-y,1/2-z
1/2-x,y,1/2-z
1/2+x,1/2+y,z
1/2-x,1/2-y,z
1/2+x,1/2-y,-z
1/2-x,1/2+y,-z
loop_
_atom_site_type_symbol
_atom_site_label
_atom_site_fract_x
_atom_site_fract_y
_atom_site_fract_z
Si Si1 0.556235 0.793121 0.027981
Si Si2 0.139535 0.608537 0.740476
Si Si3 0.784466 0.417357 0.184313
Si Si4 0.311458 0.000000 0.000000
Si Si5 0.736441 0.875944 0.414997
Si Si6 0.944543 0.024321 0.662239
Si Si7 0.876110 0.914395 0.071569
Si Si8 0.871518 0.852760 0.605239
O O1 0.554412 0.913287 0.080723
O O2 0.579068 0.682668 0.075061
O O3 0.500000 0.773938 0.000000
O O4 0.597410 0.794576 0.961854
O O5 0.157565 0.750000 0.750000
O O6 0.177998 0.518377 0.780650
O O7 0.087640 0.606668 0.783892
O O8 0.130941 0.553764 0.658401
O O9 0.750000 0.374991 0.250000
O O10 0.749614 0.499168 0.129329
O O11 0.821012 0.313486 0.147356
O O12 0.347147 0.025859 0.932455
O O13 0.275765 0.886540 0.981806
O O14 0.750000 0.750000 0.373434
O O15 0.680390 0.868960 0.442763
O O16 0.914597 0.895898 0.659266
O O17 0.000000 0.000000 0.686150
O O18 0.886941 0.000000 0.000000
#
# Coordination Sequence:
#
# PCOD9326095 Si02
#       8
#    16  16  16   8  16  16  16  16
#     4  12  23  41  68  96 132 168 221 287 348 397
#     4  11  22  41  63  97 134 176 232 272 338 415
#     4  10  21  34  60  95 139 176 213 272 335 396
#     4  10  18  32  51  88 125 160 194 258 332 384
#     4  11  21  34  57  91 130 173 218 266 323 393
#     4  11  21  38  66  97 125 165 216 295 346 390
#     4  12  26  45  64  94 139 182 225 271 340 417
#     4  10  20  33  60  99 128 159 213 274 339 399
#
# _framework density 22.645551000000001
#
# number of rings (size 3 to 8) (size 9 to 14) (size 15 to 20)
#    0.000    1.067    6.000    1.600    1.867    0.267 
#    2.400    0.000    0.000    2.400    3.467    0.000 
#    0.000    0.000    0.000    0.000    0.000    0.000 
#
# Total GULP energy -167029.802224 kJ/mol
# GULP energy per Si atom -5567.660074 kJ/mol
# Density = 2.259401 g / cm^3
# Si number density = 22.645551 Si / 1000 Ang^3
#
#
#
# Elastic Constant Matrix: (Units=GPa)
#
#
# Indices 1 2 3 4 5 6 
#
# 1 166.1781 17.9847 29.1265 0.0000 0.0000 0.0000
# 2 17.9847 39.9793 13.1677 0.0000 0.0000 0.0000
# 3 29.1265 13.1677 104.7452 0.0000 0.0000 0.0000
# 4 0.0000 0.0000 0.0000 15.0856 0.0000 0.0000
# 5 0.0000 0.0000 0.0000 0.0000 24.9811 0.0000
# 6 0.0000 0.0000 0.0000 0.0000 0.0000 21.8410
#
#
#
# Elastic Compliance Matrix: (Units=1/GPa)
#
#
# Indices 1 2 3 4 5 6 
#
# 1 0.006548 -0.002447 -0.001513 0.000000 0.000000 0.000000
# 2 -0.002447 0.027008 -0.002715 0.000000 0.000000 0.000000
# 3 -0.001513 -0.002715 0.010309 0.000000 0.000000 0.000000
# 4 0.000000 0.000000 0.000000 0.066288 0.000000 0.000000
# 5 0.000000 0.000000 0.000000 0.000000 0.040030 0.000000
# 6 0.000000 0.000000 0.000000 0.000000 0.000000 0.045785
#
#
# Mechanical properties :
#
#
# Convention : Reuss Voigt Hill
#
# Bulk Modulus (GPa) = 32.77109 47.94006 40.35557
# Shear Modulus (GPa) = 22.78006 29.08979 25.93493
#
# Velocity S-wave (km/s) = 3.17510 3.58798 3.38783
# Velocity P-wave (km/s) = 5.28624 6.19520 5.75868
#
# Compressibility (1/GPa) = 0.03051470
#
# Stress axis : x y z
#
# Youngs Moduli (GPa) = 152.72580 37.02615 97.00269
#
# Poissons Ratio (x) = 0.09061 0.14677
# Poissons Ratio (y) = 0.37374 0.26334
# Poissons Ratio (z) = 0.23109 0.10052
#
# Static dielectric constant tensor:
#      x y z
#    x 1.831500 0.000000 0.000000 
#    y 0.000000 1.869290 0.000000 
#    z 0.000000 0.000000 1.986170 
# 
# From -- ./inp_files/45415.got.cif
#   From: 2010.05.17/outbox.cif.g08.bks.cpg/sg22_23_cif.got.tgz:45415.got - 2010.06.03 23:40:54.
