data_PCOD9326553
_publ_section_title
;
Structure prediction by ZEFSAII (Michael W. Deem and Ramdas Pophale) SiO2 
 PCOD9326553
Probable space group: F 2 2 2
;
_chemical_formula_sum "Si O2"
_cell_formula_units_Z 88
_cell_length_a 13.501933
_cell_length_b 18.455973
_cell_length_c 16.063975
_cell_angle_alpha 90.000000
_cell_angle_beta 90.000000
_cell_angle_gamma 90.000000
_cell_volume 4003.002988
_symmetry_space_group_name_H-M "F 2 2 2"
_symmetry_group_IT_number 22
_symmetry_cell_setting 'orthorhombic'
loop_
_space_group_symop_operation_xyz
x,y,z
-x,-y,z
x,-y,-z
-x,y,-z
x,1/2+y,1/2+z
-x,1/2-y,1/2+z
x,1/2-y,1/2-z
-x,1/2+y,1/2-z
1/2+x,y,1/2+z
1/2-x,-y,1/2+z
1/2+x,-y,1/2-z
1/2-x,y,1/2-z
1/2+x,1/2+y,z
1/2-x,1/2-y,z
1/2+x,1/2-y,-z
1/2-x,1/2+y,-z
loop_
_atom_site_type_symbol
_atom_site_label
_atom_site_fract_x
_atom_site_fract_y
_atom_site_fract_z
Si Si1 0.435965 0.934230 0.676473
Si Si2 0.833095 0.687942 0.120986
Si Si3 0.115745 0.914592 0.993551
Si Si4 0.789565 0.169694 0.429560
Si Si5 0.750000 0.429143 0.750000
Si Si6 0.457461 0.821022 0.201634
O O1 0.376995 0.892496 0.603547
O O2 0.345045 0.973395 0.722539
O O3 0.501001 0.881519 0.733691
O O4 0.500000 0.000000 0.641088
O O5 0.750000 0.750000 0.132178
O O6 0.799755 0.622815 0.181011
O O7 0.944593 0.705671 0.150908
O O8 0.835583 0.669207 0.022998
O O9 0.189893 0.877308 0.057289
O O10 0.000000 0.897231 0.000000
O O11 0.135451 0.000000 0.000000
O O12 0.750000 0.250000 0.411771
O O13 0.872319 0.150636 0.361072
O O14 0.419648 0.750000 0.250000
#
# Coordination Sequence:
#
# PCOD9326553 Si02
#       6
#    16  16  16  16   8  16
#     4  11  23  44  69 101 131 183 236 296 349 423
#     4  10  19  38  69  98 133 182 235 284 340 420
#     4  11  24  46  74  99 132 185 249 300 350 427
#     4  11  26  42  68 104 142 185 228 297 372 426
#     4  10  19  36  66  98 133 164 232 282 350 406
#     4  11  26  43  65 102 149 183 230 292 369 433
#
# _framework density 21.983497
#
# number of rings (size 3 to 8) (size 9 to 14) (size 15 to 20)
#    0.000    1.273    3.636    3.000    5.091    1.818 
#    0.000    0.000    0.000    0.000    0.000    0.000 
#    0.000    0.000    0.000    0.000    0.000    0.000 
#
# Total GULP energy -122619.830673 kJ/mol
# GULP energy per Si atom -5573.628667 kJ/mol
# Density = 2.193346 g / cm^3
# Si number density = 21.983497 Si / 1000 Ang^3
#
#
#
# Elastic Constant Matrix: (Units=GPa)
#
#
# Indices 1 2 3 4 5 6 
#
# 1 141.5318 48.9768 50.7671 0.0000 0.0000 0.0000
# 2 48.9768 58.2842 17.1552 0.0000 0.0000 0.0000
# 3 50.7671 17.1552 91.0292 0.0000 0.0000 0.0000
# 4 0.0000 0.0000 0.0000 -11.5889 0.0000 0.0000
# 5 0.0000 0.0000 0.0000 0.0000 44.7258 0.0000
# 6 0.0000 0.0000 0.0000 0.0000 0.0000 27.6752
#
#
#
# Elastic Compliance Matrix: (Units=1/GPa)
#
#
# Indices 1 2 3 4 5 6 
#
# 1 0.011764 -0.008421 -0.004974 0.000000 0.000000 0.000000
# 2 -0.008421 0.024193 0.000137 0.000000 0.000000 0.000000
# 3 -0.004974 0.000137 0.013733 0.000000 0.000000 0.000000
# 4 0.000000 0.000000 0.000000 -0.086290 0.000000 0.000000
# 5 0.000000 0.000000 0.000000 0.000000 0.022358 0.000000
# 6 0.000000 0.000000 0.000000 0.000000 0.000000 0.036133
#
#
# Mechanical properties :
#
#
# Convention : Reuss Voigt Hill
#
# Bulk Modulus (GPa) = 43.14978 58.29371 50.72174
# Shear Modulus (GPa) = 89.07350 23.75882 56.41616
#
# Velocity S-wave (km/s) = 6.37231 3.29105 5.07136
# Velocity P-wave (km/s) = 8.59143 6.40437 7.57722
#
# Compressibility (1/GPa) = 0.02317509
#
# Stress axis : x y z
#
# Youngs Moduli (GPa) = 85.00692 41.33350 72.81500
#
# Poissons Ratio (x) = 0.34808 0.36215
# Poissons Ratio (y) = 0.71587 -0.00998
# Poissons Ratio (z) = 0.42279 -0.00567
#
# Static dielectric constant tensor:
#      x y z
#    x 2.091520 0.000000 0.000000 
#    y 0.000000 1.785310 0.000000 
#    z 0.000000 0.000000 2.086000 
# 
# From -- ./inp_files/36075.got.cif
#   From: 2010.05.17/outbox.cif.g08.bks.cpg/sg22_19_cif.got.tgz:36075.got - 2010.06.03 23:40:54.
