data_PCOD9326725
_publ_section_title
;
Structure prediction by ZEFSAII (Michael W. Deem and Ramdas Pophale) SiO2 
 PCOD9326725
Probable space group: F 2 2 2
;
_chemical_formula_sum "Si O2"
_cell_formula_units_Z 68
_cell_length_a 19.836591
_cell_length_b 19.624390
_cell_length_c 7.702963
_cell_angle_alpha 90.000000
_cell_angle_beta 90.000000
_cell_angle_gamma 90.000000
_cell_volume 2998.617125
_symmetry_space_group_name_H-M "F 2 2 2"
_symmetry_group_IT_number 22
_symmetry_cell_setting 'orthorhombic'
loop_
_space_group_symop_operation_xyz
x,y,z
-x,-y,z
x,-y,-z
-x,y,-z
x,1/2+y,1/2+z
-x,1/2-y,1/2+z
x,1/2-y,1/2-z
-x,1/2+y,1/2-z
1/2+x,y,1/2+z
1/2-x,-y,1/2+z
1/2+x,-y,1/2-z
1/2-x,y,1/2-z
1/2+x,1/2+y,z
1/2-x,1/2-y,z
1/2+x,1/2-y,-z
1/2-x,1/2+y,-z
loop_
_atom_site_type_symbol
_atom_site_label
_atom_site_fract_x
_atom_site_fract_y
_atom_site_fract_z
Si Si1 0.250000 0.750000 0.250000
Si Si2 0.867590 0.163117 0.410162
Si Si3 0.670541 0.618703 0.211132
Si Si4 0.932353 0.284459 0.560940
Si Si5 0.674374 0.027924 0.199683
O O1 0.201404 0.798357 0.361567
O O2 0.863299 0.136608 0.606272
O O3 0.921584 0.222904 0.424841
O O4 0.872628 0.094518 0.297081
O O5 0.750000 0.629458 0.250000
O O6 0.634144 0.667817 0.073721
O O7 0.659226 0.538278 0.183959
O O8 0.938944 0.250000 0.750000
O O9 0.000000 0.321826 0.500000
O O10 0.750000 0.050195 0.250000
O O11 0.676594 0.000000 0.000000
#
# Coordination Sequence:
#
# PCOD9326725 Si02
#       5
#     4  16  16  16  16
#     4  12  20  28  54  96 124 148 190 264 304 356
#     4  10  20  32  53  88 123 154 197 252 303 364
#     4   9  18  36  61  86 118 159 201 249 313 365
#     4  10  22  39  59  89 122 163 206 250 303 368
#     4   9  17  33  55  85 121 155 195 249 314 364
#
# _framework density 22.677119000000001
#
# number of rings (size 3 to 8) (size 9 to 14) (size 15 to 20)
#    0.000    2.353    1.176    1.412    1.647    3.294 
#    0.000    0.000    0.000   17.647   12.235    0.000 
#    0.000    0.000    0.000    0.000    0.000    0.000 
#
# Total GULP energy -94811.291990 kJ/mol
# GULP energy per Si atom -5577.134823 kJ/mol
# Density = 2.262550 g / cm^3
# Si number density = 22.677119 Si / 1000 Ang^3
#
#
#
# Elastic Constant Matrix: (Units=GPa)
#
#
# Indices 1 2 3 4 5 6 
#
# 1 85.4727 58.5729 11.6886 0.0000 0.0000 0.0000
# 2 58.5729 155.5543 32.0780 0.0001 0.0000 0.0001
# 3 11.6886 32.0780 57.2987 0.0005 -0.0001 0.0007
# 4 0.0000 0.0001 0.0005 18.3879 0.0000 0.0004
# 5 0.0000 0.0000 -0.0001 0.0000 29.6874 0.0001
# 6 0.0000 0.0001 0.0007 0.0004 0.0001 46.5472
#
#
#
# Elastic Compliance Matrix: (Units=1/GPa)
#
#
# Indices 1 2 3 4 5 6 
#
# 1 0.015769 -0.005963 0.000121 0.000000 0.000000 0.000000
# 2 -0.005963 0.009522 -0.004115 0.000000 0.000000 0.000000
# 3 0.000121 -0.004115 0.019731 -0.000001 0.000000 0.000000
# 4 0.000000 0.000000 -0.000001 0.054383 0.000000 -0.000001
# 5 0.000000 0.000000 0.000000 0.000000 0.033684 0.000000
# 6 0.000000 0.000000 0.000000 -0.000001 0.000000 0.021484
#
#
# Mechanical properties :
#
#
# Convention : Reuss Voigt Hill
#
# Bulk Modulus (GPa) = 39.82368 55.88940 47.85654
# Shear Modulus (GPa) = 27.34385 31.99027 29.66706
#
# Velocity S-wave (km/s) = 3.47622 3.75998 3.62088
# Velocity P-wave (km/s) = 5.80615 6.59918 6.21533
#
# Compressibility (1/GPa) = 0.02511069
#
# Stress axis : x y z
#
# Youngs Moduli (GPa) = 63.41447 105.01566 50.68130
#
# Poissons Ratio (x) = 0.62619 -0.00615
# Poissons Ratio (y) = 0.37813 0.20853
# Poissons Ratio (z) = -0.00770 0.43210
#
# Static dielectric constant tensor:
#      x y z
#    x 1.817690 0.000000 0.000000 
#    y 0.000000 1.913470 0.000000 
#    z 0.000000 0.000000 1.840390 
# 
# From -- ./inp_files/11250.got.cif
#   From: 2010.05.17/outbox.cif.g08.bks.cpg/sg22_6_cif.got.tgz:11250.got - 2010.06.03 23:40:54.
