data_PCOD9326886
_publ_section_title
;
Structure prediction by ZEFSAII (Michael W. Deem and Ramdas Pophale) SiO2 
 PCOD9326886
Probable space group: F 2 2 2
;
_chemical_formula_sum "Si O2"
_cell_formula_units_Z 64
_cell_length_a 14.384254
_cell_length_b 22.321806
_cell_length_c 8.366009
_cell_angle_alpha 90.000000
_cell_angle_beta 90.000000
_cell_angle_gamma 90.000000
_cell_volume 2686.179313
_symmetry_space_group_name_H-M "F 2 2 2"
_symmetry_group_IT_number 22
_symmetry_cell_setting 'orthorhombic'
loop_
_space_group_symop_operation_xyz
x,y,z
-x,-y,z
x,-y,-z
-x,y,-z
x,1/2+y,1/2+z
-x,1/2-y,1/2+z
x,1/2-y,1/2-z
-x,1/2+y,1/2-z
1/2+x,y,1/2+z
1/2-x,-y,1/2+z
1/2+x,-y,1/2-z
1/2-x,y,1/2-z
1/2+x,1/2+y,z
1/2-x,1/2-y,z
1/2+x,1/2-y,-z
1/2-x,1/2+y,-z
loop_
_atom_site_type_symbol
_atom_site_label
_atom_site_fract_x
_atom_site_fract_y
_atom_site_fract_z
Si Si1 0.276765 0.440356 0.563779
Si Si2 0.360597 0.233632 0.576331
Si Si3 0.905670 0.104675 0.937888
Si Si4 0.153919 0.664341 0.858910
O O1 0.327249 0.500000 0.500000
O O2 0.250000 0.441124 0.750000
O O3 0.182250 0.437328 0.459297
O O4 0.325427 0.378812 0.509562
O O5 0.397729 0.250000 0.750000
O O6 0.250000 0.250000 0.579110
O O7 0.382992 0.165058 0.539209
O O8 0.389530 0.275342 0.428336
O O9 0.912140 0.127890 0.758251
O O10 0.000000 0.077427 0.000000
O O11 0.250000 0.673605 0.750000
#
# Coordination Sequence:
#
# PCOD9326886 Si02
#       4
#    16  16  16  16
#     4  11  22  41  66  89 115 159 213 253 297 366
#     4  11  20  34  58  87 122 162 205 246 299 366
#     4  11  24  38  59  93 125 158 199 255 316 358
#     4  10  20  36  61  86 119 161 205 248 297 365
#
# _framework density 23.825662000000001
#
# number of rings (size 3 to 8) (size 9 to 14) (size 15 to 20)
#    0.000    1.250    5.000    4.500    0.000    2.500 
#    0.000    3.750    0.000    1.500    0.000    0.000 
#    0.000    0.000    0.000    0.000    0.000    0.000 
#
# Total GULP energy -89439.376061 kJ/mol
# GULP energy per Si atom -5589.961004 kJ/mol
# Density = 2.377143 g / cm^3
# Si number density = 23.825662 Si / 1000 Ang^3
#
#
#
# Elastic Constant Matrix: (Units=GPa)
#
#
# Indices 1 2 3 4 5 6 
#
# 1 36.9368 -24.4690 -21.7974 0.0000 0.0000 0.0000
# 2 -24.4690 105.0847 13.9217 0.0000 0.0000 0.0000
# 3 -21.7974 13.9217 145.6916 0.0000 0.0000 0.0000
# 4 0.0000 0.0000 0.0000 38.3595 0.0000 0.0000
# 5 0.0000 0.0000 0.0000 0.0000 19.6494 0.0000
# 6 0.0000 0.0000 0.0000 0.0000 0.0000 6.7763
#
#
#
# Elastic Compliance Matrix: (Units=1/GPa)
#
#
# Indices 1 2 3 4 5 6 
#
# 1 0.034667 0.007480 0.004472 0.000000 0.000000 0.000000
# 2 0.007480 0.011252 0.000044 0.000000 0.000000 0.000000
# 3 0.004472 0.000044 0.007529 0.000000 0.000000 0.000000
# 4 0.000000 0.000000 0.000000 0.026069 0.000000 0.000000
# 5 0.000000 0.000000 0.000000 0.000000 0.050892 0.000000
# 6 0.000000 0.000000 0.000000 0.000000 0.000000 0.147574
#
#
# Mechanical properties :
#
#
# Convention : Reuss Voigt Hill
#
# Bulk Modulus (GPa) = 12.91331 24.78043 18.84687
# Shear Modulus (GPa) = 17.86958 34.29421 26.08189
#
# Velocity S-wave (km/s) = 2.74161 3.79803 3.31221
# Velocity P-wave (km/s) = 3.93110 5.44580 4.74923
#
# Compressibility (1/GPa) = 0.07743947
#
# Stress axis : x y z
#
# Youngs Moduli (GPa) = 28.84554 88.87308 132.82541
#
# Poissons Ratio (x) = -0.66476 -0.59399
# Poissons Ratio (y) = -0.21576 -0.00583
# Poissons Ratio (z) = -0.12900 -0.00390
#
# Static dielectric constant tensor:
#      x y z
#    x 1.985120 0.000000 0.000000 
#    y 0.000000 1.890040 0.000000 
#    z 0.000000 0.000000 1.903670 
# 
# From -- ./inp_files/12522.got.cif
#   From: 2010.05.17/outbox.cif.g08.bks.cpg/sg22_7_cif.got.tgz:12522.got - 2010.06.03 23:40:54.
