data_PCOD9326724
_publ_section_title
;
Structure prediction by ZEFSAII (Michael W. Deem and Ramdas Pophale) SiO2 
 PCOD9326724
Probable space group: F 2 2 2
;
_chemical_formula_sum "Si O2"
_cell_formula_units_Z 100
_cell_length_a 10.646456
_cell_length_b 16.538220
_cell_length_c 31.383830
_cell_angle_alpha 90.000000
_cell_angle_beta 90.000000
_cell_angle_gamma 90.000000
_cell_volume 5525.858643
_symmetry_space_group_name_H-M "F 2 2 2"
_symmetry_group_IT_number 22
_symmetry_cell_setting 'orthorhombic'
loop_
_space_group_symop_operation_xyz
x,y,z
-x,-y,z
x,-y,-z
-x,y,-z
x,1/2+y,1/2+z
-x,1/2-y,1/2+z
x,1/2-y,1/2-z
-x,1/2+y,1/2-z
1/2+x,y,1/2+z
1/2-x,-y,1/2+z
1/2+x,-y,1/2-z
1/2-x,y,1/2-z
1/2+x,1/2+y,z
1/2-x,1/2-y,z
1/2+x,1/2-y,-z
1/2-x,1/2+y,-z
loop_
_atom_site_type_symbol
_atom_site_label
_atom_site_fract_x
_atom_site_fract_y
_atom_site_fract_z
Si Si1 0.653895 0.586929 0.911794
Si Si2 0.867085 0.993261 0.778044
Si Si3 0.667726 0.826431 0.672648
Si Si4 0.116164 0.844519 0.825056
Si Si5 0.149379 0.596779 0.590521
Si Si6 0.250000 0.750000 0.750000
Si Si7 0.350090 0.178338 0.500206
O O1 0.709385 0.642045 0.874054
O O2 0.698747 0.494778 0.907370
O O3 0.502580 0.589565 0.905376
O O4 0.672445 0.620786 0.959098
O O5 0.750000 0.018888 0.750000
O O6 0.890756 0.059295 0.814903
O O7 0.834325 0.904799 0.796441
O O8 0.000000 0.000000 0.753399
O O9 0.750000 0.750000 0.686477
O O10 0.520465 0.804975 0.669516
O O11 0.188790 0.846078 0.870004
O O12 0.172897 0.804686 0.783070
O O13 0.174587 0.633652 0.544434
O O14 0.500000 0.201308 0.500000
O O15 0.250000 0.250000 0.503878
#
# Coordination Sequence:
#
# PCOD9326724 Si02
#       7
#    16  16  16  16  16   4  16
#     4   9  16  32  56  81 109 143 185 231 278 334
#     4  10  20  37  58  79 109 147 187 236 291 347
#     4  10  20  34  57  84 112 142 182 240 292 341
#     4  10  21  37  55  80 110 149 192 234 291 340
#     4   9  17  32  56  80 106 144 193 230 270 340
#     4  12  24  36  58  76 106 152 196 238 280 340
#     4  10  20  32  53  86 115 145 181 231 280 335
#
# _framework density 18.096736
#
# number of rings (size 3 to 8) (size 9 to 14) (size 15 to 20)
#    0.000    2.240    2.400    0.960    1.120    4.800 
#    0.000    0.000    0.000    1.920    0.000    0.000 
#    0.000    0.000    0.000    0.000    0.000    0.000 
#
# Total GULP energy -139171.672437 kJ/mol
# GULP energy per Si atom -5566.866897 kJ/mol
# Density = 1.805555 g / cm^3
# Si number density = 18.096736 Si / 1000 Ang^3
#
#
#
# Elastic Constant Matrix: (Units=GPa)
#
#
# Indices 1 2 3 4 5 6 
#
# 1 63.7167 41.3143 39.0009 0.0000 0.0000 0.0000
# 2 41.3143 111.2490 44.6267 0.0000 0.0000 0.0000
# 3 39.0009 44.6267 121.6608 0.0000 0.0000 0.0000
# 4 0.0000 0.0000 0.0000 23.1105 0.0000 0.0000
# 5 0.0000 0.0000 0.0000 0.0000 12.9855 0.0000
# 6 0.0000 0.0000 0.0000 0.0000 0.0000 28.5061
#
#
#
# Elastic Compliance Matrix: (Units=1/GPa)
#
#
# Indices 1 2 3 4 5 6 
#
# 1 0.022975 -0.006540 -0.004966 0.000000 0.000000 0.000000
# 2 -0.006540 0.012401 -0.002452 0.000000 0.000000 0.000000
# 3 -0.004966 -0.002452 0.010711 0.000000 0.000000 0.000000
# 4 0.000000 0.000000 0.000000 0.043270 0.000000 0.000000
# 5 0.000000 0.000000 0.000000 0.000000 0.077009 0.000000
# 6 0.000000 0.000000 0.000000 0.000000 0.000000 0.035080
#
#
# Mechanical properties :
#
#
# Convention : Reuss Voigt Hill
#
# Bulk Modulus (GPa) = 55.03504 60.72336 57.87920
# Shear Modulus (GPa) = 21.23857 24.36606 22.80231
#
# Velocity S-wave (km/s) = 3.42952 3.67336 3.55353
# Velocity P-wave (km/s) = 6.79410 7.18465 6.99210
#
# Compressibility (1/GPa) = 0.01817024
#
# Stress axis : x y z
#
# Youngs Moduli (GPa) = 43.52598 80.63633 93.36064
#
# Poissons Ratio (x) = 0.52736 0.46364
# Poissons Ratio (y) = 0.28466 0.22896
# Poissons Ratio (z) = 0.21615 0.19776
#
# Static dielectric constant tensor:
#      x y z
#    x 1.639160 0.000000 0.000000 
#    y 0.000000 1.650480 0.000000 
#    z 0.000000 0.000000 1.654270 
# 
# From -- ./inp_files/56067.got.cif
#   From: 2010.05.17/outbox.cif.g08.bks.cpg/sg22_29_cif.got.tgz:56067.got - 2010.06.03 23:40:54.
