data_PCOD9326834
_publ_section_title
;
Structure prediction by ZEFSAII (Michael W. Deem and Ramdas Pophale) SiO2 
 PCOD9326834
Probable space group: F 2 2 2
;
_chemical_formula_sum "Si O2"
_cell_formula_units_Z 88
_cell_length_a 18.362379
_cell_length_b 9.774321
_cell_length_c 22.645662
_cell_angle_alpha 90.000000
_cell_angle_beta 90.000000
_cell_angle_gamma 90.000000
_cell_volume 4064.438585
_symmetry_space_group_name_H-M "F 2 2 2"
_symmetry_group_IT_number 22
_symmetry_cell_setting 'orthorhombic'
loop_
_space_group_symop_operation_xyz
x,y,z
-x,-y,z
x,-y,-z
-x,y,-z
x,1/2+y,1/2+z
-x,1/2-y,1/2+z
x,1/2-y,1/2-z
-x,1/2+y,1/2-z
1/2+x,y,1/2+z
1/2-x,-y,1/2+z
1/2+x,-y,1/2-z
1/2-x,y,1/2-z
1/2+x,1/2+y,z
1/2-x,1/2-y,z
1/2+x,1/2-y,-z
1/2-x,1/2+y,-z
loop_
_atom_site_type_symbol
_atom_site_label
_atom_site_fract_x
_atom_site_fract_y
_atom_site_fract_z
Si Si1 0.115596 0.000000 0.500000
Si Si2 0.689298 0.640905 0.610172
Si Si3 0.036993 0.224843 0.872801
Si Si4 0.731536 0.096842 0.680687
Si Si5 0.500000 0.500000 0.680563
Si Si6 0.075089 0.393740 0.283950
Si Si7 0.000000 0.263830 0.000000
O O1 0.161084 0.051107 0.555537
O O2 0.065881 0.131823 0.485888
O O3 0.750000 0.750000 0.591998
O O4 0.621335 0.732200 0.633990
O O5 0.724207 0.528536 0.653325
O O6 0.998516 0.370403 0.860539
O O7 0.997200 0.134196 0.823451
O O8 0.020857 0.183579 0.940302
O O9 0.750000 0.099284 0.750000
O O10 0.750000 0.250000 0.657072
O O11 0.644489 0.073947 0.676250
O O12 0.565332 0.495253 0.728177
O O13 0.089321 0.250000 0.250000
#
# Coordination Sequence:
#
# PCOD9326834 Si02
#       7
#     8  16  16  16   8  16   8
#     4   9  20  40  62  88 115 162 210 258 309 386
#     4  11  25  42  63  95 133 166 210 273 334 384
#     4  10  21  38  63  92 122 161 220 263 315 382
#     4  11  23  40  63  93 131 172 213 256 323 392
#     4  10  20  35  64  85 122 158 214 256 316 370
#     4  10  21  37  61  91 122 169 212 261 311 391
#     4   9  18  36  68  89 112 157 216 270 295 367
#
# _framework density 21.651208
#
# number of rings (size 3 to 8) (size 9 to 14) (size 15 to 20)
#    0.000    1.818    1.818    3.273    7.636    1.091 
#    6.545    0.000    0.000    0.545    0.000    0.000 
#    0.000    0.000    0.000    0.000    0.000    0.000 
#
# Total GULP energy -122719.728280 kJ/mol
# GULP energy per Si atom -5578.169467 kJ/mol
# Density = 2.160193 g / cm^3
# Si number density = 21.651208 Si / 1000 Ang^3
#
#
#
# Elastic Constant Matrix: (Units=GPa)
#
#
# Indices 1 2 3 4 5 6 
#
# 1 133.3704 11.8629 48.8180 0.0000 0.0000 0.0000
# 2 11.8629 67.9724 29.3726 0.0000 0.0000 0.0000
# 3 48.8180 29.3726 86.4757 0.0000 0.0000 0.0000
# 4 0.0000 0.0000 0.0000 15.7348 0.0000 0.0000
# 5 0.0000 0.0000 0.0000 0.0000 29.5829 0.0000
# 6 0.0000 0.0000 0.0000 0.0000 0.0000 -4.6058
#
#
#
# Elastic Compliance Matrix: (Units=1/GPa)
#
#
# Indices 1 2 3 4 5 6 
#
# 1 0.009485 0.000772 -0.005617 0.000000 0.000000 0.000000
# 2 0.000772 0.017305 -0.006314 0.000000 0.000000 0.000000
# 3 -0.005617 -0.006314 0.016879 0.000000 0.000000 0.000000
# 4 0.000000 0.000000 0.000000 0.063554 0.000000 0.000000
# 5 0.000000 0.000000 0.000000 0.000000 0.033803 0.000000
# 6 0.000000 0.000000 0.000000 0.000000 0.000000 -0.217116
#
#
# Mechanical properties :
#
#
# Convention : Reuss Voigt Hill
#
# Bulk Modulus (GPa) = 46.83298 51.99174 49.41236
# Shear Modulus (GPa) = -107.17159 21.32671 -42.92244
#
# Velocity S-wave (km/s) = -7.04319 3.14190 -4.45730
# Velocity P-wave (km/s) = 6.66817 6.10143 1.90224
#
# Compressibility (1/GPa) = 0.02135248
#
# Stress axis : x y z
#
# Youngs Moduli (GPa) = 105.42735 57.78521 59.24410
#
# Poissons Ratio (x) = -0.04460 0.33276
# Poissons Ratio (y) = -0.08136 0.37405
# Poissons Ratio (z) = 0.59216 0.36484
#
# Static dielectric constant tensor:
#      x y z
#    x 1.897340 0.000000 0.000000 
#    y 0.000000 1.821410 0.000000 
#    z 0.000000 0.000000 1.782810 
# 
# From -- ./inp_files/44147.got.cif
#   From: 2010.05.17/outbox.cif.g08.bks.cpg/sg22_23_cif.got.tgz:44147.got - 2010.06.03 23:40:54.
