data_PCOD9326808
_publ_section_title
;
Structure prediction by ZEFSAII (Michael W. Deem and Ramdas Pophale) SiO2 
 PCOD9326808
Probable space group: F 2 2 2
;
_chemical_formula_sum "Si O2"
_cell_formula_units_Z 76
_cell_length_a 34.758755
_cell_length_b 5.203349
_cell_length_c 23.230538
_cell_angle_alpha 90.000000
_cell_angle_beta 90.000000
_cell_angle_gamma 90.000000
_cell_volume 4201.520009
_symmetry_space_group_name_H-M "F 2 2 2"
_symmetry_group_IT_number 22
_symmetry_cell_setting 'orthorhombic'
loop_
_space_group_symop_operation_xyz
x,y,z
-x,-y,z
x,-y,-z
-x,y,-z
x,1/2+y,1/2+z
-x,1/2-y,1/2+z
x,1/2-y,1/2-z
-x,1/2+y,1/2-z
1/2+x,y,1/2+z
1/2-x,-y,1/2+z
1/2+x,-y,1/2-z
1/2-x,y,1/2-z
1/2+x,1/2+y,z
1/2-x,1/2-y,z
1/2+x,1/2-y,-z
1/2-x,1/2+y,-z
loop_
_atom_site_type_symbol
_atom_site_label
_atom_site_fract_x
_atom_site_fract_y
_atom_site_fract_z
Si Si1 0.500000 0.000000 0.307220
Si Si2 0.834963 0.249618 0.458827
Si Si3 0.500000 0.500000 0.000000
Si Si4 0.593015 0.255933 0.124084
Si Si5 0.750000 0.750000 0.540152
Si Si6 0.544292 0.763541 0.100042
Si Si7 0.069124 0.250000 0.750000
O O1 0.511389 0.773039 0.351248
O O2 0.462323 0.961923 0.268971
O O3 0.839352 0.500000 0.500000
O O4 0.867276 0.242513 0.410078
O O5 0.791993 0.252995 0.431090
O O6 0.838350 0.000000 0.500000
O O7 0.525665 0.680737 0.040235
O O8 0.575005 0.538247 0.114673
O O9 0.593599 0.201192 0.192755
O O10 0.564563 0.037263 0.099497
O O11 0.749737 0.500000 0.500000
#
# Coordination Sequence:
#
# PCOD9326808 Si02
#       7
#     8  16   4  16   8  16   8
#     4   9  18  35  54  72  97 138 195 232 256 306
#     4  10  20  35  57  82 114 139 172 215 267 334
#     4  10  24  38  52  74 116 146 178 230 278 366
#     4  11  23  36  55  81 104 142 177 230 273 313
#     4   8  16  32  54  81 106 143 172 202 256 326
#     4  10  23  36  53  77 103 144 183 220 283 318
#     4  10  20  36  58  73 104 136 194 231 268 312
#
# _framework density 18.088692999999999
#
# number of rings (size 3 to 8) (size 9 to 14) (size 15 to 20)
#    0.000    2.105    0.000    2.526    4.421   10.105 
#    0.000    0.000    0.000    0.632    0.000    0.000 
#    0.000   16.842    0.000    0.000    0.000    2.526 
#
# Total GULP energy -105995.991114 kJ/mol
# GULP energy per Si atom -5578.736374 kJ/mol
# Density = 1.804752 g / cm^3
# Si number density = 18.088693 Si / 1000 Ang^3
#
#
#
# Elastic Constant Matrix: (Units=GPa)
#
#
# Indices 1 2 3 4 5 6 
#
# 1 148.6233 29.2065 67.3657 0.0044 -0.0028 0.0058
# 2 29.2065 93.8840 12.5494 0.0111 -0.0094 0.0042
# 3 67.3657 12.5494 120.6890 0.0041 -0.0007 0.0018
# 4 0.0044 0.0111 0.0041 11.9185 -0.0025 0.0030
# 5 -0.0028 -0.0094 -0.0007 -0.0025 61.7335 -0.0076
# 6 0.0058 0.0042 0.0018 0.0030 -0.0076 21.8600
#
#
#
# Elastic Compliance Matrix: (Units=1/GPa)
#
#
# Indices 1 2 3 4 5 6 
#
# 1 0.009461 -0.002269 -0.005045 0.000000 0.000000 -0.000002
# 2 -0.002269 0.011346 0.000087 -0.000010 0.000002 -0.000002
# 3 -0.005045 0.000087 0.011093 -0.000002 0.000000 0.000000
# 4 0.000000 -0.000010 -0.000002 0.083903 0.000003 -0.000012
# 5 0.000000 0.000002 0.000000 0.000003 0.016199 0.000006
# 6 -0.000002 -0.000002 0.000000 -0.000012 0.000006 0.045746
#
#
# Mechanical properties :
#
#
# Convention : Reuss Voigt Hill
#
# Bulk Modulus (GPa) = 57.32273 64.60440 60.96356
# Shear Modulus (GPa) = 25.25045 36.04070 30.64558
#
# Velocity S-wave (km/s) = 3.74026 4.46852 4.12051
# Velocity P-wave (km/s) = 7.10009 7.90041 7.51092
#
# Compressibility (1/GPa) = 0.01744509
#
# Stress axis : x y z
#
# Youngs Moduli (GPa) = 105.69707 88.13922 90.14913
#
# Poissons Ratio (x) = 0.19998 0.45480
# Poissons Ratio (y) = 0.23981 -0.00782
# Poissons Ratio (z) = 0.53324 -0.00764
#
# Static dielectric constant tensor:
#      x y z
#    x 1.646750 0.000000 0.000000 
#    y 0.000000 1.639880 -0.000010 
#    z 0.000000 -0.000010 1.639760 
# 
# From -- ./inp_files/5704.got.cif
#   From: 2010.05.17/outbox.cif.g08.bks.cpg/sg22_3_cif.got.tgz:5704.got - 2010.06.03 23:40:54.
