data_PCOD9326696
_publ_section_title
;
Structure prediction by ZEFSAII (Michael W. Deem and Ramdas Pophale) SiO2 
 PCOD9326696
Probable space group: F 2 2 2
;
_chemical_formula_sum "Si O2"
_cell_formula_units_Z 96
_cell_length_a 26.891185
_cell_length_b 17.637034
_cell_length_c 11.213048
_cell_angle_alpha 90.000000
_cell_angle_beta 90.000000
_cell_angle_gamma 90.000000
_cell_volume 5318.132750
_symmetry_space_group_name_H-M "F 2 2 2"
_symmetry_group_IT_number 22
_symmetry_cell_setting 'orthorhombic'
loop_
_space_group_symop_operation_xyz
x,y,z
-x,-y,z
x,-y,-z
-x,y,-z
x,1/2+y,1/2+z
-x,1/2-y,1/2+z
x,1/2-y,1/2-z
-x,1/2+y,1/2-z
1/2+x,y,1/2+z
1/2-x,-y,1/2+z
1/2+x,-y,1/2-z
1/2-x,y,1/2-z
1/2+x,1/2+y,z
1/2-x,1/2-y,z
1/2+x,1/2-y,-z
1/2-x,1/2+y,-z
loop_
_atom_site_type_symbol
_atom_site_label
_atom_site_fract_x
_atom_site_fract_y
_atom_site_fract_z
Si Si1 0.749818 0.161129 0.605059
Si Si2 0.550787 0.629255 0.569597
Si Si3 0.518759 0.250000 0.250000
Si Si4 0.641935 0.842259 0.384531
Si Si5 0.858371 0.659074 0.102111
Si Si6 0.964154 0.880147 0.107854
Si Si7 0.000000 0.000000 0.294353
O O1 0.750000 0.159438 0.750000
O O2 0.750000 0.250000 0.571253
O O3 0.695738 0.129104 0.571012
O O4 0.803257 0.130403 0.564491
O O5 0.500000 0.648296 0.500000
O O6 0.552380 0.692915 0.672579
O O7 0.597236 0.630911 0.481087
O O8 0.538821 0.548189 0.628071
O O9 0.483257 0.198996 0.334322
O O10 0.641743 0.751159 0.401203
O O11 0.636062 0.858477 0.242693
O O12 0.591733 0.874069 0.439782
O O13 0.970814 0.941274 0.211456
O O14 0.000000 0.899802 0.000000
#
# Coordination Sequence:
#
# PCOD9326696 Si02
#       7
#    16  16   8  16  16  16   8
#     4   7  12  22  39  69 103 126 149 190 239 284
#     4  11  20  32  48  70 100 134 166 203 251 294
#     4  10  20  30  46  76 104 126 166 206 242 302
#     4   9  15  25  45  75 103 124 157 200 241 293
#     4   9  15  26  46  72 103 131 155 195 247 291
#     4  11  20  33  50  71  99 133 167 205 252 293
#     4  10  24  36  44  68 100 134 174 206 242 300
#
# _framework density 18.051448000000001
#
# number of rings (size 3 to 8) (size 9 to 14) (size 15 to 20)
#    0.000    2.500    0.000    8.000    0.000    0.000 
#    0.000    0.000    0.000    0.000    0.000   46.083 
#    0.000    5.333    0.000    0.000    0.000    0.000 
#
# Total GULP energy -133750.595199 kJ/mol
# GULP energy per Si atom -5572.941467 kJ/mol
# Density = 1.801036 g / cm^3
# Si number density = 18.051448 Si / 1000 Ang^3
#
#
#
# Elastic Constant Matrix: (Units=GPa)
#
#
# Indices 1 2 3 4 5 6 
#
# 1 198.1388 27.6205 50.4015 0.0000 0.0000 0.0000
# 2 27.6205 60.7388 29.1142 0.0000 0.0000 0.0000
# 3 50.4015 29.1142 62.1114 0.0000 0.0000 0.0000
# 4 0.0000 0.0000 0.0000 17.4259 0.0000 0.0000
# 5 0.0000 0.0000 0.0000 0.0000 22.1307 0.0000
# 6 0.0000 0.0000 0.0000 0.0000 0.0000 0.7947
#
#
#
# Elastic Compliance Matrix: (Units=1/GPa)
#
#
# Indices 1 2 3 4 5 6 
#
# 1 0.006373 -0.000541 -0.004918 0.000000 0.000000 0.000000
# 2 -0.000541 0.021281 -0.009537 0.000000 0.000000 0.000000
# 3 -0.004918 -0.009537 0.024561 0.000000 0.000000 0.000000
# 4 0.000000 0.000000 0.000000 0.057386 0.000000 0.000000
# 5 0.000000 0.000000 0.000000 0.000000 0.045186 0.000000
# 6 0.000000 0.000000 0.000000 0.000000 0.000000 1.258287
#
#
# Mechanical properties :
#
#
# Convention : Reuss Voigt Hill
#
# Bulk Modulus (GPa) = 44.99523 59.47348 52.23436
# Shear Modulus (GPa) = 3.44715 22.32712 12.88713
#
# Velocity S-wave (km/s) = 1.38339 3.52072 2.67481
# Velocity P-wave (km/s) = 5.24709 7.03885 6.20795
#
# Compressibility (1/GPa) = 0.02222458
#
# Stress axis : x y z
#
# Youngs Moduli (GPa) = 156.90066 46.99019 40.71425
#
# Poissons Ratio (x) = 0.02541 0.20025
# Poissons Ratio (y) = 0.08484 0.38827
# Poissons Ratio (z) = 0.77170 0.44812
#
# Static dielectric constant tensor:
#      x y z
#    x 1.669040 0.000000 0.000000 
#    y 0.000000 1.643560 0.000000 
#    z 0.000000 0.000000 1.629640 
# 
# From -- ./inp_files/23844.got.cif
#   From: 2010.05.17/outbox.cif.g08.bks.cpg/sg22_12_cif.got.tgz:23844.got - 2010.06.03 23:40:54.
