data_PCOD9326889
_publ_section_title
;
Structure prediction by ZEFSAII (Michael W. Deem and Ramdas Pophale) SiO2 
 PCOD9326889
Probable space group: F 2 2 2
;
_chemical_formula_sum "Si O2"
_cell_formula_units_Z 56
_cell_length_a 14.605541
_cell_length_b 32.938246
_cell_length_c 5.122314
_cell_angle_alpha 90.000000
_cell_angle_beta 90.000000
_cell_angle_gamma 90.000000
_cell_volume 2464.247442
_symmetry_space_group_name_H-M "F 2 2 2"
_symmetry_group_IT_number 22
_symmetry_cell_setting 'orthorhombic'
loop_
_space_group_symop_operation_xyz
x,y,z
-x,-y,z
x,-y,-z
-x,y,-z
x,1/2+y,1/2+z
-x,1/2-y,1/2+z
x,1/2-y,1/2-z
-x,1/2+y,1/2-z
1/2+x,y,1/2+z
1/2-x,-y,1/2+z
1/2+x,-y,1/2-z
1/2-x,y,1/2-z
1/2+x,1/2+y,z
1/2-x,1/2-y,z
1/2+x,1/2-y,-z
1/2-x,1/2+y,-z
loop_
_atom_site_type_symbol
_atom_site_label
_atom_site_fract_x
_atom_site_fract_y
_atom_site_fract_z
Si Si1 0.638166 0.203695 0.262437
Si Si2 0.301812 0.000000 0.000000
Si Si3 0.860417 0.653052 0.242170
Si Si4 0.061822 0.935893 0.754006
O O1 0.605332 0.250000 0.250000
O O2 0.750000 0.205348 0.250000
O O3 0.611077 0.183952 0.533694
O O4 0.611073 0.173150 0.031162
O O5 0.250000 0.020559 0.750000
O O6 0.361086 0.967518 0.837042
O O7 0.750000 0.650376 0.250000
O O8 0.897417 0.608510 0.302509
O O9 0.000000 0.932389 0.500000
O O10 0.000000 0.949003 0.000000
#
# Coordination Sequence:
#
# PCOD9326889 Si02
#       4
#    16   8  16  16
#     4   9  17  31  56  90 123 159 212 275 325 368
#     4  12  27  48  75 102 130 170 228 282 329 394
#     4  10  20  36  61  90 123 166 217 267 319 385
#     4  12  26  45  68  97 136 174 213 266 338 404
#
# _framework density 22.724988
#
# number of rings (size 3 to 8) (size 9 to 14) (size 15 to 20)
#    0.000    1.429    0.000    5.571    0.000    8.000 
#    0.000    0.000    0.000   17.143    0.000    0.000 
#    0.000    0.000    0.000    0.000    0.000    0.000 
#
# Total GULP energy -78327.292288 kJ/mol
# GULP energy per Si atom -5594.806592 kJ/mol
# Density = 2.267326 g / cm^3
# Si number density = 22.724988 Si / 1000 Ang^3
#
#
#
# Elastic Constant Matrix: (Units=GPa)
#
#
# Indices 1 2 3 4 5 6 
#
# 1 61.0519 16.0506 26.1223 0.0002 -0.0025 0.0011
# 2 16.0506 121.0030 25.4185 0.0002 0.0000 -0.0002
# 3 26.1223 25.4185 144.9185 -0.0002 -0.0054 0.0040
# 4 0.0002 0.0002 -0.0002 38.8140 -0.0002 -0.0013
# 5 -0.0025 0.0000 -0.0054 -0.0002 26.0440 -0.0016
# 6 0.0011 -0.0002 0.0040 -0.0013 -0.0016 23.1805
#
#
#
# Elastic Compliance Matrix: (Units=1/GPa)
#
#
# Indices 1 2 3 4 5 6 
#
# 1 0.018111 -0.001782 -0.002952 0.000000 0.000001 0.000000
# 2 -0.001782 0.008756 -0.001214 0.000000 0.000000 0.000000
# 3 -0.002952 -0.001214 0.007646 0.000000 0.000001 -0.000001
# 4 0.000000 0.000000 0.000000 0.025764 0.000000 0.000001
# 5 0.000001 0.000000 0.000001 0.000000 0.038397 0.000003
# 6 0.000000 0.000000 -0.000001 0.000001 0.000003 0.043140
#
#
# Mechanical properties :
#
#
# Convention : Reuss Voigt Hill
#
# Bulk Modulus (GPa) = 44.21852 51.35068 47.78460
# Shear Modulus (GPa) = 31.00802 34.89982 32.95392
#
# Velocity S-wave (km/s) = 3.69791 3.92311 3.81217
# Velocity P-wave (km/s) = 6.14272 6.57014 6.36002
#
# Compressibility (1/GPa) = 0.02261496
#
# Stress axis : x y z
#
# Youngs Moduli (GPa) = 55.21465 114.21012 130.79476
#
# Poissons Ratio (x) = 0.20355 0.38611
# Poissons Ratio (y) = 0.09841 0.15885
# Poissons Ratio (z) = 0.16299 0.13871
#
# Static dielectric constant tensor:
#      x y z
#    x 1.965140 0.000000 0.000000 
#    y 0.000000 1.870490 0.000000 
#    z 0.000000 0.000000 1.790580 
# 
# From -- ./inp_files/1890.got.cif
#   From: 2010.05.17/outbox.cif.g08.bks.cpg/sg22_1_cif.got.tgz:1890.got - 2010.06.03 23:40:54.
