data_PCOD9326111
_publ_section_title
;
Structure prediction by ZEFSAII (Michael W. Deem and Ramdas Pophale) SiO2 
 PCOD9326111
Probable space group: F 2 2 2
;
_chemical_formula_sum "Si O2"
_cell_formula_units_Z 96
_cell_length_a 16.900485
_cell_length_b 16.929103
_cell_length_c 18.613758
_cell_angle_alpha 90.000000
_cell_angle_beta 90.000000
_cell_angle_gamma 90.000000
_cell_volume 5325.583257
_symmetry_space_group_name_H-M "F 2 2 2"
_symmetry_group_IT_number 22
_symmetry_cell_setting 'orthorhombic'
loop_
_space_group_symop_operation_xyz
x,y,z
-x,-y,z
x,-y,-z
-x,y,-z
x,1/2+y,1/2+z
-x,1/2-y,1/2+z
x,1/2-y,1/2-z
-x,1/2+y,1/2-z
1/2+x,y,1/2+z
1/2-x,-y,1/2+z
1/2+x,-y,1/2-z
1/2-x,y,1/2-z
1/2+x,1/2+y,z
1/2-x,1/2-y,z
1/2+x,1/2-y,-z
1/2-x,1/2+y,-z
loop_
_atom_site_type_symbol
_atom_site_label
_atom_site_fract_x
_atom_site_fract_y
_atom_site_fract_z
Si Si1 0.778246 0.003679 0.076326
Si Si2 0.177575 0.055786 0.710479
Si Si3 0.361274 0.378452 0.260631
Si Si4 0.460058 0.159280 0.729391
Si Si5 0.046510 0.579287 0.423778
Si Si6 0.761288 0.665995 0.370280
O O1 0.715797 0.037421 0.133454
O O2 0.860935 0.052316 0.069401
O O3 0.795557 0.911344 0.092139
O O4 0.737062 0.000000 0.000000
O O5 0.250000 0.098025 0.750000
O O6 0.100824 0.106450 0.725031
O O7 0.161454 0.970802 0.748815
O O8 0.452809 0.364932 0.254276
O O9 0.323650 0.356302 0.336841
O O10 0.318321 0.327409 0.199083
O O11 0.446586 0.250000 0.750000
O O12 0.455831 0.139856 0.643458
O O13 0.000000 0.500000 0.399867
O O14 0.000000 0.600796 0.500000
O O15 0.750000 0.750000 0.408215
#
# Coordination Sequence:
#
# PCOD9326111 Si02
#       6
#    16  16  16  16  16  16
#     4  11  21  38  59  87 118 165 217 258 319 386
#     4  11  20  39  62  85 121 169 218 254 307 396
#     4  10  18  34  60  89 117 151 204 256 314 371
#     4  12  24  37  61  97 130 168 210 270 326 387
#     4  11  21  37  65  95 124 163 214 278 329 387
#     4  10  18  32  57  90 123 151 191 265 321 372
#
# _framework density 18.026195000000001
#
# number of rings (size 3 to 8) (size 9 to 14) (size 15 to 20)
#    0.000    1.167    6.667    4.500    0.000    0.333 
#    0.000    1.667    3.667    4.000    0.000    0.000 
#    0.000    0.000    0.000    0.000    0.000    0.000 
#
# Total GULP energy -133610.984079 kJ/mol
# GULP energy per Si atom -5567.124337 kJ/mol
# Density = 1.798517 g / cm^3
# Si number density = 18.026195 Si / 1000 Ang^3
#
#
#
# Elastic Constant Matrix: (Units=GPa)
#
#
# Indices 1 2 3 4 5 6 
#
# 1 114.3733 52.3009 38.1410 0.0000 0.0000 0.0000
# 2 52.3009 84.0086 40.9183 0.0000 0.0000 0.0000
# 3 38.1410 40.9183 108.9429 0.0000 0.0000 0.0000
# 4 0.0000 0.0000 0.0000 18.9985 0.0000 0.0000
# 5 0.0000 0.0000 0.0000 0.0000 20.3023 0.0000
# 6 0.0000 0.0000 0.0000 0.0000 0.0000 -2.1588
#
#
#
# Elastic Compliance Matrix: (Units=1/GPa)
#
#
# Indices 1 2 3 4 5 6 
#
# 1 0.012498 -0.006915 -0.001779 0.000000 0.000000 0.000000
# 2 -0.006915 0.018394 -0.004488 0.000000 0.000000 0.000000
# 3 -0.001779 -0.004488 0.011487 0.000000 0.000000 0.000000
# 4 0.000000 0.000000 0.000000 0.052636 0.000000 0.000000
# 5 0.000000 0.000000 0.000000 0.000000 0.049255 0.000000
# 6 0.000000 0.000000 0.000000 0.000000 0.000000 -0.463224
#
#
# Mechanical properties :
#
#
# Convention : Reuss Voigt Hill
#
# Bulk Modulus (GPa) = 62.43108 63.33837 62.88472
# Shear Modulus (GPa) = -17.40641 19.15939 0.87649
#
# Velocity S-wave (km/s) = -3.11081 3.26370 0.69806
# Velocity P-wave (km/s) = 4.66968 7.02961 5.96747
#
# Compressibility (1/GPa) = 0.01601766
#
# Stress axis : x y z
#
# Youngs Moduli (GPa) = 80.01004 54.36429 87.05167
#
# Poissons Ratio (x) = 0.37592 0.15483
# Poissons Ratio (y) = 0.55326 0.39068
# Poissons Ratio (z) = 0.14230 0.24398
#
# Static dielectric constant tensor:
#      x y z
#    x 1.619910 0.000000 0.000000 
#    y 0.000000 1.678510 0.000000 
#    z 0.000000 0.000000 1.757620 
# 
# From -- ./inp_files/43480.got.cif
#   From: 2010.05.17/outbox.cif.g08.bks.cpg/sg22_22_cif.got.tgz:43480.got - 2010.06.03 23:40:54.
