data_PCOD9326789
_publ_section_title
;
Structure prediction by ZEFSAII (Michael W. Deem and Ramdas Pophale) SiO2 
 PCOD9326789
Probable space group: F 2 2 2
;
_chemical_formula_sum "Si O2"
_cell_formula_units_Z 60
_cell_length_a 25.295481
_cell_length_b 4.857639
_cell_length_c 21.300953
_cell_angle_alpha 90.000000
_cell_angle_beta 90.000000
_cell_angle_gamma 90.000000
_cell_volume 2617.382611
_symmetry_space_group_name_H-M "F 2 2 2"
_symmetry_group_IT_number 22
_symmetry_cell_setting 'orthorhombic'
loop_
_space_group_symop_operation_xyz
x,y,z
-x,-y,z
x,-y,-z
-x,y,-z
x,1/2+y,1/2+z
-x,1/2-y,1/2+z
x,1/2-y,1/2-z
-x,1/2+y,1/2-z
1/2+x,y,1/2+z
1/2-x,-y,1/2+z
1/2+x,-y,1/2-z
1/2-x,y,1/2-z
1/2+x,1/2+y,z
1/2-x,1/2-y,z
1/2+x,1/2-y,-z
1/2-x,1/2+y,-z
loop_
_atom_site_type_symbol
_atom_site_label
_atom_site_fract_x
_atom_site_fract_y
_atom_site_fract_z
Si Si1 0.138974 0.938965 0.127597
Si Si2 0.080261 0.579104 0.929016
Si Si3 0.250000 0.750000 0.750000
Si Si4 0.088520 0.750000 0.250000
Si Si5 0.750000 0.750000 0.837692
Si Si6 0.500000 0.500000 0.661882
O O1 0.102042 0.703258 0.099506
O O2 0.123083 0.936813 0.202213
O O3 0.200224 0.864033 0.125191
O O4 0.125904 0.204693 0.086822
O O5 0.030387 0.691800 0.888592
O O6 0.067767 0.500000 0.000000
O O7 0.227265 0.514883 0.797720
O O8 0.047481 0.581170 0.207459
#
# Coordination Sequence:
#
# PCOD9326789 Si02
#       6
#    16  16   4   8   8   8
#     4  11  24  40  66  95 133 173 222 282 333 411
#     4  11  24  43  64  93 130 178 230 275 330 402
#     4  10  20  34  62  92 132 168 210 266 336 432
#     4  10  20  37  63 100 132 165 215 270 350 410
#     4  11  22  40  62  97 132 179 224 275 352 402
#     4  10  21  38  66  96 135 174 212 276 342 416
#
# _framework density 22.923663000000001
#
# number of rings (size 3 to 8) (size 9 to 14) (size 15 to 20)
#    0.000    1.333    0.000    6.000    0.000    8.533 
#    0.000    8.000    0.000    0.000    0.000    0.000 
#    0.000    0.000    0.000    0.000    0.000    0.000 
#
# Total GULP energy -83531.542329 kJ/mol
# GULP energy per Si atom -5568.769489 kJ/mol
# Density = 2.287149 g / cm^3
# Si number density = 22.923663 Si / 1000 Ang^3
#
#
#
# Elastic Constant Matrix: (Units=GPa)
#
#
# Indices 1 2 3 4 5 6 
#
# 1 73.0451 -54.9566 101.2887 -0.0044 0.0132 0.0024
# 2 -54.9566 22.3605 143.5371 -0.0105 0.0324 0.0179
# 3 101.2887 143.5371 -35.1816 0.0044 -0.0387 -0.0059
# 4 -0.0044 -0.0105 0.0044 37.7464 -0.0034 -0.0014
# 5 0.0132 0.0324 -0.0387 -0.0034 46.6070 -0.0001
# 6 0.0024 0.0179 -0.0059 -0.0014 -0.0001 30.1786
#
#
#
# Elastic Compliance Matrix: (Units=1/GPa)
#
#
# Indices 1 2 3 4 5 6 
#
# 1 0.006514 -0.003839 0.003092 -0.000001 0.000003 0.000002
# 2 -0.003839 0.003907 0.004888 0.000000 0.000002 -0.000001
# 3 0.003092 0.004888 0.000422 0.000002 -0.000004 -0.000003
# 4 -0.000001 0.000000 0.000002 0.026493 0.000002 0.000001
# 5 0.000003 0.000002 -0.000004 0.000002 0.021456 0.000000
# 6 0.000002 -0.000001 -0.000003 0.000001 0.000000 0.033136
#
#
# Mechanical properties :
#
#
# Convention : Reuss Voigt Hill
#
# Bulk Modulus (GPa) = 52.28248 48.88472 50.58360
# Shear Modulus (GPa) = 55.54272 14.26339 34.90305
#
# Velocity S-wave (km/s) = 4.92768 2.49712 3.90626
# Velocity P-wave (km/s) = 7.43187 5.44844 6.51607
#
# Compressibility (1/GPa) = 0.01912687
#
# Stress axis : x y z
#
# Youngs Moduli (GPa) = 153.51160 255.94212 2367.53785
#
# Poissons Ratio (x) = 0.98254 -7.32075
# Poissons Ratio (y) = 0.58932 -11.57338
# Poissons Ratio (z) = -0.47468 -1.25114
#
# Static dielectric constant tensor:
#      x y z
#    x 1.893310 0.000010 -0.000010 
#    y 0.000010 1.920090 0.000000 
#    z -0.000010 0.000000 1.975850 
# 
# From -- ./inp_files/45100.got.cif
#   From: 2010.05.17/outbox.cif.g08.bks.cpg/sg22_23_cif.got.tgz:45100.got - 2010.06.03 23:40:54.
