data_PCOD9326803
_publ_section_title
;
Structure prediction by ZEFSAII (Michael W. Deem and Ramdas Pophale) SiO2 
 PCOD9326803
Probable space group: F 2 2 2
;
_chemical_formula_sum "Si O2"
_cell_formula_units_Z 120
_cell_length_a 29.645197
_cell_length_b 11.090818
_cell_length_c 14.982183
_cell_angle_alpha 90.000000
_cell_angle_beta 90.000000
_cell_angle_gamma 90.000000
_cell_volume 4925.984225
_symmetry_space_group_name_H-M "F 2 2 2"
_symmetry_group_IT_number 22
_symmetry_cell_setting 'orthorhombic'
loop_
_space_group_symop_operation_xyz
x,y,z
-x,-y,z
x,-y,-z
-x,y,-z
x,1/2+y,1/2+z
-x,1/2-y,1/2+z
x,1/2-y,1/2-z
-x,1/2+y,1/2-z
1/2+x,y,1/2+z
1/2-x,-y,1/2+z
1/2+x,-y,1/2-z
1/2-x,y,1/2-z
1/2+x,1/2+y,z
1/2-x,1/2-y,z
1/2+x,1/2-y,-z
1/2-x,1/2+y,-z
loop_
_atom_site_type_symbol
_atom_site_label
_atom_site_fract_x
_atom_site_fract_y
_atom_site_fract_z
Si Si1 0.027892 0.751575 0.357203
Si Si2 0.889316 0.137209 0.617958
Si Si3 0.000000 0.000000 0.318338
Si Si4 0.300979 0.734560 0.885051
Si Si5 0.646250 0.501473 0.892844
Si Si6 0.698879 0.261429 0.102855
Si Si7 0.055019 0.881037 0.841614
Si Si8 0.613363 0.133434 0.096718
O O1 0.023504 0.750000 0.250000
O O2 0.080724 0.756680 0.375250
O O3 0.992313 0.653281 0.391410
O O4 0.012431 0.887149 0.380738
O O5 0.837617 0.166080 0.643308
O O6 0.919607 0.249085 0.654235
O O7 0.890819 0.140468 0.510209
O O8 0.899746 0.997010 0.634736
O O9 0.036124 0.056507 0.248166
O O10 0.250000 0.750000 0.854128
O O11 0.323760 0.609235 0.858222
O O12 0.299382 0.734003 0.994037
O O13 0.671559 0.622144 0.863706
O O14 0.594030 0.471491 0.872916
O O15 0.648886 0.500000 0.000000
O O16 0.750000 0.250000 0.134740
O O17 0.665047 0.153087 0.123486
#
# Coordination Sequence:
#
# PCOD9326803 Si02
#       8
#    16  16   8  16  16  16  16  16
#     4  10  22  38  56  77 105 144 197 230 273 332
#     4   9  19  34  54  85 115 145 181 229 294 349
#     4  10  22  40  61  81 106 142 198 244 278 338
#     4   8  15  28  48  75 113 151 183 220 276 351
#     4   9  18  32  50  79 121 149 185 233 286 351
#     4   9  18  29  49  80 113 150 186 224 281 346
#     4  10  21  38  56  84 113 144 187 238 291 343
#     4  10  20  35  56  80 117 150 186 233 281 345
#
# _framework density 24.360614999999999
#
# number of rings (size 3 to 8) (size 9 to 14) (size 15 to 20)
#    0.000    2.667    0.000    1.600    5.600    0.533 
#    2.400    1.333    0.000    0.400    0.000    0.000 
#    0.000    0.000    0.000    0.000    0.000    0.000 
#
# Total GULP energy -167254.624344 kJ/mol
# GULP energy per Si atom -5575.154145 kJ/mol
# Density = 2.430517 g / cm^3
# Si number density = 24.360615 Si / 1000 Ang^3
#
#
#
# Elastic Constant Matrix: (Units=GPa)
#
#
# Indices 1 2 3 4 5 6 
#
# 1 203.8091 68.9121 32.9152 0.0000 0.0000 0.0000
# 2 68.9121 137.5777 25.9499 0.0000 0.0000 0.0000
# 3 32.9152 25.9499 51.0139 0.0000 0.0000 0.0000
# 4 0.0000 0.0000 0.0000 10.6533 0.0000 0.0000
# 5 0.0000 0.0000 0.0000 0.0000 30.3548 0.0000
# 6 0.0000 0.0000 0.0000 0.0000 0.0000 32.2265
#
#
#
# Elastic Compliance Matrix: (Units=1/GPa)
#
#
# Indices 1 2 3 4 5 6 
#
# 1 0.006223 -0.002610 -0.002688 0.000000 0.000000 0.000000
# 2 -0.002610 0.009135 -0.002963 0.000000 0.000000 0.000000
# 3 -0.002688 -0.002963 0.022844 0.000000 0.000000 0.000000
# 4 0.000000 0.000000 0.000000 0.093868 0.000000 0.000000
# 5 0.000000 0.000000 0.000000 0.000000 0.032944 0.000000
# 6 0.000000 0.000000 0.000000 0.000000 0.000000 0.031030
#
#
# Mechanical properties :
#
#
# Convention : Reuss Voigt Hill
#
# Bulk Modulus (GPa) = 46.12352 71.99503 59.05927
# Shear Modulus (GPa) = 22.74889 32.28849 27.51869
#
# Velocity S-wave (km/s) = 3.05919 3.64461 3.36466
# Velocity P-wave (km/s) = 5.60829 6.87960 6.27622
#
# Compressibility (1/GPa) = 0.02168091
#
# Stress axis : x y z
#
# Youngs Moduli (GPa) = 160.68995 109.47055 43.77597
#
# Poissons Ratio (x) = 0.28574 0.11765
# Poissons Ratio (y) = 0.41944 0.12969
# Poissons Ratio (z) = 0.43186 0.32432
#
# Static dielectric constant tensor:
#      x y z
#    x 1.968180 0.000000 0.000000 
#    y 0.000000 1.975460 0.000000 
#    z 0.000000 0.000000 1.945980 
# 
# From -- ./inp_files/45884.got.cif
#   From: 2010.05.17/outbox.cif.g08.bks.cpg/sg22_23_cif.got.tgz:45884.got - 2010.06.03 23:40:54.
