data_PCOD9326641
_publ_section_title
;
Structure prediction by ZEFSAII (Michael W. Deem and Ramdas Pophale) SiO2 
 PCOD9326641
Probable space group: F 2 2 2
;
_chemical_formula_sum "Si O2"
_cell_formula_units_Z 72
_cell_length_a 14.042920
_cell_length_b 9.817003
_cell_length_c 22.365475
_cell_angle_alpha 90.000000
_cell_angle_beta 90.000000
_cell_angle_gamma 90.000000
_cell_volume 3083.290691
_symmetry_space_group_name_H-M "F 2 2 2"
_symmetry_group_IT_number 22
_symmetry_cell_setting 'orthorhombic'
loop_
_space_group_symop_operation_xyz
x,y,z
-x,-y,z
x,-y,-z
-x,y,-z
x,1/2+y,1/2+z
-x,1/2-y,1/2+z
x,1/2-y,1/2-z
-x,1/2+y,1/2-z
1/2+x,y,1/2+z
1/2-x,-y,1/2+z
1/2+x,-y,1/2-z
1/2-x,y,1/2-z
1/2+x,1/2+y,z
1/2-x,1/2-y,z
1/2+x,1/2-y,-z
1/2-x,1/2+y,-z
loop_
_atom_site_type_symbol
_atom_site_label
_atom_site_fract_x
_atom_site_fract_y
_atom_site_fract_z
Si Si1 0.348501 0.738332 0.642798
Si Si2 0.963353 0.643680 0.793997
Si Si3 0.250000 0.250000 0.567883
Si Si4 0.385966 0.992522 0.428836
Si Si5 0.891934 0.533822 0.918601
O O1 0.250000 0.750000 0.677929
O O2 0.441770 0.718198 0.682191
O O3 0.354435 0.873127 0.604335
O O4 0.347050 0.610654 0.597450
O O5 0.914218 0.750000 0.750000
O O6 0.903934 0.603356 0.852744
O O7 0.000000 0.500000 0.766625
O O8 0.174325 0.361896 0.594222
O O9 0.171482 0.138952 0.543119
O O10 0.500000 0.000000 0.420882
O O11 0.368410 0.000000 0.500000
O O12 0.000000 0.500000 0.937951
#
# Coordination Sequence:
#
# PCOD9326641 Si02
#       5
#    16  16   8  16  16
#     4  10  19  39  62  83 126 171 205 266 334 388
#     4   9  20  37  61  90 125 168 213 268 330 390
#     4  12  22  38  67  92 118 172 219 262 338 386
#     4  11  25  41  62  96 129 168 223 277 332 400
#     4   9  20  38  61  88 122 161 215 258 322 388
#
# _framework density 23.351673999999999
#
# number of rings (size 3 to 8) (size 9 to 14) (size 15 to 20)
#    0.000    2.444    2.222    2.667    1.556    3.111 
#    0.000    0.556    4.889    8.000    0.000    0.000 
#    0.000    0.000    0.000    0.000    0.000    0.000 
#
# Total GULP energy -100258.167661 kJ/mol
# GULP energy per Si atom -5569.898203 kJ/mol
# Density = 2.329852 g / cm^3
# Si number density = 23.351674 Si / 1000 Ang^3
#
#
#
# Elastic Constant Matrix: (Units=GPa)
#
#
# Indices 1 2 3 4 5 6 
#
# 1 144.4823 56.8504 -1.0887 0.0000 0.0000 0.0000
# 2 56.8504 201.6115 47.2567 0.0000 0.0000 0.0000
# 3 -1.0887 47.2567 75.7045 0.0000 0.0000 0.0000
# 4 0.0000 0.0000 0.0000 -40.9381 0.0000 0.0000
# 5 0.0000 0.0000 0.0000 0.0000 -8.0548 0.0000
# 6 0.0000 0.0000 0.0000 0.0000 0.0000 58.5676
#
#
#
# Elastic Compliance Matrix: (Units=1/GPa)
#
#
# Indices 1 2 3 4 5 6 
#
# 1 0.007985 -0.002669 0.001781 0.000000 0.000000 0.000000
# 2 -0.002669 0.006702 -0.004222 0.000000 0.000000 0.000000
# 3 0.001781 -0.004222 0.015870 0.000000 0.000000 0.000000
# 4 0.000000 0.000000 0.000000 -0.024427 0.000000 0.000000
# 5 0.000000 0.000000 0.000000 0.000000 -0.124150 0.000000
# 6 0.000000 0.000000 0.000000 0.000000 0.000000 0.017074
#
#
# Mechanical properties :
#
#
# Convention : Reuss Voigt Hill
#
# Bulk Modulus (GPa) = 49.17119 69.75946 59.46532
# Shear Modulus (GPa) = -59.56220 23.16694 -18.19763
#
# Velocity S-wave (km/s) = -5.05589 3.15316 -2.79460
# Velocity P-wave (km/s) = 3.60279 6.57228 3.88682
#
# Compressibility (1/GPa) = 0.02033711
#
# Stress axis : x y z
#
# Youngs Moduli (GPa) = 125.23675 149.20275 63.01027
#
# Poissons Ratio (x) = 0.39822 -0.11221
# Poissons Ratio (y) = 0.33426 0.26604
# Poissons Ratio (z) = -0.22303 0.62995
#
# Static dielectric constant tensor:
#      x y z
#    x 2.190820 0.000000 0.000000 
#    y 0.000000 1.873530 0.000000 
#    z 0.000000 0.000000 1.942640 
# 
# From -- ./inp_files/32937.got.cif
#   From: 2010.05.17/outbox.cif.g08.bks.cpg/sg22_17_cif.got.tgz:32937.got - 2010.06.03 23:40:54.
