data_PCOD9326401
_publ_section_title
;
Structure prediction by ZEFSAII (Michael W. Deem and Ramdas Pophale) SiO2 
 PCOD9326401
Probable space group: F 2 2 2
;
_chemical_formula_sum "Si O2"
_cell_formula_units_Z 80
_cell_length_a 24.263126
_cell_length_b 11.900855
_cell_length_c 12.867409
_cell_angle_alpha 90.000000
_cell_angle_beta 90.000000
_cell_angle_gamma 90.000000
_cell_volume 3715.489368
_symmetry_space_group_name_H-M "F 2 2 2"
_symmetry_group_IT_number 22
_symmetry_cell_setting 'orthorhombic'
loop_
_space_group_symop_operation_xyz
x,y,z
-x,-y,z
x,-y,-z
-x,y,-z
x,1/2+y,1/2+z
-x,1/2-y,1/2+z
x,1/2-y,1/2-z
-x,1/2+y,1/2-z
1/2+x,y,1/2+z
1/2-x,-y,1/2+z
1/2+x,-y,1/2-z
1/2-x,y,1/2-z
1/2+x,1/2+y,z
1/2-x,1/2-y,z
1/2+x,1/2-y,-z
1/2-x,1/2+y,-z
loop_
_atom_site_type_symbol
_atom_site_label
_atom_site_fract_x
_atom_site_fract_y
_atom_site_fract_z
Si Si1 0.465687 0.393723 0.393228
Si Si2 0.884873 0.250000 0.250000
Si Si3 0.685761 0.772796 0.953577
Si Si4 0.363908 0.000000 0.000000
Si Si5 0.908912 0.668467 0.420971
Si Si6 0.440768 0.558537 0.141807
O O1 0.500000 0.500000 0.344364
O O2 0.500000 0.376821 0.500000
O O3 0.406201 0.447171 0.417486
O O4 0.448217 0.263722 0.368374
O O5 0.844802 0.262848 0.347973
O O6 0.925435 0.356084 0.265928
O O7 0.750000 0.750000 0.956901
O O8 0.650351 0.718837 0.047506
O O9 0.673933 0.904316 0.955491
O O10 0.933249 0.627802 0.533516
O O11 0.902948 0.553377 0.356950
O O12 0.500000 0.500000 0.136924
#
# Coordination Sequence:
#
# PCOD9326401 Si02
#       6
#    16   8  16   8  16  16
#     4   8  13  24  45  77 108 134 163 217 271 316
#     4  10  23  38  52  82 114 146 185 218 276 342
#     4  10  20  36  56  79 108 143 184 234 276 316
#     4   8  17  30  50  80 102 128 183 230 266 318
#     4   9  17  31  55  83 106 142 194 228 268 327
#     4  10  19  34  54  79 113 148 182 226 272 335
#
# _framework density 21.531483999999999
#
# number of rings (size 3 to 8) (size 9 to 14) (size 15 to 20)
#    0.000    3.000    0.000    2.700    0.000    4.800 
#    0.000   20.000    0.000    0.000    0.000    1.400 
#    0.000    0.000    0.000    0.000    0.000    0.000 
#
# Total GULP energy -111356.424575 kJ/mol
# GULP energy per Si atom -5567.821229 kJ/mol
# Density = 2.148248 g / cm^3
# Si number density = 21.531484 Si / 1000 Ang^3
#
#
#
# Elastic Constant Matrix: (Units=GPa)
#
#
# Indices 1 2 3 4 5 6 
#
# 1 156.5989 61.5894 23.2945 0.0000 0.0000 0.0000
# 2 61.5894 164.0307 25.7897 0.0000 0.0000 0.0000
# 3 23.2945 25.7897 45.7634 0.0000 0.0000 0.0000
# 4 0.0000 0.0000 0.0000 28.3828 0.0000 0.0000
# 5 0.0000 0.0000 0.0000 0.0000 10.6915 0.0000
# 6 0.0000 0.0000 0.0000 0.0000 0.0000 -70.6284
#
#
#
# Elastic Compliance Matrix: (Units=1/GPa)
#
#
# Indices 1 2 3 4 5 6 
#
# 1 0.007750 -0.002512 -0.002529 0.000000 0.000000 0.000000
# 2 -0.002512 0.007503 -0.002950 0.000000 0.000000 0.000000
# 3 -0.002529 -0.002950 0.024801 0.000000 0.000000 0.000000
# 4 0.000000 0.000000 0.000000 0.035233 0.000000 0.000000
# 5 0.000000 0.000000 0.000000 0.000000 0.093532 0.000000
# 6 0.000000 0.000000 0.000000 0.000000 0.000000 -0.014159
#
#
# Mechanical properties :
#
#
# Convention : Reuss Voigt Hill
#
# Bulk Modulus (GPa) = 41.54134 65.30447 53.42290
# Shear Modulus (GPa) = 27.98495 10.73713 19.36104
#
# Velocity S-wave (km/s) = 3.60908 2.23552 3.00191
# Velocity P-wave (km/s) = 6.05825 6.08761 6.07295
#
# Compressibility (1/GPa) = 0.02407240
#
# Stress axis : x y z
#
# Youngs Moduli (GPa) = 129.03179 133.27119 40.32057
#
# Poissons Ratio (x) = 0.33482 0.10198
# Poissons Ratio (y) = 0.32417 0.11894
# Poissons Ratio (z) = 0.32634 0.39312
#
# Static dielectric constant tensor:
#      x y z
#    x 1.762850 0.000000 0.000000 
#    y 0.000000 1.926420 0.000000 
#    z 0.000000 0.000000 2.057700 
# 
# From -- ./inp_files/32287.got.cif
#   From: 2010.05.17/outbox.cif.g08.bks.cpg/sg22_17_cif.got.tgz:32287.got - 2010.06.03 23:40:54.
