data_PCOD9326164
_publ_section_title
;
Structure prediction by ZEFSAII (Michael W. Deem and Ramdas Pophale) SiO2 
 PCOD9326164
Probable space group: F 2 2 2
;
_chemical_formula_sum "Si O2"
_cell_formula_units_Z 96
_cell_length_a 15.353033
_cell_length_b 22.676258
_cell_length_c 12.883150
_cell_angle_alpha 90.000000
_cell_angle_beta 90.000000
_cell_angle_gamma 90.000000
_cell_volume 4485.260136
_symmetry_space_group_name_H-M "F 2 2 2"
_symmetry_group_IT_number 22
_symmetry_cell_setting 'orthorhombic'
loop_
_space_group_symop_operation_xyz
x,y,z
-x,-y,z
x,-y,-z
-x,y,-z
x,1/2+y,1/2+z
-x,1/2-y,1/2+z
x,1/2-y,1/2-z
-x,1/2+y,1/2-z
1/2+x,y,1/2+z
1/2-x,-y,1/2+z
1/2+x,-y,1/2-z
1/2-x,y,1/2-z
1/2+x,1/2+y,z
1/2-x,1/2-y,z
1/2+x,1/2-y,-z
1/2-x,1/2+y,-z
loop_
_atom_site_type_symbol
_atom_site_label
_atom_site_fract_x
_atom_site_fract_y
_atom_site_fract_z
Si Si1 0.577813 0.868178 0.237909
Si Si2 0.898781 0.000560 0.283213
Si Si3 0.347163 0.304441 0.451217
Si Si4 0.403574 0.555463 0.055429
Si Si5 0.142315 0.674135 0.542147
Si Si6 0.070645 0.405104 0.911699
O O1 0.616379 0.819539 0.162023
O O2 0.590220 0.847580 0.355520
O O3 0.482616 0.880104 0.188285
O O4 0.626538 0.932226 0.226178
O O5 0.901172 0.033325 0.173165
O O6 0.863657 0.043894 0.371794
O O7 0.000000 0.000000 0.316331
O O8 0.244290 0.314526 0.437959
O O9 0.382851 0.240789 0.487021
O O10 0.379447 0.352677 0.532482
O O11 0.357102 0.500000 0.000000
O O12 0.500000 0.558074 0.000000
O O13 0.367208 0.620622 0.038372
O O14 0.000000 0.423780 0.000000
#
# Coordination Sequence:
#
# PCOD9326164 Si02
#       6
#    16  16  16  16  16  16
#     4  10  19  35  61  88 113 154 205 252 301 362
#     4  10  18  34  58  86 118 149 190 253 311 351
#     4  10  23  40  56  84 125 164 199 247 309 371
#     4  11  19  36  61  90 117 150 203 264 312 356
#     4  11  22  40  61  83 121 162 201 252 311 366
#     4   9  20  38  58  86 122 157 201 245 307 375
#
# _framework density 21.40344
#
# number of rings (size 3 to 8) (size 9 to 14) (size 15 to 20)
#    0.000    1.833    3.333    2.000    0.000   11.000 
#    3.000    6.667    0.000    2.000    0.000    0.000 
#    0.000    0.000    0.000    0.000    0.000    0.000 
#
# Total GULP energy -133650.955627 kJ/mol
# GULP energy per Si atom -5568.789818 kJ/mol
# Density = 2.135472 g / cm^3
# Si number density = 21.403440 Si / 1000 Ang^3
#
#
#
# Elastic Constant Matrix: (Units=GPa)
#
#
# Indices 1 2 3 4 5 6 
#
# 1 15.2331 -19.4083 -2.5205 0.0000 0.0000 0.0000
# 2 -19.4083 108.2311 32.0889 0.0000 0.0000 0.0000
# 3 -2.5205 32.0889 80.1407 0.0000 0.0000 0.0000
# 4 0.0000 0.0000 0.0000 37.4718 0.0000 0.0000
# 5 0.0000 0.0000 0.0000 0.0000 11.5738 0.0000
# 6 0.0000 0.0000 0.0000 0.0000 0.0000 -10.3851
#
#
#
# Elastic Compliance Matrix: (Units=1/GPa)
#
#
# Indices 1 2 3 4 5 6 
#
# 1 0.086172 0.016622 -0.003946 0.000000 0.000000 0.000000
# 2 0.016622 0.013691 -0.004959 0.000000 0.000000 0.000000
# 3 -0.003946 -0.004959 0.014340 0.000000 0.000000 0.000000
# 4 0.000000 0.000000 0.000000 0.026687 0.000000 0.000000
# 5 0.000000 0.000000 0.000000 0.000000 0.086402 0.000000
# 6 0.000000 0.000000 0.000000 0.000000 0.000000 -0.096292
#
#
# Mechanical properties :
#
#
# Convention : Reuss Voigt Hill
#
# Bulk Modulus (GPa) = 7.71378 24.88055 16.29717
# Shear Modulus (GPa) = 31.49088 20.62842 26.05965
#
# Velocity S-wave (km/s) = 3.83991 3.10786 3.49312
# Velocity P-wave (km/s) = 4.82408 4.95260 4.88876
#
# Compressibility (1/GPa) = 0.12963810
#
# Stress axis : x y z
#
# Youngs Moduli (GPa) = 11.60467 73.04305 69.73700
#
# Poissons Ratio (x) = -1.21416 0.27515
# Poissons Ratio (y) = -0.19290 0.34583
# Poissons Ratio (z) = 0.04579 0.36222
#
# Static dielectric constant tensor:
#      x y z
#    x 1.781480 0.000000 0.000000 
#    y 0.000000 1.914090 0.000000 
#    z 0.000000 0.000000 1.898750 
# 
# From -- ./inp_files/21595.got.cif
#   From: 2010.05.17/outbox.cif.g08.bks.cpg/sg22_11_cif.got.tgz:21595.got - 2010.06.03 23:40:54.
