data_PCOD9326350
_publ_section_title
;
Structure prediction by ZEFSAII (Michael W. Deem and Ramdas Pophale) SiO2 
 PCOD9326350
Probable space group: F 2 2 2
;
_chemical_formula_sum "Si O2"
_cell_formula_units_Z 60
_cell_length_a 14.094052
_cell_length_b 38.153022
_cell_length_c 5.201801
_cell_angle_alpha 90.000000
_cell_angle_beta 90.000000
_cell_angle_gamma 90.000000
_cell_volume 2797.167968
_symmetry_space_group_name_H-M "F 2 2 2"
_symmetry_group_IT_number 22
_symmetry_cell_setting 'orthorhombic'
loop_
_space_group_symop_operation_xyz
x,y,z
-x,-y,z
x,-y,-z
-x,y,-z
x,1/2+y,1/2+z
-x,1/2-y,1/2+z
x,1/2-y,1/2-z
-x,1/2+y,1/2-z
1/2+x,y,1/2+z
1/2-x,-y,1/2+z
1/2+x,-y,1/2-z
1/2-x,y,1/2-z
1/2+x,1/2+y,z
1/2-x,1/2-y,z
1/2+x,1/2-y,-z
1/2-x,1/2+y,-z
loop_
_atom_site_type_symbol
_atom_site_label
_atom_site_fract_x
_atom_site_fract_y
_atom_site_fract_z
Si Si1 0.318076 0.500000 0.500000
Si Si2 0.615524 0.305061 0.017901
Si Si3 0.684267 0.075290 0.001334
Si Si4 0.611539 0.847098 0.019486
Si Si5 0.750000 0.750000 0.250000
O O1 0.250000 0.499692 0.250000
O O2 0.369948 0.462271 0.495392
O O3 0.644051 0.320986 0.293371
O O4 0.500000 0.298019 0.000000
O O5 0.638816 0.334504 0.802983
O O6 0.678890 0.272511 0.929097
O O7 0.750000 0.073749 0.250000
O O8 0.631993 0.112145 0.019487
O O9 0.750000 0.076804 0.750000
O O10 0.500000 0.843076 0.000000
#
# Coordination Sequence:
#
# PCOD9326350 Si02
#       5
#     8  16  16  16   4
#     4   8  16  30  47  82 119 152 192 250 298 332
#     4  10  25  44  65  94 126 157 206 261 313 377
#     4  10  19  32  58  85 117 156 204 248 290 358
#     4  10  22  41  60  87 124 158 194 255 310 358
#     4  12  28  46  76  92 124 174 212 254 340 400
#
# _framework density 21.450268000000001
#
# number of rings (size 3 to 8) (size 9 to 14) (size 15 to 20)
#    0.000    2.133    0.000    1.600    5.600    5.333 
#    0.000    0.667    0.000    0.000    0.000   16.800 
#    0.000    0.000    0.000    0.000    0.000    0.000 
#
# Total GULP energy -83681.259091 kJ/mol
# GULP energy per Si atom -5578.750606 kJ/mol
# Density = 2.140145 g / cm^3
# Si number density = 21.450268 Si / 1000 Ang^3
#
#
#
# Elastic Constant Matrix: (Units=GPa)
#
#
# Indices 1 2 3 4 5 6 
#
# 1 78.2886 38.3257 9.8732 -0.0003 -0.0004 0.0004
# 2 38.3257 168.5547 23.5840 -0.0004 -0.0002 0.0004
# 3 9.8732 23.5840 125.1910 -0.0013 -0.0010 0.0015
# 4 -0.0003 -0.0004 -0.0013 30.7243 0.0003 -0.0005
# 5 -0.0004 -0.0002 -0.0010 0.0003 8.5290 -0.0005
# 6 0.0004 0.0004 0.0015 -0.0005 -0.0005 -39.2925
#
#
#
# Elastic Compliance Matrix: (Units=1/GPa)
#
#
# Indices 1 2 3 4 5 6 
#
# 1 0.014408 -0.003201 -0.000533 0.000000 0.000000 0.000000
# 2 -0.003201 0.006805 -0.001029 0.000000 0.000000 0.000000
# 3 -0.000533 -0.001029 0.008224 0.000000 0.000001 0.000000
# 4 0.000000 0.000000 0.000000 0.032548 -0.000001 0.000000
# 5 0.000000 0.000000 0.000001 -0.000001 0.117247 -0.000001
# 6 0.000000 0.000000 0.000000 0.000000 -0.000001 -0.025450
#
#
# Mechanical properties :
#
#
# Convention : Reuss Voigt Hill
#
# Bulk Modulus (GPa) = 50.23049 57.28891 53.75970
# Shear Modulus (GPa) = 29.42134 20.00891 24.71513
#
# Velocity S-wave (km/s) = 3.70754 3.05750 3.39810
# Velocity P-wave (km/s) = 6.46497 6.26340 6.36498
#
# Compressibility (1/GPa) = 0.01990823
#
# Stress axis : x y z
#
# Youngs Moduli (GPa) = 69.40728 146.95596 121.59869
#
# Poissons Ratio (x) = 0.47047 0.06483
# Poissons Ratio (y) = 0.22220 0.12518
# Poissons Ratio (z) = 0.03701 0.15128
#
# Static dielectric constant tensor:
#      x y z
#    x 1.784250 0.000000 0.000000 
#    y 0.000000 1.849120 0.000000 
#    z 0.000000 0.000000 1.831680 
# 
# From -- ./inp_files/2789.got.cif
#   From: 2010.05.17/outbox.cif.g08.bks.cpg/sg22_2_cif.got.tgz:2789.got - 2010.06.03 23:40:54.
