data_PCOD9326202
_publ_section_title
;
Structure prediction by ZEFSAII (Michael W. Deem and Ramdas Pophale) SiO2 
 PCOD9326202
Probable space group: F 2 2 2
;
_chemical_formula_sum "Si O2"
_cell_formula_units_Z 64
_cell_length_a 28.803381
_cell_length_b 9.621562
_cell_length_c 11.007744
_cell_angle_alpha 90.000000
_cell_angle_beta 90.000000
_cell_angle_gamma 90.000000
_cell_volume 3050.614799
_symmetry_space_group_name_H-M "F 2 2 2"
_symmetry_group_IT_number 22
_symmetry_cell_setting 'orthorhombic'
loop_
_space_group_symop_operation_xyz
x,y,z
-x,-y,z
x,-y,-z
-x,y,-z
x,1/2+y,1/2+z
-x,1/2-y,1/2+z
x,1/2-y,1/2-z
-x,1/2+y,1/2-z
1/2+x,y,1/2+z
1/2-x,-y,1/2+z
1/2+x,-y,1/2-z
1/2-x,y,1/2-z
1/2+x,1/2+y,z
1/2-x,1/2-y,z
1/2+x,1/2-y,-z
1/2-x,1/2+y,-z
loop_
_atom_site_type_symbol
_atom_site_label
_atom_site_fract_x
_atom_site_fract_y
_atom_site_fract_z
Si Si1 0.233555 0.589910 0.115251
Si Si2 0.551026 0.733441 0.000926
Si Si3 0.625920 0.874123 0.850271
Si Si4 0.949366 0.485683 0.701701
O O1 0.250000 0.542711 0.250000
O O2 0.250000 0.750000 0.101754
O O3 0.177764 0.585963 0.117229
O O4 0.250636 0.500000 0.000000
O O5 0.595049 0.822380 0.962912
O O6 0.549206 0.610672 0.898435
O O7 0.500000 0.801258 0.000000
O O8 0.555912 0.655844 0.128148
O O9 0.629521 0.750000 0.750000
O O10 0.593947 0.989169 0.787166
O O11 0.000000 0.500000 0.762197
#
# Coordination Sequence:
#
# PCOD9326202 Si02
#       4
#    16  16  16  16
#     4  11  25  48  71  97 134 173 231 294 351 406
#     4   8  15  29  51  82 123 165 205 249 309 388
#     4  10  18  35  61  90 121 169 216 267 331 393
#     4   8  15  29  51  82 123 165 205 249 309 388
#
# _framework density 20.979378000000001
#
# number of rings (size 3 to 8) (size 9 to 14) (size 15 to 20)
#    0.000    2.750    2.500    1.500    0.000    2.500 
#    4.500    0.000    0.000    0.000    0.000    0.000 
#    0.000    0.000    0.000    0.000    0.000    0.000 
#
# Total GULP energy -89345.504540 kJ/mol
# GULP energy per Si atom -5584.094034 kJ/mol
# Density = 2.093163 g / cm^3
# Si number density = 20.979378 Si / 1000 Ang^3
#
#
#
# Elastic Constant Matrix: (Units=GPa)
#
#
# Indices 1 2 3 4 5 6 
#
# 1 167.5625 33.2715 52.5571 0.0000 0.0000 0.0000
# 2 33.2715 42.0445 63.8463 0.0000 0.0000 0.0000
# 3 52.5571 63.8463 129.6069 0.0000 0.0000 0.0000
# 4 0.0000 0.0000 0.0000 38.9857 0.0000 0.0000
# 5 0.0000 0.0000 0.0000 0.0000 62.1987 0.0000
# 6 0.0000 0.0000 0.0000 0.0000 0.0000 -372.5898
#
#
#
# Elastic Compliance Matrix: (Units=1/GPa)
#
#
# Indices 1 2 3 4 5 6 
#
# 1 0.007087 -0.004938 -0.000441 0.000000 0.000000 0.000000
# 2 -0.004938 0.097844 -0.046197 0.000000 0.000000 0.000000
# 3 -0.000441 -0.046197 0.030652 0.000000 0.000000 0.000000
# 4 0.000000 0.000000 0.000000 0.025650 0.000000 0.000000
# 5 0.000000 0.000000 0.000000 0.000000 0.016078 0.000000
# 6 0.000000 0.000000 0.000000 0.000000 0.000000 -0.002684
#
#
# Mechanical properties :
#
#
# Convention : Reuss Voigt Hill
#
# Bulk Modulus (GPa) = 30.83548 70.95154 50.89351
# Shear Modulus (GPa) = 17.32563 -41.64515 -12.15976
#
# Velocity S-wave (km/s) = 2.87686 -4.46023 -2.41011
# Velocity P-wave (km/s) = 5.07593 2.71445 4.07021
#
# Compressibility (1/GPa) = 0.03243017
#
# Stress axis : x y z
#
# Youngs Moduli (GPa) = 141.10692 10.22033 32.62435
#
# Poissons Ratio (x) = 0.05047 0.01439
# Poissons Ratio (y) = 0.69680 1.50715
# Poissons Ratio (z) = 0.06226 0.47215
#
# Static dielectric constant tensor:
#      x y z
#    x 1.705460 0.000000 0.000000 
#    y 0.000000 1.795480 0.000000 
#    z 0.000000 0.000000 1.951830 
# 
# From -- ./inp_files/8529.got.cif
#   From: 2010.05.17/outbox.cif.g08.bks.cpg/sg22_5_cif.got.tgz:8529.got - 2010.06.03 23:40:54.
