data_PCOD9326070
_publ_section_title
;
Structure prediction by ZEFSAII (Michael W. Deem and Ramdas Pophale) SiO2 
 PCOD9326070
Probable space group: F 2 2 2
;
_chemical_formula_sum "Si O2"
_cell_formula_units_Z 48
_cell_length_a 14.293578
_cell_length_b 5.171414
_cell_length_c 24.907153
_cell_angle_alpha 90.000000
_cell_angle_beta 90.000000
_cell_angle_gamma 90.000000
_cell_volume 1841.087169
_symmetry_space_group_name_H-M "F 2 2 2"
_symmetry_group_IT_number 22
_symmetry_cell_setting 'orthorhombic'
loop_
_space_group_symop_operation_xyz
x,y,z
-x,-y,z
x,-y,-z
-x,y,-z
x,1/2+y,1/2+z
-x,1/2-y,1/2+z
x,1/2-y,1/2-z
-x,1/2+y,1/2-z
1/2+x,y,1/2+z
1/2-x,-y,1/2+z
1/2+x,-y,1/2-z
1/2-x,y,1/2-z
1/2+x,1/2+y,z
1/2-x,1/2-y,z
1/2+x,1/2-y,-z
1/2-x,1/2+y,-z
loop_
_atom_site_type_symbol
_atom_site_label
_atom_site_fract_x
_atom_site_fract_y
_atom_site_fract_z
Si Si1 0.139622 0.167985 0.946815
Si Si2 0.112701 0.999427 0.715521
Si Si3 0.353410 0.826234 0.900726
O O1 0.250000 0.250000 0.945981
O O2 0.106678 0.964767 0.900787
O O3 0.099719 0.545909 0.062841
O O4 0.119473 0.000000 0.000000
O O5 0.138235 0.250000 0.750000
O O6 0.137074 0.750000 0.750000
O O7 0.155753 0.959986 0.656950
O O8 0.000000 0.000000 0.707451
O O9 0.250000 0.750000 0.921442
#
# Coordination Sequence:
#
# PCOD9326070 Si02
#       3
#    16  16  16
#     4  10  18  31  52  78 109 142 176 216 269 330
#     4  10  21  38  58  78 106 149 191 225 274 339
#     4  10  20  33  53  81 108 138 179 228 274 315
#
# _framework density 26.071553999999999
#
# number of rings (size 3 to 8) (size 9 to 14) (size 15 to 20)
#    0.000    2.000    0.000    6.000    0.000    0.667 
#    0.000    1.667    0.000    6.000    0.000    0.000 
#    0.000    0.000    0.000    0.000    0.000    0.000 
#
# Total GULP energy -66987.583214 kJ/mol
# GULP energy per Si atom -5582.298601 kJ/mol
# Density = 2.601221 g / cm^3
# Si number density = 26.071554 Si / 1000 Ang^3
#
#
#
# Elastic Constant Matrix: (Units=GPa)
#
#
# Indices 1 2 3 4 5 6 
#
# 1 98.0642 27.9151 -11.7252 0.0000 0.0000 0.0000
# 2 27.9151 302.3639 95.2483 0.0000 0.0000 0.0000
# 3 -11.7252 95.2483 137.6198 0.0000 0.0000 0.0000
# 4 0.0000 0.0000 0.0000 39.2233 0.0000 0.0000
# 5 0.0000 0.0000 0.0000 0.0000 61.4942 0.0000
# 6 0.0000 0.0000 0.0000 0.0000 0.0000 -346.4130
#
#
#
# Elastic Compliance Matrix: (Units=1/GPa)
#
#
# Indices 1 2 3 4 5 6 
#
# 1 0.010920 -0.001664 0.002082 0.000000 0.000000 0.000000
# 2 -0.001664 0.004483 -0.003244 0.000000 0.000000 0.000000
# 3 0.002082 -0.003244 0.009689 0.000000 0.000000 0.000000
# 4 0.000000 0.000000 0.000000 0.025495 0.000000 0.000000
# 5 0.000000 0.000000 0.000000 0.000000 0.016262 0.000000
# 6 0.000000 0.000000 0.000000 0.000000 0.000000 -0.002887
#
#
# Mechanical properties :
#
#
# Convention : Reuss Voigt Hill
#
# Bulk Modulus (GPa) = 51.44175 84.54713 67.99444
# Shear Modulus (GPa) = 65.70727 -20.69846 22.50441
#
# Velocity S-wave (km/s) = 5.02567 -2.82070 2.94118
# Velocity P-wave (km/s) = 7.31097 4.67876 6.13764
#
# Compressibility (1/GPa) = 0.01943946
#
# Stress axis : x y z
#
# Youngs Moduli (GPa) = 91.57473 223.06703 103.20617
#
# Poissons Ratio (x) = 0.37120 -0.21489
# Poissons Ratio (y) = 0.15239 0.33485
# Poissons Ratio (z) = -0.19067 0.72374
#
# Static dielectric constant tensor:
#      x y z
#    x 2.181120 0.000000 0.000000 
#    y 0.000000 2.153040 0.000000 
#    z 0.000000 0.000000 2.488590 
# 
# From -- ./inp_files/49598.got.cif
#   From: 2010.05.17/outbox.cif.g08.bks.cpg/sg22_25_cif.got.tgz:49598.got - 2010.06.03 23:40:54.
