data_PCOD9326105
_publ_section_title
;
Structure prediction by ZEFSAII (Michael W. Deem and Ramdas Pophale) SiO2 
 PCOD9326105
Probable space group: F 2 2 2
;
_chemical_formula_sum "Si O2"
_cell_formula_units_Z 120
_cell_length_a 12.129392
_cell_length_b 19.116562
_cell_length_c 29.148779
_cell_angle_alpha 90.000000
_cell_angle_beta 90.000000
_cell_angle_gamma 90.000000
_cell_volume 6758.793677
_symmetry_space_group_name_H-M "F 2 2 2"
_symmetry_group_IT_number 22
_symmetry_cell_setting 'orthorhombic'
loop_
_space_group_symop_operation_xyz
x,y,z
-x,-y,z
x,-y,-z
-x,y,-z
x,1/2+y,1/2+z
-x,1/2-y,1/2+z
x,1/2-y,1/2-z
-x,1/2+y,1/2-z
1/2+x,y,1/2+z
1/2-x,-y,1/2+z
1/2+x,-y,1/2-z
1/2-x,y,1/2-z
1/2+x,1/2+y,z
1/2-x,1/2-y,z
1/2+x,1/2-y,-z
1/2-x,1/2+y,-z
loop_
_atom_site_type_symbol
_atom_site_label
_atom_site_fract_x
_atom_site_fract_y
_atom_site_fract_z
Si Si1 0.412970 0.065040 0.627125
Si Si2 0.739553 0.510919 0.698300
Si Si3 0.238803 0.650189 0.697733
Si Si4 0.423563 0.145970 0.121765
Si Si5 0.267263 0.669096 0.949650
Si Si6 0.120799 0.423097 0.519367
Si Si7 0.500000 0.500000 0.653623
Si Si8 0.059057 0.196723 0.128957
O O1 0.310569 0.050704 0.660301
O O2 0.379049 0.072034 0.573918
O O3 0.468301 0.138965 0.639470
O O4 0.500000 0.000000 0.630505
O O5 0.750000 0.539255 0.750000
O O6 0.790234 0.432366 0.698878
O O7 0.611767 0.506484 0.683407
O O8 0.250000 0.672454 0.750000
O O9 0.350106 0.651162 0.668010
O O10 0.147609 0.693310 0.670152
O O11 0.336534 0.142150 0.079822
O O12 0.478222 0.223425 0.119316
O O13 0.489240 0.073162 0.125486
O O14 0.250000 0.750000 0.960204
O O15 0.371544 0.668066 0.914849
O O16 0.292329 0.627332 0.995398
O O17 0.141329 0.500000 0.500000
O O18 0.000000 0.402172 0.500000
#
# Coordination Sequence:
#
# PCOD9326105 Si02
#       8
#    16  16  16  16  16  16   8  16
#     4  12  21  35  61  91 120 151 196 254 306 358
#     4  10  23  38  60  86 116 161 201 240 297 367
#     4   9  17  30  52  82 115 144 188 246 298 341
#     4   9  20  34  56  78 111 161 192 239 289 354
#     4   9  18  36  58  82 117 155 190 245 306 349
#     4  11  20  31  56  91 121 146 189 250 311 357
#     4  10  22  40  58  79 120 154 197 236 296 360
#     4  10  18  32  55  87 114 144 199 245 298 345
#
# _framework density 17.754646999999999
#
# number of rings (size 3 to 8) (size 9 to 14) (size 15 to 20)
#    0.000    2.000    4.000    1.200    4.667    2.133 
#    0.000    2.000    0.000    1.600    0.000    0.000 
#    0.000    0.000    0.000    0.000    0.000    0.000 
#
# Total GULP energy -167206.012688 kJ/mol
# GULP energy per Si atom -5573.533756 kJ/mol
# Density = 1.771424 g / cm^3
# Si number density = 17.754647 Si / 1000 Ang^3
#
#
#
# Elastic Constant Matrix: (Units=GPa)
#
#
# Indices 1 2 3 4 5 6 
#
# 1 71.5287 47.8835 42.3845 0.0000 0.0000 0.0000
# 2 47.8835 102.9660 33.8124 0.0000 0.0000 0.0000
# 3 42.3845 33.8124 106.4010 0.0000 0.0000 0.0000
# 4 0.0000 0.0000 0.0000 14.5316 0.0000 0.0000
# 5 0.0000 0.0000 0.0000 0.0000 16.5137 0.0000
# 6 0.0000 0.0000 0.0000 0.0000 0.0000 24.1997
#
#
#
# Elastic Compliance Matrix: (Units=1/GPa)
#
#
# Indices 1 2 3 4 5 6 
#
# 1 0.023922 -0.008927 -0.006692 0.000000 0.000000 0.000000
# 2 -0.008927 0.014175 -0.000948 0.000000 0.000000 0.000000
# 3 -0.006692 -0.000948 0.012366 0.000000 0.000000 0.000000
# 4 0.000000 0.000000 0.000000 0.068815 0.000000 0.000000
# 5 0.000000 0.000000 0.000000 0.000000 0.060556 0.000000
# 6 0.000000 0.000000 0.000000 0.000000 0.000000 0.041323
#
#
# Mechanical properties :
#
#
# Convention : Reuss Voigt Hill
#
# Bulk Modulus (GPa) = 57.71421 58.78406 58.24914
# Shear Modulus (GPa) = 19.22574 21.50336 20.36455
#
# Velocity S-wave (km/s) = 3.29425 3.48392 3.39041
# Velocity P-wave (km/s) = 6.85905 7.02599 6.94302
#
# Compressibility (1/GPa) = 0.01732676
#
# Stress axis : x y z
#
# Youngs Moduli (GPa) = 41.80241 70.54738 80.86874
#
# Poissons Ratio (x) = 0.62978 0.54121
# Poissons Ratio (y) = 0.37317 0.07670
# Poissons Ratio (z) = 0.27976 0.06691
#
# Static dielectric constant tensor:
#      x y z
#    x 1.612410 0.000000 0.000000 
#    y 0.000000 1.640340 0.000000 
#    z 0.000000 0.000000 1.616470 
# 
# From -- ./inp_files/56206.got.cif
#   From: 2010.05.17/outbox.cif.g08.bks.cpg/sg22_29_cif.got.tgz:56206.got - 2010.06.03 23:40:54.
