data_PCOD9326154
_publ_section_title
;
Structure prediction by ZEFSAII (Michael W. Deem and Ramdas Pophale) SiO2 
 PCOD9326154
Probable space group: F 2 2 2
;
_chemical_formula_sum "Si O2"
_cell_formula_units_Z 120
_cell_length_a 21.347158
_cell_length_b 11.287904
_cell_length_c 23.956586
_cell_angle_alpha 90.000000
_cell_angle_beta 90.000000
_cell_angle_gamma 90.000000
_cell_volume 5772.690844
_symmetry_space_group_name_H-M "F 2 2 2"
_symmetry_group_IT_number 22
_symmetry_cell_setting 'orthorhombic'
loop_
_space_group_symop_operation_xyz
x,y,z
-x,-y,z
x,-y,-z
-x,y,-z
x,1/2+y,1/2+z
-x,1/2-y,1/2+z
x,1/2-y,1/2-z
-x,1/2+y,1/2-z
1/2+x,y,1/2+z
1/2-x,-y,1/2+z
1/2+x,-y,1/2-z
1/2-x,y,1/2-z
1/2+x,1/2+y,z
1/2-x,1/2-y,z
1/2+x,1/2-y,-z
1/2-x,1/2+y,-z
loop_
_atom_site_type_symbol
_atom_site_label
_atom_site_fract_x
_atom_site_fract_y
_atom_site_fract_z
Si Si1 0.227392 0.612794 0.109113
Si Si2 0.556350 0.903170 0.428615
Si Si3 0.355110 0.538040 0.156923
Si Si4 0.934549 0.931746 0.248243
Si Si5 0.532814 0.782371 0.165090
Si Si6 0.898090 0.696795 0.861592
Si Si7 0.427447 0.798725 0.007207
Si Si8 0.332610 0.500000 0.500000
O O1 0.250000 0.750000 0.098544
O O2 0.282667 0.547146 0.141523
O O3 0.164422 0.621569 0.145896
O O4 0.209247 0.549536 0.050890
O O5 0.537767 0.784298 0.393699
O O6 0.577343 0.837953 0.485600
O O7 0.500000 0.000000 0.432570
O O8 0.610135 0.964487 0.392131
O O9 0.376165 0.490039 0.217045
O O10 0.382804 0.669540 0.154781
O O11 0.923870 0.886977 0.311433
O O12 0.951781 0.822814 0.207292
O O13 0.000000 0.000000 0.244832
O O14 0.462466 0.832680 0.168695
O O15 0.910383 0.695300 0.927835
O O16 0.378931 0.892627 0.980371
O O17 0.500000 0.835297 0.000000
#
# Coordination Sequence:
#
# PCOD9326154 Si02
#       8
#    16  16  16  16  16  16  16   8
#     4   9  21  36  60  84 117 178 222 260 311 386
#     4  11  20  35  58  95 130 161 210 273 328 384
#     4  10  18  35  58  86 123 155 211 274 313 374
#     4  10  19  33  57  88 117 151 193 263 333 392
#     4  10  18  34  55  86 126 149 196 259 335 384
#     4  10  18  35  55  87 128 163 205 257 321 387
#     4  11  21  35  57  89 132 175 206 260 327 399
#     4  10  23  40  52  84 133 176 228 256 320 398
#
# _framework density 20.787531999999999
#
# number of rings (size 3 to 8) (size 9 to 14) (size 15 to 20)
#    0.000    1.867    4.000    1.000    0.000    5.067 
#    4.800    0.000    0.000    0.800    0.000    0.000 
#   24.000    0.000    0.000    0.000    0.000    0.000 
#
# Total GULP energy -167193.393027 kJ/mol
# GULP energy per Si atom -5573.113101 kJ/mol
# Density = 2.074022 g / cm^3
# Si number density = 20.787532 Si / 1000 Ang^3
#
#
#
# Elastic Constant Matrix: (Units=GPa)
#
#
# Indices 1 2 3 4 5 6 
#
# 1 130.5801 56.5127 56.0557 0.0000 0.0000 0.0000
# 2 56.5127 81.0658 34.7294 0.0000 0.0000 0.0000
# 3 56.0557 34.7294 45.5155 0.0000 0.0000 0.0000
# 4 0.0000 0.0000 0.0000 18.6383 0.0000 0.0000
# 5 0.0000 0.0000 0.0000 0.0000 80.6570 0.0000
# 6 0.0000 0.0000 0.0000 0.0000 0.0000 35.4373
#
#
#
# Elastic Compliance Matrix: (Units=1/GPa)
#
#
# Indices 1 2 3 4 5 6 
#
# 1 0.017217 -0.004335 -0.017895 0.000000 0.000000 0.000000
# 2 -0.004335 0.019418 -0.009477 0.000000 0.000000 0.000000
# 3 -0.017895 -0.009477 0.051241 0.000000 0.000000 0.000000
# 4 0.000000 0.000000 0.000000 0.053653 0.000000 0.000000
# 5 0.000000 0.000000 0.000000 0.000000 0.012398 0.000000
# 6 0.000000 0.000000 0.000000 0.000000 0.000000 0.028219
#
#
# Mechanical properties :
#
#
# Convention : Reuss Voigt Hill
#
# Bulk Modulus (GPa) = 40.88288 61.30631 51.09460
# Shear Modulus (GPa) = 19.70713 34.27077 26.98895
#
# Velocity S-wave (km/s) = 3.08234 4.06473 3.60714
# Velocity P-wave (km/s) = 5.69012 7.18229 6.47930
#
# Compressibility (1/GPa) = 0.02446012
#
# Stress axis : x y z
#
# Youngs Moduli (GPa) = 58.08325 51.49850 19.51552
#
# Poissons Ratio (x) = 0.22327 0.34924
# Poissons Ratio (y) = 0.25182 0.18495
# Poissons Ratio (z) = 1.03943 0.48805
#
# Static dielectric constant tensor:
#      x y z
#    x 1.736770 0.000000 0.000000 
#    y 0.000000 1.804100 0.000000 
#    z 0.000000 0.000000 1.914260 
# 
# From -- ./inp_files/50006.got.cif
#   From: 2010.05.17/outbox.cif.g08.bks.cpg/sg22_26_cif.got.tgz:50006.got - 2010.06.03 23:40:54.
