data_PCOD9326639
_publ_section_title
;
Structure prediction by ZEFSAII (Michael W. Deem and Ramdas Pophale) SiO2 
 PCOD9326639
Probable space group: F 2 2 2
;
_chemical_formula_sum "Si O2"
_cell_formula_units_Z 116
_cell_length_a 27.660728
_cell_length_b 22.659230
_cell_length_c 8.455862
_cell_angle_alpha 90.000000
_cell_angle_beta 90.000000
_cell_angle_gamma 90.000000
_cell_volume 5299.887371
_symmetry_space_group_name_H-M "F 2 2 2"
_symmetry_group_IT_number 22
_symmetry_cell_setting 'orthorhombic'
loop_
_space_group_symop_operation_xyz
x,y,z
-x,-y,z
x,-y,-z
-x,y,-z
x,1/2+y,1/2+z
-x,1/2-y,1/2+z
x,1/2-y,1/2-z
-x,1/2+y,1/2-z
1/2+x,y,1/2+z
1/2-x,-y,1/2+z
1/2+x,-y,1/2-z
1/2-x,y,1/2-z
1/2+x,1/2+y,z
1/2-x,1/2-y,z
1/2+x,1/2-y,-z
1/2-x,1/2+y,-z
loop_
_atom_site_type_symbol
_atom_site_label
_atom_site_fract_x
_atom_site_fract_y
_atom_site_fract_z
Si Si1 0.616748 0.826570 0.961775
Si Si2 0.017837 0.188381 0.680741
Si Si3 0.319719 0.063080 0.860901
Si Si4 0.555106 0.598370 0.293929
Si Si5 0.197413 0.232728 0.937253
Si Si6 0.000000 0.500000 0.000000
Si Si7 0.281479 0.404793 0.982920
Si Si8 0.357759 0.966331 0.665937
O O1 0.575664 0.812354 0.831759
O O2 0.647252 0.880869 0.894500
O O3 0.652208 0.771479 0.999731
O O4 0.587697 0.854382 0.108604
O O5 0.001180 0.250000 0.750000
O O6 0.000000 0.183706 0.500000
O O7 0.991514 0.134343 0.767214
O O8 0.299040 0.067995 0.682989
O O9 0.274492 0.074490 0.978701
O O10 0.350387 0.003409 0.828421
O O11 0.533407 0.544694 0.398462
O O12 0.593739 0.571467 0.176580
O O13 0.197332 0.250000 0.750000
O O14 0.250000 0.250000 0.004280
O O15 0.200988 0.162808 0.962121
O O16 0.309377 0.428882 0.134414
O O17 0.363378 0.000000 0.500000
#
# Coordination Sequence:
#
# PCOD9326639 Si02
#       8
#    16  16  16  16  16   4  16  16
#     4  11  20  38  66  95 122 167 228 272 336 404
#     4  10  23  43  65  99 131 172 226 286 352 414
#     4  10  19  39  60  91 126 169 220 258 330 383
#     4  11  24  44  66  94 128 178 224 284 346 414
#     4  11  18  33  61  93 126 163 218 277 326 387
#     4  12  20  48  74  92 132 164 240 280 332 424
#     4  10  20  39  59  93 133 167 211 277 322 399
#     4  10  24  43  62  93 135 177 220 274 340 405
#
# _framework density 21.887259
#
# number of rings (size 3 to 8) (size 9 to 14) (size 15 to 20)
#    0.000    1.517    4.828    2.069    0.000    2.207 
#   17.379    0.345    0.000    0.828    0.000    0.000 
#    0.000    0.000    0.000    0.000    0.000    0.000 
#
# Total GULP energy -161558.493710 kJ/mol
# GULP energy per Si atom -5570.982542 kJ/mol
# Density = 2.183744 g / cm^3
# Si number density = 21.887259 Si / 1000 Ang^3
#
#
#
# Elastic Constant Matrix: (Units=GPa)
#
#
# Indices 1 2 3 4 5 6 
#
# 1 146.3411 55.0142 25.4392 0.0001 -0.0001 -0.0015
# 2 55.0142 131.8913 22.3461 0.0007 -0.0003 -0.0069
# 3 25.4392 22.3461 42.6302 0.0021 -0.0010 -0.0110
# 4 0.0001 0.0007 0.0021 15.4668 -0.0006 -0.0086
# 5 -0.0001 -0.0003 -0.0010 -0.0006 23.2302 -0.0002
# 6 -0.0015 -0.0069 -0.0110 -0.0086 -0.0002 -218.2246
#
#
#
# Elastic Compliance Matrix: (Units=1/GPa)
#
#
# Indices 1 2 3 4 5 6 
#
# 1 0.008569 -0.002972 -0.003556 0.000001 0.000000 0.000000
# 2 -0.002972 0.009352 -0.003129 0.000000 0.000000 0.000000
# 3 -0.003556 -0.003129 0.027219 -0.000004 0.000001 -0.000001
# 4 0.000001 0.000000 -0.000004 0.064655 0.000002 -0.000003
# 5 0.000000 0.000000 0.000001 0.000002 0.043047 0.000000
# 6 0.000000 0.000000 -0.000001 -0.000003 0.000000 -0.004582
#
#
# Mechanical properties :
#
#
# Convention : Reuss Voigt Hill
#
# Bulk Modulus (GPa) = 38.71801 58.49573 48.60687
# Shear Modulus (GPa) = 28.38008 -21.36798 3.50605
#
# Velocity S-wave (km/s) = 3.60481 -3.12793 1.26702
# Velocity P-wave (km/s) = 5.92067 3.70657 4.93928
#
# Compressibility (1/GPa) = 0.02582777
#
# Stress axis : x y z
#
# Youngs Moduli (GPa) = 116.70545 106.93327 36.73866
#
# Poissons Ratio (x) = 0.31777 0.13062
# Poissons Ratio (y) = 0.34681 0.11494
# Poissons Ratio (z) = 0.41495 0.33456
#
# Static dielectric constant tensor:
#      x y z
#    x 1.888680 0.000000 0.000000 
#    y 0.000000 1.845480 0.000000 
#    z 0.000000 0.000000 1.827940 
# 
# From -- ./inp_files/14969.got.cif
#   From: 2010.05.17/outbox.cif.g08.bks.cpg/sg22_8_cif.got.tgz:14969.got - 2010.06.03 23:40:54.
