data_PCOD9326288
_publ_section_title
;
Structure prediction by ZEFSAII (Michael W. Deem and Ramdas Pophale) SiO2 
 PCOD9326288
Probable space group: F 2 2 2
;
_chemical_formula_sum "Si O2"
_cell_formula_units_Z 80
_cell_length_a 24.901795
_cell_length_b 4.980901
_cell_length_c 35.319342
_cell_angle_alpha 90.000000
_cell_angle_beta 90.000000
_cell_angle_gamma 90.000000
_cell_volume 4380.777213
_symmetry_space_group_name_H-M "F 2 2 2"
_symmetry_group_IT_number 22
_symmetry_cell_setting 'orthorhombic'
loop_
_space_group_symop_operation_xyz
x,y,z
-x,-y,z
x,-y,-z
-x,y,-z
x,1/2+y,1/2+z
-x,1/2-y,1/2+z
x,1/2-y,1/2-z
-x,1/2+y,1/2-z
1/2+x,y,1/2+z
1/2-x,-y,1/2+z
1/2+x,-y,1/2-z
1/2-x,y,1/2-z
1/2+x,1/2+y,z
1/2-x,1/2-y,z
1/2+x,1/2-y,-z
1/2-x,1/2+y,-z
loop_
_atom_site_type_symbol
_atom_site_label
_atom_site_fract_x
_atom_site_fract_y
_atom_site_fract_z
Si Si1 0.559722 0.393692 0.899644
Si Si2 0.894033 0.405714 0.141450
Si Si3 0.303236 0.936990 0.085708
Si Si4 0.937204 0.498802 0.222651
Si Si5 0.650392 0.556454 0.044370
O O1 0.500000 0.500000 0.904747
O O2 0.590060 0.605526 0.871640
O O3 0.592213 0.367937 0.939036
O O4 0.565326 0.106701 0.879892
O O5 0.834759 0.474092 0.125202
O O6 0.901363 0.462998 0.185565
O O7 0.250000 0.750000 0.090213
O O8 0.339288 0.734524 0.061744
O O9 0.308817 0.219675 0.062550
O O10 0.929966 0.250000 0.250000
O O11 0.000000 0.500000 0.210137
O O12 0.927302 0.750000 0.250000
O O13 0.655316 0.500000 0.000000
#
# Coordination Sequence:
#
# PCOD9326288 Si02
#       5
#    16  16  16  16  16
#     4  10  19  32  52  75 104 143 177 210 258 317
#     4  10  20  34  52  76 105 137 179 220 256 314
#     4  10  21  37  56  76  99 136 178 219 269 313
#     4  10  19  30  48  76 108 138 166 204 257 311
#     4  10  21  35  52  78 107 133 172 221 267 318
#
# _framework density 18.261600000000001
#
# number of rings (size 3 to 8) (size 9 to 14) (size 15 to 20)
#    0.000    2.000    0.000    4.200    0.000    3.600 
#    0.000    0.000    0.000    7.800    0.000    1.400 
#    0.000    0.000    0.000    0.000    0.000    0.000 
#
# Total GULP energy -111356.318260 kJ/mol
# GULP energy per Si atom -5567.815913 kJ/mol
# Density = 1.822004 g / cm^3
# Si number density = 18.261600 Si / 1000 Ang^3
#
#
#
# Elastic Constant Matrix: (Units=GPa)
#
#
# Indices 1 2 3 4 5 6 
#
# 1 57.9274 -6.1902 33.3871 -0.0125 0.0585 -0.1639
# 2 -6.1902 106.9968 24.3863 0.0220 0.0628 -0.2142
# 3 33.3871 24.3863 140.0304 -0.0280 -0.0001 -0.0095
# 4 -0.0125 0.0220 -0.0280 36.9416 -0.0265 0.0551
# 5 0.0585 0.0628 -0.0001 -0.0265 2.3212 -0.0104
# 6 -0.1639 -0.2142 -0.0095 0.0551 -0.0104 25.7639
#
#
#
# Elastic Compliance Matrix: (Units=1/GPa)
#
#
# Indices 1 2 3 4 5 6 
#
# 1 0.020593 0.002407 -0.005329 0.000001 -0.000584 0.000149
# 2 0.002407 0.010014 -0.002318 -0.000007 -0.000331 0.000098
# 3 -0.005329 -0.002318 0.008815 0.000006 0.000197 -0.000050
# 4 0.000001 -0.000007 0.000006 0.027070 0.000309 -0.000058
# 5 -0.000584 -0.000331 0.000197 0.000309 0.430848 0.000166
# 6 0.000149 0.000098 -0.000050 -0.000058 0.000166 0.038816
#
#
# Mechanical properties :
#
#
# Convention : Reuss Voigt Hill
#
# Bulk Modulus (GPa) = 34.55207 45.34677 39.94942
# Shear Modulus (GPa) = 8.98823 29.89676 19.44250
#
# Velocity S-wave (km/s) = 2.22095 4.05055 3.26646
# Velocity P-wave (km/s) = 5.05356 6.83824 6.01249
#
# Compressibility (1/GPa) = 0.02894183
#
# Stress axis : x y z
#
# Youngs Moduli (GPa) = 48.56122 99.86078 113.43661
#
# Poissons Ratio (x) = -0.24032 0.60449
# Poissons Ratio (y) = -0.11686 0.26291
# Poissons Ratio (z) = 0.25878 0.23145
#
# Static dielectric constant tensor:
#      x y z
#    x 1.679500 0.000030 0.000010 
#    y 0.000030 1.623420 0.000030 
#    z 0.000010 0.000030 1.627280 
# 
# From -- ./inp_files/4774.got.cif
#   From: 2010.05.17/outbox.cif.g08.bks.cpg/sg22_3_cif.got.tgz:4774.got - 2010.06.03 23:40:54.
