data_PCOD9326846
_publ_section_title
;
Structure prediction by ZEFSAII (Michael W. Deem and Ramdas Pophale) SiO2 
 PCOD9326846
Probable space group: F 2 2 2
;
_chemical_formula_sum "Si O2"
_cell_formula_units_Z 112
_cell_length_a 14.141514
_cell_length_b 15.046905
_cell_length_c 26.561005
_cell_angle_alpha 90.000000
_cell_angle_beta 90.000000
_cell_angle_gamma 90.000000
_cell_volume 5651.810480
_symmetry_space_group_name_H-M "F 2 2 2"
_symmetry_group_IT_number 22
_symmetry_cell_setting 'orthorhombic'
loop_
_space_group_symop_operation_xyz
x,y,z
-x,-y,z
x,-y,-z
-x,y,-z
x,1/2+y,1/2+z
-x,1/2-y,1/2+z
x,1/2-y,1/2-z
-x,1/2+y,1/2-z
1/2+x,y,1/2+z
1/2-x,-y,1/2+z
1/2+x,-y,1/2-z
1/2-x,y,1/2-z
1/2+x,1/2+y,z
1/2-x,1/2-y,z
1/2+x,1/2-y,-z
1/2-x,1/2+y,-z
loop_
_atom_site_type_symbol
_atom_site_label
_atom_site_fract_x
_atom_site_fract_y
_atom_site_fract_z
Si Si1 0.426444 0.116061 0.145569
Si Si2 0.363085 0.208622 0.302213
Si Si3 0.754795 0.648379 0.396802
Si Si4 0.455961 0.904051 0.293351
Si Si5 0.201551 0.152045 0.870023
Si Si6 0.387637 0.495721 0.939829
Si Si7 0.621312 0.435068 0.316536
O O1 0.408682 0.215136 0.163289
O O2 0.350906 0.107404 0.100188
O O3 0.538032 0.098228 0.145444
O O4 0.389040 0.041113 0.183772
O O5 0.334045 0.250000 0.250000
O O6 0.286845 0.160077 0.337831
O O7 0.448405 0.147786 0.286414
O O8 0.750000 0.750000 0.416941
O O9 0.831908 0.582210 0.419311
O O10 0.389914 0.853105 0.333395
O O11 0.400809 0.905883 0.240185
O O12 0.500000 0.000000 0.308480
O O13 0.250000 0.250000 0.879258
O O14 0.164892 0.092052 0.917141
O O15 0.280920 0.097406 0.839097
O O16 0.500000 0.500000 0.926455
O O17 0.381660 0.500000 0.000000
#
# Coordination Sequence:
#
# PCOD9326846 Si02
#       7
#    16  16  16  16  16  16  16
#     4  10  20  36  55  83 121 173 211 265 310 375
#     4  11  20  35  56  86 131 164 221 266 308 378
#     4  10  22  39  67  97 124 172 219 277 335 398
#     4  12  23  38  58  90 138 188 227 266 316 391
#     4  12  26  40  67  97 134 175 221 277 344 409
#     4  11  25  49  76 100 128 165 221 290 352 413
#     4  11  21  39  56  84 133 183 218 256 314 385
#
# _framework density 19.816659000000001
#
# number of rings (size 3 to 8) (size 9 to 14) (size 15 to 20)
#    0.000    1.000    4.286    3.429    0.000    4.857 
#    2.571    0.000    0.000    1.714    0.000    0.000 
#    0.000    0.000    0.000    0.000    0.000    0.000 
#
# Total GULP energy -155972.736758 kJ/mol
# GULP energy per Si atom -5570.454884 kJ/mol
# Density = 1.977156 g / cm^3
# Si number density = 19.816659 Si / 1000 Ang^3
#
#
#
# Elastic Constant Matrix: (Units=GPa)
#
#
# Indices 1 2 3 4 5 6 
#
# 1 101.9159 49.6399 47.5117 0.0000 0.0000 0.0000
# 2 49.6399 98.9410 33.4173 0.0000 0.0000 0.0000
# 3 47.5117 33.4173 77.1629 0.0000 0.0000 0.0000
# 4 0.0000 0.0000 0.0000 15.6763 0.0000 0.0000
# 5 0.0000 0.0000 0.0000 0.0000 22.6395 0.0000
# 6 0.0000 0.0000 0.0000 0.0000 0.0000 38.2184
#
#
#
# Elastic Compliance Matrix: (Units=1/GPa)
#
#
# Indices 1 2 3 4 5 6 
#
# 1 0.015959 -0.005491 -0.007448 0.000000 0.000000 0.000000
# 2 -0.005491 0.013728 -0.002564 0.000000 0.000000 0.000000
# 3 -0.007448 -0.002564 0.018656 0.000000 0.000000 0.000000
# 4 0.000000 0.000000 0.000000 0.063791 0.000000 0.000000
# 5 0.000000 0.000000 0.000000 0.000000 0.044171 0.000000
# 6 0.000000 0.000000 0.000000 0.000000 0.000000 0.026165
#
#
# Mechanical properties :
#
#
# Convention : Reuss Voigt Hill
#
# Bulk Modulus (GPa) = 57.68384 59.90641 58.79513
# Shear Modulus (GPa) = 22.80445 25.13692 23.97068
#
# Velocity S-wave (km/s) = 3.39598 3.56543 3.48174
# Velocity P-wave (km/s) = 6.67450 6.87355 6.77475
#
# Compressibility (1/GPa) = 0.01733588
#
# Stress axis : x y z
#
# Youngs Moduli (GPa) = 62.66125 72.84358 53.60126
#
# Poissons Ratio (x) = 0.39999 0.39924
# Poissons Ratio (y) = 0.34408 0.13745
# Poissons Ratio (z) = 0.46672 0.18679
#
# Static dielectric constant tensor:
#      x y z
#    x 1.751730 0.000000 0.000000 
#    y 0.000000 1.733690 0.000000 
#    z 0.000000 0.000000 1.692980 
# 
# From -- ./inp_files/53197.got.cif
#   From: 2010.05.17/outbox.cif.g08.bks.cpg/sg22_27_cif.got.tgz:53197.got - 2010.06.03 23:40:54.
