data_PCOD9326029
_publ_section_title
;
Structure prediction by ZEFSAII (Michael W. Deem and Ramdas Pophale) SiO2 
 PCOD9326029
Probable space group: F 2 2 2
;
_chemical_formula_sum "Si O2"
_cell_formula_units_Z 64
_cell_length_a 13.941656
_cell_length_b 5.335012
_cell_length_c 34.372768
_cell_angle_alpha 90.000000
_cell_angle_beta 90.000000
_cell_angle_gamma 90.000000
_cell_volume 2556.608745
_symmetry_space_group_name_H-M "F 2 2 2"
_symmetry_group_IT_number 22
_symmetry_cell_setting 'orthorhombic'
loop_
_space_group_symop_operation_xyz
x,y,z
-x,-y,z
x,-y,-z
-x,y,-z
x,1/2+y,1/2+z
-x,1/2-y,1/2+z
x,1/2-y,1/2-z
-x,1/2+y,1/2-z
1/2+x,y,1/2+z
1/2-x,-y,1/2+z
1/2+x,-y,1/2-z
1/2-x,y,1/2-z
1/2+x,1/2+y,z
1/2-x,1/2-y,z
1/2+x,1/2-y,-z
1/2-x,1/2+y,-z
loop_
_atom_site_type_symbol
_atom_site_label
_atom_site_fract_x
_atom_site_fract_y
_atom_site_fract_z
Si Si1 0.901289 0.227535 0.388859
Si Si2 0.616811 0.787575 0.358071
Si Si3 0.864987 0.752931 0.524574
Si Si4 0.384098 0.494980 0.226977
O O1 0.852069 0.498840 0.387707
O O2 0.917797 0.201779 0.434492
O O3 0.001676 0.255073 0.365216
O O4 0.850262 0.992773 0.367986
O O5 0.641459 0.919384 0.317163
O O6 0.887290 0.500000 0.500000
O O7 0.750000 0.750000 0.532880
O O8 0.884035 0.000000 0.500000
O O9 0.500000 0.500000 0.227055
O O10 0.353540 0.250000 0.250000
O O11 0.355179 0.750000 0.250000
#
# Coordination Sequence:
#
# PCOD9326029 Si02
#       4
#    16  16  16  16
#     4  10  19  32  50  70 100 135 158 201 258 294
#     4  10  19  32  46  73 109 132 160 200 246 302
#     4  10  21  38  56  73  94 125 171 218 252 294
#     4  10  18  26  43  66 100 139 167 191 228 284
#
# _framework density 25.033161
#
# number of rings (size 3 to 8) (size 9 to 14) (size 15 to 20)
#    0.000    2.000    2.500    3.000    7.000    0.000 
#    0.000   15.000    0.000    0.000    0.000    0.000 
#    0.000   28.000    0.000    0.000    0.000    0.000 
#
# Total GULP energy -89239.618623 kJ/mol
# GULP energy per Si atom -5577.476164 kJ/mol
# Density = 2.497618 g / cm^3
# Si number density = 25.033161 Si / 1000 Ang^3
#
#
#
# Elastic Constant Matrix: (Units=GPa)
#
#
# Indices 1 2 3 4 5 6 
#
# 1 100.9125 -0.6605 -7.2574 0.0000 0.0000 0.0000
# 2 -0.6605 275.8166 80.6397 0.0000 0.0000 0.0000
# 3 -7.2574 80.6397 181.7540 0.0000 0.0000 0.0000
# 4 0.0000 0.0000 0.0000 57.1768 0.0000 0.0000
# 5 0.0000 0.0000 0.0000 0.0000 5.0927 0.0000
# 6 0.0000 0.0000 0.0000 0.0000 0.0000 -53.9945
#
#
#
# Elastic Compliance Matrix: (Units=1/GPa)
#
#
# Indices 1 2 3 4 5 6 
#
# 1 0.009941 -0.000106 0.000444 0.000000 0.000000 0.000000
# 2 -0.000106 0.004167 -0.001853 0.000000 0.000000 0.000000
# 3 0.000444 -0.001853 0.006342 0.000000 0.000000 0.000000
# 4 0.000000 0.000000 0.000000 0.017490 0.000000 0.000000
# 5 0.000000 0.000000 0.000000 0.000000 0.196358 0.000000
# 6 0.000000 0.000000 0.000000 0.000000 0.000000 -0.018520
#
#
# Mechanical properties :
#
#
# Convention : Reuss Voigt Hill
#
# Bulk Modulus (GPa) = 57.40680 78.21407 67.81044
# Shear Modulus (GPa) = 22.26047 34.03910 28.14979
#
# Velocity S-wave (km/s) = 2.98525 3.69149 3.35699
# Velocity P-wave (km/s) = 5.90460 7.03431 6.49407
#
# Compressibility (1/GPa) = 0.01741954
#
# Stress axis : x y z
#
# Youngs Moduli (GPa) = 100.59545 239.97372 157.68305
#
# Poissons Ratio (x) = 0.02544 -0.07000
# Poissons Ratio (y) = 0.01066 0.29220
# Poissons Ratio (z) = -0.04466 0.44469
#
# Static dielectric constant tensor:
#      x y z
#    x 2.029200 0.000000 0.000000 
#    y 0.000000 1.983940 0.000000 
#    z 0.000000 0.000000 2.226970 
# 
# From -- ./inp_files/2854.got.cif
#   From: 2010.05.17/outbox.cif.g08.bks.cpg/sg22_2_cif.got.tgz:2854.got - 2010.06.03 23:40:54.
