data_PCOD9326901
_publ_section_title
;
Structure prediction by ZEFSAII (Michael W. Deem and Ramdas Pophale) SiO2 
 PCOD9326901
Probable space group: F 2 2 2
;
_chemical_formula_sum "Si O2"
_cell_formula_units_Z 88
_cell_length_a 27.848603
_cell_length_b 13.586514
_cell_length_c 12.540444
_cell_angle_alpha 90.000000
_cell_angle_beta 90.000000
_cell_angle_gamma 90.000000
_cell_volume 4744.870543
_symmetry_space_group_name_H-M "F 2 2 2"
_symmetry_group_IT_number 22
_symmetry_cell_setting 'orthorhombic'
loop_
_space_group_symop_operation_xyz
x,y,z
-x,-y,z
x,-y,-z
-x,y,-z
x,1/2+y,1/2+z
-x,1/2-y,1/2+z
x,1/2-y,1/2-z
-x,1/2+y,1/2-z
1/2+x,y,1/2+z
1/2-x,-y,1/2+z
1/2+x,-y,1/2-z
1/2-x,y,1/2-z
1/2+x,1/2+y,z
1/2-x,1/2-y,z
1/2+x,1/2-y,-z
1/2-x,1/2+y,-z
loop_
_atom_site_type_symbol
_atom_site_label
_atom_site_fract_x
_atom_site_fract_y
_atom_site_fract_z
Si Si1 0.084114 0.738911 0.630152
Si Si2 0.330638 0.000000 0.500000
Si Si3 0.891141 0.978457 0.187361
Si Si4 0.500000 0.000000 0.670469
Si Si5 0.353144 0.932193 0.905942
Si Si6 0.500000 0.327908 0.000000
Si Si7 0.748208 0.867872 0.378865
O O1 0.062389 0.750000 0.750000
O O2 0.109297 0.632718 0.639295
O O3 0.119775 0.828394 0.609173
O O4 0.044946 0.735328 0.537391
O O5 0.367018 0.959610 0.407959
O O6 0.295544 0.077310 0.439018
O O7 0.860054 0.985602 0.292896
O O8 0.947048 0.992716 0.220863
O O9 0.506606 0.903315 0.597548
O O10 0.297689 0.909897 0.924479
O O11 0.372853 0.000000 0.000000
O O12 0.750000 0.884635 0.250000
O O13 0.750000 0.750000 0.394071
#
# Coordination Sequence:
#
# PCOD9326901 Si02
#       7
#    16   8  16   8  16   8  16
#     4   9  19  35  57  81 112 156 200 242 286 355
#     4  12  20  35  66  90 114 147 200 248 300 350
#     4  10  20  36  62  87 112 156 198 244 299 349
#     4   9  18  34  59  86 112 139 200 257 288 344
#     4  11  22  39  54  84 125 156 195 246 295 358
#     4   9  16  34  55  80 110 142 195 250 294 331
#     4  11  23  38  62  90 116 154 202 245 294 359
#
# _framework density 18.546344999999999
#
# number of rings (size 3 to 8) (size 9 to 14) (size 15 to 20)
#    0.000    1.818    2.727    3.273    5.091    0.000 
#    9.818    0.000    0.000   11.455    0.000    0.000 
#    0.000    0.000    0.000    0.000    0.000    0.000 
#
# Total GULP energy -122483.860498 kJ/mol
# GULP energy per Si atom -5567.448204 kJ/mol
# Density = 1.850413 g / cm^3
# Si number density = 18.546345 Si / 1000 Ang^3
#
#
#
# Elastic Constant Matrix: (Units=GPa)
#
#
# Indices 1 2 3 4 5 6 
#
# 1 105.4513 15.1276 30.6711 0.0000 0.0000 0.0000
# 2 15.1276 44.7033 19.6304 0.0000 0.0000 0.0000
# 3 30.6711 19.6304 79.2260 0.0000 0.0000 0.0000
# 4 0.0000 0.0000 0.0000 22.6292 0.0000 0.0000
# 5 0.0000 0.0000 0.0000 0.0000 28.6889 0.0000
# 6 0.0000 0.0000 0.0000 0.0000 0.0000 27.0386
#
#
#
# Elastic Compliance Matrix: (Units=1/GPa)
#
#
# Indices 1 2 3 4 5 6 
#
# 1 0.010851 -0.002050 -0.003693 0.000000 0.000000 0.000000
# 2 -0.002050 0.025488 -0.005522 0.000000 0.000000 0.000000
# 3 -0.003693 -0.005522 0.015420 0.000000 0.000000 0.000000
# 4 0.000000 0.000000 0.000000 0.044191 0.000000 0.000000
# 5 0.000000 0.000000 0.000000 0.000000 0.034857 0.000000
# 6 0.000000 0.000000 0.000000 0.000000 0.000000 0.036984
#
#
# Mechanical properties :
#
#
# Convention : Reuss Voigt Hill
#
# Bulk Modulus (GPa) = 34.21191 40.02655 37.11923
# Shear Modulus (GPa) = 24.99201 26.60144 25.79672
#
# Velocity S-wave (km/s) = 3.67487 3.79135 3.73357
# Velocity P-wave (km/s) = 6.04094 6.38706 6.21641
#
# Compressibility (1/GPa) = 0.02922959
#
# Stress axis : x y z
#
# Youngs Moduli (GPa) = 92.15501 39.23374 64.85130
#
# Poissons Ratio (x) = 0.08045 0.23949
# Poissons Ratio (y) = 0.18896 0.35808
# Poissons Ratio (z) = 0.34031 0.21663
#
# Static dielectric constant tensor:
#      x y z
#    x 1.712380 0.000000 0.000000 
#    y 0.000000 1.673400 0.000000 
#    z 0.000000 0.000000 1.660960 
# 
# From -- ./inp_files/24562.got.cif
#   From: 2010.05.17/outbox.cif.g08.bks.cpg/sg22_13_cif.got.tgz:24562.got - 2010.06.03 23:40:54.
