data_PCOD9326436
_publ_section_title
;
Structure prediction by ZEFSAII (Michael W. Deem and Ramdas Pophale) SiO2 
 PCOD9326436
Probable space group: F 2 2 2
;
_chemical_formula_sum "Si O2"
_cell_formula_units_Z 52
_cell_length_a 23.757285
_cell_length_b 19.124594
_cell_length_c 5.203264
_cell_angle_alpha 90.000000
_cell_angle_beta 90.000000
_cell_angle_gamma 90.000000
_cell_volume 2364.094830
_symmetry_space_group_name_H-M "F 2 2 2"
_symmetry_group_IT_number 22
_symmetry_cell_setting 'orthorhombic'
loop_
_space_group_symop_operation_xyz
x,y,z
-x,-y,z
x,-y,-z
-x,y,-z
x,1/2+y,1/2+z
-x,1/2-y,1/2+z
x,1/2-y,1/2-z
-x,1/2+y,1/2-z
1/2+x,y,1/2+z
1/2-x,-y,1/2+z
1/2+x,-y,1/2-z
1/2-x,y,1/2-z
1/2+x,1/2+y,z
1/2-x,1/2-y,z
1/2+x,1/2-y,-z
1/2-x,1/2+y,-z
loop_
_atom_site_type_symbol
_atom_site_label
_atom_site_fract_x
_atom_site_fract_y
_atom_site_fract_z
Si Si1 0.098735 0.417681 0.750262
Si Si2 0.250000 0.877693 0.750000
Si Si3 0.372851 0.830307 0.759311
Si Si4 0.810605 0.500000 0.500000
Si Si5 0.000000 0.000000 0.000000
O O1 0.114398 0.365764 0.514538
O O2 0.146394 0.478358 0.726521
O O3 0.040079 0.453142 0.678112
O O4 0.099395 0.375776 0.014662
O O5 0.305499 0.834380 0.816102
O O6 0.271878 0.932969 0.540037
O O7 0.390845 0.750000 0.750000
#
# Coordination Sequence:
#
# PCOD9326436 Si02
#       5
#    16   8  16   8   4
#     4  10  23  40  65  92 124 162 213 277 320 379
#     4  10  19  34  60  90 129 174 206 252 312 378
#     4  11  23  40  60  92 133 173 211 250 310 392
#     4   9  18  33  58  92 124 157 216 267 316 360
#     4  10  24  46  72  98 120 162 220 282 356 372
#
# _framework density 21.995733999999999
#
# number of rings (size 3 to 8) (size 9 to 14) (size 15 to 20)
#    0.000    1.846    0.000    3.231    0.000   16.000 
#    0.000    9.231    0.000    0.000    0.000    0.000 
#    0.000    0.000    0.000    0.000    0.000    0.000 
#
# Total GULP energy -72665.002011 kJ/mol
# GULP energy per Si atom -5589.615539 kJ/mol
# Density = 2.194567 g / cm^3
# Si number density = 21.995734 Si / 1000 Ang^3
#
#
#
# Elastic Constant Matrix: (Units=GPa)
#
#
# Indices 1 2 3 4 5 6 
#
# 1 96.2650 13.2510 2.6597 0.0041 0.0015 -0.0007
# 2 13.2510 111.1538 37.2232 0.0069 -0.0008 0.0002
# 3 2.6597 37.2232 106.2424 0.0168 -0.0050 0.0020
# 4 0.0041 0.0069 0.0168 30.3534 -0.0013 -0.0001
# 5 0.0015 -0.0008 -0.0050 -0.0013 13.2982 -0.0007
# 6 -0.0007 0.0002 0.0020 -0.0001 -0.0007 24.6054
#
#
#
# Elastic Compliance Matrix: (Units=1/GPa)
#
#
# Indices 1 2 3 4 5 6 
#
# 1 0.010565 -0.001327 0.000200 -0.000001 -0.000001 0.000000
# 2 -0.001327 0.010359 -0.003596 0.000000 -0.000001 0.000000
# 3 0.000200 -0.003596 0.010667 -0.000005 0.000004 -0.000001
# 4 -0.000001 0.000000 -0.000005 0.032945 0.000003 0.000000
# 5 -0.000001 -0.000001 0.000004 0.000003 0.075198 0.000002
# 6 0.000000 0.000000 -0.000001 0.000000 0.000002 0.040642
#
#
# Mechanical properties :
#
#
# Convention : Reuss Voigt Hill
#
# Bulk Modulus (GPa) = 45.15380 46.65876 45.90628
# Shear Modulus (GPa) = 25.35454 31.01988 28.18721
#
# Velocity S-wave (km/s) = 3.39883 3.75943 3.58367
# Velocity P-wave (km/s) = 5.99798 6.33270 6.16761
#
# Compressibility (1/GPa) = 0.02214653
#
# Stress axis : x y z
#
# Youngs Moduli (GPa) = 94.65159 96.53468 93.74367
#
# Poissons Ratio (x) = 0.12806 -0.01878
# Poissons Ratio (y) = 0.12556 0.33712
# Poissons Ratio (z) = -0.01896 0.34716
#
# Static dielectric constant tensor:
#      x y z
#    x 1.820310 0.000000 0.000000 
#    y 0.000000 1.792030 -0.000010 
#    z 0.000000 -0.000010 1.801870 
# 
# From -- ./inp_files/3327.got.cif
#   From: 2010.05.17/outbox.cif.g08.bks.cpg/sg22_2_cif.got.tgz:3327.got - 2010.06.03 23:40:54.
