data_PCOD9326091
_publ_section_title
;
Structure prediction by ZEFSAII (Michael W. Deem and Ramdas Pophale) SiO2 
 PCOD9326091
Probable space group: F 2 2 2
;
_chemical_formula_sum "Si O2"
_cell_formula_units_Z 80
_cell_length_a 26.058886
_cell_length_b 32.038816
_cell_length_c 5.561161
_cell_angle_alpha 90.000000
_cell_angle_beta 90.000000
_cell_angle_gamma 90.000000
_cell_volume 4642.990261
_symmetry_space_group_name_H-M "F 2 2 2"
_symmetry_group_IT_number 22
_symmetry_cell_setting 'orthorhombic'
loop_
_space_group_symop_operation_xyz
x,y,z
-x,-y,z
x,-y,-z
-x,y,-z
x,1/2+y,1/2+z
-x,1/2-y,1/2+z
x,1/2-y,1/2-z
-x,1/2+y,1/2-z
1/2+x,y,1/2+z
1/2-x,-y,1/2+z
1/2+x,-y,1/2-z
1/2-x,y,1/2-z
1/2+x,1/2+y,z
1/2-x,1/2-y,z
1/2+x,1/2-y,-z
1/2-x,1/2+y,-z
loop_
_atom_site_type_symbol
_atom_site_label
_atom_site_fract_x
_atom_site_fract_y
_atom_site_fract_z
Si Si1 0.443132 0.166928 0.229086
Si Si2 0.070482 0.000000 0.500000
Si Si3 0.439645 0.700187 0.239099
Si Si4 0.049224 0.573880 0.670039
Si Si5 0.859515 0.455776 0.363242
Si Si6 0.750000 0.027382 0.250000
O O1 0.419960 0.180038 0.488861
O O2 0.500320 0.186701 0.245940
O O3 0.449080 0.117453 0.192416
O O4 0.416248 0.183926 0.989728
O O5 0.042642 0.030538 0.313547
O O6 0.106949 0.033084 0.632444
O O7 0.436725 0.750000 0.250000
O O8 0.103307 0.571520 0.528096
O O9 0.000000 0.576930 0.500000
O O10 0.854426 0.500000 0.500000
O O11 0.801352 0.445575 0.294480
O O12 0.758283 0.000000 0.500000
#
# Coordination Sequence:
#
# PCOD9326091 Si02
#       6
#    16   8  16  16  16   8
#     4  10  19  31  49  70  95 135 172 218 256 304
#     4  10  22  37  50  66  98 144 185 228 258 302
#     4  10  18  32  51  72  93 128 183 218 258 308
#     4  11  23  36  48  72 106 149 190 218 264 320
#     4   9  20  34  52  75  93 130 181 235 279 313
#     4  10  18  36  60  76  92 120 179 248 291 322
#
# _framework density 17.230276
#
# number of rings (size 3 to 8) (size 9 to 14) (size 15 to 20)
#    0.000    2.000    3.000    3.000    2.800    5.200 
#    0.000    0.000    0.000    0.000    0.000    0.000 
#    0.000    0.000    0.000    0.900   10.400    2.000 
#
# Total GULP energy -111346.408224 kJ/mol
# GULP energy per Si atom -5567.320411 kJ/mol
# Density = 1.719106 g / cm^3
# Si number density = 17.230276 Si / 1000 Ang^3
#
#
#
# Elastic Constant Matrix: (Units=GPa)
#
#
# Indices 1 2 3 4 5 6 
#
# 1 60.0592 28.5929 12.5399 -0.0849 0.1022 -0.0768
# 2 28.5929 103.5534 31.3348 -0.2049 0.0905 -0.1461
# 3 12.5399 31.3348 114.8616 -0.2530 0.1548 -0.1966
# 4 -0.0849 -0.2049 -0.2530 -21.1467 0.0880 0.0138
# 5 0.1022 0.0905 0.1548 0.0880 14.3365 0.1608
# 6 -0.0768 -0.1461 -0.1966 0.0138 0.1608 -37.5932
#
#
#
# Elastic Compliance Matrix: (Units=1/GPa)
#
#
# Indices 1 2 3 4 5 6 
#
# 1 0.019223 -0.005093 -0.000709 -0.000020 -0.000097 -0.000016
# 2 -0.005093 0.011875 -0.002684 -0.000063 -0.000009 -0.000022
# 3 -0.000709 -0.002684 0.009516 -0.000085 -0.000080 -0.000038
# 4 -0.000020 -0.000063 -0.000085 -0.047286 0.000292 -0.000015
# 5 -0.000097 -0.000009 -0.000080 0.000292 0.069748 0.000299
# 6 -0.000016 -0.000022 -0.000038 -0.000015 0.000299 -0.026599
#
#
# Mechanical properties :
#
#
# Convention : Reuss Voigt Hill
#
# Bulk Modulus (GPa) = 42.29822 47.04548 44.67185
# Shear Modulus (GPa) = 81.52582 4.85309 43.18946
#
# Velocity S-wave (km/s) = 6.88608 1.68010 5.01203
# Velocity P-wave (km/s) = 9.37157 5.57915 7.71211
#
# Compressibility (1/GPa) = 0.02364166
#
# Stress axis : x y z
#
# Youngs Moduli (GPa) = 52.02044 84.20967 105.09138
#
# Poissons Ratio (x) = 0.42890 0.07453
# Poissons Ratio (y) = 0.26495 0.28203
# Poissons Ratio (z) = 0.03689 0.22599
#
# Static dielectric constant tensor:
#      x y z
#    x 1.626230 0.000040 0.000070 
#    y 0.000040 1.560700 -0.000170 
#    z 0.000070 -0.000170 1.793430 
# 
# From -- ./inp_files/5694.got.cif
#   From: 2010.05.17/outbox.cif.g08.bks.cpg/sg22_3_cif.got.tgz:5694.got - 2010.06.03 23:40:54.
