data_PCOD9326053
_publ_section_title
;
Structure prediction by ZEFSAII (Michael W. Deem and Ramdas Pophale) SiO2 
 PCOD9326053
Probable space group: F 2 2 2
;
_chemical_formula_sum "Si O2"
_cell_formula_units_Z 96
_cell_length_a 21.674523
_cell_length_b 26.970767
_cell_length_c 8.177011
_cell_angle_alpha 90.000000
_cell_angle_beta 90.000000
_cell_angle_gamma 90.000000
_cell_volume 4780.104904
_symmetry_space_group_name_H-M "F 2 2 2"
_symmetry_group_IT_number 22
_symmetry_cell_setting 'orthorhombic'
loop_
_space_group_symop_operation_xyz
x,y,z
-x,-y,z
x,-y,-z
-x,y,-z
x,1/2+y,1/2+z
-x,1/2-y,1/2+z
x,1/2-y,1/2-z
-x,1/2+y,1/2-z
1/2+x,y,1/2+z
1/2-x,-y,1/2+z
1/2+x,-y,1/2-z
1/2-x,y,1/2-z
1/2+x,1/2+y,z
1/2-x,1/2-y,z
1/2+x,1/2-y,-z
1/2-x,1/2+y,-z
loop_
_atom_site_type_symbol
_atom_site_label
_atom_site_fract_x
_atom_site_fract_y
_atom_site_fract_z
Si Si1 0.503094 0.192515 0.803327
Si Si2 0.868319 0.691914 0.701345
Si Si3 0.136946 0.194063 0.184338
Si Si4 0.319963 0.403472 0.273420
Si Si5 0.314571 0.943846 0.449742
Si Si6 0.678698 0.402838 0.376736
O O1 0.503273 0.250000 0.750000
O O2 0.439082 0.173997 0.728310
O O3 0.568232 0.174776 0.733008
O O4 0.500000 0.188606 0.000000
O O5 0.862891 0.750000 0.750000
O O6 0.853398 0.690818 0.509589
O O7 0.830362 0.653484 0.813675
O O8 0.143061 0.250000 0.250000
O O9 0.181956 0.155938 0.272157
O O10 0.250000 0.423725 0.250000
O O11 0.349932 0.415936 0.446727
O O12 0.350195 0.420280 0.103170
O O13 0.344584 0.937273 0.271682
O O14 0.250554 0.914296 0.417072
O O15 0.301830 0.000000 0.500000
#
# Coordination Sequence:
#
# PCOD9326053 Si02
#       6
#    16  16  16  16  16  16
#     4  10  18  30  51  78 108 151 196 231 275 327
#     4  11  20  35  54  82 120 153 187 234 280 335
#     4  11  20  34  52  79 116 158 196 232 276 332
#     4  10  21  36  54  80 114 146 192 236 279 341
#     4  10  22  38  58  82 110 142 186 239 286 332
#     4  10  21  35  57  84 111 144 189 226 282 342
#
# _framework density 20.08324
#
# number of rings (size 3 to 8) (size 9 to 14) (size 15 to 20)
#    0.000    1.667    1.667    6.500    7.000    0.333 
#    0.000    1.667    0.000    0.000    0.000    2.333 
#    5.000    0.000    0.000    0.000    0.000    0.000 
#
# Total GULP energy -133622.245447 kJ/mol
# GULP energy per Si atom -5567.593560 kJ/mol
# Density = 2.003753 g / cm^3
# Si number density = 20.083240 Si / 1000 Ang^3
#
#
#
# Elastic Constant Matrix: (Units=GPa)
#
#
# Indices 1 2 3 4 5 6 
#
# 1 28.2168 30.6021 6.7954 0.0001 0.0000 0.0002
# 2 30.6021 81.8290 30.2121 0.0000 -0.0001 0.0003
# 3 6.7954 30.2121 200.3642 0.0003 -0.0004 0.0006
# 4 0.0001 0.0000 0.0003 28.8705 -0.0001 0.0004
# 5 0.0000 -0.0001 -0.0004 -0.0001 17.5489 -0.0004
# 6 0.0002 0.0003 0.0006 0.0004 -0.0004 -1.3828
#
#
#
# Elastic Compliance Matrix: (Units=1/GPa)
#
#
# Indices 1 2 3 4 5 6 
#
# 1 0.060005 -0.022968 0.001428 0.000000 0.000000 0.000003
# 2 -0.022968 0.021732 -0.002498 0.000000 0.000000 0.000001
# 3 0.001428 -0.002498 0.005319 0.000000 0.000000 0.000002
# 4 0.000000 0.000000 0.000000 0.034637 0.000000 0.000009
# 5 0.000000 0.000000 0.000000 0.000000 0.056984 -0.000016
# 6 0.000003 0.000001 0.000002 0.000009 -0.000016 -0.723175
#
#
# Mechanical properties :
#
#
# Convention : Reuss Voigt Hill
#
# Bulk Modulus (GPa) = 25.65328 49.51438 37.58383
# Shear Modulus (GPa) = -10.34280 25.19400 7.42560
#
# Velocity S-wave (km/s) = -2.27182 3.54571 1.92495
# Velocity P-wave (km/s) = 2.43304 6.43978 4.86778
#
# Compressibility (1/GPa) = 0.03898136
#
# Stress axis : x y z
#
# Youngs Moduli (GPa) = 16.66519 46.01439 188.00054
#
# Poissons Ratio (x) = 1.05685 -0.26849
# Poissons Ratio (y) = 0.38276 0.46962
# Poissons Ratio (z) = -0.02380 0.11494
#
# Static dielectric constant tensor:
#      x y z
#    x 1.780510 0.000000 0.000000 
#    y 0.000000 1.710000 0.000000 
#    z 0.000000 0.000000 1.854420 
# 
# From -- ./inp_files/14895.got.cif
#   From: 2010.05.17/outbox.cif.g08.bks.cpg/sg22_8_cif.got.tgz:14895.got - 2010.06.03 23:40:54.
