data_PCOD9326472
_publ_section_title
;
Structure prediction by ZEFSAII (Michael W. Deem and Ramdas Pophale) SiO2 
 PCOD9326472
Probable space group: F 2 2 2
;
_chemical_formula_sum "Si O2"
_cell_formula_units_Z 92
_cell_length_a 22.914283
_cell_length_b 22.568572
_cell_length_c 9.329048
_cell_angle_alpha 90.000000
_cell_angle_beta 90.000000
_cell_angle_gamma 90.000000
_cell_volume 4824.448565
_symmetry_space_group_name_H-M "F 2 2 2"
_symmetry_group_IT_number 22
_symmetry_cell_setting 'orthorhombic'
loop_
_space_group_symop_operation_xyz
x,y,z
-x,-y,z
x,-y,-z
-x,y,-z
x,1/2+y,1/2+z
-x,1/2-y,1/2+z
x,1/2-y,1/2-z
-x,1/2+y,1/2-z
1/2+x,y,1/2+z
1/2-x,-y,1/2+z
1/2+x,-y,1/2-z
1/2-x,y,1/2-z
1/2+x,1/2+y,z
1/2-x,1/2-y,z
1/2+x,1/2-y,-z
1/2-x,1/2+y,-z
loop_
_atom_site_type_symbol
_atom_site_label
_atom_site_fract_x
_atom_site_fract_y
_atom_site_fract_z
Si Si1 0.657406 0.071407 0.991790
Si Si2 0.076063 0.000000 0.000000
Si Si3 0.598895 0.599150 0.195954
Si Si4 0.005065 0.811016 0.831080
Si Si5 0.777579 0.443455 0.597901
Si Si6 0.425864 0.580184 0.273183
Si Si7 0.500000 0.000000 0.000000
O O1 0.631100 0.096425 0.136328
O O2 0.613894 0.082681 0.859190
O O3 0.723334 0.092887 0.965379
O O4 0.662734 0.000000 0.000000
O O5 0.055816 0.945584 0.893058
O O6 0.093757 0.041483 0.864114
O O7 0.569532 0.662480 0.194915
O O8 0.662055 0.590465 0.122271
O O9 0.995130 0.750000 0.750000
O O10 0.961621 0.862508 0.775557
O O11 0.000000 0.802483 0.000000
O O12 0.791563 0.500000 0.500000
O O13 0.750000 0.464142 0.750000
O O14 0.462861 0.541156 0.389596
#
# Coordination Sequence:
#
# PCOD9326472 Si02
#       7
#    16   8  16  16  16  16   4
#     4  10  19  35  58  96 133 165 196 242 322 395
#     4  12  20  35  59  94 127 156 202 255 332 384
#     4  11  21  38  60  91 131 165 205 260 310 387
#     4  12  29  45  62  86 120 176 226 269 320 372
#     4   9  19  33  58  92 133 168 200 244 315 390
#     4  12  23  39  61  93 132 168 209 262 321 401
#     4  12  24  34  62  96 130 170 200 246 346 386
#
# _framework density 19.069537
#
# number of rings (size 3 to 8) (size 9 to 14) (size 15 to 20)
#    0.000    1.043    5.217    2.087    3.652    0.696 
#    0.000    0.000    0.000    4.696    0.000    1.217 
#    0.000    0.000    0.000    0.000    0.000    0.000 
#
# Total GULP energy -128090.868275 kJ/mol
# GULP energy per Si atom -5569.168186 kJ/mol
# Density = 1.902613 g / cm^3
# Si number density = 19.069537 Si / 1000 Ang^3
#
#
#
# Elastic Constant Matrix: (Units=GPa)
#
#
# Indices 1 2 3 4 5 6 
#
# 1 98.0504 38.3838 58.0612 0.0001 -0.0001 -0.0002
# 2 38.3838 87.7095 54.4405 0.0003 -0.0001 -0.0002
# 3 58.0612 54.4405 154.6551 0.0005 -0.0002 -0.0004
# 4 0.0001 0.0003 0.0005 26.2435 -0.0002 -0.0004
# 5 -0.0001 -0.0001 -0.0002 -0.0002 34.2005 0.0001
# 6 -0.0002 -0.0002 -0.0004 -0.0004 0.0001 -36.9220
#
#
#
# Elastic Compliance Matrix: (Units=1/GPa)
#
#
# Indices 1 2 3 4 5 6 
#
# 1 0.013975 -0.003659 -0.003959 0.000000 0.000000 0.000000
# 2 -0.003659 0.015547 -0.004099 0.000000 0.000000 0.000000
# 3 -0.003959 -0.004099 0.009395 0.000000 0.000000 0.000000
# 4 0.000000 0.000000 0.000000 0.038105 0.000000 0.000000
# 5 0.000000 0.000000 0.000000 0.000000 0.029239 0.000000
# 6 0.000000 0.000000 0.000000 0.000000 0.000000 -0.027084
#
#
# Mechanical properties :
#
#
# Convention : Reuss Voigt Hill
#
# Bulk Modulus (GPa) = 64.58271 71.35401 67.96836
# Shear Modulus (GPa) = 46.39447 17.33970 31.86709
#
# Velocity S-wave (km/s) = 4.93781 3.01871 4.09234
# Velocity P-wave (km/s) = 8.15167 7.04622 7.61902
#
# Compressibility (1/GPa) = 0.01548402
#
# Stress axis : x y z
#
# Youngs Moduli (GPa) = 71.55463 64.32243 106.43834
#
# Poissons Ratio (x) = 0.23534 0.42136
# Poissons Ratio (y) = 0.26180 0.43629
# Poissons Ratio (z) = 0.28327 0.26366
#
# Static dielectric constant tensor:
#      x y z
#    x 1.861090 0.000000 0.000000 
#    y 0.000000 1.618230 0.000000 
#    z 0.000000 0.000000 1.764830 
# 
# From -- ./inp_files/14757.got.cif
#   From: 2010.05.17/outbox.cif.g08.bks.cpg/sg22_8_cif.got.tgz:14757.got - 2010.06.03 23:40:54.
