data_PCOD9326739
_publ_section_title
;
Structure prediction by ZEFSAII (Michael W. Deem and Ramdas Pophale) SiO2 
 PCOD9326739
Probable space group: F 2 2 2
;
_chemical_formula_sum "Si O2"
_cell_formula_units_Z 72
_cell_length_a 10.448360
_cell_length_b 36.104771
_cell_length_c 10.448682
_cell_angle_alpha 90.000000
_cell_angle_beta 90.000000
_cell_angle_gamma 90.000000
_cell_volume 3941.615295
_symmetry_space_group_name_H-M "F 2 2 2"
_symmetry_group_IT_number 22
_symmetry_cell_setting 'orthorhombic'
loop_
_space_group_symop_operation_xyz
x,y,z
-x,-y,z
x,-y,-z
-x,y,-z
x,1/2+y,1/2+z
-x,1/2-y,1/2+z
x,1/2-y,1/2-z
-x,1/2+y,1/2-z
1/2+x,y,1/2+z
1/2-x,-y,1/2+z
1/2+x,-y,1/2-z
1/2-x,y,1/2-z
1/2+x,1/2+y,z
1/2-x,1/2-y,z
1/2+x,1/2-y,-z
1/2-x,1/2+y,-z
loop_
_atom_site_type_symbol
_atom_site_label
_atom_site_fract_x
_atom_site_fract_y
_atom_site_fract_z
Si Si1 0.637931 0.480871 0.862074
Si Si2 0.207176 0.207390 0.490042
Si Si3 0.000000 0.085117 0.000000
Si Si4 0.490026 0.292611 0.292825
Si Si5 0.640412 0.149736 0.359578
O O1 0.500000 0.500000 0.822284
O O2 0.750000 0.481950 0.750000
O O3 0.590334 0.440388 0.909672
O O4 0.677726 0.500000 0.000000
O O5 0.250000 0.250000 0.489646
O O6 0.143710 0.198923 0.356304
O O7 0.304703 0.175927 0.529141
O O8 0.099345 0.205871 0.599352
O O9 0.087565 0.111485 0.912433
O O10 0.489627 0.250000 0.250000
O O11 0.529123 0.324075 0.195306
O O12 0.750000 0.144768 0.250000
#
# Coordination Sequence:
#
# PCOD9326739 Si02
#       5
#    16  16   8  16  16
#     4   9  21  43  70 104 138 170 210 250 312 390
#     4  10  20  33  51  72  97 138 199 260 318 371
#     4  10  23  38  62  92 128 168 204 252 312 396
#     4  10  20  33  51  72  97 138 199 260 318 371
#     4  10  22  38  53  74 116 158 196 258 324 366
#
# _framework density 18.266622000000002
#
# number of rings (size 3 to 8) (size 9 to 14) (size 15 to 20)
#    0.000    2.444    2.222    0.000    3.111    6.222 
#    0.000    0.000    0.000    0.000    0.000    0.000 
#    0.000    0.000    0.000    0.000    0.000    0.000 
#
# Total GULP energy -100223.276670 kJ/mol
# GULP energy per Si atom -5567.959815 kJ/mol
# Density = 1.822505 g / cm^3
# Si number density = 18.266622 Si / 1000 Ang^3
#
#
#
# Elastic Constant Matrix: (Units=GPa)
#
#
# Indices 1 2 3 4 5 6 
#
# 1 95.9323 66.6465 92.0144 0.0000 0.0000 0.0000
# 2 66.6465 149.1324 66.6575 0.0000 0.0000 0.0000
# 3 92.0144 66.6575 95.9836 0.0000 0.0000 0.0000
# 4 0.0000 0.0000 0.0000 32.8406 0.0000 0.0000
# 5 0.0000 0.0000 0.0000 0.0000 41.9711 0.0000
# 6 0.0000 0.0000 0.0000 0.0000 0.0000 32.8420
#
#
#
# Elastic Compliance Matrix: (Units=1/GPa)
#
#
# Indices 1 2 3 4 5 6 
#
# 1 0.130724 -0.003490 -0.122894 0.000000 0.000000 0.000000
# 2 -0.003490 0.009817 -0.003472 0.000000 0.000000 0.000000
# 3 -0.122894 -0.003472 0.130642 0.000000 0.000000 0.000000
# 4 0.000000 0.000000 0.000000 0.030450 0.000000 0.000000
# 5 0.000000 0.000000 0.000000 0.000000 0.023826 0.000000
# 6 0.000000 0.000000 0.000000 0.000000 0.000000 0.030449
#
#
# Mechanical properties :
#
#
# Convention : Reuss Voigt Hill
#
# Bulk Modulus (GPa) = 87.18228 87.96499 87.57363
# Shear Modulus (GPa) = 8.07177 29.24607 18.65892
#
# Velocity S-wave (km/s) = 2.10439 4.00567 3.19952
# Velocity P-wave (km/s) = 7.33048 8.34593 7.85463
#
# Compressibility (1/GPa) = 0.01147022
#
# Stress axis : x y z
#
# Youngs Moduli (GPa) = 7.64973 101.86494 7.65452
#
# Poissons Ratio (x) = 0.35549 0.94070
# Poissons Ratio (y) = 0.02670 0.02658
# Poissons Ratio (z) = 0.94011 0.35368
#
# Static dielectric constant tensor:
#      x y z
#    x 1.670870 0.000000 0.000000 
#    y 0.000000 1.605780 0.000000 
#    z 0.000000 0.000000 1.670890 
# 
# From -- ./inp_files/18106.got.cif
#   From: 2010.05.17/outbox.cif.g08.bks.cpg/sg22_10_cif.got.tgz:18106.got - 2010.06.03 23:40:54.
