data_PCOD9326591
_publ_section_title
;
Structure prediction by ZEFSAII (Michael W. Deem and Ramdas Pophale) SiO2 
 PCOD9326591
Probable space group: F 2 2 2
;
_chemical_formula_sum "Si O2"
_cell_formula_units_Z 112
_cell_length_a 28.828946
_cell_length_b 14.274928
_cell_length_c 12.546698
_cell_angle_alpha 90.000000
_cell_angle_beta 90.000000
_cell_angle_gamma 90.000000
_cell_volume 5163.356786
_symmetry_space_group_name_H-M "F 2 2 2"
_symmetry_group_IT_number 22
_symmetry_cell_setting 'orthorhombic'
loop_
_space_group_symop_operation_xyz
x,y,z
-x,-y,z
x,-y,-z
-x,y,-z
x,1/2+y,1/2+z
-x,1/2-y,1/2+z
x,1/2-y,1/2-z
-x,1/2+y,1/2-z
1/2+x,y,1/2+z
1/2-x,-y,1/2+z
1/2+x,-y,1/2-z
1/2-x,y,1/2-z
1/2+x,1/2+y,z
1/2-x,1/2-y,z
1/2+x,1/2-y,-z
1/2-x,1/2+y,-z
loop_
_atom_site_type_symbol
_atom_site_label
_atom_site_fract_x
_atom_site_fract_y
_atom_site_fract_z
Si Si1 0.698930 0.217145 0.971702
Si Si2 0.053059 0.501119 0.873363
Si Si3 0.897422 0.360093 0.258683
Si Si4 0.645630 0.600434 0.059620
Si Si5 0.630253 0.646239 0.289367
Si Si6 0.297013 0.143256 0.793105
Si Si7 0.549959 0.390493 0.021674
O O1 0.750000 0.250000 0.934637
O O2 0.674347 0.317078 0.996660
O O3 0.667463 0.164603 0.884057
O O4 0.702395 0.155189 0.078944
O O5 0.076124 0.404220 0.839472
O O6 0.086728 0.582642 0.827143
O O7 0.000000 0.500000 0.832020
O O8 0.051936 0.500000 0.000000
O O9 0.894668 0.250000 0.250000
O O10 0.844915 0.397385 0.251749
O O11 0.927937 0.382368 0.361765
O O12 0.655110 0.600748 0.185599
O O13 0.649881 0.500000 0.000000
O O14 0.592281 0.636481 0.053857
O O15 0.615795 0.750000 0.250000
O O16 0.295991 0.250000 0.750000
O O17 0.250000 0.096905 0.750000
O O18 0.544578 0.500000 0.000000
O O19 0.500000 0.344788 0.000000
#
# Coordination Sequence:
#
# PCOD9326591 Si02
#       7
#    16  16  16  16  16  16  16
#     4  11  22  42  74  98 138 184 234 295 367 432
#     4  11  25  45  68  98 144 189 227 286 357 425
#     4  11  24  42  70 101 138 178 237 289 347 423
#     4  10  21  40  66  99 137 176 232 292 349 420
#     4  10  24  44  72  98 138 185 233 296 351 428
#     4  10  19  37  67 100 129 175 225 283 353 417
#     4  10  22  39  66  97 134 180 228 285 347 409
#
# _framework density 21.691316
#
# number of rings (size 3 to 8) (size 9 to 14) (size 15 to 20)
#    0.000    1.571    1.429    4.286    4.000    4.286 
#    5.143    2.143    6.286    0.000    0.000    0.000 
#    0.000    0.000    0.000    0.000    0.000    0.000 
#
# Total GULP energy -156254.173778 kJ/mol
# GULP energy per Si atom -5580.506206 kJ/mol
# Density = 2.164195 g / cm^3
# Si number density = 21.691316 Si / 1000 Ang^3
#
#
#
# Elastic Constant Matrix: (Units=GPa)
#
#
# Indices 1 2 3 4 5 6 
#
# 1 181.3940 38.2169 46.7898 0.0000 0.0000 0.0000
# 2 38.2169 87.9228 33.3097 0.0000 0.0000 0.0000
# 3 46.7898 33.3097 140.1219 0.0000 0.0000 0.0000
# 4 0.0000 0.0000 0.0000 33.5362 0.0000 0.0000
# 5 0.0000 0.0000 0.0000 0.0000 5.0742 0.0000
# 6 0.0000 0.0000 0.0000 0.0000 0.0000 28.5289
#
#
#
# Elastic Compliance Matrix: (Units=1/GPa)
#
#
# Indices 1 2 3 4 5 6 
#
# 1 0.006386 -0.002163 -0.001618 0.000000 0.000000 0.000000
# 2 -0.002163 0.013232 -0.002423 0.000000 0.000000 0.000000
# 3 -0.001618 -0.002423 0.008253 0.000000 0.000000 0.000000
# 4 0.000000 0.000000 0.000000 0.029819 0.000000 0.000000
# 5 0.000000 0.000000 0.000000 0.000000 0.197076 0.000000
# 6 0.000000 0.000000 0.000000 0.000000 0.000000 0.035052
#
#
# Mechanical properties :
#
#
# Convention : Reuss Voigt Hill
#
# Bulk Modulus (GPa) = 64.67352 71.78572 68.22962
# Shear Modulus (GPa) = 16.26654 32.83601 24.55127
#
# Velocity S-wave (km/s) = 2.74142 3.89496 3.36794
# Velocity P-wave (km/s) = 6.31669 7.30710 6.82987
#
# Compressibility (1/GPa) = 0.01546228
#
# Stress axis : x y z
#
# Youngs Moduli (GPa) = 156.59426 75.57603 121.16671
#
# Poissons Ratio (x) = 0.16344 0.19608
# Poissons Ratio (y) = 0.33866 0.29362
# Poissons Ratio (z) = 0.25342 0.18314
#
# Static dielectric constant tensor:
#      x y z
#    x 1.896080 0.000000 0.000000 
#    y 0.000000 1.784800 0.000000 
#    z 0.000000 0.000000 1.869100 
# 
# From -- ./inp_files/25427.got.cif
#   From: 2010.05.17/outbox.cif.g08.bks.cpg/sg22_13_cif.got.tgz:25427.got - 2010.06.03 23:40:54.
