data_PCOD9326928
_publ_section_title
;
Structure prediction by ZEFSAII (Michael W. Deem and Ramdas Pophale) SiO2 
 PCOD9326928
Probable space group: F 2 2 2
;
_chemical_formula_sum "Si O2"
_cell_formula_units_Z 56
_cell_length_a 16.294386
_cell_length_b 4.816377
_cell_length_c 28.468051
_cell_angle_alpha 90.000000
_cell_angle_beta 90.000000
_cell_angle_gamma 90.000000
_cell_volume 2234.169965
_symmetry_space_group_name_H-M "F 2 2 2"
_symmetry_group_IT_number 22
_symmetry_cell_setting 'orthorhombic'
loop_
_space_group_symop_operation_xyz
x,y,z
-x,-y,z
x,-y,-z
-x,y,-z
x,1/2+y,1/2+z
-x,1/2-y,1/2+z
x,1/2-y,1/2-z
-x,1/2+y,1/2-z
1/2+x,y,1/2+z
1/2-x,-y,1/2+z
1/2+x,-y,1/2-z
1/2-x,y,1/2-z
1/2+x,1/2+y,z
1/2-x,1/2-y,z
1/2+x,1/2-y,-z
1/2-x,1/2+y,-z
loop_
_atom_site_type_symbol
_atom_site_label
_atom_site_fract_x
_atom_site_fract_y
_atom_site_fract_z
Si Si1 0.370727 0.120265 0.611769
Si Si2 0.095581 0.591640 0.947813
Si Si3 0.367336 0.750000 0.750000
Si Si4 0.750000 0.250000 0.673289
Si Si5 0.500000 0.000000 0.317962
O O1 0.395369 0.906989 0.569684
O O2 0.303478 0.961929 0.642819
O O3 0.449097 0.186692 0.645247
O O4 0.350175 0.409088 0.587778
O O5 0.000000 0.500000 0.944280
O O6 0.121078 0.500000 0.000000
O O7 0.310959 0.599321 0.710846
O O8 0.428617 0.915084 0.717072
#
# Coordination Sequence:
#
# PCOD9326928 Si02
#       5
#    16  16   8   8   8
#     4  11  22  41  68 100 136 183 218 280 333 416
#     4  11  22  40  68 103 135 171 227 287 337 395
#     4   9  20  40  64  99 136 182 224 291 330 406
#     4   9  22  42  64  96 148 178 226 270 358 399
#     4  10  20  36  65  98 130 174 235 274 334 392
#
# _framework density 25.065235999999999
#
# number of rings (size 3 to 8) (size 9 to 14) (size 15 to 20)
#    0.000    1.714    2.857    0.857    0.000    8.000 
#    0.000    5.714    0.000   12.000    0.000    0.000 
#    0.000    0.000    0.000    0.000    0.000    0.000 
#
# Total GULP energy -78158.190335 kJ/mol
# GULP energy per Si atom -5582.727881 kJ/mol
# Density = 2.500819 g / cm^3
# Si number density = 25.065236 Si / 1000 Ang^3
#
#
#
# Elastic Constant Matrix: (Units=GPa)
#
#
# Indices 1 2 3 4 5 6 
#
# 1 96.7337 4.5671 43.9562 0.0000 0.0000 0.0000
# 2 4.5671 78.9724 19.2989 0.0000 0.0000 0.0000
# 3 43.9562 19.2989 152.0674 0.0000 0.0000 0.0000
# 4 0.0000 0.0000 0.0000 22.4490 0.0000 0.0000
# 5 0.0000 0.0000 0.0000 0.0000 55.2783 0.0000
# 6 0.0000 0.0000 0.0000 0.0000 0.0000 24.5170
#
#
#
# Elastic Compliance Matrix: (Units=1/GPa)
#
#
# Indices 1 2 3 4 5 6 
#
# 1 0.011903 0.000157 -0.003461 0.000000 0.000000 0.000000
# 2 0.000157 0.013070 -0.001704 0.000000 0.000000 0.000000
# 3 -0.003461 -0.001704 0.007793 0.000000 0.000000 0.000000
# 4 0.000000 0.000000 0.000000 0.044546 0.000000 0.000000
# 5 0.000000 0.000000 0.000000 0.000000 0.018090 0.000000
# 6 0.000000 0.000000 0.000000 0.000000 0.000000 0.040788
#
#
# Mechanical properties :
#
#
# Convention : Reuss Voigt Hill
#
# Bulk Modulus (GPa) = 43.95503 51.49087 47.72295
# Shear Modulus (GPa) = 32.51239 37.77894 35.14566
#
# Velocity S-wave (km/s) = 3.60545 3.88651 3.74862
# Velocity P-wave (km/s) = 5.90819 6.38179 6.14955
#
# Compressibility (1/GPa) = 0.02275052
#
# Stress axis : x y z
#
# Youngs Moduli (GPa) = 84.01447 76.51098 128.32686
#
# Poissons Ratio (x) = -0.01204 0.44408
# Poissons Ratio (y) = -0.01322 0.21869
# Poissons Ratio (z) = 0.29073 0.13039
#
# Static dielectric constant tensor:
#      x y z
#    x 2.131720 0.000000 0.000000 
#    y 0.000000 1.972130 0.000000 
#    z 0.000000 0.000000 1.971920 
# 
# From -- ./inp_files/53360.got.cif
#   From: 2010.05.17/outbox.cif.g08.bks.cpg/sg22_27_cif.got.tgz:53360.got - 2010.06.03 23:40:54.
