data_PCOD9326434
_publ_section_title
;
Structure prediction by ZEFSAII (Michael W. Deem and Ramdas Pophale) SiO2 
 PCOD9326434
Probable space group: F 2 2 2
;
_chemical_formula_sum "Si O2"
_cell_formula_units_Z 68
_cell_length_a 15.250990
_cell_length_b 16.744323
_cell_length_c 14.159685
_cell_angle_alpha 90.000000
_cell_angle_beta 90.000000
_cell_angle_gamma 90.000000
_cell_volume 3615.923396
_symmetry_space_group_name_H-M "F 2 2 2"
_symmetry_group_IT_number 22
_symmetry_cell_setting 'orthorhombic'
loop_
_space_group_symop_operation_xyz
x,y,z
-x,-y,z
x,-y,-z
-x,y,-z
x,1/2+y,1/2+z
-x,1/2-y,1/2+z
x,1/2-y,1/2-z
-x,1/2+y,1/2-z
1/2+x,y,1/2+z
1/2-x,-y,1/2+z
1/2+x,-y,1/2-z
1/2-x,y,1/2-z
1/2+x,1/2+y,z
1/2-x,1/2-y,z
1/2+x,1/2-y,-z
1/2-x,1/2+y,-z
loop_
_atom_site_type_symbol
_atom_site_label
_atom_site_fract_x
_atom_site_fract_y
_atom_site_fract_z
Si Si1 0.226939 0.158926 0.559757
Si Si2 0.126355 0.051831 0.849843
Si Si3 0.747863 0.093642 0.855095
Si Si4 0.407086 0.961292 0.136670
Si Si5 0.500000 0.000000 0.500000
O O1 0.250000 0.250000 0.582401
O O2 0.293735 0.109008 0.624953
O O3 0.246074 0.146303 0.448527
O O4 0.133457 0.114886 0.580903
O O5 0.087914 0.064536 0.746468
O O6 0.166848 0.963006 0.856578
O O7 0.056062 0.055781 0.931772
O O8 0.750000 0.131182 0.750000
O O9 0.665745 0.032118 0.865551
O O10 0.500000 0.000000 0.108037
#
# Coordination Sequence:
#
# PCOD9326434 Si02
#       5
#    16  16  16  16   4
#     4  11  22  37  57  85 126 158 185 243 316 357
#     4  10  19  34  60  87 108 152 206 248 281 348
#     4   9  19  36  57  80 110 157 210 241 283 351
#     4  10  20  35  61  88 113 153 205 246 287 353
#     4  12  16  32  64  84 108 136 206 260 272 324
#
# _framework density 18.805707000000002
#
# number of rings (size 3 to 8) (size 9 to 14) (size 15 to 20)
#    0.000    1.882    3.529    4.235    0.000    4.235 
#    0.000    2.353    0.000    2.824    0.000    0.000 
#    0.000    0.000    0.000    0.000    0.000    0.000 
#
# Total GULP energy -94711.122343 kJ/mol
# GULP energy per Si atom -5571.242491 kJ/mol
# Density = 1.876290 g / cm^3
# Si number density = 18.805707 Si / 1000 Ang^3
#
#
#
# Elastic Constant Matrix: (Units=GPa)
#
#
# Indices 1 2 3 4 5 6 
#
# 1 84.2543 28.7250 26.3835 0.0000 0.0000 0.0000
# 2 28.7250 72.4085 33.1476 0.0000 0.0000 0.0000
# 3 26.3835 33.1476 126.5896 0.0000 0.0000 0.0000
# 4 0.0000 0.0000 0.0000 -24.8675 0.0000 0.0000
# 5 0.0000 0.0000 0.0000 0.0000 23.9495 0.0000
# 6 0.0000 0.0000 0.0000 0.0000 0.0000 14.8276
#
#
#
# Elastic Compliance Matrix: (Units=1/GPa)
#
#
# Indices 1 2 3 4 5 6 
#
# 1 0.014028 -0.004802 -0.001666 0.000000 0.000000 0.000000
# 2 -0.004802 0.017335 -0.003538 0.000000 0.000000 0.000000
# 3 -0.001666 -0.003538 0.009173 0.000000 0.000000 0.000000
# 4 0.000000 0.000000 0.000000 -0.040213 0.000000 0.000000
# 5 0.000000 0.000000 0.000000 0.000000 0.041755 0.000000
# 6 0.000000 0.000000 0.000000 0.000000 0.000000 0.067442
#
#
# Mechanical properties :
#
#
# Convention : Reuss Voigt Hill
#
# Bulk Modulus (GPa) = 48.72585 51.08493 49.90539
# Shear Modulus (GPa) = 36.66382 15.78168 26.22275
#
# Velocity S-wave (km/s) = 4.42023 2.90003 3.73822
# Velocity P-wave (km/s) = 7.21233 6.19977 6.72513
#
# Compressibility (1/GPa) = 0.02052299
#
# Stress axis : x y z
#
# Youngs Moduli (GPa) = 71.28703 57.68536 109.01144
#
# Poissons Ratio (x) = 0.27701 0.18163
# Poissons Ratio (y) = 0.34233 0.38573
# Poissons Ratio (z) = 0.11878 0.20412
#
# Static dielectric constant tensor:
#      x y z
#    x 1.737180 0.000000 0.000000 
#    y 0.000000 1.628100 0.000000 
#    z 0.000000 0.000000 1.698880 
# 
# From -- ./inp_files/30446.got.cif
#   From: 2010.05.17/outbox.cif.g08.bks.cpg/sg22_16_cif.got.tgz:30446.got - 2010.06.03 23:40:54.
