data_PCOD9326187
_publ_section_title
;
Structure prediction by ZEFSAII (Michael W. Deem and Ramdas Pophale) SiO2 
 PCOD9326187
Probable space group: F 2 2 2
;
_chemical_formula_sum "Si O2"
_cell_formula_units_Z 88
_cell_length_a 11.481383
_cell_length_b 19.739597
_cell_length_c 18.185575
_cell_angle_alpha 90.000000
_cell_angle_beta 90.000000
_cell_angle_gamma 90.000000
_cell_volume 4121.540045
_symmetry_space_group_name_H-M "F 2 2 2"
_symmetry_group_IT_number 22
_symmetry_cell_setting 'orthorhombic'
loop_
_space_group_symop_operation_xyz
x,y,z
-x,-y,z
x,-y,-z
-x,y,-z
x,1/2+y,1/2+z
-x,1/2-y,1/2+z
x,1/2-y,1/2-z
-x,1/2+y,1/2-z
1/2+x,y,1/2+z
1/2-x,-y,1/2+z
1/2+x,-y,1/2-z
1/2-x,y,1/2-z
1/2+x,1/2+y,z
1/2-x,1/2-y,z
1/2+x,1/2-y,-z
1/2-x,1/2+y,-z
loop_
_atom_site_type_symbol
_atom_site_label
_atom_site_fract_x
_atom_site_fract_y
_atom_site_fract_z
Si Si1 0.960569 0.750000 0.250000
Si Si2 0.051367 0.179611 0.615397
Si Si3 0.750000 0.852330 0.250000
Si Si4 0.000000 0.000000 0.816077
Si Si5 0.809326 0.320788 0.972002
Si Si6 0.834464 0.440288 0.193188
Si Si7 0.289350 0.440681 0.112847
O O1 0.868443 0.810663 0.239678
O O2 0.036271 0.763862 0.322064
O O3 0.154616 0.188066 0.556863
O O4 0.075728 0.109229 0.655556
O O5 0.930538 0.175376 0.571823
O O6 0.763209 0.896733 0.321356
O O7 0.900309 0.981771 0.756898
O O8 0.073060 0.950795 0.870413
O O9 0.750000 0.250000 0.947055
O O10 0.739506 0.391089 0.955832
O O11 0.750000 0.399672 0.250000
O O12 0.773362 0.486514 0.129581
#
# Coordination Sequence:
#
# PCOD9326187 Si02
#       7
#     8  16   8   8  16  16  16
#     4  11  22  36  67 104 122 170 227 272 333 406
#     4  11  24  42  66  94 135 179 228 278 354 418
#     4  11  18  36  68  98 134 165 212 286 330 395
#     4  10  18  34  64 104 132 168 214 292 334 392
#     4  11  25  45  65  94 135 181 225 288 349 421
#     4  10  21  38  64 100 136 173 222 285 340 401
#     4  11  20  38  65 100 140 172 228 280 344 415
#
# _framework density 21.351244000000001
#
# number of rings (size 3 to 8) (size 9 to 14) (size 15 to 20)
#    0.000    1.273    4.545    3.273    0.000    2.182 
#    0.000    7.273    0.000    6.545    0.000    0.000 
#    0.000    0.000    0.000    0.000    0.000    0.000 
#
# Total GULP energy -122476.460346 kJ/mol
# GULP energy per Si atom -5567.111834 kJ/mol
# Density = 2.130265 g / cm^3
# Si number density = 21.351244 Si / 1000 Ang^3
#
#
#
# Elastic Constant Matrix: (Units=GPa)
#
#
# Indices 1 2 3 4 5 6 
#
# 1 56.7209 37.8675 34.9687 0.0000 0.0000 0.0000
# 2 37.8675 79.3291 34.0988 0.0000 0.0000 0.0000
# 3 34.9687 34.0988 104.8749 0.0000 0.0000 0.0000
# 4 0.0000 0.0000 0.0000 -42.6825 0.0000 0.0000
# 5 0.0000 0.0000 0.0000 0.0000 39.5016 0.0000
# 6 0.0000 0.0000 0.0000 0.0000 0.0000 -4.6304
#
#
#
# Elastic Compliance Matrix: (Units=1/GPa)
#
#
# Indices 1 2 3 4 5 6 
#
# 1 0.028758 -0.011167 -0.005958 0.000000 0.000000 0.000000
# 2 -0.011167 0.018990 -0.002451 0.000000 0.000000 0.000000
# 3 -0.005958 -0.002451 0.012319 0.000000 0.000000 0.000000
# 4 0.000000 0.000000 0.000000 -0.023429 0.000000 0.000000
# 5 0.000000 0.000000 0.000000 0.000000 0.025315 0.000000
# 6 0.000000 0.000000 0.000000 0.000000 0.000000 -0.215965
#
#
# Mechanical properties :
#
#
# Convention : Reuss Voigt Hill
#
# Bulk Modulus (GPa) = 47.81242 50.53277 49.17259
# Shear Modulus (GPa) = -46.34418 7.37040 -19.48689
#
# Velocity S-wave (km/s) = -4.66398 1.85997 -3.02434
# Velocity P-wave (km/s) = 2.56159 5.32272 3.29921
#
# Compressibility (1/GPa) = 0.02091507
#
# Stress axis : x y z
#
# Youngs Moduli (GPa) = 34.77234 52.66047 81.17701
#
# Poissons Ratio (x) = 0.58804 0.48368
# Poissons Ratio (y) = 0.38829 0.19896
# Poissons Ratio (z) = 0.20719 0.12907
#
# Static dielectric constant tensor:
#      x y z
#    x 1.900730 0.000000 0.000000 
#    y 0.000000 1.818840 0.000000 
#    z 0.000000 0.000000 1.835350 
# 
# From -- ./inp_files/42658.got.cif
#   From: 2010.05.17/outbox.cif.g08.bks.cpg/sg22_22_cif.got.tgz:42658.got - 2010.06.03 23:40:54.
