data_PCOD9326775
_publ_section_title
;
Structure prediction by ZEFSAII (Michael W. Deem and Ramdas Pophale) SiO2 
 PCOD9326775
Probable space group: F 2 2 2
;
_chemical_formula_sum "Si O2"
_cell_formula_units_Z 88
_cell_length_a 18.268202
_cell_length_b 12.912089
_cell_length_c 18.356511
_cell_angle_alpha 90.000000
_cell_angle_beta 90.000000
_cell_angle_gamma 90.000000
_cell_volume 4329.945748
_symmetry_space_group_name_H-M "F 2 2 2"
_symmetry_group_IT_number 22
_symmetry_cell_setting 'orthorhombic'
loop_
_space_group_symop_operation_xyz
x,y,z
-x,-y,z
x,-y,-z
-x,y,-z
x,1/2+y,1/2+z
-x,1/2-y,1/2+z
x,1/2-y,1/2-z
-x,1/2+y,1/2-z
1/2+x,y,1/2+z
1/2-x,-y,1/2+z
1/2+x,-y,1/2-z
1/2-x,y,1/2-z
1/2+x,1/2+y,z
1/2-x,1/2-y,z
1/2+x,1/2-y,-z
1/2-x,1/2+y,-z
loop_
_atom_site_type_symbol
_atom_site_label
_atom_site_fract_x
_atom_site_fract_y
_atom_site_fract_z
Si Si1 0.578638 0.800706 0.520200
Si Si2 0.232675 0.368819 0.546584
Si Si3 0.208023 0.512245 0.176415
Si Si4 0.866578 0.107610 0.564749
Si Si5 0.500000 0.500000 0.381059
Si Si6 0.079008 0.817071 0.323088
O O1 0.500000 0.847929 0.500000
O O2 0.651582 0.869241 0.513804
O O3 0.589805 0.707920 0.461704
O O4 0.581025 0.751175 0.602302
O O5 0.250000 0.250000 0.569017
O O6 0.237866 0.443549 0.614927
O O7 0.298689 0.394497 0.491361
O O8 0.250000 0.493792 0.250000
O O9 0.170987 0.409053 0.143332
O O10 0.148846 0.605699 0.183957
O O11 0.927373 0.017196 0.571654
O O12 0.512269 0.397437 0.333923
O O13 0.073836 0.750000 0.250000
#
# Coordination Sequence:
#
# PCOD9326775 Si02
#       6
#    16  16  16  16   8  16
#     4  11  21  37  63  91 117 163 216 266 321 384
#     4  10  20  34  57  89 118 155 204 265 311 379
#     4  11  22  34  58  89 125 158 200 263 336 387
#     4  10  21  37  62  92 120 158 216 269 315 387
#     4  10  22  37  64  98 125 166 216 278 333 374
#     4  11  22  36  60  93 130 163 213 273 329 391
#
# _framework density 20.323581000000001
#
# number of rings (size 3 to 8) (size 9 to 14) (size 15 to 20)
#    0.000    1.455    5.455    1.636    2.545    0.727 
#    0.000    3.636    0.000    2.182    0.000    0.000 
#    0.000    0.000    0.000    0.000    0.000    0.000 
#
# Total GULP energy -122624.142341 kJ/mol
# GULP energy per Si atom -5573.824652 kJ/mol
# Density = 2.027732 g / cm^3
# Si number density = 20.323581 Si / 1000 Ang^3
#
#
#
# Elastic Constant Matrix: (Units=GPa)
#
#
# Indices 1 2 3 4 5 6 
#
# 1 139.5996 9.2977 47.0669 0.0000 0.0000 0.0000
# 2 9.2977 49.9687 31.5680 0.0000 0.0000 0.0000
# 3 47.0669 31.5680 132.1342 0.0000 0.0000 0.0000
# 4 0.0000 0.0000 0.0000 28.1635 0.0000 0.0000
# 5 0.0000 0.0000 0.0000 0.0000 24.2216 0.0000
# 6 0.0000 0.0000 0.0000 0.0000 0.0000 17.7703
#
#
#
# Elastic Compliance Matrix: (Units=1/GPa)
#
#
# Indices 1 2 3 4 5 6 
#
# 1 0.008147 0.000374 -0.002991 0.000000 0.000000 0.000000
# 2 0.000374 0.023587 -0.005768 0.000000 0.000000 0.000000
# 3 -0.002991 -0.005768 0.010012 0.000000 0.000000 0.000000
# 4 0.000000 0.000000 0.000000 0.035507 0.000000 0.000000
# 5 0.000000 0.000000 0.000000 0.000000 0.041285 0.000000
# 6 0.000000 0.000000 0.000000 0.000000 0.000000 0.056274
#
#
# Mechanical properties :
#
#
# Convention : Reuss Voigt Hill
#
# Bulk Modulus (GPa) = 40.04125 55.28529 47.66327
# Shear Modulus (GPa) = 25.01149 29.61576 27.31362
#
# Velocity S-wave (km/s) = 3.51189 3.82149 3.66995
# Velocity P-wave (km/s) = 6.01574 6.83617 6.43904
#
# Compressibility (1/GPa) = 0.02497425
#
# Stress axis : x y z
#
# Youngs Moduli (GPa) = 122.74480 42.39596 99.88323
#
# Poissons Ratio (x) = -0.01585 0.29878
# Poissons Ratio (y) = -0.04589 0.57616
# Poissons Ratio (z) = 0.36717 0.24455
#
# Static dielectric constant tensor:
#      x y z
#    x 1.778660 0.000000 0.000000 
#    y 0.000000 1.762120 0.000000 
#    z 0.000000 0.000000 1.712920 
# 
# From -- ./inp_files/37896.got.cif
#   From: 2010.05.17/outbox.cif.g08.bks.cpg/sg22_19_cif.got.tgz:37896.got - 2010.06.03 23:40:54.
