data_PCOD9326578
_publ_section_title
;
Structure prediction by ZEFSAII (Michael W. Deem and Ramdas Pophale) SiO2 
 PCOD9326578
Probable space group: F 2 2 2
;
_chemical_formula_sum "Si O2"
_cell_formula_units_Z 96
_cell_length_a 20.617727
_cell_length_b 11.273163
_cell_length_c 21.109592
_cell_angle_alpha 90.000000
_cell_angle_beta 90.000000
_cell_angle_gamma 90.000000
_cell_volume 4906.439080
_symmetry_space_group_name_H-M "F 2 2 2"
_symmetry_group_IT_number 22
_symmetry_cell_setting 'orthorhombic'
loop_
_space_group_symop_operation_xyz
x,y,z
-x,-y,z
x,-y,-z
-x,y,-z
x,1/2+y,1/2+z
-x,1/2-y,1/2+z
x,1/2-y,1/2-z
-x,1/2+y,1/2-z
1/2+x,y,1/2+z
1/2-x,-y,1/2+z
1/2+x,-y,1/2-z
1/2-x,y,1/2-z
1/2+x,1/2+y,z
1/2-x,1/2-y,z
1/2+x,1/2-y,-z
1/2-x,1/2+y,-z
loop_
_atom_site_type_symbol
_atom_site_label
_atom_site_fract_x
_atom_site_fract_y
_atom_site_fract_z
Si Si1 0.726450 0.500000 0.000000
Si Si2 0.613355 0.621860 0.282727
Si Si3 0.564950 0.618680 0.538880
Si Si4 0.221864 0.881073 0.618767
Si Si5 0.500000 0.500000 0.657051
Si Si6 0.694781 0.065382 0.297354
Si Si7 0.324182 0.796955 0.417239
O O1 0.771103 0.573890 0.047771
O O2 0.680824 0.412658 0.039257
O O3 0.621651 0.750000 0.250000
O O4 0.651994 0.621356 0.349248
O O5 0.540739 0.587990 0.299395
O O6 0.644373 0.516144 0.240957
O O7 0.583756 0.500000 0.500000
O O8 0.500000 0.663331 0.500000
O O9 0.543391 0.576229 0.608618
O O10 0.623727 0.708671 0.551912
O O11 0.250000 0.750000 0.623784
O O12 0.265171 0.971859 0.659507
O O13 0.750000 0.114342 0.250000
O O14 0.663539 0.161237 0.344738
O O15 0.250000 0.750000 0.416823
#
# Coordination Sequence:
#
# PCOD9326578 Si02
#       7
#     8  16  16  16   8  16  16
#     4  10  24  36  59 107 128 166 214 266 348 398
#     4  11  22  41  66  92 130 176 224 272 327 397
#     4   9  23  48  68  92 131 183 230 272 334 407
#     4  10  19  37  63  95 130 163 210 273 329 391
#     4  10  25  40  64  94 122 181 234 262 322 402
#     4   9  21  38  60 100 134 168 211 269 350 398
#     4  11  24  40  66 101 136 173 220 282 347 399
#
# _framework density 19.566123999999999
#
# number of rings (size 3 to 8) (size 9 to 14) (size 15 to 20)
#    0.000    2.167    1.667    0.500    8.167    5.667 
#    1.500    0.417    0.000    0.000    0.000    0.000 
#    0.000    0.000    0.000    0.000    0.000    0.000 
#
# Total GULP energy -133968.337829 kJ/mol
# GULP energy per Si atom -5582.014076 kJ/mol
# Density = 1.952159 g / cm^3
# Si number density = 19.566124 Si / 1000 Ang^3
#
#
#
# Elastic Constant Matrix: (Units=GPa)
#
#
# Indices 1 2 3 4 5 6 
#
# 1 95.4866 59.5033 42.3953 0.0000 0.0000 0.0000
# 2 59.5033 97.4254 42.9854 0.0000 0.0000 0.0000
# 3 42.3953 42.9854 105.0465 0.0000 0.0000 0.0000
# 4 0.0000 0.0000 0.0000 14.0563 0.0000 0.0000
# 5 0.0000 0.0000 0.0000 0.0000 15.1259 0.0000
# 6 0.0000 0.0000 0.0000 0.0000 0.0000 4.5152
#
#
#
# Elastic Compliance Matrix: (Units=1/GPa)
#
#
# Indices 1 2 3 4 5 6 
#
# 1 0.017820 -0.009409 -0.003342 0.000000 0.000000 0.000000
# 2 -0.009409 0.017494 -0.003361 0.000000 0.000000 0.000000
# 3 -0.003342 -0.003361 0.012244 0.000000 0.000000 0.000000
# 4 0.000000 0.000000 0.000000 0.071142 0.000000 0.000000
# 5 0.000000 0.000000 0.000000 0.000000 0.066112 0.000000
# 6 0.000000 0.000000 0.000000 0.000000 0.000000 0.221474
#
#
# Mechanical properties :
#
#
# Convention : Reuss Voigt Hill
#
# Bulk Modulus (GPa) = 65.21663 65.30293 65.25978
# Shear Modulus (GPa) = 11.27088 16.94444 14.10766
#
# Velocity S-wave (km/s) = 2.40269 2.94600 2.68810
# Velocity P-wave (km/s) = 6.41100 6.70968 6.56204
#
# Compressibility (1/GPa) = 0.01533351
#
# Stress axis : x y z
#
# Youngs Moduli (GPa) = 56.11761 57.16243 81.67536
#
# Poissons Ratio (x) = 0.53785 0.27292
# Poissons Ratio (y) = 0.52802 0.27453
# Poissons Ratio (z) = 0.18752 0.19213
#
# Static dielectric constant tensor:
#      x y z
#    x 1.702790 0.000000 0.000000 
#    y 0.000000 1.697800 0.000000 
#    z 0.000000 0.000000 1.718850 
# 
# From -- ./inp_files/44806.got.cif
#   From: 2010.05.17/outbox.cif.g08.bks.cpg/sg22_23_cif.got.tgz:44806.got - 2010.06.03 23:40:54.
