data_PCOD9326861
_publ_section_title
;
Structure prediction by ZEFSAII (Michael W. Deem and Ramdas Pophale) SiO2 
 PCOD9326861
Probable space group: F 2 2 2
;
_chemical_formula_sum "Si O2"
_cell_formula_units_Z 84
_cell_length_a 17.832135
_cell_length_b 18.003701
_cell_length_c 10.609849
_cell_angle_alpha 90.000000
_cell_angle_beta 90.000000
_cell_angle_gamma 90.000000
_cell_volume 3406.232890
_symmetry_space_group_name_H-M "F 2 2 2"
_symmetry_group_IT_number 22
_symmetry_cell_setting 'orthorhombic'
loop_
_space_group_symop_operation_xyz
x,y,z
-x,-y,z
x,-y,-z
-x,y,-z
x,1/2+y,1/2+z
-x,1/2-y,1/2+z
x,1/2-y,1/2-z
-x,1/2+y,1/2-z
1/2+x,y,1/2+z
1/2-x,-y,1/2+z
1/2+x,-y,1/2-z
1/2-x,y,1/2-z
1/2+x,1/2+y,z
1/2-x,1/2-y,z
1/2+x,1/2-y,-z
1/2-x,1/2+y,-z
loop_
_atom_site_type_symbol
_atom_site_label
_atom_site_fract_x
_atom_site_fract_y
_atom_site_fract_z
Si Si1 0.881151 0.981195 0.315205
Si Si2 0.203550 0.847462 0.069401
Si Si3 0.245359 0.000000 0.500000
Si Si4 0.000000 0.000000 0.500000
Si Si5 0.567820 0.876764 0.402274
Si Si6 0.861179 0.840924 0.657472
Si Si7 0.486386 0.250000 0.750000
O O1 0.900289 0.945601 0.181098
O O2 0.946857 0.953878 0.408138
O O3 0.804700 0.962153 0.389522
O O4 0.881427 0.071293 0.330252
O O5 0.172143 0.824639 0.203910
O O6 0.291517 0.825041 0.063379
O O7 0.209455 0.937243 0.070532
O O8 0.139424 0.837433 0.967188
O O9 0.500000 0.897514 0.500000
O O10 0.532404 0.815771 0.311351
O O11 0.933855 0.790685 0.645877
#
# Coordination Sequence:
#
# PCOD9326861 Si02
#       7
#    16  16   8   4  16  16   8
#     4  10  22  43  73 106 147 190 249 308 394 446
#     4  10  21  42  73 108 140 192 253 304 389 443
#     4   9  20  43  73 110 145 186 246 322 375 476
#     4  10  20  36  58 112 138 196 222 276 390 460
#     4  12  26  49  74 114 151 199 254 336 386 455
#     4  10  22  45  72 106 145 199 247 307 373 477
#     4  12  26  49  66 107 160 200 260 302 387 456
#
# _framework density 24.660674
#
# number of rings (size 3 to 8) (size 9 to 14) (size 15 to 20)
#    0.000    1.524    1.905    2.286    0.000    3.810 
#   20.571    0.000    4.190    0.000    0.000    0.000 
#    0.000    0.000    0.000    0.000    0.000    0.000 
#
# Total GULP energy -117322.327843 kJ/mol
# GULP energy per Si atom -5586.777516 kJ/mol
# Density = 2.460455 g / cm^3
# Si number density = 24.660674 Si / 1000 Ang^3
#
#
#
# Elastic Constant Matrix: (Units=GPa)
#
#
# Indices 1 2 3 4 5 6 
#
# 1 140.0125 53.7320 52.2480 0.0000 0.0000 0.0000
# 2 53.7320 110.6280 32.9672 0.0000 0.0000 0.0000
# 3 52.2480 32.9672 98.0370 0.0000 0.0000 0.0000
# 4 0.0000 0.0000 0.0000 37.1045 0.0000 0.0000
# 5 0.0000 0.0000 0.0000 0.0000 36.1806 0.0000
# 6 0.0000 0.0000 0.0000 0.0000 0.0000 43.7521
#
#
#
# Elastic Compliance Matrix: (Units=1/GPa)
#
#
# Indices 1 2 3 4 5 6 
#
# 1 0.010098 -0.003668 -0.004148 0.000000 0.000000 0.000000
# 2 -0.003668 0.011379 -0.001871 0.000000 0.000000 0.000000
# 3 -0.004148 -0.001871 0.013040 0.000000 0.000000 0.000000
# 4 0.000000 0.000000 0.000000 0.026951 0.000000 0.000000
# 5 0.000000 0.000000 0.000000 0.000000 0.027639 0.000000
# 6 0.000000 0.000000 0.000000 0.000000 0.000000 0.022856
#
#
# Mechanical properties :
#
#
# Convention : Reuss Voigt Hill
#
# Bulk Modulus (GPa) = 66.04455 69.61911 67.83183
# Shear Modulus (GPa) = 36.66081 37.38948 37.02515
#
# Velocity S-wave (km/s) = 3.85984 3.89801 3.87897
# Velocity P-wave (km/s) = 6.83403 6.96789 6.90128
#
# Compressibility (1/GPa) = 0.01514129
#
# Stress axis : x y z
#
# Youngs Moduli (GPa) = 99.03006 87.88338 76.68630
#
# Poissons Ratio (x) = 0.32240 0.31810
# Poissons Ratio (y) = 0.36329 0.14350
# Poissons Ratio (z) = 0.41078 0.16445
#
# Static dielectric constant tensor:
#      x y z
#    x 2.026340 0.000000 0.000000 
#    y 0.000000 2.028020 0.000000 
#    z 0.000000 0.000000 1.966660 
# 
# From -- ./inp_files/21350.got.cif
#   From: 2010.05.17/outbox.cif.g08.bks.cpg/sg22_11_cif.got.tgz:21350.got - 2010.06.03 23:40:54.
