data_PCOD9326460
_publ_section_title
;
Structure prediction by ZEFSAII (Michael W. Deem and Ramdas Pophale) SiO2 
 PCOD9326460
Probable space group: F 2 2 2
;
_chemical_formula_sum "Si O2"
_cell_formula_units_Z 116
_cell_length_a 11.162566
_cell_length_b 26.864801
_cell_length_c 20.526205
_cell_angle_alpha 90.000000
_cell_angle_beta 90.000000
_cell_angle_gamma 90.000000
_cell_volume 6155.400700
_symmetry_space_group_name_H-M "F 2 2 2"
_symmetry_group_IT_number 22
_symmetry_cell_setting 'orthorhombic'
loop_
_space_group_symop_operation_xyz
x,y,z
-x,-y,z
x,-y,-z
-x,y,-z
x,1/2+y,1/2+z
-x,1/2-y,1/2+z
x,1/2-y,1/2-z
-x,1/2+y,1/2-z
1/2+x,y,1/2+z
1/2-x,-y,1/2+z
1/2+x,-y,1/2-z
1/2-x,y,1/2-z
1/2+x,1/2+y,z
1/2-x,1/2-y,z
1/2+x,1/2-y,-z
1/2-x,1/2+y,-z
loop_
_atom_site_type_symbol
_atom_site_label
_atom_site_fract_x
_atom_site_fract_y
_atom_site_fract_z
Si Si1 0.644464 0.183080 0.571352
Si Si2 0.823922 0.053290 0.398631
Si Si3 0.572878 0.206238 0.936336
Si Si4 0.000000 0.000000 0.500000
Si Si5 0.007187 0.875759 0.663089
Si Si6 0.866003 0.080451 0.997023
Si Si7 0.133844 0.131216 0.209627
Si Si8 0.235386 0.447566 0.135476
O O1 0.570848 0.233920 0.565503
O O2 0.786020 0.193779 0.562858
O O3 0.622391 0.138683 0.520907
O O4 0.621026 0.161850 0.643658
O O5 0.706883 0.071198 0.437217
O O6 0.917513 0.033884 0.453758
O O7 0.887735 0.096409 0.358372
O O8 0.797247 0.004714 0.355341
O O9 0.521255 0.176080 0.875069
O O10 0.500000 0.188933 0.000000
O O11 0.025708 0.868575 0.739975
O O12 0.118698 0.911926 0.641403
O O13 0.791068 0.057440 0.936823
O O14 0.000000 0.059716 0.000000
O O15 0.250000 0.150374 0.250000
O O16 0.169734 0.075823 0.185648
#
# Coordination Sequence:
#
# PCOD9326460 Si02
#       8
#    16  16  16   4  16  16  16  16
#     4  10  21  38  55  84 122 164 197 253 317 371
#     4  12  21  33  60  89 119 159 206 259 324 368
#     4  11  21  33  57  91 119 150 201 252 320 378
#     4  12  20  32  54  84 120 148 188 262 314 368
#     4  11  20  35  60  88 119 153 200 265 309 363
#     4  11  21  36  57  82 123 163 202 249 312 387
#     4   9  18  36  58  79 118 161 198 251 302 369
#     4  10  19  35  55  84 116 160 197 251 311 355
#
# _framework density 18.84524
#
# number of rings (size 3 to 8) (size 9 to 14) (size 15 to 20)
#    0.000    1.379    6.897    1.241    0.966    1.655 
#    0.000    0.000   33.379    0.000    0.000    0.000 
#    0.000   13.241    0.000    0.000    0.000    0.000 
#
# Total GULP energy -161857.654604 kJ/mol
# GULP energy per Si atom -5581.298435 kJ/mol
# Density = 1.880235 g / cm^3
# Si number density = 18.845240 Si / 1000 Ang^3
#
#
#
# Elastic Constant Matrix: (Units=GPa)
#
#
# Indices 1 2 3 4 5 6 
#
# 1 72.3808 24.4565 35.2185 0.0000 0.0000 0.0000
# 2 24.4565 106.1679 28.9916 0.0000 0.0000 0.0000
# 3 35.2185 28.9916 85.8518 0.0000 0.0000 0.0000
# 4 0.0000 0.0000 0.0000 15.0167 0.0000 0.0000
# 5 0.0000 0.0000 0.0000 0.0000 27.6029 0.0000
# 6 0.0000 0.0000 0.0000 0.0000 0.0000 19.2852
#
#
#
# Elastic Compliance Matrix: (Units=1/GPa)
#
#
# Indices 1 2 3 4 5 6 
#
# 1 0.017763 -0.002316 -0.006505 0.000000 0.000000 0.000000
# 2 -0.002316 0.010678 -0.002656 0.000000 0.000000 0.000000
# 3 -0.006505 -0.002656 0.015213 0.000000 0.000000 0.000000
# 4 0.000000 0.000000 0.000000 0.066592 0.000000 0.000000
# 5 0.000000 0.000000 0.000000 0.000000 0.036228 0.000000
# 6 0.000000 0.000000 0.000000 0.000000 0.000000 0.051853
#
#
# Mechanical properties :
#
#
# Convention : Reuss Voigt Hill
#
# Bulk Modulus (GPa) = 48.30568 49.08153 48.69360
# Shear Modulus (GPa) = 21.91235 24.09654 23.00444
#
# Velocity S-wave (km/s) = 3.41361 3.57971 3.49765
# Velocity P-wave (km/s) = 6.42071 6.57167 6.49663
#
# Compressibility (1/GPa) = 0.02070150
#
# Stress axis : x y z
#
# Youngs Moduli (GPa) = 56.29558 93.65306 65.73164
#
# Poissons Ratio (x) = 0.21686 0.42759
# Poissons Ratio (y) = 0.13036 0.17458
# Poissons Ratio (z) = 0.36620 0.24873
#
# Static dielectric constant tensor:
#      x y z
#    x 1.674930 0.000000 0.000000 
#    y 0.000000 1.672150 0.000000 
#    z 0.000000 0.000000 1.654590 
# 
# From -- ./inp_files/36485.got.cif
#   From: 2010.05.17/outbox.cif.g08.bks.cpg/sg22_19_cif.got.tgz:36485.got - 2010.06.03 23:40:54.
