data_PCOD9326892
_publ_section_title
;
Structure prediction by ZEFSAII (Michael W. Deem and Ramdas Pophale) SiO2 
 PCOD9326892
Probable space group: F 2 2 2
;
_chemical_formula_sum "Si O2"
_cell_formula_units_Z 88
_cell_length_a 12.487091
_cell_length_b 13.418091
_cell_length_c 26.293619
_cell_angle_alpha 90.000000
_cell_angle_beta 90.000000
_cell_angle_gamma 90.000000
_cell_volume 4405.572729
_symmetry_space_group_name_H-M "F 2 2 2"
_symmetry_group_IT_number 22
_symmetry_cell_setting 'orthorhombic'
loop_
_space_group_symop_operation_xyz
x,y,z
-x,-y,z
x,-y,-z
-x,y,-z
x,1/2+y,1/2+z
-x,1/2-y,1/2+z
x,1/2-y,1/2-z
-x,1/2+y,1/2-z
1/2+x,y,1/2+z
1/2-x,-y,1/2+z
1/2+x,-y,1/2-z
1/2-x,y,1/2-z
1/2+x,1/2+y,z
1/2-x,1/2-y,z
1/2+x,1/2-y,-z
1/2-x,1/2+y,-z
loop_
_atom_site_type_symbol
_atom_site_label
_atom_site_fract_x
_atom_site_fract_y
_atom_site_fract_z
Si Si1 0.426063 0.596457 0.377750
Si Si2 0.500000 0.500000 0.816138
Si Si3 0.947857 0.250000 0.750000
Si Si4 0.250000 0.750000 0.563071
Si Si5 0.366019 0.588331 0.265004
Si Si6 0.879574 0.384462 0.012432
Si Si7 0.929924 0.206698 0.857636
O O1 0.500000 0.500000 0.390609
O O2 0.368040 0.565600 0.325114
O O3 0.356666 0.621832 0.427416
O O4 0.493697 0.698072 0.368969
O O5 0.397609 0.493414 0.777571
O O6 0.489654 0.600547 0.849608
O O7 0.884728 0.231873 0.801458
O O8 0.033075 0.338895 0.758203
O O9 0.198789 0.830252 0.525706
O O10 0.159719 0.703776 0.599580
O O11 0.250000 0.628929 0.250000
O O12 0.878138 0.500000 0.000000
O O13 0.000000 0.346489 0.000000
#
# Coordination Sequence:
#
# PCOD9326892 Si02
#       7
#    16   8   8   8  16  16  16
#     4  11  20  41  70  87 121 179 216 272 323 368
#     4  10  22  42  56  97 143 168 196 264 330 392
#     4   8  19  39  58  88 126 174 203 259 320 376
#     4  12  24  43  66 102 121 170 224 272 324 392
#     4  10  20  36  61  93 129 165 215 256 311 396
#     4  11  22  44  68  91 126 166 226 281 316 381
#     4  10  22  40  65  90 136 166 210 260 330 385
#
# _framework density 19.974701
#
# number of rings (size 3 to 8) (size 9 to 14) (size 15 to 20)
#    0.000    1.636    4.545    0.273    0.000    3.273 
#   13.091    0.000    0.000    0.000    0.000    0.000 
#    0.000    0.000    0.000    0.000    0.000    0.000 
#
# Total GULP energy -122563.566655 kJ/mol
# GULP energy per Si atom -5571.071212 kJ/mol
# Density = 1.992924 g / cm^3
# Si number density = 19.974701 Si / 1000 Ang^3
#
#
#
# Elastic Constant Matrix: (Units=GPa)
#
#
# Indices 1 2 3 4 5 6 
#
# 1 71.1263 31.1067 56.0508 0.0000 0.0000 0.0000
# 2 31.1067 107.8009 46.9297 0.0000 0.0000 0.0000
# 3 56.0508 46.9297 176.9153 0.0000 0.0000 0.0000
# 4 0.0000 0.0000 0.0000 22.0210 0.0000 0.0000
# 5 0.0000 0.0000 0.0000 0.0000 36.3982 0.0000
# 6 0.0000 0.0000 0.0000 0.0000 0.0000 8.1027
#
#
#
# Elastic Compliance Matrix: (Units=1/GPa)
#
#
# Indices 1 2 3 4 5 6 
#
# 1 0.019762 -0.003365 -0.005368 0.000000 0.000000 0.000000
# 2 -0.003365 0.011061 -0.001868 0.000000 0.000000 0.000000
# 3 -0.005368 -0.001868 0.007849 0.000000 0.000000 0.000000
# 4 0.000000 0.000000 0.000000 0.045411 0.000000 0.000000
# 5 0.000000 0.000000 0.000000 0.000000 0.027474 0.000000
# 6 0.000000 0.000000 0.000000 0.000000 0.000000 0.123416
#
#
# Mechanical properties :
#
#
# Convention : Reuss Voigt Hill
#
# Bulk Modulus (GPa) = 57.24696 69.33521 63.29109
# Shear Modulus (GPa) = 19.08417 28.08806 23.58611
#
# Velocity S-wave (km/s) = 3.09434 3.75398 3.44000
# Velocity P-wave (km/s) = 6.44116 7.31961 6.89439
#
# Compressibility (1/GPa) = 0.01746818
#
# Stress axis : x y z
#
# Youngs Moduli (GPa) = 50.60272 90.41115 127.41018
#
# Poissons Ratio (x) = 0.30427 0.68397
# Poissons Ratio (y) = 0.17030 0.23797
# Poissons Ratio (z) = 0.27165 0.16887
#
# Static dielectric constant tensor:
#      x y z
#    x 1.723280 0.000000 0.000000 
#    y 0.000000 1.754040 0.000000 
#    z 0.000000 0.000000 1.753740 
# 
# From -- ./inp_files/52603.got.cif
#   From: 2010.05.17/outbox.cif.g08.bks.cpg/sg22_27_cif.got.tgz:52603.got - 2010.06.03 23:40:54.
