data_PCOD9326075
_publ_section_title
;
Structure prediction by ZEFSAII (Michael W. Deem and Ramdas Pophale) SiO2 
 PCOD9326075
Probable space group: F 2 2 2
;
_chemical_formula_sum "Si O2"
_cell_formula_units_Z 88
_cell_length_a 15.579764
_cell_length_b 13.914384
_cell_length_c 17.137635
_cell_angle_alpha 90.000000
_cell_angle_beta 90.000000
_cell_angle_gamma 90.000000
_cell_volume 3715.144825
_symmetry_space_group_name_H-M "F 2 2 2"
_symmetry_group_IT_number 22
_symmetry_cell_setting 'orthorhombic'
loop_
_space_group_symop_operation_xyz
x,y,z
-x,-y,z
x,-y,-z
-x,y,-z
x,1/2+y,1/2+z
-x,1/2-y,1/2+z
x,1/2-y,1/2-z
-x,1/2+y,1/2-z
1/2+x,y,1/2+z
1/2-x,-y,1/2+z
1/2+x,-y,1/2-z
1/2-x,y,1/2-z
1/2+x,1/2+y,z
1/2-x,1/2-y,z
1/2+x,1/2-y,-z
1/2-x,1/2+y,-z
loop_
_atom_site_type_symbol
_atom_site_label
_atom_site_fract_x
_atom_site_fract_y
_atom_site_fract_z
Si Si1 0.308353 0.543615 0.184484
Si Si2 0.232045 0.345366 0.385768
Si Si3 0.500000 0.000000 0.317516
Si Si4 0.717943 0.101570 0.044137
Si Si5 0.472930 0.104742 0.908566
Si Si6 0.464518 0.689797 0.912595
O O1 0.250000 0.591404 0.250000
O O2 0.259540 0.444608 0.159566
O O3 0.402191 0.511142 0.214896
O O4 0.297239 0.606368 0.104635
O O5 0.250000 0.250000 0.337592
O O6 0.287728 0.337532 0.464984
O O7 0.134613 0.338650 0.413591
O O8 0.501271 0.099554 0.365673
O O9 0.629844 0.112291 0.091005
O O10 0.724850 0.000000 0.000000
O O11 0.515198 0.203728 0.877351
O O12 0.500000 0.000000 0.875222
O O13 0.500000 0.100972 0.000000
O O14 0.500000 0.690736 0.000000
#
# Coordination Sequence:
#
# PCOD9326075 Si02
#       6
#    16  16   8  16  16  16
#     4  10  23  41  61  87 122 169 205 256 315 380
#     4  10  20  34  60  90 122 154 205 263 312 368
#     4  10  21  42  58  84 123 158 220 254 308 390
#     4  10  19  35  58  88 122 158 208 260 310 367
#     4  10  18  31  54  90 131 157 202 258 314 369
#     4  10  19  31  57  88 123 163 199 256 317 366
#
# _framework density 23.68683
#
# number of rings (size 3 to 8) (size 9 to 14) (size 15 to 20)
#    0.000    2.000    1.818    3.545    2.545    3.273 
#    1.636    0.000    0.000    4.909    0.000    0.000 
#    0.000    0.000    0.000    0.000    0.000    0.000 
#
# Total GULP energy -122510.421550 kJ/mol
# GULP energy per Si atom -5568.655525 kJ/mol
# Density = 2.363292 g / cm^3
# Si number density = 23.686830 Si / 1000 Ang^3
#
#
#
# Elastic Constant Matrix: (Units=GPa)
#
#
# Indices 1 2 3 4 5 6 
#
# 1 89.9745 -23.3234 12.1921 0.0000 0.0000 0.0000
# 2 -23.3234 85.4077 16.0173 0.0000 0.0000 0.0000
# 3 12.1921 16.0173 52.6374 0.0000 0.0000 0.0000
# 4 0.0000 0.0000 0.0000 -9.4588 0.0000 0.0000
# 5 0.0000 0.0000 0.0000 0.0000 22.3844 0.0000
# 6 0.0000 0.0000 0.0000 0.0000 0.0000 31.2233
#
#
#
# Elastic Compliance Matrix: (Units=1/GPa)
#
#
# Indices 1 2 3 4 5 6 
#
# 1 0.012808 0.004299 -0.004275 0.000000 0.000000 0.000000
# 2 0.004299 0.013860 -0.005213 0.000000 0.000000 0.000000
# 3 -0.004275 -0.005213 0.021575 0.000000 0.000000 0.000000
# 4 0.000000 0.000000 0.000000 -0.105722 0.000000 0.000000
# 5 0.000000 0.000000 0.000000 0.000000 0.044674 0.000000
# 6 0.000000 0.000000 0.000000 0.000000 0.000000 0.032027
#
#
# Mechanical properties :
#
#
# Convention : Reuss Voigt Hill
#
# Bulk Modulus (GPa) = 26.40972 26.42128 26.41550
# Shear Modulus (GPa) = 118.42071 23.70535 71.06303
#
# Velocity S-wave (km/s) = 7.07834 3.16695 5.48327
# Velocity P-wave (km/s) = 8.83049 4.95493 7.15992
#
# Compressibility (1/GPa) = 0.03786485
#
# Stress axis : x y z
#
# Youngs Moduli (GPa) = 78.07592 72.14816 46.35092
#
# Poissons Ratio (x) = -0.31019 0.19815
# Poissons Ratio (y) = -0.33568 0.24165
# Poissons Ratio (z) = 0.33377 0.37614
#
# Static dielectric constant tensor:
#      x y z
#    x 1.981650 0.000000 0.000000 
#    y 0.000000 2.010740 0.000000 
#    z 0.000000 0.000000 1.960370 
# 
# From -- ./inp_files/31418.got.cif
#   From: 2010.05.17/outbox.cif.g08.bks.cpg/sg22_16_cif.got.tgz:31418.got - 2010.06.03 23:40:54.
