data_PCOD9326815
_publ_section_title
;
Structure prediction by ZEFSAII (Michael W. Deem and Ramdas Pophale) SiO2 
 PCOD9326815
Probable space group: F 2 2 2
;
_chemical_formula_sum "Si O2"
_cell_formula_units_Z 68
_cell_length_a 37.684607
_cell_length_b 5.189151
_cell_length_c 19.904531
_cell_angle_alpha 90.000000
_cell_angle_beta 90.000000
_cell_angle_gamma 90.000000
_cell_volume 3892.353252
_symmetry_space_group_name_H-M "F 2 2 2"
_symmetry_group_IT_number 22
_symmetry_cell_setting 'orthorhombic'
loop_
_space_group_symop_operation_xyz
x,y,z
-x,-y,z
x,-y,-z
-x,y,-z
x,1/2+y,1/2+z
-x,1/2-y,1/2+z
x,1/2-y,1/2-z
-x,1/2+y,1/2-z
1/2+x,y,1/2+z
1/2-x,-y,1/2+z
1/2+x,-y,1/2-z
1/2-x,y,1/2-z
1/2+x,1/2+y,z
1/2-x,1/2-y,z
1/2+x,1/2-y,-z
1/2-x,1/2+y,-z
loop_
_atom_site_type_symbol
_atom_site_label
_atom_site_fract_x
_atom_site_fract_y
_atom_site_fract_z
Si Si1 0.069175 0.740508 0.542028
Si Si2 0.500000 0.000000 0.500000
Si Si3 0.292602 0.250263 0.543339
Si Si4 0.338670 0.790966 0.324712
Si Si5 0.613170 0.708538 0.324586
O O1 0.085194 0.500000 0.500000
O O2 0.085911 0.757097 0.615009
O O3 0.027159 0.673287 0.542836
O O4 0.074823 0.000000 0.500000
O O5 0.302677 0.500000 0.500000
O O6 0.250000 0.250000 0.552019
O O7 0.311477 0.247667 0.614979
O O8 0.302483 0.000000 0.500000
O O9 0.322872 0.750000 0.250000
O O10 0.369124 0.572646 0.329642
O O11 0.356373 0.072503 0.329942
O O12 0.597497 0.750000 0.250000
#
# Coordination Sequence:
#
# PCOD9326815 Si02
#       5
#    16   4  16  16  16
#     4  10  20  35  58  78 106 140 176 214 265 313
#     4   8  22  36  58  76 114 132 180 216 262 304
#     4  10  21  36  54  78 110 143 181 226 266 313
#     4  10  21  36  54  79 110 142 179 222 268 317
#     4  10  21  36  55  81 111 138 175 226 268 311
#
# _framework density 17.470151000000001
#
# number of rings (size 3 to 8) (size 9 to 14) (size 15 to 20)
#    0.706    1.412    0.000    3.176    0.000    6.118 
#    0.000    0.000    5.176    8.471    0.000    0.000 
#    0.000    0.000    0.000    0.000    0.000    0.000 
#
# Total GULP energy -94793.658189 kJ/mol
# GULP energy per Si atom -5576.097541 kJ/mol
# Density = 1.743039 g / cm^3
# Si number density = 17.470151 Si / 1000 Ang^3
#
#
#
# Elastic Constant Matrix: (Units=GPa)
#
#
# Indices 1 2 3 4 5 6 
#
# 1 26.8364 4.1729 64.6852 -0.0006 0.0041 -0.0427
# 2 4.1729 97.9012 37.5326 -0.0020 0.0374 0.0229
# 3 64.6852 37.5326 190.4183 -0.0008 0.0067 -0.0201
# 4 -0.0006 -0.0020 -0.0008 23.3432 0.0153 0.0407
# 5 0.0041 0.0374 0.0067 0.0153 -42.6344 -0.2591
# 6 -0.0427 0.0229 -0.0201 0.0407 -0.2591 -145.7379
#
#
#
# Elastic Compliance Matrix: (Units=1/GPa)
#
#
# Indices 1 2 3 4 5 6 
#
# 1 0.246917 0.023400 -0.088490 0.000006 0.000031 -0.000056
# 2 0.023400 0.013267 -0.010564 0.000001 0.000012 -0.000003
# 3 -0.088490 -0.010564 0.037394 -0.000002 -0.000012 0.000019
# 4 0.000006 0.000001 -0.000002 0.042839 0.000015 0.000012
# 5 0.000031 0.000012 -0.000012 0.000015 -0.023455 0.000042
# 6 -0.000056 -0.000003 0.000019 0.000012 0.000042 -0.006862
#
#
# Mechanical properties :
#
#
# Convention : Reuss Voigt Hill
#
# Bulk Modulus (GPa) = 6.83668 58.65969 32.74818
# Shear Modulus (GPa) = 9.80077 -19.08813 -4.64368
#
# Velocity S-wave (km/s) = 2.37111 -3.30906 -1.63213
# Velocity P-wave (km/s) = 3.37907 4.36465 3.90309
#
# Compressibility (1/GPa) = 0.14626991
#
# Stress axis : x y z
#
# Youngs Moduli (GPa) = 4.04995 75.37523 26.74226
#
# Poissons Ratio (x) = -1.76380 2.36643
# Poissons Ratio (y) = -0.09477 0.28251
# Poissons Ratio (z) = 0.35838 0.79627
#
# Static dielectric constant tensor:
#      x y z
#    x 1.572900 0.000000 0.000000 
#    y 0.000000 1.602740 0.000050 
#    z 0.000000 0.000050 1.590800 
# 
# From -- ./inp_files/45948.got.cif
#   From: 2010.05.17/outbox.cif.g08.bks.cpg/sg22_23_cif.got.tgz:45948.got - 2010.06.03 23:40:54.
