data_PCOD9326496
_publ_section_title
;
Structure prediction by ZEFSAII (Michael W. Deem and Ramdas Pophale) SiO2 
 PCOD9326496
Probable space group: F 2 2 2
;
_chemical_formula_sum "Si O2"
_cell_formula_units_Z 64
_cell_length_a 17.591703
_cell_length_b 15.438072
_cell_length_c 11.207505
_cell_angle_alpha 90.000000
_cell_angle_beta 90.000000
_cell_angle_gamma 90.000000
_cell_volume 3043.756371
_symmetry_space_group_name_H-M "F 2 2 2"
_symmetry_group_IT_number 22
_symmetry_cell_setting 'orthorhombic'
loop_
_space_group_symop_operation_xyz
x,y,z
-x,-y,z
x,-y,-z
-x,y,-z
x,1/2+y,1/2+z
-x,1/2-y,1/2+z
x,1/2-y,1/2-z
-x,1/2+y,1/2-z
1/2+x,y,1/2+z
1/2-x,-y,1/2+z
1/2+x,-y,1/2-z
1/2-x,y,1/2-z
1/2+x,1/2+y,z
1/2-x,1/2-y,z
1/2+x,1/2-y,-z
1/2-x,1/2+y,-z
loop_
_atom_site_type_symbol
_atom_site_label
_atom_site_fract_x
_atom_site_fract_y
_atom_site_fract_z
Si Si1 0.428680 0.833811 0.573239
Si Si2 0.739084 0.355094 0.887340
Si Si3 0.004027 0.406282 0.200333
Si Si4 0.391516 0.137514 0.990323
O O1 0.500000 0.869883 0.500000
O O2 0.345819 0.877065 0.570766
O O3 0.458276 0.840079 0.708414
O O4 0.412552 0.736884 0.524810
O O5 0.750000 0.385368 0.750000
O O6 0.750000 0.250000 0.881989
O O7 0.804450 0.382448 0.979650
O O8 0.000000 0.500000 0.259899
O O9 0.060487 0.415565 0.087926
O O10 0.924347 0.378275 0.141328
#
# Coordination Sequence:
#
# PCOD9326496 Si02
#       4
#    16  16  16  16
#     4  11  21  35  63  90 115 151 195 247 292 339
#     4   9  17  31  57  90 113 142 199 244 275 336
#     4  11  22  36  59  88 120 151 193 239 292 352
#     4  10  19  35  63  88 109 151 205 238 274 343
#
# _framework density 21.02665
#
# number of rings (size 3 to 8) (size 9 to 14) (size 15 to 20)
#    0.000    1.750    5.000    2.250    0.000    0.500 
#    0.000    1.250   16.500    4.500    0.000    0.000 
#    0.000    0.000    0.000    0.000    0.000    0.000 
#
# Total GULP energy -89186.788573 kJ/mol
# GULP energy per Si atom -5574.174286 kJ/mol
# Density = 2.097879 g / cm^3
# Si number density = 21.026650 Si / 1000 Ang^3
#
#
#
# Elastic Constant Matrix: (Units=GPa)
#
#
# Indices 1 2 3 4 5 6 
#
# 1 228.4808 5.2803 67.6697 0.0000 0.0000 0.0000
# 2 5.2803 48.4015 14.4991 0.0000 0.0000 0.0000
# 3 67.6697 14.4991 73.1950 0.0000 0.0000 0.0000
# 4 0.0000 0.0000 0.0000 10.4371 0.0000 0.0000
# 5 0.0000 0.0000 0.0000 0.0000 38.6005 0.0000
# 6 0.0000 0.0000 0.0000 0.0000 0.0000 5.7938
#
#
#
# Elastic Compliance Matrix: (Units=1/GPa)
#
#
# Indices 1 2 3 4 5 6 
#
# 1 0.006080 0.001085 -0.005836 0.000000 0.000000 0.000000
# 2 0.001085 0.022157 -0.005392 0.000000 0.000000 0.000000
# 3 -0.005836 -0.005392 0.020126 0.000000 0.000000 0.000000
# 4 0.000000 0.000000 0.000000 0.095812 0.000000 0.000000
# 5 0.000000 0.000000 0.000000 0.000000 0.025906 0.000000
# 6 0.000000 0.000000 0.000000 0.000000 0.000000 0.172599
#
#
# Mechanical properties :
#
#
# Convention : Reuss Voigt Hill
#
# Bulk Modulus (GPa) = 35.61668 58.33062 46.97365
# Shear Modulus (GPa) = 13.42908 28.47482 20.95195
#
# Velocity S-wave (km/s) = 2.52993 3.68397 3.16008
# Velocity P-wave (km/s) = 5.05071 6.77474 5.97523
#
# Compressibility (1/GPa) = 0.02807673
#
# Stress axis : x y z
#
# Youngs Moduli (GPa) = 164.46966 45.13152 49.68744
#
# Poissons Ratio (x) = -0.04897 0.28998
# Poissons Ratio (y) = -0.17844 0.26792
# Poissons Ratio (z) = 0.95986 0.24336
#
# Static dielectric constant tensor:
#      x y z
#    x 1.791410 0.000000 0.000000 
#    y 0.000000 1.827400 0.000000 
#    z 0.000000 0.000000 1.743310 
# 
# From -- ./inp_files/19357.got.cif
#   From: 2010.05.17/outbox.cif.g08.bks.cpg/sg22_10_cif.got.tgz:19357.got - 2010.06.03 23:40:54.
