data_PCOD9326945
_publ_section_title
;
Structure prediction by ZEFSAII (Michael W. Deem and Ramdas Pophale) SiO2 
 PCOD9326945
Probable space group: F 2 2 2
;
_chemical_formula_sum "Si O2"
_cell_formula_units_Z 76
_cell_length_a 5.467564
_cell_length_b 30.313978
_cell_length_c 25.496624
_cell_angle_alpha 90.000000
_cell_angle_beta 90.000000
_cell_angle_gamma 90.000000
_cell_volume 4225.902627
_symmetry_space_group_name_H-M "F 2 2 2"
_symmetry_group_IT_number 22
_symmetry_cell_setting 'orthorhombic'
loop_
_space_group_symop_operation_xyz
x,y,z
-x,-y,z
x,-y,-z
-x,y,-z
x,1/2+y,1/2+z
-x,1/2-y,1/2+z
x,1/2-y,1/2-z
-x,1/2+y,1/2-z
1/2+x,y,1/2+z
1/2-x,-y,1/2+z
1/2+x,-y,1/2-z
1/2-x,y,1/2-z
1/2+x,1/2+y,z
1/2-x,1/2-y,z
1/2+x,1/2-y,-z
1/2-x,1/2+y,-z
loop_
_atom_site_type_symbol
_atom_site_label
_atom_site_fract_x
_atom_site_fract_y
_atom_site_fract_z
Si Si1 0.250000 0.750000 0.250000
Si Si2 0.486299 0.366457 0.314287
Si Si3 0.159012 0.044568 0.643660
Si Si4 0.015115 0.831328 0.196602
Si Si5 0.749469 0.550809 0.978376
Si Si6 0.500000 0.000000 0.718014
O O1 0.076440 0.782022 0.216062
O O2 0.494558 0.416404 0.333194
O O3 0.744138 0.346695 0.333901
O O4 0.500523 0.359643 0.251110
O O5 0.242750 0.340368 0.330454
O O6 0.241789 0.051287 0.584178
O O7 0.396231 0.038434 0.680601
O O8 0.000000 0.000000 0.644400
O O9 0.749712 0.500000 0.000000
O O10 0.500000 0.571108 0.000000
O O11 0.000000 0.571121 0.000000
O O12 0.750000 0.011499 0.750000
#
# Coordination Sequence:
#
# PCOD9326945 Si02
#       6
#     4  16  16  16  16   8
#     4   8  16  34  64  74 104 150 204 218 292 346
#     4   9  21  31  48  72 110 133 187 231 281 309
#     4  12  25  38  57  75 106 160 198 250 304 338
#     4   9  19  35  50  78 104 147 178 241 262 342
#     4  10  20  37  56  74  94 123 203 267 291 334
#     4  12  28  36  49  74 101 150 210 240 270 356
#
# _framework density 17.984324999999998
#
# number of rings (size 3 to 8) (size 9 to 14) (size 15 to 20)
#    0.000    2.105    3.158    1.263    5.895    8.421 
#    0.000    0.000    0.000    0.000    0.000    0.000 
#    0.000    0.000    0.000   60.632    0.000   37.053 
#
# Total GULP energy -105855.330873 kJ/mol
# GULP energy per Si atom -5571.333204 kJ/mol
# Density = 1.794339 g / cm^3
# Si number density = 17.984325 Si / 1000 Ang^3
#
#
#
# Elastic Constant Matrix: (Units=GPa)
#
#
# Indices 1 2 3 4 5 6 
#
# 1 209.7808 46.5631 41.0941 0.0000 0.0000 0.0000
# 2 46.5631 102.9348 23.9444 0.0000 0.0000 0.0000
# 3 41.0941 23.9444 94.3002 0.0000 0.0000 0.0000
# 4 0.0000 0.0000 0.0000 2.4701 0.0000 0.0000
# 5 0.0000 0.0000 0.0000 0.0000 20.2594 0.0000
# 6 0.0000 0.0000 0.0000 0.0000 0.0000 11.2365
#
#
#
# Elastic Compliance Matrix: (Units=1/GPa)
#
#
# Indices 1 2 3 4 5 6 
#
# 1 0.005605 -0.002091 -0.001912 0.000000 0.000000 0.000000
# 2 -0.002091 0.011105 -0.001908 0.000000 0.000000 0.000000
# 3 -0.001912 -0.001908 0.011922 0.000000 0.000000 0.000000
# 4 0.000000 0.000000 0.000000 0.404844 0.000000 0.000000
# 5 0.000000 0.000000 0.000000 0.000000 0.049360 0.000000
# 6 0.000000 0.000000 0.000000 0.000000 0.000000 0.088996
#
#
# Mechanical properties :
#
#
# Convention : Reuss Voigt Hill
#
# Bulk Modulus (GPa) = 59.48899 70.02432 64.75665
# Shear Modulus (GPa) = 8.48525 26.48747 17.48636
#
# Velocity S-wave (km/s) = 2.17448 3.84188 3.12157
# Velocity P-wave (km/s) = 6.28129 7.66165 7.00555
#
# Compressibility (1/GPa) = 0.01680983
#
# Stress axis : x y z
#
# Youngs Moduli (GPa) = 178.39624 90.05214 83.87736
#
# Poissons Ratio (x) = 0.18829 0.16036
# Poissons Ratio (y) = 0.37302 0.16008
# Poissons Ratio (z) = 0.34106 0.17186
#
# Static dielectric constant tensor:
#      x y z
#    x 1.785660 0.000000 0.000000 
#    y 0.000000 1.637050 0.000000 
#    z 0.000000 0.000000 1.632040 
# 
# From -- ./inp_files/51293.got.cif
#   From: 2010.05.17/outbox.cif.g08.bks.cpg/sg22_26_cif.got.tgz:51293.got - 2010.06.03 23:40:54.
