data_PCOD9326019
_publ_section_title
;
Structure prediction by ZEFSAII (Michael W. Deem and Ramdas Pophale) SiO2 
 PCOD9326019
Probable space group: F 2 2 2
;
_chemical_formula_sum "Si O2"
_cell_formula_units_Z 80
_cell_length_a 25.508008
_cell_length_b 8.277978
_cell_length_c 17.470229
_cell_angle_alpha 90.000000
_cell_angle_beta 90.000000
_cell_angle_gamma 90.000000
_cell_volume 3688.921471
_symmetry_space_group_name_H-M "F 2 2 2"
_symmetry_group_IT_number 22
_symmetry_cell_setting 'orthorhombic'
loop_
_space_group_symop_operation_xyz
x,y,z
-x,-y,z
x,-y,-z
-x,y,-z
x,1/2+y,1/2+z
-x,1/2-y,1/2+z
x,1/2-y,1/2-z
-x,1/2+y,1/2-z
1/2+x,y,1/2+z
1/2-x,-y,1/2+z
1/2+x,-y,1/2-z
1/2-x,y,1/2-z
1/2+x,1/2+y,z
1/2-x,1/2-y,z
1/2+x,1/2-y,-z
1/2-x,1/2+y,-z
loop_
_atom_site_type_symbol
_atom_site_label
_atom_site_fract_x
_atom_site_fract_y
_atom_site_fract_z
Si Si1 0.209271 0.029774 0.688146
Si Si2 0.250000 0.750000 0.917817
Si Si3 0.361878 0.250000 0.250000
Si Si4 0.866387 0.134259 0.910961
Si Si5 0.939330 0.180852 0.477948
Si Si6 0.875971 0.724908 0.658128
O O1 0.250000 0.091427 0.750000
O O2 0.175395 0.164187 0.646205
O O3 0.236953 0.910726 0.629616
O O4 0.172914 0.908804 0.737173
O O5 0.190365 0.801927 0.943565
O O6 0.385871 0.228446 0.333714
O O7 0.865295 0.950798 0.879329
O O8 0.907776 0.184673 0.974681
O O9 0.925064 0.206711 0.389266
O O10 0.000000 0.192517 0.500000
O O11 0.920929 0.000000 0.500000
O O12 0.884524 0.750000 0.750000
#
# Coordination Sequence:
#
# PCOD9326019 Si02
#       6
#    16   8   8  16  16  16
#     4  11  17  34  61 100 149 190 232 281 345 416
#     4  10  19  36  64 102 141 196 236 288 343 418
#     4  10  17  36  62 100 136 188 230 285 326 420
#     4  11  23  41  70 101 145 185 234 288 362 419
#     4  11  27  54  76  98 134 185 239 310 372 426
#     4  12  25  42  69 110 143 186 241 287 358 442
#
# _framework density 21.686556
#
# number of rings (size 3 to 8) (size 9 to 14) (size 15 to 20)
#    0.000    1.000    6.000    3.000    0.000    4.400 
#    1.800    8.000    0.000    0.000    0.000    0.000 
#    0.000    0.000    0.000    0.000    0.000    0.000 
#
# Total GULP energy -111384.902881 kJ/mol
# GULP energy per Si atom -5569.245144 kJ/mol
# Density = 2.163720 g / cm^3
# Si number density = 21.686556 Si / 1000 Ang^3
#
#
#
# Elastic Constant Matrix: (Units=GPa)
#
#
# Indices 1 2 3 4 5 6 
#
# 1 88.5268 49.6358 36.2205 0.0000 0.0000 0.0000
# 2 49.6358 161.2123 39.8143 0.0000 0.0000 0.0000
# 3 36.2205 39.8143 93.9069 0.0000 0.0000 0.0000
# 4 0.0000 0.0000 0.0000 29.4992 0.0000 0.0000
# 5 0.0000 0.0000 0.0000 0.0000 37.8480 0.0000
# 6 0.0000 0.0000 0.0000 0.0000 0.0000 24.6752
#
#
#
# Elastic Compliance Matrix: (Units=1/GPa)
#
#
# Indices 1 2 3 4 5 6 
#
# 1 0.015057 -0.003576 -0.004291 0.000000 0.000000 0.000000
# 2 -0.003576 0.007778 -0.001918 0.000000 0.000000 0.000000
# 3 -0.004291 -0.001918 0.013117 0.000000 0.000000 0.000000
# 4 0.000000 0.000000 0.000000 0.033899 0.000000 0.000000
# 5 0.000000 0.000000 0.000000 0.000000 0.026421 0.000000
# 6 0.000000 0.000000 0.000000 0.000000 0.000000 0.040527
#
#
# Mechanical properties :
#
#
# Convention : Reuss Voigt Hill
#
# Bulk Modulus (GPa) = 61.04782 66.10968 63.57875
# Shear Modulus (GPa) = 30.89645 32.93617 31.91631
#
# Velocity S-wave (km/s) = 3.77859 3.90133 3.84045
# Velocity P-wave (km/s) = 6.87373 7.13051 7.00330
#
# Compressibility (1/GPa) = 0.01638060
#
# Stress axis : x y z
#
# Youngs Moduli (GPa) = 66.41495 128.57128 76.23484
#
# Poissons Ratio (x) = 0.45978 0.32715
# Poissons Ratio (y) = 0.23750 0.14624
# Poissons Ratio (z) = 0.28501 0.24664
#
# Static dielectric constant tensor:
#      x y z
#    x 1.786250 0.000000 0.000000 
#    y 0.000000 1.865180 0.000000 
#    z 0.000000 0.000000 1.849320 
# 
# From -- ./inp_files/39906.got.cif
#   From: 2010.05.17/outbox.cif.g08.bks.cpg/sg22_20_cif.got.tgz:39906.got - 2010.06.03 23:40:54.
