data_PCOD9326560
_publ_section_title
;
Structure prediction by ZEFSAII (Michael W. Deem and Ramdas Pophale) SiO2 
 PCOD9326560
Probable space group: F 2 2 2
;
_chemical_formula_sum "Si O2"
_cell_formula_units_Z 80
_cell_length_a 27.255629
_cell_length_b 23.549353
_cell_length_c 6.442271
_cell_angle_alpha 90.000000
_cell_angle_beta 90.000000
_cell_angle_gamma 90.000000
_cell_volume 4134.987287
_symmetry_space_group_name_H-M "F 2 2 2"
_symmetry_group_IT_number 22
_symmetry_cell_setting 'orthorhombic'
loop_
_space_group_symop_operation_xyz
x,y,z
-x,-y,z
x,-y,-z
-x,y,-z
x,1/2+y,1/2+z
-x,1/2-y,1/2+z
x,1/2-y,1/2-z
-x,1/2+y,1/2-z
1/2+x,y,1/2+z
1/2-x,-y,1/2+z
1/2+x,-y,1/2-z
1/2-x,y,1/2-z
1/2+x,1/2+y,z
1/2-x,1/2-y,z
1/2+x,1/2-y,-z
1/2-x,1/2+y,-z
loop_
_atom_site_type_symbol
_atom_site_label
_atom_site_fract_x
_atom_site_fract_y
_atom_site_fract_z
Si Si1 0.634041 0.372322 0.858356
Si Si2 0.946028 0.328518 0.408280
Si Si3 0.204532 0.062737 0.408319
Si Si4 0.398135 0.294874 0.521472
Si Si5 0.304024 0.337595 0.749005
O O1 0.656428 0.423859 0.729091
O O2 0.615742 0.325652 0.691169
O O3 0.586332 0.379574 0.000338
O O4 0.675861 0.351548 0.020677
O O5 0.938470 0.328313 0.160478
O O6 0.920069 0.268522 0.476137
O O7 0.000000 0.328538 0.500000
O O8 0.250000 0.071886 0.250000
O O9 0.202634 0.106807 0.600888
O O10 0.206811 0.000000 0.500000
O O11 0.346458 0.301094 0.641158
O O12 0.250000 0.311883 0.750000
#
# Coordination Sequence:
#
# PCOD9326560 Si02
#       5
#    16  16  16  16  16
#     4  10  21  36  55  83 126 153 194 262 313 368
#     4  10  21  37  59  84 116 159 212 261 307 369
#     4  11  22  35  60  90 116 154 203 251 309 381
#     4   9  21  33  54  88 115 157 213 253 306 369
#     4  10  19  37  56  80 125 162 196 247 314 380
#
# _framework density 19.347097999999999
#
# number of rings (size 3 to 8) (size 9 to 14) (size 15 to 20)
#    0.000    2.000    2.000    1.200    5.600    0.000 
#    0.000    8.000    4.400    0.000    0.000   40.600 
#    0.000    0.000    0.000    0.000    0.000    0.000 
#
# Total GULP energy -111387.125976 kJ/mol
# GULP energy per Si atom -5569.356299 kJ/mol
# Density = 1.930306 g / cm^3
# Si number density = 19.347098 Si / 1000 Ang^3
#
#
#
# Elastic Constant Matrix: (Units=GPa)
#
#
# Indices 1 2 3 4 5 6 
#
# 1 148.4945 27.4858 42.9757 0.0063 0.0023 0.0010
# 2 27.4858 62.0243 30.9395 -0.0192 0.0019 -0.0004
# 3 42.9757 30.9395 133.3660 -0.0902 0.0327 0.0233
# 4 0.0063 -0.0192 -0.0902 31.8959 0.0222 0.0196
# 5 0.0023 0.0019 0.0327 0.0222 32.8162 -0.0061
# 6 0.0010 -0.0004 0.0233 0.0196 -0.0061 11.8227
#
#
#
# Elastic Compliance Matrix: (Units=1/GPa)
#
#
# Indices 1 2 3 4 5 6 
#
# 1 0.007749 -0.002475 -0.001923 -0.000008 0.000002 0.000003
# 2 -0.002475 0.019023 -0.003616 0.000002 0.000003 0.000008
# 3 -0.001923 -0.003616 0.008957 0.000024 -0.000009 -0.000018
# 4 -0.000008 0.000002 0.000024 0.031352 -0.000021 -0.000052
# 5 0.000002 0.000003 -0.000009 -0.000021 0.030473 0.000016
# 6 0.000003 0.000008 -0.000018 -0.000052 0.000016 0.084583
#
#
# Mechanical properties :
#
#
# Convention : Reuss Voigt Hill
#
# Bulk Modulus (GPa) = 50.75649 60.74296 55.74972
# Shear Modulus (GPa) = 24.42243 31.47256 27.94749
#
# Velocity S-wave (km/s) = 3.55678 4.03765 3.80482
# Velocity P-wave (km/s) = 6.56957 7.29393 6.94121
#
# Compressibility (1/GPa) = 0.01970192
#
# Stress axis : x y z
#
# Youngs Moduli (GPa) = 129.05212 52.56807 111.64939
#
# Poissons Ratio (x) = 0.13009 0.21469
# Poissons Ratio (y) = 0.31936 0.40369
# Poissons Ratio (z) = 0.24815 0.19007
#
# Static dielectric constant tensor:
#      x y z
#    x 1.688740 0.000000 0.000000 
#    y 0.000000 1.675190 -0.000020 
#    z 0.000000 -0.000020 1.707780 
# 
# From -- ./inp_files/5599.got.cif
#   From: 2010.05.17/outbox.cif.g08.bks.cpg/sg22_3_cif.got.tgz:5599.got - 2010.06.03 23:40:54.
