data_PCOD9326279
_publ_section_title
;
Structure prediction by ZEFSAII (Michael W. Deem and Ramdas Pophale) SiO2 
 PCOD9326279
Probable space group: F 2 2 2
;
_chemical_formula_sum "Si O2"
_cell_formula_units_Z 128
_cell_length_a 24.294803
_cell_length_b 25.182785
_cell_length_c 12.190581
_cell_angle_alpha 90.000000
_cell_angle_beta 90.000000
_cell_angle_gamma 90.000000
_cell_volume 7458.329121
_symmetry_space_group_name_H-M "F 2 2 2"
_symmetry_group_IT_number 22
_symmetry_cell_setting 'orthorhombic'
loop_
_space_group_symop_operation_xyz
x,y,z
-x,-y,z
x,-y,-z
-x,y,-z
x,1/2+y,1/2+z
-x,1/2-y,1/2+z
x,1/2-y,1/2-z
-x,1/2+y,1/2-z
1/2+x,y,1/2+z
1/2-x,-y,1/2+z
1/2+x,-y,1/2-z
1/2-x,y,1/2-z
1/2+x,1/2+y,z
1/2-x,1/2-y,z
1/2+x,1/2-y,-z
1/2-x,1/2+y,-z
loop_
_atom_site_type_symbol
_atom_site_label
_atom_site_fract_x
_atom_site_fract_y
_atom_site_fract_z
Si Si1 0.387715 0.706180 0.674964
Si Si2 0.885879 0.300819 0.180370
Si Si3 0.786748 0.936488 0.000264
Si Si4 0.662154 0.440780 0.546328
Si Si5 0.187946 0.758815 0.008831
Si Si6 0.560548 0.634202 0.500635
Si Si7 0.695699 0.143003 0.327372
Si Si8 0.685192 0.388853 0.769754
O O1 0.415830 0.750000 0.750000
O O2 0.350578 0.741677 0.591807
O O3 0.429384 0.671160 0.604892
O O4 0.349504 0.664109 0.741503
O O5 0.904901 0.250000 0.250000
O O6 0.857812 0.344321 0.256740
O O7 0.835587 0.279234 0.104667
O O8 0.930961 0.327328 0.104173
O O9 0.722038 0.920223 0.007390
O O10 0.817192 0.911673 0.106637
O O11 0.806269 0.913704 0.884744
O O12 0.789647 0.000000 0.000000
O O13 0.657019 0.500000 0.500000
O O14 0.611379 0.406512 0.502321
O O15 0.665916 0.432139 0.678214
O O16 0.250000 0.750000 0.972534
O O17 0.191709 0.815557 0.070334
O O18 0.500000 0.609918 0.500000
O O19 0.750000 0.149628 0.250000
O O20 0.750000 0.377865 0.750000
#
# Coordination Sequence:
#
# PCOD9326279 Si02
#       8
#    16  16  16  16  16  16  16  16
#     4  10  21  32  49  74 103 137 167 200 247 305
#     4   9  19  32  47  75 102 131 166 204 245 295
#     4  10  21  33  49  74 106 142 168 196 250 311
#     4   9  19  35  53  73  99 128 168 214 251 300
#     4  10  19  28  46  75 106 132 167 198 242 296
#     4  10  21  37  53  71  96 127 171 221 258 290
#     4  11  19  29  49  71 102 139 170 205 240 299
#     4   9  19  32  47  73 108 138 166 198 239 304
#
# _framework density 17.162019999999998
#
# number of rings (size 3 to 8) (size 9 to 14) (size 15 to 20)
#    0.000    2.250    1.250    1.500    7.000    4.250 
#    0.000    0.000    0.000    0.000    0.000    0.000 
#    0.000    4.000    0.000    0.000    0.000    0.000 
#
# Total GULP energy -178208.215666 kJ/mol
# GULP energy per Si atom -5569.006740 kJ/mol
# Density = 1.712296 g / cm^3
# Si number density = 17.162020 Si / 1000 Ang^3
#
#
#
# Elastic Constant Matrix: (Units=GPa)
#
#
# Indices 1 2 3 4 5 6 
#
# 1 48.8815 26.3334 22.3359 0.0000 0.0000 0.0000
# 2 26.3334 76.9353 44.1472 0.0000 0.0000 0.0000
# 3 22.3359 44.1472 70.4726 0.0000 0.0000 0.0000
# 4 0.0000 0.0000 0.0000 32.7567 0.0000 0.0000
# 5 0.0000 0.0000 0.0000 0.0000 2.5048 0.0000
# 6 0.0000 0.0000 0.0000 0.0000 0.0000 11.6138
#
#
#
# Elastic Compliance Matrix: (Units=1/GPa)
#
#
# Indices 1 2 3 4 5 6 
#
# 1 0.025832 -0.006469 -0.004135 0.000000 0.000000 0.000000
# 2 -0.006469 0.021913 -0.011677 0.000000 0.000000 0.000000
# 3 -0.004135 -0.011677 0.022815 0.000000 0.000000 0.000000
# 4 0.000000 0.000000 0.000000 0.030528 0.000000 0.000000
# 5 0.000000 0.000000 0.000000 0.000000 0.399231 0.000000
# 6 0.000000 0.000000 0.000000 0.000000 0.000000 0.086104
#
#
# Mechanical properties :
#
#
# Convention : Reuss Voigt Hill
#
# Bulk Modulus (GPa) = 38.46355 42.43583 40.44969
# Shear Modulus (GPa) = 7.81677 16.27326 12.04502
#
# Velocity S-wave (km/s) = 2.13649 3.08265 2.65210
# Velocity P-wave (km/s) = 5.34292 6.11969 5.74445
#
# Compressibility (1/GPa) = 0.02599864
#
# Stress axis : x y z
#
# Youngs Moduli (GPa) = 38.71158 45.63603 43.83051
#
# Poissons Ratio (x) = 0.29523 0.18123
# Poissons Ratio (y) = 0.25043 0.51179
# Poissons Ratio (z) = 0.16006 0.53287
#
# Static dielectric constant tensor:
#      x y z
#    x 1.549160 0.000000 0.000000 
#    y 0.000000 1.605240 0.000000 
#    z 0.000000 0.000000 1.632170 
# 
# From -- ./inp_files/24090.got.cif
#   From: 2010.05.17/outbox.cif.g08.bks.cpg/sg22_13_cif.got.tgz:24090.got - 2010.06.03 23:40:54.
