data_PCOD9326116
_publ_section_title
;
Structure prediction by ZEFSAII (Michael W. Deem and Ramdas Pophale) SiO2 
 PCOD9326116
Probable space group: F 2 2 2
;
_chemical_formula_sum "Si O2"
_cell_formula_units_Z 104
_cell_length_a 11.270883
_cell_length_b 16.739868
_cell_length_c 28.666994
_cell_angle_alpha 90.000000
_cell_angle_beta 90.000000
_cell_angle_gamma 90.000000
_cell_volume 5408.690444
_symmetry_space_group_name_H-M "F 2 2 2"
_symmetry_group_IT_number 22
_symmetry_cell_setting 'orthorhombic'
loop_
_space_group_symop_operation_xyz
x,y,z
-x,-y,z
x,-y,-z
-x,y,-z
x,1/2+y,1/2+z
-x,1/2-y,1/2+z
x,1/2-y,1/2-z
-x,1/2+y,1/2-z
1/2+x,y,1/2+z
1/2-x,-y,1/2+z
1/2+x,-y,1/2-z
1/2-x,y,1/2-z
1/2+x,1/2+y,z
1/2-x,1/2-y,z
1/2+x,1/2-y,-z
1/2-x,1/2+y,-z
loop_
_atom_site_type_symbol
_atom_site_label
_atom_site_fract_x
_atom_site_fract_y
_atom_site_fract_z
Si Si1 0.226255 0.569048 0.828849
Si Si2 0.250000 0.750000 0.389448
Si Si3 0.493553 0.252518 0.946023
Si Si4 0.372999 0.799615 0.637341
Si Si5 0.332769 0.893086 0.170949
Si Si6 0.537737 0.418687 0.592328
Si Si7 0.963414 0.185458 0.710992
O O1 0.346249 0.619094 0.835218
O O2 0.230888 0.475931 0.816995
O O3 0.161059 0.574834 0.879606
O O4 0.138424 0.618453 0.794583
O O5 0.363699 0.755770 0.423022
O O6 0.255979 0.672859 0.355680
O O7 0.578153 0.307795 0.914394
O O8 0.535713 0.160872 0.937920
O O9 0.500000 0.272845 0.000000
O O10 0.250000 0.750000 0.637435
O O11 0.461700 0.740324 0.664333
O O12 0.438377 0.913191 0.133578
O O13 0.407865 0.855131 0.213411
O O14 0.500000 0.500000 0.566637
O O15 0.935549 0.250000 0.750000
#
# Coordination Sequence:
#
# PCOD9326116 Si02
#       7
#    16   8  16  16  16  16  16
#     4   9  17  31  60  82 113 150 195 245 297 350
#     4  10  20  38  59  78 114 160 205 238 302 364
#     4  11  21  32  55  84 116 156 200 248 302 371
#     4  10  18  34  54  85 114 148 193 249 304 359
#     4   9  17  35  58  78 108 159 196 236 286 359
#     4   8  14  29  50  79 108 140 188 246 293 328
#     4  10  18  32  61  87 115 145 190 253 310 345
#
# _framework density 19.228314999999998
#
# number of rings (size 3 to 8) (size 9 to 14) (size 15 to 20)
#    0.000    2.462    6.154    1.385    1.077    3.077 
#    0.000    1.154   10.154    1.846    0.000    0.000 
#    0.000    0.000    0.000    0.000    0.000    0.000 
#
# Total GULP energy -144891.977395 kJ/mol
# GULP energy per Si atom -5572.768361 kJ/mol
# Density = 1.918455 g / cm^3
# Si number density = 19.228315 Si / 1000 Ang^3
#
#
#
# Elastic Constant Matrix: (Units=GPa)
#
#
# Indices 1 2 3 4 5 6 
#
# 1 32.3981 31.2072 -3.1045 0.0000 0.0000 0.0000
# 2 31.2072 140.0127 25.6327 0.0000 0.0000 0.0000
# 3 -3.1045 25.6327 54.7181 0.0000 0.0000 0.0000
# 4 0.0000 0.0000 0.0000 19.6642 0.0000 0.0000
# 5 0.0000 0.0000 0.0000 0.0000 12.9162 0.0000
# 6 0.0000 0.0000 0.0000 0.0000 0.0000 29.0734
#
#
#
# Elastic Compliance Matrix: (Units=1/GPa)
#
#
# Indices 1 2 3 4 5 6 
#
# 1 0.041862 -0.010681 0.007379 0.000000 0.000000 0.000000
# 2 -0.010681 0.010538 -0.005542 0.000000 0.000000 0.000000
# 3 0.007379 -0.005542 0.021290 0.000000 0.000000 0.000000
# 4 0.000000 0.000000 0.000000 0.050854 0.000000 0.000000
# 5 0.000000 0.000000 0.000000 0.000000 0.077422 0.000000
# 6 0.000000 0.000000 0.000000 0.000000 0.000000 0.034396
#
#
# Mechanical properties :
#
#
# Convention : Reuss Voigt Hill
#
# Bulk Modulus (GPa) = 17.85715 37.17774 27.51745
# Shear Modulus (GPa) = 18.33396 23.89034 21.11215
#
# Velocity S-wave (km/s) = 3.09121 3.52867 3.31716
# Velocity P-wave (km/s) = 4.69551 5.99824 5.38641
#
# Compressibility (1/GPa) = 0.05599997
#
# Stress axis : x y z
#
# Youngs Moduli (GPa) = 23.88810 94.89799 46.96939
#
# Poissons Ratio (x) = 1.01364 -0.34658
# Poissons Ratio (y) = 0.25516 0.26032
# Poissons Ratio (z) = -0.17626 0.52596
#
# Static dielectric constant tensor:
#      x y z
#    x 1.693870 0.000000 0.000000 
#    y 0.000000 1.727270 0.000000 
#    z 0.000000 0.000000 1.699830 
# 
# From -- ./inp_files/56163.got.cif
#   From: 2010.05.17/outbox.cif.g08.bks.cpg/sg22_29_cif.got.tgz:56163.got - 2010.06.03 23:40:54.
