data_PCOD9326967
_publ_section_title
;
Structure prediction by ZEFSAII (Michael W. Deem and Ramdas Pophale) SiO2 
 PCOD9326967
Probable space group: F 2 2 2
;
_chemical_formula_sum "Si O2"
_cell_formula_units_Z 88
_cell_length_a 23.248602
_cell_length_b 9.881519
_cell_length_c 20.677384
_cell_angle_alpha 90.000000
_cell_angle_beta 90.000000
_cell_angle_gamma 90.000000
_cell_volume 4750.246492
_symmetry_space_group_name_H-M "F 2 2 2"
_symmetry_group_IT_number 22
_symmetry_cell_setting 'orthorhombic'
loop_
_space_group_symop_operation_xyz
x,y,z
-x,-y,z
x,-y,-z
-x,y,-z
x,1/2+y,1/2+z
-x,1/2-y,1/2+z
x,1/2-y,1/2-z
-x,1/2+y,1/2-z
1/2+x,y,1/2+z
1/2-x,-y,1/2+z
1/2+x,-y,1/2-z
1/2-x,y,1/2-z
1/2+x,1/2+y,z
1/2-x,1/2-y,z
1/2+x,1/2-y,-z
1/2-x,1/2+y,-z
loop_
_atom_site_type_symbol
_atom_site_label
_atom_site_fract_x
_atom_site_fract_y
_atom_site_fract_z
Si Si1 0.250000 0.250000 0.750000
Si Si2 0.210088 0.641198 0.498137
Si Si3 0.161771 0.654180 0.357732
Si Si4 0.937035 0.335241 0.815926
Si Si5 0.570276 0.849143 0.812570
Si Si6 0.101511 0.609985 0.589340
Si Si7 0.000000 0.500000 0.500000
O O1 0.206304 0.334186 0.702738
O O2 0.242545 0.500000 0.500000
O O3 0.250000 0.750000 0.530004
O O4 0.196540 0.667797 0.423862
O O5 0.151270 0.627476 0.536741
O O6 0.117985 0.780058 0.356478
O O7 0.123199 0.516855 0.365832
O O8 0.933085 0.250000 0.750000
O O9 0.918366 0.490768 0.803761
O O10 0.905001 0.246102 0.869321
O O11 0.004498 0.339008 0.835517
O O12 0.573158 0.750000 0.750000
O O13 0.043250 0.577897 0.549233
#
# Coordination Sequence:
#
# PCOD9326967 Si02
#       7
#     4  16  16  16  16  16   4
#     4  12  24  36  72  94 124 168 232 280 334 396
#     4  10  22  41  61  86 125 172 218 264 317 388
#     4  11  21  40  62  92 122 166 220 266 326 400
#     4  10  22  37  60  96 126 163 204 271 332 394
#     4  10  20  37  60  88 127 161 202 256 336 397
#     4  11  23  41  65  95 129 170 228 271 337 397
#     4  12  20  40  76  94 128 188 220 278 340 416
#
# _framework density 18.525354
#
# number of rings (size 3 to 8) (size 9 to 14) (size 15 to 20)
#    0.000    1.455    4.545    2.182    0.000    4.364 
#    0.000    0.000    0.000    1.091    0.000    0.000 
#    0.000    0.000    0.000    0.000    0.000    0.000 
#
# Total GULP energy -122521.996175 kJ/mol
# GULP energy per Si atom -5569.181644 kJ/mol
# Density = 1.848319 g / cm^3
# Si number density = 18.525354 Si / 1000 Ang^3
#
#
#
# Elastic Constant Matrix: (Units=GPa)
#
#
# Indices 1 2 3 4 5 6 
#
# 1 71.5593 65.3951 30.6967 0.0000 0.0000 0.0000
# 2 65.3951 168.2759 48.4897 0.0000 0.0000 0.0000
# 3 30.6967 48.4897 87.6897 0.0000 0.0000 0.0000
# 4 0.0000 0.0000 0.0000 31.7549 0.0000 0.0000
# 5 0.0000 0.0000 0.0000 0.0000 2.6045 0.0000
# 6 0.0000 0.0000 0.0000 0.0000 0.0000 -15.7225
#
#
#
# Elastic Compliance Matrix: (Units=1/GPa)
#
#
# Indices 1 2 3 4 5 6 
#
# 1 0.022604 -0.007737 -0.003634 0.000000 0.000000 0.000000
# 2 -0.007737 0.009717 -0.002665 0.000000 0.000000 0.000000
# 3 -0.003634 -0.002665 0.014150 0.000000 0.000000 0.000000
# 4 0.000000 0.000000 0.000000 0.031491 0.000000 0.000000
# 5 0.000000 0.000000 0.000000 0.000000 0.383945 0.000000
# 6 0.000000 0.000000 0.000000 0.000000 0.000000 -0.063603
#
#
# Mechanical properties :
#
#
# Convention : Reuss Voigt Hill
#
# Bulk Modulus (GPa) = 54.35298 68.52088 61.43693
# Shear Modulus (GPa) = 11.56045 15.92362 13.74203
#
# Velocity S-wave (km/s) = 2.50078 2.93500 2.72655
# Velocity P-wave (km/s) = 6.14345 6.96804 6.56870
#
# Compressibility (1/GPa) = 0.01839826
#
# Stress axis : x y z
#
# Youngs Moduli (GPa) = 44.23985 102.90915 70.67269
#
# Poissons Ratio (x) = 0.79622 0.25685
# Poissons Ratio (y) = 0.34229 0.18834
# Poissons Ratio (z) = 0.16079 0.27425
#
# Static dielectric constant tensor:
#      x y z
#    x 1.642450 0.000000 0.000000 
#    y 0.000000 1.674760 0.000000 
#    z 0.000000 0.000000 1.695560 
# 
# From -- ./inp_files/45253.got.cif
#   From: 2010.05.17/outbox.cif.g08.bks.cpg/sg22_23_cif.got.tgz:45253.got - 2010.06.03 23:40:54.
