data_PCOD9326211
_publ_section_title
;
Structure prediction by ZEFSAII (Michael W. Deem and Ramdas Pophale) SiO2 
 PCOD9326211
Probable space group: F 2 2 2
;
_chemical_formula_sum "Si O2"
_cell_formula_units_Z 104
_cell_length_a 20.745194
_cell_length_b 22.523952
_cell_length_c 9.839429
_cell_angle_alpha 90.000000
_cell_angle_beta 90.000000
_cell_angle_gamma 90.000000
_cell_volume 4597.608531
_symmetry_space_group_name_H-M "F 2 2 2"
_symmetry_group_IT_number 22
_symmetry_cell_setting 'orthorhombic'
loop_
_space_group_symop_operation_xyz
x,y,z
-x,-y,z
x,-y,-z
-x,y,-z
x,1/2+y,1/2+z
-x,1/2-y,1/2+z
x,1/2-y,1/2-z
-x,1/2+y,1/2-z
1/2+x,y,1/2+z
1/2-x,-y,1/2+z
1/2+x,-y,1/2-z
1/2-x,y,1/2-z
1/2+x,1/2+y,z
1/2-x,1/2-y,z
1/2+x,1/2-y,-z
1/2-x,1/2+y,-z
loop_
_atom_site_type_symbol
_atom_site_label
_atom_site_fract_x
_atom_site_fract_y
_atom_site_fract_z
Si Si1 0.674494 0.932158 0.521966
Si Si2 0.300358 0.130376 0.970834
Si Si3 0.899023 0.225516 0.400412
Si Si4 0.501007 0.630934 0.295982
Si Si5 0.000000 0.815108 0.000000
Si Si6 0.363735 0.910157 0.782780
Si Si7 0.394526 0.046074 0.797721
O O1 0.727958 0.885234 0.571851
O O2 0.646565 0.910494 0.378463
O O3 0.622339 0.939766 0.640277
O O4 0.701568 0.000000 0.500000
O O5 0.304205 0.111401 0.128486
O O6 0.334274 0.193953 0.953142
O O7 0.346331 0.085544 0.887428
O O8 0.884102 0.250000 0.250000
O O9 0.956226 0.178088 0.371524
O O10 0.934950 0.274849 0.491487
O O11 0.575733 0.629101 0.330847
O O12 0.466638 0.568292 0.322096
O O13 0.499376 0.647231 0.136920
O O14 0.380608 0.977656 0.820900
#
# Coordination Sequence:
#
# PCOD9326211 Si02
#       7
#    16  16  16  16   8  16  16
#     4  10  21  36  55  82 119 159 191 220 267 342
#     4  11  21  36  58  83 112 152 193 231 280 333
#     4   9  20  36  57  84 108 143 194 244 290 333
#     4  10  20  34  57  83 111 145 184 232 288 340
#     4  10  18  36  57  76 107 146 192 236 282 340
#     4  11  21  34  56  89 122 148 179 227 283 340
#     4  10  21  36  56  84 119 154 187 222 271 344
#
# _framework density 22.620456000000001
#
# number of rings (size 3 to 8) (size 9 to 14) (size 15 to 20)
#    0.000    1.846    0.000    4.615    0.000    4.308 
#    0.000    6.154    0.000   25.846    0.000   10.769 
#    0.000    0.000    0.000    0.000    0.000    0.000 
#
# Total GULP energy -145336.596807 kJ/mol
# GULP energy per Si atom -5589.869108 kJ/mol
# Density = 2.256897 g / cm^3
# Si number density = 22.620456 Si / 1000 Ang^3
#
#
#
# Elastic Constant Matrix: (Units=GPa)
#
#
# Indices 1 2 3 4 5 6 
#
# 1 58.5963 15.2651 -13.5962 0.0000 0.0000 0.0000
# 2 15.2651 53.0480 7.8939 0.0000 0.0000 0.0000
# 3 -13.5962 7.8939 85.1832 0.0000 0.0000 0.0000
# 4 0.0000 0.0000 0.0000 21.2569 0.0000 0.0000
# 5 0.0000 0.0000 0.0000 0.0000 21.3343 0.0000
# 6 0.0000 0.0000 0.0000 0.0000 0.0000 27.6416
#
#
#
# Elastic Compliance Matrix: (Units=1/GPa)
#
#
# Indices 1 2 3 4 5 6 
#
# 1 0.019529 -0.006169 0.003689 0.000000 0.000000 0.000000
# 2 -0.006169 0.021063 -0.002936 0.000000 0.000000 0.000000
# 3 0.003689 -0.002936 0.012600 0.000000 0.000000 0.000000
# 4 0.000000 0.000000 0.000000 0.047044 0.000000 0.000000
# 5 0.000000 0.000000 0.000000 0.000000 0.046873 0.000000
# 6 0.000000 0.000000 0.000000 0.000000 0.000000 0.036177
#
#
# Mechanical properties :
#
#
# Convention : Reuss Voigt Hill
#
# Bulk Modulus (GPa) = 23.60757 23.99480 23.80118
# Shear Modulus (GPa) = 24.01097 26.53087 25.27092
#
# Velocity S-wave (km/s) = 3.26156 3.42844 3.34604
# Velocity P-wave (km/s) = 4.96414 5.12863 5.04706
#
# Compressibility (1/GPa) = 0.04235930
#
# Stress axis : x y z
#
# Youngs Moduli (GPa) = 51.20643 47.47688 79.36337
#
# Poissons Ratio (x) = 0.29286 -0.29274
# Poissons Ratio (y) = 0.31587 0.23305
# Poissons Ratio (z) = -0.18888 0.13941
#
# Static dielectric constant tensor:
#      x y z
#    x 1.814890 0.000000 0.000000 
#    y 0.000000 1.860690 0.000000 
#    z 0.000000 0.000000 1.841120 
# 
# From -- ./inp_files/12956.got.cif
#   From: 2010.05.17/outbox.cif.g08.bks.cpg/sg22_7_cif.got.tgz:12956.got - 2010.06.03 23:40:54.
