data_PCOD9326648
_publ_section_title
;
Structure prediction by ZEFSAII (Michael W. Deem and Ramdas Pophale) SiO2 
 PCOD9326648
Probable space group: F 2 2 2
;
_chemical_formula_sum "Si O2"
_cell_formula_units_Z 104
_cell_length_a 22.209016
_cell_length_b 13.386029
_cell_length_c 15.927445
_cell_angle_alpha 90.000000
_cell_angle_beta 90.000000
_cell_angle_gamma 90.000000
_cell_volume 4735.078601
_symmetry_space_group_name_H-M "F 2 2 2"
_symmetry_group_IT_number 22
_symmetry_cell_setting 'orthorhombic'
loop_
_space_group_symop_operation_xyz
x,y,z
-x,-y,z
x,-y,-z
-x,y,-z
x,1/2+y,1/2+z
-x,1/2-y,1/2+z
x,1/2-y,1/2-z
-x,1/2+y,1/2-z
1/2+x,y,1/2+z
1/2-x,-y,1/2+z
1/2+x,-y,1/2-z
1/2-x,y,1/2-z
1/2+x,1/2+y,z
1/2-x,1/2-y,z
1/2+x,1/2-y,-z
1/2-x,1/2+y,-z
loop_
_atom_site_type_symbol
_atom_site_label
_atom_site_fract_x
_atom_site_fract_y
_atom_site_fract_z
Si Si1 0.492789 0.817119 0.904449
Si Si2 0.371100 0.773486 0.649976
Si Si3 0.285506 0.841438 0.108578
Si Si4 0.250000 0.505583 0.250000
Si Si5 0.500000 0.000000 0.216171
Si Si6 0.394616 0.715833 0.152521
Si Si7 0.750000 0.250000 0.948596
Si Si8 0.122626 0.513199 0.677037
O O1 0.424098 0.791732 0.887979
O O2 0.537731 0.726279 0.881455
O O3 0.510243 0.904387 0.841409
O O4 0.500000 0.847174 0.000000
O O5 0.371988 0.750000 0.750000
O O6 0.307582 0.749662 0.609415
O O7 0.386019 0.887765 0.622548
O O8 0.250000 0.750000 0.152123
O O9 0.273345 0.933135 0.168466
O O10 0.352965 0.797364 0.104985
O O11 0.257506 0.841851 0.015161
O O12 0.186770 0.458215 0.279121
O O13 0.438180 0.011693 0.267697
O O14 0.392129 0.750000 0.250000
O O15 0.371905 0.601241 0.144870
#
# Coordination Sequence:
#
# PCOD9326648 Si02
#       8
#    16  16  16   8   8  16   8  16
#     4  12  26  44  71  99 135 175 221 281 346 398
#     4  12  26  48  66  95 136 188 228 271 335 414
#     4  10  19  39  65 100 136 170 224 271 338 377
#     4  12  21  38  69 108 130 184 223 288 321 410
#     4  12  23  46  66 106 127 176 222 292 323 412
#     4  12  20  41  70 102 132 173 219 281 333 397
#     4  10  25  41  68  92 138 190 220 273 335 394
#     4  12  25  38  73  99 133 169 242 266 336 402
#
# _framework density 21.963733000000001
#
# number of rings (size 3 to 8) (size 9 to 14) (size 15 to 20)
#    0.462    0.000    6.154    3.000    2.154    0.000 
#    0.000    7.692    0.000    0.000    0.000    0.000 
#    0.000    0.000    0.000    0.000    0.000    0.000 
#
# Total GULP energy -145073.065144 kJ/mol
# GULP energy per Si atom -5579.733275 kJ/mol
# Density = 2.191374 g / cm^3
# Si number density = 21.963733 Si / 1000 Ang^3
#
#
#
# Elastic Constant Matrix: (Units=GPa)
#
#
# Indices 1 2 3 4 5 6 
#
# 1 143.9239 -5.6854 42.0205 0.0000 0.0000 0.0000
# 2 -5.6854 46.0787 -13.7287 0.0000 0.0000 0.0000
# 3 42.0205 -13.7287 54.0519 0.0000 0.0000 0.0000
# 4 0.0000 0.0000 0.0000 6.5247 0.0000 0.0000
# 5 0.0000 0.0000 0.0000 0.0000 35.5541 0.0000
# 6 0.0000 0.0000 0.0000 0.0000 0.0000 23.4556
#
#
#
# Elastic Compliance Matrix: (Units=1/GPa)
#
#
# Indices 1 2 3 4 5 6 
#
# 1 0.009036 -0.001058 -0.007293 0.000000 0.000000 0.000000
# 2 -0.001058 0.023603 0.006817 0.000000 0.000000 0.000000
# 3 -0.007293 0.006817 0.025902 0.000000 0.000000 0.000000
# 4 0.000000 0.000000 0.000000 0.153263 0.000000 0.000000
# 5 0.000000 0.000000 0.000000 0.000000 0.028126 0.000000
# 6 0.000000 0.000000 0.000000 0.000000 0.000000 0.042634
#
#
# Mechanical properties :
#
#
# Convention : Reuss Voigt Hill
#
# Bulk Modulus (GPa) = 18.02687 32.14080 25.08383
# Shear Modulus (GPa) = 16.44080 27.87010 22.15545
#
# Velocity S-wave (km/s) = 2.73892 3.56605 3.17949
# Velocity P-wave (km/s) = 4.26938 5.62325 4.99242
#
# Compressibility (1/GPa) = 0.05547276
#
# Stress axis : x y z
#
# Youngs Moduli (GPa) = 110.67272 42.36814 38.60694
#
# Poissons Ratio (x) = 0.04483 0.28157
# Poissons Ratio (y) = 0.11710 -0.26320
# Poissons Ratio (z) = 0.80715 -0.28884
#
# Static dielectric constant tensor:
#      x y z
#    x 1.840800 0.000000 0.000000 
#    y 0.000000 1.841130 0.000000 
#    z 0.000000 0.000000 1.794260 
# 
# From -- ./inp_files/38976.got.cif
#   From: 2010.05.17/outbox.cif.g08.bks.cpg/sg22_20_cif.got.tgz:38976.got - 2010.06.03 23:40:54.
