data_PCOD9326139
_publ_section_title
;
Structure prediction by ZEFSAII (Michael W. Deem and Ramdas Pophale) SiO2 
 PCOD9326139
Probable space group: F 2 2 2
;
_chemical_formula_sum "Si O2"
_cell_formula_units_Z 88
_cell_length_a 16.120246
_cell_length_b 26.873563
_cell_length_c 9.975685
_cell_angle_alpha 90.000000
_cell_angle_beta 90.000000
_cell_angle_gamma 90.000000
_cell_volume 4321.551001
_symmetry_space_group_name_H-M "F 2 2 2"
_symmetry_group_IT_number 22
_symmetry_cell_setting 'orthorhombic'
loop_
_space_group_symop_operation_xyz
x,y,z
-x,-y,z
x,-y,-z
-x,y,-z
x,1/2+y,1/2+z
-x,1/2-y,1/2+z
x,1/2-y,1/2-z
-x,1/2+y,1/2-z
1/2+x,y,1/2+z
1/2-x,-y,1/2+z
1/2+x,-y,1/2-z
1/2-x,y,1/2-z
1/2+x,1/2+y,z
1/2-x,1/2-y,z
1/2+x,1/2-y,-z
1/2-x,1/2+y,-z
loop_
_atom_site_type_symbol
_atom_site_label
_atom_site_fract_x
_atom_site_fract_y
_atom_site_fract_z
Si Si1 0.866244 0.717517 0.618384
Si Si2 0.035793 0.447106 0.360514
Si Si3 0.500000 0.288807 0.500000
Si Si4 0.228238 0.955579 0.902267
Si Si5 0.481618 0.152936 0.270659
Si Si6 0.795115 0.159295 0.889155
O O1 0.842331 0.750000 0.750000
O O2 0.920731 0.755103 0.530419
O O3 0.795975 0.692842 0.523881
O O4 0.935492 0.675896 0.661887
O O5 0.129705 0.456189 0.398171
O O6 0.014181 0.406136 0.252263
O O7 0.000000 0.500000 0.325082
O O8 0.000000 0.426810 0.500000
O O9 0.522707 0.320163 0.629587
O O10 0.250000 0.967698 0.750000
O O11 0.243554 0.895816 0.923117
O O12 0.258771 0.000000 0.000000
O O13 0.393929 0.158130 0.350286
O O14 0.750000 0.175844 0.750000
#
# Coordination Sequence:
#
# PCOD9326139 Si02
#       6
#    16  16   8  16  16  16
#     4  10  19  34  62  91 118 156 213 258 304 360
#     4  10  18  33  60  87 111 151 207 252 293 357
#     4  10  20  34  55  86 115 156 202 256 302 352
#     4  10  20  36  60  91 123 164 204 245 310 381
#     4  10  19  34  58  88 120 150 209 252 302 362
#     4  10  20  36  62  90 123 163 205 253 312 381
#
# _framework density 20.363060000000001
#
# number of rings (size 3 to 8) (size 9 to 14) (size 15 to 20)
#    0.000    2.000    3.636    2.182    0.000    0.000 
#    0.000    7.727    0.000    3.273    0.000    0.000 
#    0.000    0.000    0.000    0.000    0.000    0.000 
#
# Total GULP energy -122520.570578 kJ/mol
# GULP energy per Si atom -5569.116844 kJ/mol
# Density = 2.031671 g / cm^3
# Si number density = 20.363060 Si / 1000 Ang^3
#
#
#
# Elastic Constant Matrix: (Units=GPa)
#
#
# Indices 1 2 3 4 5 6 
#
# 1 37.0747 -14.7524 15.3396 0.0000 0.0000 0.0000
# 2 -14.7524 111.8796 70.1789 0.0000 0.0000 0.0000
# 3 15.3396 70.1789 130.1995 0.0000 0.0000 0.0000
# 4 0.0000 0.0000 0.0000 36.2470 0.0000 0.0000
# 5 0.0000 0.0000 0.0000 0.0000 22.1704 0.0000
# 6 0.0000 0.0000 0.0000 0.0000 0.0000 15.1267
#
#
#
# Elastic Compliance Matrix: (Units=1/GPa)
#
#
# Indices 1 2 3 4 5 6 
#
# 1 0.035573 0.011059 -0.010152 0.000000 0.000000 0.000000
# 2 0.011059 0.016942 -0.010435 0.000000 0.000000 0.000000
# 3 -0.010152 -0.010435 0.014501 0.000000 0.000000 0.000000
# 4 0.000000 0.000000 0.000000 0.027589 0.000000 0.000000
# 5 0.000000 0.000000 0.000000 0.000000 0.045105 0.000000
# 6 0.000000 0.000000 0.000000 0.000000 0.000000 0.066108
#
#
# Mechanical properties :
#
#
# Convention : Reuss Voigt Hill
#
# Bulk Modulus (GPa) = 20.85063 46.74289 33.79676
# Shear Modulus (GPa) = 20.75893 28.60132 24.68012
#
# Velocity S-wave (km/s) = 3.19633 3.75182 3.48516
# Velocity P-wave (km/s) = 4.88710 6.46319 5.72960
#
# Compressibility (1/GPa) = 0.04796018
#
# Stress axis : x y z
#
# Youngs Moduli (GPa) = 28.11106 59.02583 68.96096
#
# Poissons Ratio (x) = -0.65274 0.70008
# Poissons Ratio (y) = -0.31087 0.71958
# Poissons Ratio (z) = 0.28538 0.61591
#
# Static dielectric constant tensor:
#      x y z
#    x 1.757360 0.000000 0.000000 
#    y 0.000000 1.836620 0.000000 
#    z 0.000000 0.000000 1.701800 
# 
# From -- ./inp_files/11797.got.cif
#   From: 2010.05.17/outbox.cif.g08.bks.cpg/sg22_6_cif.got.tgz:11797.got - 2010.06.03 23:40:54.
