data_PCOD9326408
_publ_section_title
;
Structure prediction by ZEFSAII (Michael W. Deem and Ramdas Pophale) SiO2 
 PCOD9326408
Probable space group: F 2 2 2
;
_chemical_formula_sum "Si O2"
_cell_formula_units_Z 112
_cell_length_a 25.193783
_cell_length_b 14.728900
_cell_length_c 13.057305
_cell_angle_alpha 90.000000
_cell_angle_beta 90.000000
_cell_angle_gamma 90.000000
_cell_volume 4845.261786
_symmetry_space_group_name_H-M "F 2 2 2"
_symmetry_group_IT_number 22
_symmetry_cell_setting 'orthorhombic'
loop_
_space_group_symop_operation_xyz
x,y,z
-x,-y,z
x,-y,-z
-x,y,-z
x,1/2+y,1/2+z
-x,1/2-y,1/2+z
x,1/2-y,1/2-z
-x,1/2+y,1/2-z
1/2+x,y,1/2+z
1/2-x,-y,1/2+z
1/2+x,-y,1/2-z
1/2-x,y,1/2-z
1/2+x,1/2+y,z
1/2-x,1/2-y,z
1/2+x,1/2-y,-z
1/2-x,1/2+y,-z
loop_
_atom_site_type_symbol
_atom_site_label
_atom_site_fract_x
_atom_site_fract_y
_atom_site_fract_z
Si Si1 0.133044 0.633403 0.641954
Si Si2 0.104231 0.359916 0.757711
Si Si3 0.282947 0.412543 0.649028
Si Si4 0.755169 0.383463 0.923254
Si Si5 0.556957 0.850058 0.961497
Si Si6 0.940866 0.871452 0.962810
Si Si7 0.865943 0.157773 0.638130
O O1 0.194740 0.626314 0.611008
O O2 0.098379 0.593975 0.551135
O O3 0.115141 0.738707 0.646166
O O4 0.124039 0.601873 0.758304
O O5 0.111017 0.250000 0.750000
O O6 0.158030 0.395605 0.810582
O O7 0.061822 0.380210 0.845109
O O8 0.083825 0.395333 0.648265
O O9 0.250000 0.389229 0.750000
O O10 0.264053 0.363720 0.544315
O O11 0.272151 0.515623 0.613395
O O12 0.802461 0.328650 0.870465
O O13 0.558869 0.739517 0.959528
O O14 0.500000 0.879202 0.000000
O O15 0.604786 0.880367 0.037544
O O16 0.000000 0.897064 0.000000
#
# Coordination Sequence:
#
# PCOD9326408 Si02
#       7
#    16  16  16  16  16  16  16
#     4  10  20  33  55  84 115 149 198 254 305 356
#     4  10  20  37  57  84 122 154 195 251 299 364
#     4  11  23  38  57  83 113 161 200 241 304 362
#     4  11  22  38  57  82 116 155 204 248 299 372
#     4   9  18  32  54  84 117 155 193 245 314 361
#     4   9  19  33  54  87 120 153 194 247 307 365
#     4  10  19  34  55  83 113 150 195 252 307 356
#
# _framework density 23.115366000000002
#
# number of rings (size 3 to 8) (size 9 to 14) (size 15 to 20)
#    0.000    2.000    1.429    2.571    2.000    1.429 
#    2.571    0.000    0.000    1.714    0.000   10.000 
#    0.000    0.000    0.000    0.000    0.000    0.000 
#
# Total GULP energy -156191.309437 kJ/mol
# GULP energy per Si atom -5578.261051 kJ/mol
# Density = 2.306275 g / cm^3
# Si number density = 23.115366 Si / 1000 Ang^3
#
#
#
# Elastic Constant Matrix: (Units=GPa)
#
#
# Indices 1 2 3 4 5 6 
#
# 1 125.4003 10.2961 88.9136 0.0000 0.0000 0.0000
# 2 10.2961 36.6959 29.0604 0.0000 0.0000 0.0000
# 3 88.9136 29.0604 243.0745 0.0000 0.0000 0.0000
# 4 0.0000 0.0000 0.0000 13.9095 0.0000 0.0000
# 5 0.0000 0.0000 0.0000 0.0000 45.4241 0.0000
# 6 0.0000 0.0000 0.0000 0.0000 0.0000 322.6065
#
#
#
# Elastic Compliance Matrix: (Units=1/GPa)
#
#
# Indices 1 2 3 4 5 6 
#
# 1 0.010767 0.000108 -0.003951 0.000000 0.000000 0.000000
# 2 0.000108 0.030102 -0.003638 0.000000 0.000000 0.000000
# 3 -0.003951 -0.003638 0.005994 0.000000 0.000000 0.000000
# 4 0.000000 0.000000 0.000000 0.071893 0.000000 0.000000
# 5 0.000000 0.000000 0.000000 0.000000 0.022015 0.000000
# 6 0.000000 0.000000 0.000000 0.000000 0.000000 0.003100
#
#
# Mechanical properties :
#
#
# Convention : Reuss Voigt Hill
#
# Bulk Modulus (GPa) = 31.34764 73.52343 52.43554
# Shear Modulus (GPa) = 29.50402 94.84805 62.17604
#
# Velocity S-wave (km/s) = 3.57652 6.41261 5.19197
# Velocity P-wave (km/s) = 5.53590 9.31155 7.66000
#
# Compressibility (1/GPa) = 0.03190033
#
# Stress axis : x y z
#
# Youngs Moduli (GPa) = 92.87352 33.22041 166.82375
#
# Poissons Ratio (x) = -0.00359 0.65920
# Poissons Ratio (y) = -0.01005 0.60697
# Poissons Ratio (z) = 0.36699 0.12087
#
# Static dielectric constant tensor:
#      x y z
#    x 1.868350 0.000000 0.000000 
#    y 0.000000 1.881780 0.000000 
#    z 0.000000 0.000000 1.894740 
# 
# From -- ./inp_files/23950.got.cif
#   From: 2010.05.17/outbox.cif.g08.bks.cpg/sg22_12_cif.got.tgz:23950.got - 2010.06.03 23:40:54.
