data_PCOD9326784
_publ_section_title
;
Structure prediction by ZEFSAII (Michael W. Deem and Ramdas Pophale) SiO2 
 PCOD9326784
Probable space group: F 2 2 2
;
_chemical_formula_sum "Si O2"
_cell_formula_units_Z 88
_cell_length_a 20.034773
_cell_length_b 25.115283
_cell_length_c 8.990053
_cell_angle_alpha 90.000000
_cell_angle_beta 90.000000
_cell_angle_gamma 90.000000
_cell_volume 4523.605822
_symmetry_space_group_name_H-M "F 2 2 2"
_symmetry_group_IT_number 22
_symmetry_cell_setting 'orthorhombic'
loop_
_space_group_symop_operation_xyz
x,y,z
-x,-y,z
x,-y,-z
-x,y,-z
x,1/2+y,1/2+z
-x,1/2-y,1/2+z
x,1/2-y,1/2-z
-x,1/2+y,1/2-z
1/2+x,y,1/2+z
1/2-x,-y,1/2+z
1/2+x,-y,1/2-z
1/2-x,y,1/2-z
1/2+x,1/2+y,z
1/2-x,1/2-y,z
1/2+x,1/2-y,-z
1/2-x,1/2+y,-z
loop_
_atom_site_type_symbol
_atom_site_label
_atom_site_fract_x
_atom_site_fract_y
_atom_site_fract_z
Si Si1 0.793433 0.876135 0.485021
Si Si2 0.500000 0.361554 0.500000
Si Si3 0.861718 0.108226 0.964043
Si Si4 0.675040 0.023248 0.774480
Si Si5 0.105787 0.413960 0.791258
Si Si6 0.610953 0.811273 0.207484
O O1 0.714470 0.874361 0.498855
O O2 0.814188 0.930573 0.396808
O O3 0.833212 0.879758 0.638499
O O4 0.822557 0.829627 0.381208
O O5 0.542131 0.397703 0.386913
O O6 0.550754 0.326450 0.596962
O O7 0.851870 0.053910 0.870362
O O8 0.892978 0.151672 0.853848
O O9 0.899750 0.098667 0.117213
O O10 0.750000 0.000632 0.750000
O O11 0.626253 0.975395 0.811078
O O12 0.611453 0.750000 0.250000
#
# Coordination Sequence:
#
# PCOD9326784 Si02
#       6
#    16   8  16  16  16  16
#     4   9  19  35  57  92 121 142 179 226 289 357
#     4  10  26  42  55  80 110 152 207 238 268 326
#     4  10  20  34  60  92 115 141 186 234 283 347
#     4   9  17  32  57  87 118 150 181 222 287 354
#     4  11  20  35  56  82 119 157 188 228 274 327
#     4  10  22  42  63  79 107 148 188 237 288 333
#
# _framework density 19.453507999999999
#
# number of rings (size 3 to 8) (size 9 to 14) (size 15 to 20)
#    0.000    2.182    0.000    4.364    0.000    6.545 
#    0.000   19.091    0.000   13.091    0.000    0.000 
#    0.000    0.000    0.000    0.000    0.000    0.000 
#
# Total GULP energy -122902.185038 kJ/mol
# GULP energy per Si atom -5586.462956 kJ/mol
# Density = 1.940923 g / cm^3
# Si number density = 19.453508 Si / 1000 Ang^3
#
#
#
# Elastic Constant Matrix: (Units=GPa)
#
#
# Indices 1 2 3 4 5 6 
#
# 1 63.0659 45.7560 30.4487 0.0000 -0.0001 0.0000
# 2 45.7560 117.6741 39.8958 0.0000 0.0000 0.0000
# 3 30.4487 39.8958 127.8331 0.0001 -0.0004 -0.0002
# 4 0.0000 0.0000 0.0001 12.6103 -0.0001 0.0000
# 5 -0.0001 0.0000 -0.0004 -0.0001 16.2273 0.0001
# 6 0.0000 0.0000 -0.0002 0.0000 0.0001 16.6917
#
#
#
# Elastic Compliance Matrix: (Units=1/GPa)
#
#
# Indices 1 2 3 4 5 6 
#
# 1 0.023083 -0.007953 -0.003016 0.000000 0.000000 0.000000
# 2 -0.007953 0.012244 -0.001927 0.000000 0.000000 0.000000
# 3 -0.003016 -0.001927 0.009142 0.000000 0.000000 0.000000
# 4 0.000000 0.000000 0.000000 0.079300 0.000000 0.000000
# 5 0.000000 0.000000 0.000000 0.000000 0.061625 0.000000
# 6 0.000000 0.000000 0.000000 0.000000 0.000000 0.059910
#
#
# Mechanical properties :
#
#
# Convention : Reuss Voigt Hill
#
# Bulk Modulus (GPa) = 53.54111 60.08602 56.81356
# Shear Modulus (GPa) = 18.02965 21.93735 19.98350
#
# Velocity S-wave (km/s) = 3.04765 3.36174 3.20854
# Velocity P-wave (km/s) = 6.32191 6.78398 6.55702
#
# Compressibility (1/GPa) = 0.01867724
#
# Stress axis : x y z
#
# Youngs Moduli (GPa) = 43.32275 81.67487 109.37969
#
# Poissons Ratio (x) = 0.64954 0.32990
# Poissons Ratio (y) = 0.34454 0.21076
# Poissons Ratio (z) = 0.13066 0.15738
#
# Static dielectric constant tensor:
#      x y z
#    x 1.683870 0.000000 0.000000 
#    y 0.000000 1.649200 0.000000 
#    z 0.000000 0.000000 1.709700 
# 
# From -- ./inp_files/12641.got.cif
#   From: 2010.05.17/outbox.cif.g08.bks.cpg/sg22_7_cif.got.tgz:12641.got - 2010.06.03 23:40:54.
