data_PCOD9326729
_publ_section_title
;
Structure prediction by ZEFSAII (Michael W. Deem and Ramdas Pophale) SiO2 
 PCOD9326729
Probable space group: F 2 2 2
;
_chemical_formula_sum "Si O2"
_cell_formula_units_Z 84
_cell_length_a 10.205783
_cell_length_b 24.074311
_cell_length_c 16.128838
_cell_angle_alpha 90.000000
_cell_angle_beta 90.000000
_cell_angle_gamma 90.000000
_cell_volume 3962.810238
_symmetry_space_group_name_H-M "F 2 2 2"
_symmetry_group_IT_number 22
_symmetry_cell_setting 'orthorhombic'
loop_
_space_group_symop_operation_xyz
x,y,z
-x,-y,z
x,-y,-z
-x,y,-z
x,1/2+y,1/2+z
-x,1/2-y,1/2+z
x,1/2-y,1/2-z
-x,1/2+y,1/2-z
1/2+x,y,1/2+z
1/2-x,-y,1/2+z
1/2+x,-y,1/2-z
1/2-x,y,1/2-z
1/2+x,1/2+y,z
1/2-x,1/2-y,z
1/2+x,1/2-y,-z
1/2-x,1/2+y,-z
loop_
_atom_site_type_symbol
_atom_site_label
_atom_site_fract_x
_atom_site_fract_y
_atom_site_fract_z
Si Si1 0.750000 0.940668 0.750000
Si Si2 0.250000 0.250000 0.750000
Si Si3 0.296698 0.814157 0.555403
Si Si4 0.049925 0.618354 0.876495
Si Si5 0.229416 0.347140 0.882965
Si Si6 0.904122 0.810392 0.224994
Si Si7 0.000000 0.000000 0.321444
O O1 0.728934 0.900508 0.670706
O O2 0.877580 0.977536 0.731525
O O3 0.212292 0.296424 0.819938
O O4 0.250000 0.750000 0.556082
O O5 0.178501 0.852750 0.588591
O O6 0.319278 0.831898 0.461137
O O7 0.407038 0.818128 0.626650
O O8 0.039474 0.640496 0.780653
O O9 0.050484 0.552188 0.874897
O O10 0.916119 0.639344 0.916994
O O11 0.962120 0.750000 0.250000
O O12 0.750000 0.807633 0.250000
#
# Coordination Sequence:
#
# PCOD9326729 Si02
#       7
#     8   4  16  16  16  16   8
#     4   9  22  43  64  94 121 174 231 276 328 396
#     4  10  20  32  56  72 116 176 190 232 322 406
#     4  11  19  34  59  93 133 161 202 272 341 396
#     4  10  21  36  60  91 121 169 221 271 327 401
#     4  10  21  37  56  88 128 164 211 259 328 406
#     4   9  16  31  54  89 120 155 201 262 322 392
#     4  10  22  42  73  89 124 176 238 278 324 399
#
# _framework density 21.197078000000001
#
# number of rings (size 3 to 8) (size 9 to 14) (size 15 to 20)
#    0.000    2.095    4.762    0.571    5.333    0.000 
#    0.000    7.619    0.000    1.143    0.000    0.000 
#    0.000    0.000    0.000    0.000    0.000    0.000 
#
# Total GULP energy -117111.022043 kJ/mol
# GULP energy per Si atom -5576.715335 kJ/mol
# Density = 2.114883 g / cm^3
# Si number density = 21.197078 Si / 1000 Ang^3
#
#
#
# Elastic Constant Matrix: (Units=GPa)
#
#
# Indices 1 2 3 4 5 6 
#
# 1 35.8966 42.5448 57.0326 0.0000 0.0000 0.0000
# 2 42.5448 156.3931 38.3060 0.0000 0.0000 0.0000
# 3 57.0326 38.3060 132.5915 0.0000 0.0000 0.0000
# 4 0.0000 0.0000 0.0000 99.3734 0.0000 0.0000
# 5 0.0000 0.0000 0.0000 0.0000 24.1410 0.0000
# 6 0.0000 0.0000 0.0000 0.0000 0.0000 20.4230
#
#
#
# Elastic Compliance Matrix: (Units=1/GPa)
#
#
# Indices 1 2 3 4 5 6 
#
# 1 0.149504 -0.026817 -0.056560 0.000000 0.000000 0.000000
# 2 -0.026817 0.011691 0.008157 0.000000 0.000000 0.000000
# 3 -0.056560 0.008157 0.029514 0.000000 0.000000 0.000000
# 4 0.000000 0.000000 0.000000 0.010063 0.000000 0.000000
# 5 0.000000 0.000000 0.000000 0.000000 0.041423 0.000000
# 6 0.000000 0.000000 0.000000 0.000000 0.000000 0.048965
#
#
# Mechanical properties :
#
#
# Convention : Reuss Voigt Hill
#
# Bulk Modulus (GPa) = 24.83237 66.73866 45.78552
# Shear Modulus (GPa) = 10.98847 41.25399 26.12123
#
# Velocity S-wave (km/s) = 2.27930 4.41637 3.51423
# Velocity P-wave (km/s) = 4.32058 7.58677 6.17359
#
# Compressibility (1/GPa) = 0.04027001
#
# Stress axis : x y z
#
# Youngs Moduli (GPa) = 6.68878 85.53269 33.88260
#
# Poissons Ratio (x) = 2.29376 1.91639
# Poissons Ratio (y) = 0.17938 -0.27640
# Poissons Ratio (z) = 0.37832 -0.69773
#
# Static dielectric constant tensor:
#      x y z
#    x 1.848140 0.000000 0.000000 
#    y 0.000000 1.723000 0.000000 
#    z 0.000000 0.000000 1.818370 
# 
# From -- ./inp_files/36200.got.cif
#   From: 2010.05.17/outbox.cif.g08.bks.cpg/sg22_19_cif.got.tgz:36200.got - 2010.06.03 23:40:54.
