data_PCOD9326304
_publ_section_title
;
Structure prediction by ZEFSAII (Michael W. Deem and Ramdas Pophale) SiO2 
 PCOD9326304
Probable space group: F 2 2 2
;
_chemical_formula_sum "Si O2"
_cell_formula_units_Z 128
_cell_length_a 18.439460
_cell_length_b 23.666247
_cell_length_c 19.653371
_cell_angle_alpha 90.000000
_cell_angle_beta 90.000000
_cell_angle_gamma 90.000000
_cell_volume 8576.589893
_symmetry_space_group_name_H-M "F 2 2 2"
_symmetry_group_IT_number 22
_symmetry_cell_setting 'orthorhombic'
loop_
_space_group_symop_operation_xyz
x,y,z
-x,-y,z
x,-y,-z
-x,y,-z
x,1/2+y,1/2+z
-x,1/2-y,1/2+z
x,1/2-y,1/2-z
-x,1/2+y,1/2-z
1/2+x,y,1/2+z
1/2-x,-y,1/2+z
1/2+x,-y,1/2-z
1/2-x,y,1/2-z
1/2+x,1/2+y,z
1/2-x,1/2-y,z
1/2+x,1/2-y,-z
1/2-x,1/2+y,-z
loop_
_atom_site_type_symbol
_atom_site_label
_atom_site_fract_x
_atom_site_fract_y
_atom_site_fract_z
Si Si1 0.338233 0.933906 0.419369
Si Si2 0.000000 0.906141 0.078581
Si Si3 0.632923 0.256744 0.672186
Si Si4 0.338233 0.066094 0.419369
Si Si5 0.246665 0.153243 0.828220
Si Si6 0.500000 0.770290 0.578257
Si Si7 0.746665 0.153243 0.671781
Si Si8 0.632923 0.756744 0.827814
O O1 0.421662 0.925346 0.393527
O O2 0.337536 0.918473 0.500000
O O3 0.282163 0.894888 0.378374
O O4 0.320478 0.000000 0.413430
O O5 0.000000 0.838448 0.079988
O O6 0.921662 0.925346 0.106473
O O7 0.000000 0.926450 0.000000
O O8 0.605604 0.250000 0.750000
O O9 0.570129 0.250570 0.618094
O O10 0.688863 0.204523 0.666064
O O11 0.676955 0.314828 0.660533
O O12 0.282163 0.105112 0.378374
O O13 0.250000 0.132889 0.750000
O O14 0.323045 0.185172 0.839467
O O15 0.188863 0.204523 0.833936
O O16 0.500000 0.752514 0.500000
O O17 0.570129 0.749430 0.618095
O O18 0.750000 0.132888 0.750000
O O19 0.605605 0.750000 0.750000
#
# Coordination Sequence:
#
# PCOD9326304 Si02
#       8
#    16  16  16  16  16  16  16  16
#     4  10  19  31  48  69  95 126 155 187 231 275
#     4   9  17  29  44  68  97 120 148 183 224 278
#     4   9  18  32  48  67  95 124 152 188 232 276
#     4  10  19  31  48  69  95 126 155 187 231 275
#     4   9  18  32  48  68  92 122 157 191 228 272
#     4  11  19  28  47  73  94 123 156 183 226 282
#     4   9  18  32  48  68  92 122 157 191 228 272
#     4   9  18  32  48  67  95 124 152 188 232 276
#
# _framework density 14.924346999999999
#
# number of rings (size 3 to 8) (size 9 to 14) (size 15 to 20)
#    0.000    2.500    2.500    2.250    0.000    3.000 
#    0.000    2.500    0.000    0.000    0.000    0.875 
#    0.000    3.000    0.000    0.000    0.000    0.000 
#
# Total GULP energy -178146.075551 kJ/mol
# GULP energy per Si atom -5567.064861 kJ/mol
# Density = 1.489038 g / cm^3
# Si number density = 14.924347 Si / 1000 Ang^3
#
#
#
# Elastic Constant Matrix: (Units=GPa)
#
#
# Indices 1 2 3 4 5 6 
#
# 1 72.8195 30.8315 66.6435 0.0000 0.0000 0.0000
# 2 30.8315 69.1859 49.8030 0.0000 0.0000 0.0000
# 3 66.6435 49.8030 102.2986 0.0000 0.0000 0.0000
# 4 0.0000 0.0000 0.0000 22.8035 0.0000 0.0000
# 5 0.0000 0.0000 0.0000 0.0000 22.5300 0.0000
# 6 0.0000 0.0000 0.0000 0.0000 0.0000 1.6593
#
#
#
# Elastic Compliance Matrix: (Units=1/GPa)
#
#
# Indices 1 2 3 4 5 6 
#
# 1 0.034076 0.001223 -0.022795 0.000000 0.000000 0.000000
# 2 0.001223 0.022296 -0.011651 0.000000 0.000000 0.000000
# 3 -0.022795 -0.011651 0.030298 0.000000 0.000000 0.000000
# 4 0.000000 0.000000 0.000000 0.043853 0.000000 0.000000
# 5 0.000000 0.000000 0.000000 0.000000 0.044385 0.000000
# 6 0.000000 0.000000 0.000000 0.000000 0.000000 0.602678
#
#
# Mechanical properties :
#
#
# Convention : Reuss Voigt Hill
#
# Bulk Modulus (GPa) = 49.44695 59.87330 54.66013
# Shear Modulus (GPa) = 5.87701 15.86696 10.87199
#
# Velocity S-wave (km/s) = 1.98656 3.26415 2.70195
# Velocity P-wave (km/s) = 6.20206 7.37639 6.81457
#
# Compressibility (1/GPa) = 0.02022369
#
# Stress axis : x y z
#
# Youngs Moduli (GPa) = 29.34599 44.85138 33.00598
#
# Poissons Ratio (x) = -0.05486 0.75236
# Poissons Ratio (y) = -0.03590 0.38456
# Poissons Ratio (z) = 0.66894 0.52258
#
# Static dielectric constant tensor:
#      x y z
#    x 1.506250 0.000000 0.000000 
#    y 0.000000 1.482940 0.000000 
#    z 0.000000 0.000000 1.496830 
# 
# From -- ./inp_files/38353.got.cif
#   From: 2010.05.17/outbox.cif.g08.bks.cpg/sg22_20_cif.got.tgz:38353.got - 2010.06.03 23:40:54.
