data_PCOD9326467
_publ_section_title
;
Structure prediction by ZEFSAII (Michael W. Deem and Ramdas Pophale) SiO2 
 PCOD9326467
Probable space group: F 2 2 2
;
_chemical_formula_sum "Si O2"
_cell_formula_units_Z 112
_cell_length_a 12.180141
_cell_length_b 17.778008
_cell_length_c 28.004311
_cell_angle_alpha 90.000000
_cell_angle_beta 90.000000
_cell_angle_gamma 90.000000
_cell_volume 6064.015534
_symmetry_space_group_name_H-M "F 2 2 2"
_symmetry_group_IT_number 22
_symmetry_cell_setting 'orthorhombic'
loop_
_space_group_symop_operation_xyz
x,y,z
-x,-y,z
x,-y,-z
-x,y,-z
x,1/2+y,1/2+z
-x,1/2-y,1/2+z
x,1/2-y,1/2-z
-x,1/2+y,1/2-z
1/2+x,y,1/2+z
1/2-x,-y,1/2+z
1/2+x,-y,1/2-z
1/2-x,y,1/2-z
1/2+x,1/2+y,z
1/2-x,1/2-y,z
1/2+x,1/2-y,-z
1/2-x,1/2+y,-z
loop_
_atom_site_type_symbol
_atom_site_label
_atom_site_fract_x
_atom_site_fract_y
_atom_site_fract_z
Si Si1 0.857681 0.289712 0.393379
Si Si2 0.332435 0.970605 0.707818
Si Si3 0.991496 0.087544 0.943075
Si Si4 0.657107 0.139996 0.291083
Si Si5 0.561839 0.671791 0.258364
Si Si6 0.077060 0.711829 0.864266
Si Si7 0.296045 0.136826 0.379020
O O1 0.750000 0.250000 0.415297
O O2 0.819498 0.320418 0.341389
O O3 0.913224 0.360237 0.420544
O O4 0.960104 0.231606 0.387571
O O5 0.250000 0.991932 0.750000
O O6 0.393590 0.903725 0.735336
O O7 0.291182 0.930482 0.659578
O O8 0.378371 0.053389 0.696742
O O9 0.873730 0.114895 0.922998
O O10 0.000000 0.000000 0.929029
O O11 0.000000 0.093229 0.000000
O O12 0.750000 0.145829 0.250000
O O13 0.552371 0.179578 0.268651
O O14 0.625477 0.750000 0.250000
O O15 0.554443 0.667717 0.315241
O O16 0.173362 0.665280 0.890860
O O17 0.136572 0.792887 0.855717
#
# Coordination Sequence:
#
# PCOD9326467 Si02
#       7
#    16  16  16  16  16  16  16
#     4  11  22  40  61  89 127 160 211 261 322 378
#     4  11  21  32  49  78 115 158 202 253 303 356
#     4  10  22  43  70  94 117 157 206 259 325 391
#     4  11  24  34  50  76 118 171 210 246 295 367
#     4  12  19  31  50  74 109 150 210 247 288 359
#     4  10  20  31  54  85 113 158 188 255 308 357
#     4  10  19  35  57  86 118 143 204 253 311 366
#
# _framework density 18.469608999999998
#
# number of rings (size 3 to 8) (size 9 to 14) (size 15 to 20)
#    0.000    1.286    4.286    3.000    0.000    0.286 
#    5.143    0.000    0.000    0.000    0.000    2.000 
#    0.000    0.000    0.000    0.000    0.000    0.000 
#
# Total GULP energy -155898.257797 kJ/mol
# GULP energy per Si atom -5567.794921 kJ/mol
# Density = 1.842757 g / cm^3
# Si number density = 18.469609 Si / 1000 Ang^3
#
#
#
# Elastic Constant Matrix: (Units=GPa)
#
#
# Indices 1 2 3 4 5 6 
#
# 1 80.4159 48.0796 25.7321 0.0000 0.0000 0.0000
# 2 48.0796 122.2574 28.6143 0.0000 0.0000 0.0000
# 3 25.7321 28.6143 64.1901 0.0000 0.0000 0.0000
# 4 0.0000 0.0000 0.0000 28.1585 0.0000 0.0000
# 5 0.0000 0.0000 0.0000 0.0000 20.0655 0.0000
# 6 0.0000 0.0000 0.0000 0.0000 0.0000 20.6609
#
#
#
# Elastic Compliance Matrix: (Units=1/GPa)
#
#
# Indices 1 2 3 4 5 6 
#
# 1 0.017283 -0.005778 -0.004352 0.000000 0.000000 0.000000
# 2 -0.005778 0.011064 -0.002616 0.000000 0.000000 0.000000
# 3 -0.004352 -0.002616 0.018490 0.000000 0.000000 0.000000
# 4 0.000000 0.000000 0.000000 0.035513 0.000000 0.000000
# 5 0.000000 0.000000 0.000000 0.000000 0.049837 0.000000
# 6 0.000000 0.000000 0.000000 0.000000 0.000000 0.048401
#
#
# Mechanical properties :
#
#
# Convention : Reuss Voigt Hill
#
# Bulk Modulus (GPa) = 46.85227 52.41284 49.63255
# Shear Modulus (GPa) = 23.45283 24.73947 24.09615
#
# Velocity S-wave (km/s) = 3.56730 3.66385 3.61590
# Velocity P-wave (km/s) = 6.51074 6.80719 6.66062
#
# Compressibility (1/GPa) = 0.02134368
#
# Stress axis : x y z
#
# Youngs Moduli (GPa) = 57.86145 90.38351 54.08450
#
# Poissons Ratio (x) = 0.52223 0.23540
# Poissons Ratio (y) = 0.33432 0.14147
# Poissons Ratio (z) = 0.25184 0.23643
#
# Static dielectric constant tensor:
#      x y z
#    x 1.621500 0.000000 0.000000 
#    y 0.000000 1.688360 0.000000 
#    z 0.000000 0.000000 1.625550 
# 
# From -- ./inp_files/52771.got.cif
#   From: 2010.05.17/outbox.cif.g08.bks.cpg/sg22_27_cif.got.tgz:52771.got - 2010.06.03 23:40:54.
