data_PCOD9326207
_publ_section_title
;
Structure prediction by ZEFSAII (Michael W. Deem and Ramdas Pophale) SiO2 
 PCOD9326207
Probable space group: F 2 2 2
;
_chemical_formula_sum "Si O2"
_cell_formula_units_Z 96
_cell_length_a 14.843559
_cell_length_b 20.071370
_cell_length_c 16.101567
_cell_angle_alpha 90.000000
_cell_angle_beta 90.000000
_cell_angle_gamma 90.000000
_cell_volume 4797.148951
_symmetry_space_group_name_H-M "F 2 2 2"
_symmetry_group_IT_number 22
_symmetry_cell_setting 'orthorhombic'
loop_
_space_group_symop_operation_xyz
x,y,z
-x,-y,z
x,-y,-z
-x,y,-z
x,1/2+y,1/2+z
-x,1/2-y,1/2+z
x,1/2-y,1/2-z
-x,1/2+y,1/2-z
1/2+x,y,1/2+z
1/2-x,-y,1/2+z
1/2+x,-y,1/2-z
1/2-x,y,1/2-z
1/2+x,1/2+y,z
1/2-x,1/2-y,z
1/2+x,1/2-y,-z
1/2-x,1/2+y,-z
loop_
_atom_site_type_symbol
_atom_site_label
_atom_site_fract_x
_atom_site_fract_y
_atom_site_fract_z
Si Si1 0.028737 0.815088 0.304527
Si Si2 0.432149 0.858856 0.564442
Si Si3 0.848867 0.730304 0.130672
Si Si4 0.706203 0.564030 0.946014
Si Si5 0.178069 0.191488 0.560771
Si Si6 0.444704 0.561509 0.187510
O O1 0.047581 0.750000 0.250000
O O2 0.085806 0.804875 0.388311
O O3 0.062744 0.879459 0.254070
O O4 0.920956 0.815585 0.321983
O O5 0.500000 0.824907 0.500000
O O6 0.395538 0.802112 0.622770
O O7 0.357261 0.894896 0.509942
O O8 0.488346 0.912066 0.615577
O O9 0.750000 0.750000 0.162245
O O10 0.836359 0.701648 0.037609
O O11 0.780795 0.618396 0.922939
O O12 0.647021 0.546199 0.863881
O O13 0.736072 0.500000 0.000000
O O14 0.250000 0.250000 0.585461
O O15 0.500000 0.500000 0.225278
#
# Coordination Sequence:
#
# PCOD9326207 Si02
#       6
#    16  16  16  16  16  16
#     4  12  25  41  63  93 133 167 206 262 329 383
#     4  10  18  35  63  95 119 154 208 264 311 371
#     4  11  22  41  67  93 121 164 216 263 313 383
#     4  11  21  38  67  95 121 161 220 272 311 371
#     4  11  23  41  67  95 123 165 218 264 317 378
#     4  11  23  39  62  91 129 170 208 261 326 377
#
# _framework density 20.011886000000001
#
# number of rings (size 3 to 8) (size 9 to 14) (size 15 to 20)
#    0.000    1.000    6.667    2.500    0.000    2.667 
#    3.000    0.000    3.667    0.000    0.000    0.000 
#    0.000    0.000    0.000    0.000    0.000    0.000 
#
# Total GULP energy -133938.934499 kJ/mol
# GULP energy per Si atom -5580.788937 kJ/mol
# Density = 1.996634 g / cm^3
# Si number density = 20.011886 Si / 1000 Ang^3
#
#
#
# Elastic Constant Matrix: (Units=GPa)
#
#
# Indices 1 2 3 4 5 6 
#
# 1 83.5275 24.7788 31.0489 0.0000 0.0000 0.0000
# 2 24.7788 105.2364 19.1389 0.0000 0.0000 0.0000
# 3 31.0489 19.1389 86.3318 0.0000 0.0000 0.0000
# 4 0.0000 0.0000 0.0000 30.1482 0.0000 0.0000
# 5 0.0000 0.0000 0.0000 0.0000 7.5081 0.0000
# 6 0.0000 0.0000 0.0000 0.0000 0.0000 24.1998
#
#
#
# Elastic Compliance Matrix: (Units=1/GPa)
#
#
# Indices 1 2 3 4 5 6 
#
# 1 0.014453 -0.002561 -0.004630 0.000000 0.000000 0.000000
# 2 -0.002561 0.010355 -0.001375 0.000000 0.000000 0.000000
# 3 -0.004630 -0.001375 0.013553 0.000000 0.000000 0.000000
# 4 0.000000 0.000000 0.000000 0.033169 0.000000 0.000000
# 5 0.000000 0.000000 0.000000 0.000000 0.133190 0.000000
# 6 0.000000 0.000000 0.000000 0.000000 0.000000 0.041323
#
#
# Mechanical properties :
#
#
# Convention : Reuss Voigt Hill
#
# Bulk Modulus (GPa) = 47.10338 47.22544 47.16441
# Shear Modulus (GPa) = 18.50123 25.71314 22.10719
#
# Velocity S-wave (km/s) = 3.04388 3.58843 3.32731
# Velocity P-wave (km/s) = 5.99520 6.38898 6.19522
#
# Compressibility (1/GPa) = 0.02122990
#
# Stress axis : x y z
#
# Youngs Moduli (GPa) = 69.18987 96.56769 73.78334
#
# Poissons Ratio (x) = 0.24731 0.34163
# Poissons Ratio (y) = 0.17720 0.10143
# Poissons Ratio (z) = 0.32036 0.13275
#
# Static dielectric constant tensor:
#      x y z
#    x 1.728870 0.000000 0.000000 
#    y 0.000000 1.711130 0.000000 
#    z 0.000000 0.000000 1.723750 
# 
# From -- ./inp_files/29389.got.cif
#   From: 2010.05.17/outbox.cif.g08.bks.cpg/sg22_15_cif.got.tgz:29389.got - 2010.06.03 23:40:54.
