data_PCOD9326996
_publ_section_title
;
Structure prediction by ZEFSAII (Michael W. Deem and Ramdas Pophale) SiO2 
 PCOD9326996
Probable space group: F 2 2 2
;
_chemical_formula_sum "Si O2"
_cell_formula_units_Z 88
_cell_length_a 16.947961
_cell_length_b 10.092834
_cell_length_c 20.399097
_cell_angle_alpha 90.000000
_cell_angle_beta 90.000000
_cell_angle_gamma 90.000000
_cell_volume 3489.325862
_symmetry_space_group_name_H-M "F 2 2 2"
_symmetry_group_IT_number 22
_symmetry_cell_setting 'orthorhombic'
loop_
_space_group_symop_operation_xyz
x,y,z
-x,-y,z
x,-y,-z
-x,y,-z
x,1/2+y,1/2+z
-x,1/2-y,1/2+z
x,1/2-y,1/2-z
-x,1/2+y,1/2-z
1/2+x,y,1/2+z
1/2-x,-y,1/2+z
1/2+x,-y,1/2-z
1/2-x,y,1/2-z
1/2+x,1/2+y,z
1/2-x,1/2-y,z
1/2+x,1/2-y,-z
1/2-x,1/2+y,-z
loop_
_atom_site_type_symbol
_atom_site_label
_atom_site_fract_x
_atom_site_fract_y
_atom_site_fract_z
Si Si1 0.665888 0.507576 0.811706
Si Si2 0.492690 0.348505 0.695218
Si Si3 0.500000 0.231191 0.500000
Si Si4 0.890150 0.890024 0.424230
Si Si5 0.500000 0.000000 0.391319
Si Si6 0.173040 0.111752 0.664134
Si Si7 0.250000 0.250000 0.137125
O O1 0.582039 0.500816 0.849480
O O2 0.730858 0.617447 0.838346
O O3 0.662304 0.533458 0.734018
O O4 0.711006 0.368914 0.822875
O O5 0.500000 0.500000 0.719829
O O6 0.525063 0.250000 0.750000
O O7 0.543592 0.358943 0.630062
O O8 0.404506 0.296933 0.676720
O O9 0.428962 0.336665 0.490294
O O10 0.502365 0.128859 0.438966
O O11 0.817793 0.797265 0.410225
O O12 0.854582 0.029727 0.399779
#
# Coordination Sequence:
#
# PCOD9326996 Si02
#       7
#    16  16   8  16   8  16   8
#     4  10  21  39  67 104 143 177 235 303 367 447
#     4  10  23  40  68 105 147 191 239 294 370 441
#     4  11  24  42  61  96 134 192 246 298 334 430
#     4  10  22  38  63  98 137 181 244 291 345 422
#     4  11  24  40  70  98 142 189 252 294 366 417
#     4   9  22  40  66 104 142 179 228 295 379 433
#     4  10  20  37  64 102 134 178 241 302 344 428
#
# _framework density 25.219771000000001
#
# number of rings (size 3 to 8) (size 9 to 14) (size 15 to 20)
#    0.000    2.000    1.818    0.000   11.455    5.091 
#    1.636    7.727    0.000    0.000    0.000    0.000 
#    0.000    0.000    0.000    0.000    0.000    0.000 
#
# Total GULP energy -122637.375002 kJ/mol
# GULP energy per Si atom -5574.426136 kJ/mol
# Density = 2.516237 g / cm^3
# Si number density = 25.219771 Si / 1000 Ang^3
#
#
#
# Elastic Constant Matrix: (Units=GPa)
#
#
# Indices 1 2 3 4 5 6 
#
# 1 207.8122 -8.5482 60.8094 0.0000 0.0000 0.0000
# 2 -8.5482 55.6872 29.3401 0.0000 0.0000 0.0000
# 3 60.8094 29.3401 85.3776 0.0000 0.0000 0.0000
# 4 0.0000 0.0000 0.0000 34.1828 0.0000 0.0000
# 5 0.0000 0.0000 0.0000 0.0000 56.9729 0.0000
# 6 0.0000 0.0000 0.0000 0.0000 0.0000 34.3884
#
#
#
# Elastic Compliance Matrix: (Units=1/GPa)
#
#
# Indices 1 2 3 4 5 6 
#
# 1 0.006873 0.004438 -0.006421 0.000000 0.000000 0.000000
# 2 0.004438 0.024793 -0.011681 0.000000 0.000000 0.000000
# 3 -0.006421 -0.011681 0.020300 0.000000 0.000000 0.000000
# 4 0.000000 0.000000 0.000000 0.029254 0.000000 0.000000
# 5 0.000000 0.000000 0.000000 0.000000 0.017552 0.000000
# 6 0.000000 0.000000 0.000000 0.000000 0.000000 0.029080
#
#
# Mechanical properties :
#
#
# Convention : Reuss Voigt Hill
#
# Bulk Modulus (GPa) = 40.58617 56.89774 48.74195
# Shear Modulus (GPa) = 30.60107 42.92722 36.76414
#
# Velocity S-wave (km/s) = 3.48713 4.13016 3.82219
# Velocity P-wave (km/s) = 5.68695 6.73454 6.23279
#
# Compressibility (1/GPa) = 0.02463894
#
# Stress axis : x y z
#
# Youngs Moduli (GPa) = 145.48930 40.33375 49.26138
#
# Poissons Ratio (x) = -0.17900 0.31629
# Poissons Ratio (y) = -0.64567 0.57543
# Poissons Ratio (z) = 0.93413 0.47114
#
# Static dielectric constant tensor:
#      x y z
#    x 2.100260 0.000000 0.000000 
#    y 0.000000 2.065970 0.000000 
#    z 0.000000 0.000000 1.991920 
# 
# From -- ./inp_files/44152.got.cif
#   From: 2010.05.17/outbox.cif.g08.bks.cpg/sg22_23_cif.got.tgz:44152.got - 2010.06.03 23:40:54.
