data_PCOD9326039
_publ_section_title
;
Structure prediction by ZEFSAII (Michael W. Deem and Ramdas Pophale) SiO2 
 PCOD9326039
Probable space group: F 2 2 2
;
_chemical_formula_sum "Si O2"
_cell_formula_units_Z 108
_cell_length_a 29.846589
_cell_length_b 13.503179
_cell_length_c 15.543468
_cell_angle_alpha 90.000000
_cell_angle_beta 90.000000
_cell_angle_gamma 90.000000
_cell_volume 6264.388064
_symmetry_space_group_name_H-M "F 2 2 2"
_symmetry_group_IT_number 22
_symmetry_cell_setting 'orthorhombic'
loop_
_space_group_symop_operation_xyz
x,y,z
-x,-y,z
x,-y,-z
-x,y,-z
x,1/2+y,1/2+z
-x,1/2-y,1/2+z
x,1/2-y,1/2-z
-x,1/2+y,1/2-z
1/2+x,y,1/2+z
1/2-x,-y,1/2+z
1/2+x,-y,1/2-z
1/2-x,y,1/2-z
1/2+x,1/2+y,z
1/2-x,1/2-y,z
1/2+x,1/2-y,-z
1/2-x,1/2+y,-z
loop_
_atom_site_type_symbol
_atom_site_label
_atom_site_fract_x
_atom_site_fract_y
_atom_site_fract_z
Si Si1 0.458984 0.060449 0.193448
Si Si2 0.000000 0.500000 0.500000
Si Si3 0.840718 0.086364 0.072008
Si Si4 0.134356 0.654194 0.814341
Si Si5 0.014413 0.750000 0.250000
Si Si6 0.939133 0.590026 0.646585
Si Si7 0.801256 0.725502 0.437597
Si Si8 0.704117 0.046607 0.698486
O O1 0.411342 0.098921 0.156548
O O2 0.482953 0.162335 0.218204
O O3 0.500000 0.000000 0.147366
O O4 0.447534 0.992003 0.277728
O O5 0.968718 0.562130 0.563873
O O6 0.888036 0.092191 0.118632
O O7 0.805157 0.050422 0.142544
O O8 0.826509 0.183361 0.020594
O O9 0.844004 0.000000 0.000000
O O10 0.125155 0.750000 0.750000
O O11 0.167134 0.694485 0.889622
O O12 0.163113 0.574442 0.760797
O O13 0.045304 0.696593 0.319826
O O14 0.750000 0.750000 0.460122
O O15 0.795247 0.637964 0.367831
O O16 0.750000 0.042785 0.750000
#
# Coordination Sequence:
#
# PCOD9326039 Si02
#       8
#    16   4  16  16   8  16  16  16
#     4  10  19  33  53  81 117 150 194 244 281 342
#     4  12  20  32  60  84 118 142 184 252 284 324
#     4  10  21  34  55  82 120 147 184 241 295 334
#     4  10  18  28  55  83 113 147 193 235 285 343
#     4  10  20  34  52  80 118 156 184 228 302 342
#     4  11  21  35  54  86 119 150 190 242 287 345
#     4  10  20  33  53  84 120 147 183 240 291 347
#     4  10  18  32  54  84 109 147 193 231 280 346
#
# _framework density 17.240310999999998
#
# number of rings (size 3 to 8) (size 9 to 14) (size 15 to 20)
#    0.000    1.778    6.667    0.000    0.000    1.185 
#    0.000    1.481    0.000    0.000    0.000   20.222 
#    0.000    0.000    0.000    0.000    0.000    0.000 
#
# Total GULP energy -150308.025392 kJ/mol
# GULP energy per Si atom -5566.963903 kJ/mol
# Density = 1.720107 g / cm^3
# Si number density = 17.240311 Si / 1000 Ang^3
#
#
#
# Elastic Constant Matrix: (Units=GPa)
#
#
# Indices 1 2 3 4 5 6 
#
# 1 122.8287 34.4606 31.4710 0.0000 0.0000 0.0000
# 2 34.4606 61.5915 31.5947 0.0000 0.0000 0.0000
# 3 31.4710 31.5947 60.2382 0.0000 0.0000 0.0000
# 4 0.0000 0.0000 0.0000 10.9020 0.0000 0.0000
# 5 0.0000 0.0000 0.0000 0.0000 24.3638 0.0000
# 6 0.0000 0.0000 0.0000 0.0000 0.0000 25.8046
#
#
#
# Elastic Compliance Matrix: (Units=1/GPa)
#
#
# Indices 1 2 3 4 5 6 
#
# 1 0.010078 -0.004019 -0.003157 0.000000 0.000000 0.000000
# 2 -0.004019 0.023815 -0.010391 0.000000 0.000000 0.000000
# 3 -0.003157 -0.010391 0.023700 0.000000 0.000000 0.000000
# 4 0.000000 0.000000 0.000000 0.091726 0.000000 0.000000
# 5 0.000000 0.000000 0.000000 0.000000 0.041044 0.000000
# 6 0.000000 0.000000 0.000000 0.000000 0.000000 0.038753
#
#
# Mechanical properties :
#
#
# Convention : Reuss Voigt Hill
#
# Bulk Modulus (GPa) = 44.52656 48.85678 46.69167
# Shear Modulus (GPa) = 18.40007 22.02288 20.21147
#
# Velocity S-wave (km/s) = 3.27045 3.57796 3.42766
# Velocity P-wave (km/s) = 6.33595 6.74309 6.54269
#
# Compressibility (1/GPa) = 0.02245851
#
# Stress axis : x y z
#
# Youngs Moduli (GPa) = 99.22674 41.99019 42.19346
#
# Poissons Ratio (x) = 0.16876 0.13321
# Poissons Ratio (y) = 0.39880 0.43844
# Poissons Ratio (z) = 0.31327 0.43633
#
# Static dielectric constant tensor:
#      x y z
#    x 1.612880 0.000000 0.000000 
#    y 0.000000 1.583230 0.000000 
#    z 0.000000 0.000000 1.571370 
# 
# From -- ./inp_files/29839.got.cif
#   From: 2010.05.17/outbox.cif.g08.bks.cpg/sg22_15_cif.got.tgz:29839.got - 2010.06.03 23:40:54.
