data_PCOD9326445
_publ_section_title
;
Structure prediction by ZEFSAII (Michael W. Deem and Ramdas Pophale) SiO2 
 PCOD9326445
Probable space group: F 2 2 2
;
_chemical_formula_sum "Si O2"
_cell_formula_units_Z 116
_cell_length_a 17.059974
_cell_length_b 25.521187
_cell_length_c 13.549042
_cell_angle_alpha 90.000000
_cell_angle_beta 90.000000
_cell_angle_gamma 90.000000
_cell_volume 5899.128055
_symmetry_space_group_name_H-M "F 2 2 2"
_symmetry_group_IT_number 22
_symmetry_cell_setting 'orthorhombic'
loop_
_space_group_symop_operation_xyz
x,y,z
-x,-y,z
x,-y,-z
-x,y,-z
x,1/2+y,1/2+z
-x,1/2-y,1/2+z
x,1/2-y,1/2-z
-x,1/2+y,1/2-z
1/2+x,y,1/2+z
1/2-x,-y,1/2+z
1/2+x,-y,1/2-z
1/2-x,y,1/2-z
1/2+x,1/2+y,z
1/2-x,1/2-y,z
1/2+x,1/2-y,-z
1/2-x,1/2+y,-z
loop_
_atom_site_type_symbol
_atom_site_label
_atom_site_fract_x
_atom_site_fract_y
_atom_site_fract_z
Si Si1 0.567336 0.537779 0.678498
Si Si2 0.135532 0.338143 0.330787
Si Si3 0.084708 0.801147 0.448449
Si Si4 0.962090 0.847993 0.759080
Si Si5 0.091009 0.684228 0.463657
Si Si6 0.337032 0.947901 0.775611
Si Si7 0.902489 0.088203 0.512209
Si Si8 0.250000 0.250000 0.250000
O O1 0.500000 0.500000 0.636178
O O2 0.534790 0.590784 0.727841
O O3 0.609963 0.498002 0.752066
O O4 0.619853 0.556455 0.586284
O O5 0.133811 0.345122 0.448330
O O6 0.155420 0.393165 0.281140
O O7 0.192950 0.290140 0.307345
O O8 0.048239 0.326795 0.287774
O O9 0.070487 0.816846 0.334890
O O10 0.121152 0.744014 0.458057
O O11 0.123266 0.851192 0.501128
O O12 0.000000 0.796575 0.500000
O O13 0.909353 0.840621 0.855742
O O14 0.000000 0.684986 0.500000
O O15 0.250000 0.965283 0.750000
O O16 0.364679 0.934336 0.888310
O O17 0.000000 0.089609 0.500000
#
# Coordination Sequence:
#
# PCOD9326445 Si02
#       8
#    16  16  16  16  16  16  16   4
#     4  11  20  38  67  92 119 164 225 288 328 384
#     4  11  23  39  57  88 132 171 218 250 335 410
#     4   9  17  29  55  95 119 150 197 277 328 364
#     4  10  20  37  62  93 125 159 219 284 318 383
#     4   9  20  33  55  82 123 165 203 258 315 383
#     4  12  24  39  59  95 137 167 210 280 354 398
#     4  10  19  34  62  95 119 154 220 278 334 379
#     4  12  28  36  64  92 134 188 194 280 338 424
#
# _framework density 19.663923
#
# number of rings (size 3 to 8) (size 9 to 14) (size 15 to 20)
#    0.000    1.655    3.448    2.483    7.724    0.000 
#    0.000    3.448    0.000    0.000    0.000    4.828 
#    0.000    0.000    0.000    0.000    0.000    0.000 
#
# Total GULP energy -161549.684558 kJ/mol
# GULP energy per Si atom -5570.678778 kJ/mol
# Density = 1.961917 g / cm^3
# Si number density = 19.663923 Si / 1000 Ang^3
#
#
#
# Elastic Constant Matrix: (Units=GPa)
#
#
# Indices 1 2 3 4 5 6 
#
# 1 39.7802 12.6847 21.9765 0.0000 0.0000 0.0000
# 2 12.6847 109.9875 44.6425 0.0000 0.0000 0.0000
# 3 21.9765 44.6425 116.0703 0.0000 0.0000 0.0000
# 4 0.0000 0.0000 0.0000 4.4091 0.0000 0.0000
# 5 0.0000 0.0000 0.0000 0.0000 4.4956 0.0000
# 6 0.0000 0.0000 0.0000 0.0000 0.0000 22.8180
#
#
#
# Elastic Compliance Matrix: (Units=1/GPa)
#
#
# Indices 1 2 3 4 5 6 
#
# 1 0.028228 -0.001287 -0.004850 0.000000 0.000000 0.000000
# 2 -0.001287 0.010833 -0.003923 0.000000 0.000000 0.000000
# 3 -0.004850 -0.003923 0.011042 0.000000 0.000000 0.000000
# 4 0.000000 0.000000 0.000000 0.226805 0.000000 0.000000
# 5 0.000000 0.000000 0.000000 0.000000 0.222440 0.000000
# 6 0.000000 0.000000 0.000000 0.000000 0.000000 0.043825
#
#
# Mechanical properties :
#
#
# Convention : Reuss Voigt Hill
#
# Bulk Modulus (GPa) = 33.35109 47.16057 40.25583
# Shear Modulus (GPa) = 8.72165 18.78017 13.75091
#
# Velocity S-wave (km/s) = 2.10831 3.09375 2.64729
# Velocity P-wave (km/s) = 4.78790 6.06606 5.46448
#
# Compressibility (1/GPa) = 0.02998403
#
# Stress axis : x y z
#
# Youngs Moduli (GPa) = 35.42624 92.31449 90.56013
#
# Poissons Ratio (x) = 0.11882 0.43917
# Poissons Ratio (y) = 0.04560 0.35524
# Poissons Ratio (z) = 0.17180 0.36212
#
# Static dielectric constant tensor:
#      x y z
#    x 1.967410 0.000000 0.000000 
#    y 0.000000 1.718020 0.000000 
#    z 0.000000 0.000000 1.711720 
# 
# From -- ./inp_files/30936.got.cif
#   From: 2010.05.17/outbox.cif.g08.bks.cpg/sg22_16_cif.got.tgz:30936.got - 2010.06.03 23:40:54.
