data_PCOD9326701
_publ_section_title
;
Structure prediction by ZEFSAII (Michael W. Deem and Ramdas Pophale) SiO2 
 PCOD9326701
Probable space group: F 2 2 2
;
_chemical_formula_sum "Si O2"
_cell_formula_units_Z 76
_cell_length_a 16.792357
_cell_length_b 7.442092
_cell_length_c 24.408175
_cell_angle_alpha 90.000000
_cell_angle_beta 90.000000
_cell_angle_gamma 90.000000
_cell_volume 3050.296115
_symmetry_space_group_name_H-M "F 2 2 2"
_symmetry_group_IT_number 22
_symmetry_cell_setting 'orthorhombic'
loop_
_space_group_symop_operation_xyz
x,y,z
-x,-y,z
x,-y,-z
-x,y,-z
x,1/2+y,1/2+z
-x,1/2-y,1/2+z
x,1/2-y,1/2-z
-x,1/2+y,1/2-z
1/2+x,y,1/2+z
1/2-x,-y,1/2+z
1/2+x,-y,1/2-z
1/2-x,y,1/2-z
1/2+x,1/2+y,z
1/2-x,1/2-y,z
1/2+x,1/2-y,-z
1/2-x,1/2+y,-z
loop_
_atom_site_type_symbol
_atom_site_label
_atom_site_fract_x
_atom_site_fract_y
_atom_site_fract_z
Si Si1 0.000000 0.000000 0.169442
Si Si2 0.211829 0.448277 0.172368
Si Si3 0.500000 0.500000 0.500000
Si Si4 0.853784 0.063407 0.104694
Si Si5 0.772807 0.500000 0.500000
Si Si6 0.132195 0.352038 0.074134
Si Si7 0.895822 0.750000 0.250000
O O1 0.062654 0.888180 0.132102
O O2 0.950665 0.855489 0.206185
O O3 0.250000 0.250000 0.164056
O O4 0.284315 0.572920 0.151203
O O5 0.141844 0.473904 0.127934
O O6 0.163328 0.410162 0.228028
O O7 0.556137 0.385608 0.538461
O O8 0.867263 0.852902 0.091515
O O9 0.825250 0.120518 0.043273
O O10 0.710794 0.404596 0.540529
#
# Coordination Sequence:
#
# PCOD9326701 Si02
#       7
#     8  16   4  16   8  16   8
#     4  12  26  38  64 100 132 168 218 280 336 376
#     4   9  17  36  65  83 109 168 227 247 305 406
#     4  10  20  30  56  88 136 168 200 252 340 382
#     4  10  21  39  61  94 124 161 217 268 322 389
#     4   9  18  34  64  87 120 156 212 257 302 402
#     4   9  18  35  56  90 118 164 211 253 312 405
#     4  12  23  42  68  95 122 176 226 277 326 382
#
# _framework density 24.915614000000001
#
# number of rings (size 3 to 8) (size 9 to 14) (size 15 to 20)
#    0.000    2.105    4.211    2.211    0.000    2.947 
#    0.000    0.000    4.632    1.263    0.000    0.000 
#    0.000    0.000    0.000    0.000    0.000    0.000 
#
# Total GULP energy -105881.927964 kJ/mol
# GULP energy per Si atom -5572.733051 kJ/mol
# Density = 2.485890 g / cm^3
# Si number density = 24.915614 Si / 1000 Ang^3
#
#
#
# Elastic Constant Matrix: (Units=GPa)
#
#
# Indices 1 2 3 4 5 6 
#
# 1 156.1848 23.2245 76.1877 0.0000 0.0000 0.0000
# 2 23.2245 36.5829 7.4940 0.0000 0.0000 0.0000
# 3 76.1877 7.4940 144.2174 0.0000 0.0000 0.0000
# 4 0.0000 0.0000 0.0000 26.0106 0.0000 0.0000
# 5 0.0000 0.0000 0.0000 0.0000 38.7544 0.0000
# 6 0.0000 0.0000 0.0000 0.0000 0.0000 20.6866
#
#
#
# Elastic Compliance Matrix: (Units=1/GPa)
#
#
# Indices 1 2 3 4 5 6 
#
# 1 0.009462 -0.005037 -0.004737 0.000000 0.000000 0.000000
# 2 -0.005037 0.030310 0.001086 0.000000 0.000000 0.000000
# 3 -0.004737 0.001086 0.009380 0.000000 0.000000 0.000000
# 4 0.000000 0.000000 0.000000 0.038446 0.000000 0.000000
# 5 0.000000 0.000000 0.000000 0.000000 0.025804 0.000000
# 6 0.000000 0.000000 0.000000 0.000000 0.000000 0.048341
#
#
# Mechanical properties :
#
#
# Convention : Reuss Voigt Hill
#
# Bulk Modulus (GPa) = 31.46957 61.19971 46.33464
# Shear Modulus (GPa) = 26.35586 32.42892 29.39239
#
# Velocity S-wave (km/s) = 3.25592 3.61161 3.43837
# Velocity P-wave (km/s) = 5.17615 6.48134 5.86517
#
# Compressibility (1/GPa) = 0.03177673
#
# Stress axis : x y z
#
# Youngs Moduli (GPa) = 105.68116 32.99203 106.60876
#
# Poissons Ratio (x) = 0.16617 0.50502
# Poissons Ratio (y) = 0.53229 -0.11576
# Poissons Ratio (z) = 0.50062 -0.03582
#
# Static dielectric constant tensor:
#      x y z
#    x 2.023250 0.000000 0.000000 
#    y 0.000000 2.070720 0.000000 
#    z 0.000000 0.000000 2.119040 
# 
# From -- ./inp_files/53504.got.cif
#   From: 2010.05.17/outbox.cif.g08.bks.cpg/sg22_27_cif.got.tgz:53504.got - 2010.06.03 23:40:54.
