data_PCOD9326537
_publ_section_title
;
Structure prediction by ZEFSAII (Michael W. Deem and Ramdas Pophale) SiO2 
 PCOD9326537
Probable space group: F 2 2 2
;
_chemical_formula_sum "Si O2"
_cell_formula_units_Z 68
_cell_length_a 18.297445
_cell_length_b 7.243602
_cell_length_c 24.869031
_cell_angle_alpha 90.000000
_cell_angle_beta 90.000000
_cell_angle_gamma 90.000000
_cell_volume 3296.126676
_symmetry_space_group_name_H-M "F 2 2 2"
_symmetry_group_IT_number 22
_symmetry_cell_setting 'orthorhombic'
loop_
_space_group_symop_operation_xyz
x,y,z
-x,-y,z
x,-y,-z
-x,y,-z
x,1/2+y,1/2+z
-x,1/2-y,1/2+z
x,1/2-y,1/2-z
-x,1/2+y,1/2-z
1/2+x,y,1/2+z
1/2-x,-y,1/2+z
1/2+x,-y,1/2-z
1/2-x,y,1/2-z
1/2+x,1/2+y,z
1/2-x,1/2-y,z
1/2+x,1/2-y,-z
1/2-x,1/2+y,-z
loop_
_atom_site_type_symbol
_atom_site_label
_atom_site_fract_x
_atom_site_fract_y
_atom_site_fract_z
Si Si1 0.747286 0.044915 0.172047
Si Si2 0.780750 0.447240 0.558031
Si Si3 0.442536 0.331174 0.076284
Si Si4 0.500000 0.500000 0.500000
Si Si5 0.124048 0.250837 0.309378
O O1 0.750000 0.250000 0.194250
O O2 0.755533 0.064209 0.107918
O O3 0.815899 0.917208 0.189382
O O4 0.673354 0.933132 0.184061
O O5 0.751375 0.500000 0.500000
O O6 0.750000 0.250000 0.573025
O O7 0.867124 0.421951 0.556566
O O8 0.500000 0.500000 0.072480
O O9 0.428053 0.274781 0.138832
O O10 0.459700 0.148310 0.040205
O O11 0.089034 0.250000 0.250000
#
# Coordination Sequence:
#
# PCOD9326537 Si02
#       5
#    16  16  16   4  16
#     4  10  19  36  62  97 131 170 213 274 350 396
#     4  11  21  36  61  96 133 163 216 282 336 393
#     4  11  25  46  65  95 133 182 222 276 342 414
#     4  12  26  44  72  90 132 172 236 266 344 414
#     4  10  22  42  63  93 134 169 225 285 330 400
#
# _framework density 20.630277
#
# number of rings (size 3 to 8) (size 9 to 14) (size 15 to 20)
#    0.000    1.412    4.706    3.882    1.647    7.529 
#    2.118    0.000    0.000    0.000    0.000    0.000 
#    0.000    0.000    0.000    0.000    0.000    0.000 
#
# Total GULP energy -94790.280444 kJ/mol
# GULP energy per Si atom -5575.898850 kJ/mol
# Density = 2.058332 g / cm^3
# Si number density = 20.630277 Si / 1000 Ang^3
#
#
#
# Elastic Constant Matrix: (Units=GPa)
#
#
# Indices 1 2 3 4 5 6 
#
# 1 46.7009 27.8902 18.7349 0.0000 0.0000 0.0000
# 2 27.8902 169.1724 44.8609 0.0000 0.0000 0.0000
# 3 18.7349 44.8609 201.4437 0.0000 0.0000 0.0000
# 4 0.0000 0.0000 0.0000 -2.5833 0.0000 0.0000
# 5 0.0000 0.0000 0.0000 0.0000 -13.6846 0.0000
# 6 0.0000 0.0000 0.0000 0.0000 0.0000 -58.5414
#
#
#
# Elastic Compliance Matrix: (Units=1/GPa)
#
#
# Indices 1 2 3 4 5 6 
#
# 1 0.024140 -0.003597 -0.001444 0.000000 0.000000 0.000000
# 2 -0.003597 0.006818 -0.001184 0.000000 0.000000 0.000000
# 3 -0.001444 -0.001184 0.005362 0.000000 0.000000 0.000000
# 4 0.000000 0.000000 0.000000 -0.387105 0.000000 0.000000
# 5 0.000000 0.000000 0.000000 0.000000 -0.073075 0.000000
# 6 0.000000 0.000000 0.000000 0.000000 0.000000 -0.017082
#
#
# Mechanical properties :
#
#
# Convention : Reuss Voigt Hill
#
# Bulk Modulus (GPa) = 41.89219 66.69879 54.29549
# Shear Modulus (GPa) = -11.88962 6.76021 -2.56470
#
# Velocity S-wave (km/s) = -2.40327 1.81217 -1.11619
# Velocity P-wave (km/s) = 3.55659 6.06460 4.97135
#
# Compressibility (1/GPa) = 0.02387080
#
# Stress axis : x y z
#
# Youngs Moduli (GPa) = 41.42450 146.66953 186.49377
#
# Poissons Ratio (x) = 0.52755 0.26932
# Poissons Ratio (y) = 0.14900 0.22078
# Poissons Ratio (z) = 0.05982 0.17363
#
# Static dielectric constant tensor:
#      x y z
#    x 1.684030 0.000000 0.000000 
#    y 0.000000 1.748100 0.000000 
#    z 0.000000 0.000000 1.891930 
# 
# From -- ./inp_files/53756.got.cif
#   From: 2010.05.17/outbox.cif.g08.bks.cpg/sg22_27_cif.got.tgz:53756.got - 2010.06.03 23:40:54.
