data_PCOD9326659
_publ_section_title
;
Structure prediction by ZEFSAII (Michael W. Deem and Ramdas Pophale) SiO2 
 PCOD9326659
Probable space group: F 2 2 2
;
_chemical_formula_sum "Si O2"
_cell_formula_units_Z 72
_cell_length_a 17.345970
_cell_length_b 13.422167
_cell_length_c 14.093881
_cell_angle_alpha 90.000000
_cell_angle_beta 90.000000
_cell_angle_gamma 90.000000
_cell_volume 3281.344508
_symmetry_space_group_name_H-M "F 2 2 2"
_symmetry_group_IT_number 22
_symmetry_cell_setting 'orthorhombic'
loop_
_space_group_symop_operation_xyz
x,y,z
-x,-y,z
x,-y,-z
-x,y,-z
x,1/2+y,1/2+z
-x,1/2-y,1/2+z
x,1/2-y,1/2-z
-x,1/2+y,1/2-z
1/2+x,y,1/2+z
1/2-x,-y,1/2+z
1/2+x,-y,1/2-z
1/2-x,y,1/2-z
1/2+x,1/2+y,z
1/2-x,1/2-y,z
1/2+x,1/2-y,-z
1/2-x,1/2+y,-z
loop_
_atom_site_type_symbol
_atom_site_label
_atom_site_fract_x
_atom_site_fract_y
_atom_site_fract_z
Si Si1 0.209690 0.912936 0.420316
Si Si2 0.509764 0.887648 0.388772
Si Si3 0.176410 0.806686 0.850024
Si Si4 0.646527 0.780859 0.642194
Si Si5 0.750000 0.515857 0.250000
O O1 0.295012 0.864106 0.402047
O O2 0.155025 0.816153 0.425885
O O3 0.205535 0.000000 0.500000
O O4 0.191159 0.958032 0.316329
O O5 0.500000 0.899556 0.500000
O O6 0.590449 0.828226 0.382661
O O7 0.438865 0.822475 0.352572
O O8 0.500000 0.000000 0.346693
O O9 0.168530 0.750000 0.750000
O O10 0.250000 0.750000 0.898672
O O11 0.207532 0.915738 0.825772
O O12 0.669094 0.750000 0.750000
#
# Coordination Sequence:
#
# PCOD9326659 Si02
#       5
#    16  16  16  16   8
#     4  11  23  40  70 105 141 190 239 299 362 440
#     4  11  25  41  66 105 139 181 246 305 367 435
#     4   9  21  41  67  93 129 184 236 290 359 434
#     4  11  23  44  70 102 148 194 243 302 369 442
#     4  10  19  39  68  96 136 174 242 280 358 428
#
# _framework density 21.942225000000001
#
# number of rings (size 3 to 8) (size 9 to 14) (size 15 to 20)
#    0.000    1.778    2.222    2.667    6.222    3.556 
#    8.000    0.000    0.000    0.000    0.000    0.000 
#    0.000    0.000    0.000    0.000    0.000    0.000 
#
# Total GULP energy -100266.957290 kJ/mol
# GULP energy per Si atom -5570.386516 kJ/mol
# Density = 2.189228 g / cm^3
# Si number density = 21.942225 Si / 1000 Ang^3
#
#
#
# Elastic Constant Matrix: (Units=GPa)
#
#
# Indices 1 2 3 4 5 6 
#
# 1 191.2706 72.7552 26.0326 0.0000 0.0000 0.0000
# 2 72.7552 159.0882 50.2978 0.0000 0.0000 0.0000
# 3 26.0326 50.2978 80.7271 0.0000 0.0000 0.0000
# 4 0.0000 0.0000 0.0000 20.8025 0.0000 0.0000
# 5 0.0000 0.0000 0.0000 0.0000 27.4758 0.0000
# 6 0.0000 0.0000 0.0000 0.0000 0.0000 19.4136
#
#
#
# Elastic Compliance Matrix: (Units=1/GPa)
#
#
# Indices 1 2 3 4 5 6 
#
# 1 0.006335 -0.002803 -0.000296 0.000000 0.000000 0.000000
# 2 -0.002803 0.009068 -0.004746 0.000000 0.000000 0.000000
# 3 -0.000296 -0.004746 0.015440 0.000000 0.000000 0.000000
# 4 0.000000 0.000000 0.000000 0.048071 0.000000 0.000000
# 5 0.000000 0.000000 0.000000 0.000000 0.036396 0.000000
# 6 0.000000 0.000000 0.000000 0.000000 0.000000 0.051510
#
#
# Mechanical properties :
#
#
# Convention : Reuss Voigt Hill
#
# Bulk Modulus (GPa) = 65.99828 81.02858 73.51343
# Shear Modulus (GPa) = 26.65775 32.33838 29.49806
#
# Velocity S-wave (km/s) = 3.48933 3.84317 3.67052
# Velocity P-wave (km/s) = 6.81010 7.53005 7.17910
#
# Compressibility (1/GPa) = 0.01515191
#
# Stress axis : x y z
#
# Youngs Moduli (GPa) = 157.85603 110.27188 64.76663
#
# Poissons Ratio (x) = 0.30915 0.01918
# Poissons Ratio (y) = 0.44255 0.30739
# Poissons Ratio (z) = 0.04674 0.52337
#
# Static dielectric constant tensor:
#      x y z
#    x 1.898600 0.000000 0.000000 
#    y 0.000000 1.945540 0.000000 
#    z 0.000000 0.000000 1.682560 
# 
# From -- ./inp_files/37755.got.cif
#   From: 2010.05.17/outbox.cif.g08.bks.cpg/sg22_19_cif.got.tgz:37755.got - 2010.06.03 23:40:54.
