data_PCOD9326960
_publ_section_title
;
Structure prediction by ZEFSAII (Michael W. Deem and Ramdas Pophale) SiO2 
 PCOD9326960
Probable space group: F 2 2 2
;
_chemical_formula_sum "Si O2"
_cell_formula_units_Z 100
_cell_length_a 14.399816
_cell_length_b 19.339841
_cell_length_c 20.071751
_cell_angle_alpha 90.000000
_cell_angle_beta 90.000000
_cell_angle_gamma 90.000000
_cell_volume 5589.784984
_symmetry_space_group_name_H-M "F 2 2 2"
_symmetry_group_IT_number 22
_symmetry_cell_setting 'orthorhombic'
loop_
_space_group_symop_operation_xyz
x,y,z
-x,-y,z
x,-y,-z
-x,y,-z
x,1/2+y,1/2+z
-x,1/2-y,1/2+z
x,1/2-y,1/2-z
-x,1/2+y,1/2-z
1/2+x,y,1/2+z
1/2-x,-y,1/2+z
1/2+x,-y,1/2-z
1/2-x,y,1/2-z
1/2+x,1/2+y,z
1/2-x,1/2-y,z
1/2+x,1/2-y,-z
1/2-x,1/2+y,-z
loop_
_atom_site_type_symbol
_atom_site_label
_atom_site_fract_x
_atom_site_fract_y
_atom_site_fract_z
Si Si1 0.251138 0.166085 0.008207
Si Si2 0.545624 0.425790 0.328137
Si Si3 0.750000 0.250000 0.250000
Si Si4 0.744239 0.377474 0.353452
Si Si5 0.954013 0.424326 0.325482
Si Si6 0.058321 0.831019 0.931806
Si Si7 0.556923 0.671528 0.431353
O O1 0.250000 0.250000 0.006511
O O2 0.159626 0.142549 0.047221
O O3 0.341938 0.143894 0.048761
O O4 0.252900 0.142624 0.931503
O O5 0.500000 0.500000 0.339614
O O6 0.655811 0.426139 0.341044
O O7 0.529041 0.405658 0.251463
O O8 0.497589 0.371683 0.377061
O O9 0.724725 0.309661 0.306677
O O10 0.843146 0.413259 0.336554
O O11 0.000000 0.500000 0.335691
O O12 0.006336 0.374031 0.376029
O O13 0.065446 0.751275 0.909767
O O14 0.000000 0.832578 0.000000
O O15 0.500000 0.670972 0.500000
#
# Coordination Sequence:
#
# PCOD9326960 Si02
#       7
#    16  16   4  16  16  16  16
#     4  10  20  37  59  92 128 152 201 266 315 369
#     4  11  25  42  60  90 129 168 209 257 320 381
#     4  12  24  32  72 108 120 154 220 280 340 356
#     4  12  22  39  65  97 124 158 213 275 316 359
#     4  11  25  42  60  90 129 168 209 257 320 381
#     4  10  21  37  62  90 123 162 203 259 322 376
#     4  10  21  37  62  90 123 162 203 259 322 376
#
# _framework density 17.889776000000001
#
# number of rings (size 3 to 8) (size 9 to 14) (size 15 to 20)
#    0.000    1.280    5.600    0.000    2.240    2.560 
#    0.000    4.000    0.000    2.880    0.000    0.000 
#    0.000    0.000    0.000    0.000    0.000    0.000 
#
# Total GULP energy -139318.466484 kJ/mol
# GULP energy per Si atom -5572.738659 kJ/mol
# Density = 1.784906 g / cm^3
# Si number density = 17.889776 Si / 1000 Ang^3
#
#
#
# Elastic Constant Matrix: (Units=GPa)
#
#
# Indices 1 2 3 4 5 6 
#
# 1 142.1159 45.5350 49.5543 0.0000 0.0000 0.0000
# 2 45.5350 61.7544 58.9285 0.0000 0.0000 0.0000
# 3 49.5543 58.9285 116.8587 0.0000 0.0000 0.0000
# 4 0.0000 0.0000 0.0000 25.7391 0.0000 0.0000
# 5 0.0000 0.0000 0.0000 0.0000 22.0651 0.0000
# 6 0.0000 0.0000 0.0000 0.0000 0.0000 19.8474
#
#
#
# Elastic Compliance Matrix: (Units=1/GPa)
#
#
# Indices 1 2 3 4 5 6 
#
# 1 0.009266 -0.005942 -0.000933 0.000000 0.000000 0.000000
# 2 -0.005942 0.035023 -0.015141 0.000000 0.000000 0.000000
# 3 -0.000933 -0.015141 0.016588 0.000000 0.000000 0.000000
# 4 0.000000 0.000000 0.000000 0.038851 0.000000 0.000000
# 5 0.000000 0.000000 0.000000 0.000000 0.045320 0.000000
# 6 0.000000 0.000000 0.000000 0.000000 0.000000 0.050384
#
#
# Mechanical properties :
#
#
# Convention : Reuss Voigt Hill
#
# Bulk Modulus (GPa) = 59.36605 69.86275 64.61440
# Shear Modulus (GPa) = 20.40149 24.64442 22.52295
#
# Velocity S-wave (km/s) = 3.38064 3.71559 3.55207
# Velocity P-wave (km/s) = 6.96382 7.58578 7.28144
#
# Compressibility (1/GPa) = 0.01684464
#
# Stress axis : x y z
#
# Youngs Moduli (GPa) = 107.92606 28.55261 60.28364
#
# Poissons Ratio (x) = 0.16966 0.05623
# Poissons Ratio (y) = 0.64130 0.91278
# Poissons Ratio (z) = 0.10067 0.43233
#
# Static dielectric constant tensor:
#      x y z
#    x 1.665290 0.000000 0.000000 
#    y 0.000000 1.606900 0.000000 
#    z 0.000000 0.000000 1.582660 
# 
# From -- ./inp_files/30797.got.cif
#   From: 2010.05.17/outbox.cif.g08.bks.cpg/sg22_16_cif.got.tgz:30797.got - 2010.06.03 23:40:54.
