data_PCOD9326346
_publ_section_title
;
Structure prediction by ZEFSAII (Michael W. Deem and Ramdas Pophale) SiO2 
 PCOD9326346
Probable space group: F 2 2 2
;
_chemical_formula_sum "Si O2"
_cell_formula_units_Z 80
_cell_length_a 15.836086
_cell_length_b 29.536896
_cell_length_c 8.028747
_cell_angle_alpha 90.000000
_cell_angle_beta 90.000000
_cell_angle_gamma 90.000000
_cell_volume 3755.436977
_symmetry_space_group_name_H-M "F 2 2 2"
_symmetry_group_IT_number 22
_symmetry_cell_setting 'orthorhombic'
loop_
_space_group_symop_operation_xyz
x,y,z
-x,-y,z
x,-y,-z
-x,y,-z
x,1/2+y,1/2+z
-x,1/2-y,1/2+z
x,1/2-y,1/2-z
-x,1/2+y,1/2-z
1/2+x,y,1/2+z
1/2-x,-y,1/2+z
1/2+x,-y,1/2-z
1/2-x,y,1/2-z
1/2+x,1/2+y,z
1/2-x,1/2-y,z
1/2+x,1/2-y,-z
1/2-x,1/2+y,-z
loop_
_atom_site_type_symbol
_atom_site_label
_atom_site_fract_x
_atom_site_fract_y
_atom_site_fract_z
Si Si1 0.351121 0.642681 0.068825
Si Si2 0.826265 0.955270 0.389100
Si Si3 0.405871 0.452623 0.065339
Si Si4 0.346163 0.359429 0.561744
Si Si5 0.646346 0.302674 0.752133
O O1 0.358680 0.591012 0.006453
O O2 0.386471 0.646178 0.255850
O O3 0.252118 0.654777 0.078089
O O4 0.386319 0.673511 0.920407
O O5 0.750000 0.951258 0.250000
O O6 0.594855 0.955383 0.236258
O O7 0.838590 0.911543 0.504350
O O8 0.819801 0.000000 0.500000
O O9 0.369120 0.500000 0.000000
O O10 0.500000 0.448994 0.000000
O O11 0.383278 0.329942 0.411179
O O12 0.624672 0.250000 0.750000
O O13 0.750000 0.306105 0.750000
#
# Coordination Sequence:
#
# PCOD9326346 Si02
#       5
#    16  16  16  16  16
#     4  10  19  34  55  83 117 153 195 247 296 359
#     4  12  22  35  60  90 122 159 208 256 309 368
#     4  11  23  40  56  81 122 162 199 250 305 364
#     4  10  19  32  56  87 117 148 197 245 302 361
#     4   9  17  32  53  84 121 150 186 247 310 357
#
# _framework density 21.302446
#
# number of rings (size 3 to 8) (size 9 to 14) (size 15 to 20)
#    0.000    1.600    4.000    2.400    2.800    0.800 
#    0.000   11.000    0.000    0.000    5.200    0.000 
#    0.000    0.000    0.000    0.000    0.000    0.000 
#
# Total GULP energy -111588.154101 kJ/mol
# GULP energy per Si atom -5579.407705 kJ/mol
# Density = 2.125396 g / cm^3
# Si number density = 21.302446 Si / 1000 Ang^3
#
#
#
# Elastic Constant Matrix: (Units=GPa)
#
#
# Indices 1 2 3 4 5 6 
#
# 1 31.2527 -6.7132 17.5955 0.0000 0.0000 0.0000
# 2 -6.7132 163.1453 113.0678 0.0000 0.0000 0.0000
# 3 17.5955 113.0678 241.9832 0.0000 -0.0001 0.0000
# 4 0.0000 0.0000 0.0000 32.3974 0.0000 0.0000
# 5 0.0000 0.0000 -0.0001 0.0000 12.0933 0.0000
# 6 0.0000 0.0000 0.0000 0.0000 0.0000 7.9165
#
#
#
# Elastic Compliance Matrix: (Units=1/GPa)
#
#
# Indices 1 2 3 4 5 6 
#
# 1 0.035776 0.004844 -0.004865 0.000000 0.000000 0.000000
# 2 0.004844 0.009721 -0.004894 0.000000 0.000000 0.000000
# 3 -0.004865 -0.004894 0.006773 0.000000 0.000000 0.000000
# 4 0.000000 0.000000 0.000000 0.030867 0.000000 0.000000
# 5 0.000000 0.000000 0.000000 0.000000 0.082691 0.000000
# 6 0.000000 0.000000 0.000000 0.000000 0.000000 0.126319
#
#
# Mechanical properties :
#
#
# Convention : Reuss Voigt Hill
#
# Bulk Modulus (GPa) = 23.56283 76.03126 49.79704
# Shear Modulus (GPa) = 15.81660 31.31017 23.56338
#
# Velocity S-wave (km/s) = 2.72780 3.83795 3.32947
# Velocity P-wave (km/s) = 4.58326 7.44369 6.18122
#
# Compressibility (1/GPa) = 0.04243972
#
# Stress axis : x y z
#
# Youngs Moduli (GPa) = 27.95134 102.87224 147.64243
#
# Poissons Ratio (x) = -0.49827 0.71823
# Poissons Ratio (y) = -0.13538 0.72260
# Poissons Ratio (z) = 0.13597 0.50349
#
# Static dielectric constant tensor:
#      x y z
#    x 1.854390 0.000000 0.000000 
#    y 0.000000 1.740200 0.000000 
#    z 0.000000 0.000000 1.778220 
# 
# From -- ./inp_files/11650.got.cif
#   From: 2010.05.17/outbox.cif.g08.bks.cpg/sg22_6_cif.got.tgz:11650.got - 2010.06.03 23:40:54.
