data_PCOD9326437
_publ_section_title
;
Structure prediction by ZEFSAII (Michael W. Deem and Ramdas Pophale) SiO2 
 PCOD9326437
Probable space group: F 2 2 2
;
_chemical_formula_sum "Si O2"
_cell_formula_units_Z 96
_cell_length_a 19.800524
_cell_length_b 13.072433
_cell_length_c 18.313914
_cell_angle_alpha 90.000000
_cell_angle_beta 90.000000
_cell_angle_gamma 90.000000
_cell_volume 4740.392241
_symmetry_space_group_name_H-M "F 2 2 2"
_symmetry_group_IT_number 22
_symmetry_cell_setting 'orthorhombic'
loop_
_space_group_symop_operation_xyz
x,y,z
-x,-y,z
x,-y,-z
-x,y,-z
x,1/2+y,1/2+z
-x,1/2-y,1/2+z
x,1/2-y,1/2-z
-x,1/2+y,1/2-z
1/2+x,y,1/2+z
1/2-x,-y,1/2+z
1/2+x,-y,1/2-z
1/2-x,y,1/2-z
1/2+x,1/2+y,z
1/2-x,1/2-y,z
1/2+x,1/2-y,-z
1/2-x,1/2+y,-z
loop_
_atom_site_type_symbol
_atom_site_label
_atom_site_fract_x
_atom_site_fract_y
_atom_site_fract_z
Si Si1 0.104550 0.709429 0.832928
Si Si2 0.385147 0.500000 0.000000
Si Si3 0.208853 0.030628 0.326289
Si Si4 0.180120 0.291154 0.834104
Si Si5 0.500000 0.500000 0.880536
Si Si6 0.036213 0.223834 0.834637
Si Si7 0.298643 0.159162 0.436907
O O1 0.102747 0.750000 0.750000
O O2 0.142648 0.601763 0.828912
O O3 0.149795 0.785480 0.881295
O O4 0.028209 0.712343 0.863134
O O5 0.434389 0.487792 0.068615
O O6 0.338342 0.400616 0.000724
O O7 0.250000 0.042697 0.250000
O O8 0.256932 0.074899 0.390177
O O9 0.186806 0.913461 0.334056
O O10 0.180031 0.250000 0.750000
O O11 0.250000 0.250000 0.866976
O O12 0.109257 0.251805 0.867491
O O13 0.514929 0.605052 0.839226
O O14 0.042415 0.250000 0.750000
O O15 0.250000 0.250000 0.461911
#
# Coordination Sequence:
#
# PCOD9326437 Si02
#       7
#    16   8  16  16   8  16  16
#     4  10  19  34  60  93 124 164 210 270 328 384
#     4  11  24  44  66  86 128 185 222 260 315 392
#     4  11  20  34  61  89 134 171 201 263 344 391
#     4  10  21  34  51  86 131 170 200 246 326 410
#     4  11  24  44  66  92 128 177 216 266 336 389
#     4  10  23  37  61  93 127 163 217 272 324 393
#     4  10  22  39  63  97 123 164 230 269 318 385
#
# _framework density 20.251487999999998
#
# number of rings (size 3 to 8) (size 9 to 14) (size 15 to 20)
#    0.000    1.667    5.000    0.000    2.333    6.000 
#    3.000    0.000    0.000    0.000    0.000    0.000 
#    0.000    0.000    0.000    0.000    0.000    0.000 
#
# Total GULP energy -133931.229316 kJ/mol
# GULP energy per Si atom -5580.467888 kJ/mol
# Density = 2.020540 g / cm^3
# Si number density = 20.251488 Si / 1000 Ang^3
#
#
#
# Elastic Constant Matrix: (Units=GPa)
#
#
# Indices 1 2 3 4 5 6 
#
# 1 197.4826 95.9033 26.9333 0.0000 0.0000 0.0000
# 2 95.9033 190.8352 40.2823 0.0000 0.0000 0.0000
# 3 26.9333 40.2823 42.2680 0.0000 0.0000 0.0000
# 4 0.0000 0.0000 0.0000 22.5431 0.0000 0.0000
# 5 0.0000 0.0000 0.0000 0.0000 -27.1856 0.0000
# 6 0.0000 0.0000 0.0000 0.0000 0.0000 142.9481
#
#
#
# Elastic Compliance Matrix: (Units=1/GPa)
#
#
# Indices 1 2 3 4 5 6 
#
# 1 0.006759 -0.003114 -0.001339 0.000000 0.000000 0.000000
# 2 -0.003114 0.007994 -0.005635 0.000000 0.000000 0.000000
# 3 -0.001339 -0.005635 0.029882 0.000000 0.000000 0.000000
# 4 0.000000 0.000000 0.000000 0.044359 0.000000 0.000000
# 5 0.000000 0.000000 0.000000 0.000000 -0.036784 0.000000
# 6 0.000000 0.000000 0.000000 0.000000 0.000000 0.006996
#
#
# Mechanical properties :
#
#
# Convention : Reuss Voigt Hill
#
# Bulk Modulus (GPa) = 40.88372 84.09154 62.48763
# Shear Modulus (GPa) = 57.12097 45.49225 51.30661
#
# Velocity S-wave (km/s) = 5.31668 4.74473 5.03882
# Velocity P-wave (km/s) = 7.61060 8.46347 8.04834
#
# Compressibility (1/GPa) = 0.02445961
#
# Stress axis : x y z
#
# Youngs Moduli (GPa) = 147.96147 125.08851 33.46529
#
# Poissons Ratio (x) = 0.38950 0.04481
# Poissons Ratio (y) = 0.46072 0.18856
# Poissons Ratio (z) = 0.19812 0.70483
#
# Static dielectric constant tensor:
#      x y z
#    x 1.787070 0.000000 0.000000 
#    y 0.000000 1.680220 0.000000 
#    z 0.000000 0.000000 1.657320 
# 
# From -- ./inp_files/44803.got.cif
#   From: 2010.05.17/outbox.cif.g08.bks.cpg/sg22_23_cif.got.tgz:44803.got - 2010.06.03 23:40:54.
