data_PCOD9326250
_publ_section_title
;
Structure prediction by ZEFSAII (Michael W. Deem and Ramdas Pophale) SiO2 
 PCOD9326250
Probable space group: F 2 2 2
;
_chemical_formula_sum "Si O2"
_cell_formula_units_Z 68
_cell_length_a 31.408356
_cell_length_b 22.586658
_cell_length_c 4.998409
_cell_angle_alpha 90.000000
_cell_angle_beta 90.000000
_cell_angle_gamma 90.000000
_cell_volume 3545.920306
_symmetry_space_group_name_H-M "F 2 2 2"
_symmetry_group_IT_number 22
_symmetry_cell_setting 'orthorhombic'
loop_
_space_group_symop_operation_xyz
x,y,z
-x,-y,z
x,-y,-z
-x,y,-z
x,1/2+y,1/2+z
-x,1/2-y,1/2+z
x,1/2-y,1/2-z
-x,1/2+y,1/2-z
1/2+x,y,1/2+z
1/2-x,-y,1/2+z
1/2+x,-y,1/2-z
1/2-x,y,1/2-z
1/2+x,1/2+y,z
1/2-x,1/2-y,z
1/2+x,1/2-y,-z
1/2-x,1/2+y,-z
loop_
_atom_site_type_symbol
_atom_site_label
_atom_site_fract_x
_atom_site_fract_y
_atom_site_fract_z
Si Si1 0.750000 0.250000 0.750000
Si Si2 0.132455 0.137965 0.012674
Si Si3 0.951698 0.793593 0.998072
Si Si4 0.317999 0.038297 0.260463
Si Si5 0.186594 0.340203 0.017864
O O1 0.778156 0.291291 0.941363
O O2 0.141706 0.069891 0.094311
O O3 0.149321 0.173739 0.269952
O O4 0.084292 0.156617 0.970814
O O5 0.164277 0.152392 0.767567
O O6 0.947298 0.750000 0.750000
O O7 0.946122 0.750000 0.250000
O O8 0.000000 0.817639 0.000000
O O9 0.295969 0.096512 0.130060
O O10 0.296686 0.000000 0.500000
O O11 0.328590 0.000000 0.000000
#
# Coordination Sequence:
#
# PCOD9326250 Si02
#       5
#     4  16  16  16  16
#     4  12  28  46  56  98 136 150 216 244 328 366
#     4  10  21  36  61  91 113 166 205 245 312 354
#     4  10  21  35  57  90 129 165 204 251 298 368
#     4  10  18  38  63  89 114 155 216 250 301 362
#     4  10  24  38  62  88 120 168 190 263 300 375
#
# _framework density 19.176970000000001
#
# number of rings (size 3 to 8) (size 9 to 14) (size 15 to 20)
#    1.412    0.471    2.353    1.412    4.941    1.882 
#    0.000    1.176    0.000    0.706    6.118    0.000 
#    0.000    0.000    0.000    0.000    0.000    0.000 
#
# Total GULP energy -94655.926399 kJ/mol
# GULP energy per Si atom -5567.995671 kJ/mol
# Density = 1.913332 g / cm^3
# Si number density = 19.176970 Si / 1000 Ang^3
#
#
#
# Elastic Constant Matrix: (Units=GPa)
#
#
# Indices 1 2 3 4 5 6 
#
# 1 84.0787 53.3544 26.4442 0.0262 -0.0002 -0.0079
# 2 53.3544 111.8760 37.4591 -0.0237 0.0009 0.0025
# 3 26.4442 37.4591 142.6635 -0.0125 -0.0022 -0.0013
# 4 0.0262 -0.0237 -0.0125 -5.6793 0.0000 0.0107
# 5 -0.0002 0.0009 -0.0022 0.0000 15.1969 0.0007
# 6 -0.0079 0.0025 -0.0013 0.0107 0.0007 -28.8450
#
#
#
# Elastic Compliance Matrix: (Units=1/GPa)
#
#
# Indices 1 2 3 4 5 6 
#
# 1 0.017221 -0.007833 -0.001135 0.000114 0.000001 -0.000005
# 2 -0.007833 0.013363 -0.002057 -0.000087 -0.000001 0.000003
# 3 -0.001135 -0.002057 0.007760 -0.000014 0.000001 0.000000
# 4 0.000114 -0.000087 -0.000014 -0.176078 0.000000 -0.000066
# 5 0.000001 -0.000001 0.000001 0.000000 0.065803 0.000002
# 6 -0.000005 0.000003 0.000000 -0.000066 0.000002 -0.034668
#
#
# Mechanical properties :
#
#
# Convention : Reuss Voigt Hill
#
# Bulk Modulus (GPa) = 61.37260 63.68152 62.52706
# Shear Modulus (GPa) = -63.19667 10.89190 -26.15239
#
# Velocity S-wave (km/s) = -5.74683 2.38579 -3.69689
# Velocity P-wave (km/s) = 3.45860 6.39286 3.80176
#
# Compressibility (1/GPa) = 0.01629392
#
# Stress axis : x y z
#
# Youngs Moduli (GPa) = 58.06823 74.83612 128.86574
#
# Poissons Ratio (x) = 0.58616 0.14633
# Poissons Ratio (y) = 0.45483 0.26504
# Poissons Ratio (z) = 0.06594 0.15392
#
# Static dielectric constant tensor:
#      x y z
#    x 1.712020 0.000010 0.000000 
#    y 0.000010 1.723930 0.000000 
#    z 0.000000 0.000000 1.688140 
# 
# From -- ./inp_files/6271.got.cif
#   From: 2010.05.17/outbox.cif.g08.bks.cpg/sg22_4_cif.got.tgz:6271.got - 2010.06.03 23:40:54.
