data_PCOD9326008
_publ_section_title
;
Structure prediction by ZEFSAII (Michael W. Deem and Ramdas Pophale) SiO2 
 PCOD9326008
Probable space group: F 2 2 2
;
_chemical_formula_sum "Si O2"
_cell_formula_units_Z 104
_cell_length_a 19.605093
_cell_length_b 31.689307
_cell_length_c 9.284099
_cell_angle_alpha 90.000000
_cell_angle_beta 90.000000
_cell_angle_gamma 90.000000
_cell_volume 5767.948998
_symmetry_space_group_name_H-M "F 2 2 2"
_symmetry_group_IT_number 22
_symmetry_cell_setting 'orthorhombic'
loop_
_space_group_symop_operation_xyz
x,y,z
-x,-y,z
x,-y,-z
-x,y,-z
x,1/2+y,1/2+z
-x,1/2-y,1/2+z
x,1/2-y,1/2-z
-x,1/2+y,1/2-z
1/2+x,y,1/2+z
1/2-x,-y,1/2+z
1/2+x,-y,1/2-z
1/2-x,y,1/2-z
1/2+x,1/2+y,z
1/2-x,1/2-y,z
1/2+x,1/2-y,-z
1/2-x,1/2+y,-z
loop_
_atom_site_type_symbol
_atom_site_label
_atom_site_fract_x
_atom_site_fract_y
_atom_site_fract_z
Si Si1 0.070116 0.751570 0.918875
Si Si2 0.383929 0.154068 0.416907
Si Si3 0.811698 0.812713 0.354626
Si Si4 0.929337 0.976301 0.852106
Si Si5 0.745969 0.874911 0.583364
Si Si6 0.305613 0.531415 0.366679
Si Si7 0.000000 0.598984 0.500000
O O1 0.051884 0.750000 0.750000
O O2 0.096129 0.798265 0.963891
O O3 0.136622 0.721351 0.921687
O O4 0.000000 0.740182 0.000000
O O5 0.351812 0.158767 0.259933
O O6 0.331123 0.130035 0.522340
O O7 0.452548 0.128080 0.405082
O O8 0.750000 0.796207 0.250000
O O9 0.784386 0.842094 0.480887
O O10 0.875703 0.970911 0.724425
O O11 0.953070 0.930754 0.904425
O O12 0.000000 0.000000 0.810360
O O13 0.903709 0.000000 0.000000
O O14 0.750000 0.862005 0.750000
O O15 0.779515 0.921937 0.582054
O O16 0.308935 0.500000 0.500000
O O17 0.250000 0.516869 0.250000
#
# Coordination Sequence:
#
# PCOD9326008 Si02
#       7
#    16  16  16  16  16  16   8
#     4  10  21  38  59  89 120 159 202 249 294 356
#     4  10  20  36  60  83 115 156 195 238 297 353
#     4   9  21  40  59  83 118 161 202 244 297 357
#     4   9  21  39  60  84 114 153 195 235 295 365
#     4  10  22  38  57  87 118 150 196 248 294 349
#     4  11  23  39  60  87 117 151 193 250 296 350
#     4  10  17  34  62  84 112 152 196 238 289 352
#
# _framework density 18.030671999999999
#
# number of rings (size 3 to 8) (size 9 to 14) (size 15 to 20)
#    0.000    2.308    0.769    2.308    0.000   14.154 
#    5.538    0.769    0.000    0.000    0.000    0.000 
#    0.000    0.000    0.000    0.000    0.000    0.000 
#
# Total GULP energy -144785.908406 kJ/mol
# GULP energy per Si atom -5568.688785 kJ/mol
# Density = 1.798963 g / cm^3
# Si number density = 18.030672 Si / 1000 Ang^3
#
#
#
# Elastic Constant Matrix: (Units=GPa)
#
#
# Indices 1 2 3 4 5 6 
#
# 1 115.0422 74.4926 61.3742 0.0000 0.0000 0.0000
# 2 74.4926 111.6667 73.6830 0.0000 0.0000 0.0000
# 3 61.3742 73.6830 98.0369 0.0000 0.0000 0.0000
# 4 0.0000 0.0000 0.0000 -8.3136 0.0000 0.0000
# 5 0.0000 0.0000 0.0000 0.0000 37.7163 0.0000
# 6 0.0000 0.0000 0.0000 0.0000 0.0000 11.6067
#
#
#
# Elastic Compliance Matrix: (Units=1/GPa)
#
#
# Indices 1 2 3 4 5 6 
#
# 1 0.016045 -0.008085 -0.003968 0.000000 0.000000 0.000000
# 2 -0.008085 0.021840 -0.011353 0.000000 0.000000 0.000000
# 3 -0.003968 -0.011353 0.021217 0.000000 0.000000 0.000000
# 4 0.000000 0.000000 0.000000 -0.120285 0.000000 0.000000
# 5 0.000000 0.000000 0.000000 0.000000 0.026514 0.000000
# 6 0.000000 0.000000 0.000000 0.000000 0.000000 0.086157
#
#
# Mechanical properties :
#
#
# Convention : Reuss Voigt Hill
#
# Bulk Modulus (GPa) = 81.36929 82.64950 82.00939
# Shear Modulus (GPa) = 48.82966 15.88161 32.35563
#
# Velocity S-wave (km/s) = 5.20963 2.97107 4.24072
# Velocity P-wave (km/s) = 9.02293 7.59654 8.34028
#
# Compressibility (1/GPa) = 0.01228965
#
# Stress axis : x y z
#
# Youngs Moduli (GPa) = 62.32633 45.78704 47.13202
#
# Poissons Ratio (x) = 0.37020 0.18700
# Poissons Ratio (y) = 0.50392 0.53510
# Poissons Ratio (z) = 0.24729 0.51983
#
# Static dielectric constant tensor:
#      x y z
#    x 1.673130 0.000000 0.000000 
#    y 0.000000 1.637380 0.000000 
#    z 0.000000 0.000000 1.585770 
# 
# From -- ./inp_files/13073.got.cif
#   From: 2010.05.17/outbox.cif.g08.bks.cpg/sg22_7_cif.got.tgz:13073.got - 2010.06.03 23:40:54.
