data_PCOD9326694
_publ_section_title
;
Structure prediction by ZEFSAII (Michael W. Deem and Ramdas Pophale) SiO2 
 PCOD9326694
Probable space group: F 2 2 2
;
_chemical_formula_sum "Si O2"
_cell_formula_units_Z 116
_cell_length_a 21.786547
_cell_length_b 16.996147
_cell_length_c 12.457223
_cell_angle_alpha 90.000000
_cell_angle_beta 90.000000
_cell_angle_gamma 90.000000
_cell_volume 4612.752161
_symmetry_space_group_name_H-M "F 2 2 2"
_symmetry_group_IT_number 22
_symmetry_cell_setting 'orthorhombic'
loop_
_space_group_symop_operation_xyz
x,y,z
-x,-y,z
x,-y,-z
-x,y,-z
x,1/2+y,1/2+z
-x,1/2-y,1/2+z
x,1/2-y,1/2-z
-x,1/2+y,1/2-z
1/2+x,y,1/2+z
1/2-x,-y,1/2+z
1/2+x,-y,1/2-z
1/2-x,y,1/2-z
1/2+x,1/2+y,z
1/2-x,1/2-y,z
1/2+x,1/2-y,-z
1/2-x,1/2+y,-z
loop_
_atom_site_type_symbol
_atom_site_label
_atom_site_fract_x
_atom_site_fract_y
_atom_site_fract_z
Si Si1 0.864818 0.417712 0.626069
Si Si2 0.176823 0.939942 0.243865
Si Si3 0.171928 0.320764 0.584548
Si Si4 0.000000 0.500000 0.500000
Si Si5 0.010897 0.688875 0.880581
Si Si6 0.006973 0.371262 0.658705
Si Si7 0.155648 0.676158 0.822773
Si Si8 0.684788 0.147796 0.059537
O O1 0.845834 0.507361 0.642135
O O2 0.845146 0.365788 0.525234
O O3 0.936166 0.398432 0.643743
O O4 0.835310 0.391585 0.738077
O O5 0.250000 0.951556 0.250000
O O6 0.151556 0.857174 0.196460
O O7 0.161061 0.926335 0.371093
O O8 0.245359 0.333129 0.592839
O O9 0.150938 0.230954 0.578427
O O10 0.035101 0.437872 0.579564
O O11 0.982526 0.634393 0.786458
O O12 0.988341 0.780107 0.876753
O O13 0.083963 0.691413 0.852857
O O14 0.000000 0.658333 0.000000
O O15 0.176394 0.750000 0.750000
O O16 0.186556 0.646625 0.931052
#
# Coordination Sequence:
#
# PCOD9326694 Si02
#       8
#    16  16  16   4  16  16  16  16
#     4  11  22  39  61  90 126 164 201 259 312 370
#     4  10  23  38  56  86 129 171 210 253 310 368
#     4  10  20  37  61  85 121 168 218 256 304 357
#     4  12  24  40  66 100 132 154 200 270 328 368
#     4  10  19  43  70  90 119 168 206 248 310 388
#     4  10  22  40  66  96 128 161 203 258 323 373
#     4  11  20  39  64  89 123 153 207 258 307 363
#     4  10  21  38  59  88 120 167 214 263 299 362
#
# _framework density 25.147676000000001
#
# number of rings (size 3 to 8) (size 9 to 14) (size 15 to 20)
#    0.000    1.655    4.828    0.828    3.862    2.207 
#    2.483    0.345    3.034    0.000    0.000    0.000 
#    0.000    0.000    0.000    0.000    0.000    0.000 
#
# Total GULP energy -161509.599595 kJ/mol
# GULP energy per Si atom -5569.296538 kJ/mol
# Density = 2.509044 g / cm^3
# Si number density = 25.147676 Si / 1000 Ang^3
#
#
#
# Elastic Constant Matrix: (Units=GPa)
#
#
# Indices 1 2 3 4 5 6 
#
# 1 71.7366 14.5734 13.3115 0.0000 0.0000 0.0000
# 2 14.5734 47.7739 14.0376 0.0000 0.0000 0.0000
# 3 13.3115 14.0376 146.8004 0.0000 0.0000 0.0000
# 4 0.0000 0.0000 0.0000 63.6072 0.0000 0.0000
# 5 0.0000 0.0000 0.0000 0.0000 21.7339 0.0000
# 6 0.0000 0.0000 0.0000 0.0000 0.0000 1.2645
#
#
#
# Elastic Compliance Matrix: (Units=1/GPa)
#
#
# Indices 1 2 3 4 5 6 
#
# 1 0.014988 -0.004293 -0.000949 0.000000 0.000000 0.000000
# 2 -0.004293 0.022767 -0.001788 0.000000 0.000000 0.000000
# 3 -0.000949 -0.001788 0.007069 0.000000 0.000000 0.000000
# 4 0.000000 0.000000 0.000000 0.015721 0.000000 0.000000
# 5 0.000000 0.000000 0.000000 0.000000 0.046011 0.000000
# 6 0.000000 0.000000 0.000000 0.000000 0.000000 0.790827
#
#
# Mechanical properties :
#
#
# Convention : Reuss Voigt Hill
#
# Bulk Modulus (GPa) = 32.50489 38.90622 35.70555
# Shear Modulus (GPa) = 5.42477 32.28035 18.85256
#
# Velocity S-wave (km/s) = 1.47032 3.58667 2.74099
# Velocity P-wave (km/s) = 3.97946 5.71462 4.92408
#
# Compressibility (1/GPa) = 0.03076460
#
# Stress axis : x y z
#
# Youngs Moduli (GPa) = 66.71961 43.92333 141.46408
#
# Poissons Ratio (x) = 0.18858 0.13418
# Poissons Ratio (y) = 0.28645 0.25290
# Poissons Ratio (z) = 0.06329 0.07852
#
# Static dielectric constant tensor:
#      x y z
#    x 2.097720 0.000000 0.000000 
#    y 0.000000 1.659900 0.000000 
#    z 0.000000 0.000000 2.049020 
# 
# From -- ./inp_files/25512.got.cif
#   From: 2010.05.17/outbox.cif.g08.bks.cpg/sg22_13_cif.got.tgz:25512.got - 2010.06.03 23:40:54.
