data_PCOD9326334
_publ_section_title
;
Structure prediction by ZEFSAII (Michael W. Deem and Ramdas Pophale) SiO2 
 PCOD9326334
Probable space group: F 2 2 2
;
_chemical_formula_sum "Si O2"
_cell_formula_units_Z 104
_cell_length_a 27.717060
_cell_length_b 8.373153
_cell_length_c 20.058236
_cell_angle_alpha 90.000000
_cell_angle_beta 90.000000
_cell_angle_gamma 90.000000
_cell_volume 4655.099045
_symmetry_space_group_name_H-M "F 2 2 2"
_symmetry_group_IT_number 22
_symmetry_cell_setting 'orthorhombic'
loop_
_space_group_symop_operation_xyz
x,y,z
-x,-y,z
x,-y,-z
-x,y,-z
x,1/2+y,1/2+z
-x,1/2-y,1/2+z
x,1/2-y,1/2-z
-x,1/2+y,1/2-z
1/2+x,y,1/2+z
1/2-x,-y,1/2+z
1/2+x,-y,1/2-z
1/2-x,y,1/2-z
1/2+x,1/2+y,z
1/2-x,1/2-y,z
1/2+x,1/2-y,-z
1/2-x,1/2+y,-z
loop_
_atom_site_type_symbol
_atom_site_label
_atom_site_fract_x
_atom_site_fract_y
_atom_site_fract_z
Si Si1 0.306119 0.750000 0.386050
Si Si2 0.448876 0.442635 0.576914
Si Si3 0.654634 0.073773 0.895023
Si Si4 0.133177 0.082523 0.250000
Si Si5 0.869151 0.750000 0.750000
Si Si6 0.051124 0.057365 0.923086
Si Si7 0.845366 0.426227 0.604977
O O1 0.250000 0.750000 0.371214
O O2 0.320116 0.584762 0.422755
O O3 0.337123 0.750000 0.317246
O O4 0.320116 0.915238 0.422755
O O5 0.500000 0.500000 0.606037
O O6 0.449346 0.500000 0.500000
O O7 0.402286 0.533201 0.604633
O O8 0.443735 0.250000 0.581111
O O9 0.665872 0.081660 0.816088
O O10 0.663717 0.250000 0.923849
O O11 0.105511 0.250000 0.250000
O O12 0.165872 0.081660 0.183912
O O13 0.103573 0.917708 0.250000
O O14 0.097714 0.966799 0.895367
O O15 0.000000 0.000000 0.893963
O O16 0.050654 0.000000 0.000000
#
# Coordination Sequence:
#
# PCOD9326334 Si02
#       7
#    16  16  16  16   8  16  16
#     4  10  19  32  52  79 109 145 186 222 268 319
#     4  11  21  36  57  85 109 137 178 227 273 322
#     4  10  19  35  54  80 111 147 180 224 269 319
#     4   8  16  29  50  74 108 144 179 214 265 318
#     4   8  15  28  48  74 104 138 180 228 266 308
#     4  11  21  36  57  85 109 137 178 227 273 322
#     4  10  19  35  54  80 111 147 180 224 269 319
#
# _framework density 22.341092
#
# number of rings (size 3 to 8) (size 9 to 14) (size 15 to 20)
#    0.000    2.154    1.538    3.923    0.000    0.615 
#    0.000    0.769    0.000   10.154    0.000    0.000 
#    0.000    0.000    0.000    0.000    0.000    0.000 
#
# Total GULP energy -144796.793449 kJ/mol
# GULP energy per Si atom -5569.107440 kJ/mol
# Density = 2.229024 g / cm^3
# Si number density = 22.341092 Si / 1000 Ang^3
#
#
#
# Elastic Constant Matrix: (Units=GPa)
#
#
# Indices 1 2 3 4 5 6 
#
# 1 59.1017 22.2286 6.4323 0.0000 0.0000 0.0000
# 2 22.2286 288.1943 16.2241 0.0000 0.0000 0.0000
# 3 6.4323 16.2241 34.7292 0.0000 0.0000 0.0000
# 4 0.0000 0.0000 0.0000 23.4421 0.0000 0.0000
# 5 0.0000 0.0000 0.0000 0.0000 9.5749 0.0000
# 6 0.0000 0.0000 0.0000 0.0000 0.0000 15.1623
#
#
#
# Elastic Compliance Matrix: (Units=1/GPa)
#
#
# Indices 1 2 3 4 5 6 
#
# 1 0.017670 -0.001210 -0.002707 0.000000 0.000000 0.000000
# 2 -0.001210 0.003647 -0.001479 0.000000 0.000000 0.000000
# 3 -0.002707 -0.001479 0.029987 0.000000 0.000000 0.000000
# 4 0.000000 0.000000 0.000000 0.042658 0.000000 0.000000
# 5 0.000000 0.000000 0.000000 0.000000 0.104440 0.000000
# 6 0.000000 0.000000 0.000000 0.000000 0.000000 0.065953
#
#
# Mechanical properties :
#
#
# Convention : Reuss Voigt Hill
#
# Bulk Modulus (GPa) = 24.68579 52.42169 38.55374
# Shear Modulus (GPa) = 17.32191 32.11186 24.71688
#
# Velocity S-wave (km/s) = 2.78751 3.79535 3.32978
# Velocity P-wave (km/s) = 4.62966 6.53616 5.66371
#
# Compressibility (1/GPa) = 0.04050914
#
# Stress axis : x y z
#
# Youngs Moduli (GPa) = 56.59344 274.23362 33.34808
#
# Poissons Ratio (x) = 0.33196 0.09028
# Poissons Ratio (y) = 0.06851 0.04933
# Poissons Ratio (z) = 0.15321 0.40568
#
# Static dielectric constant tensor:
#      x y z
#    x 1.780820 0.000000 0.000000 
#    y 0.000000 1.949120 0.000000 
#    z 0.000000 0.000000 1.940930 
# 
# From -- ./inp_files/50466.got.cif
#   From: 2010.05.17/outbox.cif.g08.bks.cpg/sg22_26_cif.got.tgz:50466.got - 2010.06.03 23:40:54.
