data_PCOD9326644
_publ_section_title
;
Structure prediction by ZEFSAII (Michael W. Deem and Ramdas Pophale) SiO2 
 PCOD9326644
Probable space group: F 2 2 2
;
_chemical_formula_sum "Si O2"
_cell_formula_units_Z 112
_cell_length_a 28.148887
_cell_length_b 7.365810
_cell_length_c 23.936159
_cell_angle_alpha 90.000000
_cell_angle_beta 90.000000
_cell_angle_gamma 90.000000
_cell_volume 4962.907729
_symmetry_space_group_name_H-M "F 2 2 2"
_symmetry_group_IT_number 22
_symmetry_cell_setting 'orthorhombic'
loop_
_space_group_symop_operation_xyz
x,y,z
-x,-y,z
x,-y,-z
-x,y,-z
x,1/2+y,1/2+z
-x,1/2-y,1/2+z
x,1/2-y,1/2-z
-x,1/2+y,1/2-z
1/2+x,y,1/2+z
1/2-x,-y,1/2+z
1/2+x,-y,1/2-z
1/2-x,y,1/2-z
1/2+x,1/2+y,z
1/2-x,1/2-y,z
1/2+x,1/2-y,-z
1/2-x,1/2+y,-z
loop_
_atom_site_type_symbol
_atom_site_label
_atom_site_fract_x
_atom_site_fract_y
_atom_site_fract_z
Si Si1 0.773585 0.495220 0.565624
Si Si2 0.506349 0.713775 0.186357
Si Si3 0.381060 0.734320 0.812899
Si Si4 0.056000 0.635269 0.085861
Si Si5 0.585266 0.272002 0.536773
Si Si6 0.872792 0.573332 0.602946
Si Si7 0.177170 0.111167 0.409680
O O1 0.764800 0.500000 0.500000
O O2 0.820956 0.607705 0.577986
O O3 0.794718 0.301481 0.584198
O O4 0.721356 0.526191 0.590892
O O5 0.500000 0.500000 0.175891
O O6 0.488551 0.750000 0.250000
O O7 0.562149 0.763366 0.186201
O O8 0.478824 0.809728 0.135923
O O9 0.364336 0.750000 0.750000
O O10 0.371811 0.535311 0.839034
O O11 0.353313 0.871144 0.853384
O O12 0.943582 0.578056 0.072319
O O13 0.103763 0.731709 0.107665
O O14 0.058221 0.724588 0.022669
O O15 0.596561 0.074425 0.564429
O O16 0.637811 0.365559 0.541133
#
# Coordination Sequence:
#
# PCOD9326644 Si02
#       7
#    16  16  16  16  16  16  16
#     4   9  17  31  58  84 121 168 213 253 322 402
#     4  11  24  43  68  99 127 174 238 288 341 412
#     4   9  19  38  65  86 122 172 225 282 334 394
#     4  11  21  38  65  95 127 173 214 267 342 403
#     4   9  21  37  62  93 132 165 214 264 330 408
#     4  10  19  39  62  94 133 172 215 275 331 399
#     4   9  19  36  55  89 126 168 211 271 323 395
#
# _framework density 22.567416000000001
#
# number of rings (size 3 to 8) (size 9 to 14) (size 15 to 20)
#    0.000    2.571    1.429    2.143    2.000    4.571 
#    0.000    8.571    3.143    0.000    0.000    0.000 
#    0.000    0.000    0.000    0.000    0.000    0.000 
#
# Total GULP energy -155920.861973 kJ/mol
# GULP energy per Si atom -5568.602213 kJ/mol
# Density = 2.251605 g / cm^3
# Si number density = 22.567416 Si / 1000 Ang^3
#
#
#
# Elastic Constant Matrix: (Units=GPa)
#
#
# Indices 1 2 3 4 5 6 
#
# 1 137.6877 22.7487 71.1499 0.0000 0.0000 0.0000
# 2 22.7487 105.1272 51.1236 0.0000 0.0000 0.0002
# 3 71.1499 51.1236 171.0880 0.0000 0.0000 0.0000
# 4 0.0000 0.0000 0.0000 27.1535 0.0000 0.0000
# 5 0.0000 0.0000 0.0000 0.0000 25.4764 0.0000
# 6 0.0000 0.0002 0.0000 0.0000 0.0000 25.3948
#
#
#
# Elastic Compliance Matrix: (Units=1/GPa)
#
#
# Indices 1 2 3 4 5 6 
#
# 1 0.009253 -0.000153 -0.003802 0.000000 0.000000 0.000000
# 2 -0.000153 0.011132 -0.003263 0.000000 0.000000 0.000000
# 3 -0.003802 -0.003263 0.008401 0.000000 0.000000 0.000000
# 4 0.000000 0.000000 0.000000 0.036828 0.000000 0.000000
# 5 0.000000 0.000000 0.000000 0.000000 0.039252 0.000000
# 6 0.000000 0.000000 0.000000 0.000000 0.000000 0.039378
#
#
# Mechanical properties :
#
#
# Convention : Reuss Voigt Hill
#
# Bulk Modulus (GPa) = 69.68726 78.21639 73.95182
# Shear Modulus (GPa) = 30.58786 33.53031 32.05909
#
# Velocity S-wave (km/s) = 3.68557 3.85877 3.77316
# Velocity P-wave (km/s) = 7.00413 7.38835 7.19880
#
# Compressibility (1/GPa) = 0.01434983
#
# Stress axis : x y z
#
# Youngs Moduli (GPa) = 108.07413 89.83023 119.03201
#
# Poissons Ratio (x) = 0.01377 0.45258
# Poissons Ratio (y) = 0.01656 0.38837
# Poissons Ratio (z) = 0.41092 0.29309
#
# Static dielectric constant tensor:
#      x y z
#    x 2.030510 0.000000 0.000000 
#    y 0.000000 1.845230 0.000000 
#    z 0.000000 0.000000 1.870750 
# 
# From -- ./inp_files/50515.got.cif
#   From: 2010.05.17/outbox.cif.g08.bks.cpg/sg22_26_cif.got.tgz:50515.got - 2010.06.03 23:40:54.
