data_PCOD9326913
_publ_section_title
;
Structure prediction by ZEFSAII (Michael W. Deem and Ramdas Pophale) SiO2 
 PCOD9326913
Probable space group: F 2 2 2
;
_chemical_formula_sum "Si O2"
_cell_formula_units_Z 104
_cell_length_a 16.968855
_cell_length_b 18.408837
_cell_length_c 17.716890
_cell_angle_alpha 90.000000
_cell_angle_beta 90.000000
_cell_angle_gamma 90.000000
_cell_volume 5534.346924
_symmetry_space_group_name_H-M "F 2 2 2"
_symmetry_group_IT_number 22
_symmetry_cell_setting 'orthorhombic'
loop_
_space_group_symop_operation_xyz
x,y,z
-x,-y,z
x,-y,-z
-x,y,-z
x,1/2+y,1/2+z
-x,1/2-y,1/2+z
x,1/2-y,1/2-z
-x,1/2+y,1/2-z
1/2+x,y,1/2+z
1/2-x,-y,1/2+z
1/2+x,-y,1/2-z
1/2-x,y,1/2-z
1/2+x,1/2+y,z
1/2-x,1/2-y,z
1/2+x,1/2-y,-z
1/2-x,1/2+y,-z
loop_
_atom_site_type_symbol
_atom_site_label
_atom_site_fract_x
_atom_site_fract_y
_atom_site_fract_z
Si Si1 0.000000 0.500000 0.816116
Si Si2 0.554687 0.224858 0.335003
Si Si3 0.942437 0.319994 0.932842
Si Si4 0.638389 0.528665 0.415748
Si Si5 0.167529 0.710838 0.475535
Si Si6 0.960993 0.425550 0.669017
Si Si7 0.182682 0.059329 0.061350
O O1 0.077337 0.481865 0.865165
O O2 0.032887 0.560320 0.758480
O O3 0.575994 0.250000 0.250000
O O4 0.496428 0.286234 0.368021
O O5 0.626032 0.213660 0.393809
O O6 0.507941 0.148616 0.342070
O O7 0.891329 0.388639 0.909065
O O8 0.889091 0.256146 0.968265
O O9 0.000000 0.345110 0.000000
O O10 0.626902 0.500000 0.500000
O O11 0.732980 0.531671 0.406268
O O12 0.250000 0.750000 0.469324
O O13 0.185183 0.632682 0.511844
O O14 0.876254 0.425025 0.630184
O O15 0.000000 0.500000 0.636757
O O16 0.154367 0.000000 0.000000
#
# Coordination Sequence:
#
# PCOD9326913 Si02
#       7
#     8  16  16  16  16  16  16
#     4  10  23  40  59  90 132 162 210 252 321 376
#     4  11  23  39  65  93 127 170 212 257 329 392
#     4  10  20  36  63  90 122 164 209 259 313 382
#     4  11  22  39  66  93 128 167 212 266 316 383
#     4  11  22  41  64  93 127 161 213 268 317 374
#     4  10  23  42  63  91 127 169 208 266 321 382
#     4  11  23  40  66  95 120 165 219 265 318 376
#
# _framework density 18.791739
#
# number of rings (size 3 to 8) (size 9 to 14) (size 15 to 20)
#    0.462    0.923    3.077    3.000    0.000    3.692 
#    0.000    0.000    3.385    0.462    0.000    0.000 
#    0.000    0.000    0.000    0.000    0.000    0.000 
#
# Total GULP energy -144878.467929 kJ/mol
# GULP energy per Si atom -5572.248766 kJ/mol
# Density = 1.874897 g / cm^3
# Si number density = 18.791739 Si / 1000 Ang^3
#
#
#
# Elastic Constant Matrix: (Units=GPa)
#
#
# Indices 1 2 3 4 5 6 
#
# 1 103.9366 22.2943 70.3214 0.0000 0.0000 0.0000
# 2 22.2943 79.0755 32.0466 0.0000 0.0000 0.0000
# 3 70.3214 32.0466 112.5779 0.0000 0.0000 0.0000
# 4 0.0000 0.0000 0.0000 17.0481 0.0000 0.0000
# 5 0.0000 0.0000 0.0000 0.0000 -73.5749 0.0000
# 6 0.0000 0.0000 0.0000 0.0000 0.0000 21.8150
#
#
#
# Elastic Compliance Matrix: (Units=1/GPa)
#
#
# Indices 1 2 3 4 5 6 
#
# 1 0.016684 -0.000543 -0.010267 0.000000 0.000000 0.000000
# 2 -0.000543 0.014313 -0.003735 0.000000 0.000000 0.000000
# 3 -0.010267 -0.003735 0.016359 0.000000 0.000000 0.000000
# 4 0.000000 0.000000 0.000000 0.058658 0.000000 0.000000
# 5 0.000000 0.000000 0.000000 0.000000 -0.013592 0.000000
# 6 0.000000 0.000000 0.000000 0.000000 0.000000 0.045840
#
#
# Mechanical properties :
#
#
# Convention : Reuss Voigt Hill
#
# Bulk Modulus (GPa) = 54.74684 60.54607 57.64645
# Shear Modulus (GPa) = 28.82804 4.45282 16.64043
#
# Velocity S-wave (km/s) = 3.92098 1.54101 2.97899
# Velocity P-wave (km/s) = 7.04950 5.95447 6.52500
#
# Compressibility (1/GPa) = 0.01826590
#
# Stress axis : x y z
#
# Youngs Moduli (GPa) = 59.93643 69.86672 61.12684
#
# Poissons Ratio (x) = 0.03793 0.62761
# Poissons Ratio (y) = 0.03254 0.22832
# Poissons Ratio (z) = 0.61538 0.26097
#
# Static dielectric constant tensor:
#      x y z
#    x 1.656000 0.000000 0.000000 
#    y 0.000000 1.793600 0.000000 
#    z 0.000000 0.000000 1.665360 
# 
# From -- ./inp_files/38121.got.cif
#   From: 2010.05.17/outbox.cif.g08.bks.cpg/sg22_20_cif.got.tgz:38121.got - 2010.06.03 23:40:54.
