data_PCOD9326743
_publ_section_title
;
Structure prediction by ZEFSAII (Michael W. Deem and Ramdas Pophale) SiO2 
 PCOD9326743
Probable space group: F 2 2 2
;
_chemical_formula_sum "Si O2"
_cell_formula_units_Z 104
_cell_length_a 24.801204
_cell_length_b 9.098190
_cell_length_c 25.206264
_cell_angle_alpha 90.000000
_cell_angle_beta 90.000000
_cell_angle_gamma 90.000000
_cell_volume 5687.694316
_symmetry_space_group_name_H-M "F 2 2 2"
_symmetry_group_IT_number 22
_symmetry_cell_setting 'orthorhombic'
loop_
_space_group_symop_operation_xyz
x,y,z
-x,-y,z
x,-y,-z
-x,y,-z
x,1/2+y,1/2+z
-x,1/2-y,1/2+z
x,1/2-y,1/2-z
-x,1/2+y,1/2-z
1/2+x,y,1/2+z
1/2-x,-y,1/2+z
1/2+x,-y,1/2-z
1/2-x,y,1/2-z
1/2+x,1/2+y,z
1/2-x,1/2-y,z
1/2+x,1/2-y,-z
1/2-x,1/2+y,-z
loop_
_atom_site_type_symbol
_atom_site_label
_atom_site_fract_x
_atom_site_fract_y
_atom_site_fract_z
Si Si1 0.783862 0.546084 0.341456
Si Si2 0.354632 0.230966 0.416849
Si Si3 0.667705 0.750000 0.250000
Si Si4 0.694496 0.833441 0.981016
Si Si5 0.563644 0.990266 0.564204
Si Si6 0.154707 0.022151 0.334796
Si Si7 0.857676 0.224364 0.125052
O O1 0.803138 0.643212 0.392243
O O2 0.800114 0.648706 0.291932
O O3 0.720530 0.513470 0.336152
O O4 0.819765 0.398808 0.347404
O O5 0.346620 0.259390 0.478429
O O6 0.406031 0.128790 0.409978
O O7 0.360335 0.383631 0.386534
O O8 0.638366 0.628260 0.286128
O O9 0.750000 0.750000 0.987879
O O10 0.676004 0.805182 0.921460
O O11 0.700596 0.000000 0.000000
O O12 0.500000 0.000000 0.572919
O O13 0.572442 0.000000 0.500000
O O14 0.592893 0.854112 0.594198
O O15 0.130296 0.859439 0.335615
#
# Coordination Sequence:
#
# PCOD9326743 Si02
#       7
#    16  16   8  16  16  16  16
#     4  10  20  34  52  81 114 153 187 223 266 333
#     4  10  20  33  52  77 109 149 187 221 273 332
#     4  10  21  36  56  76 114 162 188 218 278 328
#     4  12  23  32  49  80 121 160 182 215 266 326
#     4  10  21  39  57  75 107 150 192 235 280 332
#     4  11  19  35  53  81 115 147 187 228 270 328
#     4  11  23  34  52  84 112 147 192 233 270 326
#
# _framework density 18.28509
#
# number of rings (size 3 to 8) (size 9 to 14) (size 15 to 20)
#    0.000    1.385    3.077    5.077    4.308    0.615 
#    0.000    2.308    0.000    2.769    0.000   58.154 
#    0.000    0.000    0.000    0.000    0.000    0.000 
#
# Total GULP energy -144990.275080 kJ/mol
# GULP energy per Si atom -5576.549042 kJ/mol
# Density = 1.824347 g / cm^3
# Si number density = 18.285090 Si / 1000 Ang^3
#
#
#
# Elastic Constant Matrix: (Units=GPa)
#
#
# Indices 1 2 3 4 5 6 
#
# 1 70.7357 45.1237 8.9441 0.0000 0.0000 0.0000
# 2 45.1237 150.9049 33.1330 0.0000 0.0000 0.0000
# 3 8.9441 33.1330 72.5027 0.0000 0.0000 0.0000
# 4 0.0000 0.0000 0.0000 41.2597 0.0000 0.0000
# 5 0.0000 0.0000 0.0000 0.0000 9.7034 0.0000
# 6 0.0000 0.0000 0.0000 0.0000 0.0000 10.6548
#
#
#
# Elastic Compliance Matrix: (Units=1/GPa)
#
#
# Indices 1 2 3 4 5 6 
#
# 1 0.017474 -0.005282 0.000258 0.000000 0.000000 0.000000
# 2 -0.005282 0.008962 -0.003444 0.000000 0.000000 0.000000
# 3 0.000258 -0.003444 0.015335 0.000000 0.000000 0.000000
# 4 0.000000 0.000000 0.000000 0.024237 0.000000 0.000000
# 5 0.000000 0.000000 0.000000 0.000000 0.103057 0.000000
# 6 0.000000 0.000000 0.000000 0.000000 0.000000 0.093854
#
#
# Mechanical properties :
#
#
# Convention : Reuss Voigt Hill
#
# Bulk Modulus (GPa) = 40.26529 52.06053 46.16291
# Shear Modulus (GPa) = 17.35311 26.11974 21.73642
#
# Velocity S-wave (km/s) = 3.08398 3.78361 3.45157
# Velocity P-wave (km/s) = 5.89490 6.90080 6.41759
#
# Compressibility (1/GPa) = 0.02483529
#
# Stress axis : x y z
#
# Youngs Moduli (GPa) = 57.22853 111.57953 65.21174
#
# Poissons Ratio (x) = 0.58933 -0.01683
# Poissons Ratio (y) = 0.30226 0.22459
# Poissons Ratio (z) = -0.01477 0.38429
#
# Static dielectric constant tensor:
#      x y z
#    x 1.574720 0.000000 0.000000 
#    y 0.000000 1.670240 0.000000 
#    z 0.000000 0.000000 1.686910 
# 
# From -- ./inp_files/47510.got.cif
#   From: 2010.05.17/outbox.cif.g08.bks.cpg/sg22_24_cif.got.tgz:47510.got - 2010.06.03 23:40:54.
