data_PCOD9326214
_publ_section_title
;
Structure prediction by ZEFSAII (Michael W. Deem and Ramdas Pophale) SiO2 
 PCOD9326214
Probable space group: F 2 2 2
;
_chemical_formula_sum "Si O2"
_cell_formula_units_Z 104
_cell_length_a 19.178629
_cell_length_b 16.766534
_cell_length_c 17.064686
_cell_angle_alpha 90.000000
_cell_angle_beta 90.000000
_cell_angle_gamma 90.000000
_cell_volume 5487.305673
_symmetry_space_group_name_H-M "F 2 2 2"
_symmetry_group_IT_number 22
_symmetry_cell_setting 'orthorhombic'
loop_
_space_group_symop_operation_xyz
x,y,z
-x,-y,z
x,-y,-z
-x,y,-z
x,1/2+y,1/2+z
-x,1/2-y,1/2+z
x,1/2-y,1/2-z
-x,1/2+y,1/2-z
1/2+x,y,1/2+z
1/2-x,-y,1/2+z
1/2+x,-y,1/2-z
1/2-x,y,1/2-z
1/2+x,1/2+y,z
1/2-x,1/2-y,z
1/2+x,1/2-y,-z
1/2-x,1/2+y,-z
loop_
_atom_site_type_symbol
_atom_site_label
_atom_site_fract_x
_atom_site_fract_y
_atom_site_fract_z
Si Si1 0.712806 0.090573 0.978221
Si Si2 0.276260 0.335473 0.162878
Si Si3 0.139805 0.908901 0.032823
Si Si4 0.456812 0.575500 0.171644
Si Si5 0.000000 0.000000 0.674940
Si Si6 0.427876 0.185984 0.391526
Si Si7 0.438241 0.366690 0.437366
O O1 0.741290 0.097944 0.889874
O O2 0.636939 0.129075 0.979609
O O3 0.780392 0.121615 0.025878
O O4 0.701822 0.000000 0.000000
O O5 0.250000 0.341374 0.250000
O O6 0.250000 0.250000 0.130059
O O7 0.358929 0.335847 0.157559
O O8 0.112204 0.913088 0.121140
O O9 0.090150 0.854616 0.976526
O O10 0.138907 0.000000 0.000000
O O11 0.500000 0.500000 0.136573
O O12 0.453921 0.552797 0.263479
O O13 0.506351 0.649056 0.151958
O O14 0.953706 0.059967 0.622249
O O15 0.437637 0.280310 0.397243
O O16 0.500000 0.369924 0.500000
#
# Coordination Sequence:
#
# PCOD9326214 Si02
#       7
#    16  16  16  16   8  16  16
#     4  10  22  38  60  86 124 171 207 250 317 387
#     4  10  21  37  60  96 131 152 196 272 329 371
#     4  10  18  36  60  90 126 156 200 263 325 377
#     4  10  21  36  58  94 128 158 202 265 328 377
#     4  10  25  38  61  88 132 170 208 268 317 384
#     4  11  22  36  64  94 121 168 210 263 325 385
#     4  12  24  43  62  86 124 175 223 260 313 392
#
# _framework density 18.952835
#
# number of rings (size 3 to 8) (size 9 to 14) (size 15 to 20)
#    0.462    1.077    3.077    2.538    2.154    0.615 
#    0.000    0.000    0.000    0.000    0.000    0.000 
#    0.000    7.077    0.000    0.000    0.000    0.000 
#
# Total GULP energy -144947.205469 kJ/mol
# GULP energy per Si atom -5574.892518 kJ/mol
# Density = 1.890970 g / cm^3
# Si number density = 18.952835 Si / 1000 Ang^3
#
#
#
# Elastic Constant Matrix: (Units=GPa)
#
#
# Indices 1 2 3 4 5 6 
#
# 1 121.0360 19.5304 44.5150 0.0000 0.0000 0.0000
# 2 19.5304 94.5531 18.9479 0.0000 0.0000 0.0000
# 3 44.5150 18.9479 68.8660 0.0000 0.0000 0.0000
# 4 0.0000 0.0000 0.0000 23.2239 0.0000 0.0000
# 5 0.0000 0.0000 0.0000 0.0000 15.5831 0.0000
# 6 0.0000 0.0000 0.0000 0.0000 0.0000 18.2046
#
#
#
# Elastic Compliance Matrix: (Units=1/GPa)
#
#
# Indices 1 2 3 4 5 6 
#
# 1 0.010909 -0.000889 -0.006807 0.000000 0.000000 0.000000
# 2 -0.000889 0.011266 -0.002525 0.000000 0.000000 0.000000
# 3 -0.006807 -0.002525 0.019616 0.000000 0.000000 0.000000
# 4 0.000000 0.000000 0.000000 0.043059 0.000000 0.000000
# 5 0.000000 0.000000 0.000000 0.000000 0.064172 0.000000
# 6 0.000000 0.000000 0.000000 0.000000 0.000000 0.054931
#
#
# Mechanical properties :
#
#
# Convention : Reuss Voigt Hill
#
# Bulk Modulus (GPa) = 46.84211 50.04909 48.44560
# Shear Modulus (GPa) = 21.59727 24.83310 23.21518
#
# Velocity S-wave (km/s) = 3.37935 3.62368 3.50364
# Velocity P-wave (km/s) = 6.32419 6.63118 6.47950
#
# Compressibility (1/GPa) = 0.02134831
#
# Stress axis : x y z
#
# Youngs Moduli (GPa) = 91.66796 88.76494 50.97981
#
# Poissons Ratio (x) = 0.07893 0.34701
# Poissons Ratio (y) = 0.08151 0.12872
# Poissons Ratio (z) = 0.62397 0.22412
#
# Static dielectric constant tensor:
#      x y z
#    x 1.682330 0.000000 0.000000 
#    y 0.000000 1.658910 0.000000 
#    z 0.000000 0.000000 1.664870 
# 
# From -- ./inp_files/38115.got.cif
#   From: 2010.05.17/outbox.cif.g08.bks.cpg/sg22_20_cif.got.tgz:38115.got - 2010.06.03 23:40:54.
