data_PCOD9326316
_publ_section_title
;
Structure prediction by ZEFSAII (Michael W. Deem and Ramdas Pophale) SiO2 
 PCOD9326316
Probable space group: F 2 2 2
;
_chemical_formula_sum "Si O2"
_cell_formula_units_Z 112
_cell_length_a 17.605213
_cell_length_b 18.105569
_cell_length_c 20.004191
_cell_angle_alpha 90.000000
_cell_angle_beta 90.000000
_cell_angle_gamma 90.000000
_cell_volume 6376.383866
_symmetry_space_group_name_H-M "F 2 2 2"
_symmetry_group_IT_number 22
_symmetry_cell_setting 'orthorhombic'
loop_
_space_group_symop_operation_xyz
x,y,z
-x,-y,z
x,-y,-z
-x,y,-z
x,1/2+y,1/2+z
-x,1/2-y,1/2+z
x,1/2-y,1/2-z
-x,1/2+y,1/2-z
1/2+x,y,1/2+z
1/2-x,-y,1/2+z
1/2+x,-y,1/2-z
1/2-x,y,1/2-z
1/2+x,1/2+y,z
1/2-x,1/2-y,z
1/2+x,1/2-y,-z
1/2-x,1/2+y,-z
loop_
_atom_site_type_symbol
_atom_site_label
_atom_site_fract_x
_atom_site_fract_y
_atom_site_fract_z
Si Si1 0.422760 0.548488 0.748101
Si Si2 0.632484 0.386358 0.030657
Si Si3 0.475646 0.822060 0.205133
Si Si4 0.559670 0.235457 0.058152
Si Si5 0.675130 0.082856 0.204584
Si Si6 0.586025 0.029829 0.599123
Si Si7 0.217164 0.327181 0.924279
O O1 0.500000 0.500000 0.748652
O O2 0.452349 0.624498 0.716548
O O3 0.359313 0.499831 0.710273
O O4 0.399369 0.556513 0.825861
O O5 0.580554 0.322263 0.062171
O O6 0.633776 0.457642 0.078475
O O7 0.717494 0.355524 0.027065
O O8 0.600842 0.410830 0.958841
O O9 0.482413 0.750000 0.250000
O O10 0.467752 0.796458 0.128611
O O11 0.396953 0.864918 0.224418
O O12 0.638558 0.194531 0.041634
O O13 0.500000 0.224237 0.000000
O O14 0.750000 0.089934 0.250000
O O15 0.699498 0.112566 0.132098
O O16 0.500000 0.000000 0.594273
O O17 0.250000 0.250000 0.893136
#
# Coordination Sequence:
#
# PCOD9326316 Si02
#       7
#    16  16  16  16  16  16  16
#     4   9  20  36  53  79 118 149 185 226 285 346
#     4  10  19  32  53  83 116 140 177 236 296 337
#     4  10  23  35  56  86 114 150 191 234 284 344
#     4  10  21  36  57  79 112 149 188 231 285 338
#     4  10  20  33  58  84 115 149 180 235 297 343
#     4  10  19  31  53  84 113 142 180 230 286 352
#     4   9  20  34  52  83 115 140 189 237 285 343
#
# _framework density 17.564814999999999
#
# number of rings (size 3 to 8) (size 9 to 14) (size 15 to 20)
#    0.000    2.286    0.000    2.571   14.000    0.000 
#    0.000    4.286    0.000   10.286    0.000    0.000 
#    0.000    0.000    0.000    0.000    0.000    0.000 
#
# Total GULP energy -156083.680747 kJ/mol
# GULP energy per Si atom -5574.417170 kJ/mol
# Density = 1.752484 g / cm^3
# Si number density = 17.564815 Si / 1000 Ang^3
#
#
#
# Elastic Constant Matrix: (Units=GPa)
#
#
# Indices 1 2 3 4 5 6 
#
# 1 79.0465 48.7698 51.7651 0.0000 0.0000 0.0000
# 2 48.7698 106.1754 52.5080 0.0000 0.0000 0.0000
# 3 51.7651 52.5080 70.2055 0.0000 0.0000 0.0000
# 4 0.0000 0.0000 0.0000 19.5848 0.0000 0.0000
# 5 0.0000 0.0000 0.0000 0.0000 19.6187 0.0000
# 6 0.0000 0.0000 0.0000 0.0000 0.0000 21.5490
#
#
#
# Elastic Compliance Matrix: (Units=1/GPa)
#
#
# Indices 1 2 3 4 5 6 
#
# 1 0.025402 -0.003817 -0.015875 0.000000 0.000000 0.000000
# 2 -0.003817 0.015520 -0.008794 0.000000 0.000000 0.000000
# 3 -0.015875 -0.008794 0.032526 0.000000 0.000000 0.000000
# 4 0.000000 0.000000 0.000000 0.051060 0.000000 0.000000
# 5 0.000000 0.000000 0.000000 0.000000 0.050972 0.000000
# 6 0.000000 0.000000 0.000000 0.000000 0.000000 0.046406
#
#
# Mechanical properties :
#
#
# Convention : Reuss Voigt Hill
#
# Bulk Modulus (GPa) = 60.69001 62.39035 61.54018
# Shear Modulus (GPa) = 17.58404 18.97614 18.28009
#
# Velocity S-wave (km/s) = 3.16744 3.29043 3.22952
# Velocity P-wave (km/s) = 6.92849 7.07341 7.00132
#
# Compressibility (1/GPa) = 0.01647718
#
# Stress axis : x y z
#
# Youngs Moduli (GPa) = 39.36739 64.43103 30.74484
#
# Poissons Ratio (x) = 0.24594 0.48807
# Poissons Ratio (y) = 0.15027 0.27036
# Poissons Ratio (z) = 0.62495 0.56658
#
# Static dielectric constant tensor:
#      x y z
#    x 1.617770 0.000000 0.000000 
#    y 0.000000 1.626080 0.000000 
#    z 0.000000 0.000000 1.577610 
# 
# From -- ./inp_files/44328.got.cif
#   From: 2010.05.17/outbox.cif.g08.bks.cpg/sg22_23_cif.got.tgz:44328.got - 2010.06.03 23:40:54.
