data_PCOD9326313
_publ_section_title
;
Structure prediction by ZEFSAII (Michael W. Deem and Ramdas Pophale) SiO2 
 PCOD9326313
Probable space group: F 2 2 2
;
_chemical_formula_sum "Si O2"
_cell_formula_units_Z 80
_cell_length_a 30.442056
_cell_length_b 16.099525
_cell_length_c 8.834378
_cell_angle_alpha 90.000000
_cell_angle_beta 90.000000
_cell_angle_gamma 90.000000
_cell_volume 4329.751995
_symmetry_space_group_name_H-M "F 2 2 2"
_symmetry_group_IT_number 22
_symmetry_cell_setting 'orthorhombic'
loop_
_space_group_symop_operation_xyz
x,y,z
-x,-y,z
x,-y,-z
-x,y,-z
x,1/2+y,1/2+z
-x,1/2-y,1/2+z
x,1/2-y,1/2-z
-x,1/2+y,1/2-z
1/2+x,y,1/2+z
1/2-x,-y,1/2+z
1/2+x,-y,1/2-z
1/2-x,y,1/2-z
1/2+x,1/2+y,z
1/2-x,1/2-y,z
1/2+x,1/2-y,-z
1/2-x,1/2+y,-z
loop_
_atom_site_type_symbol
_atom_site_label
_atom_site_fract_x
_atom_site_fract_y
_atom_site_fract_z
Si Si1 0.044920 0.908352 0.427856
Si Si2 0.632914 0.170291 0.138784
Si Si3 0.642121 0.406581 0.058388
Si Si4 0.198533 0.240573 0.070802
Si Si5 0.043772 0.906913 0.065954
O O1 0.088298 0.853322 0.446865
O O2 0.039446 0.913161 0.246610
O O3 0.000000 0.874808 0.500000
O O4 0.051406 0.000000 0.500000
O O5 0.626812 0.250000 0.250000
O O6 0.645001 0.098425 0.258987
O O7 0.671042 0.191573 0.022558
O O8 0.592220 0.373765 0.024900
O O9 0.645972 0.500000 0.000000
O O10 0.677974 0.346577 0.984777
O O11 0.192400 0.250000 0.250000
O O12 0.250000 0.250000 0.036488
O O13 0.000000 0.864553 0.000000
O O14 0.044447 0.000000 0.000000
#
# Coordination Sequence:
#
# PCOD9326313 Si02
#       5
#    16  16  16  16  16
#     4  10  19  31  51  80 110 141 184 225 258 306
#     4   9  20  38  56  77 109 148 181 218 276 332
#     4   9  19  36  58  83 109 141 185 224 262 326
#     4  10  22  40  58  80 110 141 177 226 283 333
#     4   9  16  28  48  76 110 142 172 211 264 312
#
# _framework density 18.476808999999999
#
# number of rings (size 3 to 8) (size 9 to 14) (size 15 to 20)
#    0.000    2.600    0.000    2.400    0.000   10.000 
#    0.000   15.000    0.000    0.000    0.000    0.000 
#    0.000    0.000    0.000    0.000    0.000    0.000 
#
# Total GULP energy -111454.200761 kJ/mol
# GULP energy per Si atom -5572.710038 kJ/mol
# Density = 1.843475 g / cm^3
# Si number density = 18.476809 Si / 1000 Ang^3
#
#
#
# Elastic Constant Matrix: (Units=GPa)
#
#
# Indices 1 2 3 4 5 6 
#
# 1 200.8660 57.9230 90.5238 0.0000 0.0000 0.0000
# 2 57.9230 50.4219 39.0994 0.0000 0.0000 0.0000
# 3 90.5238 39.0994 85.0212 0.0000 0.0000 0.0000
# 4 0.0000 0.0000 0.0000 23.1707 0.0000 0.0000
# 5 0.0000 0.0000 0.0000 0.0000 36.7962 0.0000
# 6 0.0000 0.0000 0.0000 0.0000 0.0000 27.6882
#
#
#
# Elastic Compliance Matrix: (Units=1/GPa)
#
#
# Indices 1 2 3 4 5 6 
#
# 1 0.010384 -0.005215 -0.008658 0.000000 0.000000 0.000000
# 2 -0.005215 0.033445 -0.009828 0.000000 0.000000 0.000000
# 3 -0.008658 -0.009828 0.025499 0.000000 0.000000 0.000000
# 4 0.000000 0.000000 0.000000 0.043158 0.000000 0.000000
# 5 0.000000 0.000000 0.000000 0.000000 0.027177 0.000000
# 6 0.000000 0.000000 0.000000 0.000000 0.000000 0.036116
#
#
# Mechanical properties :
#
#
# Convention : Reuss Voigt Hill
#
# Bulk Modulus (GPa) = 45.60642 79.04458 62.32550
# Shear Modulus (GPa) = 21.69297 27.44856 24.57076
#
# Velocity S-wave (km/s) = 3.43018 3.85849 3.65062
# Velocity P-wave (km/s) = 6.35805 7.91984 7.18153
#
# Compressibility (1/GPa) = 0.02192674
#
# Stress axis : x y z
#
# Youngs Moduli (GPa) = 96.30056 29.90024 39.21665
#
# Poissons Ratio (x) = 0.15594 0.33953
# Poissons Ratio (y) = 0.50224 0.38540
# Poissons Ratio (z) = 0.83375 0.29385
#
# Static dielectric constant tensor:
#      x y z
#    x 1.670950 0.000000 0.000000 
#    y 0.000000 1.671350 0.000000 
#    z 0.000000 0.000000 1.632460 
# 
# From -- ./inp_files/14634.got.cif
#   From: 2010.05.17/outbox.cif.g08.bks.cpg/sg22_8_cif.got.tgz:14634.got - 2010.06.03 23:40:54.
