data_PCOD9326153
_publ_section_title
;
Structure prediction by ZEFSAII (Michael W. Deem and Ramdas Pophale) SiO2 
 PCOD9326153
Probable space group: F 2 2 2
;
_chemical_formula_sum "Si O2"
_cell_formula_units_Z 88
_cell_length_a 12.882491
_cell_length_b 17.874679
_cell_length_c 19.800384
_cell_angle_alpha 90.000000
_cell_angle_beta 90.000000
_cell_angle_gamma 90.000000
_cell_volume 4559.442172
_symmetry_space_group_name_H-M "F 2 2 2"
_symmetry_group_IT_number 22
_symmetry_cell_setting 'orthorhombic'
loop_
_space_group_symop_operation_xyz
x,y,z
-x,-y,z
x,-y,-z
-x,y,-z
x,1/2+y,1/2+z
-x,1/2-y,1/2+z
x,1/2-y,1/2-z
-x,1/2+y,1/2-z
1/2+x,y,1/2+z
1/2-x,-y,1/2+z
1/2+x,-y,1/2-z
1/2-x,y,1/2-z
1/2+x,1/2+y,z
1/2-x,1/2-y,z
1/2+x,1/2-y,-z
1/2-x,1/2+y,-z
loop_
_atom_site_type_symbol
_atom_site_label
_atom_site_fract_x
_atom_site_fract_y
_atom_site_fract_z
Si Si1 0.250000 0.138800 0.750000
Si Si2 0.463163 0.417644 0.422449
Si Si3 0.635705 0.814081 0.879616
Si Si4 0.395475 0.535504 0.159026
Si Si5 0.653144 0.151694 0.443790
Si Si6 0.223520 0.565191 0.558190
O O1 0.316425 0.185307 0.804665
O O2 0.329668 0.084595 0.710877
O O3 0.500000 0.500000 0.399906
O O4 0.500000 0.409506 0.500000
O O5 0.527471 0.356495 0.381560
O O6 0.339795 0.411442 0.422811
O O7 0.627589 0.734335 0.917004
O O8 0.725641 0.858681 0.920716
O O9 0.500000 0.500000 0.187219
O O10 0.416443 0.592784 0.096800
O O11 0.329265 0.470362 0.123594
O O12 0.658073 0.131526 0.522430
O O13 0.228829 0.500000 0.500000
#
# Coordination Sequence:
#
# PCOD9326153 Si02
#       6
#     8  16  16  16  16  16
#     4  10  22  39  60  80 116 153 206 244 274 355
#     4  11  17  30  56  85 115 149 190 247 305 351
#     4  10  20  35  55  88 113 152 196 244 298 342
#     4  10  22  38  56  82 112 159 196 235 295 354
#     4   9  19  35  55  83 115 148 191 241 297 356
#     4  10  18  34  55  83 116 147 192 243 302 361
#
# _framework density 19.300605999999998
#
# number of rings (size 3 to 8) (size 9 to 14) (size 15 to 20)
#    0.000    2.000    3.636    2.182    0.000   11.273 
#    3.273    0.000    0.000    0.000    0.000    0.000 
#    0.000    0.000    0.000    0.000    0.000    0.000 
#
# Total GULP energy -122710.364547 kJ/mol
# GULP energy per Si atom -5577.743843 kJ/mol
# Density = 1.925668 g / cm^3
# Si number density = 19.300606 Si / 1000 Ang^3
#
#
#
# Elastic Constant Matrix: (Units=GPa)
#
#
# Indices 1 2 3 4 5 6 
#
# 1 83.6978 44.8823 25.9754 0.0000 0.0000 0.0000
# 2 44.8823 103.5293 46.9458 0.0000 0.0000 0.0000
# 3 25.9754 46.9458 59.0749 0.0000 0.0000 0.0000
# 4 0.0000 0.0000 0.0000 26.1522 0.0000 0.0000
# 5 0.0000 0.0000 0.0000 0.0000 17.7214 0.0000
# 6 0.0000 0.0000 0.0000 0.0000 0.0000 18.8077
#
#
#
# Elastic Compliance Matrix: (Units=1/GPa)
#
#
# Indices 1 2 3 4 5 6 
#
# 1 0.015772 -0.005773 -0.002347 0.000000 0.000000 0.000000
# 2 -0.005773 0.017214 -0.011141 0.000000 0.000000 0.000000
# 3 -0.002347 -0.011141 0.026813 0.000000 0.000000 0.000000
# 4 0.000000 0.000000 0.000000 0.038238 0.000000 0.000000
# 5 0.000000 0.000000 0.000000 0.000000 0.056429 0.000000
# 6 0.000000 0.000000 0.000000 0.000000 0.000000 0.053170
#
#
# Mechanical properties :
#
#
# Convention : Reuss Voigt Hill
#
# Bulk Modulus (GPa) = 47.00050 53.54546 50.27298
# Shear Modulus (GPa) = 19.74331 21.10284 20.42308
#
# Velocity S-wave (km/s) = 3.20181 3.31021 3.25646
# Velocity P-wave (km/s) = 6.17037 6.51254 6.34376
#
# Compressibility (1/GPa) = 0.02127637
#
# Stress axis : x y z
#
# Youngs Moduli (GPa) = 63.40346 58.09269 37.29493
#
# Poissons Ratio (x) = 0.33538 0.08754
# Poissons Ratio (y) = 0.36604 0.41550
# Poissons Ratio (z) = 0.14882 0.64721
#
# Static dielectric constant tensor:
#      x y z
#    x 1.685530 0.000000 0.000000 
#    y 0.000000 1.720270 0.000000 
#    z 0.000000 0.000000 1.696210 
# 
# From -- ./inp_files/36086.got.cif
#   From: 2010.05.17/outbox.cif.g08.bks.cpg/sg22_19_cif.got.tgz:36086.got - 2010.06.03 23:40:54.
