data_PCOD9326562
_publ_section_title
;
Structure prediction by ZEFSAII (Michael W. Deem and Ramdas Pophale) SiO2 
 PCOD9326562
Probable space group: F 2 2 2
;
_chemical_formula_sum "Si O2"
_cell_formula_units_Z 104
_cell_length_a 18.747194
_cell_length_b 31.172311
_cell_length_c 8.814564
_cell_angle_alpha 90.000000
_cell_angle_beta 90.000000
_cell_angle_gamma 90.000000
_cell_volume 5151.172688
_symmetry_space_group_name_H-M "F 2 2 2"
_symmetry_group_IT_number 22
_symmetry_cell_setting 'orthorhombic'
loop_
_space_group_symop_operation_xyz
x,y,z
-x,-y,z
x,-y,-z
-x,y,-z
x,1/2+y,1/2+z
-x,1/2-y,1/2+z
x,1/2-y,1/2-z
-x,1/2+y,1/2-z
1/2+x,y,1/2+z
1/2-x,-y,1/2+z
1/2+x,-y,1/2-z
1/2-x,y,1/2-z
1/2+x,1/2+y,z
1/2-x,1/2-y,z
1/2+x,1/2-y,-z
1/2-x,1/2+y,-z
loop_
_atom_site_type_symbol
_atom_site_label
_atom_site_fract_x
_atom_site_fract_y
_atom_site_fract_z
Si Si1 0.628301 0.702171 0.758254
Si Si2 0.908503 0.105071 0.244677
Si Si3 0.297269 0.039601 0.900110
Si Si4 0.026753 0.543688 0.674725
Si Si5 0.251918 0.296183 0.993154
Si Si6 0.750000 0.138293 0.750000
Si Si7 0.836960 0.077411 0.927936
O O1 0.592499 0.750000 0.750000
O O2 0.590695 0.656358 0.728099
O O3 0.670673 0.697471 0.917336
O O4 0.692407 0.705230 0.636989
O O5 0.854670 0.075767 0.347339
O O6 0.986964 0.083839 0.249881
O O7 0.877516 0.097290 0.073577
O O8 0.250000 0.026876 0.750000
O O9 0.237235 0.059900 0.009514
O O10 0.327237 0.000000 0.000000
O O11 0.111216 0.543798 0.653394
O O12 0.000000 0.500000 0.748434
O O13 0.000000 0.543805 0.500000
O O14 0.250000 0.250000 0.069733
O O15 0.232767 0.333106 0.106489
O O16 0.817570 0.111085 0.799790
#
# Coordination Sequence:
#
# PCOD9326562 Si02
#       7
#    16  16  16  16  16   8  16
#     4   9  17  33  55  81 112 150 198 243 295 355
#     4  10  19  37  59  85 116 153 205 247 294 358
#     4  10  23  36  58  88 121 150 201 258 307 356
#     4   9  20  36  57  79 115 157 200 234 289 367
#     4   9  18  30  50  80 116 151 185 236 303 360
#     4  12  19  30  54  84 120 138 190 244 307 344
#     4  10  22  33  54  87 116 152 192 246 299 359
#
# _framework density 20.189578000000001
#
# number of rings (size 3 to 8) (size 9 to 14) (size 15 to 20)
#    0.000    2.308    1.538    2.077   11.846    0.000 
#    0.000    0.000    0.000    9.692    0.000    0.000 
#    0.000    0.000    0.000    0.000    0.000    0.000 
#
# Total GULP energy -144841.657273 kJ/mol
# GULP energy per Si atom -5570.832972 kJ/mol
# Density = 2.014363 g / cm^3
# Si number density = 20.189578 Si / 1000 Ang^3
#
#
#
# Elastic Constant Matrix: (Units=GPa)
#
#
# Indices 1 2 3 4 5 6 
#
# 1 48.8166 25.1525 15.1120 0.0000 0.0000 0.0000
# 2 25.1525 139.8349 34.1409 0.0000 0.0000 0.0000
# 3 15.1120 34.1409 58.9817 0.0000 0.0000 0.0000
# 4 0.0000 0.0000 0.0000 42.0783 0.0000 0.0000
# 5 0.0000 0.0000 0.0000 0.0000 7.0078 0.0000
# 6 0.0000 0.0000 0.0000 0.0000 0.0000 20.3355
#
#
#
# Elastic Compliance Matrix: (Units=1/GPa)
#
#
# Indices 1 2 3 4 5 6 
#
# 1 0.023417 -0.003199 -0.004148 0.000000 0.000000 0.000000
# 2 -0.003199 0.008765 -0.004254 0.000000 0.000000 0.000000
# 3 -0.004148 -0.004254 0.020480 0.000000 0.000000 0.000000
# 4 0.000000 0.000000 0.000000 0.023765 0.000000 0.000000
# 5 0.000000 0.000000 0.000000 0.000000 0.142699 0.000000
# 6 0.000000 0.000000 0.000000 0.000000 0.000000 0.049175
#
#
# Mechanical properties :
#
#
# Convention : Reuss Voigt Hill
#
# Bulk Modulus (GPa) = 33.94478 44.04934 38.99706
# Shear Modulus (GPa) = 16.59344 25.43283 21.01314
#
# Velocity S-wave (km/s) = 2.86996 3.55308 3.22963
# Velocity P-wave (km/s) = 5.27558 6.22075 5.76756
#
# Compressibility (1/GPa) = 0.02945961
#
# Stress axis : x y z
#
# Youngs Moduli (GPa) = 42.70328 114.08480 48.82921
#
# Poissons Ratio (x) = 0.36501 0.20254
# Poissons Ratio (y) = 0.13663 0.20772
# Poissons Ratio (z) = 0.17713 0.48532
#
# Static dielectric constant tensor:
#      x y z
#    x 1.735500 0.000000 0.000000 
#    y 0.000000 1.808470 0.000000 
#    z 0.000000 0.000000 1.747540 
# 
# From -- ./inp_files/13065.got.cif
#   From: 2010.05.17/outbox.cif.g08.bks.cpg/sg22_7_cif.got.tgz:13065.got - 2010.06.03 23:40:54.
