data_PCOD9326969
_publ_section_title
;
Structure prediction by ZEFSAII (Michael W. Deem and Ramdas Pophale) SiO2 
 PCOD9326969
Probable space group: F 2 2 2
;
_chemical_formula_sum "Si O2"
_cell_formula_units_Z 108
_cell_length_a 13.082891
_cell_length_b 14.797287
_cell_length_c 23.102176
_cell_angle_alpha 90.000000
_cell_angle_beta 90.000000
_cell_angle_gamma 90.000000
_cell_volume 4472.380121
_symmetry_space_group_name_H-M "F 2 2 2"
_symmetry_group_IT_number 22
_symmetry_cell_setting 'orthorhombic'
loop_
_space_group_symop_operation_xyz
x,y,z
-x,-y,z
x,-y,-z
-x,y,-z
x,1/2+y,1/2+z
-x,1/2-y,1/2+z
x,1/2-y,1/2-z
-x,1/2+y,1/2-z
1/2+x,y,1/2+z
1/2-x,-y,1/2+z
1/2+x,-y,1/2-z
1/2-x,y,1/2-z
1/2+x,1/2+y,z
1/2-x,1/2-y,z
1/2+x,1/2-y,-z
1/2-x,1/2+y,-z
loop_
_atom_site_type_symbol
_atom_site_label
_atom_site_fract_x
_atom_site_fract_y
_atom_site_fract_z
Si Si1 0.352058 0.425872 0.952442
Si Si2 0.883674 0.470307 0.655081
Si Si3 0.557817 0.221847 0.686794
Si Si4 0.635322 0.120520 0.256471
Si Si5 0.640139 0.352290 0.488038
Si Si6 0.500000 0.500000 0.500000
Si Si7 0.028038 0.606595 0.133037
Si Si8 0.500000 0.197379 0.500000
O O1 0.320967 0.479363 0.895051
O O2 0.257899 0.369220 0.978083
O O3 0.451992 0.362727 0.949054
O O4 0.377681 0.500000 0.000000
O O5 0.880802 0.362896 0.660618
O O6 0.860002 0.521519 0.714516
O O7 0.000000 0.500000 0.641390
O O8 0.599367 0.250000 0.750000
O O9 0.443708 0.179642 0.703830
O O10 0.550859 0.311079 0.647097
O O11 0.750000 0.155072 0.250000
O O12 0.591540 0.111191 0.192561
O O13 0.584223 0.430405 0.525129
O O14 0.592596 0.363832 0.423333
O O15 0.594442 0.261930 0.514701
O O16 0.000000 0.500000 0.127445
#
# Coordination Sequence:
#
# PCOD9326969 Si02
#       8
#    16  16  16  16  16   4  16   8
#     4  12  25  44  72 104 141 187 243 300 372 443
#     4  10  21  39  66  99 143 184 231 303 374 443
#     4   9  20  37  62  97 133 185 234 287 368 444
#     4  10  20  37  60  95 136 172 228 296 361 447
#     4  11  24  44  71  96 139 182 244 296 366 442
#     4  10  20  48  62  94 134 180 222 304 352 418
#     4  11  22  38  65  94 130 184 235 295 364 437
#     4  11  27  45  67 102 138 186 230 308 362 434
#
# _framework density 24.148215
#
# number of rings (size 3 to 8) (size 9 to 14) (size 15 to 20)
#    0.000    1.481    1.481    4.667    6.222    2.667 
#    2.667    0.000    0.000    7.556    0.000    0.000 
#    0.000    0.000    0.000    0.000    0.000    0.000 
#
# Total GULP energy -150640.791638 kJ/mol
# GULP energy per Si atom -5579.288579 kJ/mol
# Density = 2.409325 g / cm^3
# Si number density = 24.148215 Si / 1000 Ang^3
#
#
#
# Elastic Constant Matrix: (Units=GPa)
#
#
# Indices 1 2 3 4 5 6 
#
# 1 88.9880 44.0551 18.1745 0.0000 0.0000 0.0000
# 2 44.0551 193.2003 54.3551 0.0000 0.0000 0.0000
# 3 18.1745 54.3551 99.4856 0.0000 0.0000 0.0000
# 4 0.0000 0.0000 0.0000 38.9013 0.0000 0.0000
# 5 0.0000 0.0000 0.0000 0.0000 17.4997 0.0000
# 6 0.0000 0.0000 0.0000 0.0000 0.0000 22.5133
#
#
#
# Elastic Compliance Matrix: (Units=1/GPa)
#
#
# Indices 1 2 3 4 5 6 
#
# 1 0.012731 -0.002657 -0.000874 0.000000 0.000000 0.000000
# 2 -0.002657 0.006671 -0.003159 0.000000 0.000000 0.000000
# 3 -0.000874 -0.003159 0.011937 0.000000 0.000000 0.000000
# 4 0.000000 0.000000 0.000000 0.025706 0.000000 0.000000
# 5 0.000000 0.000000 0.000000 0.000000 0.057144 0.000000
# 6 0.000000 0.000000 0.000000 0.000000 0.000000 0.044418
#
#
# Mechanical properties :
#
#
# Convention : Reuss Voigt Hill
#
# Bulk Modulus (GPa) = 55.68326 68.31594 61.99960
# Shear Modulus (GPa) = 28.09385 33.45547 30.77466
#
# Velocity S-wave (km/s) = 3.41455 3.72616 3.57376
# Velocity P-wave (km/s) = 6.21728 6.84573 6.53906
#
# Compressibility (1/GPa) = 0.01795872
#
# Stress axis : x y z
#
# Youngs Moduli (GPa) = 78.54539 149.90906 83.77010
#
# Poissons Ratio (x) = 0.39834 0.07322
# Poissons Ratio (y) = 0.20871 0.26465
# Poissons Ratio (z) = 0.06865 0.47359
#
# Static dielectric constant tensor:
#      x y z
#    x 1.940670 0.000000 0.000000 
#    y 0.000000 2.041040 0.000000 
#    z 0.000000 0.000000 2.075350 
# 
# From -- ./inp_files/48994.got.cif
#   From: 2010.05.17/outbox.cif.g08.bks.cpg/sg22_25_cif.got.tgz:48994.got - 2010.06.03 23:40:54.
