data_PCOD9326629
_publ_section_title
;
Structure prediction by ZEFSAII (Michael W. Deem and Ramdas Pophale) SiO2 
 PCOD9326629
Probable space group: F 2 2 2
;
_chemical_formula_sum "Si O2"
_cell_formula_units_Z 88
_cell_length_a 11.824673
_cell_length_b 24.038033
_cell_length_c 14.073784
_cell_angle_alpha 90.000000
_cell_angle_beta 90.000000
_cell_angle_gamma 90.000000
_cell_volume 4000.358820
_symmetry_space_group_name_H-M "F 2 2 2"
_symmetry_group_IT_number 22
_symmetry_cell_setting 'orthorhombic'
loop_
_space_group_symop_operation_xyz
x,y,z
-x,-y,z
x,-y,-z
-x,y,-z
x,1/2+y,1/2+z
-x,1/2-y,1/2+z
x,1/2-y,1/2-z
-x,1/2+y,1/2-z
1/2+x,y,1/2+z
1/2-x,-y,1/2+z
1/2+x,-y,1/2-z
1/2-x,y,1/2-z
1/2+x,1/2+y,z
1/2-x,1/2-y,z
1/2+x,1/2-y,-z
1/2-x,1/2+y,-z
loop_
_atom_site_type_symbol
_atom_site_label
_atom_site_fract_x
_atom_site_fract_y
_atom_site_fract_z
Si Si1 0.806797 0.570970 0.855394
Si Si2 0.624843 0.890815 0.500817
Si Si3 0.871787 0.279897 0.377747
Si Si4 0.961003 0.826209 0.679840
Si Si5 0.500000 0.000000 0.206613
Si Si6 0.629753 0.100399 0.717036
O O1 0.750000 0.572369 0.750000
O O2 0.712831 0.573804 0.936929
O O3 0.886351 0.625427 0.866997
O O4 0.893164 0.519495 0.855237
O O5 0.500000 0.916612 0.500000
O O6 0.619430 0.830123 0.549413
O O7 0.649594 0.882381 0.390599
O O8 0.750000 0.250000 0.382592
O O9 0.962059 0.229577 0.382234
O O10 0.893890 0.308769 0.275814
O O11 0.079515 0.850686 0.716602
O O12 0.537768 0.948231 0.270819
O O13 0.750000 0.078735 0.750000
#
# Coordination Sequence:
#
# PCOD9326629 Si02
#       6
#    16  16  16  16   8  16
#     4  11  19  40  69 104 131 176 231 304 349 419
#     4  12  23  41  70 105 142 172 239 292 345 424
#     4  11  19  36  68 104 129 183 232 269 329 425
#     4  10  19  38  68  96 139 181 227 274 342 418
#     4  10  24  46  76  90 136 192 240 286 386 432
#     4  11  25  48  65 100 144 183 226 306 365 421
#
# _framework density 21.998028000000001
#
# number of rings (size 3 to 8) (size 9 to 14) (size 15 to 20)
#    0.000    1.091    5.455    2.727    0.000    0.000 
#    3.273   15.000    0.000    0.000    0.000    0.000 
#    0.000    0.000    0.000    0.000    0.000    0.000 
#
# Total GULP energy -122936.955309 kJ/mol
# GULP energy per Si atom -5588.043423 kJ/mol
# Density = 2.194796 g / cm^3
# Si number density = 21.998028 Si / 1000 Ang^3
#
#
#
# Elastic Constant Matrix: (Units=GPa)
#
#
# Indices 1 2 3 4 5 6 
#
# 1 111.5409 22.9364 36.1673 0.0000 0.0000 0.0000
# 2 22.9364 88.1387 28.8435 0.0000 0.0000 0.0000
# 3 36.1673 28.8435 68.4774 0.0000 0.0000 0.0000
# 4 0.0000 0.0000 0.0000 9.4233 0.0000 0.0000
# 5 0.0000 0.0000 0.0000 0.0000 30.4645 0.0000
# 6 0.0000 0.0000 0.0000 0.0000 0.0000 40.2576
#
#
#
# Elastic Compliance Matrix: (Units=1/GPa)
#
#
# Indices 1 2 3 4 5 6 
#
# 1 0.010910 -0.001106 -0.005297 0.000000 0.000000 0.000000
# 2 -0.001106 0.013272 -0.005006 0.000000 0.000000 0.000000
# 3 -0.005297 -0.005006 0.019509 0.000000 0.000000 0.000000
# 4 0.000000 0.000000 0.000000 0.106119 0.000000 0.000000
# 5 0.000000 0.000000 0.000000 0.000000 0.032825 0.000000
# 6 0.000000 0.000000 0.000000 0.000000 0.000000 0.024840
#
#
# Mechanical properties :
#
#
# Convention : Reuss Voigt Hill
#
# Bulk Modulus (GPa) = 47.90588 49.33905 48.62246
# Shear Modulus (GPa) = 21.07470 28.04306 24.55888
#
# Velocity S-wave (km/s) = 3.09856 3.57431 3.34490
# Velocity P-wave (km/s) = 5.88439 6.28584 6.08842
#
# Compressibility (1/GPa) = 0.02087427
#
# Stress axis : x y z
#
# Youngs Moduli (GPa) = 91.65787 75.34766 51.25715
#
# Poissons Ratio (x) = 0.08332 0.27149
# Poissons Ratio (y) = 0.10136 0.25660
# Poissons Ratio (z) = 0.48547 0.37720
#
# Static dielectric constant tensor:
#      x y z
#    x 1.828470 0.000000 0.000000 
#    y 0.000000 1.829830 0.000000 
#    z 0.000000 0.000000 1.840010 
# 
# From -- ./inp_files/28194.got.cif
#   From: 2010.05.17/outbox.cif.g08.bks.cpg/sg22_15_cif.got.tgz:28194.got - 2010.06.03 23:40:54.
