data_PCOD9326944
_publ_section_title
;
Structure prediction by ZEFSAII (Michael W. Deem and Ramdas Pophale) SiO2 
 PCOD9326944
Probable space group: F 2 2 2
;
_chemical_formula_sum "Si O2"
_cell_formula_units_Z 52
_cell_length_a 26.799049
_cell_length_b 6.847764
_cell_length_c 14.687519
_cell_angle_alpha 90.000000
_cell_angle_beta 90.000000
_cell_angle_gamma 90.000000
_cell_volume 2695.358943
_symmetry_space_group_name_H-M "F 2 2 2"
_symmetry_group_IT_number 22
_symmetry_cell_setting 'orthorhombic'
loop_
_space_group_symop_operation_xyz
x,y,z
-x,-y,z
x,-y,-z
-x,y,-z
x,1/2+y,1/2+z
-x,1/2-y,1/2+z
x,1/2-y,1/2-z
-x,1/2+y,1/2-z
1/2+x,y,1/2+z
1/2-x,-y,1/2+z
1/2+x,-y,1/2-z
1/2-x,y,1/2-z
1/2+x,1/2+y,z
1/2-x,1/2-y,z
1/2+x,1/2-y,-z
1/2-x,1/2+y,-z
loop_
_atom_site_type_symbol
_atom_site_label
_atom_site_fract_x
_atom_site_fract_y
_atom_site_fract_z
Si Si1 0.500000 0.000000 0.500000
Si Si2 0.670430 0.500000 0.000000
Si Si3 0.883429 0.750000 0.750000
Si Si4 0.701254 0.454653 0.801418
Si Si5 0.416601 0.200611 0.943833
O O1 0.537695 0.148234 0.450844
O O2 0.703771 0.550455 0.088816
O O3 0.633021 0.316613 0.020220
O O4 0.847363 0.580956 0.715318
O O5 0.911755 0.835583 0.663607
O O6 0.694003 0.250000 0.750000
O O7 0.750000 0.536325 0.750000
O O8 0.423137 0.000000 0.000000
#
# Coordination Sequence:
#
# PCOD9326944 Si02
#       5
#     4   8   8  16  16
#     4  10  22  40  56  90 118 140 202 244 292 380
#     4   9  20  37  58  84 120 158 202 247 288 357
#     4  10  21  38  60  88 114 158 202 242 293 362
#     4  10  20  37  55  87 122 157 202 247 292 346
#     4  10  20  39  62  85 117 157 193 245 305 354
#
# _framework density 19.29242
#
# number of rings (size 3 to 8) (size 9 to 14) (size 15 to 20)
#    0.000    2.154    0.000    2.769    0.000    0.000 
#   30.462    0.000    0.000    0.000    0.000    0.000 
#    0.000    0.000    0.000    0.000    0.000    0.000 
#
# Total GULP energy -72399.822827 kJ/mol
# GULP energy per Si atom -5569.217141 kJ/mol
# Density = 1.924851 g / cm^3
# Si number density = 19.292420 Si / 1000 Ang^3
#
#
#
# Elastic Constant Matrix: (Units=GPa)
#
#
# Indices 1 2 3 4 5 6 
#
# 1 67.4608 12.1086 55.0375 0.0000 0.0000 0.0000
# 2 12.1086 113.2417 52.0099 0.0000 0.0000 0.0001
# 3 55.0375 52.0099 202.2276 0.0000 0.0000 0.0000
# 4 0.0000 0.0000 0.0000 23.7838 0.0000 0.0000
# 5 0.0000 0.0000 0.0000 0.0000 -99.1659 0.0001
# 6 0.0000 0.0001 0.0000 0.0000 0.0001 4.4849
#
#
#
# Elastic Compliance Matrix: (Units=1/GPa)
#
#
# Indices 1 2 3 4 5 6 
#
# 1 0.019069 0.000391 -0.005290 0.000000 0.000000 0.000000
# 2 0.000391 0.010021 -0.002684 0.000000 0.000000 0.000000
# 3 -0.005290 -0.002684 0.007075 0.000000 0.000000 0.000000
# 4 0.000000 0.000000 0.000000 0.042045 0.000000 0.000000
# 5 0.000000 0.000000 0.000000 0.000000 -0.010084 0.000000
# 6 0.000000 0.000000 0.000000 0.000000 0.000000 0.222972
#
#
# Mechanical properties :
#
#
# Convention : Reuss Voigt Hill
#
# Bulk Modulus (GPa) = 47.62097 69.02689 58.32393
# Shear Modulus (GPa) = 15.96091 3.40551 9.68321
#
# Velocity S-wave (km/s) = 2.87943 1.33005 2.24278
# Velocity P-wave (km/s) = 5.98266 6.18188 6.08308
#
# Compressibility (1/GPa) = 0.02099915
#
# Stress axis : x y z
#
# Youngs Moduli (GPa) = 52.44003 99.78578 141.34403
#
# Poissons Ratio (x) = -0.03899 0.74776
# Poissons Ratio (y) = -0.02049 0.37933
# Poissons Ratio (z) = 0.27743 0.26780
#
# Static dielectric constant tensor:
#      x y z
#    x 1.702870 0.000000 0.000000 
#    y 0.000000 2.030850 0.000000 
#    z 0.000000 0.000000 1.757490 
# 
# From -- ./inp_files/33350.got.cif
#   From: 2010.05.17/outbox.cif.g08.bks.cpg/sg22_17_cif.got.tgz:33350.got - 2010.06.03 23:40:54.
