data_PCOD9326071
_publ_section_title
;
Structure prediction by ZEFSAII (Michael W. Deem and Ramdas Pophale) SiO2 
 PCOD9326071
Probable space group: F 2 2 2
;
_chemical_formula_sum "Si O2"
_cell_formula_units_Z 64
_cell_length_a 24.082713
_cell_length_b 4.988874
_cell_length_c 24.962660
_cell_angle_alpha 90.000000
_cell_angle_beta 90.000000
_cell_angle_gamma 90.000000
_cell_volume 2999.154281
_symmetry_space_group_name_H-M "F 2 2 2"
_symmetry_group_IT_number 22
_symmetry_cell_setting 'orthorhombic'
loop_
_space_group_symop_operation_xyz
x,y,z
-x,-y,z
x,-y,-z
-x,y,-z
x,1/2+y,1/2+z
-x,1/2-y,1/2+z
x,1/2-y,1/2-z
-x,1/2+y,1/2-z
1/2+x,y,1/2+z
1/2-x,-y,1/2+z
1/2+x,-y,1/2-z
1/2-x,y,1/2-z
1/2+x,1/2+y,z
1/2-x,1/2-y,z
1/2+x,1/2-y,-z
1/2-x,1/2+y,-z
loop_
_atom_site_type_symbol
_atom_site_label
_atom_site_fract_x
_atom_site_fract_y
_atom_site_fract_z
Si Si1 0.750000 0.750000 0.408014
Si Si2 0.000000 0.000000 0.500000
Si Si3 0.631591 0.778186 0.365089
Si Si4 0.402987 0.239813 0.932791
Si Si5 0.250000 0.250000 0.750000
Si Si6 0.814548 0.000000 0.500000
Si Si7 0.834136 0.250000 0.750000
O O1 0.697429 0.844485 0.374546
O O2 0.775775 0.958702 0.449354
O O3 0.960187 0.827186 0.538180
O O4 0.615861 0.493067 0.391029
O O5 0.627706 0.800239 0.301746
O O6 0.597786 0.989427 0.399906
O O7 0.356862 0.227833 0.980171
O O8 0.203747 0.486240 0.765293
#
# Coordination Sequence:
#
# PCOD9326071 Si02
#       7
#     8   4  16  16   4   8   8
#     4  10  18  31  53  80 124 163 197 240 292 372
#     4  10  24  46  72  94 128 158 212 292 336 402
#     4  11  23  37  58  90 125 168 212 252 314 381
#     4  10  23  39  61  91 119 159 208 260 332 390
#     4  10  20  34  58  86 118 182 228 254 316 350
#     4   9  18  31  52  82 120 157 194 245 308 374
#     4  11  22  38  58  86 131 172 225 280 306 373
#
# _framework density 21.339348999999999
#
# number of rings (size 3 to 8) (size 9 to 14) (size 15 to 20)
#    0.000    1.750    0.000    4.500    0.000   15.000 
#    0.000    0.000    0.000    3.000    0.000    0.000 
#    0.000    0.000    0.000    0.000    0.000    0.000 
#
# Total GULP energy -89151.588688 kJ/mol
# GULP energy per Si atom -5571.974293 kJ/mol
# Density = 2.129078 g / cm^3
# Si number density = 21.339349 Si / 1000 Ang^3
#
#
#
# Elastic Constant Matrix: (Units=GPa)
#
#
# Indices 1 2 3 4 5 6 
#
# 1 81.2991 -0.8863 23.1086 0.0014 0.0003 -0.0135
# 2 -0.8863 91.3894 15.3109 -0.0009 0.0079 -0.0177
# 3 23.1086 15.3109 136.7218 -0.0007 -0.0004 -0.0024
# 4 0.0014 -0.0009 -0.0007 18.7198 0.0001 -0.0031
# 5 0.0003 0.0079 -0.0004 0.0001 7.5522 0.0011
# 6 -0.0135 -0.0177 -0.0024 -0.0031 0.0011 11.8452
#
#
#
# Elastic Compliance Matrix: (Units=1/GPa)
#
#
# Indices 1 2 3 4 5 6 
#
# 1 0.012944 0.000501 -0.002244 -0.000001 -0.000001 0.000015
# 2 0.000501 0.011171 -0.001336 0.000000 -0.000012 0.000017
# 3 -0.002244 -0.001336 0.007843 0.000000 0.000002 -0.000003
# 4 -0.000001 0.000000 0.000000 0.053419 -0.000001 0.000014
# 5 -0.000001 -0.000012 0.000002 -0.000001 0.132412 -0.000012
# 6 0.000015 0.000017 -0.000003 0.000014 -0.000012 0.084423
#
#
# Mechanical properties :
#
#
# Convention : Reuss Voigt Hill
#
# Bulk Modulus (GPa) = 38.75809 42.71963 40.73886
# Shear Modulus (GPa) = 15.77446 25.74856 20.76151
#
# Velocity S-wave (km/s) = 2.72181 3.47742 3.12255
# Velocity P-wave (km/s) = 5.29904 6.01547 5.66858
#
# Compressibility (1/GPa) = 0.02580106
#
# Stress axis : x y z
#
# Youngs Moduli (GPa) = 77.25869 89.51877 127.50291
#
# Poissons Ratio (x) = -0.04489 0.28610
# Poissons Ratio (y) = -0.03874 0.17031
# Poissons Ratio (z) = 0.17336 0.11957
#
# Static dielectric constant tensor:
#      x y z
#    x 1.763460 0.000000 0.000000 
#    y 0.000000 1.831840 0.000000 
#    z 0.000000 0.000000 1.781670 
# 
# From -- ./inp_files/4600.got.cif
#   From: 2010.05.17/outbox.cif.g08.bks.cpg/sg22_3_cif.got.tgz:4600.got - 2010.06.03 23:40:54.
