data_PCOD9326564
_publ_section_title
;
Structure prediction by ZEFSAII (Michael W. Deem and Ramdas Pophale) SiO2 
 PCOD9326564
Probable space group: F 2 2 2
;
_chemical_formula_sum "Si O2"
_cell_formula_units_Z 104
_cell_length_a 27.178536
_cell_length_b 18.041724
_cell_length_c 9.620743
_cell_angle_alpha 90.000000
_cell_angle_beta 90.000000
_cell_angle_gamma 90.000000
_cell_volume 4717.508675
_symmetry_space_group_name_H-M "F 2 2 2"
_symmetry_group_IT_number 22
_symmetry_cell_setting 'orthorhombic'
loop_
_space_group_symop_operation_xyz
x,y,z
-x,-y,z
x,-y,-z
-x,y,-z
x,1/2+y,1/2+z
-x,1/2-y,1/2+z
x,1/2-y,1/2-z
-x,1/2+y,1/2-z
1/2+x,y,1/2+z
1/2-x,-y,1/2+z
1/2+x,-y,1/2-z
1/2-x,y,1/2-z
1/2+x,1/2+y,z
1/2-x,1/2-y,z
1/2+x,1/2-y,-z
1/2-x,1/2+y,-z
loop_
_atom_site_type_symbol
_atom_site_label
_atom_site_fract_x
_atom_site_fract_y
_atom_site_fract_z
Si Si1 0.636554 0.841788 0.027243
Si Si2 0.991662 0.118276 0.836326
Si Si3 0.095865 0.454229 0.214418
Si Si4 0.418857 0.750000 0.750000
Si Si5 0.737303 0.424019 0.586926
Si Si6 0.844566 0.589048 0.471743
Si Si7 0.397094 0.876051 0.255738
O O1 0.601647 0.911739 0.070741
O O2 0.615758 0.777421 0.124726
O O3 0.691279 0.869893 0.063292
O O4 0.627378 0.827985 0.864990
O O5 0.958892 0.051737 0.774073
O O6 0.956000 0.187426 0.806252
O O7 0.044242 0.131925 0.765790
O O8 0.000000 0.106903 0.000000
O O9 0.129939 0.407703 0.322101
O O10 0.113528 0.537953 0.216187
O O11 0.727998 0.500000 0.500000
O O12 0.750000 0.440378 0.750000
O O13 0.787866 0.388954 0.530563
O O14 0.845782 0.500000 0.500000
O O15 0.874282 0.630529 0.591110
#
# Coordination Sequence:
#
# PCOD9326564 Si02
#       7
#    16  16  16   8  16  16  16
#     4  11  24  42  64  91 134 182 227 286 335 401
#     4  11  23  39  66  89 127 180 225 281 338 407
#     4  10  19  37  59  97 137 165 210 266 353 419
#     4  10  28  46  63  88 128 177 256 276 328 398
#     4  11  22  37  67 103 142 178 213 273 357 432
#     4   9  19  33  56  94 142 167 202 255 336 437
#     4  11  22  36  64 103 131 170 215 284 348 408
#
# _framework density 22.045535000000001
#
# number of rings (size 3 to 8) (size 9 to 14) (size 15 to 20)
#    0.000    1.538    3.077    1.846    6.462    2.462 
#    0.000    3.462    0.000    0.000    0.000    0.000 
#    0.000    0.000    0.000    0.000    0.000    0.000 
#
# Total GULP energy -145296.607205 kJ/mol
# GULP energy per Si atom -5588.331046 kJ/mol
# Density = 2.199536 g / cm^3
# Si number density = 22.045535 Si / 1000 Ang^3
#
#
#
# Elastic Constant Matrix: (Units=GPa)
#
#
# Indices 1 2 3 4 5 6 
#
# 1 146.3669 6.7416 42.8983 0.0000 0.0000 0.0000
# 2 6.7416 37.9243 13.6877 0.0000 0.0000 0.0000
# 3 42.8983 13.6877 131.9862 0.0000 0.0000 0.0000
# 4 0.0000 0.0000 0.0000 27.0781 0.0000 0.0000
# 5 0.0000 0.0000 0.0000 0.0000 25.5587 0.0000
# 6 0.0000 0.0000 0.0000 0.0000 0.0000 -0.5438
#
#
#
# Elastic Compliance Matrix: (Units=1/GPa)
#
#
# Indices 1 2 3 4 5 6 
#
# 1 0.007560 -0.000475 -0.002408 0.000000 0.000000 0.000000
# 2 -0.000475 0.027424 -0.002690 0.000000 0.000000 0.000000
# 3 -0.002408 -0.002690 0.008638 0.000000 0.000000 0.000000
# 4 0.000000 0.000000 0.000000 0.036930 0.000000 0.000000
# 5 0.000000 0.000000 0.000000 0.000000 0.039126 0.000000
# 6 0.000000 0.000000 0.000000 0.000000 0.000000 -1.838980
#
#
# Mechanical properties :
#
#
# Convention : Reuss Voigt Hill
#
# Bulk Modulus (GPa) = 30.79129 49.21474 40.00301
# Shear Modulus (GPa) = -2.94580 27.28191 12.16806
#
# Velocity S-wave (km/s) = -1.15721 3.52166 2.35191
# Velocity P-wave (km/s) = 3.49456 6.23769 5.05572
#
# Compressibility (1/GPa) = 0.03247672
#
# Stress axis : x y z
#
# Youngs Moduli (GPa) = 132.28002 36.46506 115.76655
#
# Poissons Ratio (x) = 0.01731 0.27875
# Poissons Ratio (y) = 0.06281 0.31137
# Poissons Ratio (z) = 0.31851 0.09808
#
# Static dielectric constant tensor:
#      x y z
#    x 1.783500 0.000000 0.000000 
#    y 0.000000 1.860680 0.000000 
#    z 0.000000 0.000000 1.799960 
# 
# From -- ./inp_files/14821.got.cif
#   From: 2010.05.17/outbox.cif.g08.bks.cpg/sg22_8_cif.got.tgz:14821.got - 2010.06.03 23:40:54.
