data_PCOD9326650
_publ_section_title
;
Structure prediction by ZEFSAII (Michael W. Deem and Ramdas Pophale) SiO2 
 PCOD9326650
Probable space group: F 2 2 2
;
_chemical_formula_sum "Si O2"
_cell_formula_units_Z 80
_cell_length_a 12.762676
_cell_length_b 24.412729
_cell_length_c 12.279440
_cell_angle_alpha 90.000000
_cell_angle_beta 90.000000
_cell_angle_gamma 90.000000
_cell_volume 3825.926616
_symmetry_space_group_name_H-M "F 2 2 2"
_symmetry_group_IT_number 22
_symmetry_cell_setting 'orthorhombic'
loop_
_space_group_symop_operation_xyz
x,y,z
-x,-y,z
x,-y,-z
-x,y,-z
x,1/2+y,1/2+z
-x,1/2-y,1/2+z
x,1/2-y,1/2-z
-x,1/2+y,1/2-z
1/2+x,y,1/2+z
1/2-x,-y,1/2+z
1/2+x,-y,1/2-z
1/2-x,y,1/2-z
1/2+x,1/2+y,z
1/2-x,1/2-y,z
1/2+x,1/2-y,-z
1/2-x,1/2+y,-z
loop_
_atom_site_type_symbol
_atom_site_label
_atom_site_fract_x
_atom_site_fract_y
_atom_site_fract_z
Si Si1 0.085243 0.951482 0.220040
Si Si2 0.729775 0.186741 0.879240
Si Si3 0.374191 0.095517 0.491394
Si Si4 0.713720 0.523112 0.384801
Si Si5 0.047423 0.384853 0.117799
O O1 0.834640 0.019793 0.301419
O O2 0.031482 0.900893 0.285507
O O3 0.143240 0.928751 0.112641
O O4 0.000000 0.000000 0.198386
O O5 0.750000 0.178283 0.750000
O O6 0.750000 0.250000 0.905158
O O7 0.606196 0.172917 0.893096
O O8 0.807044 0.148349 0.953148
O O9 0.500000 0.104081 0.500000
O O10 0.329429 0.048467 0.409083
O O11 0.679202 0.500000 0.500000
O O12 0.646653 0.576709 0.359241
O O13 0.000000 0.398626 0.000000
#
# Coordination Sequence:
#
# PCOD9326650 Si02
#       5
#    16  16  16  16  16
#     4  10  22  39  63  96 140 179 218 260 322 391
#     4  10  23  46  72  94 123 167 220 285 345 394
#     4  11  25  42  62 101 135 170 222 276 328 390
#     4  10  21  38  59  92 137 178 214 248 311 389
#     4  10  19  39  65  95 127 171 224 263 311 395
#
# _framework density 20.909967999999999
#
# number of rings (size 3 to 8) (size 9 to 14) (size 15 to 20)
#    0.000    1.800    2.000    1.200    2.800    1.600 
#   10.800    0.000    0.000    1.200    0.000    0.000 
#    0.000    0.000    0.000    0.000    0.000    0.000 
#
# Total GULP energy -111388.299563 kJ/mol
# GULP energy per Si atom -5569.414978 kJ/mol
# Density = 2.086238 g / cm^3
# Si number density = 20.909968 Si / 1000 Ang^3
#
#
#
# Elastic Constant Matrix: (Units=GPa)
#
#
# Indices 1 2 3 4 5 6 
#
# 1 135.6755 60.5701 70.4328 0.0000 0.0000 0.0000
# 2 60.5701 140.7063 62.4058 0.0000 0.0000 0.0000
# 3 70.4328 62.4058 156.2306 0.0000 0.0000 0.0000
# 4 0.0000 0.0000 0.0000 28.0692 0.0000 0.0000
# 5 0.0000 0.0000 0.0000 0.0000 40.8669 0.0000
# 6 0.0000 0.0000 0.0000 0.0000 0.0000 68.8970
#
#
#
# Elastic Compliance Matrix: (Units=1/GPa)
#
#
# Indices 1 2 3 4 5 6 
#
# 1 0.010545 -0.002954 -0.003574 0.000000 0.000000 0.000000
# 2 -0.002954 0.009465 -0.002449 0.000000 0.000000 0.000000
# 3 -0.003574 -0.002449 0.008990 0.000000 0.000000 0.000000
# 4 0.000000 0.000000 0.000000 0.035626 0.000000 0.000000
# 5 0.000000 0.000000 0.000000 0.000000 0.024470 0.000000
# 6 0.000000 0.000000 0.000000 0.000000 0.000000 0.014514
#
#
# Mechanical properties :
#
#
# Convention : Reuss Voigt Hill
#
# Bulk Modulus (GPa) = 90.53064 91.04776 90.78920
# Shear Modulus (GPa) = 39.92164 43.51354 41.71759
#
# Velocity S-wave (km/s) = 4.37420 4.56674 4.47151
# Velocity P-wave (km/s) = 8.30066 8.45246 8.37690
#
# Compressibility (1/GPa) = 0.01104598
#
# Stress axis : x y z
#
# Youngs Moduli (GPa) = 94.83545 105.65471 111.23300
#
# Poissons Ratio (x) = 0.31212 0.39752
# Poissons Ratio (y) = 0.28016 0.27240
# Poissons Ratio (z) = 0.33892 0.25874
#
# Static dielectric constant tensor:
#      x y z
#    x 1.791560 0.000000 0.000000 
#    y 0.000000 1.839340 0.000000 
#    z 0.000000 0.000000 1.678320 
# 
# From -- ./inp_files/28291.got.cif
#   From: 2010.05.17/outbox.cif.g08.bks.cpg/sg22_15_cif.got.tgz:28291.got - 2010.06.03 23:40:54.
