data_PCOD9326274
_publ_section_title
;
Structure prediction by ZEFSAII (Michael W. Deem and Ramdas Pophale) SiO2 
 PCOD9326274
Probable space group: F 2 2 2
;
_chemical_formula_sum "Si O2"
_cell_formula_units_Z 108
_cell_length_a 29.697552
_cell_length_b 14.300625
_cell_length_c 13.099368
_cell_angle_alpha 90.000000
_cell_angle_beta 90.000000
_cell_angle_gamma 90.000000
_cell_volume 5563.217159
_symmetry_space_group_name_H-M "F 2 2 2"
_symmetry_group_IT_number 22
_symmetry_cell_setting 'orthorhombic'
loop_
_space_group_symop_operation_xyz
x,y,z
-x,-y,z
x,-y,-z
-x,y,-z
x,1/2+y,1/2+z
-x,1/2-y,1/2+z
x,1/2-y,1/2-z
-x,1/2+y,1/2-z
1/2+x,y,1/2+z
1/2-x,-y,1/2+z
1/2+x,-y,1/2-z
1/2-x,y,1/2-z
1/2+x,1/2+y,z
1/2-x,1/2-y,z
1/2+x,1/2-y,-z
1/2-x,1/2+y,-z
loop_
_atom_site_type_symbol
_atom_site_label
_atom_site_fract_x
_atom_site_fract_y
_atom_site_fract_z
Si Si1 0.978099 0.750000 0.750000
Si Si2 0.643408 0.396396 0.523693
Si Si3 0.048409 0.181171 0.531143
Si Si4 0.235153 0.147191 0.558072
Si Si5 0.147584 0.357081 0.262543
Si Si6 0.949296 0.648615 0.368748
Si Si7 0.729013 0.949714 0.356116
Si Si8 0.000000 0.500000 0.500000
O O1 0.952705 0.782474 0.647969
O O2 0.012039 0.669284 0.713728
O O3 0.658349 0.500000 0.500000
O O4 0.593000 0.378337 0.486112
O O5 0.681618 0.340387 0.462428
O O6 0.644957 0.387566 0.645243
O O7 0.051854 0.267585 0.451622
O O8 0.000000 0.136831 0.500000
O O9 0.250000 0.250000 0.593979
O O10 0.253301 0.056412 0.622642
O O11 0.255045 0.117013 0.447522
O O12 0.164991 0.250000 0.250000
O O13 0.098240 0.354546 0.312823
O O14 0.176825 0.427156 0.332892
O O15 0.966780 0.560362 0.430295
O O16 0.750000 0.918259 0.250000
#
# Coordination Sequence:
#
# PCOD9326274 Si02
#       8
#     8  16  16  16  16  16  16   4
#     4  10  18  42  66  88 132 184 218 262 342 420
#     4  12  23  43  64  96 135 165 222 299 331 393
#     4  10  21  41  66  92 132 175 225 277 340 406
#     4  11  24  44  66  93 139 178 212 286 350 403
#     4  12  22  40  73 100 128 179 233 283 342 413
#     4  11  22  41  65 100 137 177 225 286 337 402
#     4  11  23  42  66 101 127 169 230 274 332 422
#     4  12  24  40  64  96 148 176 212 296 340 384
#
# _framework density 19.413229000000001
#
# number of rings (size 3 to 8) (size 9 to 14) (size 15 to 20)
#    0.000    0.889    7.407    1.778    0.000    2.963 
#    0.000    1.481    0.000    0.000    0.000    0.000 
#    0.000    0.000    0.000    0.000    0.000    0.000 
#
# Total GULP energy -150480.722733 kJ/mol
# GULP energy per Si atom -5573.360101 kJ/mol
# Density = 1.936904 g / cm^3
# Si number density = 19.413229 Si / 1000 Ang^3
#
#
#
# Elastic Constant Matrix: (Units=GPa)
#
#
# Indices 1 2 3 4 5 6 
#
# 1 105.7665 10.8437 22.4403 0.0000 0.0000 0.0000
# 2 10.8437 52.9019 4.6973 0.0000 0.0000 0.0000
# 3 22.4403 4.6973 94.2747 0.0000 0.0000 0.0000
# 4 0.0000 0.0000 0.0000 24.5225 0.0000 0.0000
# 5 0.0000 0.0000 0.0000 0.0000 41.8693 0.0000
# 6 0.0000 0.0000 0.0000 0.0000 0.0000 26.5096
#
#
#
# Elastic Compliance Matrix: (Units=1/GPa)
#
#
# Indices 1 2 3 4 5 6 
#
# 1 0.010139 -0.001872 -0.002320 0.000000 0.000000 0.000000
# 2 -0.001872 0.019333 -0.000518 0.000000 0.000000 0.000000
# 3 -0.002320 -0.000518 0.011185 0.000000 0.000000 0.000000
# 4 0.000000 0.000000 0.000000 0.040779 0.000000 0.000000
# 5 0.000000 0.000000 0.000000 0.000000 0.023884 0.000000
# 6 0.000000 0.000000 0.000000 0.000000 0.000000 0.037722
#
#
# Mechanical properties :
#
#
# Convention : Reuss Voigt Hill
#
# Bulk Modulus (GPa) = 32.01330 36.54510 34.27920
# Shear Modulus (GPa) = 30.69854 32.91106 31.80480
#
# Velocity S-wave (km/s) = 3.98090 4.12186 4.05199
# Velocity P-wave (km/s) = 6.13647 6.44350 6.29186
#
# Compressibility (1/GPa) = 0.03123702
#
# Stress axis : x y z
#
# Youngs Moduli (GPa) = 98.62907 51.72600 89.40266
#
# Poissons Ratio (x) = 0.09684 0.20742
# Poissons Ratio (y) = 0.18466 0.04628
# Poissons Ratio (z) = 0.22883 0.02677
#
# Static dielectric constant tensor:
#      x y z
#    x 1.643190 0.000000 0.000000 
#    y 0.000000 2.545670 0.000000 
#    z 0.000000 0.000000 1.624030 
# 
# From -- ./inp_files/32555.got.cif
#   From: 2010.05.17/outbox.cif.g08.bks.cpg/sg22_17_cif.got.tgz:32555.got - 2010.06.03 23:40:54.
