data_PCOD9326213
_publ_section_title
;
Structure prediction by ZEFSAII (Michael W. Deem and Ramdas Pophale) SiO2 
 PCOD9326213
Probable space group: F 2 2 2
;
_chemical_formula_sum "Si O2"
_cell_formula_units_Z 104
_cell_length_a 20.026517
_cell_length_b 18.777815
_cell_length_c 14.722758
_cell_angle_alpha 90.000000
_cell_angle_beta 90.000000
_cell_angle_gamma 90.000000
_cell_volume 5536.555443
_symmetry_space_group_name_H-M "F 2 2 2"
_symmetry_group_IT_number 22
_symmetry_cell_setting 'orthorhombic'
loop_
_space_group_symop_operation_xyz
x,y,z
-x,-y,z
x,-y,-z
-x,y,-z
x,1/2+y,1/2+z
-x,1/2-y,1/2+z
x,1/2-y,1/2-z
-x,1/2+y,1/2-z
1/2+x,y,1/2+z
1/2-x,-y,1/2+z
1/2+x,-y,1/2-z
1/2-x,y,1/2-z
1/2+x,1/2+y,z
1/2-x,1/2-y,z
1/2+x,1/2-y,-z
1/2-x,1/2+y,-z
loop_
_atom_site_type_symbol
_atom_site_label
_atom_site_fract_x
_atom_site_fract_y
_atom_site_fract_z
Si Si1 0.576928 0.341846 0.008252
Si Si2 0.824124 0.281184 0.957588
Si Si3 0.734826 0.000000 0.000000
Si Si4 0.171056 0.830916 0.730432
Si Si5 0.694204 0.120261 0.124147
Si Si6 0.349340 0.892216 0.322596
Si Si7 0.854340 0.945066 0.117493
O O1 0.601042 0.349866 0.112104
O O2 0.500000 0.323481 0.000000
O O3 0.624237 0.283519 0.961094
O O4 0.592706 0.415473 0.955023
O O5 0.750000 0.250000 0.939725
O O6 0.839795 0.337006 0.877360
O O7 0.824273 0.318345 0.054694
O O8 0.692072 0.953882 0.930472
O O9 0.784688 0.050733 0.940528
O O10 0.147457 0.750000 0.750000
O O11 0.250000 0.832310 0.750000
O O12 0.144234 0.891128 0.797578
O O13 0.650985 0.120785 0.215277
O O14 0.773140 0.126244 0.148136
O O15 0.361484 0.975363 0.344760
#
# Coordination Sequence:
#
# PCOD9326213 Si02
#       7
#    16  16   8  16  16  16  16
#     4  12  24  42  65  91 125 169 215 267 321 384
#     4  12  21  40  60  89 128 167 213 262 330 382
#     4  10  18  36  59  94 133 160 200 268 328 376
#     4  11  20  30  56  88 121 158 199 260 321 369
#     4  10  21  35  59  90 130 162 208 259 321 380
#     4  10  22  38  57  92 124 172 207 259 320 380
#     4  11  20  37  56  89 127 158 211 260 317 378
#
# _framework density 18.784243
#
# number of rings (size 3 to 8) (size 9 to 14) (size 15 to 20)
#    0.000    1.077    7.692    0.923    6.462    1.846 
#    0.000    3.077    0.000    0.000    0.000    0.000 
#    0.000    0.000    0.000    0.000    0.000    0.000 
#
# Total GULP energy -145123.427421 kJ/mol
# GULP energy per Si atom -5581.670285 kJ/mol
# Density = 1.874149 g / cm^3
# Si number density = 18.784243 Si / 1000 Ang^3
#
#
#
# Elastic Constant Matrix: (Units=GPa)
#
#
# Indices 1 2 3 4 5 6 
#
# 1 76.4459 25.4604 31.0668 0.0000 0.0000 0.0000
# 2 25.4604 50.1115 36.2085 0.0000 0.0000 0.0000
# 3 31.0668 36.2085 160.3086 0.0000 0.0000 0.0000
# 4 0.0000 0.0000 0.0000 40.9152 0.0000 0.0000
# 5 0.0000 0.0000 0.0000 0.0000 14.2924 0.0000
# 6 0.0000 0.0000 0.0000 0.0000 0.0000 11.7178
#
#
#
# Elastic Compliance Matrix: (Units=1/GPa)
#
#
# Indices 1 2 3 4 5 6 
#
# 1 0.016048 -0.007058 -0.001516 0.000000 0.000000 0.000000
# 2 -0.007058 0.026952 -0.004720 0.000000 0.000000 0.000000
# 3 -0.001516 -0.004720 0.007598 0.000000 0.000000 0.000000
# 4 0.000000 0.000000 0.000000 0.024441 0.000000 0.000000
# 5 0.000000 0.000000 0.000000 0.000000 0.069967 0.000000
# 6 0.000000 0.000000 0.000000 0.000000 0.000000 0.085340
#
#
# Mechanical properties :
#
#
# Convention : Reuss Voigt Hill
#
# Bulk Modulus (GPa) = 41.64927 52.48193 47.06560
# Shear Modulus (GPa) = 18.87243 26.32710 22.59976
#
# Velocity S-wave (km/s) = 3.17313 3.74779 3.47237
# Velocity P-wave (km/s) = 5.97039 6.83578 6.41769
#
# Compressibility (1/GPa) = 0.02401002
#
# Stress axis : x y z
#
# Youngs Moduli (GPa) = 62.31337 37.10309 131.61815
#
# Poissons Ratio (x) = 0.26189 0.19950
# Poissons Ratio (y) = 0.43983 0.62120
# Poissons Ratio (z) = 0.09445 0.17512
#
# Static dielectric constant tensor:
#      x y z
#    x 1.615070 0.000000 0.000000 
#    y 0.000000 1.683610 0.000000 
#    z 0.000000 0.000000 1.702670 
# 
# From -- ./inp_files/31828.got.cif
#   From: 2010.05.17/outbox.cif.g08.bks.cpg/sg22_16_cif.got.tgz:31828.got - 2010.06.03 23:40:54.
