data_PCOD9326480
_publ_section_title
;
Structure prediction by ZEFSAII (Michael W. Deem and Ramdas Pophale) SiO2 
 PCOD9326480
Probable space group: F 2 2 2
;
_chemical_formula_sum "Si O2"
_cell_formula_units_Z 88
_cell_length_a 17.492763
_cell_length_b 8.802746
_cell_length_c 30.567539
_cell_angle_alpha 90.000000
_cell_angle_beta 90.000000
_cell_angle_gamma 90.000000
_cell_volume 4706.922610
_symmetry_space_group_name_H-M "F 2 2 2"
_symmetry_group_IT_number 22
_symmetry_cell_setting 'orthorhombic'
loop_
_space_group_symop_operation_xyz
x,y,z
-x,-y,z
x,-y,-z
-x,y,-z
x,1/2+y,1/2+z
-x,1/2-y,1/2+z
x,1/2-y,1/2-z
-x,1/2+y,1/2-z
1/2+x,y,1/2+z
1/2-x,-y,1/2+z
1/2+x,-y,1/2-z
1/2-x,y,1/2-z
1/2+x,1/2+y,z
1/2-x,1/2-y,z
1/2+x,1/2-y,-z
1/2-x,1/2+y,-z
loop_
_atom_site_type_symbol
_atom_site_label
_atom_site_fract_x
_atom_site_fract_y
_atom_site_fract_z
Si Si1 0.692452 0.890642 0.958455
Si Si2 0.410343 0.827493 0.507263
Si Si3 0.110147 0.248351 0.187969
Si Si4 0.335684 0.499285 0.753831
Si Si5 0.335473 0.316609 0.406602
Si Si6 0.966536 0.750000 0.750000
O O1 0.750000 0.750000 0.950546
O O2 0.675959 0.006888 0.919489
O O3 0.618543 0.797869 0.973196
O O4 0.714083 0.000000 0.000000
O O5 0.500000 0.832756 0.500000
O O6 0.378720 0.767935 0.553618
O O7 0.382015 0.000000 0.500000
O O8 0.154951 0.375667 0.215785
O O9 0.150459 0.089808 0.200902
O O10 0.118091 0.287875 0.137612
O O11 0.024732 0.244367 0.208720
O O12 0.250000 0.434774 0.750000
O O13 0.408025 0.389666 0.748484
O O14 0.250000 0.250000 0.402290
#
# Coordination Sequence:
#
# PCOD9326480 Si02
#       6
#    16  16  16  16  16   8
#     4  10  19  35  60  84 112 155 200 253 306 357
#     4  10  21  40  57  84 119 158 203 242 310 364
#     4  10  20  39  60  88 121 165 202 239 304 370
#     4  10  19  38  65  88 123 158 199 243 303 369
#     4  11  22  37  62  88 116 157 210 253 297 363
#     4  10  21  40  61  94 124 158 196 254 307 358
#
# _framework density 18.695867
#
# number of rings (size 3 to 8) (size 9 to 14) (size 15 to 20)
#    0.000    2.000    0.000    8.455    0.000    3.273 
#   13.091    3.636    0.000    0.000    0.000    0.000 
#    0.000    0.000    0.000    0.000    0.000    0.000 
#
# Total GULP energy -122625.755014 kJ/mol
# GULP energy per Si atom -5573.897955 kJ/mol
# Density = 1.865331 g / cm^3
# Si number density = 18.695867 Si / 1000 Ang^3
#
#
#
# Elastic Constant Matrix: (Units=GPa)
#
#
# Indices 1 2 3 4 5 6 
#
# 1 156.0319 52.8755 40.3452 0.0000 0.0000 0.0000
# 2 52.8755 132.3447 52.4017 0.0000 0.0000 0.0000
# 3 40.3452 52.4017 91.0870 0.0000 0.0000 0.0000
# 4 0.0000 0.0000 0.0000 37.5743 0.0000 0.0000
# 5 0.0000 0.0000 0.0000 0.0000 9.3909 0.0000
# 6 0.0000 0.0000 0.0000 0.0000 0.0000 32.8579
#
#
#
# Elastic Compliance Matrix: (Units=1/GPa)
#
#
# Indices 1 2 3 4 5 6 
#
# 1 0.007719 -0.002241 -0.002130 0.000000 0.000000 0.000000
# 2 -0.002241 0.010435 -0.005011 0.000000 0.000000 0.000000
# 3 -0.002130 -0.005011 0.014805 0.000000 0.000000 0.000000
# 4 0.000000 0.000000 0.000000 0.026614 0.000000 0.000000
# 5 0.000000 0.000000 0.000000 0.000000 0.106486 0.000000
# 6 0.000000 0.000000 0.000000 0.000000 0.000000 0.030434
#
#
# Mechanical properties :
#
#
# Convention : Reuss Voigt Hill
#
# Bulk Modulus (GPa) = 70.44246 74.52316 72.48281
# Shear Modulus (GPa) = 22.72855 31.55403 27.14129
#
# Velocity S-wave (km/s) = 3.49047 4.11269 3.81429
# Velocity P-wave (km/s) = 7.34877 7.90567 7.63230
#
# Compressibility (1/GPa) = 0.01419598
#
# Stress axis : x y z
#
# Youngs Moduli (GPa) = 129.55085 95.82887 67.54615
#
# Poissons Ratio (x) = 0.21471 0.14387
# Poissons Ratio (y) = 0.29027 0.33847
# Poissons Ratio (z) = 0.27594 0.48019
#
# Static dielectric constant tensor:
#      x y z
#    x 1.521090 0.000000 0.000000 
#    y 0.000000 1.693730 0.000000 
#    z 0.000000 0.000000 1.622270 
# 
# From -- ./inp_files/11800.got.cif
#   From: 2010.05.17/outbox.cif.g08.bks.cpg/sg22_6_cif.got.tgz:11800.got - 2010.06.03 23:40:54.
