data_PCOD9326062
_publ_section_title
;
Structure prediction by ZEFSAII (Michael W. Deem and Ramdas Pophale) SiO2 
 PCOD9326062
Probable space group: F 2 2 2
;
_chemical_formula_sum "Si O2"
_cell_formula_units_Z 116
_cell_length_a 20.946971
_cell_length_b 11.257938
_cell_length_c 28.062556
_cell_angle_alpha 90.000000
_cell_angle_beta 90.000000
_cell_angle_gamma 90.000000
_cell_volume 6617.703560
_symmetry_space_group_name_H-M "F 2 2 2"
_symmetry_group_IT_number 22
_symmetry_cell_setting 'orthorhombic'
loop_
_space_group_symop_operation_xyz
x,y,z
-x,-y,z
x,-y,-z
-x,y,-z
x,1/2+y,1/2+z
-x,1/2-y,1/2+z
x,1/2-y,1/2-z
-x,1/2+y,1/2-z
1/2+x,y,1/2+z
1/2-x,-y,1/2+z
1/2+x,-y,1/2-z
1/2-x,y,1/2-z
1/2+x,1/2+y,z
1/2-x,1/2-y,z
1/2+x,1/2-y,-z
1/2-x,1/2+y,-z
loop_
_atom_site_type_symbol
_atom_site_label
_atom_site_fract_x
_atom_site_fract_y
_atom_site_fract_z
Si Si1 0.567877 0.936672 0.758641
Si Si2 0.932046 0.863038 0.015926
Si Si3 0.568113 0.257270 0.168526
Si Si4 0.750000 0.750000 0.250000
Si Si5 0.838522 0.567744 0.302619
Si Si6 0.293893 0.134287 0.522074
Si Si7 0.954867 0.381504 0.625769
Si Si8 0.800484 0.149078 0.134052
O O1 0.577471 0.870188 0.808170
O O2 0.565516 0.845113 0.714238
O O3 0.500000 0.000000 0.759090
O O4 0.626264 0.019825 0.744698
O O5 0.929121 0.861960 0.072901
O O6 0.865660 0.824498 0.992389
O O7 0.000000 0.807166 0.000000
O O8 0.935638 0.000000 0.000000
O O9 0.502228 0.276561 0.141252
O O10 0.628262 0.297057 0.137701
O O11 0.793102 0.670462 0.284792
O O12 0.896627 0.604238 0.337723
O O13 0.801216 0.463018 0.330417
O O14 0.250000 0.250000 0.509438
O O15 0.288658 0.116721 0.579112
O O16 0.282474 0.000000 0.500000
O O17 0.000000 0.500000 0.626338
O O18 0.750000 0.250000 0.148744
#
# Coordination Sequence:
#
# PCOD9326062 Si02
#       8
#    16  16  16   4  16  16  16  16
#     4  10  19  34  58  76 106 147 195 243 287 348
#     4  10  18  30  60  94 121 143 193 254 305 358
#     4  10  20  32  55  87 106 146 195 244 297 338
#     4  12  32  40  54  80 128 172 198 258 300 376
#     4  11  23  42  56  82 118 158 200 247 308 349
#     4  10  21  39  64  93 121 162 201 246 306 377
#     4  12  18  35  58  89 117 144 188 253 306 353
#     4  10  21  39  61  86 117 152 200 248 289 360
#
# _framework density 17.528739000000002
#
# number of rings (size 3 to 8) (size 9 to 14) (size 15 to 20)
#    0.000    1.517    5.517    2.483    3.862    0.000 
#    4.966    0.000    3.034    0.414    0.000    0.000 
#    0.000    0.000    0.000    0.000    0.000    0.000 
#
# Total GULP energy -161644.584328 kJ/mol
# GULP energy per Si atom -5573.951184 kJ/mol
# Density = 1.748884 g / cm^3
# Si number density = 17.528739 Si / 1000 Ang^3
#
#
#
# Elastic Constant Matrix: (Units=GPa)
#
#
# Indices 1 2 3 4 5 6 
#
# 1 107.7679 65.8312 26.9031 0.0000 0.0000 0.0000
# 2 65.8312 87.6844 43.5964 0.0000 0.0000 0.0000
# 3 26.9031 43.5964 65.4838 0.0000 0.0000 0.0000
# 4 0.0000 0.0000 0.0000 17.1029 0.0000 0.0000
# 5 0.0000 0.0000 0.0000 0.0000 8.1621 0.0000
# 6 0.0000 0.0000 0.0000 0.0000 0.0000 31.9006
#
#
#
# Elastic Compliance Matrix: (Units=1/GPa)
#
#
# Indices 1 2 3 4 5 6 
#
# 1 0.017371 -0.014190 0.002311 0.000000 0.000000 0.000000
# 2 -0.014190 0.028640 -0.013237 0.000000 0.000000 0.000000
# 3 0.002311 -0.013237 0.023134 0.000000 0.000000 0.000000
# 4 0.000000 0.000000 0.000000 0.058470 0.000000 0.000000
# 5 0.000000 0.000000 0.000000 0.000000 0.122517 0.000000
# 6 0.000000 0.000000 0.000000 0.000000 0.000000 0.031347
#
#
# Mechanical properties :
#
#
# Convention : Reuss Voigt Hill
#
# Bulk Modulus (GPa) = 52.87848 59.28863 56.08355
# Shear Modulus (GPa) = 14.79217 19.74014 17.26616
#
# Velocity S-wave (km/s) = 2.90811 3.35947 3.14191
# Velocity P-wave (km/s) = 6.44270 6.99608 6.72508
#
# Compressibility (1/GPa) = 0.01891129
#
# Stress axis : x y z
#
# Youngs Moduli (GPa) = 57.56815 34.91626 43.22566
#
# Poissons Ratio (x) = 0.49548 -0.09989
# Poissons Ratio (y) = 0.81692 0.57219
# Poissons Ratio (z) = -0.13303 0.46220
#
# Static dielectric constant tensor:
#      x y z
#    x 1.663550 0.000000 0.000000 
#    y 0.000000 1.691700 0.000000 
#    z 0.000000 0.000000 1.588660 
# 
# From -- ./inp_files/40058.got.cif
#   From: 2010.05.17/outbox.cif.g08.bks.cpg/sg22_21_cif.got.tgz:40058.got - 2010.06.03 23:40:54.
