data_PCOD9326232
_publ_section_title
;
Structure prediction by ZEFSAII (Michael W. Deem and Ramdas Pophale) SiO2 
 PCOD9326232
Probable space group: F 2 2 2
;
_chemical_formula_sum "Si O2"
_cell_formula_units_Z 68
_cell_length_a 4.847523
_cell_length_b 24.564493
_cell_length_c 25.659728
_cell_angle_alpha 90.000000
_cell_angle_beta 90.000000
_cell_angle_gamma 90.000000
_cell_volume 3055.482015
_symmetry_space_group_name_H-M "F 2 2 2"
_symmetry_group_IT_number 22
_symmetry_cell_setting 'orthorhombic'
loop_
_space_group_symop_operation_xyz
x,y,z
-x,-y,z
x,-y,-z
-x,y,-z
x,1/2+y,1/2+z
-x,1/2-y,1/2+z
x,1/2-y,1/2-z
-x,1/2+y,1/2-z
1/2+x,y,1/2+z
1/2-x,-y,1/2+z
1/2+x,-y,1/2-z
1/2-x,y,1/2-z
1/2+x,1/2+y,z
1/2-x,1/2-y,z
1/2+x,1/2-y,-z
1/2-x,1/2+y,-z
loop_
_atom_site_type_symbol
_atom_site_label
_atom_site_fract_x
_atom_site_fract_y
_atom_site_fract_z
Si Si1 0.706420 0.076281 0.089374
Si Si2 0.188631 0.050761 0.158147
Si Si3 0.362852 0.193360 0.873993
Si Si4 0.500000 0.000000 0.000000
Si Si5 0.136173 0.831355 0.804910
O O1 0.504126 0.054315 0.136433
O O2 0.665675 0.141093 0.088584
O O3 0.018333 0.065683 0.106228
O O4 0.656097 0.041038 0.038600
O O5 0.155948 0.103039 0.194587
O O6 0.000000 0.000000 0.179063
O O7 0.250000 0.250000 0.896281
O O8 0.669198 0.191110 0.851047
O O9 0.170827 0.182976 0.822787
O O10 0.250000 0.811488 0.750000
#
# Coordination Sequence:
#
# PCOD9326232 Si02
#       5
#    16  16  16   4  16
#     4  10  22  33  58  86 111 145 189 233 294 346
#     4  10  18  37  52  78 119 152 178 230 294 348
#     4  10  21  38  56  78 117 157 188 237 297 342
#     4  12  20  38  64  94 112 142 196 252 284 366
#     4  10  21  34  55  85 111 150 204 240 274 338
#
# _framework density 22.255082000000002
#
# number of rings (size 3 to 8) (size 9 to 14) (size 15 to 20)
#    0.000    1.882    2.353    1.412    0.000    4.706 
#    0.000    7.059    0.000    8.471    0.000    0.000 
#    0.000    0.000    0.000    0.000    0.000    0.000 
#
# Total GULP energy -94747.217390 kJ/mol
# GULP energy per Si atom -5573.365729 kJ/mol
# Density = 2.220443 g / cm^3
# Si number density = 22.255082 Si / 1000 Ang^3
#
#
#
# Elastic Constant Matrix: (Units=GPa)
#
#
# Indices 1 2 3 4 5 6 
#
# 1 80.4096 -7.0778 -6.3923 0.0000 0.0000 0.0000
# 2 -7.0778 202.1548 22.7709 0.0000 0.0000 0.0000
# 3 -6.3923 22.7709 58.2826 0.0000 0.0000 0.0000
# 4 0.0000 0.0000 0.0000 -7.4908 0.0000 0.0000
# 5 0.0000 0.0000 0.0000 0.0000 8.5226 0.0000
# 6 0.0000 0.0000 0.0000 0.0000 0.0000 34.8887
#
#
#
# Elastic Compliance Matrix: (Units=1/GPa)
#
#
# Indices 1 2 3 4 5 6 
#
# 1 0.012563 0.000298 0.001262 0.000000 0.000000 0.000000
# 2 0.000298 0.005181 -0.001992 0.000000 0.000000 0.000000
# 3 0.001262 -0.001992 0.018074 0.000000 0.000000 0.000000
# 4 0.000000 0.000000 0.000000 -0.133497 0.000000 0.000000
# 5 0.000000 0.000000 0.000000 0.000000 0.117336 0.000000
# 6 0.000000 0.000000 0.000000 0.000000 0.000000 0.028663
#
#
# Mechanical properties :
#
#
# Convention : Reuss Voigt Hill
#
# Bulk Modulus (GPa) = 28.60931 39.93875 34.27403
# Shear Modulus (GPa) = 82.18906 29.28719 55.73812
#
# Velocity S-wave (km/s) = 6.08364 3.63158 5.00994
# Velocity P-wave (km/s) = 7.88864 5.96400 6.99285
#
# Compressibility (1/GPa) = 0.03495366
#
# Stress axis : x y z
#
# Youngs Moduli (GPa) = 79.59998 192.99502 55.32720
#
# Poissons Ratio (x) = -0.05746 -0.06980
# Poissons Ratio (y) = -0.02370 0.11020
# Poissons Ratio (z) = -0.10042 0.38440
#
# Static dielectric constant tensor:
#      x y z
#    x 1.807780 0.000000 0.000000 
#    y 0.000000 1.957020 0.000000 
#    z 0.000000 0.000000 1.800760 
# 
# From -- ./inp_files/5513.got.cif
#   From: 2010.05.17/outbox.cif.g08.bks.cpg/sg22_3_cif.got.tgz:5513.got - 2010.06.03 23:40:54.
