data_PCOD9326351
_publ_section_title
;
Structure prediction by ZEFSAII (Michael W. Deem and Ramdas Pophale) SiO2 
 PCOD9326351
Probable space group: F 2 2 2
;
_chemical_formula_sum "Si O2"
_cell_formula_units_Z 120
_cell_length_a 20.972320
_cell_length_b 15.034264
_cell_length_c 18.019777
_cell_angle_alpha 90.000000
_cell_angle_beta 90.000000
_cell_angle_gamma 90.000000
_cell_volume 5681.696876
_symmetry_space_group_name_H-M "F 2 2 2"
_symmetry_group_IT_number 22
_symmetry_cell_setting 'orthorhombic'
loop_
_space_group_symop_operation_xyz
x,y,z
-x,-y,z
x,-y,-z
-x,y,-z
x,1/2+y,1/2+z
-x,1/2-y,1/2+z
x,1/2-y,1/2-z
-x,1/2+y,1/2-z
1/2+x,y,1/2+z
1/2-x,-y,1/2+z
1/2+x,-y,1/2-z
1/2-x,y,1/2-z
1/2+x,1/2+y,z
1/2-x,1/2-y,z
1/2+x,1/2-y,-z
1/2-x,1/2+y,-z
loop_
_atom_site_type_symbol
_atom_site_label
_atom_site_fract_x
_atom_site_fract_y
_atom_site_fract_z
Si Si1 0.250000 0.250000 0.620981
Si Si2 0.322580 0.760155 0.840193
Si Si3 0.157334 0.896185 0.119687
Si Si4 0.488109 0.346726 0.913939
Si Si5 0.114637 0.581751 0.639789
Si Si6 0.352244 0.127766 0.793860
Si Si7 0.387436 0.936298 0.816152
Si Si8 0.497198 0.184354 0.814916
O O1 0.207865 0.328624 0.582821
O O2 0.303416 0.305331 0.667127
O O3 0.326358 0.750000 0.750000
O O4 0.250000 0.750000 0.861433
O O5 0.360183 0.679799 0.877734
O O6 0.349222 0.857506 0.855742
O O7 0.084657 0.866676 0.106131
O O8 0.169231 0.886851 0.208713
O O9 0.153223 0.001388 0.101757
O O10 0.539305 0.412328 0.875702
O O11 0.499966 0.246272 0.886636
O O12 0.500000 0.356400 0.000000
O O13 0.123611 0.568023 0.727516
O O14 0.424633 0.163992 0.793604
O O15 0.361453 0.033408 0.835823
O O16 0.460769 0.904016 0.823638
O O17 0.524091 0.250000 0.750000
#
# Coordination Sequence:
#
# PCOD9326351 Si02
#       8
#     8  16  16  16  16  16  16  16
#     4  12  23  38  58  96 138 164 203 258 315 380
#     4   9  17  30  49  80 119 150 185 244 298 349
#     4  11  22  36  58  89 125 163 199 250 308 375
#     4  12  24  39  62  90 122 160 207 263 319 364
#     4  10  20  35  57  86 119 157 201 249 305 362
#     4  11  21  33  59  93 125 160 199 248 312 373
#     4  10  19  32  58  89 120 154 198 248 307 368
#     4  12  18  37  62  87 122 156 199 258 310 364
#
# _framework density 21.120450999999999
#
# number of rings (size 3 to 8) (size 9 to 14) (size 15 to 20)
#    0.000    1.200    5.333    2.400    1.867    3.200 
#    0.000    0.000    1.467    1.600    3.467    0.000 
#    0.000    0.000    0.000    0.000    0.000    0.000 
#
# Total GULP energy -167392.172766 kJ/mol
# GULP energy per Si atom -5579.739092 kJ/mol
# Density = 2.107238 g / cm^3
# Si number density = 21.120451 Si / 1000 Ang^3
#
#
#
# Elastic Constant Matrix: (Units=GPa)
#
#
# Indices 1 2 3 4 5 6 
#
# 1 107.0694 44.4250 -4.7466 0.0000 0.0000 0.0000
# 2 44.4250 171.2855 5.0742 0.0000 0.0000 0.0000
# 3 -4.7466 5.0742 12.7267 0.0000 0.0000 0.0000
# 4 0.0000 0.0000 0.0000 -6.4146 0.0000 0.0000
# 5 0.0000 0.0000 0.0000 0.0000 -4.1655 0.0000
# 6 0.0000 0.0000 0.0000 0.0000 0.0000 9.5915
#
#
#
# Elastic Compliance Matrix: (Units=1/GPa)
#
#
# Indices 1 2 3 4 5 6 
#
# 1 0.010796 -0.002954 0.005205 0.000000 0.000000 0.000000
# 2 -0.002954 0.006716 -0.003780 0.000000 0.000000 0.000000
# 3 0.005205 -0.003780 0.082023 0.000000 0.000000 0.000000
# 4 0.000000 0.000000 0.000000 -0.155893 0.000000 0.000000
# 5 0.000000 0.000000 0.000000 0.000000 -0.240065 0.000000
# 6 0.000000 0.000000 0.000000 0.000000 0.000000 0.104259
#
#
# Mechanical properties :
#
#
# Convention : Reuss Voigt Hill
#
# Bulk Modulus (GPa) = 10.36517 42.28741 26.32629
# Shear Modulus (GPa) = -31.85812 16.22420 -7.81696
#
# Velocity S-wave (km/s) = -3.88803 2.77460 -1.92592
# Velocity P-wave (km/s) = 3.90351 5.50727 2.74706
#
# Compressibility (1/GPa) = 0.09647693
#
# Stress axis : x y z
#
# Youngs Moduli (GPa) = 92.62464 148.88898 12.19166
#
# Poissons Ratio (x) = 0.43987 -0.06345
# Poissons Ratio (y) = 0.27364 0.04608
# Poissons Ratio (z) = -0.48207 0.56276
#
# Static dielectric constant tensor:
#      x y z
#    x 1.785830 0.000000 0.000000 
#    y 0.000000 1.836510 0.000000 
#    z 0.000000 0.000000 1.752830 
# 
# From -- ./inp_files/44914.got.cif
#   From: 2010.05.17/outbox.cif.g08.bks.cpg/sg22_23_cif.got.tgz:44914.got - 2010.06.03 23:40:54.
