data_PCOD9326452
_publ_section_title
;
Structure prediction by ZEFSAII (Michael W. Deem and Ramdas Pophale) SiO2 
 PCOD9326452
Probable space group: F 2 2 2
;
_chemical_formula_sum "Si O2"
_cell_formula_units_Z 52
_cell_length_a 19.286142
_cell_length_b 5.197033
_cell_length_c 23.538508
_cell_angle_alpha 90.000000
_cell_angle_beta 90.000000
_cell_angle_gamma 90.000000
_cell_volume 2359.281520
_symmetry_space_group_name_H-M "F 2 2 2"
_symmetry_group_IT_number 22
_symmetry_cell_setting 'orthorhombic'
loop_
_space_group_symop_operation_xyz
x,y,z
-x,-y,z
x,-y,-z
-x,y,-z
x,1/2+y,1/2+z
-x,1/2-y,1/2+z
x,1/2-y,1/2-z
-x,1/2+y,1/2-z
1/2+x,y,1/2+z
1/2-x,-y,1/2+z
1/2+x,-y,1/2-z
1/2-x,y,1/2-z
1/2+x,1/2+y,z
1/2-x,1/2-y,z
1/2+x,1/2-y,-z
1/2-x,1/2+y,-z
loop_
_atom_site_type_symbol
_atom_site_label
_atom_site_fract_x
_atom_site_fract_y
_atom_site_fract_z
Si Si1 0.750000 0.250000 0.750000
Si Si2 0.166187 0.973546 0.154085
Si Si3 0.250000 0.750000 0.439977
Si Si4 0.579339 0.035166 0.874624
Si Si5 0.128218 0.500000 0.000000
O O1 0.795635 0.060365 0.788972
O O2 0.109850 0.193294 0.143961
O O3 0.224556 0.967431 0.104336
O O4 0.127612 0.697334 0.149126
O O5 0.183775 0.788595 0.479578
O O6 0.500000 0.000000 0.857231
O O7 0.584675 0.042866 0.943431
#
# Coordination Sequence:
#
# PCOD9326452 Si02
#       5
#     4  16   8  16   8
#     4  12  24  48  72  98 120 164 224 284 352 372
#     4  11  25  41  69  94 128 167 217 281 323 380
#     4  10  20  38  64 104 134 166 218 272 328 372
#     4  11  24  43  63  97 136 177 213 253 315 398
#     4  10  19  34  64  94 135 176 208 256 316 386
#
# _framework density 22.040610000000001
#
# number of rings (size 3 to 8) (size 9 to 14) (size 15 to 20)
#    0.000    1.231    0.000    6.923    0.000    9.231 
#    0.000    9.231    0.000    0.000    0.000    0.000 
#    0.000    0.000    0.000    0.000    0.000    0.000 
#
# Total GULP energy -72612.650952 kJ/mol
# GULP energy per Si atom -5585.588535 kJ/mol
# Density = 2.199044 g / cm^3
# Si number density = 22.040610 Si / 1000 Ang^3
#
#
#
# Elastic Constant Matrix: (Units=GPa)
#
#
# Indices 1 2 3 4 5 6 
#
# 1 124.9078 38.4961 24.6959 -0.0005 0.0012 -0.0008
# 2 38.4961 104.3596 20.4311 -0.0009 0.0036 0.0008
# 3 24.6959 20.4311 105.1579 0.0000 0.0005 0.0004
# 4 -0.0005 -0.0009 0.0000 30.0422 -0.0006 0.0004
# 5 0.0012 0.0036 0.0005 -0.0006 -2.4744 -0.0005
# 6 -0.0008 0.0008 0.0004 0.0004 -0.0005 35.4077
#
#
#
# Elastic Compliance Matrix: (Units=1/GPa)
#
#
# Indices 1 2 3 4 5 6 
#
# 1 0.009277 -0.003114 -0.001574 0.000000 -0.000001 0.000000
# 2 -0.003114 0.011006 -0.001407 0.000000 0.000014 0.000000
# 3 -0.001574 -0.001407 0.010152 0.000000 -0.000001 0.000000
# 4 0.000000 0.000000 0.000000 0.033286 -0.000008 0.000000
# 5 -0.000001 0.000014 -0.000001 -0.000008 -0.404138 -0.000006
# 6 0.000000 0.000000 0.000000 0.000000 -0.000006 0.028242
#
#
# Mechanical properties :
#
#
# Convention : Reuss Voigt Hill
#
# Bulk Modulus (GPa) = 54.80575 55.74128 55.27352
# Shear Modulus (GPa) = -17.01246 29.31525 6.15139
#
# Velocity S-wave (km/s) = -2.78127 3.65095 1.67242
# Velocity P-wave (km/s) = 3.82176 6.56641 5.37232
#
# Compressibility (1/GPa) = 0.01824626
#
# Stress axis : x y z
#
# Youngs Moduli (GPa) = 107.79669 90.85625 98.49839
#
# Poissons Ratio (x) = 0.28292 0.15500
# Poissons Ratio (y) = 0.33567 0.13860
# Poissons Ratio (z) = 0.16963 0.12785
#
# Static dielectric constant tensor:
#      x y z
#    x 1.793560 0.000000 0.000000 
#    y 0.000000 1.809100 0.000000 
#    z 0.000000 0.000000 1.956240 
# 
# From -- ./inp_files/3335.got.cif
#   From: 2010.05.17/outbox.cif.g08.bks.cpg/sg22_2_cif.got.tgz:3335.got - 2010.06.03 23:40:54.
