data_PCOD9326909
_publ_section_title
;
Structure prediction by ZEFSAII (Michael W. Deem and Ramdas Pophale) SiO2 
 PCOD9326909
Probable space group: F 2 2 2
;
_chemical_formula_sum "Si O2"
_cell_formula_units_Z 68
_cell_length_a 28.643529
_cell_length_b 5.248060
_cell_length_c 23.474455
_cell_angle_alpha 90.000000
_cell_angle_beta 90.000000
_cell_angle_gamma 90.000000
_cell_volume 3528.749532
_symmetry_space_group_name_H-M "F 2 2 2"
_symmetry_group_IT_number 22
_symmetry_cell_setting 'orthorhombic'
loop_
_space_group_symop_operation_xyz
x,y,z
-x,-y,z
x,-y,-z
-x,y,-z
x,1/2+y,1/2+z
-x,1/2-y,1/2+z
x,1/2-y,1/2-z
-x,1/2+y,1/2-z
1/2+x,y,1/2+z
1/2-x,-y,1/2+z
1/2+x,-y,1/2-z
1/2-x,y,1/2-z
1/2+x,1/2+y,z
1/2-x,1/2-y,z
1/2+x,1/2-y,-z
1/2-x,1/2+y,-z
loop_
_atom_site_type_symbol
_atom_site_label
_atom_site_fract_x
_atom_site_fract_y
_atom_site_fract_z
Si Si1 0.555171 0.500425 0.212250
Si Si2 0.250000 0.250000 0.750000
Si Si3 0.863659 0.481762 0.374819
Si Si4 0.250000 0.750000 0.557137
Si Si5 0.695721 0.012903 0.848773
Si Si6 0.666579 0.000000 0.500000
O O1 0.500000 0.500000 0.198801
O O2 0.565286 0.750000 0.250000
O O3 0.587183 0.502812 0.156630
O O4 0.565461 0.250000 0.250000
O O5 0.280030 0.063617 0.790056
O O6 0.839974 0.214752 0.359504
O O7 0.863895 0.478338 0.443422
O O8 0.831389 0.717520 0.353015
O O9 0.264932 0.530204 0.601691
O O10 0.204796 0.711829 0.518165
#
# Coordination Sequence:
#
# PCOD9326909 Si02
#       6
#    16   4  16   8  16   8
#     4  10  22  42  67  91 120 152 192 246 311 377
#     4  12  24  40  52  86 128 168 200 254 310 346
#     4  11  24  40  60  94 112 163 199 258 294 364
#     4  10  20  40  56  84 119 173 214 250 282 358
#     4  11  25  37  58  83 126 160 210 244 301 345
#     4  10  20  36  63  80 124 156 215 244 294 338
#
# _framework density 19.270281000000001
#
# number of rings (size 3 to 8) (size 9 to 14) (size 15 to 20)
#    0.000    1.412    0.000    5.647    4.941    6.118 
#    0.000    0.588    0.000    0.000    0.000   11.529 
#    0.000    0.000    0.000    0.000    0.000    0.000 
#
# Total GULP energy -94928.790450 kJ/mol
# GULP energy per Si atom -5584.046497 kJ/mol
# Density = 1.922642 g / cm^3
# Si number density = 19.270281 Si / 1000 Ang^3
#
#
#
# Elastic Constant Matrix: (Units=GPa)
#
#
# Indices 1 2 3 4 5 6 
#
# 1 95.3663 36.8982 89.1414 0.0002 -0.0058 -0.0062
# 2 36.8982 116.9602 37.8866 -0.0048 -0.0147 -0.0203
# 3 89.1414 37.8866 181.9151 -0.0017 -0.0035 -0.0058
# 4 0.0002 -0.0048 -0.0017 28.9621 -0.0048 -0.0062
# 5 -0.0058 -0.0147 -0.0035 -0.0048 54.6136 -0.0046
# 6 -0.0062 -0.0203 -0.0058 -0.0062 -0.0046 0.7319
#
#
#
# Elastic Compliance Matrix: (Units=1/GPa)
#
#
# Indices 1 2 3 4 5 6 
#
# 1 0.020574 -0.003458 -0.009362 -0.000001 0.000001 0.000004
# 2 -0.003458 0.009750 -0.000336 0.000002 0.000002 0.000238
# 3 -0.009362 -0.000336 0.010154 0.000001 0.000000 -0.000008
# 4 -0.000001 0.000002 0.000001 0.034528 0.000003 0.000292
# 5 0.000001 0.000002 0.000000 0.000003 0.018310 0.000115
# 6 0.000004 0.000238 -0.000008 0.000292 0.000115 1.366347
#
#
# Mechanical properties :
#
#
# Convention : Reuss Voigt Hill
#
# Bulk Modulus (GPa) = 70.58643 80.23265 75.40954
# Shear Modulus (GPa) = 3.35413 32.21587 17.78500
#
# Velocity S-wave (km/s) = 1.32074 4.09319 3.04126
# Velocity P-wave (km/s) = 6.24780 8.00405 7.17982
#
# Compressibility (1/GPa) = 0.01416703
#
# Stress axis : x y z
#
# Youngs Moduli (GPa) = 48.60409 102.56644 98.48004
#
# Poissons Ratio (x) = 0.35470 0.92193
# Poissons Ratio (y) = 0.16809 0.03308
# Poissons Ratio (z) = 0.45501 0.03445
#
# Static dielectric constant tensor:
#      x y z
#    x 1.664550 0.000000 0.000000 
#    y 0.000000 1.719950 0.000000 
#    z 0.000000 0.000000 1.708190 
# 
# From -- ./inp_files/45968.got.cif
#   From: 2010.05.17/outbox.cif.g08.bks.cpg/sg22_23_cif.got.tgz:45968.got - 2010.06.03 23:40:54.
