data_PCOD9326114
_publ_section_title
;
Structure prediction by ZEFSAII (Michael W. Deem and Ramdas Pophale) SiO2 
 PCOD9326114
Probable space group: F 2 2 2
;
_chemical_formula_sum "Si O2"
_cell_formula_units_Z 128
_cell_length_a 21.269045
_cell_length_b 24.147563
_cell_length_c 11.590079
_cell_angle_alpha 90.000000
_cell_angle_beta 90.000000
_cell_angle_gamma 90.000000
_cell_volume 5952.613625
_symmetry_space_group_name_H-M "F 2 2 2"
_symmetry_group_IT_number 22
_symmetry_cell_setting 'orthorhombic'
loop_
_space_group_symop_operation_xyz
x,y,z
-x,-y,z
x,-y,-z
-x,y,-z
x,1/2+y,1/2+z
-x,1/2-y,1/2+z
x,1/2-y,1/2-z
-x,1/2+y,1/2-z
1/2+x,y,1/2+z
1/2-x,-y,1/2+z
1/2+x,-y,1/2-z
1/2-x,y,1/2-z
1/2+x,1/2+y,z
1/2-x,1/2-y,z
1/2+x,1/2-y,-z
1/2-x,1/2+y,-z
loop_
_atom_site_type_symbol
_atom_site_label
_atom_site_fract_x
_atom_site_fract_y
_atom_site_fract_z
Si Si1 0.213755 0.163457 0.577000
Si Si2 0.653301 0.269819 0.624869
Si Si3 0.568684 0.817021 0.498688
Si Si4 0.141969 0.057270 0.551166
Si Si5 0.947559 0.364247 0.904073
Si Si6 0.653834 0.847564 0.687796
Si Si7 0.958294 0.078649 0.839020
Si Si8 0.404883 0.537290 0.195679
O O1 0.200081 0.198619 0.462950
O O2 0.201284 0.097974 0.563212
O O3 0.283118 0.172383 0.624722
O O4 0.162977 0.172684 0.680626
O O5 0.676417 0.250000 0.750000
O O6 0.622387 0.217451 0.563439
O O7 0.595315 0.312861 0.634407
O O8 0.500000 0.790277 0.500000
O O9 0.591937 0.824266 0.629020
O O10 0.561464 0.874552 0.429336
O O11 0.096263 0.091081 0.467898
O O12 0.101737 0.042723 0.665579
O O13 0.163649 0.000000 0.500000
O O14 0.968002 0.393116 0.786115
O O15 0.000000 0.349707 0.000000
O O16 0.646152 0.914370 0.667429
O O17 0.028590 0.055709 0.858899
O O18 0.907329 0.028362 0.833653
#
# Coordination Sequence:
#
# PCOD9326114 Si02
#       8
#    16  16  16  16  16  16  16  16
#     4   9  23  45  72  98 127 178 236 296 344 408
#     4  11  24  43  68  99 136 174 224 289 355 418
#     4  12  25  43  64  95 137 183 223 285 353 425
#     4  10  18  32  60  94 129 171 224 283 343 408
#     4  11  20  34  60  95 138 178 225 273 342 429
#     4  10  22  47  69  95 133 174 243 288 339 424
#     4  11  21  35  59  97 139 178 226 271 357 423
#     4  10  20  35  62  95 134 182 220 287 341 420
#
# _framework density 21.503159
#
# number of rings (size 3 to 8) (size 9 to 14) (size 15 to 20)
#    0.000    1.500    5.000    0.375    0.000    1.750 
#    4.500    2.500    0.000    0.000    0.000    0.000 
#    0.000    0.000    0.000    0.000    0.000    0.000 
#
# Total GULP energy -178451.143009 kJ/mol
# GULP energy per Si atom -5576.598219 kJ/mol
# Density = 2.145422 g / cm^3
# Si number density = 21.503159 Si / 1000 Ang^3
#
#
#
# Elastic Constant Matrix: (Units=GPa)
#
#
# Indices 1 2 3 4 5 6 
#
# 1 47.1643 1.8152 18.7333 0.0000 0.0000 0.0000
# 2 1.8152 67.4804 15.8398 0.0000 0.0000 0.0000
# 3 18.7333 15.8398 65.7969 0.0000 0.0000 0.0000
# 4 0.0000 0.0000 0.0000 22.8614 0.0000 0.0000
# 5 0.0000 0.0000 0.0000 0.0000 23.3524 0.0000
# 6 0.0000 0.0000 0.0000 0.0000 0.0000 18.4672
#
#
#
# Elastic Compliance Matrix: (Units=1/GPa)
#
#
# Indices 1 2 3 4 5 6 
#
# 1 0.023971 0.001015 -0.007069 0.000000 0.000000 0.000000
# 2 0.001015 0.015750 -0.004080 0.000000 0.000000 0.000000
# 3 -0.007069 -0.004080 0.018193 0.000000 0.000000 0.000000
# 4 0.000000 0.000000 0.000000 0.043742 0.000000 0.000000
# 5 0.000000 0.000000 0.000000 0.000000 0.042822 0.000000
# 6 0.000000 0.000000 0.000000 0.000000 0.000000 0.054150
#
#
# Mechanical properties :
#
#
# Convention : Reuss Voigt Hill
#
# Bulk Modulus (GPa) = 26.56460 28.13537 27.34999
# Shear Modulus (GPa) = 21.60327 22.53975 22.07151
#
# Velocity S-wave (km/s) = 3.17307 3.24111 3.20727
# Velocity P-wave (km/s) = 5.07987 5.20760 5.14413
#
# Compressibility (1/GPa) = 0.03764408
#
# Stress axis : x y z
#
# Youngs Moduli (GPa) = 41.71662 63.49361 54.96532
#
# Poissons Ratio (x) = -0.06442 0.38856
# Poissons Ratio (y) = -0.04232 0.22428
# Poissons Ratio (z) = 0.29490 0.25908
#
# Static dielectric constant tensor:
#      x y z
#    x 1.776920 0.000000 0.000000 
#    y 0.000000 1.840500 0.000000 
#    z 0.000000 0.000000 1.819840 
# 
# From -- ./inp_files/24096.got.cif
#   From: 2010.05.17/outbox.cif.g08.bks.cpg/sg22_13_cif.got.tgz:24096.got - 2010.06.03 23:40:54.
