data_PCOD9326137
_publ_section_title
;
Structure prediction by ZEFSAII (Michael W. Deem and Ramdas Pophale) SiO2 
 PCOD9326137
Probable space group: F 2 2 2
;
_chemical_formula_sum "Si O2"
_cell_formula_units_Z 64
_cell_length_a 14.792531
_cell_length_b 22.080721
_cell_length_c 7.859552
_cell_angle_alpha 90.000000
_cell_angle_beta 90.000000
_cell_angle_gamma 90.000000
_cell_volume 2567.163504
_symmetry_space_group_name_H-M "F 2 2 2"
_symmetry_group_IT_number 22
_symmetry_cell_setting 'orthorhombic'
loop_
_space_group_symop_operation_xyz
x,y,z
-x,-y,z
x,-y,-z
-x,y,-z
x,1/2+y,1/2+z
-x,1/2-y,1/2+z
x,1/2-y,1/2-z
-x,1/2+y,1/2-z
1/2+x,y,1/2+z
1/2-x,-y,1/2+z
1/2+x,-y,1/2-z
1/2-x,y,1/2-z
1/2+x,1/2+y,z
1/2-x,1/2-y,z
1/2+x,1/2-y,-z
1/2-x,1/2+y,-z
loop_
_atom_site_type_symbol
_atom_site_label
_atom_site_fract_x
_atom_site_fract_y
_atom_site_fract_z
Si Si1 0.352348 0.997693 0.203586
Si Si2 0.378625 0.635204 0.821536
Si Si3 0.778872 0.181736 0.488653
Si Si4 0.445115 0.378191 0.682303
O O1 0.250000 0.981261 0.250000
O O2 0.420164 0.944488 0.252029
O O3 0.371167 0.063991 0.276952
O O4 0.357992 0.000000 0.000000
O O5 0.314834 0.646010 0.982202
O O6 0.332161 0.672769 0.667606
O O7 0.483595 0.651906 0.809791
O O8 0.750000 0.250000 0.457380
O O9 0.851648 0.155805 0.357084
O O10 0.500000 0.383479 0.500000
#
# Coordination Sequence:
#
# PCOD9326137 Si02
#       4
#    16  16  16  16
#     4  12  20  35  62  96 129 160 206 267 330 388
#     4  10  18  33  59  94 113 158 223 252 314 384
#     4  10  19  35  61  87 123 163 215 269 309 370
#     4  10  20  34  63  90 115 167 216 255 315 401
#
# _framework density 24.930237999999999
#
# number of rings (size 3 to 8) (size 9 to 14) (size 15 to 20)
#    0.000    1.500    7.500    2.250    0.000    0.000 
#    0.000    0.000   27.500    9.000    0.000    0.000 
#    0.000    0.000    0.000    0.000    0.000    0.000 
#
# Total GULP energy -89575.664414 kJ/mol
# GULP energy per Si atom -5598.479026 kJ/mol
# Density = 2.487350 g / cm^3
# Si number density = 24.930238 Si / 1000 Ang^3
#
#
#
# Elastic Constant Matrix: (Units=GPa)
#
#
# Indices 1 2 3 4 5 6 
#
# 1 224.5627 76.1627 57.0958 0.0000 0.0000 0.0000
# 2 76.1627 164.3042 36.1038 0.0000 0.0000 0.0000
# 3 57.0958 36.1038 103.6018 0.0000 0.0000 0.0000
# 4 0.0000 0.0000 0.0000 6.6511 0.0000 0.0000
# 5 0.0000 0.0000 0.0000 0.0000 35.0292 0.0000
# 6 0.0000 0.0000 0.0000 0.0000 0.0000 0.5671
#
#
#
# Elastic Compliance Matrix: (Units=1/GPa)
#
#
# Indices 1 2 3 4 5 6 
#
# 1 0.005806 -0.002153 -0.002449 0.000000 0.000000 0.000000
# 2 -0.002153 0.007389 -0.001388 0.000000 0.000000 0.000000
# 3 -0.002449 -0.001388 0.011486 0.000000 0.000000 0.000000
# 4 0.000000 0.000000 0.000000 0.150352 0.000000 0.000000
# 5 0.000000 0.000000 0.000000 0.000000 0.028548 0.000000
# 6 0.000000 0.000000 0.000000 0.000000 0.000000 1.763356
#
#
# Mechanical properties :
#
#
# Convention : Reuss Voigt Hill
#
# Bulk Modulus (GPa) = 78.74339 92.35482 85.54910
# Shear Modulus (GPa) = 2.52124 29.98990 16.25557
#
# Velocity S-wave (km/s) = 1.00673 3.47212 2.55628
# Velocity P-wave (km/s) = 5.74503 7.29383 6.56526
#
# Compressibility (1/GPa) = 0.01269948
#
# Stress axis : x y z
#
# Youngs Moduli (GPa) = 172.23094 135.32754 87.06152
#
# Poissons Ratio (x) = 0.29139 0.21325
# Poissons Ratio (y) = 0.37085 0.12088
# Poissons Ratio (z) = 0.42187 0.18790
#
# Static dielectric constant tensor:
#      x y z
#    x 1.990970 0.000000 0.000000 
#    y 0.000000 1.928170 0.000000 
#    z 0.000000 0.000000 2.032000 
# 
# From -- ./inp_files/9775.got.cif
#   From: 2010.05.17/outbox.cif.g08.bks.cpg/sg22_5_cif.got.tgz:9775.got - 2010.06.03 23:40:54.
