data_PCOD9326285
_publ_section_title
;
Structure prediction by ZEFSAII (Michael W. Deem and Ramdas Pophale) SiO2 
 PCOD9326285
Probable space group: F 2 2 2
;
_chemical_formula_sum "Si O2"
_cell_formula_units_Z 88
_cell_length_a 29.915283
_cell_length_b 5.106724
_cell_length_c 33.779157
_cell_angle_alpha 90.000000
_cell_angle_beta 90.000000
_cell_angle_gamma 90.000000
_cell_volume 5160.411200
_symmetry_space_group_name_H-M "F 2 2 2"
_symmetry_group_IT_number 22
_symmetry_cell_setting 'orthorhombic'
loop_
_space_group_symop_operation_xyz
x,y,z
-x,-y,z
x,-y,-z
-x,y,-z
x,1/2+y,1/2+z
-x,1/2-y,1/2+z
x,1/2-y,1/2-z
-x,1/2+y,1/2-z
1/2+x,y,1/2+z
1/2-x,-y,1/2+z
1/2+x,-y,1/2-z
1/2-x,y,1/2-z
1/2+x,1/2+y,z
1/2-x,1/2-y,z
1/2+x,1/2-y,-z
1/2-x,1/2+y,-z
loop_
_atom_site_type_symbol
_atom_site_label
_atom_site_fract_x
_atom_site_fract_y
_atom_site_fract_z
Si Si1 0.368129 0.133320 0.706807
Si Si2 0.412912 0.872577 0.826076
Si Si3 0.199053 0.249275 0.471784
Si Si4 0.801943 0.796517 0.855078
Si Si5 0.150910 0.204808 0.392499
Si Si6 0.500000 0.000000 0.221997
O O1 0.373053 0.250000 0.750000
O O2 0.397441 0.327796 0.679642
O O3 0.318547 0.178672 0.690111
O O4 0.384681 0.837133 0.700319
O O5 0.397893 0.792812 0.870898
O O6 0.461913 0.880530 0.806858
O O7 0.194773 0.500000 0.500000
O O8 0.250000 0.250000 0.453867
O O9 0.160265 0.231495 0.439010
O O10 0.196977 0.000000 0.500000
O O11 0.750000 0.750000 0.858371
O O12 0.826394 0.561199 0.877576
O O13 0.820116 0.060562 0.874317
O O14 0.485934 0.750000 0.250000
#
# Coordination Sequence:
#
# PCOD9326285 Si02
#       6
#    16  16  16  16  16   8
#     4  10  19  32  47  66  96 127 162 205 244 289
#     4  10  21  34  50  72  96 130 162 198 258 307
#     4  10  19  30  48  74 100 129 165 204 245 288
#     4  10  19  30  47  67  91 132 171 200 240 286
#     4  10  20  34  49  68 101 132 163 204 248 305
#     4  12  22  34  56  80 103 128 167 218 264 312
#
# _framework density 17.052903000000001
#
# number of rings (size 3 to 8) (size 9 to 14) (size 15 to 20)
#    0.000    1.818    0.000    6.000    0.000    1.818 
#    0.000    0.000    0.000    6.545    0.000    0.636 
#    0.000    1.455    0.000    0.000    0.000    0.000 
#
# Total GULP energy -122473.930722 kJ/mol
# GULP energy per Si atom -5566.996851 kJ/mol
# Density = 1.701409 g / cm^3
# Si number density = 17.052903 Si / 1000 Ang^3
#
#
#
# Elastic Constant Matrix: (Units=GPa)
#
#
# Indices 1 2 3 4 5 6 
#
# 1 61.8761 27.2211 41.6870 -0.0096 0.0114 0.0290
# 2 27.2211 116.4243 7.3010 -0.0692 0.0618 0.0056
# 3 41.6870 7.3010 95.1678 -0.0018 -0.0042 0.0040
# 4 -0.0096 -0.0692 -0.0018 16.1185 0.0022 -0.0035
# 5 0.0114 0.0618 -0.0042 0.0022 24.8783 0.0020
# 6 0.0290 0.0056 0.0040 -0.0035 0.0020 19.7672
#
#
#
# Elastic Compliance Matrix: (Units=1/GPa)
#
#
# Indices 1 2 3 4 5 6 
#
# 1 0.025883 -0.005367 -0.010926 -0.000009 0.000000 -0.000034
# 2 -0.005367 0.009744 0.001603 0.000039 -0.000021 0.000005
# 3 -0.010926 0.001603 0.015171 0.000002 0.000004 0.000013
# 4 -0.000009 0.000039 0.000002 0.062041 -0.000006 0.000011
# 5 0.000000 -0.000021 0.000004 -0.000006 0.040196 -0.000004
# 6 -0.000034 0.000005 0.000013 0.000011 -0.000004 0.050589
#
#
# Mechanical properties :
#
#
# Convention : Reuss Voigt Hill
#
# Bulk Modulus (GPa) = 46.68807 47.32072 47.00439
# Shear Modulus (GPa) = 20.82103 25.30340 23.06221
#
# Velocity S-wave (km/s) = 3.49802 3.85621 3.68148
# Velocity P-wave (km/s) = 6.61458 6.90194 6.75979
#
# Compressibility (1/GPa) = 0.02141875
#
# Stress axis : x y z
#
# Youngs Moduli (GPa) = 38.63470 102.63217 65.91593
#
# Poissons Ratio (x) = 0.55079 0.72021
# Poissons Ratio (y) = 0.20734 -0.10568
# Poissons Ratio (z) = 0.42213 -0.16455
#
# Static dielectric constant tensor:
#      x y z
#    x 1.615300 -0.000010 0.000010 
#    y -0.000010 1.569860 -0.000010 
#    z 0.000010 -0.000010 1.626710 
# 
# From -- ./inp_files/57308.got.cif
#   From: 2010.05.17/outbox.cif.g08.bks.cpg/sg22_29_cif.got.tgz:57308.got - 2010.06.03 23:40:54.
