data_PCOD9326579
_publ_section_title
;
Structure prediction by ZEFSAII (Michael W. Deem and Ramdas Pophale) SiO2 
 PCOD9326579
Probable space group: F 2 2 2
;
_chemical_formula_sum "Si O2"
_cell_formula_units_Z 104
_cell_length_a 8.907169
_cell_length_b 21.792452
_cell_length_c 25.647331
_cell_angle_alpha 90.000000
_cell_angle_beta 90.000000
_cell_angle_gamma 90.000000
_cell_volume 4978.379130
_symmetry_space_group_name_H-M "F 2 2 2"
_symmetry_group_IT_number 22
_symmetry_cell_setting 'orthorhombic'
loop_
_space_group_symop_operation_xyz
x,y,z
-x,-y,z
x,-y,-z
-x,y,-z
x,1/2+y,1/2+z
-x,1/2-y,1/2+z
x,1/2-y,1/2-z
-x,1/2+y,1/2-z
1/2+x,y,1/2+z
1/2-x,-y,1/2+z
1/2+x,-y,1/2-z
1/2-x,y,1/2-z
1/2+x,1/2+y,z
1/2-x,1/2-y,z
1/2+x,1/2-y,-z
1/2-x,1/2+y,-z
loop_
_atom_site_type_symbol
_atom_site_label
_atom_site_fract_x
_atom_site_fract_y
_atom_site_fract_z
Si Si1 0.175249 0.993682 0.062782
Si Si2 0.466199 0.206451 0.925831
Si Si3 0.750000 0.145901 0.250000
Si Si4 0.224118 0.875749 0.133217
Si Si5 0.500212 0.750000 0.750000
Si Si6 0.000000 0.188810 0.000000
Si Si7 0.908691 0.194663 0.853535
Si Si8 0.763777 0.626157 0.069163
O O1 0.226759 0.932459 0.092686
O O2 0.268699 0.053820 0.076967
O O3 0.000000 0.000000 0.077551
O O4 0.180377 0.000000 0.000000
O O5 0.341724 0.173331 0.890699
O O6 0.575632 0.246753 0.890017
O O7 0.580865 0.156031 0.949309
O O8 0.413830 0.261249 0.964100
O O9 0.754728 0.109354 0.195049
O O10 0.612074 0.192876 0.239013
O O11 0.061940 0.843296 0.135935
O O12 0.405499 0.777916 0.703399
O O13 0.124294 0.147644 0.030728
O O14 0.778974 0.151714 0.874036
#
# Coordination Sequence:
#
# PCOD9326579 Si02
#       8
#    16  16   8  16   8   8  16  16
#     4  11  24  43  67  91 125 173 222 260 310 389
#     4  11  24  37  61  99 131 160 211 271 329 381
#     4   9  18  36  64  98 124 162 217 270 312 386
#     4  11  22  40  70  93 126 171 220 266 316 388
#     4   9  16  32  63  98 124 157 211 266 322 387
#     4  10  22  38  63  87 132 176 198 254 324 400
#     4  10  19  37  64  91 128 163 206 263 324 388
#     4  11  24  42  60  91 135 166 217 263 317 391
#
# _framework density 20.890332999999998
#
# number of rings (size 3 to 8) (size 9 to 14) (size 15 to 20)
#    0.000    1.538    3.077    3.231    4.308    3.077 
#    0.000    2.308    6.769    0.000    0.000    0.000 
#    0.000    0.000    0.000    0.000    0.000    0.000 
#
# Total GULP energy -144863.387986 kJ/mol
# GULP energy per Si atom -5571.668769 kJ/mol
# Density = 2.084279 g / cm^3
# Si number density = 20.890333 Si / 1000 Ang^3
#
#
#
# Elastic Constant Matrix: (Units=GPa)
#
#
# Indices 1 2 3 4 5 6 
#
# 1 47.0615 4.1788 5.8609 0.0000 0.0000 0.0000
# 2 4.1788 95.3431 23.7243 0.0000 0.0000 0.0000
# 3 5.8609 23.7243 97.8116 0.0000 0.0000 0.0000
# 4 0.0000 0.0000 0.0000 -197.7547 0.0000 0.0000
# 5 0.0000 0.0000 0.0000 0.0000 5.1027 0.0000
# 6 0.0000 0.0000 0.0000 0.0000 0.0000 -20.9338
#
#
#
# Elastic Compliance Matrix: (Units=1/GPa)
#
#
# Indices 1 2 3 4 5 6 
#
# 1 0.021448 -0.000660 -0.001125 0.000000 0.000000 0.000000
# 2 -0.000660 0.011182 -0.002673 0.000000 0.000000 0.000000
# 3 -0.001125 -0.002673 0.010939 0.000000 0.000000 0.000000
# 4 0.000000 0.000000 0.000000 -0.005057 0.000000 0.000000
# 5 0.000000 0.000000 0.000000 0.000000 0.195976 0.000000
# 6 0.000000 0.000000 0.000000 0.000000 0.000000 -0.047770
#
#
# Mechanical properties :
#
#
# Convention : Reuss Voigt Hill
#
# Bulk Modulus (GPa) = 28.85702 34.19381 31.52542
# Shear Modulus (GPa) = 24.13296 -28.95369 -2.41037
#
# Velocity S-wave (km/s) = 3.40254 -3.72692 -1.07533
# Velocity P-wave (km/s) = 5.41110 1.45470 3.68536
#
# Compressibility (1/GPa) = 0.03465361
#
# Stress axis : x y z
#
# Youngs Moduli (GPa) = 46.62543 89.42597 91.41240
#
# Poissons Ratio (x) = 0.05903 0.10284
# Poissons Ratio (y) = 0.03078 0.24432
# Poissons Ratio (z) = 0.05246 0.23901
#
# Static dielectric constant tensor:
#      x y z
#    x 2.632000 0.000000 0.000000 
#    y 0.000000 1.740290 0.000000 
#    z 0.000000 0.000000 2.152080 
# 
# From -- ./inp_files/52007.got.cif
#   From: 2010.05.17/outbox.cif.g08.bks.cpg/sg22_27_cif.got.tgz:52007.got - 2010.06.03 23:40:54.
