data_PCOD9326305
_publ_section_title
;
Structure prediction by ZEFSAII (Michael W. Deem and Ramdas Pophale) SiO2 
 PCOD9326305
Probable space group: F 2 2 2
;
_chemical_formula_sum "Si O2"
_cell_formula_units_Z 112
_cell_length_a 26.536111
_cell_length_b 18.277152
_cell_length_c 12.596065
_cell_angle_alpha 90.000000
_cell_angle_beta 90.000000
_cell_angle_gamma 90.000000
_cell_volume 6109.148639
_symmetry_space_group_name_H-M "F 2 2 2"
_symmetry_group_IT_number 22
_symmetry_cell_setting 'orthorhombic'
loop_
_space_group_symop_operation_xyz
x,y,z
-x,-y,z
x,-y,-z
-x,y,-z
x,1/2+y,1/2+z
-x,1/2-y,1/2+z
x,1/2-y,1/2-z
-x,1/2+y,1/2-z
1/2+x,y,1/2+z
1/2-x,-y,1/2+z
1/2+x,-y,1/2-z
1/2-x,y,1/2-z
1/2+x,1/2+y,z
1/2-x,1/2-y,z
1/2+x,1/2-y,-z
1/2-x,1/2+y,-z
loop_
_atom_site_type_symbol
_atom_site_label
_atom_site_fract_x
_atom_site_fract_y
_atom_site_fract_z
Si Si1 0.516668 0.134816 0.387977
Si Si2 0.308644 0.338633 0.761807
Si Si3 0.623951 0.850487 0.929321
Si Si4 0.590365 0.175713 0.686511
Si Si5 0.534747 0.588201 0.662872
Si Si6 0.422825 0.070181 0.123842
Si Si7 0.373954 0.316305 0.957865
O O1 0.500000 0.100210 0.500000
O O2 0.468319 0.182974 0.351844
O O3 0.525465 0.082635 0.288066
O O4 0.569909 0.173593 0.409465
O O5 0.313917 0.250000 0.750000
O O6 0.250000 0.356324 0.750000
O O7 0.337766 0.374548 0.662624
O O8 0.335317 0.353874 0.875161
O O9 0.570520 0.845683 0.868072
O O10 0.638725 0.769587 0.964840
O O11 0.613371 0.900720 0.031467
O O12 0.603668 0.250000 0.750000
O O13 0.593898 0.107719 0.766840
O O14 0.622049 0.159743 0.580311
O O15 0.480580 0.597479 0.609165
O O16 0.565948 0.516065 0.629597
#
# Coordination Sequence:
#
# PCOD9326305 Si02
#       7
#    16  16  16  16  16  16  16
#     4   9  19  30  48  75 106 143 179 212 252 303
#     4   9  19  34  54  81 105 131 173 233 281 318
#     4  11  19  30  54  75 105 134 175 219 265 315
#     4  10  19  31  48  74 110 140 172 213 255 313
#     4  10  20  33  48  76 113 147 180 206 249 318
#     4  10  21  33  47  79 110 149 174 204 255 315
#     4  10  19  32  51  79 102 136 177 220 266 313
#
# _framework density 18.333161
#
# number of rings (size 3 to 8) (size 9 to 14) (size 15 to 20)
#    0.000    2.143    2.857    0.857    4.000    2.286 
#    0.000   12.143    0.000    0.857    7.429    0.000 
#    0.000    0.000    0.000    0.000    0.000    0.000 
#
# Total GULP energy -155884.471823 kJ/mol
# GULP energy per Si atom -5567.302565 kJ/mol
# Density = 1.829143 g / cm^3
# Si number density = 18.333161 Si / 1000 Ang^3
#
#
#
# Elastic Constant Matrix: (Units=GPa)
#
#
# Indices 1 2 3 4 5 6 
#
# 1 78.9085 10.5734 54.6942 0.0000 0.0000 0.0000
# 2 10.5734 20.3159 24.3214 0.0000 0.0000 0.0000
# 3 54.6942 24.3214 168.6206 0.0000 0.0000 0.0000
# 4 0.0000 0.0000 0.0000 19.2463 0.0000 0.0000
# 5 0.0000 0.0000 0.0000 0.0000 20.8235 0.0000
# 6 0.0000 0.0000 0.0000 0.0000 0.0000 11.9906
#
#
#
# Elastic Compliance Matrix: (Units=1/GPa)
#
#
# Indices 1 2 3 4 5 6 
#
# 1 0.016464 -0.002630 -0.004961 0.000000 0.000000 0.000000
# 2 -0.002630 0.059916 -0.007789 0.000000 0.000000 0.000000
# 3 -0.004961 -0.007789 0.008663 0.000000 0.000000 0.000000
# 4 0.000000 0.000000 0.000000 0.051958 0.000000 0.000000
# 5 0.000000 0.000000 0.000000 0.000000 0.048023 0.000000
# 6 0.000000 0.000000 0.000000 0.000000 0.000000 0.083399
#
#
# Mechanical properties :
#
#
# Convention : Reuss Voigt Hill
#
# Bulk Modulus (GPa) = 18.42179 49.66924 34.04552
# Shear Modulus (GPa) = 15.75914 22.29582 19.02748
#
# Velocity S-wave (km/s) = 2.93507 3.49111 3.22510
# Velocity P-wave (km/s) = 4.64288 6.58801 5.69904
#
# Compressibility (1/GPa) = 0.05428353
#
# Stress axis : x y z
#
# Youngs Moduli (GPa) = 60.73894 16.69003 115.43175
#
# Poissons Ratio (x) = 0.04389 0.57266
# Poissons Ratio (y) = 0.15972 0.89912
# Poissons Ratio (z) = 0.30133 0.13000
#
# Static dielectric constant tensor:
#      x y z
#    x 1.627960 0.000000 0.000000 
#    y 0.000000 1.646850 0.000000 
#    z 0.000000 0.000000 1.699060 
# 
# From -- ./inp_files/24769.got.cif
#   From: 2010.05.17/outbox.cif.g08.bks.cpg/sg22_13_cif.got.tgz:24769.got - 2010.06.03 23:40:54.
