data_PCOD9326185
_publ_section_title
;
Structure prediction by ZEFSAII (Michael W. Deem and Ramdas Pophale) SiO2 
 PCOD9326185
Probable space group: F 2 2 2
;
_chemical_formula_sum "Si O2"
_cell_formula_units_Z 88
_cell_length_a 15.195506
_cell_length_b 23.868710
_cell_length_c 12.150862
_cell_angle_alpha 90.000000
_cell_angle_beta 90.000000
_cell_angle_gamma 90.000000
_cell_volume 4407.082726
_symmetry_space_group_name_H-M "F 2 2 2"
_symmetry_group_IT_number 22
_symmetry_cell_setting 'orthorhombic'
loop_
_space_group_symop_operation_xyz
x,y,z
-x,-y,z
x,-y,-z
-x,y,-z
x,1/2+y,1/2+z
-x,1/2-y,1/2+z
x,1/2-y,1/2-z
-x,1/2+y,1/2-z
1/2+x,y,1/2+z
1/2-x,-y,1/2+z
1/2+x,-y,1/2-z
1/2-x,y,1/2-z
1/2+x,1/2+y,z
1/2-x,1/2-y,z
1/2+x,1/2-y,-z
1/2-x,1/2+y,-z
loop_
_atom_site_type_symbol
_atom_site_label
_atom_site_fract_x
_atom_site_fract_y
_atom_site_fract_z
Si Si1 0.084409 0.250000 0.250000
Si Si2 0.027722 0.631736 0.679800
Si Si3 0.193935 0.865757 0.361458
Si Si4 0.636467 0.862950 0.528438
Si Si5 0.521045 0.565539 0.623441
Si Si6 0.107015 0.233078 0.495307
O O1 0.027410 0.303098 0.287307
O O2 0.131992 0.230577 0.364064
O O3 0.104521 0.622667 0.592865
O O4 0.938142 0.618540 0.614643
O O5 0.038972 0.596584 0.788529
O O6 0.250000 0.852071 0.250000
O O7 0.269551 0.886703 0.443081
O O8 0.118981 0.912652 0.347591
O O9 0.148103 0.812882 0.422803
O O10 0.636611 0.795008 0.533112
O O11 0.500000 0.500000 0.629887
O O12 0.500000 0.584471 0.500000
O O13 0.000000 0.229653 0.500000
#
# Coordination Sequence:
#
# PCOD9326185 Si02
#       6
#     8  16  16  16  16  16
#     4  10  18  34  63  89 136 190 222 246 328 433
#     4  10  19  39  65  92 133 180 218 268 340 415
#     4  12  24  39  67 103 139 169 240 292 331 392
#     4  10  21  37  60  99 139 169 224 272 331 398
#     4  11  25  47  70  94 129 180 230 286 359 422
#     4  11  21  36  59  99 144 191 216 264 344 415
#
# _framework density 19.967859000000001
#
# number of rings (size 3 to 8) (size 9 to 14) (size 15 to 20)
#    0.000    1.273    5.455    3.273    0.000    1.455 
#    0.000   17.273    0.000    0.000    0.000    0.000 
#    0.000    0.000    0.000    0.000    0.000    0.000 
#
# Total GULP energy -122744.648584 kJ/mol
# GULP energy per Si atom -5579.302208 kJ/mol
# Density = 1.992241 g / cm^3
# Si number density = 19.967859 Si / 1000 Ang^3
#
#
#
# Elastic Constant Matrix: (Units=GPa)
#
#
# Indices 1 2 3 4 5 6 
#
# 1 79.7885 21.8079 41.1365 0.0000 0.0000 0.0000
# 2 21.8079 60.1609 61.3572 0.0000 0.0000 0.0000
# 3 41.1365 61.3572 165.9839 0.0000 0.0000 0.0000
# 4 0.0000 0.0000 0.0000 23.9550 0.0000 0.0000
# 5 0.0000 0.0000 0.0000 0.0000 31.3079 0.0000
# 6 0.0000 0.0000 0.0000 0.0000 0.0000 16.5474
#
#
#
# Elastic Compliance Matrix: (Units=1/GPa)
#
#
# Indices 1 2 3 4 5 6 
#
# 1 0.014613 -0.002574 -0.002670 0.000000 0.000000 0.000000
# 2 -0.002574 0.027134 -0.009393 0.000000 0.000000 0.000000
# 3 -0.002670 -0.009393 0.010158 0.000000 0.000000 0.000000
# 4 0.000000 0.000000 0.000000 0.041745 0.000000 0.000000
# 5 0.000000 0.000000 0.000000 0.000000 0.031941 0.000000
# 6 0.000000 0.000000 0.000000 0.000000 0.000000 0.060432
#
#
# Mechanical properties :
#
#
# Convention : Reuss Voigt Hill
#
# Bulk Modulus (GPa) = 44.18347 61.61515 52.89931
# Shear Modulus (GPa) = 22.43742 26.47084 24.45413
#
# Velocity S-wave (km/s) = 3.35577 3.64493 3.50333
# Velocity P-wave (km/s) = 6.09838 6.97411 6.55089
#
# Compressibility (1/GPa) = 0.02263290
#
# Stress axis : x y z
#
# Youngs Moduli (GPa) = 68.43067 36.85359 98.43997
#
# Poissons Ratio (x) = 0.09486 0.26286
# Poissons Ratio (y) = 0.17613 0.92460
# Poissons Ratio (z) = 0.18273 0.34615
#
# Static dielectric constant tensor:
#      x y z
#    x 1.728630 0.000000 0.000000 
#    y 0.000000 1.694900 0.000000 
#    z 0.000000 0.000000 1.772200 
# 
# From -- ./inp_files/19942.got.cif
#   From: 2010.05.17/outbox.cif.g08.bks.cpg/sg22_10_cif.got.tgz:19942.got - 2010.06.03 23:40:54.
