data_PCOD9326253
_publ_section_title
;
Structure prediction by ZEFSAII (Michael W. Deem and Ramdas Pophale) SiO2 
 PCOD9326253
Probable space group: F 2 2 2
;
_chemical_formula_sum "Si O2"
_cell_formula_units_Z 64
_cell_length_a 8.498497
_cell_length_b 22.334268
_cell_length_c 17.174477
_cell_angle_alpha 90.000000
_cell_angle_beta 90.000000
_cell_angle_gamma 90.000000
_cell_volume 3259.848143
_symmetry_space_group_name_H-M "F 2 2 2"
_symmetry_group_IT_number 22
_symmetry_cell_setting 'orthorhombic'
loop_
_space_group_symop_operation_xyz
x,y,z
-x,-y,z
x,-y,-z
-x,y,-z
x,1/2+y,1/2+z
-x,1/2-y,1/2+z
x,1/2-y,1/2-z
-x,1/2+y,1/2-z
1/2+x,y,1/2+z
1/2-x,-y,1/2+z
1/2+x,-y,1/2-z
1/2-x,y,1/2-z
1/2+x,1/2+y,z
1/2-x,1/2-y,z
1/2+x,1/2-y,-z
1/2-x,1/2+y,-z
loop_
_atom_site_type_symbol
_atom_site_label
_atom_site_fract_x
_atom_site_fract_y
_atom_site_fract_z
Si Si1 0.500000 0.380038 0.500000
Si Si2 0.500000 0.151551 0.500000
Si Si3 0.250000 0.910265 0.250000
Si Si4 0.000000 0.000000 0.797366
Si Si5 0.242722 0.315275 0.886766
Si Si6 0.715171 0.949892 0.432873
O O1 0.600718 0.338036 0.442046
O O2 0.389441 0.423354 0.446954
O O3 0.609613 0.188714 0.444480
O O4 0.392657 0.107234 0.450130
O O5 0.409121 0.949979 0.247885
O O6 0.263346 0.868062 0.324955
O O7 0.142188 0.976348 0.853499
O O8 0.250000 0.250000 0.848180
O O9 0.692754 0.000000 0.500000
#
# Coordination Sequence:
#
# PCOD9326253 Si02
#       6
#     8   8   8   8  16  16
#     4  10  24  36  68 102 122 161 237 270 320 394
#     4  10  18  38  64  90 122 169 217 254 336 380
#     4  12  27  40  64  96 131 182 208 276 336 396
#     4  12  23  40  62  91 144 176 214 264 344 399
#     4  11  23  44  65  94 128 173 224 273 325 386
#     4  11  18  37  62  96 132 169 207 273 328 392
#
# _framework density 19.632815999999998
#
# number of rings (size 3 to 8) (size 9 to 14) (size 15 to 20)
#    0.000    1.000    5.000    3.000    3.500    0.000 
#    0.000    0.000    0.000    0.000    0.000    0.000 
#    0.000    0.000    0.000    0.000    0.000    0.000 
#
# Total GULP energy -89216.250148 kJ/mol
# GULP energy per Si atom -5576.015634 kJ/mol
# Density = 1.958813 g / cm^3
# Si number density = 19.632816 Si / 1000 Ang^3
#
#
#
# Elastic Constant Matrix: (Units=GPa)
#
#
# Indices 1 2 3 4 5 6 
#
# 1 113.9960 34.3885 27.3748 0.0000 0.0000 0.0000
# 2 34.3885 92.0195 13.1673 0.0000 0.0000 0.0000
# 3 27.3748 13.1673 51.8144 0.0000 0.0000 0.0000
# 4 0.0000 0.0000 0.0000 107.8617 0.0000 0.0000
# 5 0.0000 0.0000 0.0000 0.0000 9.9217 0.0000
# 6 0.0000 0.0000 0.0000 0.0000 0.0000 21.8081
#
#
#
# Elastic Compliance Matrix: (Units=1/GPa)
#
#
# Indices 1 2 3 4 5 6 
#
# 1 0.010983 -0.003398 -0.004939 0.000000 0.000000 0.000000
# 2 -0.003398 0.012328 -0.001338 0.000000 0.000000 0.000000
# 3 -0.004939 -0.001338 0.022249 0.000000 0.000000 0.000000
# 4 0.000000 0.000000 0.000000 0.009271 0.000000 0.000000
# 5 0.000000 0.000000 0.000000 0.000000 0.100789 0.000000
# 6 0.000000 0.000000 0.000000 0.000000 0.000000 0.045854
#
#
# Mechanical properties :
#
#
# Convention : Reuss Voigt Hill
#
# Bulk Modulus (GPa) = 38.15170 45.29900 41.72535
# Shear Modulus (GPa) = 21.78059 40.11161 30.94610
#
# Velocity S-wave (km/s) = 3.33437 4.52496 3.97450
# Velocity P-wave (km/s) = 5.85652 7.10095 6.50855
#
# Compressibility (1/GPa) = 0.02621115
#
# Stress axis : x y z
#
# Youngs Moduli (GPa) = 91.04693 81.11302 44.94552
#
# Poissons Ratio (x) = 0.27561 0.22200
# Poissons Ratio (y) = 0.30936 0.06013
# Poissons Ratio (z) = 0.44971 0.10851
#
# Static dielectric constant tensor:
#      x y z
#    x 1.698300 0.000000 0.000000 
#    y 0.000000 1.722260 0.000000 
#    z 0.000000 0.000000 1.710610 
# 
# From -- ./inp_files/9883.got.cif
#   From: 2010.05.17/outbox.cif.g08.bks.cpg/sg22_5_cif.got.tgz:9883.got - 2010.06.03 23:40:54.
