data_PCOD9326983
_publ_section_title
;
Structure prediction by ZEFSAII (Michael W. Deem and Ramdas Pophale) SiO2 
 PCOD9326983
Probable space group: F 2 2 2
;
_chemical_formula_sum "Si O2"
_cell_formula_units_Z 112
_cell_length_a 13.658697
_cell_length_b 35.656167
_cell_length_c 11.154884
_cell_angle_alpha 90.000000
_cell_angle_beta 90.000000
_cell_angle_gamma 90.000000
_cell_volume 5432.615701
_symmetry_space_group_name_H-M "F 2 2 2"
_symmetry_group_IT_number 22
_symmetry_cell_setting 'orthorhombic'
loop_
_space_group_symop_operation_xyz
x,y,z
-x,-y,z
x,-y,-z
-x,y,-z
x,1/2+y,1/2+z
-x,1/2-y,1/2+z
x,1/2-y,1/2-z
-x,1/2+y,1/2-z
1/2+x,y,1/2+z
1/2-x,-y,1/2+z
1/2+x,-y,1/2-z
1/2-x,y,1/2-z
1/2+x,1/2+y,z
1/2-x,1/2-y,z
1/2+x,1/2-y,-z
1/2-x,1/2+y,-z
loop_
_atom_site_type_symbol
_atom_site_label
_atom_site_fract_x
_atom_site_fract_y
_atom_site_fract_z
Si Si1 0.730842 0.537625 0.068381
Si Si2 0.076421 0.740695 0.109871
Si Si3 0.923286 0.534309 0.215795
Si Si4 0.758133 0.880441 0.487250
Si Si5 0.380053 0.838995 0.183036
Si Si6 0.044774 0.610237 0.870638
Si Si7 0.612433 0.678007 0.956736
O O1 0.846063 0.534139 0.105024
O O2 0.653713 0.536291 0.176347
O O3 0.717248 0.577510 0.002783
O O4 0.707612 0.500000 0.000000
O O5 0.040893 0.750000 0.250000
O O6 0.135451 0.702392 0.129812
O O7 0.131811 0.777750 0.062599
O O8 0.000000 0.733613 0.000000
O O9 0.976775 0.574598 0.211896
O O10 0.000000 0.500000 0.216875
O O11 0.816860 0.868013 0.606485
O O12 0.840138 0.883100 0.384020
O O13 0.680001 0.847985 0.461227
O O14 0.491918 0.851590 0.164412
O O15 0.368438 0.838616 0.324479
O O16 0.000000 0.599921 0.000000
O O17 0.500000 0.675318 0.000000
#
# Coordination Sequence:
#
# PCOD9326983 Si02
#       7
#    16  16  16  16  16  16  16
#     4  10  24  43  57  87 124 155 198 260 310 364
#     4   9  18  35  59  89 130 163 211 265 317 380
#     4  10  23  39  64  88 115 159 206 248 309 373
#     4  10  21  39  59  84 119 153 200 253 305 367
#     4  10  20  37  62  90 118 162 209 252 309 376
#     4   9  20  36  62  90 112 151 205 253 302 359
#     4  10  22  37  57  90 123 165 202 254 316 370
#
# _framework density 20.616219999999998
#
# number of rings (size 3 to 8) (size 9 to 14) (size 15 to 20)
#    0.000    2.286    0.000    1.714    8.000    2.000 
#    2.571    2.143    0.000    0.000    0.000    1.000 
#    0.000    0.000    0.000    0.000    0.000    0.000 
#
# Total GULP energy -155933.078100 kJ/mol
# GULP energy per Si atom -5569.038504 kJ/mol
# Density = 2.056930 g / cm^3
# Si number density = 20.616220 Si / 1000 Ang^3
#
#
#
# Elastic Constant Matrix: (Units=GPa)
#
#
# Indices 1 2 3 4 5 6 
#
# 1 77.5085 57.8733 6.5519 0.0000 0.0000 0.0000
# 2 57.8733 149.1070 31.7669 0.0000 0.0000 0.0000
# 3 6.5519 31.7669 45.8841 0.0000 0.0000 0.0000
# 4 0.0000 0.0000 0.0000 23.3840 0.0000 0.0000
# 5 0.0000 0.0000 0.0000 0.0000 10.8339 0.0000
# 6 0.0000 0.0000 0.0000 0.0000 0.0000 32.6961
#
#
#
# Elastic Compliance Matrix: (Units=1/GPa)
#
#
# Indices 1 2 3 4 5 6 
#
# 1 0.018453 -0.007743 0.002726 0.000000 0.000000 0.000000
# 2 -0.007743 0.011116 -0.006590 0.000000 0.000000 0.000000
# 3 0.002726 -0.006590 0.025967 0.000000 0.000000 0.000000
# 4 0.000000 0.000000 0.000000 0.042764 0.000000 0.000000
# 5 0.000000 0.000000 0.000000 0.000000 0.092303 0.000000
# 6 0.000000 0.000000 0.000000 0.000000 0.000000 0.030585
#
#
# Mechanical properties :
#
#
# Convention : Reuss Voigt Hill
#
# Bulk Modulus (GPa) = 30.93937 51.65376 41.29656
# Shear Modulus (GPa) = 19.59426 25.13662 22.36544
#
# Velocity S-wave (km/s) = 3.08625 3.49558 3.29727
# Velocity P-wave (km/s) = 5.26686 6.43440 5.87968
#
# Compressibility (1/GPa) = 0.03232128
#
# Stress axis : x y z
#
# Youngs Moduli (GPa) = 54.19248 89.96152 38.50979
#
# Poissons Ratio (x) = 0.69656 -0.10496
# Poissons Ratio (y) = 0.41960 0.25379
# Poissons Ratio (z) = -0.14771 0.59287
#
# Static dielectric constant tensor:
#      x y z
#    x 1.816630 0.000000 0.000000 
#    y 0.000000 1.747370 0.000000 
#    z 0.000000 0.000000 1.764400 
# 
# From -- ./inp_files/20274.got.cif
#   From: 2010.05.17/outbox.cif.g08.bks.cpg/sg22_11_cif.got.tgz:20274.got - 2010.06.03 23:40:54.
