data_PCOD9326709
_publ_section_title
;
Structure prediction by ZEFSAII (Michael W. Deem and Ramdas Pophale) SiO2 
 PCOD9326709
Probable space group: F 2 2 2
;
_chemical_formula_sum "Si O2"
_cell_formula_units_Z 116
_cell_length_a 27.023952
_cell_length_b 9.458228
_cell_length_c 28.060057
_cell_angle_alpha 90.000000
_cell_angle_beta 90.000000
_cell_angle_gamma 90.000000
_cell_volume 7172.114076
_symmetry_space_group_name_H-M "F 2 2 2"
_symmetry_group_IT_number 22
_symmetry_cell_setting 'orthorhombic'
loop_
_space_group_symop_operation_xyz
x,y,z
-x,-y,z
x,-y,-z
-x,y,-z
x,1/2+y,1/2+z
-x,1/2-y,1/2+z
x,1/2-y,1/2-z
-x,1/2+y,1/2-z
1/2+x,y,1/2+z
1/2-x,-y,1/2+z
1/2+x,-y,1/2-z
1/2-x,y,1/2-z
1/2+x,1/2+y,z
1/2-x,1/2-y,z
1/2+x,1/2-y,-z
1/2-x,1/2+y,-z
loop_
_atom_site_type_symbol
_atom_site_label
_atom_site_fract_x
_atom_site_fract_y
_atom_site_fract_z
Si Si1 0.830480 0.479904 0.843467
Si Si2 0.000000 0.500000 0.500000
Si Si3 0.214296 0.482790 0.357914
Si Si4 0.905644 0.024309 0.052186
Si Si5 0.809621 0.585787 0.743717
Si Si6 0.796877 0.660038 0.007748
Si Si7 0.358504 0.237110 0.406388
Si Si8 0.168387 0.738661 0.405086
O O1 0.771931 0.445472 0.852134
O O2 0.834192 0.500834 0.786887
O O3 0.863709 0.356651 0.866064
O O4 0.839585 0.629058 0.870237
O O5 0.960266 0.572157 0.535365
O O6 0.186126 0.513468 0.307838
O O7 0.184818 0.366672 0.387559
O O8 0.209603 0.632699 0.384411
O O9 0.879049 0.139264 0.084754
O O10 0.901724 0.871804 0.078155
O O11 0.879225 0.000000 0.000000
O O12 0.825162 0.750000 0.750000
O O13 0.750000 0.587145 0.750000
O O14 0.750000 0.750000 0.023256
O O15 0.839105 0.680108 0.047119
O O16 0.781226 0.500000 0.000000
O O17 0.815492 0.710457 0.956741
#
# Coordination Sequence:
#
# PCOD9326709 Si02
#       8
#    16   4  16  16  16  16  16  16
#     4  11  19  31  46  67 101 141 172 215 251 274
#     4   8  16  40  64  70  84 132 164 186 248 324
#     4  10  20  32  45  65  98 140 189 212 236 274
#     4   9  19  35  55  71  92 121 158 199 243 304
#     4   9  17  30  47  64  88 137 195 224 238 268
#     4  12  23  29  40  61  95 138 172 195 233 287
#     4  11  22  32  43  72 101 126 167 212 251 282
#     4  11  20  30  45  70  96 126 166 209 243 280
#
# _framework density 16.173753000000001
#
# number of rings (size 3 to 8) (size 9 to 14) (size 15 to 20)
#    0.414    1.241    4.138    2.483    3.862    0.552 
#    0.000    2.069    0.000    1.655    0.000    0.000 
#    0.000   17.655    0.000    0.000    0.000    0.000 
#
# Total GULP energy -161498.021938 kJ/mol
# GULP energy per Si atom -5568.897308 kJ/mol
# Density = 1.613694 g / cm^3
# Si number density = 16.173753 Si / 1000 Ang^3
#
#
#
# Elastic Constant Matrix: (Units=GPa)
#
#
# Indices 1 2 3 4 5 6 
#
# 1 33.0263 3.0951 2.1504 0.0000 0.0000 0.0000
# 2 3.0951 77.6869 21.6978 0.0000 0.0000 0.0000
# 3 2.1504 21.6978 96.8972 0.0000 0.0000 0.0000
# 4 0.0000 0.0000 0.0000 24.3239 0.0000 0.0000
# 5 0.0000 0.0000 0.0000 0.0000 12.1353 0.0000
# 6 0.0000 0.0000 0.0000 0.0000 0.0000 5.0837
#
#
#
# Elastic Compliance Matrix: (Units=1/GPa)
#
#
# Indices 1 2 3 4 5 6 
#
# 1 0.030409 -0.001091 -0.000430 0.000000 0.000000 0.000000
# 2 -0.001091 0.013770 -0.003059 0.000000 0.000000 0.000000
# 3 -0.000430 -0.003059 0.011015 0.000000 0.000000 0.000000
# 4 0.000000 0.000000 0.000000 0.041112 0.000000 0.000000
# 5 0.000000 0.000000 0.000000 0.000000 0.082404 0.000000
# 6 0.000000 0.000000 0.000000 0.000000 0.000000 0.196708
#
#
# Mechanical properties :
#
#
# Convention : Reuss Voigt Hill
#
# Bulk Modulus (GPa) = 21.72401 29.05522 25.38961
# Shear Modulus (GPa) = 12.50236 20.35306 16.42771
#
# Velocity S-wave (km/s) = 2.78331 3.55124 3.19046
# Velocity P-wave (km/s) = 4.87749 5.90072 5.41334
#
# Compressibility (1/GPa) = 0.04603203
#
# Stress axis : x y z
#
# Youngs Moduli (GPa) = 32.88482 72.62108 90.78683
#
# Poissons Ratio (x) = 0.07925 0.03908
# Poissons Ratio (y) = 0.03589 0.27774
# Poissons Ratio (z) = 0.01416 0.22217
#
# Static dielectric constant tensor:
#      x y z
#    x 1.525850 0.000000 0.000000 
#    y 0.000000 1.598930 0.000000 
#    z 0.000000 0.000000 1.581940 
# 
# From -- ./inp_files/15769.got.cif
#   From: 2010.05.17/outbox.cif.g08.bks.cpg/sg22_8_cif.got.tgz:15769.got - 2010.06.03 23:40:54.
