data_PCOD9326058
_publ_section_title
;
Structure prediction by ZEFSAII (Michael W. Deem and Ramdas Pophale) SiO2 
 PCOD9326058
Probable space group: F 2 2 2
;
_chemical_formula_sum "Si O2"
_cell_formula_units_Z 120
_cell_length_a 19.829581
_cell_length_b 25.574532
_cell_length_c 10.696578
_cell_angle_alpha 90.000000
_cell_angle_beta 90.000000
_cell_angle_gamma 90.000000
_cell_volume 5424.579709
_symmetry_space_group_name_H-M "F 2 2 2"
_symmetry_group_IT_number 22
_symmetry_cell_setting 'orthorhombic'
loop_
_space_group_symop_operation_xyz
x,y,z
-x,-y,z
x,-y,-z
-x,y,-z
x,1/2+y,1/2+z
-x,1/2-y,1/2+z
x,1/2-y,1/2-z
-x,1/2+y,1/2-z
1/2+x,y,1/2+z
1/2-x,-y,1/2+z
1/2+x,-y,1/2-z
1/2-x,y,1/2-z
1/2+x,1/2+y,z
1/2-x,1/2-y,z
1/2+x,1/2-y,-z
1/2-x,1/2+y,-z
loop_
_atom_site_type_symbol
_atom_site_label
_atom_site_fract_x
_atom_site_fract_y
_atom_site_fract_z
Si Si1 0.824830 0.389291 0.806710
Si Si2 0.500000 0.816515 0.000000
Si Si3 0.806427 0.609340 0.903484
Si Si4 0.540812 0.949109 0.651473
Si Si5 0.539846 0.848867 0.271916
Si Si6 0.430767 0.273212 0.879323
Si Si7 0.629345 0.004930 0.138801
Si Si8 0.349258 0.371914 0.868541
O O1 0.750000 0.383400 0.750000
O O2 0.879926 0.354395 0.734684
O O3 0.847007 0.450544 0.801830
O O4 0.829880 0.378176 0.956252
O O5 0.515047 0.847110 0.126899
O O6 0.440091 0.775620 0.030582
O O7 0.810539 0.546836 0.878556
O O8 0.728683 0.624859 0.899182
O O9 0.848598 0.631512 0.785050
O O10 0.490374 0.900855 0.666218
O O11 0.572546 0.967931 0.780827
O O12 0.607091 0.922413 0.588457
O O13 0.500000 0.000000 0.612243
O O14 0.502799 0.800524 0.340994
O O15 0.403098 0.250000 0.750000
O O16 0.384515 0.320632 0.922025
O O17 0.601622 0.000000 0.000000
#
# Coordination Sequence:
#
# PCOD9326058 Si02
#       8
#    16   8  16  16  16  16  16  16
#     4  11  23  35  55  86 124 163 197 230 291 364
#     4  10  22  38  65  82 121 148 196 258 322 352
#     4   9  20  36  54  82 118 165 194 240 287 345
#     4  10  18  30  54  89 121 153 186 251 298 342
#     4  10  22  35  58  92 117 150 196 249 299 361
#     4   9  20  38  60  88 108 150 194 259 310 354
#     4   9  19  31  48  81 120 160 194 223 282 348
#     4   9  19  36  60  81 118 152 210 244 291 355
#
# _framework density 22.121528999999999
#
# number of rings (size 3 to 8) (size 9 to 14) (size 15 to 20)
#    0.000    2.400    1.333    0.000   13.067    1.333 
#    0.000    1.333    0.000    8.400    3.467    0.000 
#    0.000    0.000    0.000    0.000    0.000    0.000 
#
# Total GULP energy -167369.174544 kJ/mol
# GULP energy per Si atom -5578.972485 kJ/mol
# Density = 2.207118 g / cm^3
# Si number density = 22.121529 Si / 1000 Ang^3
#
#
#
# Elastic Constant Matrix: (Units=GPa)
#
#
# Indices 1 2 3 4 5 6 
#
# 1 103.2682 15.8887 10.1773 0.0000 0.0000 0.0000
# 2 15.8887 74.7498 3.5108 0.0000 0.0000 0.0000
# 3 10.1773 3.5108 49.5604 0.0000 0.0000 0.0000
# 4 0.0000 0.0000 0.0000 -10.8943 0.0000 0.0000
# 5 0.0000 0.0000 0.0000 0.0000 37.6102 0.0000
# 6 0.0000 0.0000 0.0000 0.0000 0.0000 12.7845
#
#
#
# Elastic Compliance Matrix: (Units=1/GPa)
#
#
# Indices 1 2 3 4 5 6 
#
# 1 0.010195 -0.002076 -0.001946 0.000000 0.000000 0.000000
# 2 -0.002076 0.013845 -0.000555 0.000000 0.000000 0.000000
# 3 -0.001946 -0.000555 0.020616 0.000000 0.000000 0.000000
# 4 0.000000 0.000000 0.000000 -0.091791 0.000000 0.000000
# 5 0.000000 0.000000 0.000000 0.000000 0.026589 0.000000
# 6 0.000000 0.000000 0.000000 0.000000 0.000000 0.078220
#
#
# Mechanical properties :
#
#
# Convention : Reuss Voigt Hill
#
# Bulk Modulus (GPa) = 28.16654 31.85911 30.01283
# Shear Modulus (GPa) = 63.56398 21.10018 42.33208
#
# Velocity S-wave (km/s) = 5.36622 3.09176 4.37923
# Velocity P-wave (km/s) = 7.15230 5.21330 6.25835
#
# Compressibility (1/GPa) = 0.03550312
#
# Stress axis : x y z
#
# Youngs Moduli (GPa) = 98.09022 72.22732 48.50505
#
# Poissons Ratio (x) = 0.14991 0.09441
# Poissons Ratio (y) = 0.20359 0.02690
# Poissons Ratio (z) = 0.19093 0.04006
#
# Static dielectric constant tensor:
#      x y z
#    x 1.800740 0.000000 0.000000 
#    y 0.000000 1.805250 0.000000 
#    z 0.000000 0.000000 1.902580 
# 
# From -- ./inp_files/23108.got.cif
#   From: 2010.05.17/outbox.cif.g08.bks.cpg/sg22_12_cif.got.tgz:23108.got - 2010.06.03 23:40:54.
