data_PCOD9326373
_publ_section_title
;
Structure prediction by ZEFSAII (Michael W. Deem and Ramdas Pophale) SiO2 
 PCOD9326373
Probable space group: F 2 2 2
;
_chemical_formula_sum "Si O2"
_cell_formula_units_Z 104
_cell_length_a 25.718325
_cell_length_b 26.277009
_cell_length_c 8.019992
_cell_angle_alpha 90.000000
_cell_angle_beta 90.000000
_cell_angle_gamma 90.000000
_cell_volume 5419.915867
_symmetry_space_group_name_H-M "F 2 2 2"
_symmetry_group_IT_number 22
_symmetry_cell_setting 'orthorhombic'
loop_
_space_group_symop_operation_xyz
x,y,z
-x,-y,z
x,-y,-z
-x,y,-z
x,1/2+y,1/2+z
-x,1/2-y,1/2+z
x,1/2-y,1/2-z
-x,1/2+y,1/2-z
1/2+x,y,1/2+z
1/2-x,-y,1/2+z
1/2+x,-y,1/2-z
1/2-x,y,1/2-z
1/2+x,1/2+y,z
1/2-x,1/2-y,z
1/2+x,1/2-y,-z
1/2-x,1/2+y,-z
loop_
_atom_site_type_symbol
_atom_site_label
_atom_site_fract_x
_atom_site_fract_y
_atom_site_fract_z
Si Si1 0.893781 0.061358 0.978679
Si Si2 0.511920 0.409175 0.760976
Si Si3 0.920188 0.057130 0.452269
Si Si4 0.750000 0.624298 0.750000
Si Si5 0.636344 0.864263 0.784378
Si Si6 0.720289 0.556869 0.076251
Si Si7 0.968099 0.305489 0.172805
O O1 0.950065 0.074250 0.906241
O O2 0.840216 0.067031 0.875863
O O3 0.880960 0.103875 0.120083
O O4 0.895332 0.000000 0.000000
O O5 0.548675 0.415594 0.599024
O O6 0.460930 0.441535 0.704616
O O7 0.494438 0.351039 0.777555
O O8 0.869488 0.089626 0.416052
O O9 0.909041 0.000000 0.500000
O O10 0.695429 0.653654 0.726298
O O11 0.760705 0.591582 0.580444
O O12 0.592281 0.823559 0.834044
O O13 0.750000 0.561991 0.250000
O O14 0.723801 0.500000 0.000000
O O15 0.971606 0.250000 0.250000
O O16 0.000000 0.305466 0.000000
#
# Coordination Sequence:
#
# PCOD9326373 Si02
#       7
#    16  16  16   8  16  16  16
#     4  10  22  35  52  90 127 164 202 240 296 353
#     4  10  19  36  54  83 119 148 199 238 288 371
#     4  10  19  33  55  82 116 163 198 230 287 356
#     4  10  22  38  61  86 122 160 202 266 303 358
#     4  10  22  41  58  88 123 155 207 248 298 367
#     4  10  20  34  53  83 119 169 219 248 292 346
#     4  11  24  42  64  89 114 152 199 252 320 376
#
# _framework density 19.188489000000001
#
# number of rings (size 3 to 8) (size 9 to 14) (size 15 to 20)
#    0.000    1.846    3.846    1.846    4.308    3.692 
#    0.000    4.231    0.000    0.000    0.000    0.000 
#    0.000    0.000    0.000    0.000    0.000    0.000 
#
# Total GULP energy -144755.453662 kJ/mol
# GULP energy per Si atom -5567.517449 kJ/mol
# Density = 1.914482 g / cm^3
# Si number density = 19.188489 Si / 1000 Ang^3
#
#
#
# Elastic Constant Matrix: (Units=GPa)
#
#
# Indices 1 2 3 4 5 6 
#
# 1 154.6144 26.0181 37.3131 -0.0023 0.0018 -0.0045
# 2 26.0181 90.1493 14.1303 -0.0012 -0.0002 -0.0012
# 3 37.3131 14.1303 60.3066 0.0002 0.0008 -0.0127
# 4 -0.0023 -0.0012 0.0002 22.2707 -0.0002 -0.0034
# 5 0.0018 -0.0002 0.0008 -0.0002 29.5371 0.0051
# 6 -0.0045 -0.0012 -0.0127 -0.0034 0.0051 13.0948
#
#
#
# Elastic Compliance Matrix: (Units=1/GPa)
#
#
# Indices 1 2 3 4 5 6 
#
# 1 0.007807 -0.001553 -0.004466 0.000001 0.000000 -0.000002
# 2 -0.001553 0.011825 -0.001810 0.000001 0.000000 -0.000001
# 3 -0.004466 -0.001810 0.019769 -0.000001 0.000000 0.000017
# 4 0.000001 0.000001 -0.000001 0.044902 0.000000 0.000012
# 5 0.000000 0.000000 0.000000 0.000000 0.033856 -0.000013
# 6 -0.000002 -0.000001 0.000017 0.000012 -0.000013 0.076366
#
#
# Mechanical properties :
#
#
# Convention : Reuss Voigt Hill
#
# Bulk Modulus (GPa) = 42.11835 51.11035 46.61435
# Shear Modulus (GPa) = 22.92552 28.15444 25.53998
#
# Velocity S-wave (km/s) = 3.46027 3.83463 3.65225
# Velocity P-wave (km/s) = 6.16134 6.80439 6.49083
#
# Compressibility (1/GPa) = 0.02374262
#
# Stress axis : x y z
#
# Youngs Moduli (GPa) = 128.09124 84.56947 50.58315
#
# Poissons Ratio (x) = 0.13134 0.22593
# Poissons Ratio (y) = 0.19894 0.09154
# Poissons Ratio (z) = 0.57211 0.15304
#
# Static dielectric constant tensor:
#      x y z
#    x 1.694980 0.000000 0.000050 
#    y 0.000000 1.627730 0.000010 
#    z 0.000050 0.000010 1.002470 
# 
# From -- ./inp_files/15031.got.cif
#   From: 2010.05.17/outbox.cif.g08.bks.cpg/sg22_8_cif.got.tgz:15031.got - 2010.06.03 23:40:54.
