data_PCOD9326384
_publ_section_title
;
Structure prediction by ZEFSAII (Michael W. Deem and Ramdas Pophale) SiO2 
 PCOD9326384
Probable space group: F 2 2 2
;
_chemical_formula_sum "Si O2"
_cell_formula_units_Z 72
_cell_length_a 34.126129
_cell_length_b 22.094073
_cell_length_c 5.171155
_cell_angle_alpha 90.000000
_cell_angle_beta 90.000000
_cell_angle_gamma 90.000000
_cell_volume 3898.974261
_symmetry_space_group_name_H-M "F 2 2 2"
_symmetry_group_IT_number 22
_symmetry_cell_setting 'orthorhombic'
loop_
_space_group_symop_operation_xyz
x,y,z
-x,-y,z
x,-y,-z
-x,y,-z
x,1/2+y,1/2+z
-x,1/2-y,1/2+z
x,1/2-y,1/2-z
-x,1/2+y,1/2-z
1/2+x,y,1/2+z
1/2-x,-y,1/2+z
1/2+x,-y,1/2-z
1/2-x,y,1/2-z
1/2+x,1/2+y,z
1/2-x,1/2-y,z
1/2+x,1/2-y,-z
1/2-x,1/2+y,-z
loop_
_atom_site_type_symbol
_atom_site_label
_atom_site_fract_x
_atom_site_fract_y
_atom_site_fract_z
Si Si1 0.273911 0.426334 0.503422
Si Si2 0.100643 0.635331 0.513161
Si Si3 0.405136 0.750000 0.250000
Si Si4 0.865061 0.927489 0.518182
Si Si5 0.035912 0.685690 0.855494
O O1 0.273590 0.500000 0.500000
O O2 0.250000 0.405241 0.750000
O O3 0.319302 0.409750 0.536626
O O4 0.250000 0.406619 0.250000
O O5 0.116475 0.702139 0.433302
O O6 0.109432 0.594664 0.262734
O O7 0.056818 0.650040 0.622057
O O8 0.120343 0.603354 0.756077
O O9 0.431440 0.707313 0.436638
O O10 0.867579 0.000000 0.500000
O O11 0.020297 0.750000 0.750000
O O12 0.000000 0.653892 0.000000
#
# Coordination Sequence:
#
# PCOD9326384 Si02
#       5
#    16  16   8  16  16
#     4   9  17  31  53  81 112 144 187 240 287 332
#     4  11  22  36  56  88 120 150 192 235 295 353
#     4  10  20  38  56  90 113 140 186 246 305 346
#     4  11  22  37  57  86 123 160 189 230 292 353
#     4  10  19  33  59  87 117 141 184 251 313 340
#
# _framework density 18.466394999999999
#
# number of rings (size 3 to 8) (size 9 to 14) (size 15 to 20)
#    0.000    1.778    3.333    2.000    0.000    3.556 
#    0.000    0.000    0.000    0.667    5.778   11.667 
#    0.000    0.000    0.000    0.000    0.000    0.000 
#
# Total GULP energy -100267.571920 kJ/mol
# GULP energy per Si atom -5570.420662 kJ/mol
# Density = 1.842436 g / cm^3
# Si number density = 18.466395 Si / 1000 Ang^3
#
#
#
# Elastic Constant Matrix: (Units=GPa)
#
#
# Indices 1 2 3 4 5 6 
#
# 1 64.8736 51.8408 47.1712 -0.0010 0.0005 0.0002
# 2 51.8408 73.8611 54.8960 0.0006 -0.0002 0.0011
# 3 47.1712 54.8960 165.9233 0.0001 -0.0002 0.0019
# 4 -0.0010 0.0006 0.0001 26.9279 0.0004 0.0020
# 5 0.0005 -0.0002 -0.0002 0.0004 25.5215 -0.0018
# 6 0.0002 0.0011 0.0019 0.0020 -0.0018 69.3049
#
#
#
# Elastic Compliance Matrix: (Units=1/GPa)
#
#
# Indices 1 2 3 4 5 6 
#
# 1 0.035853 -0.023324 -0.002476 0.000002 -0.000001 0.000000
# 2 -0.023324 0.033127 -0.004329 -0.000002 0.000001 0.000000
# 3 -0.002476 -0.004329 0.008163 0.000000 0.000000 0.000000
# 4 0.000002 -0.000002 0.000000 0.037136 -0.000001 -0.000001
# 5 -0.000001 0.000001 0.000000 -0.000001 0.039183 0.000001
# 6 0.000000 0.000000 0.000000 -0.000001 0.000001 0.014429
#
#
# Mechanical properties :
#
#
# Convention : Reuss Voigt Hill
#
# Bulk Modulus (GPa) = 59.22506 68.05268 63.63887
# Shear Modulus (GPa) = 21.38780 34.40087 27.89433
#
# Velocity S-wave (km/s) = 3.40693 4.32080 3.89079
# Velocity P-wave (km/s) = 6.90055 7.86286 7.39737
#
# Compressibility (1/GPa) = 0.01688474
#
# Stress axis : x y z
#
# Youngs Moduli (GPa) = 27.89138 30.18697 122.50158
#
# Poissons Ratio (x) = 0.70408 0.30333
# Poissons Ratio (y) = 0.65054 0.53033
# Poissons Ratio (z) = 0.06906 0.13068
#
# Static dielectric constant tensor:
#      x y z
#    x 1.666130 0.000000 0.000000 
#    y 0.000000 1.639490 0.000000 
#    z 0.000000 0.000000 1.689000 
# 
# From -- ./inp_files/6344.got.cif
#   From: 2010.05.17/outbox.cif.g08.bks.cpg/sg22_4_cif.got.tgz:6344.got - 2010.06.03 23:40:54.
