data_PCOD9326721
_publ_section_title
;
Structure prediction by ZEFSAII (Michael W. Deem and Ramdas Pophale) SiO2 
 PCOD9326721
Probable space group: F 2 2 2
;
_chemical_formula_sum "Si O2"
_cell_formula_units_Z 52
_cell_length_a 21.596075
_cell_length_b 5.033192
_cell_length_c 26.386928
_cell_angle_alpha 90.000000
_cell_angle_beta 90.000000
_cell_angle_gamma 90.000000
_cell_volume 2868.184977
_symmetry_space_group_name_H-M "F 2 2 2"
_symmetry_group_IT_number 22
_symmetry_cell_setting 'orthorhombic'
loop_
_space_group_symop_operation_xyz
x,y,z
-x,-y,z
x,-y,-z
-x,y,-z
x,1/2+y,1/2+z
-x,1/2-y,1/2+z
x,1/2-y,1/2-z
-x,1/2+y,1/2-z
1/2+x,y,1/2+z
1/2-x,-y,1/2+z
1/2+x,-y,1/2-z
1/2-x,y,1/2-z
1/2+x,1/2+y,z
1/2-x,1/2-y,z
1/2+x,1/2-y,-z
1/2-x,1/2+y,-z
loop_
_atom_site_type_symbol
_atom_site_label
_atom_site_fract_x
_atom_site_fract_y
_atom_site_fract_z
Si Si1 0.000000 0.000000 0.000000
Si Si2 0.899923 0.637089 0.422772
Si Si3 0.044073 0.250000 0.750000
Si Si4 0.430089 0.116574 0.858909
Si Si5 0.206920 0.000000 0.000000
O O1 0.954433 0.172682 0.964622
O O2 0.922087 0.390610 0.388617
O O3 0.838322 0.566866 0.453335
O O4 0.891346 0.893388 0.387924
O O5 0.082024 0.166363 0.700404
O O6 0.000000 0.500000 0.735811
O O7 0.500000 0.000000 0.860712
O O8 0.250000 0.250000 0.988555
#
# Coordination Sequence:
#
# PCOD9326721 Si02
#       5
#     4  16   8  16   8
#     4  10  20  34  48  86 112 144 180 232 272 346
#     4  11  22  34  58  81 114 153 188 230 287 331
#     4  10  20  32  52  78 123 164 179 222 274 348
#     4  11  19  34  52  86 118 150 185 223 280 350
#     4  11  24  43  56  79 112 153 202 240 276 335
#
# _framework density 18.129930999999999
#
# number of rings (size 3 to 8) (size 9 to 14) (size 15 to 20)
#    0.000    1.231    3.077    5.538    0.000    4.923 
#    0.000    0.000    0.000    0.000    0.000   16.154 
#    0.000    0.000    0.000    0.000    0.000    0.000 
#
# Total GULP energy -72627.483920 kJ/mol
# GULP energy per Si atom -5586.729532 kJ/mol
# Density = 1.808867 g / cm^3
# Si number density = 18.129931 Si / 1000 Ang^3
#
#
#
# Elastic Constant Matrix: (Units=GPa)
#
#
# Indices 1 2 3 4 5 6 
#
# 1 73.5615 17.7730 45.1400 0.0017 -0.0029 -0.0066
# 2 17.7730 115.2051 58.9172 -0.0002 0.0783 -0.0047
# 3 45.1400 58.9172 160.5797 -0.0010 -0.0014 0.0015
# 4 0.0017 -0.0002 -0.0010 39.3739 0.0083 -0.0004
# 5 -0.0029 0.0783 -0.0014 0.0083 60.3228 -0.0115
# 6 -0.0066 -0.0047 0.0015 -0.0004 -0.0115 26.8866
#
#
#
# Elastic Compliance Matrix: (Units=1/GPa)
#
#
# Indices 1 2 3 4 5 6 
#
# 1 0.016432 -0.000213 -0.004541 -0.000001 0.000001 0.000004
# 2 -0.000213 0.010688 -0.003862 0.000000 -0.000014 0.000002
# 3 -0.004541 -0.003862 0.008921 0.000000 0.000005 -0.000002
# 4 -0.000001 0.000000 0.000000 0.025398 -0.000004 0.000000
# 5 0.000001 -0.000014 0.000005 -0.000004 0.016578 0.000007
# 6 0.000004 0.000002 -0.000002 0.000000 0.000007 0.037193
#
#
# Mechanical properties :
#
#
# Convention : Reuss Voigt Hill
#
# Bulk Modulus (GPa) = 53.16343 65.88964 59.52654
# Shear Modulus (GPa) = 36.04647 40.48439 38.26543
#
# Velocity S-wave (km/s) = 4.46379 4.73060 4.59913
# Velocity P-wave (km/s) = 7.48027 8.14003 7.81712
#
# Compressibility (1/GPa) = 0.01880992
#
# Stress axis : x y z
#
# Youngs Moduli (GPa) = 60.85670 93.56397 112.09723
#
# Poissons Ratio (x) = 0.01989 0.50905
# Poissons Ratio (y) = 0.01294 0.43288
# Poissons Ratio (z) = 0.27636 0.36131
#
# Static dielectric constant tensor:
#      x y z
#    x 1.591470 0.000020 0.000000 
#    y 0.000020 1.628180 0.000000 
#    z 0.000000 0.000000 1.654460 
# 
# From -- ./inp_files/3470.got.cif
#   From: 2010.05.17/outbox.cif.g08.bks.cpg/sg22_2_cif.got.tgz:3470.got - 2010.06.03 23:40:54.
