data_PCOD9326783
_publ_section_title
;
Structure prediction by ZEFSAII (Michael W. Deem and Ramdas Pophale) SiO2 
 PCOD9326783
Probable space group: F 2 2 2
;
_chemical_formula_sum "Si O2"
_cell_formula_units_Z 84
_cell_length_a 16.101234
_cell_length_b 18.256411
_cell_length_c 12.410890
_cell_angle_alpha 90.000000
_cell_angle_beta 90.000000
_cell_angle_gamma 90.000000
_cell_volume 3648.190368
_symmetry_space_group_name_H-M "F 2 2 2"
_symmetry_group_IT_number 22
_symmetry_cell_setting 'orthorhombic'
loop_
_space_group_symop_operation_xyz
x,y,z
-x,-y,z
x,-y,-z
-x,y,-z
x,1/2+y,1/2+z
-x,1/2-y,1/2+z
x,1/2-y,1/2-z
-x,1/2+y,1/2-z
1/2+x,y,1/2+z
1/2-x,-y,1/2+z
1/2+x,-y,1/2-z
1/2-x,y,1/2-z
1/2+x,1/2+y,z
1/2-x,1/2-y,z
1/2+x,1/2-y,-z
1/2-x,1/2+y,-z
loop_
_atom_site_type_symbol
_atom_site_label
_atom_site_fract_x
_atom_site_fract_y
_atom_site_fract_z
Si Si1 0.668896 0.416640 0.025893
Si Si2 0.587353 0.676004 0.340736
Si Si3 0.868737 0.419412 0.037324
Si Si4 0.550462 0.338313 0.891527
Si Si5 0.850609 0.663784 0.746542
Si Si6 0.750000 0.750000 0.250000
O O1 0.768057 0.418244 0.032584
O O2 0.633346 0.380091 0.135647
O O3 0.640141 0.500000 0.000000
O O4 0.641361 0.364172 0.929146
O O5 0.591304 0.628976 0.445750
O O6 0.547082 0.638494 0.234478
O O7 0.543765 0.751699 0.374520
O O8 0.682985 0.699545 0.312985
O O9 0.884656 0.383185 0.153481
O O10 0.894052 0.500000 0.000000
O O11 0.500000 0.360786 0.000000
O O12 0.876009 0.750000 0.750000
O O13 0.750000 0.665671 0.750000
#
# Coordination Sequence:
#
# PCOD9326783 Si02
#       6
#    16  16  16  16  16   4
#     4  10  21  35  59  91 127 160 195 249 309 373
#     4  10  20  37  62  90 118 154 203 255 311 367
#     4  10  20  34  59  96 127 151 190 252 326 377
#     4  10  22  40  59  83 114 160 211 251 293 361
#     4   9  18  33  52  85 125 162 197 236 300 375
#     4   8  16  32  60  92 114 152 190 254 304 362
#
# _framework density 23.025113999999999
#
# number of rings (size 3 to 8) (size 9 to 14) (size 15 to 20)
#    0.000    2.476    0.000    3.429    2.667    3.429 
#   12.000    0.000    0.000    0.571    0.000    0.000 
#    0.000    0.000    0.000    0.000    0.000    0.000 
#
# Total GULP energy -117075.895359 kJ/mol
# GULP energy per Si atom -5575.042636 kJ/mol
# Density = 2.297271 g / cm^3
# Si number density = 23.025114 Si / 1000 Ang^3
#
#
#
# Elastic Constant Matrix: (Units=GPa)
#
#
# Indices 1 2 3 4 5 6 
#
# 1 81.0319 19.1527 50.5014 0.0000 0.0000 0.0000
# 2 19.1527 115.5231 96.8859 0.0000 0.0000 0.0000
# 3 50.5014 96.8859 227.3179 0.0000 0.0000 0.0000
# 4 0.0000 0.0000 0.0000 26.7070 0.0000 0.0000
# 5 0.0000 0.0000 0.0000 0.0000 44.3108 0.0000
# 6 0.0000 0.0000 0.0000 0.0000 0.0000 1.2431
#
#
#
# Elastic Compliance Matrix: (Units=1/GPa)
#
#
# Indices 1 2 3 4 5 6 
#
# 1 0.014340 0.000458 -0.003381 0.000000 0.000000 0.000000
# 2 0.000458 0.013486 -0.005850 0.000000 0.000000 0.000000
# 3 -0.003381 -0.005850 0.007644 0.000000 0.000000 0.000000
# 4 0.000000 0.000000 0.000000 0.037443 0.000000 0.000000
# 5 0.000000 0.000000 0.000000 0.000000 0.022568 0.000000
# 6 0.000000 0.000000 0.000000 0.000000 0.000000 0.804439
#
#
# Mechanical properties :
#
#
# Convention : Reuss Voigt Hill
#
# Bulk Modulus (GPa) = 55.79047 84.10587 69.94817
# Shear Modulus (GPa) = 5.41453 31.60772 18.51113
#
# Velocity S-wave (km/s) = 1.53515 3.70908 2.83848
# Velocity P-wave (km/s) = 5.23690 7.41284 6.41776
#
# Compressibility (1/GPa) = 0.01792421
#
# Stress axis : x y z
#
# Youngs Moduli (GPa) = 69.73668 74.14848 130.82910
#
# Poissons Ratio (x) = -0.03397 0.44233
# Poissons Ratio (y) = -0.03195 0.76534
# Poissons Ratio (z) = 0.23578 0.43376
#
# Static dielectric constant tensor:
#      x y z
#    x 1.958520 0.000000 0.000000 
#    y 0.000000 1.812580 0.000000 
#    z 0.000000 0.000000 1.829410 
# 
# From -- ./inp_files/22515.got.cif
#   From: 2010.05.17/outbox.cif.g08.bks.cpg/sg22_12_cif.got.tgz:22515.got - 2010.06.03 23:40:54.
