data_PCOD9326503
_publ_section_title
;
Structure prediction by ZEFSAII (Michael W. Deem and Ramdas Pophale) SiO2 
 PCOD9326503
Probable space group: F 2 2 2
;
_chemical_formula_sum "Si O2"
_cell_formula_units_Z 72
_cell_length_a 18.988610
_cell_length_b 16.171990
_cell_length_c 13.181023
_cell_angle_alpha 90.000000
_cell_angle_beta 90.000000
_cell_angle_gamma 90.000000
_cell_volume 4047.676140
_symmetry_space_group_name_H-M "F 2 2 2"
_symmetry_group_IT_number 22
_symmetry_cell_setting 'orthorhombic'
loop_
_space_group_symop_operation_xyz
x,y,z
-x,-y,z
x,-y,-z
-x,y,-z
x,1/2+y,1/2+z
-x,1/2-y,1/2+z
x,1/2-y,1/2-z
-x,1/2+y,1/2-z
1/2+x,y,1/2+z
1/2-x,-y,1/2+z
1/2+x,-y,1/2-z
1/2-x,y,1/2-z
1/2+x,1/2+y,z
1/2-x,1/2-y,z
1/2+x,1/2-y,-z
1/2-x,1/2+y,-z
loop_
_atom_site_type_symbol
_atom_site_label
_atom_site_fract_x
_atom_site_fract_y
_atom_site_fract_z
Si Si1 0.629634 0.251539 0.368142
Si Si2 0.937155 0.550450 0.393666
Si Si3 0.500000 0.794654 0.500000
Si Si4 0.778639 0.061357 0.853922
Si Si5 0.752646 0.878097 0.923421
O O1 0.609376 0.250000 0.250000
O O2 0.561614 0.252964 0.440770
O O3 0.684886 0.324980 0.391468
O O4 0.676559 0.169384 0.388744
O O5 0.925588 0.500000 0.500000
O O6 0.963274 0.641764 0.421237
O O7 0.862422 0.553541 0.342483
O O8 0.000000 0.500000 0.340653
O O9 0.750000 0.097129 0.750000
O O10 0.750325 0.968654 0.874323
O O11 0.759537 0.111643 0.955232
#
# Coordination Sequence:
#
# PCOD9326503 Si02
#       5
#    16  16   8  16  16
#     4  11  21  37  59  82 109 155 185 231 283 331
#     4   9  16  31  58  81 108 140 185 240 271 318
#     4  10  19  36  54  81 114 138 190 236 264 337
#     4  11  19  34  58  86 114 148 183 240 294 324
#     4  10  20  36  57  85 115 137 198 237 267 344
#
# _framework density 17.787984999999999
#
# number of rings (size 3 to 8) (size 9 to 14) (size 15 to 20)
#    0.000    2.000    4.444    4.000    0.000    0.000 
#    4.000    2.222    0.000    1.333    0.000    0.000 
#    0.000    0.000    0.000    0.000    0.000    0.000 
#
# Total GULP energy -100400.948453 kJ/mol
# GULP energy per Si atom -5577.830470 kJ/mol
# Density = 1.774750 g / cm^3
# Si number density = 17.787985 Si / 1000 Ang^3
#
#
#
# Elastic Constant Matrix: (Units=GPa)
#
#
# Indices 1 2 3 4 5 6 
#
# 1 127.5864 11.5158 43.1208 0.0000 0.0000 0.0000
# 2 11.5158 36.1396 10.4368 0.0000 0.0000 0.0000
# 3 43.1208 10.4368 96.7980 0.0000 0.0000 0.0000
# 4 0.0000 0.0000 0.0000 5.7582 0.0000 0.0000
# 5 0.0000 0.0000 0.0000 0.0000 22.1716 0.0000
# 6 0.0000 0.0000 0.0000 0.0000 0.0000 13.8065
#
#
#
# Elastic Compliance Matrix: (Units=1/GPa)
#
#
# Indices 1 2 3 4 5 6 
#
# 1 0.009343 -0.001832 -0.003965 0.000000 0.000000 0.000000
# 2 -0.001832 0.028919 -0.002302 0.000000 0.000000 0.000000
# 3 -0.003965 -0.002302 0.012345 0.000000 0.000000 0.000000
# 4 0.000000 0.000000 0.000000 0.173666 0.000000 0.000000
# 5 0.000000 0.000000 0.000000 0.000000 0.045103 0.000000
# 6 0.000000 0.000000 0.000000 0.000000 0.000000 0.072430
#
#
# Mechanical properties :
#
#
# Convention : Reuss Voigt Hill
#
# Bulk Modulus (GPa) = 29.06132 43.40787 36.23459
# Shear Modulus (GPa) = 13.53279 21.37729 17.45504
#
# Velocity S-wave (km/s) = 2.76122 3.47043 3.13594
# Velocity P-wave (km/s) = 5.15159 6.36510 5.79022
#
# Compressibility (1/GPa) = 0.03441000
#
# Stress axis : x y z
#
# Youngs Moduli (GPa) = 107.03066 34.57922 81.00395
#
# Poissons Ratio (x) = 0.06336 0.32114
# Poissons Ratio (y) = 0.19611 0.18646
# Poissons Ratio (z) = 0.42433 0.07960
#
# Static dielectric constant tensor:
#      x y z
#    x 1.624460 0.000000 0.000000 
#    y 0.000000 1.619020 0.000000 
#    z 0.000000 0.000000 1.616630 
# 
# From -- ./inp_files/30394.got.cif
#   From: 2010.05.17/outbox.cif.g08.bks.cpg/sg22_16_cif.got.tgz:30394.got - 2010.06.03 23:40:54.
