data_PCOD9326748
_publ_section_title
;
Structure prediction by ZEFSAII (Michael W. Deem and Ramdas Pophale) SiO2 
 PCOD9326748
Probable space group: F 2 2 2
;
_chemical_formula_sum "Si O2"
_cell_formula_units_Z 120
_cell_length_a 10.018463
_cell_length_b 22.351653
_cell_length_c 24.338842
_cell_angle_alpha 90.000000
_cell_angle_beta 90.000000
_cell_angle_gamma 90.000000
_cell_volume 5450.177627
_symmetry_space_group_name_H-M "F 2 2 2"
_symmetry_group_IT_number 22
_symmetry_cell_setting 'orthorhombic'
loop_
_space_group_symop_operation_xyz
x,y,z
-x,-y,z
x,-y,-z
-x,y,-z
x,1/2+y,1/2+z
-x,1/2-y,1/2+z
x,1/2-y,1/2-z
-x,1/2+y,1/2-z
1/2+x,y,1/2+z
1/2-x,-y,1/2+z
1/2+x,-y,1/2-z
1/2-x,y,1/2-z
1/2+x,1/2+y,z
1/2-x,1/2-y,z
1/2+x,1/2-y,-z
1/2-x,1/2+y,-z
loop_
_atom_site_type_symbol
_atom_site_label
_atom_site_fract_x
_atom_site_fract_y
_atom_site_fract_z
Si Si1 0.257048 0.376939 0.913902
Si Si2 0.499595 0.370577 0.249241
Si Si3 0.216679 0.986847 0.558423
Si Si4 0.036234 0.174537 0.131864
Si Si5 0.113657 0.288074 0.836190
Si Si6 0.250000 0.040364 0.750000
Si Si7 0.643298 0.373191 0.972264
Si Si8 0.873254 0.456840 0.829948
O O1 0.245300 0.448495 0.915645
O O2 0.399702 0.358126 0.888618
O O3 0.148445 0.343705 0.876416
O O4 0.255014 0.357729 0.978315
O O5 0.435108 0.353580 0.191361
O O6 0.566822 0.313830 0.278313
O O7 0.621402 0.417637 0.242440
O O8 0.399595 0.399041 0.293475
O O9 0.338611 0.943389 0.542094
O O10 0.142366 0.949277 0.605247
O O11 0.148442 0.000000 0.500000
O O12 0.996433 0.243504 0.139376
O O13 0.143911 0.162516 0.084616
O O14 0.250000 0.250000 0.831402
O O15 0.242832 0.995859 0.698058
O O16 0.500000 0.363590 0.000000
O O17 0.000000 0.500000 0.822960
#
# Coordination Sequence:
#
# PCOD9326748 Si02
#       8
#    16  16  16  16  16   8  16  16
#     4   9  18  34  58  85 115 151 201 257 313 364
#     4  11  21  35  57  91 121 156 208 254 315 384
#     4  10  20  36  61  85 120 165 198 252 312 385
#     4  10  20  33  55  86 117 153 200 259 311 362
#     4  10  20  36  61  83 116 155 208 266 309 360
#     4  10  20  36  53  84 123 156 194 250 310 370
#     4   9  20  36  58  88 123 156 209 256 316 380
#     4  10  22  36  54  85 128 160 197 248 316 386
#
# _framework density 22.017631000000002
#
# number of rings (size 3 to 8) (size 9 to 14) (size 15 to 20)
#    0.000    2.133    0.000    4.400    1.867    8.000 
#    2.400    0.000   38.133    0.000    0.000    0.000 
#    0.000    0.000    0.000    0.000    0.000    0.000 
#
# Total GULP energy -167466.453053 kJ/mol
# GULP energy per Si atom -5582.215102 kJ/mol
# Density = 2.196752 g / cm^3
# Si number density = 22.017631 Si / 1000 Ang^3
#
#
#
# Elastic Constant Matrix: (Units=GPa)
#
#
# Indices 1 2 3 4 5 6 
#
# 1 11.7279 1.6581 13.9820 0.0000 0.0000 0.0000
# 2 1.6581 50.4589 30.9687 0.0000 0.0000 0.0000
# 3 13.9820 30.9687 185.1688 0.0000 0.0000 0.0000
# 4 0.0000 0.0000 0.0000 26.3976 0.0000 0.0000
# 5 0.0000 0.0000 0.0000 0.0000 19.3431 0.0000
# 6 0.0000 0.0000 0.0000 0.0000 0.0000 19.4633
#
#
#
# Elastic Compliance Matrix: (Units=1/GPa)
#
#
# Indices 1 2 3 4 5 6 
#
# 1 0.093792 0.001409 -0.007318 0.000000 0.000000 0.000000
# 2 0.001409 0.022106 -0.003804 0.000000 0.000000 0.000000
# 3 -0.007318 -0.003804 0.006589 0.000000 0.000000 0.000000
# 4 0.000000 0.000000 0.000000 0.037882 0.000000 0.000000
# 5 0.000000 0.000000 0.000000 0.000000 0.051698 0.000000
# 6 0.000000 0.000000 0.000000 0.000000 0.000000 0.051379
#
#
# Mechanical properties :
#
#
# Convention : Reuss Voigt Hill
#
# Bulk Modulus (GPa) = 9.70284 37.84147 23.77216
# Shear Modulus (GPa) = 15.76170 26.42392 21.09281
#
# Velocity S-wave (km/s) = 2.67847 3.46804 3.09851
# Velocity P-wave (km/s) = 3.73926 5.76720 4.86018
#
# Compressibility (1/GPa) = 0.10306258
#
# Stress axis : x y z
#
# Youngs Moduli (GPa) = 10.66193 45.23614 151.76396
#
# Poissons Ratio (x) = -0.06375 1.11059
# Poissons Ratio (y) = -0.01502 0.57725
# Poissons Ratio (z) = 0.07802 0.17206
#
# Static dielectric constant tensor:
#      x y z
#    x 1.833510 0.000000 0.000000 
#    y 0.000000 1.804650 0.000000 
#    z 0.000000 0.000000 1.872260 
# 
# From -- ./inp_files/48339.got.cif
#   From: 2010.05.17/outbox.cif.g08.bks.cpg/sg22_25_cif.got.tgz:48339.got - 2010.06.03 23:40:54.
