data_PCOD9326924
_publ_section_title
;
Structure prediction by ZEFSAII (Michael W. Deem and Ramdas Pophale) SiO2 
 PCOD9326924
Probable space group: F 2 2 2
;
_chemical_formula_sum "Si O2"
_cell_formula_units_Z 68
_cell_length_a 4.975608
_cell_length_b 26.063545
_cell_length_c 23.829656
_cell_angle_alpha 90.000000
_cell_angle_beta 90.000000
_cell_angle_gamma 90.000000
_cell_volume 3090.277045
_symmetry_space_group_name_H-M "F 2 2 2"
_symmetry_group_IT_number 22
_symmetry_cell_setting 'orthorhombic'
loop_
_space_group_symop_operation_xyz
x,y,z
-x,-y,z
x,-y,-z
-x,y,-z
x,1/2+y,1/2+z
-x,1/2-y,1/2+z
x,1/2-y,1/2-z
-x,1/2+y,1/2-z
1/2+x,y,1/2+z
1/2-x,-y,1/2+z
1/2+x,-y,1/2-z
1/2-x,y,1/2-z
1/2+x,1/2+y,z
1/2-x,1/2-y,z
1/2+x,1/2-y,-z
1/2-x,1/2+y,-z
loop_
_atom_site_type_symbol
_atom_site_label
_atom_site_fract_x
_atom_site_fract_y
_atom_site_fract_z
Si Si1 0.750000 0.250000 0.750000
Si Si2 0.755909 0.462857 0.309570
Si Si3 0.750000 0.750000 0.936768
Si Si4 0.528881 0.376284 0.877419
Si Si5 0.476897 0.187062 0.845355
Si Si6 0.500000 0.659998 0.000000
O O1 0.562788 0.214847 0.789013
O O2 0.500000 0.500000 0.322755
O O3 0.750000 0.431616 0.250000
O O4 0.877010 0.427646 0.358516
O O5 0.000000 0.500000 0.295505
O O6 0.517293 0.770430 0.895022
O O7 0.711138 0.700947 0.976065
O O8 0.821017 0.360984 0.853910
O O9 0.325727 0.333471 0.852400
O O10 0.561755 0.372443 0.944617
#
# Coordination Sequence:
#
# PCOD9326924 Si02
#       6
#     4  16   8  16  16   8
#     4  12  24  40  56  90 136 180 216 270 342 366
#     4  10  22  42  69  93 126 162 207 271 344 418
#     4  10  20  40  60  92 136 188 236 262 324 380
#     4  11  24  41  63  97 123 167 225 270 334 392
#     4  11  25  37  60  89 132 177 220 273 314 396
#     4  10  20  36  65  88 128 172 217 274 302 384
#
# _framework density 22.004501000000001
#
# number of rings (size 3 to 8) (size 9 to 14) (size 15 to 20)
#    0.000    1.412    0.000    5.647    3.294    6.118 
#    0.000    0.588    0.000    1.412    0.000    0.000 
#    0.000    0.000    0.000    0.000    0.000    0.000 
#
# Total GULP energy -94728.897459 kJ/mol
# GULP energy per Si atom -5572.288086 kJ/mol
# Density = 2.195442 g / cm^3
# Si number density = 22.004501 Si / 1000 Ang^3
#
#
#
# Elastic Constant Matrix: (Units=GPa)
#
#
# Indices 1 2 3 4 5 6 
#
# 1 85.1695 -8.9483 1.5008 0.0000 0.0000 0.0000
# 2 -8.9483 53.9142 29.9089 0.0000 0.0000 0.0000
# 3 1.5008 29.9089 155.6287 0.0000 0.0000 0.0000
# 4 0.0000 0.0000 0.0000-9193.8228 0.0000 0.0000
# 5 0.0000 0.0000 0.0000 0.0000 30.5954 0.0000
# 6 0.0000 0.0000 0.0000 0.0000 0.0000 29.6246
#
#
#
# Elastic Compliance Matrix: (Units=1/GPa)
#
#
# Indices 1 2 3 4 5 6 
#
# 1 0.011993 0.002300 -0.000558 0.000000 0.000000 0.000000
# 2 0.002300 0.021202 -0.004097 0.000000 0.000000 0.000000
# 3 -0.000558 -0.004097 0.007218 0.000000 0.000000 0.000000
# 4 0.000000 0.000000 0.000000 -0.000109 0.000000 0.000000
# 5 0.000000 0.000000 0.000000 0.000000 0.032685 0.000000
# 6 0.000000 0.000000 0.000000 0.000000 0.000000 0.033756
#
#
# Mechanical properties :
#
#
# Convention : Reuss Voigt Hill
#
# Bulk Modulus (GPa) = 28.00800 37.73723 32.87262
# Shear Modulus (GPa) = 40.53313 -1808.57051 -884.01869
#
# Velocity S-wave (km/s) = 4.29655 -28.70006 -20.06531
# Velocity P-wave (km/s) = 6.11308 32.87965 22.84405
#
# Compressibility (1/GPa) = 0.03570408
#
# Stress axis : x y z
#
# Youngs Moduli (GPa) = 83.38372 47.16433 138.53728
#
# Poissons Ratio (x) = -0.10847 0.07725
# Poissons Ratio (y) = -0.19177 0.56757
# Poissons Ratio (z) = 0.04650 0.19323
#
# Static dielectric constant tensor:
#      x y z
#    x 1.933820 0.000000 0.000000 
#    y 0.000000 1.859590 0.000000 
#    z 0.000000 0.000000 1.894890 
# 
# From -- ./inp_files/41018.got.cif
#   From: 2010.05.17/outbox.cif.g08.bks.cpg/sg22_21_cif.got.tgz:41018.got - 2010.06.03 23:40:54.
