data_PCOD9326774
_publ_section_title
;
Structure prediction by ZEFSAII (Michael W. Deem and Ramdas Pophale) SiO2 
 PCOD9326774
Probable space group: F 2 2 2
;
_chemical_formula_sum "Si O2"
_cell_formula_units_Z 80
_cell_length_a 27.028644
_cell_length_b 11.747206
_cell_length_c 11.072856
_cell_angle_alpha 90.000000
_cell_angle_beta 90.000000
_cell_angle_gamma 90.000000
_cell_volume 3515.754124
_symmetry_space_group_name_H-M "F 2 2 2"
_symmetry_group_IT_number 22
_symmetry_cell_setting 'orthorhombic'
loop_
_space_group_symop_operation_xyz
x,y,z
-x,-y,z
x,-y,-z
-x,y,-z
x,1/2+y,1/2+z
-x,1/2-y,1/2+z
x,1/2-y,1/2-z
-x,1/2+y,1/2-z
1/2+x,y,1/2+z
1/2-x,-y,1/2+z
1/2+x,-y,1/2-z
1/2-x,y,1/2-z
1/2+x,1/2+y,z
1/2-x,1/2-y,z
1/2+x,1/2-y,-z
1/2-x,1/2+y,-z
loop_
_atom_site_type_symbol
_atom_site_label
_atom_site_fract_x
_atom_site_fract_y
_atom_site_fract_z
Si Si1 0.806158 0.558589 0.743682
Si Si2 0.088159 0.557834 0.751491
Si Si3 0.195125 0.748703 0.045699
Si Si4 0.904399 0.231389 0.570050
Si Si5 0.948607 0.398496 0.426360
O O1 0.750000 0.509308 0.750000
O O2 0.854344 0.479790 0.749185
O O3 0.808466 0.647488 0.855594
O O4 0.811094 0.634868 0.622196
O O5 0.081688 0.666885 0.662435
O O6 0.076655 0.612292 0.881047
O O7 0.054720 0.452768 0.705509
O O8 0.250000 0.750000 0.994150
O O9 0.154183 0.730697 0.945390
O O10 0.923968 0.276909 0.441802
O O11 0.920226 0.500000 0.500000
O O12 0.000000 0.389177 0.500000
#
# Coordination Sequence:
#
# PCOD9326774 Si02
#       5
#    16  16  16  16  16
#     4   9  18  33  54  82 120 166 211 247 299 372
#     4  10  20  34  57  86 115 150 201 250 298 371
#     4   9  18  33  54  82 120 166 210 250 302 369
#     4  10  20  34  57  86 117 150 202 256 304 368
#     4   9  18  36  63  79 111 154 196 248 318 372
#
# _framework density 22.754718
#
# number of rings (size 3 to 8) (size 9 to 14) (size 15 to 20)
#    0.000    2.600    2.000    1.200    0.000    2.400 
#    0.000    6.000   35.200    0.000    0.000    0.000 
#    0.000    0.000    0.000    0.000    0.000    0.000 
#
# Total GULP energy -111389.504033 kJ/mol
# GULP energy per Si atom -5569.475202 kJ/mol
# Density = 2.270293 g / cm^3
# Si number density = 22.754718 Si / 1000 Ang^3
#
#
#
# Elastic Constant Matrix: (Units=GPa)
#
#
# Indices 1 2 3 4 5 6 
#
# 1 97.4966 38.7953 25.1811 0.0000 0.0000 0.0000
# 2 38.7953 78.6001 40.0267 0.0000 0.0000 0.0000
# 3 25.1811 40.0267 47.2524 0.0000 0.0000 0.0000
# 4 0.0000 0.0000 0.0000 31.5930 0.0000 0.0000
# 5 0.0000 0.0000 0.0000 0.0000 26.0083 0.0000
# 6 0.0000 0.0000 0.0000 0.0000 0.0000 14.8120
#
#
#
# Elastic Compliance Matrix: (Units=1/GPa)
#
#
# Indices 1 2 3 4 5 6 
#
# 1 0.012945 -0.005058 -0.002613 0.000000 0.000000 0.000000
# 2 -0.005058 0.024351 -0.017932 0.000000 0.000000 0.000000
# 3 -0.002613 -0.017932 0.037745 0.000000 0.000000 0.000000
# 4 0.000000 0.000000 0.000000 0.031653 0.000000 0.000000
# 5 0.000000 0.000000 0.000000 0.000000 0.038449 0.000000
# 6 0.000000 0.000000 0.000000 0.000000 0.000000 0.067513
#
#
# Mechanical properties :
#
#
# Convention : Reuss Voigt Hill
#
# Bulk Modulus (GPa) = 41.95691 47.92837 44.94264
# Shear Modulus (GPa) = 18.39540 22.43903 20.41721
#
# Velocity S-wave (km/s) = 2.84636 3.14367 2.99870
# Velocity P-wave (km/s) = 5.41121 5.85540 5.63768
#
# Compressibility (1/GPa) = 0.02383398
#
# Stress axis : x y z
#
# Youngs Moduli (GPa) = 77.25280 41.06626 26.49333
#
# Poissons Ratio (x) = 0.20772 0.06924
# Poissons Ratio (y) = 0.39076 0.47507
# Poissons Ratio (z) = 0.20190 0.73639
#
# Static dielectric constant tensor:
#      x y z
#    x 1.891860 0.000000 0.000000 
#    y 0.000000 1.888450 0.000000 
#    z 0.000000 0.000000 1.961760 
# 
# From -- ./inp_files/25127.got.cif
#   From: 2010.05.17/outbox.cif.g08.bks.cpg/sg22_13_cif.got.tgz:25127.got - 2010.06.03 23:40:54.
