data_PCOD9326289
_publ_section_title
;
Structure prediction by ZEFSAII (Michael W. Deem and Ramdas Pophale) SiO2 
 PCOD9326289
Probable space group: F 2 2 2
;
_chemical_formula_sum "Si O2"
_cell_formula_units_Z 64
_cell_length_a 23.211154
_cell_length_b 18.569069
_cell_length_c 5.531369
_cell_angle_alpha 90.000000
_cell_angle_beta 90.000000
_cell_angle_gamma 90.000000
_cell_volume 2384.072699
_symmetry_space_group_name_H-M "F 2 2 2"
_symmetry_group_IT_number 22
_symmetry_cell_setting 'orthorhombic'
loop_
_space_group_symop_operation_xyz
x,y,z
-x,-y,z
x,-y,-z
-x,y,-z
x,1/2+y,1/2+z
-x,1/2-y,1/2+z
x,1/2-y,1/2-z
-x,1/2+y,1/2-z
1/2+x,y,1/2+z
1/2-x,-y,1/2+z
1/2+x,-y,1/2-z
1/2-x,y,1/2-z
1/2+x,1/2+y,z
1/2-x,1/2-y,z
1/2+x,1/2-y,-z
1/2-x,1/2+y,-z
loop_
_atom_site_type_symbol
_atom_site_label
_atom_site_fract_x
_atom_site_fract_y
_atom_site_fract_z
Si Si1 0.729323 0.917783 0.498896
Si Si2 0.597260 0.097265 0.614307
Si Si3 0.561452 0.884373 0.888004
Si Si4 0.855175 0.750000 0.750000
Si Si5 0.142756 0.250000 0.250000
O O1 0.750000 0.883305 0.250000
O O2 0.660891 0.921758 0.478575
O O3 0.753682 0.000000 0.500000
O O4 0.750000 0.884778 0.750000
O O5 0.557730 0.081064 0.381162
O O6 0.601355 0.182269 0.687875
O O7 0.586146 0.069388 0.886056
O O8 0.603072 0.817545 0.815706
O O9 0.500000 0.861900 0.000000
O O10 0.821827 0.748054 0.498225
#
# Coordination Sequence:
#
# PCOD9326289 Si02
#       5
#    16  16  16   8   8
#     4  10  21  38  61  84 102 132 185 240 285 327
#     4  10  19  34  53  76 110 141 175 224 270 318
#     4  10  19  30  49  77 109 146 181 213 259 319
#     4   8  16  27  42  68 100 136 178 214 240 285
#     4   8  16  29  47  72 101 136 169 204 259 319
#
# _framework density 26.844821
#
# number of rings (size 3 to 8) (size 9 to 14) (size 15 to 20)
#    0.000    2.500    0.000    2.250    0.000    6.000 
#    0.000    0.625    0.000    6.000    0.000    0.000 
#    0.000    0.000    0.000    0.000    0.000    0.000 
#
# Total GULP energy -89115.886638 kJ/mol
# GULP energy per Si atom -5569.742915 kJ/mol
# Density = 2.678372 g / cm^3
# Si number density = 26.844821 Si / 1000 Ang^3
#
#
#
# Elastic Constant Matrix: (Units=GPa)
#
#
# Indices 1 2 3 4 5 6 
#
# 1 99.5283 7.4073 71.2885 -0.0015 0.0007 0.0003
# 2 7.4073 92.8706 49.0545 -0.0003 0.0011 0.0005
# 3 71.2885 49.0545 418.8193 -0.0010 0.0027 0.0010
# 4 -0.0015 -0.0003 -0.0010 25.0181 0.0014 0.0009
# 5 0.0007 0.0011 0.0027 0.0014 52.2315 -0.0016
# 6 0.0003 0.0005 0.0010 0.0009 -0.0016 60.3092
#
#
#
# Elastic Compliance Matrix: (Units=1/GPa)
#
#
# Indices 1 2 3 4 5 6 
#
# 1 0.011444 0.000124 -0.001962 0.000001 0.000000 0.000000
# 2 0.000124 0.011479 -0.001366 0.000000 0.000000 0.000000
# 3 -0.001962 -0.001366 0.002882 0.000000 0.000000 0.000000
# 4 0.000001 0.000000 0.000000 0.039971 -0.000001 -0.000001
# 5 0.000000 0.000000 0.000000 -0.000001 0.019146 0.000001
# 6 0.000000 0.000000 0.000000 -0.000001 0.000001 0.016581
#
#
# Mechanical properties :
#
#
# Convention : Reuss Voigt Hill
#
# Bulk Modulus (GPa) = 51.55661 96.30209 73.92935
# Shear Modulus (GPa) = 43.71548 59.74295 51.72922
#
# Velocity S-wave (km/s) = 4.03979 4.72263 4.39449
# Velocity P-wave (km/s) = 6.40367 8.10488 7.30397
#
# Compressibility (1/GPa) = 0.01939616
#
# Stress axis : x y z
#
# Youngs Moduli (GPa) = 87.38390 87.11494 347.02592
#
# Poissons Ratio (x) = -0.01078 0.68099
# Poissons Ratio (y) = -0.01082 0.47389
# Poissons Ratio (z) = 0.17148 0.11896
#
# Static dielectric constant tensor:
#      x y z
#    x 2.067300 0.000000 0.000000 
#    y 0.000000 2.314560 0.000000 
#    z 0.000000 0.000000 2.392600 
# 
# From -- ./inp_files/3690.got.cif
#   From: 2010.05.17/outbox.cif.g08.bks.cpg/sg22_2_cif.got.tgz:3690.got - 2010.06.03 23:40:54.
