data_PCOD9326129
_publ_section_title
;
Structure prediction by ZEFSAII (Michael W. Deem and Ramdas Pophale) SiO2 
 PCOD9326129
Probable space group: F 2 2 2
;
_chemical_formula_sum "Si O2"
_cell_formula_units_Z 84
_cell_length_a 20.123997
_cell_length_b 23.154312
_cell_length_c 7.712949
_cell_angle_alpha 90.000000
_cell_angle_beta 90.000000
_cell_angle_gamma 90.000000
_cell_volume 3593.904931
_symmetry_space_group_name_H-M "F 2 2 2"
_symmetry_group_IT_number 22
_symmetry_cell_setting 'orthorhombic'
loop_
_space_group_symop_operation_xyz
x,y,z
-x,-y,z
x,-y,-z
-x,y,-z
x,1/2+y,1/2+z
-x,1/2-y,1/2+z
x,1/2-y,1/2-z
-x,1/2+y,1/2-z
1/2+x,y,1/2+z
1/2-x,-y,1/2+z
1/2+x,-y,1/2-z
1/2-x,y,1/2-z
1/2+x,1/2+y,z
1/2-x,1/2-y,z
1/2+x,1/2-y,-z
1/2-x,1/2+y,-z
loop_
_atom_site_type_symbol
_atom_site_label
_atom_site_fract_x
_atom_site_fract_y
_atom_site_fract_z
Si Si1 0.820418 0.849249 0.978280
Si Si2 0.552397 0.291792 0.883649
Si Si3 0.001764 0.588849 0.704221
Si Si4 0.853225 0.061596 0.309517
Si Si5 0.250000 0.750000 0.250000
Si Si6 0.653502 0.571371 0.300756
O O1 0.822818 0.899581 0.838721
O O2 0.781962 0.795812 0.889340
O O3 0.893935 0.823173 0.001455
O O4 0.814802 0.883686 0.163715
O O5 0.587261 0.250000 0.750000
O O6 0.509975 0.341717 0.790289
O O7 0.500000 0.257761 0.000000
O O8 0.073116 0.570038 0.776553
O O9 0.000000 0.572511 0.500000
O O10 0.934109 0.566735 0.790887
O O11 0.833414 0.085488 0.498438
O O12 0.829477 0.996078 0.281548
#
# Coordination Sequence:
#
# PCOD9326129 Si02
#       6
#    16  16  16  16   4  16
#     4  11  25  48  67  99 136 190 249 308 356 426
#     4  10  21  37  62 100 138 187 231 289 355 421
#     4  10  18  33  55 103 150 196 219 273 358 443
#     4  11  20  39  68 105 148 184 234 291 375 442
#     4  12  32  52  78  92 140 210 260 312 366 436
#     4  10  22  36  69 107 146 187 231 295 366 452
#
# _framework density 23.372906
#
# number of rings (size 3 to 8) (size 9 to 14) (size 15 to 20)
#    0.000    1.524    5.714    1.714    1.333    8.381 
#    0.000    4.286    8.381    0.000    0.000    0.000 
#    0.000    0.000    0.000    0.000    0.000    0.000 
#
# Total GULP energy -117127.835599 kJ/mol
# GULP energy per Si atom -5577.515981 kJ/mol
# Density = 2.331971 g / cm^3
# Si number density = 23.372906 Si / 1000 Ang^3
#
#
#
# Elastic Constant Matrix: (Units=GPa)
#
#
# Indices 1 2 3 4 5 6 
#
# 1 84.8997 30.5175 47.4056 0.0002 0.0001 0.0000
# 2 30.5175 91.9602 73.7778 0.0015 -0.0002 -0.0002
# 3 47.4056 73.7778 159.5837 0.0016 0.0004 -0.0001
# 4 0.0002 0.0015 0.0016 75.7011 0.0003 0.0003
# 5 0.0001 -0.0002 0.0004 0.0003 28.1201 -0.0001
# 6 0.0000 -0.0002 -0.0001 0.0003 -0.0001 12.1675
#
#
#
# Elastic Compliance Matrix: (Units=1/GPa)
#
#
# Indices 1 2 3 4 5 6 
#
# 1 0.014380 -0.002138 -0.003283 0.000000 0.000000 0.000000
# 2 -0.002138 0.017603 -0.007503 0.000000 0.000000 0.000000
# 3 -0.003283 -0.007503 0.010711 0.000000 0.000000 0.000000
# 4 0.000000 0.000000 0.000000 0.013210 0.000000 0.000000
# 5 0.000000 0.000000 0.000000 0.000000 0.035562 0.000000
# 6 0.000000 0.000000 0.000000 0.000000 0.000000 0.082186
#
#
# Mechanical properties :
#
#
# Convention : Reuss Voigt Hill
#
# Bulk Modulus (GPa) = 59.36424 71.09395 65.22910
# Shear Modulus (GPa) = 24.37640 35.51391 29.94516
#
# Velocity S-wave (km/s) = 3.23295 3.90224 3.58326
# Velocity P-wave (km/s) = 6.27613 7.12647 6.71478
#
# Compressibility (1/GPa) = 0.01684516
#
# Stress axis : x y z
#
# Youngs Moduli (GPa) = 69.53864 56.80698 93.36626
#
# Poissons Ratio (x) = 0.12146 0.30656
# Poissons Ratio (y) = 0.14868 0.70055
# Poissons Ratio (z) = 0.22832 0.42623
#
# Static dielectric constant tensor:
#      x y z
#    x 1.647150 0.000000 0.000000 
#    y 0.000000 1.878710 0.000000 
#    z 0.000000 0.000000 1.883570 
# 
# From -- ./inp_files/13661.got.cif
#   From: 2010.05.17/outbox.cif.g08.bks.cpg/sg22_7_cif.got.tgz:13661.got - 2010.06.03 23:40:54.
