data_PCOD9326526
_publ_section_title
;
Structure prediction by ZEFSAII (Michael W. Deem and Ramdas Pophale) SiO2 
 PCOD9326526
Probable space group: F 2 2 2
;
_chemical_formula_sum "Si O2"
_cell_formula_units_Z 76
_cell_length_a 14.174651
_cell_length_b 21.159341
_cell_length_c 11.438503
_cell_angle_alpha 90.000000
_cell_angle_beta 90.000000
_cell_angle_gamma 90.000000
_cell_volume 3430.707586
_symmetry_space_group_name_H-M "F 2 2 2"
_symmetry_group_IT_number 22
_symmetry_cell_setting 'orthorhombic'
loop_
_space_group_symop_operation_xyz
x,y,z
-x,-y,z
x,-y,-z
-x,y,-z
x,1/2+y,1/2+z
-x,1/2-y,1/2+z
x,1/2-y,1/2-z
-x,1/2+y,1/2-z
1/2+x,y,1/2+z
1/2-x,-y,1/2+z
1/2+x,-y,1/2-z
1/2-x,y,1/2-z
1/2+x,1/2+y,z
1/2-x,1/2-y,z
1/2+x,1/2-y,-z
1/2-x,1/2+y,-z
loop_
_atom_site_type_symbol
_atom_site_label
_atom_site_fract_x
_atom_site_fract_y
_atom_site_fract_z
Si Si1 0.976414 0.570434 0.787403
Si Si2 0.915312 0.337760 0.666114
Si Si3 0.361446 0.073211 0.539476
Si Si4 0.810527 0.856126 0.631597
Si Si5 0.750000 0.750000 0.250000
Si Si6 0.418002 0.750000 0.250000
O O1 0.918153 0.570299 0.662843
O O2 0.904622 0.602895 0.874742
O O3 0.000000 0.500000 0.818183
O O4 0.069382 0.613170 0.772913
O O5 0.912279 0.383536 0.556147
O O6 0.823000 0.294232 0.678141
O O7 0.010392 0.295644 0.679665
O O8 0.263097 0.112035 0.545008
O O9 0.351220 0.000000 0.500000
O O10 0.750000 0.864857 0.750000
O O11 0.852872 0.785875 0.654612
#
# Coordination Sequence:
#
# PCOD9326526 Si02
#       6
#    16  16  16  16   4   8
#     4  10  19  36  61  86 120 158 199 243 301 361
#     4  10  21  38  63  82 122 156 199 250 290 353
#     4  11  21  36  60  96 119 147 200 258 298 348
#     4   9  20  36  59  92 117 158 196 244 304 350
#     4  10  24  44  54  88 120 168 202 230 316 370
#     4   9  19  41  63  86 118 166 201 231 301 373
#
# _framework density 22.152864000000001
#
# number of rings (size 3 to 8) (size 9 to 14) (size 15 to 20)
#    0.000    2.105    2.105    0.947    0.000    1.684 
#   15.158    0.000    0.000    8.211    0.000    0.000 
#    0.000    0.000    0.000    0.000    0.000    0.000 
#
# Total GULP energy -105784.574186 kJ/mol
# GULP energy per Si atom -5567.609168 kJ/mol
# Density = 2.210244 g / cm^3
# Si number density = 22.152864 Si / 1000 Ang^3
#
#
#
# Elastic Constant Matrix: (Units=GPa)
#
#
# Indices 1 2 3 4 5 6 
#
# 1 95.2613 60.4161 12.9759 0.0000 0.0000 0.0000
# 2 60.4161 168.0468 17.5595 0.0000 0.0000 0.0000
# 3 12.9759 17.5595 17.8885 0.0000 0.0000 0.0000
# 4 0.0000 0.0000 0.0000 44.3715 0.0000 0.0000
# 5 0.0000 0.0000 0.0000 0.0000 20.5900 0.0000
# 6 0.0000 0.0000 0.0000 0.0000 0.0000 1.8634
#
#
#
# Elastic Compliance Matrix: (Units=1/GPa)
#
#
# Indices 1 2 3 4 5 6 
#
# 1 0.014129 -0.004467 -0.005864 0.000000 0.000000 0.000000
# 2 -0.004467 0.008043 -0.004655 0.000000 0.000000 0.000000
# 3 -0.005864 -0.004655 0.064725 0.000000 0.000000 0.000000
# 4 0.000000 0.000000 0.000000 0.022537 0.000000 0.000000
# 5 0.000000 0.000000 0.000000 0.000000 0.048567 0.000000
# 6 0.000000 0.000000 0.000000 0.000000 0.000000 0.536658
#
#
# Mechanical properties :
#
#
# Convention : Reuss Voigt Hill
#
# Bulk Modulus (GPa) = 17.56696 51.45548 34.51122
# Shear Modulus (GPa) = 6.72398 26.04799 16.38599
#
# Velocity S-wave (km/s) = 1.74409 3.43276 2.72265
# Velocity P-wave (km/s) = 3.46452 6.24417 5.04938
#
# Compressibility (1/GPa) = 0.05692504
#
# Stress axis : x y z
#
# Youngs Moduli (GPa) = 70.77522 124.33037 15.45002
#
# Poissons Ratio (x) = 0.55538 0.09060
# Poissons Ratio (y) = 0.31615 0.07192
# Poissons Ratio (z) = 0.41504 0.57875
#
# Static dielectric constant tensor:
#      x y z
#    x 0.908930 0.000000 0.000000 
#    y 0.000000 1.849860 0.000000 
#    z 0.000000 0.000000 1.936450 
# 
# From -- ./inp_files/29192.got.cif
#   From: 2010.05.17/outbox.cif.g08.bks.cpg/sg22_15_cif.got.tgz:29192.got - 2010.06.03 23:40:54.
