data_PCOD9326320
_publ_section_title
;
Structure prediction by ZEFSAII (Michael W. Deem and Ramdas Pophale) SiO2 
 PCOD9326320
Probable space group: F 2 2 2
;
_chemical_formula_sum "Si O2"
_cell_formula_units_Z 120
_cell_length_a 21.750531
_cell_length_b 18.914628
_cell_length_c 15.065263
_cell_angle_alpha 90.000000
_cell_angle_beta 90.000000
_cell_angle_gamma 90.000000
_cell_volume 6197.897447
_symmetry_space_group_name_H-M "F 2 2 2"
_symmetry_group_IT_number 22
_symmetry_cell_setting 'orthorhombic'
loop_
_space_group_symop_operation_xyz
x,y,z
-x,-y,z
x,-y,-z
-x,y,-z
x,1/2+y,1/2+z
-x,1/2-y,1/2+z
x,1/2-y,1/2-z
-x,1/2+y,1/2-z
1/2+x,y,1/2+z
1/2-x,-y,1/2+z
1/2+x,-y,1/2-z
1/2-x,y,1/2-z
1/2+x,1/2+y,z
1/2-x,1/2-y,z
1/2+x,1/2-y,-z
1/2-x,1/2+y,-z
loop_
_atom_site_type_symbol
_atom_site_label
_atom_site_fract_x
_atom_site_fract_y
_atom_site_fract_z
Si Si1 0.937935 0.038908 0.658642
Si Si2 0.055281 0.818031 0.569473
Si Si3 0.110986 0.054652 0.919410
Si Si4 0.618486 0.678343 0.042125
Si Si5 0.324520 0.485750 0.247482
Si Si6 0.991551 0.611265 0.336574
Si Si7 0.500548 0.250000 0.750000
Si Si8 0.181932 0.822879 0.784929
O O1 0.922175 0.103919 0.593600
O O2 0.875967 0.993405 0.677852
O O3 0.961629 0.070112 0.754106
O O4 0.000000 0.000000 0.624910
O O5 0.100714 0.759596 0.528596
O O6 0.000000 0.822995 0.500000
O O7 0.034482 0.784989 0.664597
O O8 0.041517 0.064951 0.886281
O O9 0.152220 0.023995 0.841031
O O10 0.130324 0.130881 0.957269
O O11 0.113537 0.000000 0.000000
O O12 0.561315 0.640863 0.096779
O O13 0.674736 0.677045 0.110059
O O14 0.250000 0.495010 0.250000
O O15 0.337224 0.400927 0.244859
O O16 0.026997 0.679953 0.295834
O O17 0.150635 0.750000 0.750000
O O18 0.250000 0.818813 0.750000
#
# Coordination Sequence:
#
# PCOD9326320 Si02
#       8
#    16  16  16  16  16  16   8  16
#     4  11  20  36  62  88 121 168 214 251 313 389
#     4  10  21  36  57  91 132 161 208 266 323 387
#     4  12  22  35  57  93 128 157 195 268 329 380
#     4  11  20  32  57  90 127 156 194 265 330 381
#     4  11  23  39  58  87 124 169 216 261 322 391
#     4  10  19  31  54  90 122 155 193 242 319 387
#     4   8  18  34  54  82 124 164 196 248 314 384
#     4  10  20  34  54  79 114 165 210 250 306 381
#
# _framework density 19.361405000000001
#
# number of rings (size 3 to 8) (size 9 to 14) (size 15 to 20)
#    0.000    1.467    4.000    2.800    3.733    1.867 
#    0.000    0.000    2.933    0.000    0.000    0.000 
#    0.000    0.000    0.000    0.000    0.000    0.000 
#
# Total GULP energy -167054.258235 kJ/mol
# GULP energy per Si atom -5568.475274 kJ/mol
# Density = 1.931734 g / cm^3
# Si number density = 19.361405 Si / 1000 Ang^3
#
#
#
# Elastic Constant Matrix: (Units=GPa)
#
#
# Indices 1 2 3 4 5 6 
#
# 1 111.7510 38.2365 41.9259 0.0000 0.0000 0.0000
# 2 38.2365 91.1432 36.6100 0.0000 0.0000 0.0000
# 3 41.9259 36.6100 65.9887 0.0000 0.0000 0.0000
# 4 0.0000 0.0000 0.0000 36.3825 0.0000 0.0000
# 5 0.0000 0.0000 0.0000 0.0000 19.6982 0.0000
# 6 0.0000 0.0000 0.0000 0.0000 0.0000 18.7882
#
#
#
# Elastic Compliance Matrix: (Units=1/GPa)
#
#
# Indices 1 2 3 4 5 6 
#
# 1 0.012203 -0.002580 -0.006322 0.000000 0.000000 0.000000
# 2 -0.002580 0.014663 -0.006496 0.000000 0.000000 0.000000
# 3 -0.006322 -0.006496 0.022774 0.000000 0.000000 0.000000
# 4 0.000000 0.000000 0.000000 0.027486 0.000000 0.000000
# 5 0.000000 0.000000 0.000000 0.000000 0.050766 0.000000
# 6 0.000000 0.000000 0.000000 0.000000 0.000000 0.053225
#
#
# Mechanical properties :
#
#
# Convention : Reuss Voigt Hill
#
# Bulk Modulus (GPa) = 53.06326 55.82531 54.44429
# Shear Modulus (GPa) = 22.91530 25.11447 24.01489
#
# Velocity S-wave (km/s) = 3.44402 3.60549 3.52568
# Velocity P-wave (km/s) = 6.57885 6.79917 6.68991
#
# Compressibility (1/GPa) = 0.01884543
#
# Stress axis : x y z
#
# Youngs Moduli (GPa) = 81.94696 68.19700 43.90881
#
# Poissons Ratio (x) = 0.17596 0.27758
# Poissons Ratio (y) = 0.21143 0.28523
# Poissons Ratio (z) = 0.51805 0.44300
#
# Static dielectric constant tensor:
#      x y z
#    x 1.684400 0.000000 0.000000 
#    y 0.000000 1.786960 0.000000 
#    z 0.000000 0.000000 1.690810 
# 
# From -- ./inp_files/31876.got.cif
#   From: 2010.05.17/outbox.cif.g08.bks.cpg/sg22_16_cif.got.tgz:31876.got - 2010.06.03 23:40:54.
