data_PCOD9326273
_publ_section_title
;
Structure prediction by ZEFSAII (Michael W. Deem and Ramdas Pophale) SiO2 
 PCOD9326273
Probable space group: F 2 2 2
;
_chemical_formula_sum "Si O2"
_cell_formula_units_Z 60
_cell_length_a 22.034300
_cell_length_b 4.929115
_cell_length_c 26.050444
_cell_angle_alpha 90.000000
_cell_angle_beta 90.000000
_cell_angle_gamma 90.000000
_cell_volume 2829.328267
_symmetry_space_group_name_H-M "F 2 2 2"
_symmetry_group_IT_number 22
_symmetry_cell_setting 'orthorhombic'
loop_
_space_group_symop_operation_xyz
x,y,z
-x,-y,z
x,-y,-z
-x,y,-z
x,1/2+y,1/2+z
-x,1/2-y,1/2+z
x,1/2-y,1/2-z
-x,1/2+y,1/2-z
1/2+x,y,1/2+z
1/2-x,-y,1/2+z
1/2+x,-y,1/2-z
1/2-x,y,1/2-z
1/2+x,1/2+y,z
1/2-x,1/2-y,z
1/2+x,1/2-y,-z
1/2-x,1/2+y,-z
loop_
_atom_site_type_symbol
_atom_site_label
_atom_site_fract_x
_atom_site_fract_y
_atom_site_fract_z
Si Si1 0.857738 0.461151 0.608581
Si Si2 0.336229 0.433435 0.674137
Si Si3 0.250000 0.750000 0.750000
Si Si4 0.204592 0.000000 0.000000
Si Si5 0.539829 0.261668 0.166783
O O1 0.849761 0.162542 0.631353
O O2 0.836348 0.473767 0.550593
O O3 0.924926 0.582393 0.620013
O O4 0.817112 0.660694 0.644387
O O5 0.292304 0.559426 0.715458
O O6 0.402203 0.355944 0.696883
O O7 0.250000 0.750000 0.005370
O O8 0.500000 0.500000 0.192086
O O9 0.500000 0.000000 0.152656
#
# Coordination Sequence:
#
# PCOD9326273 Si02
#       5
#    16  16   4   8  16
#     4  10  23  42  64 103 134 178 234 275 350 410
#     4  10  24  41  71  97 141 178 230 288 354 408
#     4  12  28  46  72 106 144 182 240 296 352 452
#     4  12  26  40  69  98 145 190 224 278 348 430
#     4  10  18  41  73  93 134 185 226 288 350 405
#
# _framework density 21.206446
#
# number of rings (size 3 to 8) (size 9 to 14) (size 15 to 20)
#    1.600    0.000    2.667    1.600    5.600    2.133 
#    0.000    0.667   11.733    0.000    0.000    0.000 
#    0.000    0.000    0.000    0.000    0.000    0.000 
#
# Total GULP energy -83698.683840 kJ/mol
# GULP energy per Si atom -5579.912256 kJ/mol
# Density = 2.115818 g / cm^3
# Si number density = 21.206446 Si / 1000 Ang^3
#
#
#
# Elastic Constant Matrix: (Units=GPa)
#
#
# Indices 1 2 3 4 5 6 
#
# 1 114.7101 25.6708 44.8880 0.0055 0.0036 -0.0055
# 2 25.6708 128.9512 24.1473 0.0287 -0.0360 -0.0130
# 3 44.8880 24.1473 109.4139 0.0069 -0.0158 0.0016
# 4 0.0055 0.0287 0.0069 21.7934 -0.0204 -0.0054
# 5 0.0036 -0.0360 -0.0158 -0.0204 -49.3309 -0.0074
# 6 -0.0055 -0.0130 0.0016 -0.0054 -0.0074 41.4232
#
#
#
# Elastic Compliance Matrix: (Units=1/GPa)
#
#
# Indices 1 2 3 4 5 6 
#
# 1 0.010606 -0.001352 -0.004053 0.000000 0.000003 0.000001
# 2 -0.001352 0.008262 -0.001268 -0.000010 -0.000006 0.000002
# 3 -0.004053 -0.001268 0.011082 -0.000001 -0.000003 -0.000001
# 4 0.000000 -0.000010 -0.000001 0.045885 -0.000019 0.000006
# 5 0.000003 -0.000006 -0.000003 -0.000019 -0.020271 -0.000004
# 6 0.000001 0.000002 -0.000001 0.000006 -0.000004 0.024141
#
#
# Mechanical properties :
#
#
# Convention : Reuss Voigt Hill
#
# Bulk Modulus (GPa) = 60.23144 60.27640 60.25392
# Shear Modulus (GPa) = 50.71658 20.00175 35.35917
#
# Velocity S-wave (km/s) = 4.89567 3.07447 4.08778
# Velocity P-wave (km/s) = 7.77308 6.41003 7.12423
#
# Compressibility (1/GPa) = 0.01660262
#
# Stress axis : x y z
#
# Youngs Moduli (GPa) = 94.28422 121.04122 90.23444
#
# Poissons Ratio (x) = 0.16371 0.36570
# Poissons Ratio (y) = 0.12752 0.11446
# Poissons Ratio (z) = 0.38212 0.15353
#
# Static dielectric constant tensor:
#      x y z
#    x 1.839630 0.000000 0.000000 
#    y 0.000000 1.753900 0.000000 
#    z 0.000000 0.000000 1.724230 
# 
# From -- ./inp_files/4391.got.cif
#   From: 2010.05.17/outbox.cif.g08.bks.cpg/sg22_3_cif.got.tgz:4391.got - 2010.06.03 23:40:54.
