data_PCOD9326603
_publ_section_title
;
Structure prediction by ZEFSAII (Michael W. Deem and Ramdas Pophale) SiO2 
 PCOD9326603
Probable space group: F 2 2 2
;
_chemical_formula_sum "Si O2"
_cell_formula_units_Z 116
_cell_length_a 28.593814
_cell_length_b 8.658794
_cell_length_c 23.879652
_cell_angle_alpha 90.000000
_cell_angle_beta 90.000000
_cell_angle_gamma 90.000000
_cell_volume 5912.313968
_symmetry_space_group_name_H-M "F 2 2 2"
_symmetry_group_IT_number 22
_symmetry_cell_setting 'orthorhombic'
loop_
_space_group_symop_operation_xyz
x,y,z
-x,-y,z
x,-y,-z
-x,y,-z
x,1/2+y,1/2+z
-x,1/2-y,1/2+z
x,1/2-y,1/2-z
-x,1/2+y,1/2-z
1/2+x,y,1/2+z
1/2-x,-y,1/2+z
1/2+x,-y,1/2-z
1/2-x,y,1/2-z
1/2+x,1/2+y,z
1/2-x,1/2-y,z
1/2+x,1/2-y,-z
1/2-x,1/2+y,-z
loop_
_atom_site_type_symbol
_atom_site_label
_atom_site_fract_x
_atom_site_fract_y
_atom_site_fract_z
Si Si1 0.750000 0.250000 0.750000
Si Si2 0.387005 0.194295 0.412411
Si Si3 0.071745 0.836259 0.477336
Si Si4 0.364772 0.501545 0.387933
Si Si5 0.123844 0.727163 0.313537
Si Si6 0.695881 0.541948 0.156458
Si Si7 0.453660 0.408170 0.893643
Si Si8 0.264761 0.070478 0.061656
O O1 0.718596 0.355950 0.792919
O O2 0.396544 0.257236 0.474855
O O3 0.396101 0.350024 0.376337
O O4 0.338941 0.136746 0.384701
O O5 0.419727 0.046556 0.411334
O O6 0.107936 0.890191 0.430552
O O7 0.038870 0.712398 0.445331
O O8 0.051632 0.000000 0.500000
O O9 0.356131 0.609913 0.335635
O O10 0.318320 0.447590 0.419644
O O11 0.111496 0.750000 0.250000
O O12 0.163925 0.597697 0.321458
O O13 0.076478 0.678400 0.346196
O O14 0.735843 0.492132 0.112389
O O15 0.500000 0.500000 0.875930
O O16 0.250000 0.250000 0.060110
O O17 0.256920 0.000000 0.000000
#
# Coordination Sequence:
#
# PCOD9326603 Si02
#       8
#     4  16  16  16  16  16  16  16
#     4  12  24  44  66  92 132 168 246 298 332 400
#     4  10  19  38  61  89 124 172 207 254 332 394
#     4   9  19  36  62  92 129 175 204 252 326 409
#     4  10  21  40  58  86 129 169 218 265 323 396
#     4  10  25  44  66  88 123 171 219 274 343 407
#     4  11  25  40  62  92 125 174 222 284 333 396
#     4  10  22  42  66  98 130 159 216 271 329 405
#     4  12  25  39  58  92 133 171 223 277 335 400
#
# _framework density 19.620066999999999
#
# number of rings (size 3 to 8) (size 9 to 14) (size 15 to 20)
#    0.000    1.655    2.069    1.655    5.793    3.310 
#    0.000    9.655    0.000    0.000    0.000    0.000 
#    0.000    0.000    0.000    0.000    0.000    0.000 
#
# Total GULP energy -161458.844010 kJ/mol
# GULP energy per Si atom -5567.546345 kJ/mol
# Density = 1.957541 g / cm^3
# Si number density = 19.620067 Si / 1000 Ang^3
#
#
#
# Elastic Constant Matrix: (Units=GPa)
#
#
# Indices 1 2 3 4 5 6 
#
# 1 54.4072 20.1079 33.0003 0.0000 0.0000 0.0000
# 2 20.1079 104.7384 52.4689 0.0000 0.0000 -0.0001
# 3 33.0003 52.4689 105.5666 0.0000 0.0000 0.0000
# 4 0.0000 0.0000 0.0000 21.3596 0.0000 0.0000
# 5 0.0000 0.0000 0.0000 0.0000 6.5045 0.0000
# 6 0.0000 -0.0001 0.0000 0.0000 0.0000 19.3850
#
#
#
# Elastic Compliance Matrix: (Units=1/GPa)
#
#
# Indices 1 2 3 4 5 6 
#
# 1 0.022770 -0.001073 -0.006585 0.000000 0.000000 0.000000
# 2 -0.001073 0.012763 -0.006008 0.000000 0.000000 0.000000
# 3 -0.006585 -0.006008 0.014517 0.000000 0.000000 0.000000
# 4 0.000000 0.000000 0.000000 0.046817 0.000000 0.000000
# 5 0.000000 0.000000 0.000000 0.000000 0.153740 0.000000
# 6 0.000000 0.000000 0.000000 0.000000 0.000000 0.051586
#
#
# Mechanical properties :
#
#
# Convention : Reuss Voigt Hill
#
# Bulk Modulus (GPa) = 44.01555 52.87403 48.44479
# Shear Modulus (GPa) = 14.83240 20.05884 17.44562
#
# Velocity S-wave (km/s) = 2.75249 3.20091 2.98513
# Velocity P-wave (km/s) = 5.70826 6.37719 6.05198
#
# Compressibility (1/GPa) = 0.02271924
#
# Stress axis : x y z
#
# Youngs Moduli (GPa) = 43.91661 78.34873 68.88282
#
# Poissons Ratio (x) = 0.08405 0.45358
# Poissons Ratio (y) = 0.04711 0.41387
# Poissons Ratio (z) = 0.28918 0.47075
#
# Static dielectric constant tensor:
#      x y z
#    x 1.749790 0.000000 0.000000 
#    y 0.000000 1.764020 0.000000 
#    z 0.000000 0.000000 1.681440 
# 
# From -- ./inp_files/50507.got.cif
#   From: 2010.05.17/outbox.cif.g08.bks.cpg/sg22_26_cif.got.tgz:50507.got - 2010.06.03 23:40:54.
