data_PCOD9326700
_publ_section_title
;
Structure prediction by ZEFSAII (Michael W. Deem and Ramdas Pophale) SiO2 
 PCOD9326700
Probable space group: F 2 2 2
;
_chemical_formula_sum "Si O2"
_cell_formula_units_Z 80
_cell_length_a 17.745196
_cell_length_b 21.090526
_cell_length_c 11.204172
_cell_angle_alpha 90.000000
_cell_angle_beta 90.000000
_cell_angle_gamma 90.000000
_cell_volume 4193.223191
_symmetry_space_group_name_H-M "F 2 2 2"
_symmetry_group_IT_number 22
_symmetry_cell_setting 'orthorhombic'
loop_
_space_group_symop_operation_xyz
x,y,z
-x,-y,z
x,-y,-z
-x,y,-z
x,1/2+y,1/2+z
-x,1/2-y,1/2+z
x,1/2-y,1/2-z
-x,1/2+y,1/2-z
1/2+x,y,1/2+z
1/2-x,-y,1/2+z
1/2+x,-y,1/2-z
1/2-x,y,1/2-z
1/2+x,1/2+y,z
1/2-x,1/2-y,z
1/2+x,1/2-y,-z
1/2-x,1/2+y,-z
loop_
_atom_site_type_symbol
_atom_site_label
_atom_site_fract_x
_atom_site_fract_y
_atom_site_fract_z
Si Si1 0.500000 0.225911 0.500000
Si Si2 0.250000 0.250000 0.543845
Si Si3 0.869690 0.795506 0.358198
Si Si4 0.590533 0.929496 0.852778
Si Si5 0.379076 0.314669 0.819930
Si Si6 0.090550 0.429926 0.136400
O O1 0.448356 0.271107 0.416561
O O2 0.556750 0.183174 0.421848
O O3 0.191566 0.212587 0.461241
O O4 0.298682 0.200836 0.621074
O O5 0.850353 0.750000 0.250000
O O6 0.875583 0.866548 0.309391
O O7 0.620783 0.873902 0.768997
O O8 0.499503 0.927835 0.845269
O O9 0.616377 0.000929 0.820718
O O10 0.605984 0.922828 0.994157
O O11 0.398154 0.250000 0.750000
#
# Coordination Sequence:
#
# PCOD9326700 Si02
#       6
#     8   8  16  16  16  16
#     4  10  20  30  54  90 112 138 188 228 274 334
#     4  10  24  36  52  80 112 148 194 228 270 330
#     4  11  20  35  57  80 111 149 186 232 275 321
#     4   9  17  31  54  84 115 140 172 226 279 325
#     4  11  20  34  55  81 113 147 182 230 278 324
#     4   9  17  30  54  87 111 136 179 223 273 335
#
# _framework density 19.078403000000002
#
# number of rings (size 3 to 8) (size 9 to 14) (size 15 to 20)
#    0.000    2.000    0.000    8.400    0.000    0.000 
#    0.000    0.000    0.000   34.800    0.000    5.600 
#    0.000    0.000    0.000    0.000    0.000    0.000 
#
# Total GULP energy -111651.930562 kJ/mol
# GULP energy per Si atom -5582.596528 kJ/mol
# Density = 1.903498 g / cm^3
# Si number density = 19.078403 Si / 1000 Ang^3
#
#
#
# Elastic Constant Matrix: (Units=GPa)
#
#
# Indices 1 2 3 4 5 6 
#
# 1 83.7915 39.2475 42.1222 0.0000 0.0000 0.0000
# 2 39.2475 194.4706 65.3940 0.0000 0.0000 0.0000
# 3 42.1222 65.3940 85.0919 0.0000 0.0000 0.0000
# 4 0.0000 0.0000 0.0000 31.9005 0.0000 0.0000
# 5 0.0000 0.0000 0.0000 0.0000 20.7598 0.0000
# 6 0.0000 0.0000 0.0000 0.0000 0.0000 1.5254
#
#
#
# Elastic Compliance Matrix: (Units=1/GPa)
#
#
# Indices 1 2 3 4 5 6 
#
# 1 0.015971 -0.000762 -0.007321 0.000000 0.000000 0.000000
# 2 -0.000762 0.006970 -0.004980 0.000000 0.000000 0.000000
# 3 -0.007321 -0.004980 0.019203 0.000000 0.000000 0.000000
# 4 0.000000 0.000000 0.000000 0.031347 0.000000 0.000000
# 5 0.000000 0.000000 0.000000 0.000000 0.048170 0.000000
# 6 0.000000 0.000000 0.000000 0.000000 0.000000 0.655557
#
#
# Mechanical properties :
#
#
# Convention : Reuss Voigt Hill
#
# Bulk Modulus (GPa) = 62.42098 72.98680 67.70389
# Shear Modulus (GPa) = 6.18288 25.27650 15.72969
#
# Velocity S-wave (km/s) = 1.80217 3.64383 2.87448
# Velocity P-wave (km/s) = 6.09258 7.48616 6.82504
#
# Compressibility (1/GPa) = 0.01602026
#
# Stress axis : x y z
#
# Youngs Moduli (GPa) = 62.61228 143.46348 52.07500
#
# Poissons Ratio (x) = 0.10925 0.38124
# Poissons Ratio (y) = 0.04768 0.25933
# Poissons Ratio (z) = 0.45838 0.71443
#
# Static dielectric constant tensor:
#      x y z
#    x 1.694610 0.000000 0.000000 
#    y 0.000000 1.677450 0.000000 
#    z 0.000000 0.000000 1.685180 
# 
# From -- ./inp_files/21340.got.cif
#   From: 2010.05.17/outbox.cif.g08.bks.cpg/sg22_11_cif.got.tgz:21340.got - 2010.06.03 23:40:54.
