data_PCOD9326131
_publ_section_title
;
Structure prediction by ZEFSAII (Michael W. Deem and Ramdas Pophale) SiO2 
 PCOD9326131
Probable space group: F 2 2 2
;
_chemical_formula_sum "Si O2"
_cell_formula_units_Z 116
_cell_length_a 14.925883
_cell_length_b 18.517011
_cell_length_c 21.606843
_cell_angle_alpha 90.000000
_cell_angle_beta 90.000000
_cell_angle_gamma 90.000000
_cell_volume 5971.758465
_symmetry_space_group_name_H-M "F 2 2 2"
_symmetry_group_IT_number 22
_symmetry_cell_setting 'orthorhombic'
loop_
_space_group_symop_operation_xyz
x,y,z
-x,-y,z
x,-y,-z
-x,y,-z
x,1/2+y,1/2+z
-x,1/2-y,1/2+z
x,1/2-y,1/2-z
-x,1/2+y,1/2-z
1/2+x,y,1/2+z
1/2-x,-y,1/2+z
1/2+x,-y,1/2-z
1/2-x,y,1/2-z
1/2+x,1/2+y,z
1/2-x,1/2-y,z
1/2+x,1/2-y,-z
1/2-x,1/2+y,-z
loop_
_atom_site_type_symbol
_atom_site_label
_atom_site_fract_x
_atom_site_fract_y
_atom_site_fract_z
Si Si1 0.211478 0.922462 0.971349
Si Si2 0.143526 0.768453 0.660262
Si Si3 0.750000 0.750000 0.750000
Si Si4 0.660407 0.701767 0.472533
Si Si5 0.615874 0.142199 0.317516
Si Si6 0.918459 0.315938 0.454274
Si Si7 0.069134 0.136818 0.239054
Si Si8 0.605093 0.484171 0.854640
O O1 0.303952 0.878752 0.964051
O O2 0.155921 0.939212 0.908304
O O3 0.155067 0.872724 0.019022
O O4 0.227398 0.000000 0.000000
O O5 0.250000 0.750000 0.662428
O O6 0.111479 0.774870 0.590101
O O7 0.115727 0.840669 0.697061
O O8 0.097557 0.702332 0.694383
O O9 0.689530 0.802556 0.707398
O O10 0.750000 0.750000 0.471989
O O11 0.609336 0.732885 0.531444
O O12 0.572930 0.171123 0.381723
O O13 0.538549 0.135159 0.265297
O O14 0.647019 0.061613 0.336985
O O15 0.000000 0.331756 0.500000
O O16 0.102357 0.064183 0.206900
O O17 0.500000 0.500000 0.872894
#
# Coordination Sequence:
#
# PCOD9326131 Si02
#       8
#    16  16   4  16  16  16  16  16
#     4  11  21  33  55  86 119 146 182 243 305 350
#     4  10  18  33  56  89 115 148 182 237 301 347
#     4  12  28  44  56  80 118 178 228 222 272 352
#     4   9  20  35  54  85 116 144 183 236 293 351
#     4  11  24  40  57  81 119 163 200 248 279 347
#     4  11  21  36  63  89 114 150 192 244 302 347
#     4  10  19  34  58  83 118 148 189 239 294 353
#     4  10  20  36  55  86 118 147 193 245 306 355
#
# _framework density 19.424765000000001
#
# number of rings (size 3 to 8) (size 9 to 14) (size 15 to 20)
#    0.000    1.655    1.379    6.621    2.897    0.000 
#    4.966    0.000    0.000    0.414    0.000    0.000 
#    0.000    0.000    0.000    0.000    0.000    0.000 
#
# Total GULP energy -161636.942095 kJ/mol
# GULP energy per Si atom -5573.687658 kJ/mol
# Density = 1.938055 g / cm^3
# Si number density = 19.424765 Si / 1000 Ang^3
#
#
#
# Elastic Constant Matrix: (Units=GPa)
#
#
# Indices 1 2 3 4 5 6 
#
# 1 24.4876 24.9380 14.4223 0.0000 0.0000 0.0000
# 2 24.9380 108.8713 23.5362 0.0000 0.0000 0.0000
# 3 14.4223 23.5362 66.6179 0.0000 0.0000 0.0000
# 4 0.0000 0.0000 0.0000 20.6669 0.0000 0.0000
# 5 0.0000 0.0000 0.0000 0.0000 5.5815 0.0000
# 6 0.0000 0.0000 0.0000 0.0000 0.0000 32.2909
#
#
#
# Elastic Compliance Matrix: (Units=1/GPa)
#
#
# Indices 1 2 3 4 5 6 
#
# 1 0.057307 -0.011308 -0.008411 0.000000 0.000000 0.000000
# 2 -0.011308 0.012176 -0.001854 0.000000 0.000000 0.000000
# 3 -0.008411 -0.001854 0.017487 0.000000 0.000000 0.000000
# 4 0.000000 0.000000 0.000000 0.048387 0.000000 0.000000
# 5 0.000000 0.000000 0.000000 0.000000 0.179163 0.000000
# 6 0.000000 0.000000 0.000000 0.000000 0.000000 0.030968
#
#
# Mechanical properties :
#
#
# Convention : Reuss Voigt Hill
#
# Bulk Modulus (GPa) = 22.81875 36.19662 29.50769
# Shear Modulus (GPa) = 12.39947 20.84654 16.62301
#
# Velocity S-wave (km/s) = 2.52927 3.27952 2.92852
# Velocity P-wave (km/s) = 4.50581 5.74587 5.16320
#
# Compressibility (1/GPa) = 0.04382362
#
# Stress axis : x y z
#
# Youngs Moduli (GPa) = 17.44976 82.12752 57.18575
#
# Poissons Ratio (x) = 0.92873 0.48101
# Poissons Ratio (y) = 0.19733 0.10600
# Poissons Ratio (z) = 0.14678 0.15224
#
# Static dielectric constant tensor:
#      x y z
#    x 1.743060 0.000000 0.000000 
#    y 0.000000 1.735760 0.000000 
#    z 0.000000 0.000000 1.702830 
# 
# From -- ./inp_files/49067.got.cif
#   From: 2010.05.17/outbox.cif.g08.bks.cpg/sg22_25_cif.got.tgz:49067.got - 2010.06.03 23:40:54.
