data_PCOD9326881
_publ_section_title
;
Structure prediction by ZEFSAII (Michael W. Deem and Ramdas Pophale) SiO2 
 PCOD9326881
Probable space group: F 2 2 2
;
_chemical_formula_sum "Si O2"
_cell_formula_units_Z 88
_cell_length_a 32.525602
_cell_length_b 5.379860
_cell_length_c 22.842997
_cell_angle_alpha 90.000000
_cell_angle_beta 90.000000
_cell_angle_gamma 90.000000
_cell_volume 3997.140374
_symmetry_space_group_name_H-M "F 2 2 2"
_symmetry_group_IT_number 22
_symmetry_cell_setting 'orthorhombic'
loop_
_space_group_symop_operation_xyz
x,y,z
-x,-y,z
x,-y,-z
-x,y,-z
x,1/2+y,1/2+z
-x,1/2-y,1/2+z
x,1/2-y,1/2-z
-x,1/2+y,1/2-z
1/2+x,y,1/2+z
1/2-x,-y,1/2+z
1/2+x,-y,1/2-z
1/2-x,y,1/2-z
1/2+x,1/2+y,z
1/2-x,1/2-y,z
1/2+x,1/2-y,-z
1/2-x,1/2+y,-z
loop_
_atom_site_type_symbol
_atom_site_label
_atom_site_fract_x
_atom_site_fract_y
_atom_site_fract_z
Si Si1 0.322246 0.250000 0.750000
Si Si2 0.634080 0.990964 0.852201
Si Si3 0.344402 0.088682 0.565728
Si Si4 0.543161 0.961980 0.869882
Si Si5 0.435807 0.445619 0.068338
Si Si6 0.206744 0.118414 0.163287
O O1 0.351920 0.212517 0.804936
O O2 0.294407 0.468238 0.776082
O O3 0.641034 0.869074 0.916847
O O4 0.586209 0.029309 0.839285
O O5 0.667916 0.196599 0.838237
O O6 0.386485 0.935673 0.581020
O O7 0.335423 0.000000 0.500000
O O8 0.304635 0.045721 0.606155
O O9 0.543135 0.182542 0.918350
O O10 0.500000 0.000000 0.837214
O O11 0.547734 0.682507 0.894992
O O12 0.440179 0.500000 0.000000
O O13 0.250000 0.250000 0.155402
#
# Coordination Sequence:
#
# PCOD9326881 Si02
#       6
#     8  16  16  16  16  16
#     4  10  24  43  68  92 130 164 220 286 339 400
#     4  10  22  41  65  90 128 173 221 273 341 396
#     4   9  20  39  61  93 136 179 217 265 332 410
#     4  11  22  37  61  91 129 172 220 277 332 397
#     4  10  20  36  60  91 131 177 222 270 324 389
#     4  11  23  42  67 100 126 169 223 279 342 406
#
# _framework density 22.015740000000001
#
# number of rings (size 3 to 8) (size 9 to 14) (size 15 to 20)
#    0.000    1.818    1.818    1.636    0.000    8.000 
#    3.273    0.000    4.000    0.000    0.000    0.000 
#    0.000    0.000    0.000    0.000    0.000    0.000 
#
# Total GULP energy -122555.787769 kJ/mol
# GULP energy per Si atom -5570.717626 kJ/mol
# Density = 2.196563 g / cm^3
# Si number density = 22.015740 Si / 1000 Ang^3
#
#
#
# Elastic Constant Matrix: (Units=GPa)
#
#
# Indices 1 2 3 4 5 6 
#
# 1 177.8827 31.4256 34.2491 -0.0026 0.0039 0.0050
# 2 31.4256 78.5571 13.0262 -0.0009 0.0103 0.0123
# 3 34.2491 13.0262 66.8710 0.0010 0.0001 0.0008
# 4 -0.0026 -0.0009 0.0010 34.7619 0.0028 0.0040
# 5 0.0039 0.0103 0.0001 0.0028 4.4699 -0.0036
# 6 0.0050 0.0123 0.0008 0.0040 -0.0036 28.5583
#
#
#
# Elastic Compliance Matrix: (Units=1/GPa)
#
#
# Indices 1 2 3 4 5 6 
#
# 1 0.006567 -0.002138 -0.002947 0.000001 -0.000001 0.000000
# 2 -0.002138 0.013851 -0.001603 0.000000 -0.000030 -0.000006
# 3 -0.002947 -0.001603 0.016776 -0.000001 0.000006 0.000001
# 4 0.000001 0.000000 -0.000001 0.028767 -0.000018 -0.000004
# 5 -0.000001 -0.000030 0.000006 -0.000018 0.223719 0.000028
# 6 0.000000 -0.000006 0.000001 -0.000004 0.000028 0.035016
#
#
# Mechanical properties :
#
#
# Convention : Reuss Voigt Hill
#
# Bulk Modulus (GPa) = 41.98634 53.41250 47.69942
# Shear Modulus (GPa) = 14.45041 29.86534 22.15787
#
# Velocity S-wave (km/s) = 2.56475 3.68713 3.17591
# Velocity P-wave (km/s) = 5.28044 6.51462 5.92972
#
# Compressibility (1/GPa) = 0.02381727
#
# Stress axis : x y z
#
# Youngs Moduli (GPa) = 152.28087 72.19803 59.61028
#
# Poissons Ratio (x) = 0.15438 0.17566
# Poissons Ratio (y) = 0.32563 0.09555
# Poissons Ratio (z) = 0.44874 0.11573
#
# Static dielectric constant tensor:
#      x y z
#    x 1.851760 0.000000 0.000000 
#    y 0.000000 2.000070 -0.000010 
#    z 0.000000 -0.000010 1.832040 
# 
# From -- ./inp_files/50650.got.cif
#   From: 2010.05.17/outbox.cif.g08.bks.cpg/sg22_26_cif.got.tgz:50650.got - 2010.06.03 23:40:54.
