data_PCOD9326567
_publ_section_title
;
Structure prediction by ZEFSAII (Michael W. Deem and Ramdas Pophale) SiO2 
 PCOD9326567
Probable space group: F 2 2 2
;
_chemical_formula_sum "Si O2"
_cell_formula_units_Z 80
_cell_length_a 16.516465
_cell_length_b 14.027890
_cell_length_c 18.102320
_cell_angle_alpha 90.000000
_cell_angle_beta 90.000000
_cell_angle_gamma 90.000000
_cell_volume 4194.147415
_symmetry_space_group_name_H-M "F 2 2 2"
_symmetry_group_IT_number 22
_symmetry_cell_setting 'orthorhombic'
loop_
_space_group_symop_operation_xyz
x,y,z
-x,-y,z
x,-y,-z
-x,y,-z
x,1/2+y,1/2+z
-x,1/2-y,1/2+z
x,1/2-y,1/2-z
-x,1/2+y,1/2-z
1/2+x,y,1/2+z
1/2-x,-y,1/2+z
1/2+x,-y,1/2-z
1/2-x,y,1/2-z
1/2+x,1/2+y,z
1/2-x,1/2-y,z
1/2+x,1/2-y,-z
1/2-x,1/2+y,-z
loop_
_atom_site_type_symbol
_atom_site_label
_atom_site_fract_x
_atom_site_fract_y
_atom_site_fract_z
Si Si1 0.241844 0.500000 0.500000
Si Si2 0.750000 0.465402 0.250000
Si Si3 0.636034 0.791605 0.166821
Si Si4 0.805993 0.345216 0.107332
Si Si5 0.193735 0.101035 0.139324
Si Si6 0.011036 0.614897 0.086580
O O1 0.291964 0.412915 0.535445
O O2 0.190838 0.536009 0.568340
O O3 0.780444 0.401756 0.181979
O O4 0.816454 0.535755 0.287931
O O5 0.640339 0.750000 0.250000
O O6 0.715552 0.854453 0.149251
O O7 0.639305 0.691702 0.123995
O O8 0.557740 0.846057 0.140845
O O9 0.750000 0.250000 0.101686
O O10 0.903037 0.339934 0.110515
O O11 0.000000 0.500000 0.090704
O O12 0.000000 0.639872 0.000000
#
# Coordination Sequence:
#
# PCOD9326567 Si02
#       6
#     8   8  16  16  16  16
#     4  10  22  36  65  93 120 164 208 262 314 385
#     4  10  19  39  62  88 130 164 211 264 315 400
#     4  11  21  35  64  91 124 164 213 269 320 385
#     4  11  24  40  66  95 129 174 218 268 329 392
#     4  10  19  37  61  94 121 160 216 261 319 386
#     4  11  24  42  64  93 131 169 222 277 327 388
#
# _framework density 19.074199
#
# number of rings (size 3 to 8) (size 9 to 14) (size 15 to 20)
#    0.000    1.400    2.000    5.700    5.600    1.600 
#    0.000    0.000    0.000    1.200    0.000    0.000 
#    0.000    0.000    0.000    0.000    0.000    0.000 
#
# Total GULP energy -111430.185672 kJ/mol
# GULP energy per Si atom -5571.509284 kJ/mol
# Density = 1.903079 g / cm^3
# Si number density = 19.074199 Si / 1000 Ang^3
#
#
#
# Elastic Constant Matrix: (Units=GPa)
#
#
# Indices 1 2 3 4 5 6 
#
# 1 76.0590 38.2637 2.8942 0.0000 0.0000 0.0000
# 2 38.2637 100.5415 31.0115 0.0000 0.0000 0.0000
# 3 2.8942 31.0115 87.9274 0.0000 0.0000 0.0000
# 4 0.0000 0.0000 0.0000 22.5205 0.0000 0.0000
# 5 0.0000 0.0000 0.0000 0.0000 15.5548 0.0000
# 6 0.0000 0.0000 0.0000 0.0000 0.0000 24.1952
#
#
#
# Elastic Compliance Matrix: (Units=1/GPa)
#
#
# Indices 1 2 3 4 5 6 
#
# 1 0.016533 -0.006872 0.001879 0.000000 0.000000 0.000000
# 2 -0.006872 0.014016 -0.004717 0.000000 0.000000 0.000000
# 3 0.001879 -0.004717 0.012975 0.000000 0.000000 0.000000
# 4 0.000000 0.000000 0.000000 0.044404 0.000000 0.000000
# 5 0.000000 0.000000 0.000000 0.000000 0.064289 0.000000
# 6 0.000000 0.000000 0.000000 0.000000 0.000000 0.041330
#
#
# Mechanical properties :
#
#
# Convention : Reuss Voigt Hill
#
# Bulk Modulus (GPa) = 41.48486 45.42961 43.45724
# Shear Modulus (GPa) = 22.62416 25.27800 23.95108
#
# Velocity S-wave (km/s) = 3.44774 3.64434 3.54740
# Velocity P-wave (km/s) = 6.13560 6.44805 6.29376
#
# Compressibility (1/GPa) = 0.02410518
#
# Stress axis : x y z
#
# Youngs Moduli (GPa) = 60.48409 71.34482 77.07171
#
# Poissons Ratio (x) = 0.49027 -0.14485
# Poissons Ratio (y) = 0.41564 0.36357
# Poissons Ratio (z) = -0.11368 0.33656
#
# Static dielectric constant tensor:
#      x y z
#    x 1.650490 0.000000 0.000000 
#    y 0.000000 1.735380 0.000000 
#    z 0.000000 0.000000 1.695820 
# 
# From -- ./inp_files/37865.got.cif
#   From: 2010.05.17/outbox.cif.g08.bks.cpg/sg22_19_cif.got.tgz:37865.got - 2010.06.03 23:40:54.
