data_PCOD9326902
_publ_section_title
;
Structure prediction by ZEFSAII (Michael W. Deem and Ramdas Pophale) SiO2 
 PCOD9326902
Probable space group: F 2 2 2
;
_chemical_formula_sum "Si O2"
_cell_formula_units_Z 108
_cell_length_a 16.008831
_cell_length_b 10.591449
_cell_length_c 31.781022
_cell_angle_alpha 90.000000
_cell_angle_beta 90.000000
_cell_angle_gamma 90.000000
_cell_volume 5388.685756
_symmetry_space_group_name_H-M "F 2 2 2"
_symmetry_group_IT_number 22
_symmetry_cell_setting 'orthorhombic'
loop_
_space_group_symop_operation_xyz
x,y,z
-x,-y,z
x,-y,-z
-x,y,-z
x,1/2+y,1/2+z
-x,1/2-y,1/2+z
x,1/2-y,1/2-z
-x,1/2+y,1/2-z
1/2+x,y,1/2+z
1/2-x,-y,1/2+z
1/2+x,-y,1/2-z
1/2-x,y,1/2-z
1/2+x,1/2+y,z
1/2-x,1/2-y,z
1/2+x,1/2-y,-z
1/2-x,1/2+y,-z
loop_
_atom_site_type_symbol
_atom_site_label
_atom_site_fract_x
_atom_site_fract_y
_atom_site_fract_z
Si Si1 0.859409 0.207348 0.321530
Si Si2 0.818989 0.643662 0.998419
Si Si3 0.597863 0.155224 0.092334
Si Si4 0.711275 0.436535 0.703227
Si Si5 0.250000 0.250000 0.750000
Si Si6 0.405020 0.642865 0.585999
Si Si7 0.250000 0.750000 0.863125
Si Si8 0.526928 0.860274 0.216895
O O1 0.851950 0.229427 0.371117
O O2 0.820745 0.296668 0.285033
O O3 0.957186 0.178017 0.316578
O O4 0.813555 0.077548 0.308924
O O5 0.750000 0.750000 0.006105
O O6 0.861524 0.669618 0.953461
O O7 0.783714 0.500000 0.000000
O O8 0.885359 0.645007 0.036320
O O9 0.499683 0.188686 0.091937
O O10 0.601120 0.003511 0.101269
O O11 0.750000 0.430422 0.750000
O O12 0.766027 0.368043 0.668145
O O13 0.621900 0.366610 0.702454
O O14 0.331196 0.718527 0.609107
O O15 0.521016 0.750000 0.250000
O O16 0.500000 0.000000 0.232496
#
# Coordination Sequence:
#
# PCOD9326902 Si02
#       8
#    16  16  16  16   4  16   8  16
#     4  11  22  38  57  81 113 162 210 251 303 359
#     4  10  21  39  64  99 125 157 199 253 310 370
#     4  10  21  37  61  88 122 161 206 246 298 381
#     4  11  22  35  54  84 121 152 200 254 310 359
#     4  12  24  40  58  74 110 158 220 256 298 348
#     4  10  20  36  62  91 122 152 201 255 306 362
#     4  12  19  32  57  88 118 151 192 257 316 352
#     4  10  21  37  57  81 114 157 202 252 308 365
#
# _framework density 20.041993000000002
#
# number of rings (size 3 to 8) (size 9 to 14) (size 15 to 20)
#    0.000    1.481    3.704    2.444    5.185    1.778 
#    0.000    0.000    0.000    1.778    0.000    0.000 
#    0.000    0.000    0.000    0.000    0.000    0.000 
#
# Total GULP energy -150451.217183 kJ/mol
# GULP energy per Si atom -5572.267303 kJ/mol
# Density = 1.999638 g / cm^3
# Si number density = 20.041993 Si / 1000 Ang^3
#
#
#
# Elastic Constant Matrix: (Units=GPa)
#
#
# Indices 1 2 3 4 5 6 
#
# 1 118.0548 24.8161 43.8006 0.0000 0.0000 0.0000
# 2 24.8161 38.3453 19.1711 0.0000 0.0000 0.0000
# 3 43.8006 19.1711 144.6907 0.0000 0.0000 0.0000
# 4 0.0000 0.0000 0.0000 16.0282 0.0000 0.0000
# 5 0.0000 0.0000 0.0000 0.0000 20.1894 0.0000
# 6 0.0000 0.0000 0.0000 0.0000 0.0000 26.7312
#
#
#
# Elastic Compliance Matrix: (Units=1/GPa)
#
#
# Indices 1 2 3 4 5 6 
#
# 1 0.010560 -0.005607 -0.002454 0.000000 0.000000 0.000000
# 2 -0.005607 0.030906 -0.002398 0.000000 0.000000 0.000000
# 3 -0.002454 -0.002398 0.007972 0.000000 0.000000 0.000000
# 4 0.000000 0.000000 0.000000 0.062390 0.000000 0.000000
# 5 0.000000 0.000000 0.000000 0.000000 0.049531 0.000000
# 6 0.000000 0.000000 0.000000 0.000000 0.000000 0.037409
#
#
# Mechanical properties :
#
#
# Convention : Reuss Voigt Hill
#
# Bulk Modulus (GPa) = 35.06213 52.96293 44.01253
# Shear Modulus (GPa) = 21.81576 26.80996 24.31286
#
# Velocity S-wave (km/s) = 3.30283 3.66141 3.48673
# Velocity P-wave (km/s) = 5.66367 6.66017 6.18204
#
# Compressibility (1/GPa) = 0.02852080
#
# Stress axis : x y z
#
# Youngs Moduli (GPa) = 94.69977 32.35584 125.44310
#
# Poissons Ratio (x) = 0.18143 0.30780
# Poissons Ratio (y) = 0.53100 0.30076
# Poissons Ratio (z) = 0.23236 0.07758
#
# Static dielectric constant tensor:
#      x y z
#    x 1.765750 0.000000 0.000000 
#    y 0.000000 1.849470 0.000000 
#    z 0.000000 0.000000 1.781940 
# 
# From -- ./inp_files/56511.got.cif
#   From: 2010.05.17/outbox.cif.g08.bks.cpg/sg22_29_cif.got.tgz:56511.got - 2010.06.03 23:40:54.
