data_PCOD9326585
_publ_section_title
;
Structure prediction by ZEFSAII (Michael W. Deem and Ramdas Pophale) SiO2 
 PCOD9326585
Probable space group: F 2 2 2
;
_chemical_formula_sum "Si O2"
_cell_formula_units_Z 116
_cell_length_a 18.110528
_cell_length_b 10.637051
_cell_length_c 28.816516
_cell_angle_alpha 90.000000
_cell_angle_beta 90.000000
_cell_angle_gamma 90.000000
_cell_volume 5551.288853
_symmetry_space_group_name_H-M "F 2 2 2"
_symmetry_group_IT_number 22
_symmetry_cell_setting 'orthorhombic'
loop_
_space_group_symop_operation_xyz
x,y,z
-x,-y,z
x,-y,-z
-x,y,-z
x,1/2+y,1/2+z
-x,1/2-y,1/2+z
x,1/2-y,1/2-z
-x,1/2+y,1/2-z
1/2+x,y,1/2+z
1/2-x,-y,1/2+z
1/2+x,-y,1/2-z
1/2-x,y,1/2-z
1/2+x,1/2+y,z
1/2-x,1/2-y,z
1/2+x,1/2-y,-z
1/2-x,1/2+y,-z
loop_
_atom_site_type_symbol
_atom_site_label
_atom_site_fract_x
_atom_site_fract_y
_atom_site_fract_z
Si Si1 0.787998 0.010388 0.798720
Si Si2 0.500000 0.000000 0.000000
Si Si3 0.810871 0.640638 0.864335
Si Si4 0.506380 0.853651 0.383018
Si Si5 0.306186 0.132616 0.478717
Si Si6 0.399266 0.703773 0.450864
Si Si7 0.670881 0.822225 0.376696
Si Si8 0.089456 0.295728 0.700656
O O1 0.750000 0.042904 0.750000
O O2 0.833385 0.114377 0.826225
O O3 0.727730 0.974836 0.838463
O O4 0.842757 0.892697 0.791053
O O5 0.446631 0.907808 0.027982
O O6 0.750000 0.750000 0.863528
O O7 0.837676 0.639287 0.917370
O O8 0.876041 0.683435 0.830033
O O9 0.450691 0.781514 0.416344
O O10 0.585173 0.780980 0.383666
O O11 0.473345 0.852859 0.331288
O O12 0.500000 0.000000 0.397756
O O13 0.250000 0.250000 0.477673
O O14 0.369671 0.197402 0.510525
O O15 0.323316 0.100232 0.425008
O O16 0.281209 0.000000 0.500000
O O17 0.750000 0.750000 0.375626
O O18 0.062339 0.250000 0.750000
#
# Coordination Sequence:
#
# PCOD9326585 Si02
#       8
#    16   4  16  16  16  16  16  16
#     4  11  21  38  67  96 136 176 225 292 357 427
#     4  12  28  44  66  92 140 204 242 302 364 436
#     4   9  20  34  63  99 127 161 216 288 353 414
#     4  11  22  44  72  98 140 184 242 304 364 448
#     4  11  26  44  73 111 146 193 245 305 377 453
#     4  11  25  43  68  99 140 187 243 295 368 434
#     4  11  26  45  64  96 143 190 238 298 362 441
#     4  10  19  37  65  99 126 166 222 292 354 415
#
# _framework density 20.896048
#
# number of rings (size 3 to 8) (size 9 to 14) (size 15 to 20)
#    0.000    1.379    2.759    2.069    6.759    2.483 
#    2.483    1.379    6.069    0.000    0.000    0.000 
#    0.000    0.000    0.000    0.000    0.000    0.000 
#
# Total GULP energy -161501.124224 kJ/mol
# GULP energy per Si atom -5569.004284 kJ/mol
# Density = 2.084849 g / cm^3
# Si number density = 20.896048 Si / 1000 Ang^3
#
#
#
# Elastic Constant Matrix: (Units=GPa)
#
#
# Indices 1 2 3 4 5 6 
#
# 1 72.1106 10.3539 20.5584 0.0000 0.0000 0.0000
# 2 10.3539 64.6333 32.7420 0.0000 0.0000 0.0000
# 3 20.5584 32.7420 139.3271 0.0000 0.0000 0.0000
# 4 0.0000 0.0000 0.0000 20.3555 0.0000 0.0000
# 5 0.0000 0.0000 0.0000 0.0000 11.0284 0.0000
# 6 0.0000 0.0000 0.0000 0.0000 0.0000 20.6998
#
#
#
# Elastic Compliance Matrix: (Units=1/GPa)
#
#
# Indices 1 2 3 4 5 6 
#
# 1 0.014590 -0.001415 -0.001820 0.000000 0.000000 0.000000
# 2 -0.001415 0.017700 -0.003951 0.000000 0.000000 0.000000
# 3 -0.001820 -0.003951 0.008374 0.000000 0.000000 0.000000
# 4 0.000000 0.000000 0.000000 0.049127 0.000000 0.000000
# 5 0.000000 0.000000 0.000000 0.000000 0.090675 0.000000
# 6 0.000000 0.000000 0.000000 0.000000 0.000000 0.048310
#
#
# Mechanical properties :
#
#
# Convention : Reuss Voigt Hill
#
# Bulk Modulus (GPa) = 38.03447 44.81998 41.42722
# Shear Modulus (GPa) = 19.84825 24.57785 22.21305
#
# Velocity S-wave (km/s) = 3.08532 3.43329 3.26395
# Velocity P-wave (km/s) = 5.56179 6.10018 5.83720
#
# Compressibility (1/GPa) = 0.02629194
#
# Stress axis : x y z
#
# Youngs Moduli (GPa) = 68.54144 56.49734 119.41216
#
# Poissons Ratio (x) = 0.07995 0.21736
# Poissons Ratio (y) = 0.09699 0.47176
# Poissons Ratio (z) = 0.12476 0.22320
#
# Static dielectric constant tensor:
#      x y z
#    x 1.848340 0.000000 0.000000 
#    y 0.000000 1.746790 0.000000 
#    z 0.000000 0.000000 1.747030 
# 
# From -- ./inp_files/53651.got.cif
#   From: 2010.05.17/outbox.cif.g08.bks.cpg/sg22_27_cif.got.tgz:53651.got - 2010.06.03 23:40:54.
