data_PCOD9326685
_publ_section_title
;
Structure prediction by ZEFSAII (Michael W. Deem and Ramdas Pophale) SiO2 
 PCOD9326685
Probable space group: F 2 2 2
;
_chemical_formula_sum "Si O2"
_cell_formula_units_Z 60
_cell_length_a 21.922327
_cell_length_b 8.953563
_cell_length_c 14.741998
_cell_angle_alpha 90.000000
_cell_angle_beta 90.000000
_cell_angle_gamma 90.000000
_cell_volume 2893.602648
_symmetry_space_group_name_H-M "F 2 2 2"
_symmetry_group_IT_number 22
_symmetry_cell_setting 'orthorhombic'
loop_
_space_group_symop_operation_xyz
x,y,z
-x,-y,z
x,-y,-z
-x,y,-z
x,1/2+y,1/2+z
-x,1/2-y,1/2+z
x,1/2-y,1/2-z
-x,1/2+y,1/2-z
1/2+x,y,1/2+z
1/2-x,-y,1/2+z
1/2+x,-y,1/2-z
1/2-x,y,1/2-z
1/2+x,1/2+y,z
1/2-x,1/2-y,z
1/2+x,1/2-y,-z
1/2-x,1/2+y,-z
loop_
_atom_site_type_symbol
_atom_site_label
_atom_site_fract_x
_atom_site_fract_y
_atom_site_fract_z
Si Si1 0.630975 0.616758 0.075095
Si Si2 0.932827 0.571995 0.090392
Si Si3 0.250000 0.750000 0.604241
Si Si4 0.331004 0.483697 0.278211
Si Si5 0.250000 0.250000 0.750000
O O1 0.581246 0.749953 0.086736
O O2 0.696556 0.681303 0.043022
O O3 0.653189 0.549877 0.172797
O O4 0.609325 0.500000 0.000000
O O5 0.896008 0.515712 0.175658
O O6 0.000000 0.500000 0.094956
O O7 0.904397 0.500000 0.000000
O O8 0.289152 0.639115 0.669704
O O9 0.295438 0.635621 0.297755
#
# Coordination Sequence:
#
# PCOD9326685 Si02
#       5
#    16  16   8  16   4
#     4  11  23  40  66  98 133 172 217 269 330 387
#     4  10  24  47  69  92 128 172 226 274 326 383
#     4  10  19  41  65  92 141 178 207 267 331 394
#     4  11  23  43  66  98 139 173 213 269 329 389
#     4  12  24  36  70 104 144 160 228 256 326 402
#
# _framework density 20.735396999999999
#
# number of rings (size 3 to 8) (size 9 to 14) (size 15 to 20)
#    0.000    1.333    2.667    4.000    3.733    5.333 
#    4.800    2.667    0.000    0.000    0.000    0.000 
#    0.000    0.000    0.000    0.000    0.000    0.000 
#
# Total GULP energy -83511.038928 kJ/mol
# GULP energy per Si atom -5567.402595 kJ/mol
# Density = 2.068820 g / cm^3
# Si number density = 20.735397 Si / 1000 Ang^3
#
#
#
# Elastic Constant Matrix: (Units=GPa)
#
#
# Indices 1 2 3 4 5 6 
#
# 1 116.1362 57.5257 33.2988 0.0000 0.0000 0.0000
# 2 57.5257 133.6175 36.9452 0.0000 0.0000 0.0000
# 3 33.2988 36.9452 65.1295 0.0000 0.0000 0.0000
# 4 0.0000 0.0000 0.0000 -34.2487 0.0000 0.0000
# 5 0.0000 0.0000 0.0000 0.0000 13.7565 0.0000
# 6 0.0000 0.0000 0.0000 0.0000 0.0000 -135.9383
#
#
#
# Elastic Compliance Matrix: (Units=1/GPa)
#
#
# Indices 1 2 3 4 5 6 
#
# 1 0.011647 -0.003994 -0.003689 0.000000 0.000000 0.000000
# 2 -0.003994 0.010246 -0.003770 0.000000 0.000000 0.000000
# 3 -0.003689 -0.003770 0.019379 0.000000 0.000000 0.000000
# 4 0.000000 0.000000 0.000000 -0.029198 0.000000 0.000000
# 5 0.000000 0.000000 0.000000 0.000000 0.072693 0.000000
# 6 0.000000 0.000000 0.000000 0.000000 0.000000 -0.007356
#
#
# Mechanical properties :
#
#
# Convention : Reuss Voigt Hill
#
# Bulk Modulus (GPa) = 54.45096 63.38029 58.91563
# Shear Modulus (GPa) = 46.97573 -18.81188 14.08193
#
# Velocity S-wave (km/s) = 4.76487 -3.01530 2.60883
# Velocity P-wave (km/s) = 7.52256 4.30231 6.12776
#
# Compressibility (1/GPa) = 0.01836515
#
# Stress axis : x y z
#
# Youngs Moduli (GPa) = 85.86097 97.59822 51.60328
#
# Poissons Ratio (x) = 0.38983 0.19036
# Poissons Ratio (y) = 0.34295 0.19455
# Poissons Ratio (z) = 0.31673 0.36795
#
# Static dielectric constant tensor:
#      x y z
#    x 1.789970 0.000000 0.000000 
#    y 0.000000 1.861730 0.000000 
#    z 0.000000 0.000000 2.196270 
# 
# From -- ./inp_files/32081.got.cif
#   From: 2010.05.17/outbox.cif.g08.bks.cpg/sg22_17_cif.got.tgz:32081.got - 2010.06.03 23:40:54.
