data_PCOD9326485
_publ_section_title
;
Structure prediction by ZEFSAII (Michael W. Deem and Ramdas Pophale) SiO2 
 PCOD9326485
Probable space group: F 2 2 2
;
_chemical_formula_sum "Si O2"
_cell_formula_units_Z 88
_cell_length_a 19.763906
_cell_length_b 14.977977
_cell_length_c 14.781421
_cell_angle_alpha 90.000000
_cell_angle_beta 90.000000
_cell_angle_gamma 90.000000
_cell_volume 4375.645459
_symmetry_space_group_name_H-M "F 2 2 2"
_symmetry_group_IT_number 22
_symmetry_cell_setting 'orthorhombic'
loop_
_space_group_symop_operation_xyz
x,y,z
-x,-y,z
x,-y,-z
-x,y,-z
x,1/2+y,1/2+z
-x,1/2-y,1/2+z
x,1/2-y,1/2-z
-x,1/2+y,1/2-z
1/2+x,y,1/2+z
1/2-x,-y,1/2+z
1/2+x,-y,1/2-z
1/2-x,y,1/2-z
1/2+x,1/2+y,z
1/2-x,1/2-y,z
1/2+x,1/2-y,-z
1/2-x,1/2+y,-z
loop_
_atom_site_type_symbol
_atom_site_label
_atom_site_fract_x
_atom_site_fract_y
_atom_site_fract_z
Si Si1 0.953160 0.914939 0.791698
Si Si2 0.750000 0.999722 0.750000
Si Si3 0.367886 0.069536 0.870337
Si Si4 0.453069 0.696068 0.910817
Si Si5 0.850020 0.965914 0.096660
Si Si6 0.425717 0.111883 0.047946
O O1 0.916391 0.884362 0.701671
O O2 0.998817 0.838830 0.832453
O O3 0.899442 0.956045 0.863677
O O4 0.000000 0.000000 0.770018
O O5 0.797621 0.050915 0.821513
O O6 0.702014 0.943801 0.817846
O O7 0.400678 0.972246 0.893885
O O8 0.372051 0.119109 0.965473
O O9 0.394459 0.622286 0.919937
O O10 0.427650 0.796349 0.898258
O O11 0.500000 0.695829 0.000000
O O12 0.821635 0.000000 0.000000
O O13 0.500000 0.098881 0.000000
#
# Coordination Sequence:
#
# PCOD9326485 Si02
#       6
#    16   8  16  16  16  16
#     4   9  17  31  59  86 119 148 195 246 307 359
#     4  10  24  38  63  89 108 174 222 234 294 367
#     4  10  20  40  59  87 119 170 208 245 291 372
#     4  10  19  35  60  96 120 151 194 255 323 361
#     4  10  19  35  62  86 122 157 200 252 300 362
#     4  10  21  37  64  91 126 157 200 249 327 370
#
# _framework density 20.111318000000001
#
# number of rings (size 3 to 8) (size 9 to 14) (size 15 to 20)
#    0.000    2.182    1.818    2.182    2.545    0.000 
#    0.000   24.545    0.000    1.091    0.000    0.000 
#    0.000    0.000    0.000    0.000    0.000    0.000 
#
# Total GULP energy -122734.137530 kJ/mol
# GULP energy per Si atom -5578.824433 kJ/mol
# Density = 2.006554 g / cm^3
# Si number density = 20.111318 Si / 1000 Ang^3
#
#
#
# Elastic Constant Matrix: (Units=GPa)
#
#
# Indices 1 2 3 4 5 6 
#
# 1 70.6006 15.5718 30.2161 0.0000 0.0000 0.0000
# 2 15.5718 84.9812 2.4654 0.0000 0.0000 0.0000
# 3 30.2161 2.4654 54.3360 0.0000 0.0000 0.0000
# 4 0.0000 0.0000 0.0000 6.7929 0.0000 0.0000
# 5 0.0000 0.0000 0.0000 0.0000 46.6344 0.0000
# 6 0.0000 0.0000 0.0000 0.0000 0.0000 -6.9983
#
#
#
# Elastic Compliance Matrix: (Units=1/GPa)
#
#
# Indices 1 2 3 4 5 6 
#
# 1 0.019447 -0.003254 -0.010667 0.000000 0.000000 0.000000
# 2 -0.003254 0.012327 0.001250 0.000000 0.000000 0.000000
# 3 -0.010667 0.001250 0.024279 0.000000 0.000000 0.000000
# 4 0.000000 0.000000 0.000000 0.147213 0.000000 0.000000
# 5 0.000000 0.000000 0.000000 0.000000 0.021443 0.000000
# 6 0.000000 0.000000 0.000000 0.000000 0.000000 -0.142891
#
#
# Mechanical properties :
#
#
# Convention : Reuss Voigt Hill
#
# Bulk Modulus (GPa) = 32.56034 34.04717 33.30376
# Shear Modulus (GPa) = 42.59053 20.06343 31.32698
#
# Velocity S-wave (km/s) = 4.60688 3.16194 3.95103
# Velocity P-wave (km/s) = 6.67256 5.50423 6.11636
#
# Compressibility (1/GPa) = 0.03071221
#
# Stress axis : x y z
#
# Youngs Moduli (GPa) = 51.42132 81.12077 41.18769
#
# Poissons Ratio (x) = 0.26397 0.43934
# Poissons Ratio (y) = 0.16733 -0.05149
# Poissons Ratio (z) = 0.54851 -0.10142
#
# Static dielectric constant tensor:
#      x y z
#    x 1.758490 0.000000 0.000000 
#    y 0.000000 1.689900 0.000000 
#    z 0.000000 0.000000 1.756530 
# 
# From -- ./inp_files/31422.got.cif
#   From: 2010.05.17/outbox.cif.g08.bks.cpg/sg22_16_cif.got.tgz:31422.got - 2010.06.03 23:40:54.
