data_PCOD9326849
_publ_section_title
;
Structure prediction by ZEFSAII (Michael W. Deem and Ramdas Pophale) SiO2 
 PCOD9326849
Probable space group: F 2 2 2
;
_chemical_formula_sum "Si O2"
_cell_formula_units_Z 92
_cell_length_a 28.197068
_cell_length_b 20.654675
_cell_length_c 8.320018
_cell_angle_alpha 90.000000
_cell_angle_beta 90.000000
_cell_angle_gamma 90.000000
_cell_volume 4845.589095
_symmetry_space_group_name_H-M "F 2 2 2"
_symmetry_group_IT_number 22
_symmetry_cell_setting 'orthorhombic'
loop_
_space_group_symop_operation_xyz
x,y,z
-x,-y,z
x,-y,-z
-x,y,-z
x,1/2+y,1/2+z
-x,1/2-y,1/2+z
x,1/2-y,1/2-z
-x,1/2+y,1/2-z
1/2+x,y,1/2+z
1/2-x,-y,1/2+z
1/2+x,-y,1/2-z
1/2-x,y,1/2-z
1/2+x,1/2+y,z
1/2-x,1/2-y,z
1/2+x,1/2-y,-z
1/2-x,1/2+y,-z
loop_
_atom_site_type_symbol
_atom_site_label
_atom_site_fract_x
_atom_site_fract_y
_atom_site_fract_z
Si Si1 0.551546 0.576346 0.545775
Si Si2 0.895874 0.965125 0.839738
Si Si3 0.360510 0.407493 0.334921
Si Si4 0.324883 0.250000 0.750000
Si Si5 0.278373 0.654061 0.494421
Si Si6 0.165235 0.145023 0.993307
Si Si7 0.750000 0.750000 0.250000
O O1 0.550656 0.500000 0.500000
O O2 0.500000 0.602865 0.500000
O O3 0.565802 0.572869 0.732586
O O4 0.593788 0.608731 0.443901
O O5 0.856827 0.914648 0.897285
O O6 0.870793 0.020620 0.732847
O O7 0.915782 0.000000 0.000000
O O8 0.314334 0.401422 0.448922
O O9 0.353412 0.363767 0.175467
O O10 0.295532 0.306988 0.661407
O O11 0.348769 0.210378 0.603522
O O12 0.222600 0.638277 0.493086
O O13 0.281560 0.706931 0.635580
#
# Coordination Sequence:
#
# PCOD9326849 Si02
#       7
#    16  16  16   8  16  16   4
#     4   9  18  36  58  81 110 147 187 235 287 343
#     4   9  20  37  56  84 118 146 188 226 285 353
#     4  10  20  36  56  81 116 151 183 231 289 345
#     4  12  23  34  54  78 111 151 202 240 270 318
#     4  12  20  35  54  81 116 151 190 237 273 331
#     4  11  20  35  52  81 117 152 190 235 274 337
#     4  12  20  34  56  80 118 148 208 226 272 334
#
# _framework density 18.986340999999999
#
# number of rings (size 3 to 8) (size 9 to 14) (size 15 to 20)
#    0.000    1.565    3.478    2.087    0.000    0.000 
#    0.000   40.000    0.000    0.000    0.000   24.348 
#    0.000    0.000    0.000    0.000    0.000    0.000 
#
# Total GULP energy -128127.307798 kJ/mol
# GULP energy per Si atom -5570.752513 kJ/mol
# Density = 1.894313 g / cm^3
# Si number density = 18.986341 Si / 1000 Ang^3
#
#
#
# Elastic Constant Matrix: (Units=GPa)
#
#
# Indices 1 2 3 4 5 6 
#
# 1 104.3161 26.4465 61.4558 0.0000 0.0000 0.0000
# 2 26.4465 37.4525 37.5559 0.0002 -0.0001 -0.0001
# 3 61.4558 37.5559 128.9022 0.0006 -0.0002 -0.0005
# 4 0.0000 0.0002 0.0006 36.0496 -0.0001 -0.0002
# 5 0.0000 -0.0001 -0.0002 -0.0001 19.0542 0.0000
# 6 0.0000 -0.0001 -0.0005 -0.0002 0.0000 -8.6008
#
#
#
# Elastic Compliance Matrix: (Units=1/GPa)
#
#
# Indices 1 2 3 4 5 6 
#
# 1 0.013838 -0.004458 -0.005299 0.000000 0.000000 0.000000
# 2 -0.004458 0.039157 -0.009283 0.000000 0.000000 0.000000
# 3 -0.005299 -0.009283 0.012989 0.000000 0.000000 -0.000001
# 4 0.000000 0.000000 0.000000 0.027740 0.000000 -0.000001
# 5 0.000000 0.000000 0.000000 0.000000 0.052482 0.000000
# 6 0.000000 0.000000 -0.000001 -0.000001 0.000000 -0.116268
#
#
# Mechanical properties :
#
#
# Convention : Reuss Voigt Hill
#
# Bulk Modulus (GPa) = 35.83691 57.95413 46.89552
# Shear Modulus (GPa) = 64.66766 18.98143 41.82454
#
# Velocity S-wave (km/s) = 5.84243 3.16530 4.69857
# Velocity P-wave (km/s) = 8.02671 6.62942 7.36130
#
# Compressibility (1/GPa) = 0.02790419
#
# Stress axis : x y z
#
# Youngs Moduli (GPa) = 72.26438 25.53805 76.99076
#
# Poissons Ratio (x) = 0.11386 0.40794
# Poissons Ratio (y) = 0.32218 0.71470
# Poissons Ratio (z) = 0.38290 0.23707
#
# Static dielectric constant tensor:
#      x y z
#    x 1.663260 0.000000 0.000000 
#    y 0.000000 1.681610 0.000000 
#    z 0.000000 0.000000 1.765000 
# 
# From -- ./inp_files/14905.got.cif
#   From: 2010.05.17/outbox.cif.g08.bks.cpg/sg22_8_cif.got.tgz:14905.got - 2010.06.03 23:40:54.
