data_PCOD9326838
_publ_section_title
;
Structure prediction by ZEFSAII (Michael W. Deem and Ramdas Pophale) SiO2 
 PCOD9326838
Probable space group: F 2 2 2
;
_chemical_formula_sum "Si O2"
_cell_formula_units_Z 80
_cell_length_a 26.215728
_cell_length_b 8.847064
_cell_length_c 17.289070
_cell_angle_alpha 90.000000
_cell_angle_beta 90.000000
_cell_angle_gamma 90.000000
_cell_volume 4009.892446
_symmetry_space_group_name_H-M "F 2 2 2"
_symmetry_group_IT_number 22
_symmetry_cell_setting 'orthorhombic'
loop_
_space_group_symop_operation_xyz
x,y,z
-x,-y,z
x,-y,-z
-x,y,-z
x,1/2+y,1/2+z
-x,1/2-y,1/2+z
x,1/2-y,1/2-z
-x,1/2+y,1/2-z
1/2+x,y,1/2+z
1/2-x,-y,1/2+z
1/2+x,-y,1/2-z
1/2-x,y,1/2-z
1/2+x,1/2+y,z
1/2-x,1/2-y,z
1/2+x,1/2-y,-z
1/2-x,1/2+y,-z
loop_
_atom_site_type_symbol
_atom_site_label
_atom_site_fract_x
_atom_site_fract_y
_atom_site_fract_z
Si Si1 0.400970 0.605220 0.581032
Si Si2 0.197709 0.180645 0.083910
Si Si3 0.401845 0.809245 0.163444
Si Si4 0.200014 0.340336 0.600843
Si Si5 0.503156 0.170997 0.591536
O O1 0.404457 0.500000 0.500000
O O2 0.349771 0.704996 0.585503
O O3 0.400404 0.487326 0.650956
O O4 0.447291 0.721632 0.597256
O O5 0.250000 0.250000 0.115117
O O6 0.192277 0.016026 0.122641
O O7 0.205023 0.157750 0.991854
O O8 0.402147 0.750000 0.250000
O O9 0.351347 0.745403 0.122783
O O10 0.453224 0.753729 0.122371
O O11 0.250000 0.250000 0.631058
O O12 0.500000 0.153520 0.500000
O O13 0.500000 0.000000 0.625248
#
# Coordination Sequence:
#
# PCOD9326838 Si02
#       5
#    16  16  16  16  16
#     4  12  22  40  68  97 131 175 230 280 340 410
#     4  10  20  35  66 100 126 168 228 285 328 390
#     4  12  26  41  62  96 135 176 225 281 350 406
#     4  10  20  38  63  94 136 172 220 282 341 399
#     4  11  23  41  67  94 127 170 227 283 337 404
#
# _framework density 19.950659000000002
#
# number of rings (size 3 to 8) (size 9 to 14) (size 15 to 20)
#    0.000    1.000    4.000    3.000    2.800    5.200 
#    0.000    3.000    0.000    1.200    0.000    0.000 
#    0.000    0.000    0.000    0.000    0.000    0.000 
#
# Total GULP energy -111478.960939 kJ/mol
# GULP energy per Si atom -5573.948047 kJ/mol
# Density = 1.990525 g / cm^3
# Si number density = 19.950659 Si / 1000 Ang^3
#
#
#
# Elastic Constant Matrix: (Units=GPa)
#
#
# Indices 1 2 3 4 5 6 
#
# 1 190.6051 104.2702 7.0743 0.0000 0.0000 0.0000
# 2 104.2702 199.4782 21.4466 0.0000 0.0000 0.0000
# 3 7.0743 21.4466 33.7516 0.0000 0.0000 0.0000
# 4 0.0000 0.0000 0.0000 22.6522 0.0000 0.0000
# 5 0.0000 0.0000 0.0000 0.0000 -2.0391 0.0000
# 6 0.0000 0.0000 0.0000 0.0000 0.0000 27.6358
#
#
#
# Elastic Compliance Matrix: (Units=1/GPa)
#
#
# Indices 1 2 3 4 5 6 
#
# 1 0.007377 -0.003960 0.000970 0.000000 0.000000 0.000000
# 2 -0.003960 0.007507 -0.003940 0.000000 0.000000 0.000000
# 3 0.000970 -0.003940 0.031928 0.000000 0.000000 0.000000
# 4 0.000000 0.000000 0.000000 0.044146 0.000000 0.000000
# 5 0.000000 0.000000 0.000000 0.000000 -0.490417 0.000000
# 6 0.000000 0.000000 0.000000 0.000000 0.000000 0.036185
#
#
# Mechanical properties :
#
#
# Convention : Reuss Voigt Hill
#
# Bulk Modulus (GPa) = 30.34700 76.60188 53.47444
# Shear Modulus (GPa) = -14.77408 29.05272 7.13932
#
# Velocity S-wave (km/s) = -2.72422 3.82020 1.89374
# Velocity P-wave (km/s) = 2.31276 7.61167 5.62523
#
# Compressibility (1/GPa) = 0.03295218
#
# Stress axis : x y z
#
# Youngs Moduli (GPa) = 135.55750 133.21240 31.32012
#
# Poissons Ratio (x) = 0.52757 -0.03039
# Poissons Ratio (y) = 0.53686 0.12340
# Poissons Ratio (z) = -0.13153 0.52485
#
# Static dielectric constant tensor:
#      x y z
#    x 1.606470 0.000000 0.000000 
#    y 0.000000 1.802630 0.000000 
#    z 0.000000 0.000000 1.702350 
# 
# From -- ./inp_files/39871.got.cif
#   From: 2010.05.17/outbox.cif.g08.bks.cpg/sg22_20_cif.got.tgz:39871.got - 2010.06.03 23:40:54.
