data_PCOD9326502
_publ_section_title
;
Structure prediction by ZEFSAII (Michael W. Deem and Ramdas Pophale) SiO2 
 PCOD9326502
Probable space group: F 2 2 2
;
_chemical_formula_sum "Si O2"
_cell_formula_units_Z 112
_cell_length_a 11.379446
_cell_length_b 28.326958
_cell_length_c 20.174877
_cell_angle_alpha 90.000000
_cell_angle_beta 90.000000
_cell_angle_gamma 90.000000
_cell_volume 6503.272520
_symmetry_space_group_name_H-M "F 2 2 2"
_symmetry_group_IT_number 22
_symmetry_cell_setting 'orthorhombic'
loop_
_space_group_symop_operation_xyz
x,y,z
-x,-y,z
x,-y,-z
-x,y,-z
x,1/2+y,1/2+z
-x,1/2-y,1/2+z
x,1/2-y,1/2-z
-x,1/2+y,1/2-z
1/2+x,y,1/2+z
1/2-x,-y,1/2+z
1/2+x,-y,1/2-z
1/2-x,y,1/2-z
1/2+x,1/2+y,z
1/2-x,1/2-y,z
1/2+x,1/2-y,-z
1/2-x,1/2+y,-z
loop_
_atom_site_type_symbol
_atom_site_label
_atom_site_fract_x
_atom_site_fract_y
_atom_site_fract_z
Si Si1 0.519852 0.744633 0.325890
Si Si2 0.141409 0.332709 0.666996
Si Si3 0.622631 0.770636 0.463406
Si Si4 0.584183 0.355262 0.311418
Si Si5 0.002479 0.552347 0.886842
Si Si6 0.117395 0.626850 0.476436
Si Si7 0.188463 0.551594 0.995357
O O1 0.563733 0.750000 0.250000
O O2 0.403337 0.778337 0.330705
O O3 0.602626 0.761235 0.385558
O O4 0.489541 0.689835 0.335626
O O5 0.280775 0.341793 0.671391
O O6 0.082842 0.356088 0.731560
O O7 0.102968 0.355714 0.598546
O O8 0.500000 0.753609 0.500000
O O9 0.750000 0.750000 0.484983
O O10 0.629334 0.825830 0.480142
O O11 0.537777 0.403836 0.342252
O O12 0.910873 0.549562 0.947816
O O13 0.000000 0.500000 0.854609
O O14 0.126755 0.559364 0.924186
O O15 0.227082 0.593740 0.486457
O O16 0.000000 0.601265 0.500000
O O17 0.246775 0.500000 0.000000
#
# Coordination Sequence:
#
# PCOD9326502 Si02
#       7
#    16  16  16  16  16  16  16
#     4  10  21  38  56  83 118 156 200 235 286 352
#     4  10  19  36  53  86 117 154 191 237 289 348
#     4  11  25  38  57  86 119 155 192 244 289 350
#     4  10  20  32  62  83 112 157 195 236 294 354
#     4   9  18  35  58  87 114 139 188 253 289 335
#     4  11  21  37  58  77 120 148 183 239 291 343
#     4   9  19  35  58  85 111 144 189 239 296 345
#
# _framework density 17.222100000000001
#
# number of rings (size 3 to 8) (size 9 to 14) (size 15 to 20)
#    0.000    2.000    4.286    1.286    4.000    2.286 
#    0.000    0.000    3.143    0.857    0.000    0.000 
#    0.000    0.000    0.000    0.000    0.000    0.000 
#
# Total GULP energy -155949.905662 kJ/mol
# GULP energy per Si atom -5569.639488 kJ/mol
# Density = 1.718290 g / cm^3
# Si number density = 17.222100 Si / 1000 Ang^3
#
#
#
# Elastic Constant Matrix: (Units=GPa)
#
#
# Indices 1 2 3 4 5 6 
#
# 1 63.8014 33.6614 19.5205 0.0000 0.0000 0.0000
# 2 33.6614 120.9180 47.7296 0.0000 0.0000 0.0000
# 3 19.5205 47.7296 94.7348 0.0000 0.0000 0.0000
# 4 0.0000 0.0000 0.0000 17.4893 0.0000 0.0000
# 5 0.0000 0.0000 0.0000 0.0000 19.4444 0.0000
# 6 0.0000 0.0000 0.0000 0.0000 0.0000 26.8421
#
#
#
# Elastic Compliance Matrix: (Units=1/GPa)
#
#
# Indices 1 2 3 4 5 6 
#
# 1 0.018546 -0.004562 -0.001523 0.000000 0.000000 0.000000
# 2 -0.004562 0.011445 -0.004826 0.000000 0.000000 0.000000
# 3 -0.001523 -0.004826 0.013301 0.000000 0.000000 0.000000
# 4 0.000000 0.000000 0.000000 0.057178 0.000000 0.000000
# 5 0.000000 0.000000 0.000000 0.000000 0.051429 0.000000
# 6 0.000000 0.000000 0.000000 0.000000 0.000000 0.037255
#
#
# Mechanical properties :
#
#
# Convention : Reuss Voigt Hill
#
# Bulk Modulus (GPa) = 46.57630 53.47523 50.02576
# Shear Modulus (GPa) = 22.92175 24.65802 23.78989
#
# Velocity S-wave (km/s) = 3.65218 3.78797 3.72069
# Velocity P-wave (km/s) = 6.69983 7.08868 6.89700
#
# Compressibility (1/GPa) = 0.02147015
#
# Stress axis : x y z
#
# Youngs Moduli (GPa) = 53.91869 87.37404 75.18084
#
# Poissons Ratio (x) = 0.39858 0.11452
# Poissons Ratio (y) = 0.24596 0.36285
# Poissons Ratio (z) = 0.08213 0.42169
#
# Static dielectric constant tensor:
#      x y z
#    x 1.630450 0.000000 0.000000 
#    y 0.000000 1.571530 0.000000 
#    z 0.000000 0.000000 1.592780 
# 
# From -- ./inp_files/23082.got.cif
#   From: 2010.05.17/outbox.cif.g08.bks.cpg/sg22_12_cif.got.tgz:23082.got - 2010.06.03 23:40:54.
