data_PCOD9326405
_publ_section_title
;
Structure prediction by ZEFSAII (Michael W. Deem and Ramdas Pophale) SiO2 
 PCOD9326405
Probable space group: F 2 2 2
;
_chemical_formula_sum "Si O2"
_cell_formula_units_Z 88
_cell_length_a 25.692264
_cell_length_b 28.510848
_cell_length_c 5.804079
_cell_angle_alpha 90.000000
_cell_angle_beta 90.000000
_cell_angle_gamma 90.000000
_cell_volume 4251.535656
_symmetry_space_group_name_H-M "F 2 2 2"
_symmetry_group_IT_number 22
_symmetry_cell_setting 'orthorhombic'
loop_
_space_group_symop_operation_xyz
x,y,z
-x,-y,z
x,-y,-z
-x,y,-z
x,1/2+y,1/2+z
-x,1/2-y,1/2+z
x,1/2-y,1/2-z
-x,1/2+y,1/2-z
1/2+x,y,1/2+z
1/2-x,-y,1/2+z
1/2+x,-y,1/2-z
1/2-x,y,1/2-z
1/2+x,1/2+y,z
1/2-x,1/2-y,z
1/2+x,1/2-y,-z
1/2-x,1/2+y,-z
loop_
_atom_site_type_symbol
_atom_site_label
_atom_site_fract_x
_atom_site_fract_y
_atom_site_fract_z
Si Si1 0.204953 0.455644 0.618484
Si Si2 0.891093 0.677478 0.529020
Si Si3 0.368889 0.000000 0.000000
Si Si4 0.500000 0.724319 0.000000
Si Si5 0.141430 0.405585 0.225894
Si Si6 0.322398 0.250000 0.250000
Si Si7 0.301810 0.667071 0.407714
O O1 0.232639 0.500000 0.500000
O O2 0.250000 0.429387 0.750000
O O3 0.163422 0.477899 0.790009
O O4 0.176907 0.426124 0.428300
O O5 0.892879 0.633295 0.354843
O O6 0.859480 0.718343 0.404694
O O7 0.854229 0.669302 0.750306
O O8 0.949251 0.694529 0.570151
O O9 0.388881 0.950126 0.888978
O O10 0.487390 0.750000 0.750000
O O11 0.182156 0.377888 0.062876
O O12 0.295588 0.287795 0.421976
O O13 0.250000 0.666863 0.250000
#
# Coordination Sequence:
#
# PCOD9326405 Si02
#       7
#    16  16   8   8  16   8  16
#     4  10  19  34  54  85 122 175 233 285 341 407
#     4  11  24  43  68 102 135 174 233 293 364 430
#     4  10  20  36  58  86 127 180 228 283 354 414
#     4  12  26  48  82 112 139 181 240 316 382 434
#     4  10  24  39  59  94 135 185 232 291 353 431
#     4  10  22  43  64  90 126 178 227 276 348 414
#     4  11  25  43  62  94 139 187 236 284 348 440
#
# _framework density 20.698402999999999
#
# number of rings (size 3 to 8) (size 9 to 14) (size 15 to 20)
#    0.000    1.455    1.818    2.727    2.545    9.455 
#    3.273    2.727    0.000    0.000    0.000   26.091 
#    0.000    0.000    0.000    0.000    0.000    0.000 
#
# Total GULP energy -122588.006962 kJ/mol
# GULP energy per Si atom -5572.182135 kJ/mol
# Density = 2.065129 g / cm^3
# Si number density = 20.698403 Si / 1000 Ang^3
#
#
#
# Elastic Constant Matrix: (Units=GPa)
#
#
# Indices 1 2 3 4 5 6 
#
# 1 92.4361 20.1395 36.0243 -0.0001 0.0148 0.0764
# 2 20.1395 127.4561 41.5428 0.0256 0.0019 -0.0310
# 3 36.0243 41.5428 113.0120 0.0054 0.0064 -0.1197
# 4 -0.0001 0.0256 0.0054 54.3137 -0.0090 -0.1125
# 5 0.0148 0.0019 0.0064 -0.0090 20.2241 -0.0418
# 6 0.0764 -0.0310 -0.1197 -0.1125 -0.0418 45.7825
#
#
#
# Elastic Compliance Matrix: (Units=1/GPa)
#
#
# Indices 1 2 3 4 5 6 
#
# 1 0.012418 -0.000763 -0.003678 0.000001 -0.000008 -0.000031
# 2 -0.000763 0.008961 -0.003051 -0.000004 0.000001 -0.000001
# 3 -0.003678 -0.003051 0.011142 0.000000 0.000000 0.000033
# 4 0.000001 -0.000004 0.000000 0.018412 0.000008 0.000045
# 5 -0.000008 0.000001 0.000000 0.000008 0.049446 0.000045
# 6 -0.000031 -0.000001 0.000033 0.000045 0.000045 0.021843
#
#
# Mechanical properties :
#
#
# Convention : Reuss Voigt Hill
#
# Bulk Modulus (GPa) = 57.02083 58.70193 57.86138
# Shear Modulus (GPa) = 34.95257 39.74390 37.34824
#
# Velocity S-wave (km/s) = 4.11379 4.38670 4.25243
# Velocity P-wave (km/s) = 7.08326 7.35389 7.21984
#
# Compressibility (1/GPa) = 0.01753745
#
# Stress axis : x y z
#
# Youngs Moduli (GPa) = 80.52855 111.59744 89.74729
#
# Poissons Ratio (x) = 0.08520 0.33007
# Poissons Ratio (y) = 0.06148 0.27378
# Poissons Ratio (z) = 0.29617 0.34044
#
# Static dielectric constant tensor:
#      x y z
#    x 1.698670 0.000030 0.000170 
#    y 0.000030 1.876920 -0.000540 
#    z 0.000170 -0.000540 1.327650 
# 
# From -- ./inp_files/4913.got.cif
#   From: 2010.05.17/outbox.cif.g08.bks.cpg/sg22_3_cif.got.tgz:4913.got - 2010.06.03 23:40:54.
