data_PCOD9326504
_publ_section_title
;
Structure prediction by ZEFSAII (Michael W. Deem and Ramdas Pophale) SiO2 
 PCOD9326504
Probable space group: F 2 2 2
;
_chemical_formula_sum "Si O2"
_cell_formula_units_Z 120
_cell_length_a 26.984301
_cell_length_b 7.465645
_cell_length_c 29.173340
_cell_angle_alpha 90.000000
_cell_angle_beta 90.000000
_cell_angle_gamma 90.000000
_cell_volume 5877.121390
_symmetry_space_group_name_H-M "F 2 2 2"
_symmetry_group_IT_number 22
_symmetry_cell_setting 'orthorhombic'
loop_
_space_group_symop_operation_xyz
x,y,z
-x,-y,z
x,-y,-z
-x,y,-z
x,1/2+y,1/2+z
-x,1/2-y,1/2+z
x,1/2-y,1/2-z
-x,1/2+y,1/2-z
1/2+x,y,1/2+z
1/2-x,-y,1/2+z
1/2+x,-y,1/2-z
1/2-x,y,1/2-z
1/2+x,1/2+y,z
1/2-x,1/2-y,z
1/2+x,1/2-y,-z
1/2-x,1/2+y,-z
loop_
_atom_site_type_symbol
_atom_site_label
_atom_site_fract_x
_atom_site_fract_y
_atom_site_fract_z
Si Si1 0.901460 0.533816 0.447769
Si Si2 0.878227 0.500000 0.000000
Si Si3 0.444512 0.923442 0.919004
Si Si4 0.806508 0.774224 0.042179
Si Si5 0.057101 0.956291 0.234652
Si Si6 0.693932 0.772555 0.351971
Si Si7 0.611238 0.990018 0.174773
Si Si8 0.878873 0.400342 0.351540
O O1 0.919229 0.500000 0.500000
O O2 0.930117 0.718122 0.433115
O O3 0.840846 0.550495 0.452512
O O4 0.904439 0.411682 0.402003
O O5 0.912097 0.467669 0.043923
O O6 0.841732 0.661151 0.009861
O O7 0.500000 0.000000 0.922338
O O8 0.424626 0.946240 0.867809
O O9 0.750000 0.750000 0.026416
O O10 0.806549 0.706497 0.094774
O O11 0.060718 0.750000 0.250000
O O12 0.082730 0.047205 0.278117
O O13 0.084841 0.983397 0.186828
O O14 0.000000 0.000000 0.229847
O O15 0.750000 0.750000 0.335800
O O16 0.657875 0.639487 0.326172
O O17 0.669824 0.971537 0.351058
O O18 0.628209 0.195649 0.164962
#
# Coordination Sequence:
#
# PCOD9326504 Si02
#       8
#    16   8  16  16  16  16  16  16
#     4  10  22  40  64  91 136 169 216 275 324 394
#     4  10  19  36  54  84 120 160 215 258 308 382
#     4  11  23  41  65  89 129 176 226 269 331 400
#     4   9  19  35  58  88 124 162 214 266 319 383
#     4  10  24  41  68 101 127 169 224 277 334 390
#     4  10  21  43  67  96 133 173 214 270 334 401
#     4  11  22  42  68  98 132 172 221 277 330 398
#     4  10  23  42  65  98 137 167 216 280 327 392
#
# _framework density 20.418157999999998
#
# number of rings (size 3 to 8) (size 9 to 14) (size 15 to 20)
#    0.000    1.867    4.000    0.600    6.533    2.667 
#    0.000    1.333    5.867    2.400    0.000    0.000 
#    0.000    0.000    0.000    0.000    0.000    0.000 
#
# Total GULP energy -167114.850729 kJ/mol
# GULP energy per Si atom -5570.495024 kJ/mol
# Density = 2.037169 g / cm^3
# Si number density = 20.418158 Si / 1000 Ang^3
#
#
#
# Elastic Constant Matrix: (Units=GPa)
#
#
# Indices 1 2 3 4 5 6 
#
# 1 130.4945 25.4240 38.7152 0.0000 0.0002 -0.0005
# 2 25.4240 65.3261 16.3526 0.0003 0.0002 -0.0010
# 3 38.7152 16.3526 125.7165 0.0000 -0.0001 -0.0001
# 4 0.0000 0.0003 0.0000 32.8102 -0.0003 -0.0001
# 5 0.0002 0.0002 -0.0001 -0.0003 20.7314 -0.0001
# 6 -0.0005 -0.0010 -0.0001 -0.0001 -0.0001 14.3802
#
#
#
# Elastic Compliance Matrix: (Units=1/GPa)
#
#
# Indices 1 2 3 4 5 6 
#
# 1 0.008929 -0.002881 -0.002375 0.000000 0.000000 0.000000
# 2 -0.002881 0.016752 -0.001292 0.000000 0.000000 0.000001
# 3 -0.002375 -0.001292 0.008854 0.000000 0.000000 0.000000
# 4 0.000000 0.000000 0.000000 0.030478 0.000000 0.000000
# 5 0.000000 0.000000 0.000000 0.000000 0.048236 0.000000
# 6 0.000000 0.000001 0.000000 0.000000 0.000000 0.069540
#
#
# Mechanical properties :
#
#
# Convention : Reuss Voigt Hill
#
# Bulk Modulus (GPa) = 46.64167 53.61339 50.12753
# Shear Modulus (GPa) = 24.62675 29.65405 27.14040
#
# Velocity S-wave (km/s) = 3.47669 3.81509 3.64981
# Velocity P-wave (km/s) = 6.24575 6.76175 6.50886
#
# Compressibility (1/GPa) = 0.02144005
#
# Stress axis : x y z
#
# Youngs Moduli (GPa) = 111.99470 59.69337 112.94494
#
# Poissons Ratio (x) = 0.17195 0.26825
# Poissons Ratio (y) = 0.32260 0.14592
# Poissons Ratio (z) = 0.26599 0.07712
#
# Static dielectric constant tensor:
#      x y z
#    x 1.709580 0.000000 0.000000 
#    y 0.000000 1.781830 0.000000 
#    z 0.000000 0.000000 1.755240 
# 
# From -- ./inp_files/54388.got.cif
#   From: 2010.05.17/outbox.cif.g08.bks.cpg/sg22_28_cif.got.tgz:54388.got - 2010.06.03 23:40:54.
