data_PCOD9326744
_publ_section_title
;
Structure prediction by ZEFSAII (Michael W. Deem and Ramdas Pophale) SiO2 
 PCOD9326744
Probable space group: F 2 2 2
;
_chemical_formula_sum "Si O2"
_cell_formula_units_Z 100
_cell_length_a 23.774564
_cell_length_b 28.305114
_cell_length_c 7.652201
_cell_angle_alpha 90.000000
_cell_angle_beta 90.000000
_cell_angle_gamma 90.000000
_cell_volume 5149.485489
_symmetry_space_group_name_H-M "F 2 2 2"
_symmetry_group_IT_number 22
_symmetry_cell_setting 'orthorhombic'
loop_
_space_group_symop_operation_xyz
x,y,z
-x,-y,z
x,-y,-z
-x,y,-z
x,1/2+y,1/2+z
-x,1/2-y,1/2+z
x,1/2-y,1/2-z
-x,1/2+y,1/2-z
1/2+x,y,1/2+z
1/2-x,-y,1/2+z
1/2+x,-y,1/2-z
1/2-x,y,1/2-z
1/2+x,1/2+y,z
1/2-x,1/2-y,z
1/2+x,1/2-y,-z
1/2-x,1/2+y,-z
loop_
_atom_site_type_symbol
_atom_site_label
_atom_site_fract_x
_atom_site_fract_y
_atom_site_fract_z
Si Si1 0.719734 0.621235 0.564609
Si Si2 0.885392 0.444414 0.977553
Si Si3 0.681624 0.166244 0.592205
Si Si4 0.140683 0.805696 0.286267
Si Si5 0.250000 0.750000 0.750000
Si Si6 0.576589 0.111378 0.661757
Si Si7 0.948926 0.618847 0.747459
O O1 0.750000 0.610911 0.750000
O O2 0.673151 0.582608 0.518669
O O3 0.769284 0.627572 0.425411
O O4 0.686497 0.672094 0.579939
O O5 0.905026 0.432589 0.780448
O O6 0.880636 0.500000 0.000000
O O7 0.929377 0.421067 0.115655
O O8 0.662425 0.173763 0.395325
O O9 0.708925 0.214896 0.648989
O O10 0.626495 0.149172 0.693025
O O11 0.136821 0.750000 0.250000
O O12 0.081933 0.833106 0.310993
O O13 0.515476 0.126098 0.731758
O O14 0.570826 0.105229 0.451416
#
# Coordination Sequence:
#
# PCOD9326744 Si02
#       7
#    16  16  16  16   4  16  16
#     4   9  19  38  58  82 120 154 194 248 299 357
#     4  11  23  40  63  92 113 152 204 249 306 365
#     4  10  20  33  53  79 119 157 193 244 295 352
#     4   9  17  33  59  84 112 157 204 237 293 350
#     4  12  20  28  46  84 116 148 204 246 278 352
#     4  10  21  40  61  82 119 164 194 245 307 354
#     4   9  21  40  61  85 122 157 196 250 300 354
#
# _framework density 19.419415000000001
#
# number of rings (size 3 to 8) (size 9 to 14) (size 15 to 20)
#    0.000    2.240    0.000    3.360    0.000    5.440 
#    4.320    1.600   10.560    0.000    0.000    0.000 
#    0.000    0.000    0.000    0.000    0.000    0.000 
#
# Total GULP energy -139321.223009 kJ/mol
# GULP energy per Si atom -5572.848920 kJ/mol
# Density = 1.937522 g / cm^3
# Si number density = 19.419415 Si / 1000 Ang^3
#
#
#
# Elastic Constant Matrix: (Units=GPa)
#
#
# Indices 1 2 3 4 5 6 
#
# 1 150.3307 66.4753 40.9227 -0.0027 0.0030 -0.0382
# 2 66.4753 113.1578 13.4306 -0.0040 0.0010 -0.0087
# 3 40.9227 13.4306 52.1693 -0.0051 0.0136 -0.0439
# 4 -0.0027 -0.0040 -0.0051 2.3315 -0.0016 0.0699
# 5 0.0030 0.0010 0.0136 -0.0016 4.5719 0.0301
# 6 -0.0382 -0.0087 -0.0439 0.0699 0.0301 -50.6477
#
#
#
# Elastic Compliance Matrix: (Units=1/GPa)
#
#
# Indices 1 2 3 4 5 6 
#
# 1 0.011148 -0.005685 -0.007281 -0.000013 0.000016 -0.000001
# 2 -0.005685 0.012015 0.001366 0.000017 -0.000003 0.000001
# 3 -0.007281 0.001366 0.024528 0.000048 -0.000068 -0.000016
# 4 -0.000013 0.000017 0.000048 0.428898 0.000145 0.000592
# 5 0.000016 -0.000003 -0.000068 0.000145 0.218725 0.000130
# 6 -0.000001 0.000001 -0.000016 0.000592 0.000130 -0.019743
#
#
# Mechanical properties :
#
#
# Convention : Reuss Voigt Hill
#
# Bulk Modulus (GPa) = 40.83101 61.92388 51.37744
# Shear Modulus (GPa) = 7.07281 4.23977 5.65629
#
# Velocity S-wave (km/s) = 1.91051 1.47919 1.70851
# Velocity P-wave (km/s) = 5.09296 5.90544 5.51418
#
# Compressibility (1/GPa) = 0.02449119
#
# Stress axis : x y z
#
# Youngs Moduli (GPa) = 89.70424 83.23245 40.76955
#
# Poissons Ratio (x) = 0.47315 0.29685
# Poissons Ratio (y) = 0.50994 -0.05570
# Poissons Ratio (z) = 0.65314 -0.11370
#
# Static dielectric constant tensor:
#      x y z
#    x 1.796660 0.000000 -0.000240 
#    y 0.000000 1.650510 -0.000020 
#    z -0.000240 -0.000020 1.851940 
# 
# From -- ./inp_files/12961.got.cif
#   From: 2010.05.17/outbox.cif.g08.bks.cpg/sg22_7_cif.got.tgz:12961.got - 2010.06.03 23:40:54.
