data_PCOD9326299
_publ_section_title
;
Structure prediction by ZEFSAII (Michael W. Deem and Ramdas Pophale) SiO2 
 PCOD9326299
Probable space group: F 2 2 2
;
_chemical_formula_sum "Si O2"
_cell_formula_units_Z 72
_cell_length_a 7.388535
_cell_length_b 31.850948
_cell_length_c 15.386987
_cell_angle_alpha 90.000000
_cell_angle_beta 90.000000
_cell_angle_gamma 90.000000
_cell_volume 3621.048026
_symmetry_space_group_name_H-M "F 2 2 2"
_symmetry_group_IT_number 22
_symmetry_cell_setting 'orthorhombic'
loop_
_space_group_symop_operation_xyz
x,y,z
-x,-y,z
x,-y,-z
-x,y,-z
x,1/2+y,1/2+z
-x,1/2-y,1/2+z
x,1/2-y,1/2-z
-x,1/2+y,1/2-z
1/2+x,y,1/2+z
1/2-x,-y,1/2+z
1/2+x,-y,1/2-z
1/2-x,y,1/2-z
1/2+x,1/2+y,z
1/2-x,1/2-y,z
1/2+x,1/2-y,-z
1/2-x,1/2+y,-z
loop_
_atom_site_type_symbol
_atom_site_label
_atom_site_fract_x
_atom_site_fract_y
_atom_site_fract_z
Si Si1 0.500000 0.289925 0.000000
Si Si2 0.250000 0.107526 0.750000
Si Si3 0.000000 0.580958 0.000000
Si Si4 0.960821 0.734597 0.843110
Si Si5 0.427120 0.452756 0.312124
Si Si6 0.707498 0.845112 0.910312
O O1 0.549749 0.260566 0.919739
O O2 0.332179 0.318201 0.972483
O O3 0.416923 0.078944 0.779580
O O4 0.185877 0.137908 0.826989
O O5 0.142356 0.613495 0.040894
O O6 0.914966 0.555954 0.082772
O O7 0.031159 0.750000 0.750000
O O8 0.750000 0.750000 0.843689
O O9 0.947730 0.685624 0.870298
O O10 0.500000 0.500000 0.301225
O O11 0.250000 0.447484 0.250000
#
# Coordination Sequence:
#
# PCOD9326299 Si02
#       6
#     8   8   8  16  16  16
#     4  10  19  30  58  83 117 160 221 261 316 394
#     4  10  22  40  65  96 124 172 210 274 337 400
#     4  10  24  40  62  93 134 168 210 279 342 388
#     4   9  17  32  53  79 114 164 210 260 317 380
#     4  11  23  44  70  96 134 172 219 271 341 419
#     4  10  20  36  57  86 125 160 213 269 328 385
#
# _framework density 19.883748000000001
#
# number of rings (size 3 to 8) (size 9 to 14) (size 15 to 20)
#    0.000    2.000    1.111    3.667    3.111    0.000 
#    0.000    0.000    0.000    8.667    0.000    0.000 
#    0.000    0.000    0.000    0.000    0.000    0.000 
#
# Total GULP energy -100331.212566 kJ/mol
# GULP energy per Si atom -5573.956254 kJ/mol
# Density = 1.983849 g / cm^3
# Si number density = 19.883748 Si / 1000 Ang^3
#
#
#
# Elastic Constant Matrix: (Units=GPa)
#
#
# Indices 1 2 3 4 5 6 
#
# 1 66.0461 27.1526 53.3106 0.0000 0.0000 0.0000
# 2 27.1526 96.9452 58.4515 0.0000 0.0000 0.0000
# 3 53.3106 58.4515 183.0394 0.0000 0.0000 0.0000
# 4 0.0000 0.0000 0.0000 29.7938 0.0000 0.0000
# 5 0.0000 0.0000 0.0000 0.0000 24.8195 0.0000
# 6 0.0000 0.0000 0.0000 0.0000 0.0000 48.2741
#
#
#
# Elastic Compliance Matrix: (Units=1/GPa)
#
#
# Indices 1 2 3 4 5 6 
#
# 1 0.020322 -0.002629 -0.005079 0.000000 0.000000 0.000000
# 2 -0.002629 0.013115 -0.003422 0.000000 0.000000 0.000000
# 3 -0.005079 -0.003422 0.008035 0.000000 0.000000 0.000000
# 4 0.000000 0.000000 0.000000 0.033564 0.000000 0.000000
# 5 0.000000 0.000000 0.000000 0.000000 0.040291 0.000000
# 6 0.000000 0.000000 0.000000 0.000000 0.000000 0.020715
#
#
# Mechanical properties :
#
#
# Convention : Reuss Voigt Hill
#
# Bulk Modulus (GPa) = 52.05468 69.31777 60.68623
# Shear Modulus (GPa) = 30.35696 34.38522 32.37109
#
# Velocity S-wave (km/s) = 3.91157 4.16301 4.03925
# Velocity P-wave (km/s) = 6.82912 7.61871 7.23469
#
# Compressibility (1/GPa) = 0.01921057
#
# Stress axis : x y z
#
# Youngs Moduli (GPa) = 49.20874 76.24875 124.44842
#
# Poissons Ratio (x) = 0.20049 0.63208
# Poissons Ratio (y) = 0.12939 0.42590
# Poissons Ratio (z) = 0.24993 0.26095
#
# Static dielectric constant tensor:
#      x y z
#    x 1.744940 0.000000 0.000000 
#    y 0.000000 1.697730 0.000000 
#    z 0.000000 0.000000 1.699070 
# 
# From -- ./inp_files/10296.got.cif
#   From: 2010.05.17/outbox.cif.g08.bks.cpg/sg22_6_cif.got.tgz:10296.got - 2010.06.03 23:40:54.
