data_PCOD9326616
_publ_section_title
;
Structure prediction by ZEFSAII (Michael W. Deem and Ramdas Pophale) SiO2 
 PCOD9326616
Probable space group: F 2 2 2
;
_chemical_formula_sum "Si O2"
_cell_formula_units_Z 104
_cell_length_a 13.603869
_cell_length_b 17.968364
_cell_length_c 18.436430
_cell_angle_alpha 90.000000
_cell_angle_beta 90.000000
_cell_angle_gamma 90.000000
_cell_volume 4506.587491
_symmetry_space_group_name_H-M "F 2 2 2"
_symmetry_group_IT_number 22
_symmetry_cell_setting 'orthorhombic'
loop_
_space_group_symop_operation_xyz
x,y,z
-x,-y,z
x,-y,-z
-x,y,-z
x,1/2+y,1/2+z
-x,1/2-y,1/2+z
x,1/2-y,1/2-z
-x,1/2+y,1/2-z
1/2+x,y,1/2+z
1/2-x,-y,1/2+z
1/2+x,-y,1/2-z
1/2-x,y,1/2-z
1/2+x,1/2+y,z
1/2-x,1/2-y,z
1/2+x,1/2-y,-z
1/2-x,1/2+y,-z
loop_
_atom_site_type_symbol
_atom_site_label
_atom_site_fract_x
_atom_site_fract_y
_atom_site_fract_z
Si Si1 0.186726 0.600261 0.319415
Si Si2 0.154441 0.891816 0.437787
Si Si3 0.605351 0.304158 0.817926
Si Si4 0.131199 0.546909 0.750924
Si Si5 0.500000 0.500000 0.383341
Si Si6 0.702740 0.170502 0.538981
Si Si7 0.417899 0.223820 0.591071
O O1 0.250000 0.621124 0.250000
O O2 0.265704 0.578976 0.380393
O O3 0.122593 0.528996 0.296127
O O4 0.133865 0.672967 0.348763
O O5 0.216749 0.888525 0.511838
O O6 0.124273 0.806813 0.417492
O O7 0.057757 0.939963 0.430477
O O8 0.627798 0.250000 0.750000
O O9 0.576165 0.382223 0.782293
O O10 0.686979 0.330826 0.875473
O O11 0.526572 0.269633 0.874489
O O12 0.250000 0.560498 0.750000
O O13 0.081595 0.534408 0.828821
O O14 0.750000 0.250000 0.525586
O O15 0.609067 0.177086 0.483226
#
# Coordination Sequence:
#
# PCOD9326616 Si02
#       7
#    16  16  16  16   8  16  16
#     4  10  19  38  64  98 149 189 228 305 372 426
#     4  10  21  40  69 102 138 191 241 301 370 449
#     4  12  26  40  69 103 139 186 244 307 384 459
#     4  11  24  40  62 104 146 188 232 311 370 442
#     4  12  20  42  70 103 149 180 248 302 372 438
#     4   9  22  45  68  94 142 186 237 302 371 446
#     4  10  22  41  68 108 137 186 245 301 365 446
#
# _framework density 23.077328999999999
#
# number of rings (size 3 to 8) (size 9 to 14) (size 15 to 20)
#    0.000    1.538    3.077    3.692    4.308    0.615 
#    0.000    3.077    0.000    4.615    0.000    0.000 
#    0.000    0.000    0.000    0.000    0.000    0.000 
#
# Total GULP energy -145023.503279 kJ/mol
# GULP energy per Si atom -5577.827049 kJ/mol
# Density = 2.302480 g / cm^3
# Si number density = 23.077329 Si / 1000 Ang^3
#
#
#
# Elastic Constant Matrix: (Units=GPa)
#
#
# Indices 1 2 3 4 5 6 
#
# 1 83.1162 35.0594 55.5121 0.0000 0.0000 0.0000
# 2 35.0594 114.9163 66.6926 0.0000 0.0000 0.0000
# 3 55.5121 66.6926 162.2252 0.0000 0.0000 0.0000
# 4 0.0000 0.0000 0.0000 -0.8426 0.0000 0.0000
# 5 0.0000 0.0000 0.0000 0.0000 31.9994 0.0000
# 6 0.0000 0.0000 0.0000 0.0000 0.0000 60.7431
#
#
#
# Elastic Compliance Matrix: (Units=1/GPa)
#
#
# Indices 1 2 3 4 5 6 
#
# 1 0.016023 -0.002241 -0.004562 0.000000 0.000000 0.000000
# 2 -0.002241 0.011742 -0.004060 0.000000 0.000000 0.000000
# 3 -0.004562 -0.004060 0.009395 0.000000 0.000000 0.000000
# 4 0.000000 0.000000 0.000000 -1.186795 0.000000 0.000000
# 5 0.000000 0.000000 0.000000 0.000000 0.031251 0.000000
# 6 0.000000 0.000000 0.000000 0.000000 0.000000 0.016463
#
#
# Mechanical properties :
#
#
# Convention : Reuss Voigt Hill
#
# Bulk Modulus (GPa) = 64.79373 74.97620 69.88496
# Shear Modulus (GPa) = -4.65095 31.91291 13.63098
#
# Velocity S-wave (km/s) = -1.42118 3.72273 2.43300
# Velocity P-wave (km/s) = 5.04428 7.14408 6.18396
#
# Compressibility (1/GPa) = 0.01543359
#
# Stress axis : x y z
#
# Youngs Moduli (GPa) = 62.40885 85.16256 106.44454
#
# Poissons Ratio (x) = 0.19086 0.48557
# Poissons Ratio (y) = 0.13986 0.43222
# Poissons Ratio (z) = 0.28469 0.34580
#
# Static dielectric constant tensor:
#      x y z
#    x 2.073360 0.000000 0.000000 
#    y 0.000000 1.834440 0.000000 
#    z 0.000000 0.000000 1.555510 
# 
# From -- ./inp_files/37283.got.cif
#   From: 2010.05.17/outbox.cif.g08.bks.cpg/sg22_19_cif.got.tgz:37283.got - 2010.06.03 23:40:54.
