data_PCOD9326856
_publ_section_title
;
Structure prediction by ZEFSAII (Michael W. Deem and Ramdas Pophale) SiO2 
 PCOD9326856
Probable space group: F 2 2 2
;
_chemical_formula_sum "Si O2"
_cell_formula_units_Z 92
_cell_length_a 29.484496
_cell_length_b 8.462320
_cell_length_c 19.878786
_cell_angle_alpha 90.000000
_cell_angle_beta 90.000000
_cell_angle_gamma 90.000000
_cell_volume 4959.901033
_symmetry_space_group_name_H-M "F 2 2 2"
_symmetry_group_IT_number 22
_symmetry_cell_setting 'orthorhombic'
loop_
_space_group_symop_operation_xyz
x,y,z
-x,-y,z
x,-y,-z
-x,y,-z
x,1/2+y,1/2+z
-x,1/2-y,1/2+z
x,1/2-y,1/2-z
-x,1/2+y,1/2-z
1/2+x,y,1/2+z
1/2-x,-y,1/2+z
1/2+x,-y,1/2-z
1/2-x,y,1/2-z
1/2+x,1/2+y,z
1/2-x,1/2-y,z
1/2+x,1/2-y,-z
1/2-x,1/2+y,-z
loop_
_atom_site_type_symbol
_atom_site_label
_atom_site_fract_x
_atom_site_fract_y
_atom_site_fract_z
Si Si1 0.876438 0.395819 0.882510
Si Si2 0.128321 0.765026 0.082760
Si Si3 0.750000 0.750000 0.750000
Si Si4 0.188105 0.021066 0.839469
Si Si5 0.052001 0.308986 0.010116
Si Si6 0.801106 0.711197 0.459678
Si Si7 0.149131 0.250000 0.250000
O O1 0.874850 0.583822 0.892651
O O2 0.917113 0.306379 0.922377
O O3 0.828532 0.336314 0.913438
O O4 0.878924 0.343810 0.805804
O O5 0.142358 0.883691 0.141334
O O6 0.081047 0.786928 0.044625
O O7 0.166880 0.788546 0.025336
O O8 0.779174 0.859242 0.800558
O O9 0.203059 0.940387 0.910065
O O10 0.178820 0.877991 0.789126
O O11 0.052486 0.500000 0.000000
O O12 0.000000 0.260839 0.000000
O O13 0.750000 0.750000 0.479407
#
# Coordination Sequence:
#
# PCOD9326856 Si02
#       7
#    16  16   4  16  16  16   8
#     4   9  19  35  58  84 116 152 191 231 287 354
#     4  10  20  36  57  88 113 143 194 249 291 337
#     4  12  28  38  56  78 108 154 210 242 280 354
#     4  11  25  37  55  78 111 155 198 244 280 350
#     4   8  15  32  61  91 116 144 182 239 305 356
#     4  10  22  35  56  80 113 148 186 241 297 342
#     4  10  22  41  56  73 116 166 189 234 285 348
#
# _framework density 18.548756999999998
#
# number of rings (size 3 to 8) (size 9 to 14) (size 15 to 20)
#    0.000    2.261    0.000    3.130    8.522    1.391 
#    0.000    0.000    0.000   28.174    0.000    0.000 
#    0.000    0.000    0.000    0.000    0.000    0.000 
#
# Total GULP energy -128036.364241 kJ/mol
# GULP energy per Si atom -5566.798445 kJ/mol
# Density = 1.850654 g / cm^3
# Si number density = 18.548757 Si / 1000 Ang^3
#
#
#
# Elastic Constant Matrix: (Units=GPa)
#
#
# Indices 1 2 3 4 5 6 
#
# 1 140.9260 35.7581 41.3233 0.0000 0.0000 0.0000
# 2 35.7581 83.7746 48.6540 0.0000 0.0000 0.0000
# 3 41.3233 48.6540 94.3856 0.0000 0.0000 0.0000
# 4 0.0000 0.0000 0.0000 39.0996 0.0000 0.0000
# 5 0.0000 0.0000 0.0000 0.0000 9.3121 0.0000
# 6 0.0000 0.0000 0.0000 0.0000 0.0000 9.4102
#
#
#
# Elastic Compliance Matrix: (Units=1/GPa)
#
#
# Indices 1 2 3 4 5 6 
#
# 1 0.008384 -0.002065 -0.002606 0.000000 0.000000 0.000000
# 2 -0.002065 0.017546 -0.008141 0.000000 0.000000 0.000000
# 3 -0.002606 -0.008141 0.015932 0.000000 0.000000 0.000000
# 4 0.000000 0.000000 0.000000 0.025576 0.000000 0.000000
# 5 0.000000 0.000000 0.000000 0.000000 0.107387 0.000000
# 6 0.000000 0.000000 0.000000 0.000000 0.000000 0.106268
#
#
# Mechanical properties :
#
#
# Convention : Reuss Voigt Hill
#
# Bulk Modulus (GPa) = 61.58109 63.39521 62.48815
# Shear Modulus (GPa) = 16.01900 24.45443 20.23671
#
# Velocity S-wave (km/s) = 2.94192 3.63490 3.30661
# Velocity P-wave (km/s) = 6.69414 7.20198 6.95270
#
# Compressibility (1/GPa) = 0.01623875
#
# Stress axis : x y z
#
# Youngs Moduli (GPa) = 119.27326 56.99294 62.76617
#
# Poissons Ratio (x) = 0.11769 0.16358
# Poissons Ratio (y) = 0.24630 0.51095
# Poissons Ratio (z) = 0.31085 0.46395
#
# Static dielectric constant tensor:
#      x y z
#    x 1.640560 0.000000 0.000000 
#    y 0.000000 1.689350 0.000000 
#    z 0.000000 0.000000 1.670160 
# 
# From -- ./inp_files/14771.got.cif
#   From: 2010.05.17/outbox.cif.g08.bks.cpg/sg22_8_cif.got.tgz:14771.got - 2010.06.03 23:40:54.
