data_PCOD9326710
_publ_section_title
;
Structure prediction by ZEFSAII (Michael W. Deem and Ramdas Pophale) SiO2 
 PCOD9326710
Probable space group: F 2 2 2
;
_chemical_formula_sum "Si O2"
_cell_formula_units_Z 80
_cell_length_a 29.404146
_cell_length_b 23.571974
_cell_length_c 6.343061
_cell_angle_alpha 90.000000
_cell_angle_beta 90.000000
_cell_angle_gamma 90.000000
_cell_volume 4396.462891
_symmetry_space_group_name_H-M "F 2 2 2"
_symmetry_group_IT_number 22
_symmetry_cell_setting 'orthorhombic'
loop_
_space_group_symop_operation_xyz
x,y,z
-x,-y,z
x,-y,-z
-x,y,-z
x,1/2+y,1/2+z
-x,1/2-y,1/2+z
x,1/2-y,1/2-z
-x,1/2+y,1/2-z
1/2+x,y,1/2+z
1/2-x,-y,1/2+z
1/2+x,-y,1/2-z
1/2-x,y,1/2-z
1/2+x,1/2+y,z
1/2-x,1/2-y,z
1/2+x,1/2-y,-z
1/2-x,1/2+y,-z
loop_
_atom_site_type_symbol
_atom_site_label
_atom_site_fract_x
_atom_site_fract_y
_atom_site_fract_z
Si Si1 0.046649 0.058739 0.383252
Si Si2 0.704617 0.690809 0.131689
Si Si3 0.500000 0.000000 0.500000
Si Si4 0.363420 0.602055 0.706354
Si Si5 0.292246 0.055739 0.868311
Si Si6 0.750000 0.750000 0.750000
Si Si7 0.650329 0.500000 0.000000
O O1 0.086265 0.105704 0.391742
O O2 0.000000 0.076308 0.500000
O O3 0.062521 0.000000 0.500000
O O4 0.030104 0.039118 0.152612
O O5 0.695182 0.750000 0.250000
O O6 0.750000 0.666116 0.250000
O O7 0.661422 0.650623 0.159434
O O8 0.719403 0.710281 0.899775
O O9 0.325928 0.588109 0.526166
O O10 0.372095 0.548436 0.859515
O O11 0.250000 0.085240 0.750000
O O12 0.321128 0.033237 0.673838
O O13 0.275596 0.000000 0.000000
#
# Coordination Sequence:
#
# PCOD9326710 Si02
#       7
#    16  16   4  16  16   4   8
#     4   9  18  34  54  77 113 148 185 228 273 337
#     4   9  21  39  58  79 109 149 194 239 275 331
#     4   8  16  32  56  70 112 148 186 224 274 330
#     4  11  22  34  54  83 111 146 190 234 285 334
#     4  10  20  32  45  70 115 154 181 209 266 330
#     4   8  18  44  60  74 104 156 194 232 282 334
#     4  10  21  30  48  75 116 150 177 220 275 340
#
# _framework density 18.196446999999999
#
# number of rings (size 3 to 8) (size 9 to 14) (size 15 to 20)
#    0.000    2.800    1.000    2.400    2.800    4.800 
#    1.800    0.000    0.000    0.000    2.600    0.000 
#    0.000    0.000    0.000    0.000    0.000    0.000 
#
# Total GULP energy -111365.999589 kJ/mol
# GULP energy per Si atom -5568.299979 kJ/mol
# Density = 1.815503 g / cm^3
# Si number density = 18.196447 Si / 1000 Ang^3
#
#
#
# Elastic Constant Matrix: (Units=GPa)
#
#
# Indices 1 2 3 4 5 6 
#
# 1 140.7790 52.7808 43.3403 -0.0005 -0.0004 -0.0008
# 2 52.7808 47.2428 23.0175 0.0133 -0.0021 -0.0034
# 3 43.3403 23.0175 120.7586 0.0231 -0.0051 -0.0053
# 4 -0.0005 0.0133 0.0231 5.3483 -0.0029 -0.0042
# 5 -0.0004 -0.0021 -0.0051 -0.0029 5.9566 0.0018
# 6 -0.0008 -0.0034 -0.0053 -0.0042 0.0018 15.1022
#
#
#
# Elastic Compliance Matrix: (Units=1/GPa)
#
#
# Indices 1 2 3 4 5 6 
#
# 1 0.012662 -0.013154 -0.002037 0.000043 -0.000006 -0.000003
# 2 -0.013154 0.036999 -0.002331 -0.000083 0.000010 0.000007
# 3 -0.002037 -0.002331 0.009457 -0.000035 0.000007 0.000003
# 4 0.000043 -0.000083 -0.000035 0.186975 0.000092 0.000051
# 5 -0.000006 0.000010 0.000007 0.000092 0.167882 -0.000020
# 6 -0.000003 0.000007 0.000003 0.000051 -0.000020 0.066216
#
#
# Mechanical properties :
#
#
# Convention : Reuss Voigt Hill
#
# Bulk Modulus (GPa) = 41.54077 60.78418 51.16247
# Shear Modulus (GPa) = 9.55550 17.92421 13.73985
#
# Velocity S-wave (km/s) = 2.29406 3.14194 2.75086
# Velocity P-wave (km/s) = 5.46768 6.82930 6.18607
#
# Compressibility (1/GPa) = 0.02407274
#
# Stress axis : x y z
#
# Youngs Moduli (GPa) = 78.97531 27.02773 105.74717
#
# Poissons Ratio (x) = 0.35552 0.21543
# Poissons Ratio (y) = 1.03884 0.24653
# Poissons Ratio (z) = 0.16089 0.06301
#
# Static dielectric constant tensor:
#      x y z
#    x 1.697160 0.000000 0.000010 
#    y 0.000000 1.655710 -0.000010 
#    z 0.000010 -0.000010 1.690670 
# 
# From -- ./inp_files/6547.got.cif
#   From: 2010.05.17/outbox.cif.g08.bks.cpg/sg22_4_cif.got.tgz:6547.got - 2010.06.03 23:40:54.
