data_PCOD9326322
_publ_section_title
;
Structure prediction by ZEFSAII (Michael W. Deem and Ramdas Pophale) SiO2 
 PCOD9326322
Probable space group: F 2 2 2
;
_chemical_formula_sum "Si O2"
_cell_formula_units_Z 128
_cell_length_a 12.519275
_cell_length_b 24.098674
_cell_length_c 23.358893
_cell_angle_alpha 90.000000
_cell_angle_beta 90.000000
_cell_angle_gamma 90.000000
_cell_volume 7047.329594
_symmetry_space_group_name_H-M "F 2 2 2"
_symmetry_group_IT_number 22
_symmetry_cell_setting 'orthorhombic'
loop_
_space_group_symop_operation_xyz
x,y,z
-x,-y,z
x,-y,-z
-x,y,-z
x,1/2+y,1/2+z
-x,1/2-y,1/2+z
x,1/2-y,1/2-z
-x,1/2+y,1/2-z
1/2+x,y,1/2+z
1/2-x,-y,1/2+z
1/2+x,-y,1/2-z
1/2-x,y,1/2-z
1/2+x,1/2+y,z
1/2-x,1/2-y,z
1/2+x,1/2-y,-z
1/2-x,1/2+y,-z
loop_
_atom_site_type_symbol
_atom_site_label
_atom_site_fract_x
_atom_site_fract_y
_atom_site_fract_z
Si Si1 0.539032 0.392704 0.563105
Si Si2 0.597107 0.149232 0.171991
Si Si3 0.230560 0.117361 0.189330
Si Si4 0.116683 0.522110 0.850957
Si Si5 0.008590 0.115143 0.795887
Si Si6 0.183415 0.201711 0.401298
Si Si7 0.726719 0.567778 0.815161
Si Si8 0.984900 0.257936 0.684475
O O1 0.500000 0.404205 0.500000
O O2 0.456364 0.373867 0.613608
O O3 0.592911 0.447420 0.589447
O O4 0.618540 0.340284 0.559429
O O5 0.535002 0.124004 0.227946
O O6 0.716772 0.127510 0.177931
O O7 0.582545 0.215062 0.176129
O O8 0.250000 0.146785 0.250000
O O9 0.320452 0.069878 0.184011
O O10 0.246766 0.160977 0.138742
O O11 0.110571 0.094269 0.191490
O O12 0.202599 0.472862 0.853790
O O13 0.000000 0.500000 0.829429
O O14 0.101001 0.076039 0.820896
O O15 0.011780 0.177536 0.821838
O O16 0.250000 0.250000 0.431123
O O17 0.103240 0.234013 0.358601
O O18 0.750000 0.548721 0.750000
O O19 0.947334 0.250000 0.750000
#
# Coordination Sequence:
#
# PCOD9326322 Si02
#       8
#    16  16  16  16  16  16  16  16
#     4  10  21  38  62  79 106 142 192 251 294 315
#     4   9  18  34  52  80 118 144 188 237 265 342
#     4  11  21  31  52  82 118 155 186 225 276 346
#     4  11  22  38  54  77 109 141 192 243 285 326
#     4  10  19  32  52  85 118 158 183 210 290 356
#     4  10  19  31  55  85 119 141 181 236 280 339
#     4  10  21  34  52  74 118 157 180 224 281 344
#     4   9  16  28  49  81 117 153 186 215 266 345
#
# _framework density 18.162908000000002
#
# number of rings (size 3 to 8) (size 9 to 14) (size 15 to 20)
#    0.000    2.000    2.500    3.375    1.750    1.250 
#    0.000    2.500    5.500    0.000    0.000    2.625 
#    7.500    0.000    0.000    0.000    0.000    0.000 
#
# Total GULP energy -178310.916618 kJ/mol
# GULP energy per Si atom -5572.216144 kJ/mol
# Density = 1.812157 g / cm^3
# Si number density = 18.162908 Si / 1000 Ang^3
#
#
#
# Elastic Constant Matrix: (Units=GPa)
#
#
# Indices 1 2 3 4 5 6 
#
# 1 114.9756 41.4781 27.6937 0.0000 0.0000 0.0000
# 2 41.4781 82.8820 23.5763 0.0000 0.0000 0.0000
# 3 27.6937 23.5763 67.6262 0.0000 0.0000 0.0000
# 4 0.0000 0.0000 0.0000 11.2994 0.0000 0.0000
# 5 0.0000 0.0000 0.0000 0.0000 16.7999 0.0000
# 6 0.0000 0.0000 0.0000 0.0000 0.0000 31.8545
#
#
#
# Elastic Compliance Matrix: (Units=1/GPa)
#
#
# Indices 1 2 3 4 5 6 
#
# 1 0.011102 -0.004732 -0.002897 0.000000 0.000000 0.000000
# 2 -0.004732 0.015411 -0.003435 0.000000 0.000000 0.000000
# 3 -0.002897 -0.003435 0.017171 0.000000 0.000000 0.000000
# 4 0.000000 0.000000 0.000000 0.088500 0.000000 0.000000
# 5 0.000000 0.000000 0.000000 0.000000 0.059524 0.000000
# 6 0.000000 0.000000 0.000000 0.000000 0.000000 0.031393
#
#
# Mechanical properties :
#
#
# Convention : Reuss Voigt Hill
#
# Bulk Modulus (GPa) = 46.38958 50.10888 48.24923
# Shear Modulus (GPa) = 19.80878 23.50650 21.65764
#
# Velocity S-wave (km/s) = 3.30603 3.60141 3.45688
# Velocity P-wave (km/s) = 6.33793 6.70388 6.52347
#
# Compressibility (1/GPa) = 0.02155657
#
# Stress axis : x y z
#
# Youngs Moduli (GPa) = 90.07077 64.89062 58.23823
#
# Poissons Ratio (x) = 0.30707 0.16870
# Poissons Ratio (y) = 0.42623 0.20003
# Poissons Ratio (z) = 0.26092 0.22288
#
# Static dielectric constant tensor:
#      x y z
#    x 1.673100 0.000000 0.000000 
#    y 0.000000 1.679690 0.000000 
#    z 0.000000 0.000000 1.595460 
# 
# From -- ./inp_files/48409.got.cif
#   From: 2010.05.17/outbox.cif.g08.bks.cpg/sg22_25_cif.got.tgz:48409.got - 2010.06.03 23:40:54.
