data_PCOD9326555
_publ_section_title
;
Structure prediction by ZEFSAII (Michael W. Deem and Ramdas Pophale) SiO2 
 PCOD9326555
Probable space group: F 2 2 2
;
_chemical_formula_sum "Si O2"
_cell_formula_units_Z 48
_cell_length_a 11.576019
_cell_length_b 20.803609
_cell_length_c 8.454356
_cell_angle_alpha 90.000000
_cell_angle_beta 90.000000
_cell_angle_gamma 90.000000
_cell_volume 2036.003147
_symmetry_space_group_name_H-M "F 2 2 2"
_symmetry_group_IT_number 22
_symmetry_cell_setting 'orthorhombic'
loop_
_space_group_symop_operation_xyz
x,y,z
-x,-y,z
x,-y,-z
-x,y,-z
x,1/2+y,1/2+z
-x,1/2-y,1/2+z
x,1/2-y,1/2-z
-x,1/2+y,1/2-z
1/2+x,y,1/2+z
1/2-x,-y,1/2+z
1/2+x,-y,1/2-z
1/2-x,y,1/2-z
1/2+x,1/2+y,z
1/2-x,1/2-y,z
1/2+x,1/2-y,-z
1/2-x,1/2+y,-z
loop_
_atom_site_type_symbol
_atom_site_label
_atom_site_fract_x
_atom_site_fract_y
_atom_site_fract_z
Si Si1 0.550383 0.570152 0.769603
Si Si2 0.590283 0.187679 0.855729
Si Si3 0.252384 0.874484 0.081365
O O1 0.500000 0.500000 0.779116
O O2 0.458887 0.625902 0.736503
O O3 0.643053 0.576230 0.623016
O O4 0.631520 0.588948 0.918478
O O5 0.593852 0.250000 0.750000
O O6 0.500000 0.199177 0.000000
O O7 0.710944 0.168099 0.936464
O O8 0.250000 0.835897 0.250000
#
# Coordination Sequence:
#
# PCOD9326555 Si02
#       3
#    16  16  16
#     4   8  16  34  65 101 147 192 236 296 368 431
#     4  10  19  36  67 106 147 197 241 297 368 438
#     4   7  17  32  58 108 145 180 241 303 352 430
#
# _framework density 23.575600000000001
#
# number of rings (size 3 to 8) (size 9 to 14) (size 15 to 20)
#    2.000    1.333    0.000    0.000    0.000    6.000 
#    0.000   13.333    0.000   45.000    0.000    0.000 
#    0.000    0.000    0.000    0.000    0.000    0.000 
#
# Total GULP energy -66998.487921 kJ/mol
# GULP energy per Si atom -5583.207327 kJ/mol
# Density = 2.352194 g / cm^3
# Si number density = 23.575600 Si / 1000 Ang^3
#
#
#
# Elastic Constant Matrix: (Units=GPa)
#
#
# Indices 1 2 3 4 5 6 
#
# 1 107.2695 102.8764 67.1908 0.0000 0.0000 0.0000
# 2 102.8764 234.3258 114.0415 0.0000 0.0000 0.0000
# 3 67.1908 114.0415 116.4158 0.0000 0.0000 0.0000
# 4 0.0000 0.0000 0.0000 16.4073 0.0000 0.0000
# 5 0.0000 0.0000 0.0000 0.0000 25.6611 0.0000
# 6 0.0000 0.0000 0.0000 0.0000 0.0000 23.3461
#
#
#
# Elastic Compliance Matrix: (Units=1/GPa)
#
#
# Indices 1 2 3 4 5 6 
#
# 1 0.017455 -0.005275 -0.004907 0.000000 0.000000 0.000000
# 2 -0.005275 0.009750 -0.006507 0.000000 0.000000 0.000000
# 3 -0.004907 -0.006507 0.017796 0.000000 0.000000 0.000000
# 4 0.000000 0.000000 0.000000 0.060948 0.000000 0.000000
# 5 0.000000 0.000000 0.000000 0.000000 0.038969 0.000000
# 6 0.000000 0.000000 0.000000 0.000000 0.000000 0.042834
#
#
# Mechanical properties :
#
#
# Convention : Reuss Voigt Hill
#
# Bulk Modulus (GPa) = 86.03055 114.02537 100.02796
# Shear Modulus (GPa) = 22.22179 24.67640 23.44910
#
# Velocity S-wave (km/s) = 3.07347 3.23877 3.15720
# Velocity P-wave (km/s) = 7.01181 7.90298 7.47069
#
# Compressibility (1/GPa) = 0.01162378
#
# Stress axis : x y z
#
# Youngs Moduli (GPa) = 57.29019 102.56119 56.19310
#
# Poissons Ratio (x) = 0.54105 0.27572
# Poissons Ratio (y) = 0.30223 0.36563
# Poissons Ratio (z) = 0.28110 0.66733
#
# Static dielectric constant tensor:
#      x y z
#    x 1.997240 0.000000 0.000000 
#    y 0.000000 1.805060 0.000000 
#    z 0.000000 0.000000 1.963860 
# 
# From -- ./inp_files/8178.got.cif
#   From: 2010.05.17/outbox.cif.g08.bks.cpg/sg22_5_cif.got.tgz:8178.got - 2010.06.03 23:40:54.
