data_PCOD9326379
_publ_section_title
;
Structure prediction by ZEFSAII (Michael W. Deem and Ramdas Pophale) SiO2 
 PCOD9326379
Probable space group: F 2 2 2
;
_chemical_formula_sum "Si O2"
_cell_formula_units_Z 104
_cell_length_a 19.906338
_cell_length_b 32.419077
_cell_length_c 8.249700
_cell_angle_alpha 90.000000
_cell_angle_beta 90.000000
_cell_angle_gamma 90.000000
_cell_volume 5323.903508
_symmetry_space_group_name_H-M "F 2 2 2"
_symmetry_group_IT_number 22
_symmetry_cell_setting 'orthorhombic'
loop_
_space_group_symop_operation_xyz
x,y,z
-x,-y,z
x,-y,-z
-x,y,-z
x,1/2+y,1/2+z
-x,1/2-y,1/2+z
x,1/2-y,1/2-z
-x,1/2+y,1/2-z
1/2+x,y,1/2+z
1/2-x,-y,1/2+z
1/2+x,-y,1/2-z
1/2-x,y,1/2-z
1/2+x,1/2+y,z
1/2-x,1/2-y,z
1/2+x,1/2-y,-z
1/2-x,1/2+y,-z
loop_
_atom_site_type_symbol
_atom_site_label
_atom_site_fract_x
_atom_site_fract_y
_atom_site_fract_z
Si Si1 0.829684 0.760160 0.925924
Si Si2 0.369100 0.150364 0.457141
Si Si3 0.820574 0.811268 0.351604
Si Si4 0.939113 0.025522 0.829992
Si Si5 0.764709 0.882918 0.559850
Si Si6 0.307872 0.461899 0.382808
Si Si7 0.000000 0.602873 0.500000
O O1 0.858308 0.750000 0.750000
O O2 0.750000 0.750000 0.920887
O O3 0.845445 0.807612 0.956921
O O4 0.851041 0.730187 0.072670
O O5 0.369761 0.164344 0.269434
O O6 0.308702 0.117741 0.475476
O O7 0.436496 0.132181 0.532696
O O8 0.750000 0.803882 0.250000
O O9 0.800562 0.841256 0.499359
O O10 0.875928 0.029785 0.715103
O O11 0.000000 0.000000 0.752393
O O12 0.968988 0.070582 0.871089
O O13 0.923946 0.000000 0.000000
O O14 0.750000 0.883888 0.750000
O O15 0.806873 0.921119 0.493342
O O16 0.293032 0.500000 0.500000
O O17 0.250000 0.457551 0.250000
#
# Coordination Sequence:
#
# PCOD9326379 Si02
#       7
#    16  16  16  16  16  16   8
#     4  11  20  34  57  86 122 161 203 252 305 365
#     4  11  22  36  61  87 123 158 209 250 308 367
#     4  10  19  33  57  88 116 154 204 252 300 357
#     4   9  21  43  68  85 118 168 212 244 308 378
#     4  11  22  36  58  90 122 155 197 258 317 361
#     4  12  24  39  61  93 126 155 201 260 314 366
#     4  10  21  40  62  88 116 164 200 246 291 366
#
# _framework density 19.534538000000001
#
# number of rings (size 3 to 8) (size 9 to 14) (size 15 to 20)
#    0.000    1.538    3.077    5.538    0.000    4.000 
#    0.000    1.538    0.000    8.308    0.000    0.000 
#    0.000    0.000    0.000    0.000    0.000    0.000 
#
# Total GULP energy -145056.829439 kJ/mol
# GULP energy per Si atom -5579.108825 kJ/mol
# Density = 1.949008 g / cm^3
# Si number density = 19.534538 Si / 1000 Ang^3
#
#
#
# Elastic Constant Matrix: (Units=GPa)
#
#
# Indices 1 2 3 4 5 6 
#
# 1 50.6028 27.2920 14.8278 -0.0001 0.0012 0.0000
# 2 27.2920 120.8717 38.7895 0.0000 0.0000 0.0000
# 3 14.8278 38.7895 112.5491 -0.0001 0.0026 -0.0001
# 4 -0.0001 0.0000 -0.0001 22.7895 0.0001 -0.0001
# 5 0.0012 0.0000 0.0026 0.0001 18.1862 0.0001
# 6 0.0000 0.0000 -0.0001 -0.0001 0.0001 18.1402
#
#
#
# Elastic Compliance Matrix: (Units=1/GPa)
#
#
# Indices 1 2 3 4 5 6 
#
# 1 0.022690 -0.004682 -0.001376 0.000000 -0.000001 0.000000
# 2 -0.004682 0.010268 -0.002922 0.000000 0.000001 0.000000
# 3 -0.001376 -0.002922 0.010073 0.000000 -0.000001 0.000000
# 4 0.000000 0.000000 0.000000 0.043880 0.000000 0.000000
# 5 -0.000001 0.000001 -0.000001 0.000000 0.054987 0.000000
# 6 0.000000 0.000000 0.000000 0.000000 0.000000 0.055126
#
#
# Mechanical properties :
#
#
# Convention : Reuss Voigt Hill
#
# Bulk Modulus (GPa) = 39.88471 49.53802 44.71137
# Shear Modulus (GPa) = 22.38734 25.36414 23.87574
#
# Velocity S-wave (km/s) = 3.38899 3.60728 3.49984
# Velocity P-wave (km/s) = 5.98127 6.53943 6.26657
#
# Compressibility (1/GPa) = 0.02507226
#
# Stress axis : x y z
#
# Youngs Moduli (GPa) = 44.07244 97.38936 99.27210
#
# Poissons Ratio (x) = 0.45595 0.13657
# Poissons Ratio (y) = 0.20634 0.29008
# Poissons Ratio (z) = 0.06063 0.28458
#
# Static dielectric constant tensor:
#      x y z
#    x 1.682260 0.000000 0.000000 
#    y 0.000000 1.715860 0.000000 
#    z 0.000000 0.000000 1.720710 
# 
# From -- ./inp_files/13076.got.cif
#   From: 2010.05.17/outbox.cif.g08.bks.cpg/sg22_7_cif.got.tgz:13076.got - 2010.06.03 23:40:54.
