data_PCOD9326162
_publ_section_title
;
Structure prediction by ZEFSAII (Michael W. Deem and Ramdas Pophale) SiO2 
 PCOD9326162
Probable space group: F 2 2 2
;
_chemical_formula_sum "Si O2"
_cell_formula_units_Z 104
_cell_length_a 27.555177
_cell_length_b 7.931683
_cell_length_c 24.327725
_cell_angle_alpha 90.000000
_cell_angle_beta 90.000000
_cell_angle_gamma 90.000000
_cell_volume 5317.041520
_symmetry_space_group_name_H-M "F 2 2 2"
_symmetry_group_IT_number 22
_symmetry_cell_setting 'orthorhombic'
loop_
_space_group_symop_operation_xyz
x,y,z
-x,-y,z
x,-y,-z
-x,y,-z
x,1/2+y,1/2+z
-x,1/2-y,1/2+z
x,1/2-y,1/2-z
-x,1/2+y,1/2-z
1/2+x,y,1/2+z
1/2-x,-y,1/2+z
1/2+x,-y,1/2-z
1/2-x,y,1/2-z
1/2+x,1/2+y,z
1/2-x,1/2-y,z
1/2+x,1/2-y,-z
1/2-x,1/2+y,-z
loop_
_atom_site_type_symbol
_atom_site_label
_atom_site_fract_x
_atom_site_fract_y
_atom_site_fract_z
Si Si1 0.567416 0.750000 0.250000
Si Si2 0.750000 0.750000 0.082126
Si Si3 0.553701 0.585030 0.712370
Si Si4 0.557616 0.166574 0.627808
Si Si5 0.863742 0.784046 0.538002
Si Si6 0.452978 0.776741 0.399540
Si Si7 0.700197 0.000000 0.500000
Si Si8 0.150384 0.878005 0.589678
O O1 0.589102 0.567918 0.268833
O O2 0.543849 0.805801 0.308213
O O3 0.734165 0.602788 0.040707
O O4 0.798789 0.692282 0.112552
O O5 0.500000 0.500000 0.718648
O O6 0.558324 0.750000 0.750000
O O7 0.558579 0.647215 0.649909
O O8 0.510784 0.224871 0.593342
O O9 0.604819 0.277950 0.614972
O O10 0.562318 0.966743 0.618188
O O11 0.920946 0.763329 0.547644
O O12 0.834186 0.610826 0.539652
O O13 0.852946 0.835710 0.475535
O O14 0.848830 0.919390 0.584430
#
# Coordination Sequence:
#
# PCOD9326162 Si02
#       8
#     8   8  16  16  16  16   8  16
#     4  12  22  36  54  77 114 142 198 243 268 328
#     4  10  18  34  60  79 104 136 179 236 284 332
#     4  12  20  32  52  78 108 151 195 236 277 318
#     4  11  23  36  55  80 112 153 192 229 279 328
#     4  10  21  36  54  82 116 143 183 226 270 346
#     4  11  22  34  54  81 115 154 185 226 276 330
#     4  10  18  34  58  83 108 143 180 232 282 334
#     4  10  22  38  56  82 109 146 187 229 285 337
#
# _framework density 19.559749
#
# number of rings (size 3 to 8) (size 9 to 14) (size 15 to 20)
#    0.000    1.231    3.846    4.615    0.000    0.615 
#    0.000    3.077    0.000    0.462    0.000    0.000 
#    0.000    0.308    0.000    0.000    0.000    0.000 
#
# Total GULP energy -144771.844535 kJ/mol
# GULP energy per Si atom -5568.147867 kJ/mol
# Density = 1.951523 g / cm^3
# Si number density = 19.559749 Si / 1000 Ang^3
#
#
#
# Elastic Constant Matrix: (Units=GPa)
#
#
# Indices 1 2 3 4 5 6 
#
# 1 121.8638 40.5546 21.5852 0.0000 -0.0001 -0.0001
# 2 40.5546 124.1986 6.3881 0.0001 -0.0001 -0.0001
# 3 21.5852 6.3881 21.4547 0.0000 0.0000 0.0000
# 4 0.0000 0.0001 0.0000 23.3124 0.0000 0.0000
# 5 -0.0001 -0.0001 0.0000 0.0000 -3.0066 0.0001
# 6 -0.0001 -0.0001 0.0000 0.0000 0.0001 25.4723
#
#
#
# Elastic Compliance Matrix: (Units=1/GPa)
#
#
# Indices 1 2 3 4 5 6 
#
# 1 0.011035 -0.003079 -0.010185 0.000000 0.000000 0.000000
# 2 -0.003079 0.009036 0.000408 0.000000 0.000000 0.000000
# 3 -0.010185 0.000408 0.056735 0.000000 0.000000 0.000000
# 4 0.000000 0.000000 0.000000 0.042896 0.000000 0.000000
# 5 0.000000 0.000000 0.000000 0.000000 -0.332605 0.000001
# 6 0.000000 0.000000 0.000000 0.000000 0.000001 0.039258
#
#
# Mechanical properties :
#
#
# Convention : Reuss Voigt Hill
#
# Bulk Modulus (GPa) = 19.57220 44.95255 32.26238
# Shear Modulus (GPa) = -38.19709 22.42154 -7.88777
#
# Velocity S-wave (km/s) = -4.42389 3.38939 -2.01033
# Velocity P-wave (km/s) = 4.00828 6.19269 3.33789
#
# Compressibility (1/GPa) = 0.05109286
#
# Stress axis : x y z
#
# Youngs Moduli (GPa) = 90.62375 110.66666 17.62566
#
# Poissons Ratio (x) = 0.34077 0.17952
# Poissons Ratio (y) = 0.27906 -0.00718
# Poissons Ratio (z) = 0.92300 -0.04510
#
# Static dielectric constant tensor:
#      x y z
#    x 1.737910 0.000000 0.000000 
#    y 0.000000 1.898070 0.000000 
#    z 0.000000 0.000000 1.665200 
# 
# From -- ./inp_files/50476.got.cif
#   From: 2010.05.17/outbox.cif.g08.bks.cpg/sg22_26_cif.got.tgz:50476.got - 2010.06.03 23:40:54.
