data_PCOD9326607
_publ_section_title
;
Structure prediction by ZEFSAII (Michael W. Deem and Ramdas Pophale) SiO2 
 PCOD9326607
Probable space group: F 2 2 2
;
_chemical_formula_sum "Si O2"
_cell_formula_units_Z 108
_cell_length_a 21.551630
_cell_length_b 11.581637
_cell_length_c 21.469454
_cell_angle_alpha 90.000000
_cell_angle_beta 90.000000
_cell_angle_gamma 90.000000
_cell_volume 5358.843464
_symmetry_space_group_name_H-M "F 2 2 2"
_symmetry_group_IT_number 22
_symmetry_cell_setting 'orthorhombic'
loop_
_space_group_symop_operation_xyz
x,y,z
-x,-y,z
x,-y,-z
-x,y,-z
x,1/2+y,1/2+z
-x,1/2-y,1/2+z
x,1/2-y,1/2-z
-x,1/2+y,1/2-z
1/2+x,y,1/2+z
1/2-x,-y,1/2+z
1/2+x,-y,1/2-z
1/2-x,y,1/2-z
1/2+x,1/2+y,z
1/2-x,1/2-y,z
1/2+x,1/2-y,-z
1/2-x,1/2+y,-z
loop_
_atom_site_type_symbol
_atom_site_label
_atom_site_fract_x
_atom_site_fract_y
_atom_site_fract_z
Si Si1 0.536836 0.621680 0.742848
Si Si2 0.958658 0.294246 0.945593
Si Si3 0.750000 0.250000 0.250000
Si Si4 0.153151 0.354746 0.846498
Si Si5 0.953655 0.604617 0.618288
Si Si6 0.360954 0.675749 0.037984
Si Si7 0.153293 0.437770 0.068448
Si Si8 0.250000 0.250000 0.468537
O O1 0.500000 0.500000 0.735144
O O2 0.503893 0.750000 0.750000
O O3 0.588265 0.630342 0.689571
O O4 0.568682 0.614094 0.810956
O O5 0.914976 0.388593 0.914092
O O6 0.004985 0.214890 0.905025
O O7 0.908167 0.218513 0.984369
O O8 0.000000 0.349871 0.000000
O O9 0.795612 0.317985 0.203407
O O10 0.143956 0.266834 0.904537
O O11 0.172686 0.471511 0.880272
O O12 0.897235 0.574977 0.572195
O O13 0.000000 0.500000 0.616077
O O14 0.293072 0.666740 0.010523
O O15 0.202165 0.333157 0.065960
O O16 0.150016 0.500000 0.000000
#
# Coordination Sequence:
#
# PCOD9326607 Si02
#       8
#    16  16   4  16  16  16  16   8
#     4  11  24  42  66  97 134 180 232 285 345 418
#     4   9  20  36  59  95 129 164 213 268 339 420
#     4  12  26  44  72  94 128 178 260 288 322 416
#     4  12  23  43  67  95 129 179 236 283 344 415
#     4  10  21  40  58  90 133 171 220 272 343 415
#     4  10  19  38  62  90 130 163 219 275 328 423
#     4  11  23  41  63  97 134 172 222 286 364 419
#     4  10  21  42  58  96 126 165 224 274 356 410
#
# _framework density 20.153601999999999
#
# number of rings (size 3 to 8) (size 9 to 14) (size 15 to 20)
#    0.000    1.481    5.185    0.444    2.074    2.963 
#    5.333    2.963    0.000    0.000    0.000    0.000 
#    0.000    0.000    0.000    0.000    0.000    0.000 
#
# Total GULP energy -150451.297399 kJ/mol
# GULP energy per Si atom -5572.270274 kJ/mol
# Density = 2.010773 g / cm^3
# Si number density = 20.153602 Si / 1000 Ang^3
#
#
#
# Elastic Constant Matrix: (Units=GPa)
#
#
# Indices 1 2 3 4 5 6 
#
# 1 79.5858 18.5400 26.8593 0.0000 0.0000 0.0000
# 2 18.5400 85.0697 28.5629 0.0000 0.0000 0.0000
# 3 26.8593 28.5629 88.4518 0.0000 0.0000 0.0000
# 4 0.0000 0.0000 0.0000 33.7042 0.0000 0.0000
# 5 0.0000 0.0000 0.0000 0.0000 12.9269 0.0000
# 6 0.0000 0.0000 0.0000 0.0000 0.0000 25.8136
#
#
#
# Elastic Compliance Matrix: (Units=1/GPa)
#
#
# Indices 1 2 3 4 5 6 
#
# 1 0.014256 -0.001855 -0.003730 0.000000 0.000000 0.000000
# 2 -0.001855 0.013426 -0.003772 0.000000 0.000000 0.000000
# 3 -0.003730 -0.003772 0.013656 0.000000 0.000000 0.000000
# 4 0.000000 0.000000 0.000000 0.029670 0.000000 0.000000
# 5 0.000000 0.000000 0.000000 0.000000 0.077358 0.000000
# 6 0.000000 0.000000 0.000000 0.000000 0.000000 0.038739
#
#
# Mechanical properties :
#
#
# Convention : Reuss Voigt Hill
#
# Bulk Modulus (GPa) = 44.20023 44.55908 44.37966
# Shear Modulus (GPa) = 23.43449 26.43194 24.93322
#
# Velocity S-wave (km/s) = 3.41368 3.62543 3.52114
# Velocity P-wave (km/s) = 6.12510 6.29942 6.21287
#
# Compressibility (1/GPa) = 0.02262432
#
# Stress axis : x y z
#
# Youngs Moduli (GPa) = 70.14615 74.48328 73.22548
#
# Poissons Ratio (x) = 0.13813 0.27314
# Poissons Ratio (y) = 0.13009 0.27623
# Poissons Ratio (z) = 0.26165 0.28098
#
# Static dielectric constant tensor:
#      x y z
#    x 1.724830 0.000000 0.000000 
#    y 0.000000 1.793220 0.000000 
#    z 0.000000 0.000000 1.731460 
# 
# From -- ./inp_files/49990.got.cif
#   From: 2010.05.17/outbox.cif.g08.bks.cpg/sg22_25_cif.got.tgz:49990.got - 2010.06.03 23:40:54.
