data_PCOD9326982
_publ_section_title
;
Structure prediction by ZEFSAII (Michael W. Deem and Ramdas Pophale) SiO2 
 PCOD9326982
Probable space group: F 2 2 2
;
_chemical_formula_sum "Si O2"
_cell_formula_units_Z 84
_cell_length_a 14.083400
_cell_length_b 18.605710
_cell_length_c 16.506338
_cell_angle_alpha 90.000000
_cell_angle_beta 90.000000
_cell_angle_gamma 90.000000
_cell_volume 4325.183084
_symmetry_space_group_name_H-M "F 2 2 2"
_symmetry_group_IT_number 22
_symmetry_cell_setting 'orthorhombic'
loop_
_space_group_symop_operation_xyz
x,y,z
-x,-y,z
x,-y,-z
-x,y,-z
x,1/2+y,1/2+z
-x,1/2-y,1/2+z
x,1/2-y,1/2-z
-x,1/2+y,1/2-z
1/2+x,y,1/2+z
1/2-x,-y,1/2+z
1/2+x,-y,1/2-z
1/2-x,y,1/2-z
1/2+x,1/2+y,z
1/2-x,1/2-y,z
1/2+x,1/2-y,-z
1/2-x,1/2+y,-z
loop_
_atom_site_type_symbol
_atom_site_label
_atom_site_fract_x
_atom_site_fract_y
_atom_site_fract_z
Si Si1 0.332992 0.524504 0.104110
Si Si2 0.500000 0.500000 0.000000
Si Si3 0.740214 0.099771 0.960053
Si Si4 0.969858 0.580107 0.094261
Si Si5 0.750000 0.250000 0.043367
Si Si6 0.100648 0.798101 0.329395
Si Si7 0.250000 0.902397 0.250000
O O1 0.430819 0.543896 0.059802
O O2 0.320616 0.439205 0.093240
O O3 0.317341 0.550615 0.193393
O O4 0.250149 0.559271 0.047604
O O5 0.643299 0.087091 0.911957
O O6 0.752189 0.181069 0.985868
O O7 0.000000 0.500000 0.124688
O O8 0.018635 0.648100 0.138736
O O9 0.000000 0.583660 0.000000
O O10 0.845225 0.253062 0.099788
O O11 0.075878 0.750000 0.250000
O O12 0.184539 0.851186 0.302443
#
# Coordination Sequence:
#
# PCOD9326982 Si02
#       7
#    16   4  16  16   8  16   8
#     4  10  20  40  66  92 128 173 212 275 318 396
#     4   8  20  40  60  92 130 166 228 250 324 388
#     4  10  20  37  62  89 121 164 213 258 327 376
#     4  11  20  36  64  98 118 155 220 277 307 373
#     4  12  19  38  62  89 116 166 212 264 311 380
#     4  12  22  37  63  94 129 163 213 268 329 389
#     4  12  19  38  64  93 130 168 212 268 339 376
#
# _framework density 19.421142
#
# number of rings (size 3 to 8) (size 9 to 14) (size 15 to 20)
#    0.000    1.333    5.714    3.429    0.000    0.000 
#    5.143   11.429    0.000    0.000    0.000    0.000 
#    0.000    0.000    0.000    0.000    0.000    0.000 
#
# Total GULP energy -116986.608801 kJ/mol
# GULP energy per Si atom -5570.790895 kJ/mol
# Density = 1.937694 g / cm^3
# Si number density = 19.421142 Si / 1000 Ang^3
#
#
#
# Elastic Constant Matrix: (Units=GPa)
#
#
# Indices 1 2 3 4 5 6 
#
# 1 100.7936 34.6608 29.3484 0.0000 0.0000 0.0000
# 2 34.6608 130.1993 42.0280 0.0000 0.0000 0.0000
# 3 29.3484 42.0280 52.2179 0.0000 0.0000 0.0000
# 4 0.0000 0.0000 0.0000 37.9360 0.0000 0.0000
# 5 0.0000 0.0000 0.0000 0.0000 24.8262 0.0000
# 6 0.0000 0.0000 0.0000 0.0000 0.0000 24.8904
#
#
#
# Elastic Compliance Matrix: (Units=1/GPa)
#
#
# Indices 1 2 3 4 5 6 
#
# 1 0.012043 -0.001380 -0.005658 0.000000 0.000000 0.000000
# 2 -0.001380 0.010534 -0.007703 0.000000 0.000000 0.000000
# 3 -0.005658 -0.007703 0.028531 0.000000 0.000000 0.000000
# 4 0.000000 0.000000 0.000000 0.026360 0.000000 0.000000
# 5 0.000000 0.000000 0.000000 0.000000 0.040280 0.000000
# 6 0.000000 0.000000 0.000000 0.000000 0.000000 0.040176
#
#
# Mechanical properties :
#
#
# Convention : Reuss Voigt Hill
#
# Bulk Modulus (GPa) = 46.24084 55.03170 50.63627
# Shear Modulus (GPa) = 25.69159 29.34209 27.51684
#
# Velocity S-wave (km/s) = 3.64107 3.89116 3.76819
# Velocity P-wave (km/s) = 6.44498 6.97034 6.71280
#
# Compressibility (1/GPa) = 0.02162590
#
# Stress axis : x y z
#
# Youngs Moduli (GPa) = 83.03410 94.92700 35.04972
#
# Poissons Ratio (x) = 0.13096 0.19833
# Poissons Ratio (y) = 0.11455 0.27000
# Poissons Ratio (z) = 0.46984 0.73126
#
# Static dielectric constant tensor:
#      x y z
#    x 1.759400 0.000000 0.000000 
#    y 0.000000 1.736350 0.000000 
#    z 0.000000 0.000000 1.703660 
# 
# From -- ./inp_files/36055.got.cif
#   From: 2010.05.17/outbox.cif.g08.bks.cpg/sg22_19_cif.got.tgz:36055.got - 2010.06.03 23:40:54.
