data_PCOD9326883
_publ_section_title
;
Structure prediction by ZEFSAII (Michael W. Deem and Ramdas Pophale) SiO2 
 PCOD9326883
Probable space group: F 2 2 2
;
_chemical_formula_sum "Si O2"
_cell_formula_units_Z 96
_cell_length_a 27.768567
_cell_length_b 8.101692
_cell_length_c 19.900885
_cell_angle_alpha 90.000000
_cell_angle_beta 90.000000
_cell_angle_gamma 90.000000
_cell_volume 4477.149405
_symmetry_space_group_name_H-M "F 2 2 2"
_symmetry_group_IT_number 22
_symmetry_cell_setting 'orthorhombic'
loop_
_space_group_symop_operation_xyz
x,y,z
-x,-y,z
x,-y,-z
-x,y,-z
x,1/2+y,1/2+z
-x,1/2-y,1/2+z
x,1/2-y,1/2-z
-x,1/2+y,1/2-z
1/2+x,y,1/2+z
1/2-x,-y,1/2+z
1/2+x,-y,1/2-z
1/2-x,y,1/2-z
1/2+x,1/2+y,z
1/2-x,1/2-y,z
1/2+x,1/2-y,-z
1/2-x,1/2+y,-z
loop_
_atom_site_type_symbol
_atom_site_label
_atom_site_fract_x
_atom_site_fract_y
_atom_site_fract_z
Si Si1 0.053035 0.065859 0.219396
Si Si2 0.765065 0.561382 0.173093
Si Si3 0.697583 0.428141 0.067610
Si Si4 0.397768 0.351012 0.090379
Si Si5 0.878511 0.825152 0.537182
Si Si6 0.121288 0.496928 0.164772
O O1 0.053178 0.250000 0.250000
O O2 0.065485 0.058336 0.140162
O O3 0.094976 0.981803 0.264159
O O4 0.000000 0.000000 0.232079
O O5 0.750000 0.549567 0.250000
O O6 0.750000 0.750000 0.151495
O O7 0.734130 0.439422 0.127766
O O8 0.821117 0.515557 0.169622
O O9 0.651428 0.543923 0.086286
O O10 0.673672 0.255707 0.047867
O O11 0.720677 0.500000 0.000000
O O12 0.390554 0.179382 0.130350
O O13 0.407639 0.296012 0.013153
O O14 0.874528 0.000000 0.500000
O O15 0.896434 0.864990 0.611906
#
# Coordination Sequence:
#
# PCOD9326883 Si02
#       6
#    16  16  16  16  16  16
#     4  10  22  39  66  96 125 163 218 278 348 408
#     4  11  22  36  61  93 130 176 224 263 326 397
#     4  10  20  36  60  94 126 170 223 264 313 395
#     4   9  18  37  61  88 122 162 213 268 329 395
#     4   9  20  37  61  87 127 177 215 269 333 390
#     4  10  20  37  60  88 127 170 210 267 331 398
#
# _framework density 21.442214
#
# number of rings (size 3 to 8) (size 9 to 14) (size 15 to 20)
#    0.000    2.167    1.667    1.000    4.667    4.000 
#    0.000    3.333    0.000   31.000    0.000    0.000 
#    0.000    0.000    0.000    0.000    0.000    0.000 
#
# Total GULP energy -133884.338332 kJ/mol
# GULP energy per Si atom -5578.514097 kJ/mol
# Density = 2.139341 g / cm^3
# Si number density = 21.442214 Si / 1000 Ang^3
#
#
#
# Elastic Constant Matrix: (Units=GPa)
#
#
# Indices 1 2 3 4 5 6 
#
# 1 73.4945 15.3781 41.9276 0.0000 0.0000 0.0000
# 2 15.3781 48.1407 39.3200 0.0000 0.0000 0.0000
# 3 41.9276 39.3200 111.6463 0.0000 0.0000 0.0000
# 4 0.0000 0.0000 0.0000 13.4505 0.0000 0.0000
# 5 0.0000 0.0000 0.0000 0.0000 20.0711 0.0000
# 6 0.0000 0.0000 0.0000 0.0000 0.0000 20.0320
#
#
#
# Elastic Compliance Matrix: (Units=1/GPa)
#
#
# Indices 1 2 3 4 5 6 
#
# 1 0.017320 -0.000309 -0.006395 0.000000 0.000000 0.000000
# 2 -0.000309 0.029166 -0.010156 0.000000 0.000000 0.000000
# 3 -0.006395 -0.010156 0.014935 0.000000 0.000000 0.000000
# 4 0.000000 0.000000 0.000000 0.074347 0.000000 0.000000
# 5 0.000000 0.000000 0.000000 0.000000 0.049823 0.000000
# 6 0.000000 0.000000 0.000000 0.000000 0.000000 0.049920
#
#
# Mechanical properties :
#
#
# Convention : Reuss Voigt Hill
#
# Bulk Modulus (GPa) = 36.10021 47.39252 41.74637
# Shear Modulus (GPa) = 17.95561 19.82111 18.88836
#
# Velocity S-wave (km/s) = 2.89692 3.04369 2.97121
# Velocity P-wave (km/s) = 5.29737 5.87388 5.59306
#
# Compressibility (1/GPa) = 0.02770067
#
# Stress axis : x y z
#
# Youngs Moduli (GPa) = 57.73814 34.28632 66.95560
#
# Poissons Ratio (x) = 0.01060 0.42820
# Poissons Ratio (y) = 0.01784 0.67999
# Poissons Ratio (z) = 0.36926 0.34820
#
# Static dielectric constant tensor:
#      x y z
#    x 1.729450 0.000000 0.000000 
#    y 0.000000 1.861620 0.000000 
#    z 0.000000 0.000000 1.835890 
# 
# From -- ./inp_files/45690.got.cif
#   From: 2010.05.17/outbox.cif.g08.bks.cpg/sg22_23_cif.got.tgz:45690.got - 2010.06.03 23:40:54.
