data_PCOD9326241
_publ_section_title
;
Structure prediction by ZEFSAII (Michael W. Deem and Ramdas Pophale) SiO2 
 PCOD9326241
Probable space group: F 2 2 2
;
_chemical_formula_sum "Si O2"
_cell_formula_units_Z 96
_cell_length_a 10.626109
_cell_length_b 26.559038
_cell_length_c 16.612321
_cell_angle_alpha 90.000000
_cell_angle_beta 90.000000
_cell_angle_gamma 90.000000
_cell_volume 4688.316486
_symmetry_space_group_name_H-M "F 2 2 2"
_symmetry_group_IT_number 22
_symmetry_cell_setting 'orthorhombic'
loop_
_space_group_symop_operation_xyz
x,y,z
-x,-y,z
x,-y,-z
-x,y,-z
x,1/2+y,1/2+z
-x,1/2-y,1/2+z
x,1/2-y,1/2-z
-x,1/2+y,1/2-z
1/2+x,y,1/2+z
1/2-x,-y,1/2+z
1/2+x,-y,1/2-z
1/2-x,y,1/2-z
1/2+x,1/2+y,z
1/2-x,1/2-y,z
1/2+x,1/2-y,-z
1/2-x,1/2+y,-z
loop_
_atom_site_type_symbol
_atom_site_label
_atom_site_fract_x
_atom_site_fract_y
_atom_site_fract_z
Si Si1 0.457962 0.580630 0.849930
Si Si2 0.794168 0.481566 0.342325
Si Si3 0.236978 0.642681 0.570903
Si Si4 0.750000 0.750000 0.106102
Si Si5 0.615509 0.578259 0.555894
Si Si6 0.027600 0.141095 0.311622
Si Si7 0.447502 0.250000 0.250000
O O1 0.354154 0.536367 0.853118
O O2 0.593569 0.556703 0.866779
O O3 0.401503 0.624684 0.904612
O O4 0.467059 0.601973 0.760536
O O5 0.750000 0.475056 0.250000
O O6 0.677828 0.468353 0.398751
O O7 0.250894 0.701148 0.550474
O O8 0.287543 0.606592 0.502091
O O9 0.333302 0.641114 0.647665
O O10 0.636799 0.740734 0.169933
O O11 0.500000 0.563266 0.500000
O O12 0.565467 0.618962 0.621140
O O13 0.991922 0.196139 0.275250
#
# Coordination Sequence:
#
# PCOD9326241 Si02
#       7
#    16  16  16   8  16  16   8
#     4  11  22  38  65  92 127 165 209 264 308 374
#     4  11  23  41  64  93 126 167 213 255 314 377
#     4  10  20  36  60  94 127 166 209 259 317 374
#     4   9  16  30  58  92 123 160 212 260 305 370
#     4  10  23  42  64  90 133 167 206 261 317 380
#     4  10  18  37  62  95 127 162 210 264 311 374
#     4   9  16  28  62  97 116 158 217 260 307 364
#
# _framework density 20.476433
#
# number of rings (size 3 to 8) (size 9 to 14) (size 15 to 20)
#    0.000    1.833    3.333    1.500    0.000    1.333 
#    0.000    7.500    7.333    1.000    0.000    0.000 
#    0.000    0.000    0.000    0.000    0.000    0.000 
#
# Total GULP energy -133932.133129 kJ/mol
# GULP energy per Si atom -5580.505547 kJ/mol
# Density = 2.042983 g / cm^3
# Si number density = 20.476433 Si / 1000 Ang^3
#
#
#
# Elastic Constant Matrix: (Units=GPa)
#
#
# Indices 1 2 3 4 5 6 
#
# 1 56.7256 28.3248 26.7073 0.0000 0.0000 0.0000
# 2 28.3248 87.7947 33.5021 0.0000 0.0000 0.0000
# 3 26.7073 33.5021 80.0753 0.0000 0.0000 0.0000
# 4 0.0000 0.0000 0.0000 11.8539 0.0000 0.0000
# 5 0.0000 0.0000 0.0000 0.0000 5.5185 0.0000
# 6 0.0000 0.0000 0.0000 0.0000 0.0000 15.8012
#
#
#
# Elastic Compliance Matrix: (Units=1/GPa)
#
#
# Indices 1 2 3 4 5 6 
#
# 1 0.022815 -0.005304 -0.005390 0.000000 0.000000 0.000000
# 2 -0.005304 0.014787 -0.004418 0.000000 0.000000 0.000000
# 3 -0.005390 -0.004418 0.016134 0.000000 0.000000 0.000000
# 4 0.000000 0.000000 0.000000 0.084360 0.000000 0.000000
# 5 0.000000 0.000000 0.000000 0.000000 0.181207 0.000000
# 6 0.000000 0.000000 0.000000 0.000000 0.000000 0.063286
#
#
# Mechanical properties :
#
#
# Convention : Reuss Voigt Hill
#
# Bulk Modulus (GPa) = 42.53020 44.62934 43.57977
# Shear Modulus (GPa) = 11.88631 15.70550 13.79591
#
# Velocity S-wave (km/s) = 2.41194 2.77249 2.59848
# Velocity P-wave (km/s) = 5.34528 5.66495 5.50744
#
# Compressibility (1/GPa) = 0.02351270
#
# Stress axis : x y z
#
# Youngs Moduli (GPa) = 43.83093 67.62647 61.97942
#
# Poissons Ratio (x) = 0.35867 0.33409
# Poissons Ratio (y) = 0.23247 0.27381
# Poissons Ratio (z) = 0.23627 0.29876
#
# Static dielectric constant tensor:
#      x y z
#    x 1.764790 0.000000 0.000000 
#    y 0.000000 1.802620 0.000000 
#    z 0.000000 0.000000 1.692130 
# 
# From -- ./inp_files/36348.got.cif
#   From: 2010.05.17/outbox.cif.g08.bks.cpg/sg22_19_cif.got.tgz:36348.got - 2010.06.03 23:40:54.
