data_PCOD9326939
_publ_section_title
;
Structure prediction by ZEFSAII (Michael W. Deem and Ramdas Pophale) SiO2 
 PCOD9326939
Probable space group: F 2 2 2
;
_chemical_formula_sum "Si O2"
_cell_formula_units_Z 44
_cell_length_a 25.549495
_cell_length_b 4.888308
_cell_length_c 14.086808
_cell_angle_alpha 90.000000
_cell_angle_beta 90.000000
_cell_angle_gamma 90.000000
_cell_volume 1759.354992
_symmetry_space_group_name_H-M "F 2 2 2"
_symmetry_group_IT_number 22
_symmetry_cell_setting 'orthorhombic'
loop_
_space_group_symop_operation_xyz
x,y,z
-x,-y,z
x,-y,-z
-x,y,-z
x,1/2+y,1/2+z
-x,1/2-y,1/2+z
x,1/2-y,1/2-z
-x,1/2+y,1/2-z
1/2+x,y,1/2+z
1/2-x,-y,1/2+z
1/2+x,-y,1/2-z
1/2-x,y,1/2-z
1/2+x,1/2+y,z
1/2-x,1/2-y,z
1/2+x,1/2-y,-z
1/2-x,1/2+y,-z
loop_
_atom_site_type_symbol
_atom_site_label
_atom_site_fract_x
_atom_site_fract_y
_atom_site_fract_z
Si Si1 0.250000 0.250000 0.750000
Si Si2 0.613999 0.101617 0.354620
Si Si3 0.819130 0.436113 0.902937
Si Si4 0.500000 0.000000 0.321558
O O1 0.215743 0.444242 0.817690
O O2 0.613176 0.250000 0.250000
O O3 0.634296 0.345726 0.417994
O O4 0.554617 0.020746 0.376015
O O5 0.654455 0.850382 0.371186
O O6 0.787548 0.500000 0.000000
O O7 0.493137 0.250000 0.250000
#
# Coordination Sequence:
#
# PCOD9326939 Si02
#       4
#     4  16  16   8
#     4  12  32  54  82  98 158 204 258 320 394 444
#     4  11  23  47  74 112 155 199 249 313 380 454
#     4  12  28  50  76 112 152 198 264 320 386 460
#     4  10  20  36  73 112 147 200 254 288 371 470
#
# _framework density 25.009164999999999
#
# number of rings (size 3 to 8) (size 9 to 14) (size 15 to 20)
#    0.000    0.727    1.818    6.545    0.000    5.818 
#    0.000    5.455    0.000    0.000    0.000    0.000 
#    0.000    0.000    0.000    0.000    0.000    0.000 
#
# Total GULP energy -61470.656847 kJ/mol
# GULP energy per Si atom -5588.241532 kJ/mol
# Density = 2.495224 g / cm^3
# Si number density = 25.009165 Si / 1000 Ang^3
#
#
#
# Elastic Constant Matrix: (Units=GPa)
#
#
# Indices 1 2 3 4 5 6 
#
# 1 141.1683 62.9900 59.5924 0.0005 -0.0001 -0.0002
# 2 62.9900 214.9799 63.8550 0.0024 -0.0005 -0.0001
# 3 59.5924 63.8550 155.8740 0.0007 -0.0001 -0.0002
# 4 0.0005 0.0024 0.0007 35.6343 -0.0001 -0.0002
# 5 -0.0001 -0.0005 -0.0001 -0.0001 -0.3826 0.0002
# 6 -0.0002 -0.0001 -0.0002 -0.0002 0.0002 47.7510
#
#
#
# Elastic Compliance Matrix: (Units=1/GPa)
#
#
# Indices 1 2 3 4 5 6 
#
# 1 0.009049 -0.001849 -0.002702 0.000000 0.000002 0.000000
# 2 -0.001849 0.005674 -0.001617 0.000000 -0.000007 0.000000
# 3 -0.002702 -0.001617 0.008111 0.000000 0.000000 0.000000
# 4 0.000000 0.000000 0.000000 0.028063 -0.000008 0.000000
# 5 0.000002 -0.000007 0.000000 -0.000008 -2.613881 0.000012
# 6 0.000000 0.000000 0.000000 0.000000 0.000012 0.020942
#
#
# Mechanical properties :
#
#
# Convention : Reuss Voigt Hill
#
# Bulk Modulus (GPa) = 95.26426 98.32189 96.79307
# Shear Modulus (GPa) = -1.97925 38.30620 18.16348
#
# Velocity S-wave (km/s) = -0.89058 3.91792 2.69787
# Velocity P-wave (km/s) = 6.09237 7.73735 6.96360
#
# Compressibility (1/GPa) = 0.01049712
#
# Stress axis : x y z
#
# Youngs Moduli (GPa) = 110.50384 176.25023 123.28684
#
# Poissons Ratio (x) = 0.32586 0.33316
# Poissons Ratio (y) = 0.20431 0.19941
# Poissons Ratio (z) = 0.29862 0.28508
#
# Static dielectric constant tensor:
#      x y z
#    x 2.037580 0.000000 0.000000 
#    y 0.000000 1.933990 0.000000 
#    z 0.000000 0.000000 2.336270 
# 
# From -- ./inp_files/32768.got.cif
#   From: 2010.05.17/outbox.cif.g08.bks.cpg/sg22_17_cif.got.tgz:32768.got - 2010.06.03 23:40:54.
