data_PCOD9326613
_publ_section_title
;
Structure prediction by ZEFSAII (Michael W. Deem and Ramdas Pophale) SiO2 
 PCOD9326613
Probable space group: F 2 2 2
;
_chemical_formula_sum "Si O2"
_cell_formula_units_Z 80
_cell_length_a 14.060443
_cell_length_b 24.697199
_cell_length_c 9.483255
_cell_angle_alpha 90.000000
_cell_angle_beta 90.000000
_cell_angle_gamma 90.000000
_cell_volume 3293.094048
_symmetry_space_group_name_H-M "F 2 2 2"
_symmetry_group_IT_number 22
_symmetry_cell_setting 'orthorhombic'
loop_
_space_group_symop_operation_xyz
x,y,z
-x,-y,z
x,-y,-z
-x,y,-z
x,1/2+y,1/2+z
-x,1/2-y,1/2+z
x,1/2-y,1/2-z
-x,1/2+y,1/2-z
1/2+x,y,1/2+z
1/2-x,-y,1/2+z
1/2+x,-y,1/2-z
1/2-x,y,1/2-z
1/2+x,1/2+y,z
1/2-x,1/2-y,z
1/2+x,1/2-y,-z
1/2-x,1/2+y,-z
loop_
_atom_site_type_symbol
_atom_site_label
_atom_site_fract_x
_atom_site_fract_y
_atom_site_fract_z
Si Si1 0.886737 0.007096 0.659971
Si Si2 0.509704 0.809922 0.283749
Si Si3 0.857878 0.395237 0.239504
Si Si4 0.864590 0.621127 0.079086
Si Si5 0.706822 0.196936 0.590847
O O1 0.865854 0.070271 0.685173
O O2 0.846607 0.000000 0.500000
O O3 0.855907 0.959970 0.767421
O O4 0.000000 0.000000 0.653635
O O5 0.470748 0.750000 0.250000
O O6 0.430014 0.854651 0.315888
O O7 0.570056 0.832738 0.148831
O O8 0.594092 0.802814 0.397665
O O9 0.750000 0.375588 0.250000
O O10 0.897289 0.394332 0.077654
O O11 0.758400 0.642310 0.047017
O O12 0.750000 0.199355 0.750000
O O13 0.750000 0.250000 0.516033
#
# Coordination Sequence:
#
# PCOD9326613 Si02
#       5
#    16  16  16  16  16
#     4   9  17  34  61  85 108 153 204 238 284 347
#     4  11  20  37  58  85 116 151 201 247 285 343
#     4  11  24  39  55  89 129 156 192 241 304 366
#     4  10  19  38  64  87 115 157 197 247 298 350
#     4   9  16  33  59  86 106 140 205 253 280 335
#
# _framework density 24.293265000000002
#
# number of rings (size 3 to 8) (size 9 to 14) (size 15 to 20)
#    0.000    2.000    6.000    0.600    0.000    2.800 
#    3.600    1.000    0.000    0.000    0.000    0.000 
#    0.000    0.000    0.000    0.000    0.000    0.000 
#
# Total GULP energy -111472.067405 kJ/mol
# GULP energy per Si atom -5573.603370 kJ/mol
# Density = 2.423797 g / cm^3
# Si number density = 24.293265 Si / 1000 Ang^3
#
#
#
# Elastic Constant Matrix: (Units=GPa)
#
#
# Indices 1 2 3 4 5 6 
#
# 1 159.4447 65.3579 -7.8852 0.0000 0.0000 0.0000
# 2 65.3579 180.2516 11.5206 0.0000 0.0000 0.0000
# 3 -7.8852 11.5206 42.1476 0.0000 0.0000 0.0000
# 4 0.0000 0.0000 0.0000 7.7200 0.0000 0.0000
# 5 0.0000 0.0000 0.0000 0.0000 11.8923 0.0000
# 6 0.0000 0.0000 0.0000 0.0000 0.0000 28.3386
#
#
#
# Elastic Compliance Matrix: (Units=1/GPa)
#
#
# Indices 1 2 3 4 5 6 
#
# 1 0.007562 -0.002883 0.002203 0.000000 0.000000 0.000000
# 2 -0.002883 0.006745 -0.002383 0.000000 0.000000 0.000000
# 3 0.002203 -0.002383 0.024790 0.000000 0.000000 0.000000
# 4 0.000000 0.000000 0.000000 0.129534 0.000000 0.000000
# 5 0.000000 0.000000 0.000000 0.000000 0.084088 0.000000
# 6 0.000000 0.000000 0.000000 0.000000 0.000000 0.035287
#
#
# Mechanical properties :
#
#
# Convention : Reuss Voigt Hill
#
# Bulk Modulus (GPa) = 30.32956 57.75895 44.04425
# Shear Modulus (GPa) = 16.38681 30.44690 23.41685
#
# Velocity S-wave (km/s) = 2.60001 3.54405 3.10808
# Velocity P-wave (km/s) = 4.63953 6.36980 5.57224
#
# Compressibility (1/GPa) = 0.03297113
#
# Stress axis : x y z
#
# Youngs Moduli (GPa) = 132.23282 148.24863 40.33942
#
# Poissons Ratio (x) = 0.42738 -0.08886
# Poissons Ratio (y) = 0.38121 0.09613
# Poissons Ratio (z) = -0.29129 0.35330
#
# Static dielectric constant tensor:
#      x y z
#    x 1.997940 0.000000 0.000000 
#    y 0.000000 2.180650 0.000000 
#    z 0.000000 0.000000 2.043320 
# 
# From -- ./inp_files/19815.got.cif
#   From: 2010.05.17/outbox.cif.g08.bks.cpg/sg22_10_cif.got.tgz:19815.got - 2010.06.03 23:40:54.
