data_PCOD9326955
_publ_section_title
;
Structure prediction by ZEFSAII (Michael W. Deem and Ramdas Pophale) SiO2 
 PCOD9326955
Probable space group: F 2 2 2
;
_chemical_formula_sum "Si O2"
_cell_formula_units_Z 68
_cell_length_a 16.066243
_cell_length_b 20.393649
_cell_length_c 10.977726
_cell_angle_alpha 90.000000
_cell_angle_beta 90.000000
_cell_angle_gamma 90.000000
_cell_volume 3596.844464
_symmetry_space_group_name_H-M "F 2 2 2"
_symmetry_group_IT_number 22
_symmetry_cell_setting 'orthorhombic'
loop_
_space_group_symop_operation_xyz
x,y,z
-x,-y,z
x,-y,-z
-x,y,-z
x,1/2+y,1/2+z
-x,1/2-y,1/2+z
x,1/2-y,1/2-z
-x,1/2+y,1/2-z
1/2+x,y,1/2+z
1/2-x,-y,1/2+z
1/2+x,-y,1/2-z
1/2-x,y,1/2-z
1/2+x,1/2+y,z
1/2-x,1/2-y,z
1/2+x,1/2-y,-z
1/2-x,1/2+y,-z
loop_
_atom_site_type_symbol
_atom_site_label
_atom_site_fract_x
_atom_site_fract_y
_atom_site_fract_z
Si Si1 0.845047 0.135513 0.886624
Si Si2 0.007035 0.212996 0.871527
Si Si3 0.750000 0.750000 0.250000
Si Si4 0.175840 0.636086 0.339424
Si Si5 0.902852 0.000705 0.850922
O O1 0.804749 0.199136 0.826860
O O2 0.850687 0.066061 0.818153
O O3 0.942986 0.153703 0.897539
O O4 0.801486 0.128643 0.017909
O O5 0.979749 0.250000 0.750000
O O6 0.099157 0.186792 0.843546
O O7 0.000000 0.252024 0.000000
O O8 0.250000 0.655566 0.250000
O O9 0.140052 0.565022 0.302895
O O10 0.000000 0.000000 0.813834
O O11 0.902491 0.000000 0.000000
#
# Coordination Sequence:
#
# PCOD9326955 Si02
#       5
#    16  16   4  16  16
#     4  10  21  37  56  85 118 157 196 244 301 367
#     4  10  20  37  59  84 116 158 201 244 309 367
#     4  12  24  36  58  84 118 156 198 238 308 368
#     4  10  21  35  58  88 117 148 200 257 303 346
#     4   9  16  33  60  82 109 151 200 247 292 360
#
# _framework density 18.905459
#
# number of rings (size 3 to 8) (size 9 to 14) (size 15 to 20)
#    0.000    2.118    3.529    0.000    1.647    4.235 
#    0.000    0.000    0.000    0.000    0.000    3.294 
#    0.000    0.000    0.000    0.000    0.000    0.000 
#
# Total GULP energy -94636.881133 kJ/mol
# GULP energy per Si atom -5566.875361 kJ/mol
# Density = 1.886243 g / cm^3
# Si number density = 18.905459 Si / 1000 Ang^3
#
#
#
# Elastic Constant Matrix: (Units=GPa)
#
#
# Indices 1 2 3 4 5 6 
#
# 1 110.3726 33.1896 44.7330 0.0000 0.0000 0.0000
# 2 33.1896 95.5135 39.1520 0.0000 0.0000 0.0000
# 3 44.7330 39.1520 88.3822 0.0000 0.0000 0.0000
# 4 0.0000 0.0000 0.0000 13.5033 0.0000 0.0000
# 5 0.0000 0.0000 0.0000 0.0000 27.7152 0.0000
# 6 0.0000 0.0000 0.0000 0.0000 0.0000 22.5207
#
#
#
# Elastic Compliance Matrix: (Units=1/GPa)
#
#
# Indices 1 2 3 4 5 6 
#
# 1 0.011704 -0.002002 -0.005037 0.000000 0.000000 0.000000
# 2 -0.002002 0.013135 -0.004805 0.000000 0.000000 0.000000
# 3 -0.005037 -0.004805 0.015992 0.000000 0.000000 0.000000
# 4 0.000000 0.000000 0.000000 0.074056 0.000000 0.000000
# 5 0.000000 0.000000 0.000000 0.000000 0.036081 0.000000
# 6 0.000000 0.000000 0.000000 0.000000 0.000000 0.044404
#
#
# Mechanical properties :
#
#
# Convention : Reuss Voigt Hill
#
# Bulk Modulus (GPa) = 58.33332 58.71304 58.52318
# Shear Modulus (GPa) = 22.24448 24.56073 23.40260
#
# Velocity S-wave (km/s) = 3.43391 3.60826 3.52216
# Velocity P-wave (km/s) = 6.82968 6.96297 6.89665
#
# Compressibility (1/GPa) = 0.01714286
#
# Stress axis : x y z
#
# Youngs Moduli (GPa) = 85.44383 76.13110 62.52994
#
# Poissons Ratio (x) = 0.15244 0.31494
# Poissons Ratio (y) = 0.17108 0.30047
# Poissons Ratio (z) = 0.43034 0.36583
#
# Static dielectric constant tensor:
#      x y z
#    x 1.719850 0.000000 0.000000 
#    y 0.000000 1.688180 0.000000 
#    z 0.000000 0.000000 1.718670 
# 
# From -- ./inp_files/11259.got.cif
#   From: 2010.05.17/outbox.cif.g08.bks.cpg/sg22_6_cif.got.tgz:11259.got - 2010.06.03 23:40:54.
