data_PCOD9326571
_publ_section_title
;
Structure prediction by ZEFSAII (Michael W. Deem and Ramdas Pophale) SiO2 
 PCOD9326571
Probable space group: F 2 2 2
;
_chemical_formula_sum "Si O2"
_cell_formula_units_Z 116
_cell_length_a 24.205449
_cell_length_b 29.178258
_cell_length_c 8.643703
_cell_angle_alpha 90.000000
_cell_angle_beta 90.000000
_cell_angle_gamma 90.000000
_cell_volume 6104.812631
_symmetry_space_group_name_H-M "F 2 2 2"
_symmetry_group_IT_number 22
_symmetry_cell_setting 'orthorhombic'
loop_
_space_group_symop_operation_xyz
x,y,z
-x,-y,z
x,-y,-z
-x,y,-z
x,1/2+y,1/2+z
-x,1/2-y,1/2+z
x,1/2-y,1/2-z
-x,1/2+y,1/2-z
1/2+x,y,1/2+z
1/2-x,-y,1/2+z
1/2+x,-y,1/2-z
1/2-x,y,1/2-z
1/2+x,1/2+y,z
1/2-x,1/2-y,z
1/2+x,1/2-y,-z
1/2-x,1/2+y,-z
loop_
_atom_site_type_symbol
_atom_site_label
_atom_site_fract_x
_atom_site_fract_y
_atom_site_fract_z
Si Si1 0.146093 0.403089 0.161924
Si Si2 0.140292 0.695956 0.234698
Si Si3 0.089008 0.063305 0.831841
Si Si4 0.850860 0.139319 0.971747
Si Si5 0.687500 0.497294 0.812810
Si Si6 0.270184 0.127912 0.904233
Si Si7 0.059387 0.369074 0.938846
Si Si8 0.000000 0.500000 0.500000
O O1 0.144788 0.362030 0.287786
O O2 0.163083 0.449040 0.251197
O O3 0.190120 0.396668 0.024292
O O4 0.088427 0.398382 0.074700
O O5 0.145384 0.750000 0.250000
O O6 0.129040 0.678243 0.409748
O O7 0.195343 0.670638 0.167470
O O8 0.094099 0.675163 0.119310
O O9 0.116463 0.094978 0.964145
O O10 0.062156 0.096940 0.707052
O O11 0.141195 0.034765 0.764717
O O12 0.041720 0.030750 0.898970
O O13 0.785618 0.137761 0.005213
O O14 0.750000 0.501223 0.750000
O O15 0.689456 0.500000 0.000000
O O16 0.250000 0.101520 0.750000
O O17 0.000000 0.355680 0.000000
#
# Coordination Sequence:
#
# PCOD9326571 Si02
#       8
#    16  16  16  16  16  16  16   4
#     4  11  22  40  59  89 124 170 214 267 324 391
#     4   9  20  41  66  96 127 161 209 261 328 398
#     4  11  25  42  63  91 124 173 220 281 331 390
#     4  10  19  37  62  91 124 165 207 252 329 395
#     4  12  26  41  59  91 131 167 223 278 335 399
#     4   9  19  35  62  89 124 164 202 254 320 406
#     4  10  25  43  64  88 126 167 218 270 332 400
#     4  12  24  44  70  88 128 164 246 286 320 392
#
# _framework density 19.001403
#
# number of rings (size 3 to 8) (size 9 to 14) (size 15 to 20)
#    0.000    1.655    2.069    2.069    5.793    5.241 
#    0.000    4.138    0.000    6.621    0.000    0.000 
#    0.000    0.000    0.000    0.000    0.000    0.000 
#
# Total GULP energy -161673.007510 kJ/mol
# GULP energy per Si atom -5574.931293 kJ/mol
# Density = 1.895816 g / cm^3
# Si number density = 19.001403 Si / 1000 Ang^3
#
#
#
# Elastic Constant Matrix: (Units=GPa)
#
#
# Indices 1 2 3 4 5 6 
#
# 1 118.3354 26.2719 27.8456 -0.0011 0.0027 0.0013
# 2 26.2719 93.7332 35.6769 -0.0011 0.0017 0.0009
# 3 27.8456 35.6769 106.9938 -0.0027 0.0064 0.0013
# 4 -0.0011 -0.0011 -0.0027 15.2396 0.0023 0.0009
# 5 0.0027 0.0017 0.0064 0.0023 23.4884 -0.0020
# 6 0.0013 0.0009 0.0013 0.0009 -0.0020 7.8585
#
#
#
# Elastic Compliance Matrix: (Units=1/GPa)
#
#
# Indices 1 2 3 4 5 6 
#
# 1 0.009297 -0.001930 -0.001776 0.000000 0.000000 -0.000001
# 2 -0.001930 0.012620 -0.003706 0.000000 0.000000 0.000000
# 3 -0.001776 -0.003706 0.011044 0.000002 -0.000003 -0.000001
# 4 0.000000 0.000000 0.000002 0.065619 -0.000007 -0.000008
# 5 0.000000 0.000000 -0.000003 -0.000007 0.042574 0.000011
# 6 -0.000001 0.000000 -0.000001 -0.000008 0.000011 0.127251
#
#
# Mechanical properties :
#
#
# Convention : Reuss Voigt Hill
#
# Bulk Modulus (GPa) = 55.13365 55.40568 55.26967
# Shear Modulus (GPa) = 17.28464 24.60183 20.94324
#
# Velocity S-wave (km/s) = 3.01931 3.60215 3.32353
# Velocity P-wave (km/s) = 6.42134 6.82075 6.62406
#
# Compressibility (1/GPa) = 0.01813774
#
# Stress axis : x y z
#
# Youngs Moduli (GPa) = 107.56253 79.23926 90.54452
#
# Poissons Ratio (x) = 0.15291 0.16081
# Poissons Ratio (y) = 0.20757 0.33555
# Poissons Ratio (z) = 0.19104 0.29365
#
# Static dielectric constant tensor:
#      x y z
#    x 1.681800 0.000000 0.000000 
#    y 0.000000 1.672930 0.000000 
#    z 0.000000 0.000000 1.693480 
# 
# From -- ./inp_files/14178.got.cif
#   From: 2010.05.17/outbox.cif.g08.bks.cpg/sg22_8_cif.got.tgz:14178.got - 2010.06.03 23:40:54.
