data_PCOD9326786
_publ_section_title
;
Structure prediction by ZEFSAII (Michael W. Deem and Ramdas Pophale) SiO2 
 PCOD9326786
Probable space group: F 2 2 2
;
_chemical_formula_sum "Si O2"
_cell_formula_units_Z 108
_cell_length_a 13.042180
_cell_length_b 15.637680
_cell_length_c 23.299868
_cell_angle_alpha 90.000000
_cell_angle_beta 90.000000
_cell_angle_gamma 90.000000
_cell_volume 4751.994969
_symmetry_space_group_name_H-M "F 2 2 2"
_symmetry_group_IT_number 22
_symmetry_cell_setting 'orthorhombic'
loop_
_space_group_symop_operation_xyz
x,y,z
-x,-y,z
x,-y,-z
-x,y,-z
x,1/2+y,1/2+z
-x,1/2-y,1/2+z
x,1/2-y,1/2-z
-x,1/2+y,1/2-z
1/2+x,y,1/2+z
1/2-x,-y,1/2+z
1/2+x,-y,1/2-z
1/2-x,y,1/2-z
1/2+x,1/2+y,z
1/2-x,1/2-y,z
1/2+x,1/2-y,-z
1/2-x,1/2+y,-z
loop_
_atom_site_type_symbol
_atom_site_label
_atom_site_fract_x
_atom_site_fract_y
_atom_site_fract_z
Si Si1 0.183369 0.392260 0.051861
Si Si2 0.226881 0.469938 0.627687
Si Si3 0.750000 0.542215 0.750000
Si Si4 0.674081 0.824045 0.928132
Si Si5 0.469461 0.096234 0.782638
Si Si6 0.485347 0.402285 0.849957
Si Si7 0.039021 0.278822 0.116364
Si Si8 0.000000 0.500000 0.000000
O O1 0.265747 0.455337 0.080871
O O2 0.143708 0.318661 0.093646
O O3 0.213190 0.353959 0.990544
O O4 0.078606 0.445350 0.038285
O O5 0.230398 0.509253 0.691553
O O6 0.320826 0.408470 0.611113
O O7 0.135116 0.401019 0.633717
O O8 0.651610 0.597515 0.732488
O O9 0.750000 0.750000 0.907785
O O10 0.556787 0.794450 0.926896
O O11 0.511899 0.102368 0.717607
O O12 0.507025 0.170123 0.825271
O O13 0.500000 0.000000 0.803588
O O14 0.500000 0.500000 0.869243
O O15 0.542754 0.322775 0.876751
#
# Coordination Sequence:
#
# PCOD9326786 Si02
#       8
#    16  16   8  16  16  16  16   4
#     4  12  24  39  67  95 134 167 224 279 348 400
#     4  11  21  41  63  94 129 176 207 278 336 412
#     4  10  20  34  61  96 133 164 220 262 345 408
#     4  12  23  39  62  95 132 166 221 278 338 400
#     4  10  21  37  63  99 135 172 220 283 347 411
#     4  10  24  43  62  89 136 182 225 269 335 415
#     4  12  22  39  66  98 130 172 222 287 335 400
#     4  12  20  36  60  96 128 160 196 276 342 396
#
# _framework density 22.727297
#
# number of rings (size 3 to 8) (size 9 to 14) (size 15 to 20)
#    0.000    0.889    5.926    1.333    1.037    1.185 
#    0.000    1.111    0.000    0.000    0.000    6.222 
#    0.000    0.000    0.000    0.000    0.000    0.000 
#
# Total GULP energy -150570.464902 kJ/mol
# GULP energy per Si atom -5576.683885 kJ/mol
# Density = 2.267557 g / cm^3
# Si number density = 22.727297 Si / 1000 Ang^3
#
#
#
# Elastic Constant Matrix: (Units=GPa)
#
#
# Indices 1 2 3 4 5 6 
#
# 1 37.6406 18.7337 7.5840 0.0000 0.0000 0.0000
# 2 18.7337 136.3445 48.7869 0.0000 0.0000 0.0000
# 3 7.5840 48.7869 101.7274 0.0000 0.0000 0.0000
# 4 0.0000 0.0000 0.0000 16.5824 0.0000 0.0000
# 5 0.0000 0.0000 0.0000 0.0000 24.3171 0.0000
# 6 0.0000 0.0000 0.0000 0.0000 0.0000 32.6320
#
#
#
# Elastic Compliance Matrix: (Units=1/GPa)
#
#
# Indices 1 2 3 4 5 6 
#
# 1 0.028525 -0.003813 -0.000298 0.000000 0.000000 0.000000
# 2 -0.003813 0.009363 -0.004206 0.000000 0.000000 0.000000
# 3 -0.000298 -0.004206 0.011870 0.000000 0.000000 0.000000
# 4 0.000000 0.000000 0.000000 0.060305 0.000000 0.000000
# 5 0.000000 0.000000 0.000000 0.000000 0.041123 0.000000
# 6 0.000000 0.000000 0.000000 0.000000 0.000000 0.030645
#
#
# Mechanical properties :
#
#
# Convention : Reuss Voigt Hill
#
# Bulk Modulus (GPa) = 30.18990 47.32464 38.75727
# Shear Modulus (GPa) = 23.86569 28.08016 25.97293
#
# Velocity S-wave (km/s) = 3.24402 3.51882 3.38421
# Velocity P-wave (km/s) = 5.22915 6.11371 5.68865
#
# Compressibility (1/GPa) = 0.03312367
#
# Stress axis : x y z
#
# Youngs Moduli (GPa) = 35.05742 106.79997 84.24824
#
# Poissons Ratio (x) = 0.40719 0.02512
# Poissons Ratio (y) = 0.13366 0.35437
# Poissons Ratio (z) = 0.01045 0.44923
#
# Static dielectric constant tensor:
#      x y z
#    x 2.063320 0.000000 0.000000 
#    y 0.000000 1.850330 0.000000 
#    z 0.000000 0.000000 1.897280 
# 
# From -- ./inp_files/48996.got.cif
#   From: 2010.05.17/outbox.cif.g08.bks.cpg/sg22_25_cif.got.tgz:48996.got - 2010.06.03 23:40:54.
