data_PCOD9326637
_publ_section_title
;
Structure prediction by ZEFSAII (Michael W. Deem and Ramdas Pophale) SiO2 
 PCOD9326637
Probable space group: F 2 2 2
;
_chemical_formula_sum "Si O2"
_cell_formula_units_Z 60
_cell_length_a 8.066729
_cell_length_b 19.658111
_cell_length_c 18.124134
_cell_angle_alpha 90.000000
_cell_angle_beta 90.000000
_cell_angle_gamma 90.000000
_cell_volume 2874.064528
_symmetry_space_group_name_H-M "F 2 2 2"
_symmetry_group_IT_number 22
_symmetry_cell_setting 'orthorhombic'
loop_
_space_group_symop_operation_xyz
x,y,z
-x,-y,z
x,-y,-z
-x,y,-z
x,1/2+y,1/2+z
-x,1/2-y,1/2+z
x,1/2-y,1/2-z
-x,1/2+y,1/2-z
1/2+x,y,1/2+z
1/2-x,-y,1/2+z
1/2+x,-y,1/2-z
1/2-x,y,1/2-z
1/2+x,1/2+y,z
1/2-x,1/2-y,z
1/2+x,1/2-y,-z
1/2-x,1/2+y,-z
loop_
_atom_site_type_symbol
_atom_site_label
_atom_site_fract_x
_atom_site_fract_y
_atom_site_fract_z
Si Si1 0.945399 0.427431 0.124524
Si Si2 0.432815 0.279096 0.669680
Si Si3 0.251699 0.101671 0.014990
Si Si4 0.000000 0.000000 0.000000
Si Si5 0.250000 0.250000 0.435150
O O1 0.924857 0.361287 0.174522
O O2 0.000000 0.500000 0.157719
O O3 0.094425 0.411050 0.068136
O O4 0.791959 0.425994 0.066936
O O5 0.472956 0.250000 0.750000
O O6 0.250000 0.250000 0.649026
O O7 0.583172 0.260126 0.614077
O O8 0.223592 0.181971 0.017156
O O9 0.107178 0.054252 0.045413
#
# Coordination Sequence:
#
# PCOD9326637 Si02
#       5
#    16  16  16   4   8
#     4  10  19  39  59  84 124 163 191 245 316 363
#     4  10  23  41  64  86 117 163 214 257 291 355
#     4  10  21  33  57  94 125 156 191 243 310 373
#     4  12  20  30  56  92 136 144 196 240 296 380
#     4  10  23  38  62  90 123 164 198 250 310 360
#
# _framework density 20.876356999999999
#
# number of rings (size 3 to 8) (size 9 to 14) (size 15 to 20)
#    0.000    1.867    2.667    1.200    5.600    2.133 
#    0.000    0.000   26.400    0.000    0.000    0.000 
#    0.000    0.000    0.000    0.000    0.000    0.000 
#
# Total GULP energy -83582.262800 kJ/mol
# GULP energy per Si atom -5572.150853 kJ/mol
# Density = 2.082884 g / cm^3
# Si number density = 20.876357 Si / 1000 Ang^3
#
#
#
# Elastic Constant Matrix: (Units=GPa)
#
#
# Indices 1 2 3 4 5 6 
#
# 1 101.9420 48.4085 9.4586 0.0000 0.0000 0.0000
# 2 48.4085 237.4505 39.4068 0.0000 0.0000 0.0000
# 3 9.4586 39.4068 44.8516 0.0000 0.0000 0.0000
# 4 0.0000 0.0000 0.0000 24.5188 0.0000 0.0000
# 5 0.0000 0.0000 0.0000 0.0000 6.0096 0.0000
# 6 0.0000 0.0000 0.0000 0.0000 0.0000 33.1633
#
#
#
# Elastic Compliance Matrix: (Units=1/GPa)
#
#
# Indices 1 2 3 4 5 6 
#
# 1 0.010867 -0.002148 -0.000404 0.000000 0.000000 0.000000
# 2 -0.002148 0.005355 -0.004252 0.000000 0.000000 0.000000
# 3 -0.000404 -0.004252 0.026117 0.000000 0.000000 0.000000
# 4 0.000000 0.000000 0.000000 0.040785 0.000000 0.000000
# 5 0.000000 0.000000 0.000000 0.000000 0.166400 0.000000
# 6 0.000000 0.000000 0.000000 0.000000 0.000000 0.030154
#
#
# Mechanical properties :
#
#
# Convention : Reuss Voigt Hill
#
# Bulk Modulus (GPa) = 34.80677 64.31021 49.55849
# Shear Modulus (GPa) = 16.50911 31.86970 24.18940
#
# Velocity S-wave (km/s) = 2.81518 3.91140 3.40766
# Velocity P-wave (km/s) = 5.22264 7.16037 6.26685
#
# Compressibility (1/GPa) = 0.02873005
#
# Stress axis : x y z
#
# Youngs Moduli (GPa) = 92.02012 186.74057 38.28970
#
# Poissons Ratio (x) = 0.40119 0.01548
# Poissons Ratio (y) = 0.19770 0.16280
# Poissons Ratio (z) = 0.03719 0.79400
#
# Static dielectric constant tensor:
#      x y z
#    x 2.060650 0.000000 0.000000 
#    y 0.000000 1.802510 0.000000 
#    z 0.000000 0.000000 1.730930 
# 
# From -- ./inp_files/10982.got.cif
#   From: 2010.05.17/outbox.cif.g08.bks.cpg/sg22_6_cif.got.tgz:10982.got - 2010.06.03 23:40:54.
