data_PCOD9326155
_publ_section_title
;
Structure prediction by ZEFSAII (Michael W. Deem and Ramdas Pophale) SiO2 
 PCOD9326155
Probable space group: F 2 2 2
;
_chemical_formula_sum "Si O2"
_cell_formula_units_Z 84
_cell_length_a 21.790675
_cell_length_b 15.078377
_cell_length_c 10.698493
_cell_angle_alpha 90.000000
_cell_angle_beta 90.000000
_cell_angle_gamma 90.000000
_cell_volume 3515.182584
_symmetry_space_group_name_H-M "F 2 2 2"
_symmetry_group_IT_number 22
_symmetry_cell_setting 'orthorhombic'
loop_
_space_group_symop_operation_xyz
x,y,z
-x,-y,z
x,-y,-z
-x,y,-z
x,1/2+y,1/2+z
-x,1/2-y,1/2+z
x,1/2-y,1/2-z
-x,1/2+y,1/2-z
1/2+x,y,1/2+z
1/2-x,-y,1/2+z
1/2+x,-y,1/2-z
1/2-x,y,1/2-z
1/2+x,1/2+y,z
1/2-x,1/2-y,z
1/2+x,1/2-y,-z
1/2-x,1/2+y,-z
loop_
_atom_site_type_symbol
_atom_site_label
_atom_site_fract_x
_atom_site_fract_y
_atom_site_fract_z
Si Si1 0.481981 0.105322 0.635334
Si Si2 0.339473 0.618645 0.209790
Si Si3 0.032707 0.597954 0.883127
Si Si4 0.206348 0.399223 0.448679
Si Si5 0.333150 0.079894 0.187928
Si Si6 0.250000 0.750000 0.250000
O O1 0.500000 0.141250 0.500000
O O2 0.411643 0.117809 0.678300
O O3 0.520019 0.142344 0.750873
O O4 0.500000 0.000000 0.628092
O O5 0.325869 0.521812 0.266441
O O6 0.302234 0.681662 0.302964
O O7 0.310208 0.648573 0.076326
O O8 0.105231 0.588089 0.890973
O O9 0.000000 0.500000 0.876560
O O10 0.000000 0.642554 0.000000
O O11 0.194723 0.500000 0.500000
O O12 0.274755 0.393717 0.394207
O O13 0.166251 0.374676 0.326075
#
# Coordination Sequence:
#
# PCOD9326155 Si02
#       6
#    16  16  16  16  16   4
#     4  10  19  34  61  90 119 147 191 262 317 355
#     4  11  21  39  56  84 125 158 213 237 300 381
#     4  10  19  28  47  84 126 150 167 230 333 373
#     4   9  19  29  53  81 113 149 189 262 310 345
#     4  10  18  34  55  89 121 144 193 262 329 354
#     4  12  28  40  56  82 120 188 196 240 284 370
#
# _framework density 23.896339999999999
#
# number of rings (size 3 to 8) (size 9 to 14) (size 15 to 20)
#    0.000    1.905    3.810    3.429    8.000    1.524 
#    0.000    0.000    0.000    6.857    0.000    0.000 
#    0.000    0.000    0.000    0.000    0.000    0.000 
#
# Total GULP energy -116931.708334 kJ/mol
# GULP energy per Si atom -5568.176587 kJ/mol
# Density = 2.384195 g / cm^3
# Si number density = 23.896340 Si / 1000 Ang^3
#
#
#
# Elastic Constant Matrix: (Units=GPa)
#
#
# Indices 1 2 3 4 5 6 
#
# 1 186.0589 21.0815 32.5754 0.0000 0.0000 0.0000
# 2 21.0815 38.7532 17.8892 0.0000 0.0000 0.0000
# 3 32.5754 17.8892 133.2327 0.0000 0.0000 0.0000
# 4 0.0000 0.0000 0.0000 8.0984 0.0000 0.0000
# 5 0.0000 0.0000 0.0000 0.0000 42.0582 0.0000
# 6 0.0000 0.0000 0.0000 0.0000 0.0000 -33.7002
#
#
#
# Elastic Compliance Matrix: (Units=1/GPa)
#
#
# Indices 1 2 3 4 5 6 
#
# 1 0.005868 -0.002697 -0.001073 0.000000 0.000000 0.000000
# 2 -0.002697 0.028749 -0.003201 0.000000 0.000000 0.000000
# 3 -0.001073 -0.003201 0.008198 0.000000 0.000000 0.000000
# 4 0.000000 0.000000 0.000000 0.123481 0.000000 0.000000
# 5 0.000000 0.000000 0.000000 0.000000 0.023777 0.000000
# 6 0.000000 0.000000 0.000000 0.000000 0.000000 -0.029673
#
#
# Mechanical properties :
#
#
# Convention : Reuss Voigt Hill
#
# Bulk Modulus (GPa) = 34.63326 55.68189 45.15758
# Shear Modulus (GPa) = 27.17926 22.39121 24.78523
#
# Velocity S-wave (km/s) = 3.37617 3.06439 3.22405
# Velocity P-wave (km/s) = 5.45184 5.98938 5.72692
#
# Compressibility (1/GPa) = 0.02887398
#
# Stress axis : x y z
#
# Youngs Moduli (GPa) = 170.41516 34.78387 121.98585
#
# Poissons Ratio (x) = 0.09381 0.13084
# Poissons Ratio (y) = 0.45962 0.39044
# Poissons Ratio (z) = 0.18279 0.11133
#
# Static dielectric constant tensor:
#      x y z
#    x 1.965180 0.000000 0.000000 
#    y 0.000000 2.055320 0.000000 
#    z 0.000000 0.000000 2.518900 
# 
# From -- ./inp_files/22756.got.cif
#   From: 2010.05.17/outbox.cif.g08.bks.cpg/sg22_12_cif.got.tgz:22756.got - 2010.06.03 23:40:54.
