data_PCOD9326371
_publ_section_title
;
Structure prediction by ZEFSAII (Michael W. Deem and Ramdas Pophale) SiO2 
 PCOD9326371
Probable space group: F 2 2 2
;
_chemical_formula_sum "Si O2"
_cell_formula_units_Z 88
_cell_length_a 30.738305
_cell_length_b 5.129684
_cell_length_c 22.710653
_cell_angle_alpha 90.000000
_cell_angle_beta 90.000000
_cell_angle_gamma 90.000000
_cell_volume 3580.965605
_symmetry_space_group_name_H-M "F 2 2 2"
_symmetry_group_IT_number 22
_symmetry_cell_setting 'orthorhombic'
loop_
_space_group_symop_operation_xyz
x,y,z
-x,-y,z
x,-y,-z
-x,y,-z
x,1/2+y,1/2+z
-x,1/2-y,1/2+z
x,1/2-y,1/2-z
-x,1/2+y,1/2-z
1/2+x,y,1/2+z
1/2-x,-y,1/2+z
1/2+x,-y,1/2-z
1/2-x,y,1/2-z
1/2+x,1/2+y,z
1/2-x,1/2-y,z
1/2+x,1/2-y,-z
1/2-x,1/2+y,-z
loop_
_atom_site_type_symbol
_atom_site_label
_atom_site_fract_x
_atom_site_fract_y
_atom_site_fract_z
Si Si1 0.204595 0.308741 0.426370
Si Si2 0.518986 0.749211 0.065030
Si Si3 0.796131 0.692260 0.846051
Si Si4 0.032189 0.250000 0.750000
Si Si5 0.385091 0.324495 0.417754
Si Si6 0.889027 0.175623 0.158930
O O1 0.250000 0.250000 0.458605
O O2 0.203956 0.600067 0.400756
O O3 0.158181 0.240385 0.454409
O O4 0.204716 0.099955 0.372028
O O5 0.500000 0.500000 0.097179
O O6 0.569675 0.752967 0.053861
O O7 0.500000 0.000000 0.096831
O O8 0.500000 0.749366 0.000000
O O9 0.750000 0.750000 0.815874
O O10 0.841736 0.747518 0.814400
O O11 0.067687 0.218978 0.803222
O O12 0.000000 0.500000 0.754354
O O13 0.389337 0.621241 0.395998
O O14 0.384906 0.123072 0.362311
#
# Coordination Sequence:
#
# PCOD9326371 Si02
#       6
#    16  16  16   8  16  16
#     4   8  14  25  44  72 100 124 156 200 245 292
#     4  10  21  35  51  75 103 130 161 206 258 301
#     4   8  14  27  47  70  97 124 156 205 254 297
#     4  12  26  40  51  68 101 140 176 222 260 288
#     4  10  19  33  55  77  99 131 170 209 251 307
#     4  10  21  35  52  75 100 133 175 211 252 305
#
# _framework density 24.574375
#
# number of rings (size 3 to 8) (size 9 to 14) (size 15 to 20)
#    0.000    2.545    0.000    2.182    0.000    4.364 
#    0.000    0.455    0.000    0.000    0.000   19.091 
#    0.000    0.000    0.000    0.000    0.000    0.000 
#
# Total GULP energy -122739.248336 kJ/mol
# GULP energy per Si atom -5579.056743 kJ/mol
# Density = 2.451844 g / cm^3
# Si number density = 24.574375 Si / 1000 Ang^3
#
#
#
# Elastic Constant Matrix: (Units=GPa)
#
#
# Indices 1 2 3 4 5 6 
#
# 1 288.9178 25.3851 30.6199 -0.0004 0.0697 -0.0004
# 2 25.3851 165.3519 11.9954 -0.0205 -0.1410 -0.0021
# 3 30.6199 11.9954 43.2425 -0.0036 0.0644 0.0006
# 4 -0.0004 -0.0205 -0.0036 -1.3237 -0.0575 -0.0025
# 5 0.0697 -0.1410 0.0644 -0.0575-1385.4130 -0.1925
# 6 -0.0004 -0.0021 0.0006 -0.0025 -0.1925 42.9625
#
#
#
# Elastic Compliance Matrix: (Units=1/GPa)
#
#
# Indices 1 2 3 4 5 6 
#
# 1 0.003767 -0.000393 -0.002558 0.000012 0.000000 0.000000
# 2 -0.000393 0.006213 -0.001445 -0.000092 -0.000001 0.000000
# 3 -0.002558 -0.001445 0.025338 -0.000046 0.000001 0.000000
# 4 0.000012 -0.000092 -0.000046 -0.755464 0.000031 -0.000043
# 5 0.000000 -0.000001 0.000001 0.000031 -0.000722 -0.000003
# 6 0.000000 0.000000 0.000000 -0.000043 -0.000003 0.023276
#
#
# Mechanical properties :
#
#
# Convention : Reuss Voigt Hill
#
# Bulk Modulus (GPa) = 37.70064 70.39031 54.04548
# Shear Modulus (GPa) = -7.35340 -240.12073 -123.73706
#
# Velocity S-wave (km/s) = -1.73170 -9.89565 -7.10362
# Velocity P-wave (km/s) = 3.37289 10.09254 6.72618
#
# Compressibility (1/GPa) = 0.02652475
#
# Stress axis : x y z
#
# Youngs Moduli (GPa) = 265.47501 160.95707 39.46655
#
# Poissons Ratio (x) = 0.06321 0.10097
# Poissons Ratio (y) = 0.10425 0.05704
# Poissons Ratio (z) = 0.67918 0.23264
#
# Static dielectric constant tensor:
#      x y z
#    x 2.049770 0.000180 0.000000 
#    y 0.000180 2.665270 0.000110 
#    z 0.000000 0.000110 1.827250 
# 
# From -- ./inp_files/57242.got.cif
#   From: 2010.05.17/outbox.cif.g08.bks.cpg/sg22_29_cif.got.tgz:57242.got - 2010.06.03 23:40:54.
