data_PCOD9326940
_publ_section_title
;
Structure prediction by ZEFSAII (Michael W. Deem and Ramdas Pophale) SiO2 
 PCOD9326940
Probable space group: F 2 2 2
;
_chemical_formula_sum "Si O2"
_cell_formula_units_Z 88
_cell_length_a 5.148815
_cell_length_b 31.186535
_cell_length_c 23.864377
_cell_angle_alpha 90.000000
_cell_angle_beta 90.000000
_cell_angle_gamma 90.000000
_cell_volume 3831.991294
_symmetry_space_group_name_H-M "F 2 2 2"
_symmetry_group_IT_number 22
_symmetry_cell_setting 'orthorhombic'
loop_
_space_group_symop_operation_xyz
x,y,z
-x,-y,z
x,-y,-z
-x,y,-z
x,1/2+y,1/2+z
-x,1/2-y,1/2+z
x,1/2-y,1/2-z
-x,1/2+y,1/2-z
1/2+x,y,1/2+z
1/2-x,-y,1/2+z
1/2+x,-y,1/2-z
1/2-x,y,1/2-z
1/2+x,1/2+y,z
1/2-x,1/2-y,z
1/2+x,1/2-y,-z
1/2-x,1/2+y,-z
loop_
_atom_site_type_symbol
_atom_site_label
_atom_site_fract_x
_atom_site_fract_y
_atom_site_fract_z
Si Si1 0.154147 0.682777 0.807323
Si Si2 0.750000 0.118325 0.250000
Si Si3 0.749313 0.028692 0.816947
Si Si4 0.477013 0.893254 0.643432
Si Si5 0.768455 0.865984 0.534803
Si Si6 0.500035 0.722396 0.581531
O O1 0.250000 0.703627 0.750000
O O2 0.366761 0.654214 0.841214
O O3 0.954318 0.648288 0.782084
O O4 0.033926 0.714346 0.852187
O O5 0.629680 0.092458 0.300661
O O6 0.750000 0.038931 0.750000
O O7 0.753272 0.071308 0.855580
O O8 0.500000 0.000000 0.827820
O O9 0.000000 0.000000 0.829955
O O10 0.654739 0.889727 0.589347
O O11 0.500000 0.856154 0.500000
O O12 0.927914 0.823977 0.556408
O O13 0.000000 0.889044 0.500000
O O14 0.750000 0.750000 0.570238
O O15 0.250000 0.750000 0.562309
#
# Coordination Sequence:
#
# PCOD9326940 Si02
#       6
#    16   8  16  16  16  16
#     4  10  22  40  62  98 134 187 233 283 349 433
#     4  10  20  36  73  94 136 184 234 292 340 422
#     4  10  23  38  63 107 155 186 214 267 350 428
#     4  11  23  42  70 101 143 186 240 286 349 417
#     4  12  27  48  73  99 134 187 252 309 352 418
#     4  12  26  46  67  96 139 179 232 302 372 425
#
# _framework density 22.964563999999999
#
# number of rings (size 3 to 8) (size 9 to 14) (size 15 to 20)
#    0.000    1.091    1.818    4.909    8.909    1.818 
#    0.000    1.818    0.000    0.545    0.000    5.091 
#    0.000    0.000    0.000    0.000    0.000    0.000 
#
# Total GULP energy -122957.019711 kJ/mol
# GULP energy per Si atom -5588.955441 kJ/mol
# Density = 2.291230 g / cm^3
# Si number density = 22.964564 Si / 1000 Ang^3
#
#
#
# Elastic Constant Matrix: (Units=GPa)
#
#
# Indices 1 2 3 4 5 6 
#
# 1 160.0910 34.9203 62.3568 0.0000 0.0000 0.0000
# 2 34.9203 75.0358 28.6750 0.0000 0.0000 0.0000
# 3 62.3568 28.6750 136.5681 0.0000 0.0000 0.0000
# 4 0.0000 0.0000 0.0000 -37.8310 0.0000 0.0000
# 5 0.0000 0.0000 0.0000 0.0000 95.7029 0.0000
# 6 0.0000 0.0000 0.0000 0.0000 0.0000 4.4396
#
#
#
# Elastic Compliance Matrix: (Units=1/GPa)
#
#
# Indices 1 2 3 4 5 6 
#
# 1 0.008018 -0.002536 -0.003129 0.000000 0.000000 0.000000
# 2 -0.002536 0.015292 -0.002053 0.000000 0.000000 0.000000
# 3 -0.003129 -0.002053 0.009182 0.000000 0.000000 0.000000
# 4 0.000000 0.000000 0.000000 -0.026433 0.000000 0.000000
# 5 0.000000 0.000000 0.000000 0.000000 0.010449 0.000000
# 6 0.000000 0.000000 0.000000 0.000000 0.000000 0.225247
#
#
# Mechanical properties :
#
#
# Convention : Reuss Voigt Hill
#
# Bulk Modulus (GPa) = 58.62719 69.28879 63.95799
# Shear Modulus (GPa) = 19.02046 28.84515 23.93280
#
# Velocity S-wave (km/s) = 2.88106 3.54796 3.23176
# Velocity P-wave (km/s) = 6.05410 6.85722 6.46814
#
# Compressibility (1/GPa) = 0.01705693
#
# Stress axis : x y z
#
# Youngs Moduli (GPa) = 124.71572 65.39517 108.90952
#
# Poissons Ratio (x) = 0.16584 0.34074
# Poissons Ratio (y) = 0.31627 0.22358
# Poissons Ratio (z) = 0.39019 0.13425
#
# Static dielectric constant tensor:
#      x y z
#    x 1.976060 0.000000 0.000000 
#    y 0.000000 1.447140 0.000000 
#    z 0.000000 0.000000 1.924800 
# 
# From -- ./inp_files/46667.got.cif
#   From: 2010.05.17/outbox.cif.g08.bks.cpg/sg22_24_cif.got.tgz:46667.got - 2010.06.03 23:40:54.
