data_PCOD9326936
_publ_section_title
;
Structure prediction by ZEFSAII (Michael W. Deem and Ramdas Pophale) SiO2 
 PCOD9326936
Probable space group: F 2 2 2
;
_chemical_formula_sum "Si O2"
_cell_formula_units_Z 68
_cell_length_a 8.218622
_cell_length_b 24.174579
_cell_length_c 15.799194
_cell_angle_alpha 90.000000
_cell_angle_beta 90.000000
_cell_angle_gamma 90.000000
_cell_volume 3139.011146
_symmetry_space_group_name_H-M "F 2 2 2"
_symmetry_group_IT_number 22
_symmetry_cell_setting 'orthorhombic'
loop_
_space_group_symop_operation_xyz
x,y,z
-x,-y,z
x,-y,-z
-x,y,-z
x,1/2+y,1/2+z
-x,1/2-y,1/2+z
x,1/2-y,1/2-z
-x,1/2+y,1/2-z
1/2+x,y,1/2+z
1/2-x,-y,1/2+z
1/2+x,-y,1/2-z
1/2-x,y,1/2-z
1/2+x,1/2+y,z
1/2-x,1/2-y,z
1/2+x,1/2-y,-z
1/2-x,1/2+y,-z
loop_
_atom_site_type_symbol
_atom_site_label
_atom_site_fract_x
_atom_site_fract_y
_atom_site_fract_z
Si Si1 0.500000 0.830435 0.500000
Si Si2 0.449192 0.149510 0.098628
Si Si3 0.612000 0.912983 0.375072
Si Si4 0.925688 0.556749 0.792464
Si Si5 0.500000 0.500000 0.000000
Si Si6 0.750000 0.250000 0.575111
O O1 0.487679 0.869479 0.418427
O O2 0.346191 0.792402 0.516254
O O3 0.286307 0.114797 0.118687
O O4 0.579012 0.111692 0.148944
O O5 0.387172 0.212216 0.122127
O O6 0.500000 0.151070 0.000000
O O7 0.549180 0.929292 0.284048
O O8 0.609965 0.964383 0.437955
O O9 0.750000 0.546150 0.750000
O O10 0.000000 0.500000 0.832441
#
# Coordination Sequence:
#
# PCOD9326936 Si02
#       6
#     8  16  16  16   4   8
#     4   9  20  35  68  90 127 168 227 276 344 402
#     4  11  25  43  72 100 136 186 241 289 359 426
#     4  10  22  40  65  98 135 178 227 282 346 423
#     4  12  27  44  67 102 152 187 233 300 358 429
#     4  10  20  36  70  92 134 184 220 268 350 408
#     4  10  20  42  69  95 136 174 232 292 344 419
#
# _framework density 21.662873999999999
#
# number of rings (size 3 to 8) (size 9 to 14) (size 15 to 20)
#    0.000    1.412    2.353    2.118    9.882    0.471 
#    0.000    9.412    0.000    7.059    0.000    0.000 
#    0.000    0.000    0.000    0.000    0.000    0.000 
#
# Total GULP energy -94802.790927 kJ/mol
# GULP energy per Si atom -5576.634760 kJ/mol
# Density = 2.161357 g / cm^3
# Si number density = 21.662874 Si / 1000 Ang^3
#
#
#
# Elastic Constant Matrix: (Units=GPa)
#
#
# Indices 1 2 3 4 5 6 
#
# 1 80.8157 21.5740 1.5412 0.0000 0.0000 0.0000
# 2 21.5740 124.3979 34.0604 0.0000 0.0000 0.0000
# 3 1.5412 34.0604 67.6170 0.0000 0.0000 0.0000
# 4 0.0000 0.0000 0.0000 17.4365 0.0000 0.0000
# 5 0.0000 0.0000 0.0000 0.0000 27.5344 0.0000
# 6 0.0000 0.0000 0.0000 0.0000 0.0000 39.3042
#
#
#
# Elastic Compliance Matrix: (Units=1/GPa)
#
#
# Indices 1 2 3 4 5 6 
#
# 1 0.013030 -0.002527 0.000976 0.000000 0.000000 0.000000
# 2 -0.002527 0.009815 -0.004886 0.000000 0.000000 0.000000
# 3 0.000976 -0.004886 0.017228 0.000000 0.000000 0.000000
# 4 0.000000 0.000000 0.000000 0.057351 0.000000 0.000000
# 5 0.000000 0.000000 0.000000 0.000000 0.036318 0.000000
# 6 0.000000 0.000000 0.000000 0.000000 0.000000 0.025443
#
#
# Mechanical properties :
#
#
# Convention : Reuss Voigt Hill
#
# Bulk Modulus (GPa) = 36.76724 43.02020 39.89372
# Shear Modulus (GPa) = 27.60514 31.23203 29.41858
#
# Velocity S-wave (km/s) = 3.57362 3.80113 3.68913
# Velocity P-wave (km/s) = 5.83412 6.25834 6.04995
#
# Compressibility (1/GPa) = 0.02719812
#
# Stress axis : x y z
#
# Youngs Moduli (GPa) = 76.74724 101.88636 58.04393
#
# Poissons Ratio (x) = 0.25746 -0.05664
# Poissons Ratio (y) = 0.19393 0.28363
# Poissons Ratio (z) = -0.07490 0.49786
#
# Static dielectric constant tensor:
#      x y z
#    x 1.853710 0.000000 0.000000 
#    y 0.000000 1.897330 0.000000 
#    z 0.000000 0.000000 1.773970 
# 
# From -- ./inp_files/11462.got.cif
#   From: 2010.05.17/outbox.cif.g08.bks.cpg/sg22_6_cif.got.tgz:11462.got - 2010.06.03 23:40:54.
