data_PCOD9326251
_publ_section_title
;
Structure prediction by ZEFSAII (Michael W. Deem and Ramdas Pophale) SiO2 
 PCOD9326251
Probable space group: F 2 2 2
;
_chemical_formula_sum "Si O2"
_cell_formula_units_Z 120
_cell_length_a 20.858421
_cell_length_b 20.868156
_cell_length_c 10.938431
_cell_angle_alpha 90.000000
_cell_angle_beta 90.000000
_cell_angle_gamma 90.000000
_cell_volume 4761.245060
_symmetry_space_group_name_H-M "F 2 2 2"
_symmetry_group_IT_number 22
_symmetry_cell_setting 'orthorhombic'
loop_
_space_group_symop_operation_xyz
x,y,z
-x,-y,z
x,-y,-z
-x,y,-z
x,1/2+y,1/2+z
-x,1/2-y,1/2+z
x,1/2-y,1/2-z
-x,1/2+y,1/2-z
1/2+x,y,1/2+z
1/2-x,-y,1/2+z
1/2+x,-y,1/2-z
1/2-x,y,1/2-z
1/2+x,1/2+y,z
1/2-x,1/2-y,z
1/2+x,1/2-y,-z
1/2-x,1/2+y,-z
loop_
_atom_site_type_symbol
_atom_site_label
_atom_site_fract_x
_atom_site_fract_y
_atom_site_fract_z
Si Si1 0.206311 0.662792 0.865038
Si Si2 0.584710 0.198892 0.975636
Si Si3 0.686619 0.500000 0.000000
Si Si4 0.479417 0.872440 0.769280
Si Si5 0.703805 0.869594 0.578548
Si Si6 0.875044 0.389520 0.195692
Si Si7 0.633379 0.535556 0.267082
Si Si8 0.932706 0.838177 0.023303
O O1 0.250000 0.678553 0.750000
O O2 0.145731 0.707936 0.886618
O O3 0.177796 0.590984 0.828820
O O4 0.248695 0.667773 0.989605
O O5 0.530169 0.167052 0.892936
O O6 0.567155 0.267052 0.032665
O O7 0.613779 0.149360 0.072820
O O8 0.726596 0.557780 0.942585
O O9 0.649117 0.476036 0.877461
O O10 0.554285 0.882494 0.742324
O O11 0.438922 0.937695 0.779865
O O12 0.440522 0.832825 0.668054
O O13 0.681600 0.860368 0.719222
O O14 0.633489 0.867724 0.516108
O O15 0.862334 0.464630 0.177155
O O16 0.000000 0.874287 0.000000
#
# Coordination Sequence:
#
# PCOD9326251 Si02
#       8
#    16  16   8  16  16  16  16  16
#     4  11  23  47  69  98 137 183 243 308 353 451
#     4  11  27  43  68  98 145 194 247 293 379 439
#     4  10  18  38  63  98 136 176 225 288 362 434
#     4  11  21  42  68 103 140 189 238 302 364 445
#     4  11  23  40  70  99 141 183 239 294 368 427
#     4  11  24  43  63 109 143 193 232 301 376 450
#     4  10  22  39  68 103 144 182 239 293 374 437
#     4  12  23  44  70 107 137 185 239 311 361 433
#
# _framework density 25.203489999999999
#
# number of rings (size 3 to 8) (size 9 to 14) (size 15 to 20)
#    0.000    1.067    4.000    2.800    0.000    4.800 
#    0.000    5.667    0.000    1.600    0.000    0.000 
#    0.000    0.000    0.000    0.000    0.000    0.000 
#
# Total GULP energy -167531.839202 kJ/mol
# GULP energy per Si atom -5584.394640 kJ/mol
# Density = 2.514613 g / cm^3
# Si number density = 25.203490 Si / 1000 Ang^3
#
#
#
# Elastic Constant Matrix: (Units=GPa)
#
#
# Indices 1 2 3 4 5 6 
#
# 1 159.4878 11.6039 11.4569 0.0000 0.0000 0.0000
# 2 11.6039 79.1366 6.1452 0.0000 0.0000 0.0000
# 3 11.4569 6.1452 66.8151 0.0000 0.0000 0.0000
# 4 0.0000 0.0000 0.0000 0.7209 0.0000 0.0000
# 5 0.0000 0.0000 0.0000 0.0000 40.4383 0.0000
# 6 0.0000 0.0000 0.0000 0.0000 0.0000 21.9765
#
#
#
# Elastic Compliance Matrix: (Units=1/GPa)
#
#
# Indices 1 2 3 4 5 6 
#
# 1 0.006406 -0.000860 -0.001019 0.000000 0.000000 0.000000
# 2 -0.000860 0.012843 -0.001034 0.000000 0.000000 0.000000
# 3 -0.001019 -0.001034 0.015237 0.000000 0.000000 0.000000
# 4 0.000000 0.000000 0.000000 1.387065 0.000000 0.000000
# 5 0.000000 0.000000 0.000000 0.000000 0.024729 0.000000
# 6 0.000000 0.000000 0.000000 0.000000 0.000000 0.045503
#
#
# Mechanical properties :
#
#
# Convention : Reuss Voigt Hill
#
# Bulk Modulus (GPa) = 34.89321 40.42792 37.66057
# Shear Modulus (GPa) = 3.31749 31.04271 17.18010
#
# Velocity S-wave (km/s) = 1.14854 3.51334 2.61369
# Velocity P-wave (km/s) = 3.95392 5.70382 4.90750
#
# Compressibility (1/GPa) = 0.02865887
#
# Stress axis : x y z
#
# Youngs Moduli (GPa) = 156.10662 77.86484 65.63170
#
# Poissons Ratio (x) = 0.06698 0.06690
# Poissons Ratio (y) = 0.13427 0.06784
# Poissons Ratio (z) = 0.15912 0.08049
#
# Static dielectric constant tensor:
#      x y z
#    x 2.026900 0.000000 0.000000 
#    y 0.000000 2.007130 0.000000 
#    z 0.000000 0.000000 2.124010 
# 
# From -- ./inp_files/23021.got.cif
#   From: 2010.05.17/outbox.cif.g08.bks.cpg/sg22_12_cif.got.tgz:23021.got - 2010.06.03 23:40:54.
