data_PCOD9326469
_publ_section_title
;
Structure prediction by ZEFSAII (Michael W. Deem and Ramdas Pophale) SiO2 
 PCOD9326469
Probable space group: F 2 2 2
;
_chemical_formula_sum "Si O2"
_cell_formula_units_Z 88
_cell_length_a 30.033114
_cell_length_b 16.727364
_cell_length_c 9.048144
_cell_angle_alpha 90.000000
_cell_angle_beta 90.000000
_cell_angle_gamma 90.000000
_cell_volume 4545.559803
_symmetry_space_group_name_H-M "F 2 2 2"
_symmetry_group_IT_number 22
_symmetry_cell_setting 'orthorhombic'
loop_
_space_group_symop_operation_xyz
x,y,z
-x,-y,z
x,-y,-z
-x,y,-z
x,1/2+y,1/2+z
-x,1/2-y,1/2+z
x,1/2-y,1/2-z
-x,1/2+y,1/2-z
1/2+x,y,1/2+z
1/2-x,-y,1/2+z
1/2+x,-y,1/2-z
1/2-x,y,1/2-z
1/2+x,1/2+y,z
1/2-x,1/2-y,z
1/2+x,1/2-y,-z
1/2-x,1/2+y,-z
loop_
_atom_site_type_symbol
_atom_site_label
_atom_site_fract_x
_atom_site_fract_y
_atom_site_fract_z
Si Si1 0.813164 0.114223 0.746313
Si Si2 0.412363 0.838798 0.822720
Si Si3 0.256033 0.336320 0.001500
Si Si4 0.948703 0.584614 0.449275
Si Si5 0.750000 0.533582 0.750000
Si Si6 0.049178 0.251117 0.574016
O O1 0.863794 0.124692 0.702008
O O2 0.782737 0.157403 0.624022
O O3 0.801375 0.152857 0.904857
O O4 0.792782 0.024904 0.750506
O O5 0.414402 0.750000 0.750000
O O6 0.444580 0.895145 0.724625
O O7 0.425102 0.821053 0.992255
O O8 0.250000 0.250000 0.929851
O O9 0.250886 0.409387 0.890928
O O10 0.928481 0.500000 0.500000
O O11 0.929425 0.663223 0.529679
O O12 0.000000 0.582128 0.500000
O O13 0.045805 0.250000 0.750000
O O14 0.000000 0.248615 0.500000
#
# Coordination Sequence:
#
# PCOD9326469 Si02
#       6
#    16  16  16  16   8  16
#     4  10  19  36  55  78 110 150 186 223 274 338
#     4  10  20  35  58  84 112 150 197 237 280 346
#     4  10  19  35  58  80 109 146 184 224 275 336
#     4   9  18  34  55  80 111 148 188 235 286 341
#     4  10  21  36  57  84 114 142 178 232 287 334
#     4  10  19  36  60  83 111 151 196 242 292 345
#
# _framework density 19.359552000000001
#
# number of rings (size 3 to 8) (size 9 to 14) (size 15 to 20)
#    0.000    2.364    0.000    7.364    0.000    1.455 
#    0.000   10.000    0.000    5.455    0.000    0.000 
#    0.000    0.000    0.000    0.000    0.000    0.000 
#
# Total GULP energy -122599.212043 kJ/mol
# GULP energy per Si atom -5572.691456 kJ/mol
# Density = 1.931549 g / cm^3
# Si number density = 19.359552 Si / 1000 Ang^3
#
#
#
# Elastic Constant Matrix: (Units=GPa)
#
#
# Indices 1 2 3 4 5 6 
#
# 1 87.1154 25.2550 34.3930 0.0000 0.0000 0.0000
# 2 25.2550 137.8917 49.8323 0.0000 0.0000 0.0000
# 3 34.3930 49.8323 141.0117 0.0000 0.0000 0.0000
# 4 0.0000 0.0000 0.0000 11.1665 0.0000 0.0000
# 5 0.0000 0.0000 0.0000 0.0000 11.8567 0.0000
# 6 0.0000 0.0000 0.0000 0.0000 0.0000 1.1162
#
#
#
# Elastic Compliance Matrix: (Units=1/GPa)
#
#
# Indices 1 2 3 4 5 6 
#
# 1 0.012937 -0.001409 -0.002657 0.000000 0.000000 0.000000
# 2 -0.001409 0.008467 -0.002649 0.000000 0.000000 0.000000
# 3 -0.002657 -0.002649 0.008676 0.000000 0.000000 0.000000
# 4 0.000000 0.000000 0.000000 0.089553 0.000000 0.000000
# 5 0.000000 0.000000 0.000000 0.000000 0.084341 0.000000
# 6 0.000000 0.000000 0.000000 0.000000 0.000000 0.895864
#
#
# Mechanical properties :
#
#
# Convention : Reuss Voigt Hill
#
# Bulk Modulus (GPa) = 60.06105 64.99772 62.52938
# Shear Modulus (GPa) = 4.46900 21.93046 13.19973
#
# Velocity S-wave (km/s) = 1.52100 3.36936 2.61400
# Velocity P-wave (km/s) = 5.84602 6.98453 6.44048
#
# Compressibility (1/GPa) = 0.01664973
#
# Stress axis : x y z
#
# Youngs Moduli (GPa) = 77.29999 118.10127 115.26406
#
# Poissons Ratio (x) = 0.16641 0.30629
# Poissons Ratio (y) = 0.10892 0.30529
# Poissons Ratio (z) = 0.20541 0.31280
#
# Static dielectric constant tensor:
#      x y z
#    x 1.682910 0.000000 0.000000 
#    y 0.000000 1.721680 0.000000 
#    z 0.000000 0.000000 1.710140 
# 
# From -- ./inp_files/15542.got.cif
#   From: 2010.05.17/outbox.cif.g08.bks.cpg/sg22_8_cif.got.tgz:15542.got - 2010.06.03 23:40:54.
