data_PCOD9326946
_publ_section_title
;
Structure prediction by ZEFSAII (Michael W. Deem and Ramdas Pophale) SiO2 
 PCOD9326946
Probable space group: F 2 2 2
;
_chemical_formula_sum "Si O2"
_cell_formula_units_Z 80
_cell_length_a 10.217944
_cell_length_b 16.896927
_cell_length_c 25.715641
_cell_angle_alpha 90.000000
_cell_angle_beta 90.000000
_cell_angle_gamma 90.000000
_cell_volume 4439.853092
_symmetry_space_group_name_H-M "F 2 2 2"
_symmetry_group_IT_number 22
_symmetry_cell_setting 'orthorhombic'
loop_
_space_group_symop_operation_xyz
x,y,z
-x,-y,z
x,-y,-z
-x,y,-z
x,1/2+y,1/2+z
-x,1/2-y,1/2+z
x,1/2-y,1/2-z
-x,1/2+y,1/2-z
1/2+x,y,1/2+z
1/2-x,-y,1/2+z
1/2+x,-y,1/2-z
1/2-x,y,1/2-z
1/2+x,1/2+y,z
1/2-x,1/2-y,z
1/2+x,1/2-y,-z
1/2-x,1/2+y,-z
loop_
_atom_site_type_symbol
_atom_site_label
_atom_site_fract_x
_atom_site_fract_y
_atom_site_fract_z
Si Si1 0.345922 0.988128 0.057024
Si Si2 0.724322 0.835499 0.879036
Si Si3 0.978863 0.169849 0.282975
Si Si4 0.618443 0.441499 0.191135
Si Si5 0.640647 0.046882 0.835204
O O1 0.324238 0.900678 0.080289
O O2 0.500000 0.000000 0.051265
O O3 0.311634 0.047416 0.104697
O O4 0.284744 0.000000 0.000000
O O5 0.750000 0.750000 0.902513
O O6 0.622273 0.821966 0.831181
O O7 0.850451 0.875905 0.852474
O O8 0.997400 0.250000 0.250000
O O9 0.918331 0.106898 0.242501
O O10 0.108052 0.129346 0.307612
O O11 0.500000 0.500000 0.178642
O O12 0.748173 0.495738 0.192675
O O13 0.500000 0.000000 0.834728
#
# Coordination Sequence:
#
# PCOD9326946 Si02
#       5
#    16  16  16  16  16
#     4   9  17  34  62  87 107 139 196 253 285 324
#     4  11  21  36  57  88 113 148 197 240 282 342
#     4  12  22  33  54  84 121 155 189 235 286 335
#     4  11  24  34  55  82 121 159 193 229 283 345
#     4  10  20  37  56  85 113 148 199 235 276 348
#
# _framework density 18.018616000000002
#
# number of rings (size 3 to 8) (size 9 to 14) (size 15 to 20)
#    0.000    1.400    8.000    1.200    2.800    0.000 
#    0.000    2.000    0.000   24.000    0.000    0.000 
#    0.000    0.000    0.000    0.000    0.000    0.000 
#
# Total GULP energy -111437.441841 kJ/mol
# GULP energy per Si atom -5571.872092 kJ/mol
# Density = 1.797760 g / cm^3
# Si number density = 18.018616 Si / 1000 Ang^3
#
#
#
# Elastic Constant Matrix: (Units=GPa)
#
#
# Indices 1 2 3 4 5 6 
#
# 1 60.2125 44.8648 22.1219 0.0000 0.0000 0.0000
# 2 44.8648 136.4562 71.0674 0.0000 0.0000 0.0000
# 3 22.1219 71.0674 142.4224 0.0000 0.0000 0.0000
# 4 0.0000 0.0000 0.0000 35.2342 0.0000 0.0000
# 5 0.0000 0.0000 0.0000 0.0000 7.9316 0.0000
# 6 0.0000 0.0000 0.0000 0.0000 0.0000 21.1312
#
#
#
# Elastic Compliance Matrix: (Units=1/GPa)
#
#
# Indices 1 2 3 4 5 6 
#
# 1 0.022004 -0.007370 0.000260 0.000000 0.000000 0.000000
# 2 -0.007370 0.012370 -0.005028 0.000000 0.000000 0.000000
# 3 0.000260 -0.005028 0.009490 0.000000 0.000000 0.000000
# 4 0.000000 0.000000 0.000000 0.028381 0.000000 0.000000
# 5 0.000000 0.000000 0.000000 0.000000 0.126078 0.000000
# 6 0.000000 0.000000 0.000000 0.000000 0.000000 0.047323
#
#
# Mechanical properties :
#
#
# Convention : Reuss Voigt Hill
#
# Bulk Modulus (GPa) = 51.05213 68.35549 59.70381
# Shear Modulus (GPa) = 18.08635 26.26186 22.17411
#
# Velocity S-wave (km/s) = 3.17165 3.82184 3.51183
# Velocity P-wave (km/s) = 6.46583 7.58246 7.04630
#
# Compressibility (1/GPa) = 0.01958782
#
# Stress axis : x y z
#
# Youngs Moduli (GPa) = 45.44690 80.84132 105.37588
#
# Poissons Ratio (x) = 0.59578 -0.02736
# Poissons Ratio (y) = 0.33493 0.52980
# Poissons Ratio (z) = -0.01180 0.40645
#
# Static dielectric constant tensor:
#      x y z
#    x 1.631150 0.000000 0.000000 
#    y 0.000000 1.647230 0.000000 
#    z 0.000000 0.000000 1.700900 
# 
# From -- ./inp_files/51762.got.cif
#   From: 2010.05.17/outbox.cif.g08.bks.cpg/sg22_26_cif.got.tgz:51762.got - 2010.06.03 23:40:54.
