data_PCOD9326916
_publ_section_title
;
Structure prediction by ZEFSAII (Michael W. Deem and Ramdas Pophale) SiO2 
 PCOD9326916
Probable space group: F 2 2 2
;
_chemical_formula_sum "Si O2"
_cell_formula_units_Z 96
_cell_length_a 22.723704
_cell_length_b 9.135271
_cell_length_c 18.243673
_cell_angle_alpha 90.000000
_cell_angle_beta 90.000000
_cell_angle_gamma 90.000000
_cell_volume 3787.152889
_symmetry_space_group_name_H-M "F 2 2 2"
_symmetry_group_IT_number 22
_symmetry_cell_setting 'orthorhombic'
loop_
_space_group_symop_operation_xyz
x,y,z
-x,-y,z
x,-y,-z
-x,y,-z
x,1/2+y,1/2+z
-x,1/2-y,1/2+z
x,1/2-y,1/2-z
-x,1/2+y,1/2-z
1/2+x,y,1/2+z
1/2-x,-y,1/2+z
1/2+x,-y,1/2-z
1/2-x,y,1/2-z
1/2+x,1/2+y,z
1/2-x,1/2-y,z
1/2+x,1/2-y,-z
1/2-x,1/2+y,-z
loop_
_atom_site_type_symbol
_atom_site_label
_atom_site_fract_x
_atom_site_fract_y
_atom_site_fract_z
Si Si1 0.868491 0.911593 0.712834
Si Si2 0.080107 0.181913 0.173393
Si Si3 0.329578 0.800372 0.068738
Si Si4 0.813676 0.505451 0.652478
Si Si5 0.068606 0.329116 0.487039
Si Si6 0.500000 0.500000 0.249973
Si Si7 0.250000 0.250000 0.064042
O O1 0.874728 0.750000 0.750000
O O2 0.839516 0.914633 0.632775
O O3 0.936601 0.974111 0.710549
O O4 0.813951 0.976815 0.760608
O O5 0.105366 0.250000 0.250000
O O6 0.116355 0.035408 0.153943
O O7 0.014852 0.135084 0.196468
O O8 0.079809 0.246793 0.092640
O O9 0.303045 0.653112 0.107559
O O10 0.395305 0.759672 0.045641
O O11 0.295346 0.824312 0.993205
O O12 0.781896 0.370576 0.613828
O O13 0.087933 0.500000 0.500000
O O14 0.000000 0.327767 0.500000
#
# Coordination Sequence:
#
# PCOD9326916 Si02
#       7
#    16  16  16  16  16   8   8
#     4   9  21  39  70 105 147 193 247 288 360 442
#     4  11  22  37  63 104 143 183 235 287 358 434
#     4  11  22  44  72 104 140 194 242 302 367 440
#     4  10  22  45  67 102 138 186 238 301 358 449
#     4  11  21  35  67 105 145 185 238 295 359 439
#     4  10  20  36  63  97 154 192 230 284 356 434
#     4  12  22  42  78  98 142 180 244 322 374 417
#
# _framework density 25.348858
#
# number of rings (size 3 to 8) (size 9 to 14) (size 15 to 20)
#    0.000    1.500    3.333    2.000    7.000    0.000 
#    0.000   12.500    0.000    1.000    0.000    0.000 
#    0.000    0.000    0.000    0.000    0.000    0.000 
#
# Total GULP energy -133658.914969 kJ/mol
# GULP energy per Si atom -5569.121457 kJ/mol
# Density = 2.529116 g / cm^3
# Si number density = 25.348858 Si / 1000 Ang^3
#
#
#
# Elastic Constant Matrix: (Units=GPa)
#
#
# Indices 1 2 3 4 5 6 
#
# 1 103.4787 30.2430 55.6024 0.0000 0.0000 0.0000
# 2 30.2430 51.5072 59.8162 0.0000 0.0000 0.0000
# 3 55.6024 59.8162 222.1724 0.0000 0.0000 0.0000
# 4 0.0000 0.0000 0.0000 34.0269 0.0000 0.0000
# 5 0.0000 0.0000 0.0000 0.0000 42.0489 0.0000
# 6 0.0000 0.0000 0.0000 0.0000 0.0000 37.5931
#
#
#
# Elastic Compliance Matrix: (Units=1/GPa)
#
#
# Indices 1 2 3 4 5 6 
#
# 1 0.012052 -0.005199 -0.001616 0.000000 0.000000 0.000000
# 2 -0.005199 0.030489 -0.006908 0.000000 0.000000 0.000000
# 3 -0.001616 -0.006908 0.006765 0.000000 0.000000 0.000000
# 4 0.000000 0.000000 0.000000 0.029388 0.000000 0.000000
# 5 0.000000 0.000000 0.000000 0.000000 0.023782 0.000000
# 6 0.000000 0.000000 0.000000 0.000000 0.000000 0.026601
#
#
# Mechanical properties :
#
#
# Convention : Reuss Voigt Hill
#
# Bulk Modulus (GPa) = 45.74526 74.27574 60.01050
# Shear Modulus (GPa) = 30.52301 38.16689 34.34495
#
# Velocity S-wave (km/s) = 3.47380 3.88450 3.68488
# Velocity P-wave (km/s) = 5.84596 7.03450 6.46759
#
# Compressibility (1/GPa) = 0.02186019
#
# Stress axis : x y z
#
# Youngs Moduli (GPa) = 82.97438 32.79822 147.81354
#
# Poissons Ratio (x) = 0.17053 0.23892
# Poissons Ratio (y) = 0.43141 1.02103
# Poissons Ratio (z) = 0.13412 0.22656
#
# Static dielectric constant tensor:
#      x y z
#    x 1.981990 0.000000 0.000000 
#    y 0.000000 2.189330 0.000000 
#    z 0.000000 0.000000 2.393930 
# 
# From -- ./inp_files/39499.got.cif
#   From: 2010.05.17/outbox.cif.g08.bks.cpg/sg22_20_cif.got.tgz:39499.got - 2010.06.03 23:40:54.
