data_PCOD9326295
_publ_section_title
;
Structure prediction by ZEFSAII (Michael W. Deem and Ramdas Pophale) SiO2 
 PCOD9326295
Probable space group: F 2 2 2
;
_chemical_formula_sum "Si O2"
_cell_formula_units_Z 96
_cell_length_a 19.017052
_cell_length_b 12.066692
_cell_length_c 20.612845
_cell_angle_alpha 90.000000
_cell_angle_beta 90.000000
_cell_angle_gamma 90.000000
_cell_volume 4730.089510
_symmetry_space_group_name_H-M "F 2 2 2"
_symmetry_group_IT_number 22
_symmetry_cell_setting 'orthorhombic'
loop_
_space_group_symop_operation_xyz
x,y,z
-x,-y,z
x,-y,-z
-x,y,-z
x,1/2+y,1/2+z
-x,1/2-y,1/2+z
x,1/2-y,1/2-z
-x,1/2+y,1/2-z
1/2+x,y,1/2+z
1/2-x,-y,1/2+z
1/2+x,-y,1/2-z
1/2-x,y,1/2-z
1/2+x,1/2+y,z
1/2-x,1/2-y,z
1/2+x,1/2-y,-z
1/2-x,1/2+y,-z
loop_
_atom_site_type_symbol
_atom_site_label
_atom_site_fract_x
_atom_site_fract_y
_atom_site_fract_z
Si Si1 0.782998 0.540154 0.427559
Si Si2 0.466192 0.121716 0.067529
Si Si3 0.803237 0.344763 0.123423
Si Si4 0.930314 0.074002 0.075870
Si Si5 0.947648 0.232353 0.325002
Si Si6 0.350110 0.243912 0.484964
O O1 0.764155 0.500000 0.500000
O O2 0.730952 0.467007 0.382462
O O3 0.860692 0.496286 0.411022
O O4 0.798759 0.669557 0.440535
O O5 0.490763 0.176584 0.133654
O O6 0.385853 0.156048 0.055071
O O7 0.500000 0.000000 0.070529
O O8 0.500000 0.165713 0.000000
O O9 0.750000 0.250000 0.149831
O O10 0.876257 0.337791 0.162048
O O11 0.820386 0.299594 0.050539
O O12 0.938738 0.152211 0.137709
O O13 0.906029 0.152973 0.015279
O O14 0.000000 0.000000 0.067905
O O15 0.961071 0.250000 0.250000
#
# Coordination Sequence:
#
# PCOD9326295 Si02
#       6
#    16  16  16  16  16  16
#     4  10  19  30  53  84 122 159 201 265 323 389
#     4  11  22  40  62  94 130 172 215 273 349 399
#     4  11  19  37  52  90 131 160 212 263 330 398
#     4  10  19  33  56  86 117 156 208 271 327 375
#     4  11  24  40  60  87 125 176 220 271 332 408
#     4  10  21  36  60  93 127 162 207 268 340 392
#
# _framework density 20.2956
#
# number of rings (size 3 to 8) (size 9 to 14) (size 15 to 20)
#    0.000    1.500    8.333    1.000    0.000    6.000 
#    0.000    0.000    0.000    0.000    0.000    0.000 
#    0.000    0.000    0.000    0.000    0.000    0.000 
#
# Total GULP energy -133643.190964 kJ/mol
# GULP energy per Si atom -5568.466290 kJ/mol
# Density = 2.024941 g / cm^3
# Si number density = 20.295600 Si / 1000 Ang^3
#
#
#
# Elastic Constant Matrix: (Units=GPa)
#
#
# Indices 1 2 3 4 5 6 
#
# 1 61.4293 38.5352 19.8212 0.0000 0.0000 0.0000
# 2 38.5352 111.0713 30.2166 0.0000 0.0000 0.0000
# 3 19.8212 30.2166 105.8834 0.0000 0.0000 0.0000
# 4 0.0000 0.0000 0.0000 27.2646 0.0000 0.0000
# 5 0.0000 0.0000 0.0000 0.0000 11.7265 0.0000
# 6 0.0000 0.0000 0.0000 0.0000 0.0000 37.2027
#
#
#
# Elastic Compliance Matrix: (Units=1/GPa)
#
#
# Indices 1 2 3 4 5 6 
#
# 1 0.021201 -0.006804 -0.002027 0.000000 0.000000 0.000000
# 2 -0.006804 0.011945 -0.002135 0.000000 0.000000 0.000000
# 3 -0.002027 -0.002135 0.010433 0.000000 0.000000 0.000000
# 4 0.000000 0.000000 0.000000 0.036678 0.000000 0.000000
# 5 0.000000 0.000000 0.000000 0.000000 0.085277 0.000000
# 6 0.000000 0.000000 0.000000 0.000000 0.000000 0.026880
#
#
# Mechanical properties :
#
#
# Convention : Reuss Voigt Hill
#
# Bulk Modulus (GPa) = 46.19671 50.61445 48.40558
# Shear Modulus (GPa) = 22.56715 27.89283 25.22999
#
# Velocity S-wave (km/s) = 3.33817 3.71122 3.52962
# Velocity P-wave (km/s) = 6.13752 6.58460 6.36499
#
# Compressibility (1/GPa) = 0.02164656
#
# Stress axis : x y z
#
# Youngs Moduli (GPa) = 47.16706 83.71931 95.84876
#
# Poissons Ratio (x) = 0.56964 0.19430
# Poissons Ratio (y) = 0.32093 0.20464
# Poissons Ratio (z) = 0.09561 0.17874
#
# Static dielectric constant tensor:
#      x y z
#    x 1.839920 0.000000 0.000000 
#    y 0.000000 1.914640 0.000000 
#    z 0.000000 0.000000 1.679270 
# 
# From -- ./inp_files/44784.got.cif
#   From: 2010.05.17/outbox.cif.g08.bks.cpg/sg22_23_cif.got.tgz:44784.got - 2010.06.03 23:40:54.
