data_PCOD9326056
_publ_section_title
;
Structure prediction by ZEFSAII (Michael W. Deem and Ramdas Pophale) SiO2 
 PCOD9326056
Probable space group: F 2 2 2
;
_chemical_formula_sum "Si O2"
_cell_formula_units_Z 96
_cell_length_a 27.104139
_cell_length_b 15.786414
_cell_length_c 11.244208
_cell_angle_alpha 90.000000
_cell_angle_beta 90.000000
_cell_angle_gamma 90.000000
_cell_volume 4811.139778
_symmetry_space_group_name_H-M "F 2 2 2"
_symmetry_group_IT_number 22
_symmetry_cell_setting 'orthorhombic'
loop_
_space_group_symop_operation_xyz
x,y,z
-x,-y,z
x,-y,-z
-x,y,-z
x,1/2+y,1/2+z
-x,1/2-y,1/2+z
x,1/2-y,1/2-z
-x,1/2+y,1/2-z
1/2+x,y,1/2+z
1/2-x,-y,1/2+z
1/2+x,-y,1/2-z
1/2-x,y,1/2-z
1/2+x,1/2+y,z
1/2-x,1/2-y,z
1/2+x,1/2-y,-z
1/2-x,1/2+y,-z
loop_
_atom_site_type_symbol
_atom_site_label
_atom_site_fract_x
_atom_site_fract_y
_atom_site_fract_z
Si Si1 0.844337 0.509095 0.303744
Si Si2 0.267724 0.000000 0.500000
Si Si3 0.710270 0.134483 0.152049
Si Si4 0.405057 0.569032 0.600273
Si Si5 0.890960 0.793245 0.586047
Si Si6 0.074252 0.619306 0.332382
Si Si7 0.000000 0.500000 0.239429
O O1 0.803529 0.535648 0.397148
O O2 0.819258 0.436843 0.224061
O O3 0.866941 0.573741 0.209363
O O4 0.889589 0.458410 0.362628
O O5 0.236705 0.920539 0.450540
O O6 0.750000 0.164511 0.250000
O O7 0.668690 0.200107 0.105505
O O8 0.388964 0.500000 0.500000
O O9 0.407004 0.656112 0.530026
O O10 0.455999 0.534955 0.656185
O O11 0.912554 0.698993 0.586552
O O12 0.913235 0.843373 0.700225
O O13 0.021051 0.576706 0.319064
#
# Coordination Sequence:
#
# PCOD9326056 Si02
#       7
#    16   8  16  16  16  16   8
#     4   9  18  32  51  80 116 159 206 258 321 373
#     4  10  18  30  52  79 114 165 222 264 302 382
#     4   9  16  28  48  77 114 157 204 255 308 376
#     4  11  17  30  58  88 119 160 210 265 326 393
#     4  10  18  31  52  84 126 156 198 262 335 365
#     4   9  19  33  53  80 117 158 197 264 323 388
#     4  10  19  32  58  91 116 165 212 254 327 398
#
# _framework density 19.953692
#
# number of rings (size 3 to 8) (size 9 to 14) (size 15 to 20)
#    0.000    2.333    5.000    1.250    0.000    0.000 
#    0.000   14.167    0.000   33.000    0.000    4.667 
#    0.000    0.000    0.000    0.000    0.000    0.000 
#
# Total GULP energy -133771.128783 kJ/mol
# GULP energy per Si atom -5573.797033 kJ/mol
# Density = 1.990828 g / cm^3
# Si number density = 19.953692 Si / 1000 Ang^3
#
#
#
# Elastic Constant Matrix: (Units=GPa)
#
#
# Indices 1 2 3 4 5 6 
#
# 1 81.2003 29.5001 33.8511 0.0000 0.0000 0.0000
# 2 29.5001 95.7610 46.3359 0.0000 0.0000 0.0000
# 3 33.8511 46.3359 67.2743 0.0000 0.0000 0.0000
# 4 0.0000 0.0000 0.0000 28.1420 0.0000 0.0000
# 5 0.0000 0.0000 0.0000 0.0000 -4.4102 0.0000
# 6 0.0000 0.0000 0.0000 0.0000 0.0000 51.7330
#
#
#
# Elastic Compliance Matrix: (Units=1/GPa)
#
#
# Indices 1 2 3 4 5 6 
#
# 1 0.015731 -0.001524 -0.006866 0.000000 0.000000 0.000000
# 2 -0.001524 0.015810 -0.010123 0.000000 0.000000 0.000000
# 3 -0.006866 -0.010123 0.025291 0.000000 0.000000 0.000000
# 4 0.000000 0.000000 0.000000 0.035534 0.000000 0.000000
# 5 0.000000 0.000000 0.000000 0.000000 -0.226748 0.000000
# 6 0.000000 0.000000 0.000000 0.000000 0.000000 0.019330
#
#
# Mechanical properties :
#
#
# Convention : Reuss Voigt Hill
#
# Bulk Modulus (GPa) = 50.48541 51.51219 50.99880
# Shear Modulus (GPa) = -70.00471 24.06286 -22.97092
#
# Velocity S-wave (km/s) = -5.92957 3.47643 -3.39663
# Velocity P-wave (km/s) = 4.63934 6.47966 3.19863
#
# Compressibility (1/GPa) = 0.01980770
#
# Stress axis : x y z
#
# Youngs Moduli (GPa) = 63.56791 63.25055 39.53904
#
# Poissons Ratio (x) = 0.09639 0.27148
# Poissons Ratio (y) = 0.09687 0.40024
# Poissons Ratio (z) = 0.43646 0.64026
#
# Static dielectric constant tensor:
#      x y z
#    x 1.778390 0.000000 0.000000 
#    y 0.000000 1.707180 0.000000 
#    z 0.000000 0.000000 1.449530 
# 
# From -- ./inp_files/24645.got.cif
#   From: 2010.05.17/outbox.cif.g08.bks.cpg/sg22_13_cif.got.tgz:24645.got - 2010.06.03 23:40:54.
