data_PCOD9326857
_publ_section_title
;
Structure prediction by ZEFSAII (Michael W. Deem and Ramdas Pophale) SiO2 
 PCOD9326857
Probable space group: F 2 2 2
;
_chemical_formula_sum "Si O2"
_cell_formula_units_Z 80
_cell_length_a 14.031954
_cell_length_b 18.725470
_cell_length_c 15.572495
_cell_angle_alpha 90.000000
_cell_angle_beta 90.000000
_cell_angle_gamma 90.000000
_cell_volume 4091.749891
_symmetry_space_group_name_H-M "F 2 2 2"
_symmetry_group_IT_number 22
_symmetry_cell_setting 'orthorhombic'
loop_
_space_group_symop_operation_xyz
x,y,z
-x,-y,z
x,-y,-z
-x,y,-z
x,1/2+y,1/2+z
-x,1/2-y,1/2+z
x,1/2-y,1/2-z
-x,1/2+y,1/2-z
1/2+x,y,1/2+z
1/2-x,-y,1/2+z
1/2+x,-y,1/2-z
1/2-x,y,1/2-z
1/2+x,1/2+y,z
1/2-x,1/2-y,z
1/2+x,1/2-y,-z
1/2-x,1/2+y,-z
loop_
_atom_site_type_symbol
_atom_site_label
_atom_site_fract_x
_atom_site_fract_y
_atom_site_fract_z
Si Si1 0.600323 0.269037 0.958107
Si Si2 0.658246 0.425338 0.691859
Si Si3 0.179291 0.910051 0.328376
Si Si4 0.997917 0.685665 0.193767
Si Si5 0.224352 0.864579 0.511463
O O1 0.569525 0.231158 0.870143
O O2 0.673893 0.334003 0.957336
O O3 0.657538 0.204963 0.004593
O O4 0.500000 0.288853 0.000000
O O5 0.750000 0.409589 0.750000
O O6 0.643174 0.510210 0.693204
O O7 0.573300 0.375912 0.727135
O O8 0.678266 0.406112 0.591777
O O9 0.250000 0.889097 0.250000
O O10 0.230014 0.906830 0.421802
O O11 0.088288 0.859013 0.336994
O O12 0.038015 0.750000 0.250000
#
# Coordination Sequence:
#
# PCOD9326857 Si02
#       5
#    16  16  16  16  16
#     4  10  20  36  57  89 121 150 203 251 304 366
#     4  10  22  42  63  88 120 163 214 254 306 373
#     4  11  24  39  60  90 127 165 203 255 313 378
#     4  11  23  38  63  91 121 162 205 259 314 363
#     4  10  21  38  63  86 123 159 201 259 308 360
#
# _framework density 19.551538000000001
#
# number of rings (size 3 to 8) (size 9 to 14) (size 15 to 20)
#    0.000    1.600    2.000    2.400    2.800    2.400 
#    0.000    2.000    0.000    1.200    0.000    0.000 
#    0.000    0.000    0.000    0.000    0.000    0.000 
#
# Total GULP energy -111378.415154 kJ/mol
# GULP energy per Si atom -5568.920758 kJ/mol
# Density = 1.950704 g / cm^3
# Si number density = 19.551538 Si / 1000 Ang^3
#
#
#
# Elastic Constant Matrix: (Units=GPa)
#
#
# Indices 1 2 3 4 5 6 
#
# 1 88.8692 32.0018 0.1495 0.0000 0.0000 0.0000
# 2 32.0018 64.7035 5.3077 0.0000 0.0000 0.0000
# 3 0.1495 5.3077 47.3244 0.0000 0.0000 0.0000
# 4 0.0000 0.0000 0.0000 29.6952 0.0000 0.0000
# 5 0.0000 0.0000 0.0000 0.0000 23.3575 0.0000
# 6 0.0000 0.0000 0.0000 0.0000 0.0000 -36.1707
#
#
#
# Elastic Compliance Matrix: (Units=1/GPa)
#
#
# Indices 1 2 3 4 5 6 
#
# 1 0.013715 -0.006843 0.000724 0.000000 0.000000 0.000000
# 2 -0.006843 0.019013 -0.002111 0.000000 0.000000 0.000000
# 3 0.000724 -0.002111 0.021365 0.000000 0.000000 0.000000
# 4 0.000000 0.000000 0.000000 0.033675 0.000000 0.000000
# 5 0.000000 0.000000 0.000000 0.000000 0.042813 0.000000
# 6 0.000000 0.000000 0.000000 0.000000 0.000000 -0.027647
#
#
# Mechanical properties :
#
#
# Convention : Reuss Voigt Hill
#
# Bulk Modulus (GPa) = 26.57156 30.64613 28.60885
# Shear Modulus (GPa) = 37.89631 14.27225 26.08428
#
# Velocity S-wave (km/s) = 4.40736 2.70475 3.65654
# Velocity P-wave (km/s) = 6.28648 5.04606 5.70011
#
# Compressibility (1/GPa) = 0.03763422
#
# Stress axis : x y z
#
# Youngs Moduli (GPa) = 72.91059 52.59630 46.80508
#
# Poissons Ratio (x) = 0.35991 -0.03389
# Poissons Ratio (y) = 0.49892 0.09880
# Poissons Ratio (z) = -0.05280 0.11102
#
# Static dielectric constant tensor:
#      x y z
#    x 1.664730 0.000000 0.000000 
#    y 0.000000 1.688190 0.000000 
#    z 0.000000 0.000000 1.763320 
# 
# From -- ./inp_files/29174.got.cif
#   From: 2010.05.17/outbox.cif.g08.bks.cpg/sg22_15_cif.got.tgz:29174.got - 2010.06.03 23:40:54.
