data_PCOD9326627
_publ_section_title
;
Structure prediction by ZEFSAII (Michael W. Deem and Ramdas Pophale) SiO2 
 PCOD9326627
Probable space group: F 2 2 2
;
_chemical_formula_sum "Si O2"
_cell_formula_units_Z 112
_cell_length_a 32.013025
_cell_length_b 13.862763
_cell_length_c 11.331739
_cell_angle_alpha 90.000000
_cell_angle_beta 90.000000
_cell_angle_gamma 90.000000
_cell_volume 5028.900875
_symmetry_space_group_name_H-M "F 2 2 2"
_symmetry_group_IT_number 22
_symmetry_cell_setting 'orthorhombic'
loop_
_space_group_symop_operation_xyz
x,y,z
-x,-y,z
x,-y,-z
-x,y,-z
x,1/2+y,1/2+z
-x,1/2-y,1/2+z
x,1/2-y,1/2-z
-x,1/2+y,1/2-z
1/2+x,y,1/2+z
1/2-x,-y,1/2+z
1/2+x,-y,1/2-z
1/2-x,y,1/2-z
1/2+x,1/2+y,z
1/2-x,1/2-y,z
1/2+x,1/2-y,-z
1/2-x,1/2+y,-z
loop_
_atom_site_type_symbol
_atom_site_label
_atom_site_fract_x
_atom_site_fract_y
_atom_site_fract_z
Si Si1 0.015558 0.706580 0.119359
Si Si2 0.666424 0.600121 0.749442
Si Si3 0.090668 0.419237 0.902162
Si Si4 0.815264 0.696054 0.514962
Si Si5 0.878840 0.069798 0.887110
Si Si6 0.461262 0.556439 0.763016
Si Si7 0.725331 0.605004 0.547382
O O1 0.023983 0.750000 0.250000
O O2 0.058499 0.664021 0.068834
O O3 0.982135 0.624151 0.162203
O O4 0.000000 0.761405 0.000000
O O5 0.632986 0.621362 0.648268
O O6 0.666359 0.675475 0.855314
O O7 0.649793 0.497520 0.801011
O O8 0.710625 0.601959 0.683529
O O9 0.065420 0.473672 0.799587
O O10 0.098215 0.500000 0.000000
O O11 0.849595 0.658005 0.424778
O O12 0.773664 0.628387 0.520269
O O13 0.799497 0.803896 0.493567
O O14 0.924377 0.103336 0.840118
O O15 0.886338 0.000000 0.000000
O O16 0.500000 0.500000 0.823841
O O17 0.714250 0.500000 0.500000
#
# Coordination Sequence:
#
# PCOD9326627 Si02
#       7
#    16  16  16  16  16  16  16
#     4  11  23  42  61  94 135 180 230 288 351 419
#     4  10  20  36  62  96 122 165 226 282 357 420
#     4  10  19  38  68  88 123 174 224 278 339 431
#     4  10  22  40  63  90 134 175 216 302 361 424
#     4   9  19  39  61  91 134 173 222 293 363 422
#     4   9  19  37  65  92 120 176 232 274 347 423
#     4  11  22  39  63  94 126 175 236 279 357 440
#
# _framework density 22.271269
#
# number of rings (size 3 to 8) (size 9 to 14) (size 15 to 20)
#    0.000    2.000    1.429    2.571    0.000    2.571 
#   12.857    0.714    0.000    1.714    0.000    0.000 
#    0.000    0.000    0.000    0.571    0.000    0.000 
#
# Total GULP energy -156011.190513 kJ/mol
# GULP energy per Si atom -5571.828233 kJ/mol
# Density = 2.222058 g / cm^3
# Si number density = 22.271269 Si / 1000 Ang^3
#
#
#
# Elastic Constant Matrix: (Units=GPa)
#
#
# Indices 1 2 3 4 5 6 
#
# 1 160.5795 42.8892 51.5792 0.0000 0.0000 0.0000
# 2 42.8892 86.1005 33.0989 0.0000 0.0000 0.0000
# 3 51.5792 33.0989 72.9211 0.0000 0.0000 0.0000
# 4 0.0000 0.0000 0.0000 21.8155 0.0000 0.0000
# 5 0.0000 0.0000 0.0000 0.0000 27.8204 0.0000
# 6 0.0000 0.0000 0.0000 0.0000 0.0000 31.2500
#
#
#
# Elastic Compliance Matrix: (Units=1/GPa)
#
#
# Indices 1 2 3 4 5 6 
#
# 1 0.008420 -0.002307 -0.004909 0.000000 0.000000 0.000000
# 2 -0.002307 0.014702 -0.005041 0.000000 0.000000 0.000000
# 3 -0.004909 -0.005041 0.019474 0.000000 0.000000 0.000000
# 4 0.000000 0.000000 0.000000 0.045839 0.000000 0.000000
# 5 0.000000 0.000000 0.000000 0.000000 0.035945 0.000000
# 6 0.000000 0.000000 0.000000 0.000000 0.000000 0.032000
#
#
# Mechanical properties :
#
#
# Convention : Reuss Voigt Hill
#
# Bulk Modulus (GPa) = 55.30514 63.85952 59.58233
# Shear Modulus (GPa) = 26.74930 28.97941 27.86435
#
# Velocity S-wave (km/s) = 3.46940 3.61113 3.54098
# Velocity P-wave (km/s) = 6.39808 6.79137 6.59766
#
# Compressibility (1/GPa) = 0.01808150
#
# Stress axis : x y z
#
# Youngs Moduli (GPa) = 118.75857 68.01977 51.35159
#
# Poissons Ratio (x) = 0.15695 0.25207
# Poissons Ratio (y) = 0.27403 0.25886
# Poissons Ratio (z) = 0.58295 0.34288
#
# Static dielectric constant tensor:
#      x y z
#    x 1.855940 0.000000 0.000000 
#    y 0.000000 1.889390 0.000000 
#    z 0.000000 0.000000 1.853950 
# 
# From -- ./inp_files/25419.got.cif
#   From: 2010.05.17/outbox.cif.g08.bks.cpg/sg22_13_cif.got.tgz:25419.got - 2010.06.03 23:40:54.
