data_PCOD9326338
_publ_section_title
;
Structure prediction by ZEFSAII (Michael W. Deem and Ramdas Pophale) SiO2 
 PCOD9326338
Probable space group: F 2 2 2
;
_chemical_formula_sum "Si O2"
_cell_formula_units_Z 112
_cell_length_a 16.068077
_cell_length_b 18.658856
_cell_length_c 18.715857
_cell_angle_alpha 90.000000
_cell_angle_beta 90.000000
_cell_angle_gamma 90.000000
_cell_volume 5611.237301
_symmetry_space_group_name_H-M "F 2 2 2"
_symmetry_group_IT_number 22
_symmetry_cell_setting 'orthorhombic'
loop_
_space_group_symop_operation_xyz
x,y,z
-x,-y,z
x,-y,-z
-x,y,-z
x,1/2+y,1/2+z
-x,1/2-y,1/2+z
x,1/2-y,1/2-z
-x,1/2+y,1/2-z
1/2+x,y,1/2+z
1/2-x,-y,1/2+z
1/2+x,-y,1/2-z
1/2-x,y,1/2-z
1/2+x,1/2+y,z
1/2-x,1/2-y,z
1/2+x,1/2-y,-z
1/2-x,1/2+y,-z
loop_
_atom_site_type_symbol
_atom_site_label
_atom_site_fract_x
_atom_site_fract_y
_atom_site_fract_z
Si Si1 0.989100 0.133710 0.248973
Si Si2 0.327897 0.442380 0.694593
Si Si3 0.165087 0.668066 0.779105
Si Si4 0.485661 0.257065 0.872066
Si Si5 0.315876 0.306314 0.588663
Si Si6 0.134217 0.687457 0.936787
Si Si7 0.091156 0.530911 0.923457
O O1 0.915144 0.078394 0.265379
O O2 0.985573 0.195896 0.309936
O O3 0.977413 0.169571 0.171492
O O4 0.087298 0.117891 0.257660
O O5 0.250000 0.448346 0.750000
O O6 0.314666 0.375335 0.639282
O O7 0.347249 0.507650 0.640022
O O8 0.149872 0.750000 0.750000
O O9 0.250000 0.637895 0.750000
O O10 0.181074 0.680099 0.862391
O O11 0.404226 0.234112 0.913941
O O12 0.567645 0.250280 0.920755
O O13 0.250000 0.250000 0.617801
O O14 0.305234 0.318860 0.504122
O O15 0.079753 0.614847 0.936644
O O16 0.000000 0.500000 0.906704
O O17 0.119168 0.500000 0.000000
#
# Coordination Sequence:
#
# PCOD9326338 Si02
#       7
#    16  16  16  16  16  16  16
#     4   9  16  33  54  78 113 154 196 237 300 361
#     4  11  23  40  61  87 123 163 206 255 311 376
#     4  10  19  32  53  80 115 156 191 241 306 360
#     4   9  17  31  51  78 112 152 188 242 298 357
#     4  11  22  32  51  84 114 153 198 246 305 369
#     4  11  21  35  56  84 119 152 200 249 311 367
#     4  11  22  38  62  88 120 161 208 264 318 366
#
# _framework density 19.959948000000001
#
# number of rings (size 3 to 8) (size 9 to 14) (size 15 to 20)
#    0.000    1.714    4.286    3.857    4.000    2.000 
#    0.000    0.000    0.000    0.000    0.000    0.000 
#    0.000    0.000    0.000    0.000    0.000    0.000 
#
# Total GULP energy -155976.621580 kJ/mol
# GULP energy per Si atom -5570.593628 kJ/mol
# Density = 1.991452 g / cm^3
# Si number density = 19.959948 Si / 1000 Ang^3
#
#
#
# Elastic Constant Matrix: (Units=GPa)
#
#
# Indices 1 2 3 4 5 6 
#
# 1 94.3416 2.1416 18.4689 0.0000 0.0000 0.0000
# 2 2.1416 45.5343 13.9730 0.0000 0.0000 0.0000
# 3 18.4689 13.9730 107.3057 0.0000 0.0000 0.0000
# 4 0.0000 0.0000 0.0000 17.6836 0.0000 0.0000
# 5 0.0000 0.0000 0.0000 0.0000 14.8716 0.0000
# 6 0.0000 0.0000 0.0000 0.0000 0.0000 14.8848
#
#
#
# Elastic Compliance Matrix: (Units=1/GPa)
#
#
# Indices 1 2 3 4 5 6 
#
# 1 0.010970 0.000066 -0.001897 0.000000 0.000000 0.000000
# 2 0.000066 0.022876 -0.002990 0.000000 0.000000 0.000000
# 3 -0.001897 -0.002990 0.010035 0.000000 0.000000 0.000000
# 4 0.000000 0.000000 0.000000 0.056550 0.000000 0.000000
# 5 0.000000 0.000000 0.000000 0.000000 0.067242 0.000000
# 6 0.000000 0.000000 0.000000 0.000000 0.000000 0.067183
#
#
# Mechanical properties :
#
#
# Convention : Reuss Voigt Hill
#
# Bulk Modulus (GPa) = 29.20646 35.14985 32.17815
# Shear Modulus (GPa) = 19.53814 23.66120 21.59967
#
# Velocity S-wave (km/s) = 3.13208 3.44675 3.29317
# Velocity P-wave (km/s) = 5.26728 5.78693 5.53321
#
# Compressibility (1/GPa) = 0.03423900
#
# Stress axis : x y z
#
# Youngs Moduli (GPa) = 91.16127 43.71403 99.65140
#
# Poissons Ratio (x) = -0.00289 0.18900
# Poissons Ratio (y) = -0.00602 0.29798
# Poissons Ratio (z) = 0.17290 0.13071
#
# Static dielectric constant tensor:
#      x y z
#    x 1.763720 0.000000 0.000000 
#    y 0.000000 1.756940 0.000000 
#    z 0.000000 0.000000 1.767030 
# 
# From -- ./inp_files/38227.got.cif
#   From: 2010.05.17/outbox.cif.g08.bks.cpg/sg22_20_cif.got.tgz:38227.got - 2010.06.03 23:40:54.
