data_PCOD9326750
_publ_section_title
;
Structure prediction by ZEFSAII (Michael W. Deem and Ramdas Pophale) SiO2 
 PCOD9326750
Probable space group: F 2 2 2
;
_chemical_formula_sum "Si O2"
_cell_formula_units_Z 88
_cell_length_a 17.637414
_cell_length_b 9.635734
_cell_length_c 24.515842
_cell_angle_alpha 90.000000
_cell_angle_beta 90.000000
_cell_angle_gamma 90.000000
_cell_volume 4166.453368
_symmetry_space_group_name_H-M "F 2 2 2"
_symmetry_group_IT_number 22
_symmetry_cell_setting 'orthorhombic'
loop_
_space_group_symop_operation_xyz
x,y,z
-x,-y,z
x,-y,-z
-x,y,-z
x,1/2+y,1/2+z
-x,1/2-y,1/2+z
x,1/2-y,1/2-z
-x,1/2+y,1/2-z
1/2+x,y,1/2+z
1/2-x,-y,1/2+z
1/2+x,-y,1/2-z
1/2-x,y,1/2-z
1/2+x,1/2+y,z
1/2-x,1/2-y,z
1/2+x,1/2-y,-z
1/2-x,1/2+y,-z
loop_
_atom_site_type_symbol
_atom_site_label
_atom_site_fract_x
_atom_site_fract_y
_atom_site_fract_z
Si Si1 0.998498 0.250000 0.429679
Si Si2 0.164587 0.993022 0.310624
Si Si3 0.000000 0.000000 0.500000
Si Si4 0.448900 0.750000 0.809977
Si Si5 0.163770 0.250000 0.898171
Si Si6 0.335413 0.993022 0.310624
Si Si7 0.000000 0.500000 0.500000
O O1 0.033997 0.112591 0.457136
O O2 0.907102 0.250000 0.439170
O O3 0.033997 0.387409 0.457136
O O4 0.003352 0.250000 0.364726
O O5 0.103648 0.114325 0.313199
O O6 0.156696 0.882882 0.358589
O O7 0.250000 0.051921 0.314242
O O8 0.158320 0.928090 0.250000
O O9 0.486750 0.750000 0.750000
O O10 0.396352 0.614325 0.813199
O O11 0.250000 0.250000 0.921127
O O12 0.156697 0.117118 0.858588
#
# Coordination Sequence:
#
# PCOD9326750 Si02
#       7
#    16  16   4  16  16  16   4
#     4  11  22  41  60  83 110 144 189 229 273 331
#     4   9  17  30  49  78 117 155 183 211 264 335
#     4  10  24  42  64  78 104 150 188 226 272 326
#     4  10  20  33  56  88 117 144 178 230 282 324
#     4  10  20  34  54  78 107 143 184 231 274 319
#     4   9  17  30  49  78 117 155 183 211 264 335
#     4  10  24  42  64  78 104 150 188 226 272 326
#
# _framework density 21.121082000000001
#
# number of rings (size 3 to 8) (size 9 to 14) (size 15 to 20)
#    0.000    2.182    0.000    3.273    0.000    5.818 
#    0.000    5.455    0.000    8.727    0.000    0.000 
#    0.000    0.000    0.000    0.000    0.000    0.000 
#
# Total GULP energy -122580.322066 kJ/mol
# GULP energy per Si atom -5571.832821 kJ/mol
# Density = 2.107301 g / cm^3
# Si number density = 21.121082 Si / 1000 Ang^3
#
#
#
# Elastic Constant Matrix: (Units=GPa)
#
#
# Indices 1 2 3 4 5 6 
#
# 1 82.2005 12.4679 33.3871 0.0000 0.0000 0.0000
# 2 12.4679 96.7404 25.7343 0.0000 0.0000 0.0000
# 3 33.3871 25.7343 113.5013 0.0000 0.0000 0.0000
# 4 0.0000 0.0000 0.0000 2.0324 0.0000 0.0000
# 5 0.0000 0.0000 0.0000 0.0000 20.6405 0.0000
# 6 0.0000 0.0000 0.0000 0.0000 0.0000 14.0641
#
#
#
# Elastic Compliance Matrix: (Units=1/GPa)
#
#
# Indices 1 2 3 4 5 6 
#
# 1 0.013867 -0.000747 -0.003910 0.000000 0.000000 0.000000
# 2 -0.000747 0.011041 -0.002283 0.000000 0.000000 0.000000
# 3 -0.003910 -0.002283 0.010478 0.000000 0.000000 0.000000
# 4 0.000000 0.000000 0.000000 0.492018 0.000000 0.000000
# 5 0.000000 0.000000 0.000000 0.000000 0.048448 0.000000
# 6 0.000000 0.000000 0.000000 0.000000 0.000000 0.071103
#
#
# Mechanical properties :
#
#
# Convention : Reuss Voigt Hill
#
# Bulk Modulus (GPa) = 46.50045 48.40232 47.45139
# Shear Modulus (GPa) = 7.48499 22.07094 14.77796
#
# Velocity S-wave (km/s) = 1.88455 3.23611 2.64801
# Velocity P-wave (km/s) = 5.17681 6.07697 5.64486
#
# Compressibility (1/GPa) = 0.02150517
#
# Stress axis : x y z
#
# Youngs Moduli (GPa) = 72.11562 90.57421 95.43601
#
# Poissons Ratio (x) = 0.06767 0.37311
# Poissons Ratio (y) = 0.05388 0.21793
# Poissons Ratio (z) = 0.28194 0.20682
#
# Static dielectric constant tensor:
#      x y z
#    x 1.809430 0.000000 0.000000 
#    y 0.000000 1.738610 0.000000 
#    z 0.000000 0.000000 1.780200 
# 
# From -- ./inp_files/49834.got.cif
#   From: 2010.05.17/outbox.cif.g08.bks.cpg/sg22_25_cif.got.tgz:49834.got - 2010.06.03 23:40:54.
