data_PCOD9326600
_publ_section_title
;
Structure prediction by ZEFSAII (Michael W. Deem and Ramdas Pophale) SiO2 
 PCOD9326600
Probable space group: F 2 2 2
;
_chemical_formula_sum "Si O2"
_cell_formula_units_Z 88
_cell_length_a 16.128846
_cell_length_b 18.596695
_cell_length_c 12.161850
_cell_angle_alpha 90.000000
_cell_angle_beta 90.000000
_cell_angle_gamma 90.000000
_cell_volume 3647.864569
_symmetry_space_group_name_H-M "F 2 2 2"
_symmetry_group_IT_number 22
_symmetry_cell_setting 'orthorhombic'
loop_
_space_group_symop_operation_xyz
x,y,z
-x,-y,z
x,-y,-z
-x,y,-z
x,1/2+y,1/2+z
-x,1/2-y,1/2+z
x,1/2-y,1/2-z
-x,1/2+y,1/2-z
1/2+x,y,1/2+z
1/2-x,-y,1/2+z
1/2+x,-y,1/2-z
1/2-x,y,1/2-z
1/2+x,1/2+y,z
1/2-x,1/2-y,z
1/2+x,1/2-y,-z
1/2-x,1/2+y,-z
loop_
_atom_site_type_symbol
_atom_site_label
_atom_site_fract_x
_atom_site_fract_y
_atom_site_fract_z
Si Si1 0.374079 0.109031 0.489855
Si Si2 0.626998 0.957399 0.251154
Si Si3 0.552620 0.095939 0.277179
Si Si4 0.158524 0.262194 0.994801
Si Si5 0.614483 0.250000 0.250000
Si Si6 0.187298 0.918323 0.530366
O O1 0.370959 0.062475 0.379555
O O2 0.435187 0.089692 0.589932
O O3 0.391616 0.193082 0.460691
O O4 0.276907 0.098693 0.524868
O O5 0.533484 0.930565 0.227905
O O6 0.688075 0.922575 0.163567
O O7 0.625371 0.043386 0.235758
O O8 0.562599 0.177709 0.246782
O O9 0.250000 0.250000 0.044602
O O10 0.162013 0.247116 0.864580
O O11 0.134514 0.345607 0.008041
O O12 0.160701 0.000000 0.500000
#
# Coordination Sequence:
#
# PCOD9326600 Si02
#       6
#    16  16  16  16   8  16
#     4  10  21  38  61  86 116 155 203 253 297 354
#     4  11  22  38  58  86 121 159 196 247 306 360
#     4  10  22  38  59  86 117 154 202 247 297 356
#     4   9  20  36  56  85 116 149 195 251 302 350
#     4  10  19  38  60  80 109 156 204 246 292 354
#     4  11  22  37  59  88 120 156 199 247 302 362
#
# _framework density 24.123702999999999
#
# number of rings (size 3 to 8) (size 9 to 14) (size 15 to 20)
#    0.000    1.818    0.000    4.091    0.000    3.636 
#    0.000   16.364    0.000    0.000    0.000    0.000 
#    0.000    0.000    0.000    0.000    0.000    0.000 
#
# Total GULP energy -122576.621283 kJ/mol
# GULP energy per Si atom -5571.664604 kJ/mol
# Density = 2.406880 g / cm^3
# Si number density = 24.123703 Si / 1000 Ang^3
#
#
#
# Elastic Constant Matrix: (Units=GPa)
#
#
# Indices 1 2 3 4 5 6 
#
# 1 40.3953 7.4766 6.8240 0.0000 0.0000 0.0000
# 2 7.4766 215.2672 8.7616 0.0000 0.0000 0.0000
# 3 6.8240 8.7616 62.4420 0.0000 0.0000 0.0000
# 4 0.0000 0.0000 0.0000 35.1659 0.0000 0.0000
# 5 0.0000 0.0000 0.0000 0.0000 25.3018 0.0000
# 6 0.0000 0.0000 0.0000 0.0000 0.0000 13.6352
#
#
#
# Elastic Compliance Matrix: (Units=1/GPa)
#
#
# Indices 1 2 3 4 5 6 
#
# 1 0.025348 -0.000772 -0.002662 0.000000 0.000000 0.000000
# 2 -0.000772 0.004696 -0.000574 0.000000 0.000000 0.000000
# 3 -0.002662 -0.000574 0.016386 0.000000 0.000000 0.000000
# 4 0.000000 0.000000 0.000000 0.028437 0.000000 0.000000
# 5 0.000000 0.000000 0.000000 0.000000 0.039523 0.000000
# 6 0.000000 0.000000 0.000000 0.000000 0.000000 0.073339
#
#
# Mechanical properties :
#
#
# Convention : Reuss Voigt Hill
#
# Bulk Modulus (GPa) = 26.03277 40.46989 33.25133
# Shear Modulus (GPa) = 23.97509 34.49009 29.23259
#
# Velocity S-wave (km/s) = 3.15594 3.78526 3.48484
# Velocity P-wave (km/s) = 4.90864 5.99305 5.47775
#
# Compressibility (1/GPa) = 0.03841312
#
# Stress axis : x y z
#
# Youngs Moduli (GPa) = 39.45102 212.96599 61.02637
#
# Poissons Ratio (x) = 0.16442 0.16244
# Poissons Ratio (y) = 0.03046 0.03506
# Poissons Ratio (z) = 0.10501 0.12235
#
# Static dielectric constant tensor:
#      x y z
#    x 2.002200 0.000000 0.000000 
#    y 0.000000 2.012680 0.000000 
#    z 0.000000 0.000000 1.954210 
# 
# From -- ./inp_files/21379.got.cif
#   From: 2010.05.17/outbox.cif.g08.bks.cpg/sg22_11_cif.got.tgz:21379.got - 2010.06.03 23:40:54.
