data_PCOD9326413
_publ_section_title
;
Structure prediction by ZEFSAII (Michael W. Deem and Ramdas Pophale) SiO2 
 PCOD9326413
Probable space group: F 2 2 2
;
_chemical_formula_sum "Si O2"
_cell_formula_units_Z 112
_cell_length_a 27.382241
_cell_length_b 16.260577
_cell_length_c 11.355058
_cell_angle_alpha 90.000000
_cell_angle_beta 90.000000
_cell_angle_gamma 90.000000
_cell_volume 5055.851363
_symmetry_space_group_name_H-M "F 2 2 2"
_symmetry_group_IT_number 22
_symmetry_cell_setting 'orthorhombic'
loop_
_space_group_symop_operation_xyz
x,y,z
-x,-y,z
x,-y,-z
-x,y,-z
x,1/2+y,1/2+z
-x,1/2-y,1/2+z
x,1/2-y,1/2-z
-x,1/2+y,1/2-z
1/2+x,y,1/2+z
1/2-x,-y,1/2+z
1/2+x,-y,1/2-z
1/2-x,y,1/2-z
1/2+x,1/2+y,z
1/2-x,1/2-y,z
1/2+x,1/2-y,-z
1/2-x,1/2+y,-z
loop_
_atom_site_type_symbol
_atom_site_label
_atom_site_fract_x
_atom_site_fract_y
_atom_site_fract_z
Si Si1 0.505670 0.899203 0.863482
Si Si2 0.232675 0.094315 0.100453
Si Si3 0.910738 0.090875 0.766854
Si Si4 0.154581 0.791043 0.870490
Si Si5 0.889700 0.089080 0.289864
Si Si6 0.843810 0.881019 0.460615
Si Si7 0.706092 0.410394 0.165160
O O1 0.463685 0.875821 0.770483
O O2 0.558813 0.870136 0.820929
O O3 0.500000 0.000000 0.867822
O O4 0.500000 0.872514 0.000000
O O5 0.206747 0.169676 0.164199
O O6 0.290298 0.089489 0.080278
O O7 0.211640 0.010553 0.156601
O O8 0.213076 0.111909 0.969504
O O9 0.884267 0.134781 0.876733
O O10 0.880356 0.099576 0.644822
O O11 0.907396 0.992845 0.778692
O O12 0.136008 0.750000 0.750000
O O13 0.157876 0.718991 0.965618
O O14 0.862832 0.080251 0.417945
O O15 0.845248 0.121753 0.212086
O O16 0.750000 0.382465 0.250000
#
# Coordination Sequence:
#
# PCOD9326413 Si02
#       7
#    16  16  16  16  16  16  16
#     4   9  17  30  56  88 117 148 195 259 312 348
#     4  11  23  37  56  86 123 159 204 242 295 369
#     4  10  19  34  56  87 121 150 199 259 304 352
#     4  10  23  38  56  84 120 162 198 243 304 364
#     4  11  19  35  59  90 119 154 203 253 309 355
#     4  11  21  32  57  85 121 158 198 246 301 365
#     4  11  22  36  59  87 118 161 198 248 303 359
#
# _framework density 22.152550000000002
#
# number of rings (size 3 to 8) (size 9 to 14) (size 15 to 20)
#    0.000    1.571    4.286    1.714    4.000    1.714 
#    0.000    0.714    0.000    9.429    0.000    0.000 
#    0.000    0.000    0.000    0.000    0.000    0.000 
#
# Total GULP energy -156018.918720 kJ/mol
# GULP energy per Si atom -5572.104240 kJ/mol
# Density = 2.210213 g / cm^3
# Si number density = 22.152550 Si / 1000 Ang^3
#
#
#
# Elastic Constant Matrix: (Units=GPa)
#
#
# Indices 1 2 3 4 5 6 
#
# 1 174.4700 -8.3458 25.0225 0.0000 0.0000 0.0000
# 2 -8.3458 43.6769 -11.6853 0.0000 0.0000 0.0000
# 3 25.0225 -11.6853 61.4769 0.0000 0.0000 0.0000
# 4 0.0000 0.0000 0.0000 5.1270 0.0000 0.0000
# 5 0.0000 0.0000 0.0000 0.0000 34.7071 0.0000
# 6 0.0000 0.0000 0.0000 0.0000 0.0000 3.3565
#
#
#
# Elastic Compliance Matrix: (Units=1/GPa)
#
#
# Indices 1 2 3 4 5 6 
#
# 1 0.006099 0.000528 -0.002382 0.000000 0.000000 0.000000
# 2 0.000528 0.024168 0.004379 0.000000 0.000000 0.000000
# 3 -0.002382 0.004379 0.018068 0.000000 0.000000 0.000000
# 4 0.000000 0.000000 0.000000 0.195046 0.000000 0.000000
# 5 0.000000 0.000000 0.000000 0.000000 0.028813 0.000000
# 6 0.000000 0.000000 0.000000 0.000000 0.000000 0.297926
#
#
# Mechanical properties :
#
#
# Convention : Reuss Voigt Hill
#
# Bulk Modulus (GPa) = 18.73207 32.17851 25.45529
# Shear Modulus (GPa) = 8.57834 26.94695 17.76264
#
# Velocity S-wave (km/s) = 1.96997 3.49151 2.83474
# Velocity P-wave (km/s) = 3.69441 5.55082 4.71489
#
# Compressibility (1/GPa) = 0.05338439
#
# Stress axis : x y z
#
# Youngs Moduli (GPa) = 163.97447 41.37734 55.34633
#
# Poissons Ratio (x) = -0.02185 0.13183
# Poissons Ratio (y) = -0.08659 -0.24235
# Poissons Ratio (z) = 0.39056 -0.18118
#
# Static dielectric constant tensor:
#      x y z
#    x 1.897530 0.000000 0.000000 
#    y 0.000000 2.039260 0.000000 
#    z 0.000000 0.000000 1.873860 
# 
# From -- ./inp_files/24774.got.cif
#   From: 2010.05.17/outbox.cif.g08.bks.cpg/sg22_13_cif.got.tgz:24774.got - 2010.06.03 23:40:54.
