data_PCOD9326514
_publ_section_title
;
Structure prediction by ZEFSAII (Michael W. Deem and Ramdas Pophale) SiO2 
 PCOD9326514
Probable space group: F 2 2 2
;
_chemical_formula_sum "Si O2"
_cell_formula_units_Z 88
_cell_length_a 29.391951
_cell_length_b 14.441280
_cell_length_c 10.630035
_cell_angle_alpha 90.000000
_cell_angle_beta 90.000000
_cell_angle_gamma 90.000000
_cell_volume 4511.996956
_symmetry_space_group_name_H-M "F 2 2 2"
_symmetry_group_IT_number 22
_symmetry_cell_setting 'orthorhombic'
loop_
_space_group_symop_operation_xyz
x,y,z
-x,-y,z
x,-y,-z
-x,y,-z
x,1/2+y,1/2+z
-x,1/2-y,1/2+z
x,1/2-y,1/2-z
-x,1/2+y,1/2-z
1/2+x,y,1/2+z
1/2-x,-y,1/2+z
1/2+x,-y,1/2-z
1/2-x,y,1/2-z
1/2+x,1/2+y,z
1/2-x,1/2-y,z
1/2+x,1/2-y,-z
1/2-x,1/2+y,-z
loop_
_atom_site_type_symbol
_atom_site_label
_atom_site_fract_x
_atom_site_fract_y
_atom_site_fract_z
Si Si1 0.188034 0.089003 0.588269
Si Si2 0.867811 0.735578 0.510198
Si Si3 0.500688 0.890529 0.151965
Si Si4 0.250000 0.498522 0.250000
Si Si5 0.075875 0.250000 0.250000
Si Si6 0.771092 0.657561 0.449599
Si Si7 0.925862 0.250000 0.250000
O O1 0.149911 0.162114 0.551967
O O2 0.236134 0.139908 0.562047
O O3 0.180700 0.000000 0.500000
O O4 0.202007 0.050105 0.723389
O O5 0.894434 0.735447 0.377072
O O6 0.822452 0.675500 0.488756
O O7 0.897440 0.710228 0.631913
O O8 0.543494 0.837339 0.215023
O O9 0.457234 0.833533 0.200334
O O10 0.500000 0.000000 0.181657
O O11 0.500000 0.881315 0.000000
O O12 0.237457 0.430589 0.363749
O O13 0.750000 0.750000 0.387603
#
# Coordination Sequence:
#
# PCOD9326514 Si02
#       7
#    16  16  16   8   8  16   8
#     4   9  21  37  56  87 124 175 217 262 308 367
#     4  11  24  39  63  93 130 164 212 258 318 365
#     4  10  22  47  73  95 126 167 202 247 330 402
#     4  10  19  36  59  82 122 176 222 260 309 357
#     4  11  24  42  69 102 124 164 205 268 310 393
#     4   9  20  37  56  83 123 175 213 258 310 363
#     4  11  24  44  67 100 130 160 203 270 314 389
#
# _framework density 19.503558000000002
#
# number of rings (size 3 to 8) (size 9 to 14) (size 15 to 20)
#    0.000    2.000    1.818    0.273   10.182    1.455 
#    0.000    1.818    0.000    0.000    0.000    0.000 
#    0.000    0.000    0.000    0.000    0.000    0.000 
#
# Total GULP energy -122508.739237 kJ/mol
# GULP energy per Si atom -5568.579056 kJ/mol
# Density = 1.945917 g / cm^3
# Si number density = 19.503558 Si / 1000 Ang^3
#
#
#
# Elastic Constant Matrix: (Units=GPa)
#
#
# Indices 1 2 3 4 5 6 
#
# 1 116.1864 37.8359 54.5825 0.0000 0.0000 0.0000
# 2 37.8359 98.3729 31.7988 0.0000 0.0000 0.0000
# 3 54.5825 31.7988 108.9533 0.0000 0.0000 0.0000
# 4 0.0000 0.0000 0.0000 23.4078 0.0000 0.0000
# 5 0.0000 0.0000 0.0000 0.0000 11.4217 0.0000
# 6 0.0000 0.0000 0.0000 0.0000 0.0000 12.2501
#
#
#
# Elastic Compliance Matrix: (Units=1/GPa)
#
#
# Indices 1 2 3 4 5 6 
#
# 1 0.011982 -0.002946 -0.005143 0.000000 0.000000 0.000000
# 2 -0.002946 0.011949 -0.002011 0.000000 0.000000 0.000000
# 3 -0.005143 -0.002011 0.012342 0.000000 0.000000 0.000000
# 4 0.000000 0.000000 0.000000 0.042721 0.000000 0.000000
# 5 0.000000 0.000000 0.000000 0.000000 0.087553 0.000000
# 6 0.000000 0.000000 0.000000 0.000000 0.000000 0.081632
#
#
# Mechanical properties :
#
#
# Convention : Reuss Voigt Hill
#
# Bulk Modulus (GPa) = 62.22069 63.54967 62.88518
# Shear Modulus (GPa) = 18.26574 22.70229 20.48402
#
# Velocity S-wave (km/s) = 3.06360 3.41546 3.24430
# Velocity P-wave (km/s) = 6.66976 6.94321 6.80786
#
# Compressibility (1/GPa) = 0.01607182
#
# Stress axis : x y z
#
# Youngs Moduli (GPa) = 83.45614 83.69102 81.02580
#
# Poissons Ratio (x) = 0.24657 0.41671
# Poissons Ratio (y) = 0.24588 0.16297
# Poissons Ratio (z) = 0.42921 0.16833
#
# Static dielectric constant tensor:
#      x y z
#    x 1.707370 0.000000 0.000000 
#    y 0.000000 1.837440 0.000000 
#    z 0.000000 0.000000 1.769500 
# 
# From -- ./inp_files/24571.got.cif
#   From: 2010.05.17/outbox.cif.g08.bks.cpg/sg22_13_cif.got.tgz:24571.got - 2010.06.03 23:40:54.
