data_PCOD9326380
_publ_section_title
;
Structure prediction by ZEFSAII (Michael W. Deem and Ramdas Pophale) SiO2 
 PCOD9326380
Probable space group: F 2 2 2
;
_chemical_formula_sum "Si O2"
_cell_formula_units_Z 72
_cell_length_a 18.149982
_cell_length_b 21.029296
_cell_length_c 8.709998
_cell_angle_alpha 90.000000
_cell_angle_beta 90.000000
_cell_angle_gamma 90.000000
_cell_volume 3324.443742
_symmetry_space_group_name_H-M "F 2 2 2"
_symmetry_group_IT_number 22
_symmetry_cell_setting 'orthorhombic'
loop_
_space_group_symop_operation_xyz
x,y,z
-x,-y,z
x,-y,-z
-x,y,-z
x,1/2+y,1/2+z
-x,1/2-y,1/2+z
x,1/2-y,1/2-z
-x,1/2+y,1/2-z
1/2+x,y,1/2+z
1/2-x,-y,1/2+z
1/2+x,-y,1/2-z
1/2-x,y,1/2-z
1/2+x,1/2+y,z
1/2-x,1/2-y,z
1/2+x,1/2-y,-z
1/2-x,1/2+y,-z
loop_
_atom_site_type_symbol
_atom_site_label
_atom_site_fract_x
_atom_site_fract_y
_atom_site_fract_z
Si Si1 0.739433 0.875742 0.417925
Si Si2 0.827935 0.558632 0.835784
Si Si3 0.500000 0.859206 0.500000
Si Si4 0.094714 0.542339 0.649671
Si Si5 0.856092 0.186613 0.153300
O O1 0.750000 0.847241 0.250000
O O2 0.803214 0.919650 0.493398
O O3 0.670074 0.921629 0.390832
O O4 0.713389 0.824284 0.541361
O O5 0.750000 0.541918 0.750000
O O6 0.887422 0.504564 0.791421
O O7 0.855280 0.623697 0.758278
O O8 0.468804 0.904286 0.638585
O O9 0.568515 0.817864 0.557046
O O10 0.080952 0.500000 0.500000
O O11 0.851659 0.250000 0.250000
#
# Coordination Sequence:
#
# PCOD9326380 Si02
#       5
#    16  16   8  16  16
#     4  10  22  36  61  99 134 166 204 258 333 402
#     4  10  19  33  57  96 130 161 195 257 325 386
#     4  10  21  38  66  96 120 175 218 266 318 391
#     4  11  18  32  62 101 132 164 201 256 329 400
#     4  10  22  41  63  88 121 174 221 267 313 370
#
# _framework density 21.657758999999999
#
# number of rings (size 3 to 8) (size 9 to 14) (size 15 to 20)
#    0.000    1.778    6.667    1.000    0.000    4.000 
#    0.000    6.667    0.000    0.000   11.556    0.000 
#    0.000    0.000    0.000    0.000    0.000    0.000 
#
# Total GULP energy -100432.994154 kJ/mol
# GULP energy per Si atom -5579.610786 kJ/mol
# Density = 2.160846 g / cm^3
# Si number density = 21.657759 Si / 1000 Ang^3
#
#
#
# Elastic Constant Matrix: (Units=GPa)
#
#
# Indices 1 2 3 4 5 6 
#
# 1 69.1621 35.5452 36.2855 0.0000 0.0000 0.0000
# 2 35.5452 113.4548 58.3250 0.0000 0.0000 0.0000
# 3 36.2855 58.3250 120.2108 0.0000 0.0000 0.0000
# 4 0.0000 0.0000 0.0000 30.9137 0.0000 0.0000
# 5 0.0000 0.0000 0.0000 0.0000 21.6900 0.0000
# 6 0.0000 0.0000 0.0000 0.0000 0.0000 18.1864
#
#
#
# Elastic Compliance Matrix: (Units=1/GPa)
#
#
# Indices 1 2 3 4 5 6 
#
# 1 0.018372 -0.003870 -0.003668 0.000000 0.000000 0.000000
# 2 -0.003870 0.012559 -0.004925 0.000000 0.000000 0.000000
# 3 -0.003668 -0.004925 0.011815 0.000000 0.000000 0.000000
# 4 0.000000 0.000000 0.000000 0.032348 0.000000 0.000000
# 5 0.000000 0.000000 0.000000 0.000000 0.046104 0.000000
# 6 0.000000 0.000000 0.000000 0.000000 0.000000 0.054986
#
#
# Mechanical properties :
#
#
# Convention : Reuss Voigt Hill
#
# Bulk Modulus (GPa) = 56.11738 62.57100 59.34419
# Shear Modulus (GPa) = 24.14866 25.66949 24.90907
#
# Velocity S-wave (km/s) = 3.34280 3.44646 3.39502
# Velocity P-wave (km/s) = 6.39268 6.69260 6.54436
#
# Compressibility (1/GPa) = 0.01781979
#
# Stress axis : x y z
#
# Youngs Moduli (GPa) = 54.42995 79.62710 84.63557
#
# Poissons Ratio (x) = 0.30820 0.31042
# Poissons Ratio (y) = 0.21067 0.41683
# Poissons Ratio (z) = 0.19963 0.39216
#
# Static dielectric constant tensor:
#      x y z
#    x 1.832660 0.000000 0.000000 
#    y 0.000000 1.809850 0.000000 
#    z 0.000000 0.000000 1.877030 
# 
# From -- ./inp_files/12461.got.cif
#   From: 2010.05.17/outbox.cif.g08.bks.cpg/sg22_7_cif.got.tgz:12461.got - 2010.06.03 23:40:54.
