data_PCOD9326020
_publ_section_title
;
Structure prediction by ZEFSAII (Michael W. Deem and Ramdas Pophale) SiO2 
 PCOD9326020
Probable space group: F 2 2 2
;
_chemical_formula_sum "Si O2"
_cell_formula_units_Z 88
_cell_length_a 16.912520
_cell_length_b 9.167900
_cell_length_c 27.739868
_cell_angle_alpha 90.000000
_cell_angle_beta 90.000000
_cell_angle_gamma 90.000000
_cell_volume 4301.130116
_symmetry_space_group_name_H-M "F 2 2 2"
_symmetry_group_IT_number 22
_symmetry_cell_setting 'orthorhombic'
loop_
_space_group_symop_operation_xyz
x,y,z
-x,-y,z
x,-y,-z
-x,y,-z
x,1/2+y,1/2+z
-x,1/2-y,1/2+z
x,1/2-y,1/2-z
-x,1/2+y,1/2-z
1/2+x,y,1/2+z
1/2-x,-y,1/2+z
1/2+x,-y,1/2-z
1/2-x,y,1/2-z
1/2+x,1/2+y,z
1/2-x,1/2-y,z
1/2+x,1/2-y,-z
1/2-x,1/2+y,-z
loop_
_atom_site_type_symbol
_atom_site_label
_atom_site_fract_x
_atom_site_fract_y
_atom_site_fract_z
Si Si1 0.950580 0.352496 0.339661
Si Si2 0.314184 0.537947 0.851900
Si Si3 0.356374 0.873897 0.827441
Si Si4 0.026313 0.147641 0.413514
Si Si5 0.447617 0.250000 0.250000
Si Si6 0.089674 0.434825 0.450181
O O1 0.862934 0.406335 0.328669
O O2 0.000000 0.500000 0.350875
O O3 0.960419 0.243460 0.384815
O O4 0.995643 0.291647 0.293662
O O5 0.339019 0.699616 0.833595
O O6 0.221915 0.536478 0.839859
O O7 0.348564 0.532778 0.906830
O O8 0.418915 0.905858 0.869115
O O9 0.393051 0.877255 0.773782
O O10 0.073722 0.261288 0.446667
O O11 0.000000 0.000000 0.438672
O O12 0.121376 0.500000 0.500000
O O13 0.000000 0.500000 0.446980
#
# Coordination Sequence:
#
# PCOD9326020 Si02
#       6
#    16  16  16  16   8  16
#     4  11  18  37  59  83 119 166 217 246 309 380
#     4  10  17  36  62  86 116 158 204 260 313 370
#     4   9  20  34  59  90 123 157 211 263 308 366
#     4  10  19  36  60  91 125 160 201 257 321 371
#     4  10  20  31  56  94 125 172 220 264 299 370
#     4  10  18  34  65  92 112 155 209 248 303 391
#
# _framework density 20.45974
#
# number of rings (size 3 to 8) (size 9 to 14) (size 15 to 20)
#    0.000    2.000    7.273    0.000    0.000    4.364 
#    0.000    2.727    0.000   19.636    0.000    0.000 
#    0.000    0.000    0.000    0.000    0.000    0.000 
#
# Total GULP energy -122479.474860 kJ/mol
# GULP energy per Si atom -5567.248857 kJ/mol
# Density = 2.041317 g / cm^3
# Si number density = 20.459740 Si / 1000 Ang^3
#
#
#
# Elastic Constant Matrix: (Units=GPa)
#
#
# Indices 1 2 3 4 5 6 
#
# 1 112.5278 28.2696 21.4162 0.0000 0.0000 0.0000
# 2 28.2696 84.9929 27.9779 0.0000 0.0000 0.0000
# 3 21.4162 27.9779 109.8084 0.0000 0.0000 0.0000
# 4 0.0000 0.0000 0.0000 15.0459 0.0000 0.0000
# 5 0.0000 0.0000 0.0000 0.0000 9.9140 0.0000
# 6 0.0000 0.0000 0.0000 0.0000 0.0000 32.7946
#
#
#
# Elastic Compliance Matrix: (Units=1/GPa)
#
#
# Indices 1 2 3 4 5 6 
#
# 1 0.009836 -0.002882 -0.001184 0.000000 0.000000 0.000000
# 2 -0.002882 0.013687 -0.002925 0.000000 0.000000 0.000000
# 3 -0.001184 -0.002925 0.010083 0.000000 0.000000 0.000000
# 4 0.000000 0.000000 0.000000 0.066463 0.000000 0.000000
# 5 0.000000 0.000000 0.000000 0.000000 0.100867 0.000000
# 6 0.000000 0.000000 0.000000 0.000000 0.000000 0.030493
#
#
# Mechanical properties :
#
#
# Convention : Reuss Voigt Hill
#
# Bulk Modulus (GPa) = 50.95837 51.40628 51.18232
# Shear Modulus (GPa) = 19.84497 26.86194 23.35345
#
# Velocity S-wave (km/s) = 3.11778 3.62735 3.38218
# Velocity P-wave (km/s) = 6.15804 6.53634 6.35001
#
# Compressibility (1/GPa) = 0.01962386
#
# Stress axis : x y z
#
# Youngs Moduli (GPa) = 101.66714 73.06122 99.17648
#
# Poissons Ratio (x) = 0.21055 0.11743
# Poissons Ratio (y) = 0.29298 0.29012
# Poissons Ratio (z) = 0.12038 0.21372
#
# Static dielectric constant tensor:
#      x y z
#    x 1.804490 0.000000 0.000000 
#    y 0.000000 1.794010 0.000000 
#    z 0.000000 0.000000 1.799370 
# 
# From -- ./inp_files/56740.got.cif
#   From: 2010.05.17/outbox.cif.g08.bks.cpg/sg22_29_cif.got.tgz:56740.got - 2010.06.03 23:40:54.
