data_PCOD9326170
_publ_section_title
;
Structure prediction by ZEFSAII (Michael W. Deem and Ramdas Pophale) SiO2 
 PCOD9326170
Probable space group: F 2 2 2
;
_chemical_formula_sum "Si O2"
_cell_formula_units_Z 108
_cell_length_a 29.387273
_cell_length_b 14.678150
_cell_length_c 13.920519
_cell_angle_alpha 90.000000
_cell_angle_beta 90.000000
_cell_angle_gamma 90.000000
_cell_volume 6004.627024
_symmetry_space_group_name_H-M "F 2 2 2"
_symmetry_group_IT_number 22
_symmetry_cell_setting 'orthorhombic'
loop_
_space_group_symop_operation_xyz
x,y,z
-x,-y,z
x,-y,-z
-x,y,-z
x,1/2+y,1/2+z
-x,1/2-y,1/2+z
x,1/2-y,1/2-z
-x,1/2+y,1/2-z
1/2+x,y,1/2+z
1/2-x,-y,1/2+z
1/2+x,-y,1/2-z
1/2-x,y,1/2-z
1/2+x,1/2+y,z
1/2-x,1/2-y,z
1/2+x,1/2-y,-z
1/2-x,1/2+y,-z
loop_
_atom_site_type_symbol
_atom_site_label
_atom_site_fract_x
_atom_site_fract_y
_atom_site_fract_z
Si Si1 0.902438 0.074842 0.927613
Si Si2 0.454650 0.780510 0.444036
Si Si3 0.750000 0.250000 0.750000
Si Si4 0.459348 0.943901 0.299152
Si Si5 0.310632 0.094007 0.334927
Si Si6 0.743437 0.500000 0.000000
Si Si7 0.889652 0.836666 0.679770
Si Si8 0.208300 0.425863 0.812390
O O1 0.863940 0.105977 0.854019
O O2 0.941608 0.016869 0.876408
O O3 0.924265 0.156511 0.986527
O O4 0.881327 0.000000 0.000000
O O5 0.500000 0.750350 0.500000
O O6 0.469633 0.849397 0.356655
O O7 0.421368 0.701145 0.406242
O O8 0.716433 0.183668 0.693257
O O9 0.418373 0.916808 0.229679
O O10 0.500000 0.000000 0.250111
O O11 0.288091 0.064153 0.435406
O O12 0.303147 0.015619 0.253484
O O13 0.773167 0.451421 0.082304
O O14 0.887558 0.750000 0.750000
O O15 0.837817 0.869658 0.670374
O O16 0.250000 0.381936 0.750000
#
# Coordination Sequence:
#
# PCOD9326170 Si02
#       8
#    16  16   4  16  16   8  16  16
#     4  10  19  32  62  89 116 153 205 243 298 369
#     4  10  20  34  54  91 125 147 196 266 301 353
#     4  12  24  40  60  92 128 156 192 272 304 348
#     4  10  18  34  60  85 112 162 203 242 309 370
#     4  11  21  39  61  92 123 157 208 256 303 370
#     4  10  20  38  62  84 116 168 200 242 306 378
#     4  10  22  37  58  89 126 155 204 263 309 360
#     4  10  21  40  63  84 123 167 206 255 314 377
#
# _framework density 17.986129999999999
#
# number of rings (size 3 to 8) (size 9 to 14) (size 15 to 20)
#    0.000    1.778    5.926    0.000    0.000    1.481 
#    0.000    2.963    0.000    0.000    0.000    0.000 
#    0.000    0.000    0.000    0.000    0.000    0.000 
#
# Total GULP energy -150327.730983 kJ/mol
# GULP energy per Si atom -5567.693740 kJ/mol
# Density = 1.794519 g / cm^3
# Si number density = 17.986130 Si / 1000 Ang^3
#
#
#
# Elastic Constant Matrix: (Units=GPa)
#
#
# Indices 1 2 3 4 5 6 
#
# 1 116.2104 31.1014 32.0933 0.0000 0.0000 0.0000
# 2 31.1014 57.0058 25.3294 0.0000 0.0000 0.0000
# 3 32.0933 25.3294 80.1316 0.0000 0.0000 0.0000
# 4 0.0000 0.0000 0.0000 13.9178 0.0000 0.0000
# 5 0.0000 0.0000 0.0000 0.0000 30.7817 0.0000
# 6 0.0000 0.0000 0.0000 0.0000 0.0000 33.2962
#
#
#
# Elastic Compliance Matrix: (Units=1/GPa)
#
#
# Indices 1 2 3 4 5 6 
#
# 1 0.010594 -0.004531 -0.002811 0.000000 0.000000 0.000000
# 2 -0.004531 0.022346 -0.005249 0.000000 0.000000 0.000000
# 3 -0.002811 -0.005249 0.015264 0.000000 0.000000 0.000000
# 4 0.000000 0.000000 0.000000 0.071850 0.000000 0.000000
# 5 0.000000 0.000000 0.000000 0.000000 0.032487 0.000000
# 6 0.000000 0.000000 0.000000 0.000000 0.000000 0.030033
#
#
# Mechanical properties :
#
#
# Convention : Reuss Voigt Hill
#
# Bulk Modulus (GPa) = 43.43412 47.82178 45.62795
# Shear Modulus (GPa) = 23.20928 26.58739 24.89833
#
# Velocity S-wave (km/s) = 3.59611 3.84893 3.72466
# Velocity P-wave (km/s) = 6.43768 6.81162 6.62729
#
# Compressibility (1/GPa) = 0.02302338
#
# Stress axis : x y z
#
# Youngs Moduli (GPa) = 94.39365 44.74999 65.51213
#
# Poissons Ratio (x) = 0.20276 0.18414
# Poissons Ratio (y) = 0.42770 0.34387
# Poissons Ratio (z) = 0.26531 0.23489
#
# Static dielectric constant tensor:
#      x y z
#    x 1.658060 0.000000 0.000000 
#    y 0.000000 1.615390 0.000000 
#    z 0.000000 0.000000 1.637440 
# 
# From -- ./inp_files/25437.got.cif
#   From: 2010.05.17/outbox.cif.g08.bks.cpg/sg22_13_cif.got.tgz:25437.got - 2010.06.03 23:40:54.
