data_PCOD9326632
_publ_section_title
;
Structure prediction by ZEFSAII (Michael W. Deem and Ramdas Pophale) SiO2 
 PCOD9326632
Probable space group: F 2 2 2
;
_chemical_formula_sum "Si O2"
_cell_formula_units_Z 88
_cell_length_a 28.089576
_cell_length_b 15.104981
_cell_length_c 8.775816
_cell_angle_alpha 90.000000
_cell_angle_beta 90.000000
_cell_angle_gamma 90.000000
_cell_volume 3723.513014
_symmetry_space_group_name_H-M "F 2 2 2"
_symmetry_group_IT_number 22
_symmetry_cell_setting 'orthorhombic'
loop_
_space_group_symop_operation_xyz
x,y,z
-x,-y,z
x,-y,-z
-x,y,-z
x,1/2+y,1/2+z
-x,1/2-y,1/2+z
x,1/2-y,1/2-z
-x,1/2+y,1/2-z
1/2+x,y,1/2+z
1/2-x,-y,1/2+z
1/2+x,-y,1/2-z
1/2-x,y,1/2-z
1/2+x,1/2+y,z
1/2-x,1/2-y,z
1/2+x,1/2-y,-z
1/2-x,1/2+y,-z
loop_
_atom_site_type_symbol
_atom_site_label
_atom_site_fract_x
_atom_site_fract_y
_atom_site_fract_z
Si Si1 0.580584 0.500000 0.500000
Si Si2 0.656106 0.104627 0.183334
Si Si3 0.605559 0.664777 0.989989
Si Si4 0.250000 0.591810 0.250000
Si Si5 0.028545 0.915549 0.783035
Si Si6 0.458412 0.750000 0.250000
Si Si7 0.298648 0.226259 0.505419
O O1 0.615568 0.568943 0.577429
O O2 0.550491 0.448992 0.625490
O O3 0.629048 0.113883 0.345444
O O4 0.703257 0.042144 0.190899
O O5 0.678638 0.193902 0.107810
O O6 0.569539 0.385118 0.899588
O O7 0.574699 0.739299 0.899984
O O8 0.653877 0.692961 0.077633
O O9 0.275959 0.653207 0.122294
O O10 0.992081 0.835552 0.752991
O O11 0.000000 0.000000 0.842111
O O12 0.250000 0.250000 0.419415
#
# Coordination Sequence:
#
# PCOD9326632 Si02
#       7
#     8  16  16   8  16   8  16
#     4  12  29  46  64  94 146 194 234 308 375 420
#     4  10  19  38  69  99 139 180 233 293 358 441
#     4  11  22  42  76 103 135 187 248 296 359 446
#     4   8  15  34  66 108 126 175 230 289 342 438
#     4  12  31  50  70 102 151 197 252 310 372 436
#     4  12  26  44  73 108 141 188 250 310 368 440
#     4   9  16  34  71 109 136 176 236 294 359 444
#
# _framework density 23.633595
#
# number of rings (size 3 to 8) (size 9 to 14) (size 15 to 20)
#    0.000    1.455    1.818    6.545    2.545    8.000 
#    0.000    5.455    0.000    3.273    0.000    0.000 
#    0.000    0.000    0.000    0.000    0.000    0.000 
#
# Total GULP energy -122736.848389 kJ/mol
# GULP energy per Si atom -5578.947654 kJ/mol
# Density = 2.357980 g / cm^3
# Si number density = 23.633595 Si / 1000 Ang^3
#
#
#
# Elastic Constant Matrix: (Units=GPa)
#
#
# Indices 1 2 3 4 5 6 
#
# 1 279.7051 87.8136 84.3403 0.0000 0.0000 0.0000
# 2 87.8136 84.7603 37.1315 0.0000 0.0000 0.0000
# 3 84.3403 37.1315 106.9658 0.0000 0.0000 0.0000
# 4 0.0000 0.0000 0.0000 42.5714 0.0000 0.0000
# 5 0.0000 0.0000 0.0000 0.0000 16.0331 0.0000
# 6 0.0000 0.0000 0.0000 0.0000 0.0000 -58.4646
#
#
#
# Elastic Compliance Matrix: (Units=1/GPa)
#
#
# Indices 1 2 3 4 5 6 
#
# 1 0.006041 -0.004920 -0.003055 0.000000 0.000000 0.000000
# 2 -0.004920 0.017921 -0.002341 0.000000 0.000000 0.000000
# 3 -0.003055 -0.002341 0.012571 0.000000 0.000000 0.000000
# 4 0.000000 0.000000 0.000000 0.023490 0.000000 0.000000
# 5 0.000000 0.000000 0.000000 0.000000 0.062371 0.000000
# 6 0.000000 0.000000 0.000000 0.000000 0.000000 -0.017104
#
#
# Mechanical properties :
#
#
# Convention : Reuss Voigt Hill
#
# Bulk Modulus (GPa) = 62.89780 98.88912 80.89346
# Shear Modulus (GPa) = 38.10285 17.50437 27.80361
#
# Velocity S-wave (km/s) = 4.01962 2.72445 3.43365
# Velocity P-wave (km/s) = 6.94367 7.19933 7.07266
#
# Compressibility (1/GPa) = 0.01589881
#
# Stress axis : x y z
#
# Youngs Moduli (GPa) = 165.52880 55.79936 79.55021
#
# Poissons Ratio (x) = 0.27455 0.24305
# Poissons Ratio (y) = 0.81447 0.18627
# Poissons Ratio (z) = 0.50575 0.13065
#
# Static dielectric constant tensor:
#      x y z
#    x 2.000000 0.000000 0.000000 
#    y 0.000000 1.988570 0.000000 
#    z 0.000000 0.000000 2.045090 
# 
# From -- ./inp_files/33110.got.cif
#   From: 2010.05.17/outbox.cif.g08.bks.cpg/sg22_17_cif.got.tgz:33110.got - 2010.06.03 23:40:54.
