data_PCOD9326036
_publ_section_title
;
Structure prediction by ZEFSAII (Michael W. Deem and Ramdas Pophale) SiO2 
 PCOD9326036
Probable space group: F 2 2 2
;
_chemical_formula_sum "Si O2"
_cell_formula_units_Z 68
_cell_length_a 5.426431
_cell_length_b 14.583146
_cell_length_c 38.742908
_cell_angle_alpha 90.000000
_cell_angle_beta 90.000000
_cell_angle_gamma 90.000000
_cell_volume 3065.898155
_symmetry_space_group_name_H-M "F 2 2 2"
_symmetry_group_IT_number 22
_symmetry_cell_setting 'orthorhombic'
loop_
_space_group_symop_operation_xyz
x,y,z
-x,-y,z
x,-y,-z
-x,y,-z
x,1/2+y,1/2+z
-x,1/2-y,1/2+z
x,1/2-y,1/2-z
-x,1/2+y,1/2-z
1/2+x,y,1/2+z
1/2-x,-y,1/2+z
1/2+x,-y,1/2-z
1/2-x,y,1/2-z
1/2+x,1/2+y,z
1/2-x,1/2-y,z
1/2+x,1/2-y,-z
1/2-x,1/2+y,-z
loop_
_atom_site_type_symbol
_atom_site_label
_atom_site_fract_x
_atom_site_fract_y
_atom_site_fract_z
Si Si1 0.000000 0.500000 0.000000
Si Si2 0.246027 0.360009 0.327240
Si Si3 0.765210 0.597233 0.937192
Si Si4 0.737157 0.892174 0.408406
Si Si5 0.748339 0.637720 0.710151
O O1 0.169863 0.563985 0.024203
O O2 0.250000 0.250000 0.323476
O O3 0.223129 0.379603 0.367716
O O4 0.502341 0.392075 0.310177
O O5 0.999881 0.392746 0.308122
O O6 0.750757 0.500568 0.916640
O O7 0.502942 0.641527 0.929228
O O8 0.005199 0.647337 0.922390
O O9 0.750000 0.608652 0.750000
O O10 0.750000 0.750000 0.709915
#
# Coordination Sequence:
#
# PCOD9326036 Si02
#       5
#     4  16  16  16  16
#     4   8  16  30  48  74  92 106 144 190 236 252
#     4  10  18  28  45  66  92 119 144 180 225 269
#     4   9  18  29  48  68  89 113 142 184 220 256
#     4   9  17  29  42  68  92 114 145 174 221 264
#     4   9  17  28  42  63  88 115 150 189 225 258
#
# _framework density 22.179473000000002
#
# number of rings (size 3 to 8) (size 9 to 14) (size 15 to 20)
#    0.000    3.059    0.000    2.118    0.000   10.353 
#    0.000    0.000    0.000    0.000    0.000   92.235 
#    0.000    0.000    0.000    0.000    0.000    0.000 
#
# Total GULP energy -94873.905089 kJ/mol
# GULP energy per Si atom -5580.817946 kJ/mol
# Density = 2.212899 g / cm^3
# Si number density = 22.179473 Si / 1000 Ang^3
#
#
#
# Elastic Constant Matrix: (Units=GPa)
#
#
# Indices 1 2 3 4 5 6 
#
# 1 268.4795 12.8428 126.3762 0.0000 0.0000 0.0000
# 2 12.8428 72.7242 5.1874 0.0000 0.0000 0.0000
# 3 126.3762 5.1874 197.9977 0.0000 0.0000 0.0000
# 4 0.0000 0.0000 0.0000 39.2595 0.0000 0.0000
# 5 0.0000 0.0000 0.0000 0.0000 51.3666 0.0000
# 6 0.0000 0.0000 0.0000 0.0000 0.0000 -18.2230
#
#
#
# Elastic Compliance Matrix: (Units=1/GPa)
#
#
# Indices 1 2 3 4 5 6 
#
# 1 0.005360 -0.000704 -0.003403 0.000000 0.000000 0.000000
# 2 -0.000704 0.013869 0.000086 0.000000 0.000000 0.000000
# 3 -0.003403 0.000086 0.007220 0.000000 0.000000 0.000000
# 4 0.000000 0.000000 0.000000 0.025472 0.000000 0.000000
# 5 0.000000 0.000000 0.000000 0.000000 0.019468 0.000000
# 6 0.000000 0.000000 0.000000 0.000000 0.000000 -0.054876
#
#
# Mechanical properties :
#
#
# Convention : Reuss Voigt Hill
#
# Bulk Modulus (GPa) = 54.32535 92.00157 73.16346
# Shear Modulus (GPa) = 162.91999 40.80029 101.86014
#
# Velocity S-wave (km/s) = 8.57990 4.29365 6.78418
# Velocity P-wave (km/s) = 11.07699 8.13334 9.71728
#
# Compressibility (1/GPa) = 0.01840761
#
# Stress axis : x y z
#
# Youngs Moduli (GPa) = 186.56557 72.10459 138.50083
#
# Poissons Ratio (x) = 0.05075 0.47128
# Poissons Ratio (y) = 0.13131 -0.01190
# Poissons Ratio (z) = 0.63483 -0.00619
#
# Static dielectric constant tensor:
#      x y z
#    x 1.920470 0.000000 0.000000 
#    y 0.000000 1.761110 0.000000 
#    z 0.000000 0.000000 1.751760 
# 
# From -- ./inp_files/4619.got.cif
#   From: 2010.05.17/outbox.cif.g08.bks.cpg/sg22_3_cif.got.tgz:4619.got - 2010.06.03 23:40:54.
