data_PCOD9326649
_publ_section_title
;
Structure prediction by ZEFSAII (Michael W. Deem and Ramdas Pophale) SiO2 
 PCOD9326649
Probable space group: F 2 2 2
;
_chemical_formula_sum "Si O2"
_cell_formula_units_Z 100
_cell_length_a 32.415333
_cell_length_b 17.300012
_cell_length_c 8.188216
_cell_angle_alpha 90.000000
_cell_angle_beta 90.000000
_cell_angle_gamma 90.000000
_cell_volume 4591.834031
_symmetry_space_group_name_H-M "F 2 2 2"
_symmetry_group_IT_number 22
_symmetry_cell_setting 'orthorhombic'
loop_
_space_group_symop_operation_xyz
x,y,z
-x,-y,z
x,-y,-z
-x,y,-z
x,1/2+y,1/2+z
-x,1/2-y,1/2+z
x,1/2-y,1/2-z
-x,1/2+y,1/2-z
1/2+x,y,1/2+z
1/2-x,-y,1/2+z
1/2+x,-y,1/2-z
1/2-x,y,1/2-z
1/2+x,1/2+y,z
1/2-x,1/2-y,z
1/2+x,1/2-y,-z
1/2-x,1/2+y,-z
loop_
_atom_site_type_symbol
_atom_site_label
_atom_site_fract_x
_atom_site_fract_y
_atom_site_fract_z
Si Si1 0.145314 0.586750 0.419058
Si Si2 0.250000 0.750000 0.750000
Si Si3 0.570099 0.073311 0.229307
Si Si4 0.681736 0.365784 0.769100
Si Si5 0.506267 0.666067 0.306234
Si Si6 0.708322 0.028690 0.185645
Si Si7 0.409506 0.104003 0.143557
O O1 0.143951 0.500000 0.500000
O O2 0.099027 0.606926 0.370734
O O3 0.167694 0.645724 0.542428
O O4 0.170173 0.578155 0.249625
O O5 0.284889 0.690010 0.683990
O O6 0.523110 0.098056 0.260714
O O7 0.580361 0.982438 0.209320
O O8 0.583024 0.105150 0.050758
O O9 0.704298 0.447851 0.780178
O O10 0.637736 0.374279 0.680079
O O11 0.500000 0.661421 0.500000
O O12 0.491969 0.750000 0.250000
O O13 0.554781 0.655010 0.274031
O O14 0.750000 0.066924 0.250000
O O15 0.707309 0.000000 0.000000
#
# Coordination Sequence:
#
# PCOD9326649 Si02
#       7
#    16   4  16  16  16  16  16
#     4  10  20  36  61  94 120 149 201 264 323 367
#     4  12  28  44  60  86 132 180 212 252 324 396
#     4  10  19  39  65  95 125 158 217 269 316 372
#     4  11  23  40  61  89 123 164 212 259 317 386
#     4  10  23  40  59  90 132 178 212 254 318 386
#     4  11  20  35  64  92 117 148 197 267 330 369
#     4  10  20  38  68  92 120 169 216 264 317 377
#
# _framework density 21.77779
#
# number of rings (size 3 to 8) (size 9 to 14) (size 15 to 20)
#    0.000    1.600    4.000    2.880    1.120    3.200 
#    2.880    0.000    0.000    3.840    0.000    0.000 
#    0.000    0.000    0.000    0.000    0.000    0.000 
#
# Total GULP energy -139205.759776 kJ/mol
# GULP energy per Si atom -5568.230391 kJ/mol
# Density = 2.172822 g / cm^3
# Si number density = 21.777790 Si / 1000 Ang^3
#
#
#
# Elastic Constant Matrix: (Units=GPa)
#
#
# Indices 1 2 3 4 5 6 
#
# 1 165.8060 37.0403 20.8796 0.0000 0.0000 0.0000
# 2 37.0403 42.6005 -5.4491 0.0000 0.0000 0.0000
# 3 20.8796 -5.4491 67.9367 0.0000 0.0000 0.0000
# 4 0.0000 0.0000 0.0000 7.9369 0.0000 0.0000
# 5 0.0000 0.0000 0.0000 0.0000 38.1917 0.0000
# 6 0.0000 0.0000 0.0000 0.0000 0.0000 22.5639
#
#
#
# Elastic Compliance Matrix: (Units=1/GPa)
#
#
# Indices 1 2 3 4 5 6 
#
# 1 0.008075 -0.007414 -0.003076 0.000000 0.000000 0.000000
# 2 -0.007414 0.030525 0.004727 0.000000 0.000000 0.000000
# 3 -0.003076 0.004727 0.016044 0.000000 0.000000 0.000000
# 4 0.000000 0.000000 0.000000 0.125994 0.000000 0.000000
# 5 0.000000 0.000000 0.000000 0.000000 0.026184 0.000000
# 6 0.000000 0.000000 0.000000 0.000000 0.000000 0.044319
#
#
# Mechanical properties :
#
#
# Convention : Reuss Voigt Hill
#
# Bulk Modulus (GPa) = 23.19276 42.36498 32.77887
# Shear Modulus (GPa) = 18.04792 28.66333 23.35563
#
# Velocity S-wave (km/s) = 2.88189 3.63185 3.27838
# Velocity P-wave (km/s) = 4.66332 6.08955 5.42352
#
# Compressibility (1/GPa) = 0.04311691
#
# Stress axis : x y z
#
# Youngs Moduli (GPa) = 123.84029 32.75973 62.32756
#
# Poissons Ratio (x) = 0.24290 0.19175
# Poissons Ratio (y) = 0.91821 -0.29463
# Poissons Ratio (z) = 0.38099 -0.15486
#
# Static dielectric constant tensor:
#      x y z
#    x 1.827650 0.000000 0.000000 
#    y 0.000000 1.812570 0.000000 
#    z 0.000000 0.000000 1.869800 
# 
# From -- ./inp_files/15624.got.cif
#   From: 2010.05.17/outbox.cif.g08.bks.cpg/sg22_8_cif.got.tgz:15624.got - 2010.06.03 23:40:54.
