data_PCOD9326286
_publ_section_title
;
Structure prediction by ZEFSAII (Michael W. Deem and Ramdas Pophale) SiO2 
 PCOD9326286
Probable space group: F 2 2 2
;
_chemical_formula_sum "Si O2"
_cell_formula_units_Z 112
_cell_length_a 30.906487
_cell_length_b 5.414961
_cell_length_c 27.600264
_cell_angle_alpha 90.000000
_cell_angle_beta 90.000000
_cell_angle_gamma 90.000000
_cell_volume 4619.109023
_symmetry_space_group_name_H-M "F 2 2 2"
_symmetry_group_IT_number 22
_symmetry_cell_setting 'orthorhombic'
loop_
_space_group_symop_operation_xyz
x,y,z
-x,-y,z
x,-y,-z
-x,y,-z
x,1/2+y,1/2+z
-x,1/2-y,1/2+z
x,1/2-y,1/2-z
-x,1/2+y,1/2-z
1/2+x,y,1/2+z
1/2-x,-y,1/2+z
1/2+x,-y,1/2-z
1/2-x,y,1/2-z
1/2+x,1/2+y,z
1/2-x,1/2-y,z
1/2+x,1/2-y,-z
1/2-x,1/2+y,-z
loop_
_atom_site_type_symbol
_atom_site_label
_atom_site_fract_x
_atom_site_fract_y
_atom_site_fract_z
Si Si1 0.564137 0.914829 0.659399
Si Si2 0.155213 0.760399 0.307881
Si Si3 0.298177 0.270826 0.191735
Si Si4 0.723335 0.999829 0.058381
Si Si5 0.456205 0.573237 0.650326
Si Si6 0.876312 0.426943 0.924979
Si Si7 0.582221 0.428362 0.049675
O O1 0.614625 0.866409 0.665897
O O2 0.545714 0.668634 0.683070
O O3 0.556298 0.927691 0.600708
O O4 0.545581 0.169613 0.677319
O O5 0.146852 0.750000 0.250000
O O6 0.190279 0.552788 0.319456
O O7 0.170236 0.039128 0.320126
O O8 0.296802 0.250000 0.250000
O O9 0.250000 0.250000 0.172729
O O10 0.750000 0.250000 0.071335
O O11 0.750000 0.750000 0.069042
O O12 0.674637 0.982310 0.079739
O O13 0.717266 0.000000 0.000000
O O14 0.500000 0.500000 0.621167
O O15 0.411655 0.576710 0.619308
O O16 0.895465 0.661658 0.954065
O O17 0.882644 0.149630 0.945070
O O18 0.558018 0.500000 0.000000
#
# Coordination Sequence:
#
# PCOD9326286 Si02
#       7
#    16  16  16  16  16  16  16
#     4  10  21  36  59  85 115 150 194 243 298 366
#     4  10  19  33  56  87 120 156 199 246 300 362
#     4   9  17  30  52  84 122 162 201 242 295 363
#     4  10  19  30  48  75 105 142 188 234 288 355
#     4  10  21  39  63  86 112 152 198 245 307 376
#     4  10  20  34  56  81 108 141 190 250 298 349
#     4  10  19  33  56  80 107 149 194 239 291 345
#
# _framework density 24.247102000000002
#
# number of rings (size 3 to 8) (size 9 to 14) (size 15 to 20)
#    0.000    2.143    0.000    3.857    0.000    2.857 
#    0.000    0.000    0.000   84.429    0.000    0.000 
#    0.000    0.000    0.000    0.000    0.000    0.000 
#
# Total GULP energy -155934.052701 kJ/mol
# GULP energy per Si atom -5569.073311 kJ/mol
# Density = 2.419191 g / cm^3
# Si number density = 24.247102 Si / 1000 Ang^3
#
#
#
# Elastic Constant Matrix: (Units=GPa)
#
#
# Indices 1 2 3 4 5 6 
#
# 1 120.3905 25.4745 7.3709 -0.0117 -0.0051 0.0054
# 2 25.4745 204.8069 12.8222 -0.0095 -0.0002 0.0109
# 3 7.3709 12.8222 67.1738 -0.0015 0.0081 0.0018
# 4 -0.0117 -0.0095 -0.0015 -2.7807 0.0002 0.0045
# 5 -0.0051 -0.0002 0.0081 0.0002 24.8260 -0.0164
# 6 0.0054 0.0109 0.0018 0.0045 -0.0164 39.5818
#
#
#
# Elastic Compliance Matrix: (Units=1/GPa)
#
#
# Indices 1 2 3 4 5 6 
#
# 1 0.008568 -0.001019 -0.000746 -0.000032 0.000002 -0.000001
# 2 -0.001019 0.005063 -0.000855 -0.000012 0.000000 -0.000001
# 3 -0.000746 -0.000855 0.015132 -0.000002 -0.000005 0.000000
# 4 -0.000032 -0.000012 -0.000002 -0.359622 0.000003 0.000041
# 5 0.000002 0.000000 -0.000005 0.000003 0.040280 0.000017
# 6 -0.000001 -0.000001 0.000000 0.000041 0.000017 0.025264
#
#
# Mechanical properties :
#
#
# Convention : Reuss Voigt Hill
#
# Bulk Modulus (GPa) = 42.51017 53.74516 48.12766
# Shear Modulus (GPa) = -19.82273 35.43898 7.80813
#
# Velocity S-wave (km/s) = -2.86235 3.82720 1.79645
# Velocity P-wave (km/s) = 2.57800 6.46094 4.91883
#
# Compressibility (1/GPa) = 0.02352379
#
# Stress axis : x y z
#
# Youngs Moduli (GPa) = 116.71927 197.51545 66.08647
#
# Poissons Ratio (x) = 0.20126 0.04927
# Poissons Ratio (y) = 0.11893 0.05648
# Poissons Ratio (z) = 0.08703 0.16880
#
# Static dielectric constant tensor:
#      x y z
#    x 2.050070 0.000040 -0.000020 
#    y 0.000040 1.837430 -0.000010 
#    z -0.000020 -0.000010 2.028020 
# 
# From -- ./inp_files/57353.got.cif
#   From: 2010.05.17/outbox.cif.g08.bks.cpg/sg22_29_cif.got.tgz:57353.got - 2010.06.03 23:40:54.
