data_PCOD9326181
_publ_section_title
;
Structure prediction by ZEFSAII (Michael W. Deem and Ramdas Pophale) SiO2 
 PCOD9326181
Probable space group: F 2 2 2
;
_chemical_formula_sum "Si O2"
_cell_formula_units_Z 80
_cell_length_a 21.701961
_cell_length_b 11.428919
_cell_length_c 16.058786
_cell_angle_alpha 90.000000
_cell_angle_beta 90.000000
_cell_angle_gamma 90.000000
_cell_volume 3983.059959
_symmetry_space_group_name_H-M "F 2 2 2"
_symmetry_group_IT_number 22
_symmetry_cell_setting 'orthorhombic'
loop_
_space_group_symop_operation_xyz
x,y,z
-x,-y,z
x,-y,-z
-x,y,-z
x,1/2+y,1/2+z
-x,1/2-y,1/2+z
x,1/2-y,1/2-z
-x,1/2+y,1/2-z
1/2+x,y,1/2+z
1/2-x,-y,1/2+z
1/2+x,-y,1/2-z
1/2-x,y,1/2-z
1/2+x,1/2+y,z
1/2-x,1/2-y,z
1/2+x,1/2-y,-z
1/2-x,1/2+y,-z
loop_
_atom_site_type_symbol
_atom_site_label
_atom_site_fract_x
_atom_site_fract_y
_atom_site_fract_z
Si Si1 0.107311 0.318760 0.162140
Si Si2 0.478790 0.627017 0.299959
Si Si3 0.689785 0.827606 0.450496
Si Si4 0.658609 0.929752 0.811093
Si Si5 0.207417 0.416314 0.626561
O O1 0.107116 0.250000 0.250000
O O2 0.133245 0.236711 0.091404
O O3 0.150781 0.431082 0.175635
O O4 0.037787 0.357447 0.140854
O O5 0.500000 0.500000 0.257471
O O6 0.477732 0.750000 0.250000
O O7 0.409375 0.615861 0.333243
O O8 0.750000 0.750000 0.437304
O O9 0.681498 0.845766 0.548703
O O10 0.700827 0.949925 0.403694
O O11 0.719959 0.890257 0.859177
O O12 0.672572 0.901700 0.714034
#
# Coordination Sequence:
#
# PCOD9326181 Si02
#       5
#    16  16  16  16  16
#     4  10  18  34  62  92 119 172 227 270 323 405
#     4   9  20  36  62  95 125 170 228 283 319 400
#     4  11  21  35  56  92 133 169 214 278 340 398
#     4  10  19  37  61  93 126 167 227 272 339 406
#     4  10  22  34  58  97 129 167 213 286 348 395
#
# _framework density 20.085059999999999
#
# number of rings (size 3 to 8) (size 9 to 14) (size 15 to 20)
#    0.000    2.000    4.000    0.000    0.000    2.000 
#    0.000    2.000    0.000   10.800    0.000    0.000 
#    0.000    0.000    0.000    0.000    0.000    0.000 
#
# Total GULP energy -111480.267847 kJ/mol
# GULP energy per Si atom -5574.013392 kJ/mol
# Density = 2.003935 g / cm^3
# Si number density = 20.085060 Si / 1000 Ang^3
#
#
#
# Elastic Constant Matrix: (Units=GPa)
#
#
# Indices 1 2 3 4 5 6 
#
# 1 140.8167 38.2950 62.4902 0.0000 0.0000 0.0000
# 2 38.2950 92.9459 32.4610 0.0000 0.0000 0.0000
# 3 62.4902 32.4610 104.9672 0.0000 0.0000 0.0000
# 4 0.0000 0.0000 0.0000 29.3515 0.0000 0.0000
# 5 0.0000 0.0000 0.0000 0.0000 -6.7307 0.0000
# 6 0.0000 0.0000 0.0000 0.0000 0.0000 29.5787
#
#
#
# Elastic Compliance Matrix: (Units=1/GPa)
#
#
# Indices 1 2 3 4 5 6 
#
# 1 0.010073 -0.002305 -0.005284 0.000000 0.000000 0.000000
# 2 -0.002305 0.012589 -0.002521 0.000000 0.000000 0.000000
# 3 -0.005284 -0.002521 0.013452 0.000000 0.000000 0.000000
# 4 0.000000 0.000000 0.000000 0.034070 0.000000 0.000000
# 5 0.000000 0.000000 0.000000 0.000000 -0.148572 0.000000
# 6 0.000000 0.000000 0.000000 0.000000 0.000000 0.033808
#
#
# Mechanical properties :
#
#
# Convention : Reuss Voigt Hill
#
# Bulk Modulus (GPa) = 62.91481 67.24690 65.08086
# Shear Modulus (GPa) = -262.30471 24.13881 -119.08295
#
# Velocity S-wave (km/s) = -11.44030 3.47050 -7.70831
# Velocity P-wave (km/s) = 11.96307 7.04364 6.83748
#
# Compressibility (1/GPa) = 0.01589451
#
# Stress axis : x y z
#
# Youngs Moduli (GPa) = 99.27391 79.43432 74.33745
#
# Poissons Ratio (x) = 0.18308 0.39280
# Poissons Ratio (y) = 0.22881 0.18740
# Poissons Ratio (z) = 0.52457 0.20025
#
# Static dielectric constant tensor:
#      x y z
#    x 1.697600 0.000000 0.000000 
#    y 0.000000 1.802650 0.000000 
#    z 0.000000 0.000000 1.677210 
# 
# From -- ./inp_files/23561.got.cif
#   From: 2010.05.17/outbox.cif.g08.bks.cpg/sg22_12_cif.got.tgz:23561.got - 2010.06.03 23:40:54.
