data_PCOD9326711
_publ_section_title
;
Structure prediction by ZEFSAII (Michael W. Deem and Ramdas Pophale) SiO2 
 PCOD9326711
Probable space group: F 2 2 2
;
_chemical_formula_sum "Si O2"
_cell_formula_units_Z 108
_cell_length_a 15.331083
_cell_length_b 30.719180
_cell_length_c 12.911518
_cell_angle_alpha 90.000000
_cell_angle_beta 90.000000
_cell_angle_gamma 90.000000
_cell_volume 6080.786545
_symmetry_space_group_name_H-M "F 2 2 2"
_symmetry_group_IT_number 22
_symmetry_cell_setting 'orthorhombic'
loop_
_space_group_symop_operation_xyz
x,y,z
-x,-y,z
x,-y,-z
-x,y,-z
x,1/2+y,1/2+z
-x,1/2-y,1/2+z
x,1/2-y,1/2-z
-x,1/2+y,1/2-z
1/2+x,y,1/2+z
1/2-x,-y,1/2+z
1/2+x,-y,1/2-z
1/2-x,y,1/2-z
1/2+x,1/2+y,z
1/2-x,1/2-y,z
1/2+x,1/2-y,-z
1/2-x,1/2+y,-z
loop_
_atom_site_type_symbol
_atom_site_label
_atom_site_fract_x
_atom_site_fract_y
_atom_site_fract_z
Si Si1 0.548162 0.954581 0.211539
Si Si2 0.693974 0.549708 0.465488
Si Si3 0.500000 0.000000 0.500000
Si Si4 0.157284 0.696754 0.129603
Si Si5 0.857018 0.296047 0.378803
Si Si6 0.110124 0.430943 0.435172
Si Si7 0.931326 0.893797 0.592761
Si Si8 0.500000 0.851380 0.500000
O O1 0.629147 0.949383 0.133095
O O2 0.579960 0.954382 0.329441
O O3 0.480338 0.915254 0.190273
O O4 0.500000 0.000000 0.187439
O O5 0.705898 0.500000 0.500000
O O6 0.786639 0.570539 0.439768
O O7 0.649055 0.576069 0.558691
O O8 0.427383 0.037819 0.526698
O O9 0.147684 0.699833 0.254257
O O10 0.132176 0.745117 0.092059
O O11 0.257735 0.689797 0.093305
O O12 0.099526 0.655636 0.099858
O O13 0.935835 0.323069 0.427945
O O14 0.064950 0.384143 0.439988
O O15 0.000000 0.897609 0.500000
#
# Coordination Sequence:
#
# PCOD9326711 Si02
#       8
#    16  16   4  16  16  16  16   8
#     4  11  21  36  55  78 108 145 186 233 272 322
#     4  11  21  36  55  78 108 145 186 233 272 322
#     4  10  20  32  48  68  92 140 172 208 254 316
#     4   9  18  37  56  85 108 143 173 228 277 327
#     4   9  19  35  59  80 116 136 180 225 277 324
#     4  11  22  36  50  75 113 141 180 222 276 324
#     4  10  21  33  57  81 105 138 187 225 264 331
#     4  11  22  35  56  82 112 152 181 224 273 344
#
# _framework density 17.760860000000001
#
# number of rings (size 3 to 8) (size 9 to 14) (size 15 to 20)
#    0.000    1.778    2.963    3.111    1.037    0.000 
#    0.000    1.481    0.000    0.000    0.000    0.000 
#    0.000    0.000    0.000    0.000    0.000    0.000 
#
# Total GULP energy -150311.760938 kJ/mol
# GULP energy per Si atom -5567.102257 kJ/mol
# Density = 1.772044 g / cm^3
# Si number density = 17.760860 Si / 1000 Ang^3
#
#
#
# Elastic Constant Matrix: (Units=GPa)
#
#
# Indices 1 2 3 4 5 6 
#
# 1 145.5466 61.2751 30.4585 0.0000 0.0000 0.0000
# 2 61.2751 102.3534 9.9313 0.0000 0.0000 0.0000
# 3 30.4585 9.9313 40.4125 0.0000 0.0000 0.0000
# 4 0.0000 0.0000 0.0000 23.7252 0.0000 0.0000
# 5 0.0000 0.0000 0.0000 0.0000 21.7578 0.0000
# 6 0.0000 0.0000 0.0000 0.0000 0.0000 36.7776
#
#
#
# Elastic Compliance Matrix: (Units=1/GPa)
#
#
# Indices 1 2 3 4 5 6 
#
# 1 0.010680 -0.005750 -0.006636 0.000000 0.000000 0.000000
# 2 -0.005750 0.013104 0.001113 0.000000 0.000000 0.000000
# 3 -0.006636 0.001113 0.029473 0.000000 0.000000 0.000000
# 4 0.000000 0.000000 0.000000 0.042149 0.000000 0.000000
# 5 0.000000 0.000000 0.000000 0.000000 0.045961 0.000000
# 6 0.000000 0.000000 0.000000 0.000000 0.000000 0.027190
#
#
# Mechanical properties :
#
#
# Convention : Reuss Voigt Hill
#
# Bulk Modulus (GPa) = 32.56133 54.62693 43.59413
# Shear Modulus (GPa) = 24.83347 28.89528 26.86437
#
# Velocity S-wave (km/s) = 3.74333 4.03787 3.89338
# Velocity P-wave (km/s) = 6.08739 7.25003 6.69400
#
# Compressibility (1/GPa) = 0.03071128
#
# Stress axis : x y z
#
# Youngs Moduli (GPa) = 93.63151 76.31092 33.92929
#
# Poissons Ratio (x) = 0.43878 0.22517
# Poissons Ratio (y) = 0.53837 -0.03777
# Poissons Ratio (z) = 0.62138 -0.08495
#
# Static dielectric constant tensor:
#      x y z
#    x 1.618990 0.000000 0.000000 
#    y 0.000000 1.611270 0.000000 
#    z 0.000000 0.000000 1.664920 
# 
# From -- ./inp_files/20326.got.cif
#   From: 2010.05.17/outbox.cif.g08.bks.cpg/sg22_11_cif.got.tgz:20326.got - 2010.06.03 23:40:54.
