data_PCOD9326972
_publ_section_title
;
Structure prediction by ZEFSAII (Michael W. Deem and Ramdas Pophale) SiO2 
 PCOD9326972
Probable space group: F 2 2 2
;
_chemical_formula_sum "Si O2"
_cell_formula_units_Z 112
_cell_length_a 16.071103
_cell_length_b 30.503244
_cell_length_c 11.282179
_cell_angle_alpha 90.000000
_cell_angle_beta 90.000000
_cell_angle_gamma 90.000000
_cell_volume 5530.758546
_symmetry_space_group_name_H-M "F 2 2 2"
_symmetry_group_IT_number 22
_symmetry_cell_setting 'orthorhombic'
loop_
_space_group_symop_operation_xyz
x,y,z
-x,-y,z
x,-y,-z
-x,y,-z
x,1/2+y,1/2+z
-x,1/2-y,1/2+z
x,1/2-y,1/2-z
-x,1/2+y,1/2-z
1/2+x,y,1/2+z
1/2-x,-y,1/2+z
1/2+x,-y,1/2-z
1/2-x,y,1/2-z
1/2+x,1/2+y,z
1/2-x,1/2-y,z
1/2+x,1/2-y,-z
1/2-x,1/2+y,-z
loop_
_atom_site_type_symbol
_atom_site_label
_atom_site_fract_x
_atom_site_fract_y
_atom_site_fract_z
Si Si1 0.343271 0.620222 0.509927
Si Si2 0.170018 0.075978 0.010579
Si Si3 0.255496 0.197997 0.391728
Si Si4 0.072348 0.385648 0.771966
Si Si5 0.397930 0.566405 0.738021
Si Si6 0.843275 0.975268 0.787756
Si Si7 0.088432 0.838491 0.042740
O O1 0.255329 0.598903 0.468484
O O2 0.318364 0.668231 0.556439
O O3 0.412615 0.625285 0.409321
O O4 0.368161 0.587376 0.615459
O O5 0.166286 0.071480 0.152069
O O6 0.154872 0.034497 0.927756
O O7 0.096419 0.110165 0.987927
O O8 0.250000 0.188959 0.250000
O O9 0.250000 0.250000 0.407145
O O10 0.338017 0.183150 0.465026
O O11 0.133452 0.427224 0.758621
O O12 0.092709 0.344299 0.685991
O O13 0.982766 0.406537 0.740713
O O14 0.403158 0.513433 0.738402
O O15 0.750000 0.986875 0.750000
O O16 0.000000 0.820692 0.000000
#
# Coordination Sequence:
#
# PCOD9326972 Si02
#       7
#    16  16  16  16  16  16  16
#     4  11  22  41  65  90 135 182 220 276 342 410
#     4  10  20  37  61  89 119 175 239 275 327 396
#     4  10  23  44  76 108 134 171 222 276 339 423
#     4  11  24  40  59  95 132 180 225 282 335 395
#     4  12  23  37  59  93 130 182 232 281 336 395
#     4  11  22  38  59  85 131 178 235 296 334 383
#     4  10  20  40  69  96 133 174 218 275 339 395
#
# _framework density 20.250385999999999
#
# number of rings (size 3 to 8) (size 9 to 14) (size 15 to 20)
#    0.000    1.286    2.857    4.286    0.000    0.571 
#    0.000    5.714    0.000    0.000    0.000    0.000 
#    0.000    0.000    0.000    0.000    0.000    0.000 
#
# Total GULP energy -155897.633730 kJ/mol
# GULP energy per Si atom -5567.772633 kJ/mol
# Density = 2.020430 g / cm^3
# Si number density = 20.250386 Si / 1000 Ang^3
#
#
#
# Elastic Constant Matrix: (Units=GPa)
#
#
# Indices 1 2 3 4 5 6 
#
# 1 84.7496 21.9321 41.9255 0.0000 0.0000 0.0000
# 2 21.9321 90.1169 60.8980 0.0000 0.0000 0.0000
# 3 41.9255 60.8980 146.6784 0.0000 0.0000 0.0000
# 4 0.0000 0.0000 0.0000 59.1361 0.0000 0.0000
# 5 0.0000 0.0000 0.0000 0.0000 32.4992 0.0000
# 6 0.0000 0.0000 0.0000 0.0000 0.0000 16.6349
#
#
#
# Elastic Compliance Matrix: (Units=1/GPa)
#
#
# Indices 1 2 3 4 5 6 
#
# 1 0.013803 -0.000963 -0.003545 0.000000 0.000000 0.000000
# 2 -0.000963 0.015491 -0.006156 0.000000 0.000000 0.000000
# 3 -0.003545 -0.006156 0.010387 0.000000 0.000000 0.000000
# 4 0.000000 0.000000 0.000000 0.016910 0.000000 0.000000
# 5 0.000000 0.000000 0.000000 0.000000 0.030770 0.000000
# 6 0.000000 0.000000 0.000000 0.000000 0.000000 0.060115
#
#
# Mechanical properties :
#
#
# Convention : Reuss Voigt Hill
#
# Bulk Modulus (GPa) = 54.49310 63.45069 58.97190
# Shear Modulus (GPa) = 28.58401 34.77332 31.67867
#
# Velocity S-wave (km/s) = 3.76111 4.14837 3.95948
# Velocity P-wave (km/s) = 6.76974 7.37200 7.07728
#
# Compressibility (1/GPa) = 0.01835095
#
# Stress axis : x y z
#
# Youngs Moduli (GPa) = 72.45009 64.55179 96.27440
#
# Poissons Ratio (x) = 0.06219 0.34131
# Poissons Ratio (y) = 0.06980 0.59270
# Poissons Ratio (z) = 0.25685 0.39740
#
# Static dielectric constant tensor:
#      x y z
#    x 1.748000 0.000000 0.000000 
#    y 0.000000 1.713040 0.000000 
#    z 0.000000 0.000000 1.821950 
# 
# From -- ./inp_files/20301.got.cif
#   From: 2010.05.17/outbox.cif.g08.bks.cpg/sg22_11_cif.got.tgz:20301.got - 2010.06.03 23:40:54.
