data_PCOD9326203
_publ_section_title
;
Structure prediction by ZEFSAII (Michael W. Deem and Ramdas Pophale) SiO2 
 PCOD9326203
Probable space group: F 2 2 2
;
_chemical_formula_sum "Si O2"
_cell_formula_units_Z 104
_cell_length_a 16.689456
_cell_length_b 20.235102
_cell_length_c 16.064818
_cell_angle_alpha 90.000000
_cell_angle_beta 90.000000
_cell_angle_gamma 90.000000
_cell_volume 5425.295383
_symmetry_space_group_name_H-M "F 2 2 2"
_symmetry_group_IT_number 22
_symmetry_cell_setting 'orthorhombic'
loop_
_space_group_symop_operation_xyz
x,y,z
-x,-y,z
x,-y,-z
-x,y,-z
x,1/2+y,1/2+z
-x,1/2-y,1/2+z
x,1/2-y,1/2-z
-x,1/2+y,1/2-z
1/2+x,y,1/2+z
1/2-x,-y,1/2+z
1/2+x,-y,1/2-z
1/2-x,y,1/2-z
1/2+x,1/2+y,z
1/2-x,1/2-y,z
1/2+x,1/2-y,-z
1/2-x,1/2+y,-z
loop_
_atom_site_type_symbol
_atom_site_label
_atom_site_fract_x
_atom_site_fract_y
_atom_site_fract_z
Si Si1 0.383112 0.111562 0.259477
Si Si2 0.468598 0.750000 0.750000
Si Si3 0.036362 0.703580 0.080780
Si Si4 0.219466 0.675135 0.041082
Si Si5 0.788581 0.062401 0.339910
Si Si6 0.979817 0.568234 0.848835
Si Si7 0.747177 0.918988 0.116843
O O1 0.412660 0.186731 0.264182
O O2 0.462829 0.071673 0.232339
O O3 0.319399 0.102509 0.184910
O O4 0.334637 0.089743 0.341106
O O5 0.522607 0.740333 0.667743
O O6 0.125978 0.686329 0.057164
O O7 0.995926 0.632167 0.097905
O O8 0.000000 0.738211 0.000000
O O9 0.250000 0.750000 0.034251
O O10 0.246247 0.628924 0.118500
O O11 0.236898 0.629598 0.961051
O O12 0.750000 0.050597 0.250000
O O13 0.884966 0.070098 0.331209
O O14 0.770007 0.997107 0.394694
O O15 0.000000 0.500000 0.893051
#
# Coordination Sequence:
#
# PCOD9326203 Si02
#       7
#    16   8  16  16  16  16  16
#     4  10  21  35  64  92 123 162 208 265 334 387
#     4  10  22  39  61  88 130 168 208 268 327 392
#     4  10  23  39  58  90 127 161 212 264 321 385
#     4  11  26  39  62  91 128 173 215 261 322 397
#     4  11  22  41  64  90 129 166 213 269 320 391
#     4  10  18  35  61  91 119 157 202 256 327 393
#     4  11  21  39  61  96 129 156 215 276 330 378
#
# _framework density 19.169463
#
# number of rings (size 3 to 8) (size 9 to 14) (size 15 to 20)
#    0.000    1.538    3.077    2.308    4.308    4.923 
#    0.000    0.000    0.000    0.000    0.000    3.231 
#    0.000    0.000    0.000    0.000    0.000    0.000 
#
# Total GULP energy -144934.280275 kJ/mol
# GULP energy per Si atom -5574.395395 kJ/mol
# Density = 1.912583 g / cm^3
# Si number density = 19.169463 Si / 1000 Ang^3
#
#
#
# Elastic Constant Matrix: (Units=GPa)
#
#
# Indices 1 2 3 4 5 6 
#
# 1 82.1390 25.0898 36.7238 0.0000 0.0000 0.0000
# 2 25.0898 127.9242 45.4176 0.0000 0.0000 0.0000
# 3 36.7238 45.4176 107.6530 0.0000 0.0000 0.0000
# 4 0.0000 0.0000 0.0000 23.0421 0.0000 0.0000
# 5 0.0000 0.0000 0.0000 0.0000 18.9219 0.0000
# 6 0.0000 0.0000 0.0000 0.0000 0.0000 27.9017
#
#
#
# Elastic Compliance Matrix: (Units=1/GPa)
#
#
# Indices 1 2 3 4 5 6 
#
# 1 0.014542 -0.001283 -0.004420 0.000000 0.000000 0.000000
# 2 -0.001283 0.009308 -0.003489 0.000000 0.000000 0.000000
# 3 -0.004420 -0.003489 0.012269 0.000000 0.000000 0.000000
# 4 0.000000 0.000000 0.000000 0.043399 0.000000 0.000000
# 5 0.000000 0.000000 0.000000 0.000000 0.052849 0.000000
# 6 0.000000 0.000000 0.000000 0.000000 0.000000 0.035840
#
#
# Mechanical properties :
#
#
# Convention : Reuss Voigt Hill
#
# Bulk Modulus (GPa) = 56.38478 59.13093 57.75786
# Shear Modulus (GPa) = 25.97382 28.00547 26.98964
#
# Velocity S-wave (km/s) = 3.68497 3.82637 3.75634
# Velocity P-wave (km/s) = 6.89805 7.10175 7.00064
#
# Compressibility (1/GPa) = 0.01773528
#
# Stress axis : x y z
#
# Youngs Moduli (GPa) = 68.76467 107.44013 81.50808
#
# Poissons Ratio (x) = 0.13786 0.36023
# Poissons Ratio (y) = 0.08823 0.28438
# Poissons Ratio (z) = 0.30391 0.37486
#
# Static dielectric constant tensor:
#      x y z
#    x 1.696830 0.000000 0.000000 
#    y 0.000000 1.733340 0.000000 
#    z 0.000000 0.000000 1.696430 
# 
# From -- ./inp_files/30792.got.cif
#   From: 2010.05.17/outbox.cif.g08.bks.cpg/sg22_16_cif.got.tgz:30792.got - 2010.06.03 23:40:54.
