data_PCOD9326080
_publ_section_title
;
Structure prediction by ZEFSAII (Michael W. Deem and Ramdas Pophale) SiO2 
 PCOD9326080
Probable space group: F 2 2 2
;
_chemical_formula_sum "Si O2"
_cell_formula_units_Z 120
_cell_length_a 13.047357
_cell_length_b 18.914494
_cell_length_c 25.280034
_cell_angle_alpha 90.000000
_cell_angle_beta 90.000000
_cell_angle_gamma 90.000000
_cell_volume 6238.711847
_symmetry_space_group_name_H-M "F 2 2 2"
_symmetry_group_IT_number 22
_symmetry_cell_setting 'orthorhombic'
loop_
_space_group_symop_operation_xyz
x,y,z
-x,-y,z
x,-y,-z
-x,y,-z
x,1/2+y,1/2+z
-x,1/2-y,1/2+z
x,1/2-y,1/2-z
-x,1/2+y,1/2-z
1/2+x,y,1/2+z
1/2-x,-y,1/2+z
1/2+x,-y,1/2-z
1/2-x,y,1/2-z
1/2+x,1/2+y,z
1/2-x,1/2-y,z
1/2+x,1/2-y,-z
1/2-x,1/2+y,-z
loop_
_atom_site_type_symbol
_atom_site_label
_atom_site_fract_x
_atom_site_fract_y
_atom_site_fract_z
Si Si1 0.787069 0.332655 0.805753
Si Si2 0.023959 0.325220 0.780443
Si Si3 0.988076 0.876711 0.940283
Si Si4 0.204862 0.329184 0.862314
Si Si5 0.158919 0.430611 0.710677
Si Si6 0.794455 0.671214 0.416592
Si Si7 0.263854 0.666871 0.030020
Si Si8 0.000000 0.000000 0.855400
O O1 0.750000 0.364299 0.750000
O O2 0.750000 0.250000 0.804869
O O3 0.739705 0.362020 0.860617
O O4 0.909648 0.336752 0.801895
O O5 0.026027 0.250000 0.750000
O O6 0.101323 0.324609 0.829419
O O7 0.071894 0.384491 0.741271
O O8 0.876666 0.842788 0.944777
O O9 0.995455 0.933760 0.894450
O O10 0.083168 0.825647 0.926586
O O11 0.000000 0.906826 0.000000
O O12 0.250000 0.250000 0.863993
O O13 0.284059 0.378873 0.830777
O O14 0.190602 0.356038 0.922338
O O15 0.250000 0.452831 0.750000
O O16 0.099753 0.492960 0.681168
O O17 0.750000 0.750000 0.414317
O O18 0.755881 0.634564 0.471252
O O19 0.250000 0.750000 0.021677
#
# Coordination Sequence:
#
# PCOD9326080 Si02
#       8
#    16  16  16  16  16  16  16   8
#     4  10  20  31  48  77 116 155 191 223 281 361
#     4  11  20  34  55  83 114 155 194 248 292 357
#     4  10  21  38  60  87 118 155 200 241 294 364
#     4  10  18  31  58  85 112 144 192 244 307 353
#     4  10  23  38  56  87 117 151 198 251 302 351
#     4   9  20  35  53  80 122 150 190 244 297 354
#     4   9  18  33  55  86 114 149 185 247 308 348
#     4  12  23  40  60  82 114 166 203 244 286 350
#
# _framework density 19.234739999999999
#
# number of rings (size 3 to 8) (size 9 to 14) (size 15 to 20)
#    0.000    2.000    4.000    0.200    1.867    4.267 
#    2.400    2.000    0.000    0.000    0.000    0.000 
#    0.000    0.000    0.000    0.000    0.000    0.000 
#
# Total GULP energy -167106.939670 kJ/mol
# GULP energy per Si atom -5570.231322 kJ/mol
# Density = 1.919096 g / cm^3
# Si number density = 19.234740 Si / 1000 Ang^3
#
#
#
# Elastic Constant Matrix: (Units=GPa)
#
#
# Indices 1 2 3 4 5 6 
#
# 1 113.9844 29.1026 69.5895 0.0000 0.0000 0.0000
# 2 29.1026 38.6021 20.6020 0.0000 0.0000 0.0000
# 3 69.5895 20.6020 190.9920 0.0000 0.0000 0.0000
# 4 0.0000 0.0000 0.0000 13.5069 0.0000 0.0000
# 5 0.0000 0.0000 0.0000 0.0000 40.7340 0.0000
# 6 0.0000 0.0000 0.0000 0.0000 0.0000 21.6733
#
#
#
# Elastic Compliance Matrix: (Units=1/GPa)
#
#
# Indices 1 2 3 4 5 6 
#
# 1 0.013191 -0.007831 -0.003962 0.000000 0.000000 0.000000
# 2 -0.007831 0.032136 -0.000613 0.000000 0.000000 0.000000
# 3 -0.003962 -0.000613 0.006745 0.000000 0.000000 0.000000
# 4 0.000000 0.000000 0.000000 0.074036 0.000000 0.000000
# 5 0.000000 0.000000 0.000000 0.000000 0.024550 0.000000
# 6 0.000000 0.000000 0.000000 0.000000 0.000000 0.046140
#
#
# Mechanical properties :
#
#
# Convention : Reuss Voigt Hill
#
# Bulk Modulus (GPa) = 36.68158 64.68519 50.68338
# Shear Modulus (GPa) = 21.67350 30.13514 25.90432
#
# Velocity S-wave (km/s) = 3.36041 3.96246 3.67379
# Velocity P-wave (km/s) = 5.84537 7.39169 6.66354
#
# Compressibility (1/GPa) = 0.02726164
#
# Stress axis : x y z
#
# Youngs Moduli (GPa) = 75.80877 31.11753 148.24871
#
# Poissons Ratio (x) = 0.24367 0.58730
# Poissons Ratio (y) = 0.59363 0.09092
# Poissons Ratio (z) = 0.30032 0.01909
#
# Static dielectric constant tensor:
#      x y z
#    x 1.676800 0.000000 0.000000 
#    y 0.000000 1.660630 0.000000 
#    z 0.000000 0.000000 1.765970 
# 
# From -- ./inp_files/52803.got.cif
#   From: 2010.05.17/outbox.cif.g08.bks.cpg/sg22_27_cif.got.tgz:52803.got - 2010.06.03 23:40:54.
