data_PCOD9326610
_publ_section_title
;
Structure prediction by ZEFSAII (Michael W. Deem and Ramdas Pophale) SiO2 
 PCOD9326610
Probable space group: F 2 2 2
;
_chemical_formula_sum "Si O2"
_cell_formula_units_Z 112
_cell_length_a 16.377904
_cell_length_b 14.570117
_cell_length_c 23.970765
_cell_angle_alpha 90.000000
_cell_angle_beta 90.000000
_cell_angle_gamma 90.000000
_cell_volume 5720.095171
_symmetry_space_group_name_H-M "F 2 2 2"
_symmetry_group_IT_number 22
_symmetry_cell_setting 'orthorhombic'
loop_
_space_group_symop_operation_xyz
x,y,z
-x,-y,z
x,-y,-z
-x,y,-z
x,1/2+y,1/2+z
-x,1/2-y,1/2+z
x,1/2-y,1/2-z
-x,1/2+y,1/2-z
1/2+x,y,1/2+z
1/2-x,-y,1/2+z
1/2+x,-y,1/2-z
1/2-x,y,1/2-z
1/2+x,1/2+y,z
1/2-x,1/2-y,z
1/2+x,1/2-y,-z
1/2-x,1/2+y,-z
loop_
_atom_site_type_symbol
_atom_site_label
_atom_site_fract_x
_atom_site_fract_y
_atom_site_fract_z
Si Si1 0.049139 0.583914 0.823766
Si Si2 0.680498 0.041886 0.593768
Si Si3 0.820095 0.824709 0.904573
Si Si4 0.182438 0.321409 0.102796
Si Si5 0.567838 0.073114 0.695245
Si Si6 0.092550 0.319042 0.478719
Si Si7 0.054119 0.237936 0.811200
O O1 0.126796 0.624964 0.854162
O O2 0.077714 0.555433 0.761258
O O3 0.000000 0.500000 0.850408
O O4 0.981579 0.663187 0.823858
O O5 0.760013 0.100288 0.576118
O O6 0.646056 0.066141 0.655703
O O7 0.611419 0.083927 0.552310
O O8 0.698364 0.933775 0.594895
O O9 0.750000 0.750000 0.893999
O O10 0.887557 0.804266 0.857409
O O11 0.854043 0.807751 0.966159
O O12 0.250000 0.250000 0.126303
O O13 0.123376 0.260925 0.063309
O O14 0.524658 0.171713 0.692448
O O15 0.500000 0.000000 0.674561
O O16 0.000000 0.312745 0.500000
O O17 0.093632 0.250000 0.750000
#
# Coordination Sequence:
#
# PCOD9326610 Si02
#       7
#    16  16  16  16  16  16  16
#     4  10  22  38  65  91 129 174 213 259 323 391
#     4  11  23  39  66  97 130 163 213 270 324 390
#     4  12  25  40  63  90 129 170 206 264 327 380
#     4  10  22  43  63  94 133 166 214 274 325 395
#     4  10  19  38  62  96 127 165 213 268 315 382
#     4  11  24  43  69  94 122 164 214 273 326 390
#     4  10  21  39  62  91 125 163 213 264 320 388
#
# _framework density 19.580093000000002
#
# number of rings (size 3 to 8) (size 9 to 14) (size 15 to 20)
#    0.000    1.429    1.429    5.143    2.000    1.429 
#    0.000    3.571    0.000    0.000    0.000    0.000 
#    0.000    0.000    0.000    0.000    0.000    0.000 
#
# Total GULP energy -156154.707915 kJ/mol
# GULP energy per Si atom -5576.953854 kJ/mol
# Density = 1.953553 g / cm^3
# Si number density = 19.580093 Si / 1000 Ang^3
#
#
#
# Elastic Constant Matrix: (Units=GPa)
#
#
# Indices 1 2 3 4 5 6 
#
# 1 91.4445 45.0570 32.2574 0.0000 0.0000 0.0000
# 2 45.0570 123.2257 19.4663 0.0000 0.0000 0.0000
# 3 32.2574 19.4663 74.7152 0.0000 0.0000 0.0000
# 4 0.0000 0.0000 0.0000 3.5497 0.0000 0.0000
# 5 0.0000 0.0000 0.0000 0.0000 -24.4690 0.0000
# 6 0.0000 0.0000 0.0000 0.0000 0.0000 23.3447
#
#
#
# Elastic Compliance Matrix: (Units=1/GPa)
#
#
# Indices 1 2 3 4 5 6 
#
# 1 0.015118 -0.004690 -0.005305 0.000000 0.000000 0.000000
# 2 -0.004690 0.009918 -0.000559 0.000000 0.000000 0.000000
# 3 -0.005305 -0.000559 0.015820 0.000000 0.000000 0.000000
# 4 0.000000 0.000000 0.000000 0.281711 0.000000 0.000000
# 5 0.000000 0.000000 0.000000 0.000000 -0.040868 0.000000
# 6 0.000000 0.000000 0.000000 0.000000 0.000000 0.042836
#
#
# Mechanical properties :
#
#
# Convention : Reuss Voigt Hill
#
# Bulk Modulus (GPa) = 50.63788 53.66076 52.14932
# Shear Modulus (GPa) = 14.19541 13.32539 13.76040
#
# Velocity S-wave (km/s) = 2.69549 2.61158 2.65387
# Velocity P-wave (km/s) = 5.96704 6.04641 6.00686
#
# Compressibility (1/GPa) = 0.01974806
#
# Stress axis : x y z
#
# Youngs Moduli (GPa) = 66.14765 100.82348 63.20998
#
# Poissons Ratio (x) = 0.47283 0.33533
# Poissons Ratio (y) = 0.31021 0.03536
# Poissons Ratio (z) = 0.35092 0.05640
#
# Static dielectric constant tensor:
#      x y z
#    x 1.740430 0.000000 0.000000 
#    y 0.000000 1.721180 0.000000 
#    z 0.000000 0.000000 1.706320 
# 
# From -- ./inp_files/29607.got.cif
#   From: 2010.05.17/outbox.cif.g08.bks.cpg/sg22_15_cif.got.tgz:29607.got - 2010.06.03 23:40:54.
