data_PCOD9326949
_publ_section_title
;
Structure prediction by ZEFSAII (Michael W. Deem and Ramdas Pophale) SiO2 
 PCOD9326949
Probable space group: F 2 2 2
;
_chemical_formula_sum "Si O2"
_cell_formula_units_Z 80
_cell_length_a 29.012039
_cell_length_b 22.810353
_cell_length_c 5.202901
_cell_angle_alpha 90.000000
_cell_angle_beta 90.000000
_cell_angle_gamma 90.000000
_cell_volume 3443.149033
_symmetry_space_group_name_H-M "F 2 2 2"
_symmetry_group_IT_number 22
_symmetry_cell_setting 'orthorhombic'
loop_
_space_group_symop_operation_xyz
x,y,z
-x,-y,z
x,-y,-z
-x,y,-z
x,1/2+y,1/2+z
-x,1/2-y,1/2+z
x,1/2-y,1/2-z
-x,1/2+y,1/2-z
1/2+x,y,1/2+z
1/2-x,-y,1/2+z
1/2+x,-y,1/2-z
1/2-x,y,1/2-z
1/2+x,1/2+y,z
1/2-x,1/2-y,z
1/2+x,1/2-y,-z
1/2-x,1/2+y,-z
loop_
_atom_site_type_symbol
_atom_site_label
_atom_site_fract_x
_atom_site_fract_y
_atom_site_fract_z
Si Si1 0.020558 0.565909 0.756260
Si Si2 0.300675 0.054831 0.351052
Si Si3 0.617650 0.807584 0.607572
Si Si4 0.780113 0.679303 0.508688
Si Si5 0.613578 0.886078 0.113046
O O1 0.074534 0.566694 0.812175
O O2 0.000000 0.500000 0.753894
O O3 0.000000 0.593564 0.500000
O O4 0.000000 0.598981 0.000000
O O5 0.250000 0.037527 0.250000
O O6 0.291482 0.110380 0.530208
O O7 0.336962 0.082650 0.152200
O O8 0.321217 0.000000 0.500000
O O9 0.597418 0.750000 0.750000
O O10 0.670451 0.790651 0.529770
O O11 0.603347 0.836437 0.334066
O O12 0.613469 0.857356 0.830577
O O13 0.750000 0.693586 0.750000
O O14 0.750000 0.687014 0.250000
#
# Coordination Sequence:
#
# PCOD9326949 Si02
#       5
#    16  16  16  16  16
#     4  10  22  42  68 100 134 169 214 282 343 417
#     4  10  21  36  57  90 133 181 218 258 321 409
#     4  11  23  42  66  95 130 177 230 284 347 402
#     4  10  20  37  57  83 124 169 225 279 317 372
#     4  11  24  42  68  98 135 179 222 288 342 404
#
# _framework density 23.234545000000001
#
# number of rings (size 3 to 8) (size 9 to 14) (size 15 to 20)
#    0.000    1.600    0.000    6.000    2.800    2.000 
#    7.200    4.000    0.000   12.000    0.000    0.000 
#    0.000    0.000    0.000    0.000    0.000    0.000 
#
# Total GULP energy -111539.141129 kJ/mol
# GULP energy per Si atom -5576.957056 kJ/mol
# Density = 2.318166 g / cm^3
# Si number density = 23.234545 Si / 1000 Ang^3
#
#
#
# Elastic Constant Matrix: (Units=GPa)
#
#
# Indices 1 2 3 4 5 6 
#
# 1 97.1406 -5.9666 16.8227 0.0006 -0.0036 -0.0027
# 2 -5.9666 82.3835 6.3585 -0.0225 -0.0058 -0.0063
# 3 16.8227 6.3585 167.1272 0.0010 -0.0130 -0.0136
# 4 0.0006 -0.0225 0.0010 15.3074 -0.0052 -0.0039
# 5 -0.0036 -0.0058 -0.0130 -0.0052 27.3653 0.0125
# 6 -0.0027 -0.0063 -0.0136 -0.0039 0.0125 13.0652
#
#
#
# Elastic Compliance Matrix: (Units=1/GPa)
#
#
# Indices 1 2 3 4 5 6 
#
# 1 0.010536 0.000847 -0.001093 0.000001 0.000001 0.000001
# 2 0.000847 0.012242 -0.000551 0.000018 0.000002 0.000005
# 3 -0.001093 -0.000551 0.006114 -0.000001 0.000003 0.000006
# 4 0.000001 0.000018 -0.000001 0.065328 0.000012 0.000019
# 5 0.000001 0.000002 0.000003 0.000012 0.036543 -0.000035
# 6 0.000001 0.000005 0.000006 0.000019 -0.000035 0.076539
#
#
# Mechanical properties :
#
#
# Convention : Reuss Voigt Hill
#
# Bulk Modulus (GPa) = 36.63074 42.34230 39.48652
# Shear Modulus (GPa) = 22.93634 33.11003 28.02319
#
# Velocity S-wave (km/s) = 3.14533 3.77906 3.47666
# Velocity P-wave (km/s) = 5.38430 6.10779 5.75742
#
# Compressibility (1/GPa) = 0.02729948
#
# Stress axis : x y z
#
# Youngs Moduli (GPa) = 94.91588 81.68429 163.54769
#
# Poissons Ratio (x) = -0.06922 0.17871
# Poissons Ratio (y) = -0.08043 0.09012
# Poissons Ratio (z) = 0.10372 0.04501
#
# Static dielectric constant tensor:
#      x y z
#    x 1.995310 -0.000020 -0.000010 
#    y -0.000020 1.916310 -0.000030 
#    z -0.000010 -0.000030 1.898030 
# 
# From -- ./inp_files/5607.got.cif
#   From: 2010.05.17/outbox.cif.g08.bks.cpg/sg22_3_cif.got.tgz:5607.got - 2010.06.03 23:40:54.
