data_PCOD9326099
_publ_section_title
;
Structure prediction by ZEFSAII (Michael W. Deem and Ramdas Pophale) SiO2 
 PCOD9326099
Probable space group: F 2 2 2
;
_chemical_formula_sum "Si O2"
_cell_formula_units_Z 80
_cell_length_a 25.614509
_cell_length_b 16.761672
_cell_length_c 9.803650
_cell_angle_alpha 90.000000
_cell_angle_beta 90.000000
_cell_angle_gamma 90.000000
_cell_volume 4209.118682
_symmetry_space_group_name_H-M "F 2 2 2"
_symmetry_group_IT_number 22
_symmetry_cell_setting 'orthorhombic'
loop_
_space_group_symop_operation_xyz
x,y,z
-x,-y,z
x,-y,-z
-x,y,-z
x,1/2+y,1/2+z
-x,1/2-y,1/2+z
x,1/2-y,1/2-z
-x,1/2+y,1/2-z
1/2+x,y,1/2+z
1/2-x,-y,1/2+z
1/2+x,-y,1/2-z
1/2-x,y,1/2-z
1/2+x,1/2+y,z
1/2-x,1/2-y,z
1/2+x,1/2-y,-z
1/2-x,1/2+y,-z
loop_
_atom_site_type_symbol
_atom_site_label
_atom_site_fract_x
_atom_site_fract_y
_atom_site_fract_z
Si Si1 0.060373 0.509725 0.164886
Si Si2 0.808876 0.596070 0.022205
Si Si3 0.621595 0.669596 0.696670
Si Si4 0.192893 0.395872 0.586231
Si Si5 0.343381 0.068151 0.306014
O O1 0.081724 0.596219 0.208148
O O2 0.099842 0.449902 0.242530
O O3 0.000000 0.500000 0.201779
O O4 0.064233 0.500000 0.000000
O O5 0.810901 0.607007 0.183996
O O6 0.819498 0.500000 0.000000
O O7 0.851533 0.651945 0.949247
O O8 0.752609 0.611939 0.956794
O O9 0.595328 0.750000 0.750000
O O10 0.670187 0.661664 0.800949
O O11 0.158604 0.387040 0.449153
O O12 0.183420 0.483487 0.652584
#
# Coordination Sequence:
#
# PCOD9326099 Si02
#       5
#    16  16  16  16  16
#     4  10  19  37  67  88 104 149 208 256 289 359
#     4  12  18  32  56  86 117 159 203 237 278 352
#     4  11  23  39  56  86 125 155 192 245 311 362
#     4  10  21  29  55  87 119 154 191 247 294 332
#     4  10  18  32  53  87 113 143 203 254 283 328
#
# _framework density 19.006354000000002
#
# number of rings (size 3 to 8) (size 9 to 14) (size 15 to 20)
#    0.000    1.400    8.000    1.200    0.000    1.600 
#    0.000    9.000    8.800    2.400    0.000    0.000 
#    0.000    0.000    0.000    0.000    0.000    0.000 
#
# Total GULP energy -111487.810156 kJ/mol
# GULP energy per Si atom -5574.390508 kJ/mol
# Density = 1.896309 g / cm^3
# Si number density = 19.006354 Si / 1000 Ang^3
#
#
#
# Elastic Constant Matrix: (Units=GPa)
#
#
# Indices 1 2 3 4 5 6 
#
# 1 131.3784 9.7880 25.2061 0.0000 0.0000 0.0000
# 2 9.7880 49.5703 20.2027 0.0000 0.0000 0.0000
# 3 25.2061 20.2027 122.0417 0.0000 0.0000 0.0000
# 4 0.0000 0.0000 0.0000 18.0388 0.0000 0.0000
# 5 0.0000 0.0000 0.0000 0.0000 15.4769 0.0000
# 6 0.0000 0.0000 0.0000 0.0000 0.0000 8.5470
#
#
#
# Elastic Compliance Matrix: (Units=1/GPa)
#
#
# Indices 1 2 3 4 5 6 
#
# 1 0.007969 -0.000968 -0.001486 0.000000 0.000000 0.000000
# 2 -0.000968 0.021750 -0.003401 0.000000 0.000000 0.000000
# 3 -0.001486 -0.003401 0.009064 0.000000 0.000000 0.000000
# 4 0.000000 0.000000 0.000000 0.055436 0.000000 0.000000
# 5 0.000000 0.000000 0.000000 0.000000 0.064612 0.000000
# 6 0.000000 0.000000 0.000000 0.000000 0.000000 0.116999
#
#
# Mechanical properties :
#
#
# Convention : Reuss Voigt Hill
#
# Bulk Modulus (GPa) = 36.93522 45.93156 41.43339
# Shear Modulus (GPa) = 16.85975 24.93212 20.89593
#
# Velocity S-wave (km/s) = 2.98158 3.62578 3.31934
# Velocity P-wave (km/s) = 5.59718 6.46121 6.04465
#
# Compressibility (1/GPa) = 0.02707443
#
# Stress axis : x y z
#
# Youngs Moduli (GPa) = 125.49031 45.97603 110.33042
#
# Poissons Ratio (x) = 0.04451 0.16391
# Poissons Ratio (y) = 0.12148 0.37519
# Poissons Ratio (z) = 0.18643 0.15635
#
# Static dielectric constant tensor:
#      x y z
#    x 1.673960 0.000000 0.000000 
#    y 0.000000 1.793690 0.000000 
#    z 0.000000 0.000000 1.693730 
# 
# From -- ./inp_files/14660.got.cif
#   From: 2010.05.17/outbox.cif.g08.bks.cpg/sg22_8_cif.got.tgz:14660.got - 2010.06.03 23:40:54.
