data_PCOD9326440
_publ_section_title
;
Structure prediction by ZEFSAII (Michael W. Deem and Ramdas Pophale) SiO2 
 PCOD9326440
Probable space group: F 2 2 2
;
_chemical_formula_sum "Si O2"
_cell_formula_units_Z 120
_cell_length_a 15.729683
_cell_length_b 21.566189
_cell_length_c 17.831119
_cell_angle_alpha 90.000000
_cell_angle_beta 90.000000
_cell_angle_gamma 90.000000
_cell_volume 6048.838311
_symmetry_space_group_name_H-M "F 2 2 2"
_symmetry_group_IT_number 22
_symmetry_cell_setting 'orthorhombic'
loop_
_space_group_symop_operation_xyz
x,y,z
-x,-y,z
x,-y,-z
-x,y,-z
x,1/2+y,1/2+z
-x,1/2-y,1/2+z
x,1/2-y,1/2-z
-x,1/2+y,1/2-z
1/2+x,y,1/2+z
1/2-x,-y,1/2+z
1/2+x,-y,1/2-z
1/2-x,y,1/2-z
1/2+x,1/2+y,z
1/2-x,1/2-y,z
1/2+x,1/2-y,-z
1/2-x,1/2+y,-z
loop_
_atom_site_type_symbol
_atom_site_label
_atom_site_fract_x
_atom_site_fract_y
_atom_site_fract_z
Si Si1 0.863529 0.193997 0.469236
Si Si2 0.080598 0.882035 0.158398
Si Si3 0.099262 0.328363 0.363420
Si Si4 0.500000 0.000000 0.723628
Si Si5 0.902208 0.185199 0.632103
Si Si6 0.326673 0.660726 0.018863
Si Si7 0.086212 0.187696 0.701860
Si Si8 0.843215 0.918413 0.268504
O O1 0.920319 0.179350 0.542954
O O2 0.773677 0.163786 0.490594
O O3 0.855230 0.268302 0.467380
O O4 0.879169 0.179324 0.382048
O O5 0.145371 0.877615 0.090855
O O6 0.115873 0.864355 0.240092
O O7 0.003227 0.833398 0.141949
O O8 0.039232 0.948124 0.170119
O O9 0.129356 0.256537 0.358722
O O10 0.126922 0.356897 0.442560
O O11 0.137532 0.370299 0.298736
O O12 0.422392 0.966903 0.769129
O O13 0.845264 0.127823 0.659834
O O14 0.985527 0.182861 0.684728
O O15 0.105434 0.250000 0.750000
O O16 0.750000 0.945659 0.250000
#
# Coordination Sequence:
#
# PCOD9326440 Si02
#       8
#    16  16  16   8  16  16  16  16
#     4  10  22  33  54  91 130 158 184 239 312 383
#     4  11  21  38  61  82 116 161 209 257 292 358
#     4  10  19  34  61  93 123 152 192 246 314 379
#     4  10  24  44  59  87 116 162 228 264 298 347
#     4  11  19  36  61  92 127 153 193 245 314 382
#     4  10  20  36  52  88 129 158 190 237 308 377
#     4  12  19  35  58  87 120 159 201 240 303 368
#     4  11  22  39  63  87 119 161 207 263 310 359
#
# _framework density 19.838519999999999
#
# number of rings (size 3 to 8) (size 9 to 14) (size 15 to 20)
#    0.000    1.333    5.333    2.000    0.000    4.800 
#    2.400    5.333    0.000    1.600    0.000    0.000 
#    0.000    0.000    0.000    0.000    0.000    0.000 
#
# Total GULP energy -167192.449393 kJ/mol
# GULP energy per Si atom -5573.081646 kJ/mol
# Density = 1.979337 g / cm^3
# Si number density = 19.838520 Si / 1000 Ang^3
#
#
#
# Elastic Constant Matrix: (Units=GPa)
#
#
# Indices 1 2 3 4 5 6 
#
# 1 34.6900 22.8852 19.5652 0.0000 0.0000 0.0000
# 2 22.8852 73.1911 25.4548 0.0000 0.0000 0.0000
# 3 19.5652 25.4548 150.8447 0.0000 0.0000 0.0000
# 4 0.0000 0.0000 0.0000 9.9571 0.0000 0.0000
# 5 0.0000 0.0000 0.0000 0.0000 19.7573 0.0000
# 6 0.0000 0.0000 0.0000 0.0000 0.0000 15.9517
#
#
#
# Elastic Compliance Matrix: (Units=1/GPa)
#
#
# Indices 1 2 3 4 5 6 
#
# 1 0.037614 -0.010692 -0.003074 0.000000 0.000000 0.000000
# 2 -0.010692 0.017554 -0.001575 0.000000 0.000000 0.000000
# 3 -0.003074 -0.001575 0.007294 0.000000 0.000000 0.000000
# 4 0.000000 0.000000 0.000000 0.100431 0.000000 0.000000
# 5 0.000000 0.000000 0.000000 0.000000 0.050614 0.000000
# 6 0.000000 0.000000 0.000000 0.000000 0.000000 0.062689
#
#
# Mechanical properties :
#
#
# Convention : Reuss Voigt Hill
#
# Bulk Modulus (GPa) = 31.46775 43.83735 37.65255
# Shear Modulus (GPa) = 15.74938 21.85460 18.80199
#
# Velocity S-wave (km/s) = 2.82064 3.32267 3.08190
# Velocity P-wave (km/s) = 5.14824 6.07168 5.62893
#
# Compressibility (1/GPa) = 0.03177857
#
# Stress axis : x y z
#
# Youngs Moduli (GPa) = 26.58562 56.96743 137.09982
#
# Poissons Ratio (x) = 0.60909 0.42151
# Poissons Ratio (y) = 0.28425 0.21599
# Poissons Ratio (z) = 0.08174 0.08975
#
# Static dielectric constant tensor:
#      x y z
#    x 1.767670 0.000000 0.000000 
#    y 0.000000 1.705120 0.000000 
#    z 0.000000 0.000000 1.740630 
# 
# From -- ./inp_files/38284.got.cif
#   From: 2010.05.17/outbox.cif.g08.bks.cpg/sg22_20_cif.got.tgz:38284.got - 2010.06.03 23:40:54.
