data_PCOD9326268
_publ_section_title
;
Structure prediction by ZEFSAII (Michael W. Deem and Ramdas Pophale) SiO2 
 PCOD9326268
Probable space group: F 2 2 2
;
_chemical_formula_sum "Si O2"
_cell_formula_units_Z 80
_cell_length_a 13.126946
_cell_length_b 21.234321
_cell_length_c 12.685281
_cell_angle_alpha 90.000000
_cell_angle_beta 90.000000
_cell_angle_gamma 90.000000
_cell_volume 3535.917871
_symmetry_space_group_name_H-M "F 2 2 2"
_symmetry_group_IT_number 22
_symmetry_cell_setting 'orthorhombic'
loop_
_space_group_symop_operation_xyz
x,y,z
-x,-y,z
x,-y,-z
-x,y,-z
x,1/2+y,1/2+z
-x,1/2-y,1/2+z
x,1/2-y,1/2-z
-x,1/2+y,1/2-z
1/2+x,y,1/2+z
1/2-x,-y,1/2+z
1/2+x,-y,1/2-z
1/2-x,y,1/2-z
1/2+x,1/2+y,z
1/2-x,1/2-y,z
1/2+x,1/2-y,-z
1/2-x,1/2+y,-z
loop_
_atom_site_type_symbol
_atom_site_label
_atom_site_fract_x
_atom_site_fract_y
_atom_site_fract_z
Si Si1 0.477360 0.837197 0.841560
Si Si2 0.401724 0.958087 0.163727
Si Si3 0.947371 0.804265 0.100194
Si Si4 0.680049 0.495232 0.884752
Si Si5 0.751694 0.647231 0.132155
O O1 0.565751 0.886903 0.859974
O O2 0.464504 0.835638 0.714101
O O3 0.489389 0.766241 0.882233
O O4 0.370173 0.858784 0.893032
O O5 0.380658 0.973827 0.287893
O O6 0.293001 0.973662 0.112298
O O7 0.500000 0.000000 0.132448
O O8 0.827316 0.808069 0.073111
O O9 0.000000 0.835054 0.000000
O O10 0.701739 0.421785 0.863243
O O11 0.632112 0.500000 0.000000
O O12 0.750000 0.674680 0.250000
#
# Coordination Sequence:
#
# PCOD9326268 Si02
#       5
#    16  16  16  16  16
#     4  10  21  39  64  90 129 174 215 271 327 388
#     4  11  21  43  63  90 135 169 208 270 329 388
#     4  10  22  37  63  95 125 171 224 268 326 385
#     4  11  24  38  62 100 127 172 215 262 335 397
#     4  10  18  40  61  90 129 165 218 267 317 387
#
# _framework density 22.624960000000002
#
# number of rings (size 3 to 8) (size 9 to 14) (size 15 to 20)
#    0.000    1.600    4.000    1.800    2.800    4.800 
#    0.000    0.000    0.000    4.800    0.000    0.000 
#    0.000    0.000    0.000    0.000    0.000    0.000 
#
# Total GULP energy -111658.529144 kJ/mol
# GULP energy per Si atom -5582.926457 kJ/mol
# Density = 2.257346 g / cm^3
# Si number density = 22.624960 Si / 1000 Ang^3
#
#
#
# Elastic Constant Matrix: (Units=GPa)
#
#
# Indices 1 2 3 4 5 6 
#
# 1 87.0124 28.7019 16.4349 0.0000 0.0000 0.0000
# 2 28.7019 99.6804 -4.1915 0.0000 0.0000 0.0000
# 3 16.4349 -4.1915 113.4380 0.0000 0.0000 0.0000
# 4 0.0000 0.0000 0.0000 -8.4256 0.0000 0.0000
# 5 0.0000 0.0000 0.0000 0.0000 11.7285 0.0000
# 6 0.0000 0.0000 0.0000 0.0000 0.0000 46.9761
#
#
#
# Elastic Compliance Matrix: (Units=1/GPa)
#
#
# Indices 1 2 3 4 5 6 
#
# 1 0.013158 -0.003875 -0.002049 0.000000 0.000000 0.000000
# 2 -0.003875 0.011189 0.000975 0.000000 0.000000 0.000000
# 3 -0.002049 0.000975 0.009148 0.000000 0.000000 0.000000
# 4 0.000000 0.000000 0.000000 -0.118686 0.000000 0.000000
# 5 0.000000 0.000000 0.000000 0.000000 0.085262 0.000000
# 6 0.000000 0.000000 0.000000 0.000000 0.000000 0.021287
#
#
# Mechanical properties :
#
#
# Convention : Reuss Voigt Hill
#
# Bulk Modulus (GPa) = 42.38017 42.44682 42.41350
# Shear Modulus (GPa) = 127.80376 27.33485 77.56930
#
# Velocity S-wave (km/s) = 7.52400 3.47965 5.86168
# Velocity P-wave (km/s) = 9.70840 5.91149 8.03737
#
# Compressibility (1/GPa) = 0.02359594
#
# Stress axis : x y z
#
# Youngs Moduli (GPa) = 76.00010 89.37527 109.30950
#
# Poissons Ratio (x) = 0.34632 0.22403
# Poissons Ratio (y) = 0.29449 -0.10656
# Poissons Ratio (z) = 0.15576 -0.08712
#
# Static dielectric constant tensor:
#      x y z
#    x 1.896170 0.000000 0.000000 
#    y 0.000000 1.838330 0.000000 
#    z 0.000000 0.000000 1.862330 
# 
# From -- ./inp_files/28102.got.cif
#   From: 2010.05.17/outbox.cif.g08.bks.cpg/sg22_15_cif.got.tgz:28102.got - 2010.06.03 23:40:54.
