data_PCOD9326745
_publ_section_title
;
Structure prediction by ZEFSAII (Michael W. Deem and Ramdas Pophale) SiO2 
 PCOD9326745
Probable space group: F 2 2 2
;
_chemical_formula_sum "Si O2"
_cell_formula_units_Z 96
_cell_length_a 16.194809
_cell_length_b 10.067185
_cell_length_c 24.710502
_cell_angle_alpha 90.000000
_cell_angle_beta 90.000000
_cell_angle_gamma 90.000000
_cell_volume 4028.704820
_symmetry_space_group_name_H-M "F 2 2 2"
_symmetry_group_IT_number 22
_symmetry_cell_setting 'orthorhombic'
loop_
_space_group_symop_operation_xyz
x,y,z
-x,-y,z
x,-y,-z
-x,y,-z
x,1/2+y,1/2+z
-x,1/2-y,1/2+z
x,1/2-y,1/2-z
-x,1/2+y,1/2-z
1/2+x,y,1/2+z
1/2-x,-y,1/2+z
1/2+x,-y,1/2-z
1/2-x,y,1/2-z
1/2+x,1/2+y,z
1/2-x,1/2-y,z
1/2+x,1/2-y,-z
1/2-x,1/2+y,-z
loop_
_atom_site_type_symbol
_atom_site_label
_atom_site_fract_x
_atom_site_fract_y
_atom_site_fract_z
Si Si1 0.533596 0.636057 0.086798
Si Si2 0.368486 0.979495 0.690344
Si Si3 0.051627 0.883477 0.697292
Si Si4 0.202157 0.955194 0.642746
Si Si5 0.199780 0.868728 0.965397
Si Si6 0.901487 0.769667 0.653384
O O1 0.500000 0.500000 0.061544
O O2 0.575704 0.582170 0.142724
O O3 0.610292 0.685816 0.052017
O O4 0.456530 0.731689 0.100356
O O5 0.274313 0.934593 0.686353
O O6 0.359510 0.135348 0.674936
O O7 0.411143 0.938168 0.746698
O O8 0.975989 0.784652 0.696966
O O9 0.128606 0.855875 0.659178
O O10 0.000000 0.000000 0.668484
O O11 0.160014 0.103934 0.646364
O O12 0.245825 0.916395 0.586673
O O13 0.250000 0.750000 0.993175
O O14 0.188783 0.000000 0.000000
#
# Coordination Sequence:
#
# PCOD9326745 Si02
#       6
#    16  16  16  16  16  16
#     4   9  20  38  63  92 126 163 208 264 326 394
#     4  10  20  35  56  90 127 167 212 255 313 382
#     4  10  20  33  54  84 122 163 205 250 303 360
#     4  10  22  39  62  91 121 159 209 265 322 377
#     4  11  25  45  68  94 126 165 211 268 337 408
#     4  10  20  37  62  87 124 168 213 264 313 375
#
# _framework density 23.828999
#
# number of rings (size 3 to 8) (size 9 to 14) (size 15 to 20)
#    0.000    2.000    0.000    3.500    0.000   10.333 
#    0.000    5.000    0.000   18.500    0.000    0.000 
#    0.000    0.000    0.000    0.000    0.000    0.000 
#
# Total GULP energy -133855.018696 kJ/mol
# GULP energy per Si atom -5577.292446 kJ/mol
# Density = 2.377476 g / cm^3
# Si number density = 23.828999 Si / 1000 Ang^3
#
#
#
# Elastic Constant Matrix: (Units=GPa)
#
#
# Indices 1 2 3 4 5 6 
#
# 1 143.9496 16.7049 12.0890 0.0000 0.0000 0.0000
# 2 16.7049 89.8841 -2.3541 0.0000 0.0000 0.0000
# 3 12.0890 -2.3541 48.3591 0.0000 0.0000 0.0000
# 4 0.0000 0.0000 0.0000 24.2715 0.0000 0.0000
# 5 0.0000 0.0000 0.0000 0.0000 11.2567 0.0000
# 6 0.0000 0.0000 0.0000 0.0000 0.0000 40.3721
#
#
#
# Elastic Compliance Matrix: (Units=1/GPa)
#
#
# Indices 1 2 3 4 5 6 
#
# 1 0.007268 -0.001400 -0.001885 0.000000 0.000000 0.000000
# 2 -0.001400 0.011409 0.000905 0.000000 0.000000 0.000000
# 3 -0.001885 0.000905 0.021194 0.000000 0.000000 0.000000
# 4 0.000000 0.000000 0.000000 0.041201 0.000000 0.000000
# 5 0.000000 0.000000 0.000000 0.000000 0.088836 0.000000
# 6 0.000000 0.000000 0.000000 0.000000 0.000000 0.024770
#
#
# Mechanical properties :
#
#
# Convention : Reuss Voigt Hill
#
# Bulk Modulus (GPa) = 28.48054 37.23025 32.85540
# Shear Modulus (GPa) = 23.68098 32.23027 27.95562
#
# Velocity S-wave (km/s) = 3.15586 3.68171 3.42888
# Velocity P-wave (km/s) = 5.02566 5.80786 5.43086
#
# Compressibility (1/GPa) = 0.03511169
#
# Stress axis : x y z
#
# Youngs Moduli (GPa) = 137.59611 87.64744 47.18341
#
# Poissons Ratio (x) = 0.12271 0.08894
# Poissons Ratio (y) = 0.19264 -0.04272
# Poissons Ratio (z) = 0.25936 -0.07936
#
# Static dielectric constant tensor:
#      x y z
#    x 1.894020 0.000000 0.000000 
#    y 0.000000 2.125210 0.000000 
#    z 0.000000 0.000000 1.950730 
# 
# From -- ./inp_files/49353.got.cif
#   From: 2010.05.17/outbox.cif.g08.bks.cpg/sg22_25_cif.got.tgz:49353.got - 2010.06.03 23:40:54.
