data_PCOD9326067
_publ_section_title
;
Structure prediction by ZEFSAII (Michael W. Deem and Ramdas Pophale) SiO2 
 PCOD9326067
Probable space group: F 2 2 2
;
_chemical_formula_sum "Si O2"
_cell_formula_units_Z 96
_cell_length_a 27.279865
_cell_length_b 21.426761
_cell_length_c 9.824058
_cell_angle_alpha 90.000000
_cell_angle_beta 90.000000
_cell_angle_gamma 90.000000
_cell_volume 5742.350007
_symmetry_space_group_name_H-M "F 2 2 2"
_symmetry_group_IT_number 22
_symmetry_cell_setting 'orthorhombic'
loop_
_space_group_symop_operation_xyz
x,y,z
-x,-y,z
x,-y,-z
-x,y,-z
x,1/2+y,1/2+z
-x,1/2-y,1/2+z
x,1/2-y,1/2-z
-x,1/2+y,1/2-z
1/2+x,y,1/2+z
1/2-x,-y,1/2+z
1/2+x,-y,1/2-z
1/2-x,y,1/2-z
1/2+x,1/2+y,z
1/2-x,1/2-y,z
1/2+x,1/2-y,-z
1/2-x,1/2+y,-z
loop_
_atom_site_type_symbol
_atom_site_label
_atom_site_fract_x
_atom_site_fract_y
_atom_site_fract_z
Si Si1 0.131276 0.922058 0.725798
Si Si2 0.644057 0.933951 0.820402
Si Si3 0.827621 0.928578 0.982154
Si Si4 0.054719 0.925136 0.514257
Si Si5 0.199677 0.692275 0.832585
Si Si6 0.234798 0.151831 0.599730
O O1 0.078197 0.910828 0.661027
O O2 0.167202 0.868889 0.673481
O O3 0.146656 0.990616 0.670648
O O4 0.137859 0.919424 0.887596
O O5 0.642823 0.922331 0.658436
O O6 0.693170 0.900669 0.872855
O O7 0.596586 0.909341 0.902214
O O8 0.781742 0.881764 0.969845
O O9 0.808725 0.000000 0.000000
O O10 0.000000 0.898859 0.500000
O O11 0.050666 0.000000 0.500000
O O12 0.176402 0.750000 0.750000
O O13 0.250000 0.681310 0.750000
O O14 0.212530 0.700542 0.991538
O O15 0.250000 0.174907 0.750000
#
# Coordination Sequence:
#
# PCOD9326067 Si02
#       6
#    16  16  16  16  16  16
#     4  10  18  31  49  69 104 137 165 210 253 305
#     4   9  18  29  48  75 104 131 166 205 258 314
#     4   9  18  27  44  73 101 131 165 200 250 308
#     4   9  17  29  48  74 100 128 164 205 259 318
#     4  11  22  33  47  70 103 135 177 206 239 298
#     4  10  19  31  49  72 104 133 168 208 255 301
#
# _framework density 16.717894000000001
#
# number of rings (size 3 to 8) (size 9 to 14) (size 15 to 20)
#    0.000    2.333    3.333    0.000    2.333    0.667 
#    0.000    2.500    0.000    5.000    0.000    2.333 
#    0.000    0.000    0.000    0.000    0.000    0.000 
#
# Total GULP energy -133603.256394 kJ/mol
# GULP energy per Si atom -5566.802350 kJ/mol
# Density = 1.667984 g / cm^3
# Si number density = 16.717894 Si / 1000 Ang^3
#
#
#
# Elastic Constant Matrix: (Units=GPa)
#
#
# Indices 1 2 3 4 5 6 
#
# 1 92.2022 20.9274 41.6356 0.0000 0.0000 0.0000
# 2 20.9274 42.8454 31.6056 0.0000 0.0000 0.0000
# 3 41.6356 31.6056 141.5033 0.0001 0.0000 0.0000
# 4 0.0000 0.0000 0.0001 15.0861 0.0000 0.0000
# 5 0.0000 0.0000 0.0000 0.0000 12.5148 0.0000
# 6 0.0000 0.0000 0.0000 0.0000 0.0000 4.7678
#
#
#
# Elastic Compliance Matrix: (Units=1/GPa)
#
#
# Indices 1 2 3 4 5 6 
#
# 1 0.013128 -0.004266 -0.002910 0.000000 0.000000 0.000000
# 2 -0.004266 0.029330 -0.005296 0.000000 0.000000 0.000000
# 3 -0.002910 -0.005296 0.009106 0.000000 0.000000 0.000000
# 4 0.000000 0.000000 0.000000 0.066286 0.000000 0.000000
# 5 0.000000 0.000000 0.000000 0.000000 0.079905 0.000000
# 6 0.000000 0.000000 0.000000 0.000000 0.000000 0.209741
#
#
# Mechanical properties :
#
#
# Convention : Reuss Voigt Hill
#
# Bulk Modulus (GPa) = 37.56452 51.65422 44.60937
# Shear Modulus (GPa) = 11.32983 18.63256 14.98119
#
# Velocity S-wave (km/s) = 2.60610 3.34208 2.99677
# Velocity P-wave (km/s) = 5.61909 6.77180 6.22219
#
# Compressibility (1/GPa) = 0.02662086
#
# Stress axis : x y z
#
# Youngs Moduli (GPa) = 76.17324 34.09501 109.81688
#
# Poissons Ratio (x) = 0.14544 0.31957
# Poissons Ratio (y) = 0.32493 0.58158
# Poissons Ratio (z) = 0.22166 0.18056
#
# Static dielectric constant tensor:
#      x y z
#    x 1.546030 0.000000 0.000000 
#    y 0.000000 1.602960 0.000000 
#    z 0.000000 0.000000 1.623210 
# 
# From -- ./inp_files/13985.got.cif
#   From: 2010.05.17/outbox.cif.g08.bks.cpg/sg22_7_cif.got.tgz:13985.got - 2010.06.03 23:40:54.
