data_PCOD9326237
_publ_section_title
;
Structure prediction by ZEFSAII (Michael W. Deem and Ramdas Pophale) SiO2 
 PCOD9326237
Probable space group: F 2 2 2
;
_chemical_formula_sum "Si O2"
_cell_formula_units_Z 72
_cell_length_a 8.979390
_cell_length_b 15.325280
_cell_length_c 23.650850
_cell_angle_alpha 90.000000
_cell_angle_beta 90.000000
_cell_angle_gamma 90.000000
_cell_volume 3254.632870
_symmetry_space_group_name_H-M "F 2 2 2"
_symmetry_group_IT_number 22
_symmetry_cell_setting 'orthorhombic'
loop_
_space_group_symop_operation_xyz
x,y,z
-x,-y,z
x,-y,-z
-x,y,-z
x,1/2+y,1/2+z
-x,1/2-y,1/2+z
x,1/2-y,1/2-z
-x,1/2+y,1/2-z
1/2+x,y,1/2+z
1/2-x,-y,1/2+z
1/2+x,-y,1/2-z
1/2-x,y,1/2-z
1/2+x,1/2+y,z
1/2-x,1/2-y,z
1/2+x,1/2-y,-z
1/2-x,1/2+y,-z
loop_
_atom_site_type_symbol
_atom_site_label
_atom_site_fract_x
_atom_site_fract_y
_atom_site_fract_z
Si Si1 0.518286 0.250000 0.750000
Si Si2 0.933714 0.648362 0.440187
Si Si3 0.482701 0.594926 0.319712
Si Si4 0.670316 0.665510 0.849981
Si Si5 0.410878 0.360233 0.442531
O O1 0.579618 0.331643 0.713707
O O2 0.421523 0.296781 0.797792
O O3 0.763873 0.617172 0.440592
O O4 0.925535 0.754681 0.437064
O O5 0.000000 0.623244 0.500000
O O6 0.051902 0.621946 0.391875
O O7 0.500000 0.500000 0.294195
O O8 0.306477 0.613734 0.323112
O O9 0.525662 0.599015 0.385495
O O10 0.750000 0.750000 0.879793
O O11 0.500000 0.384563 0.500000
#
# Coordination Sequence:
#
# PCOD9326237 Si02
#       5
#     8  16  16  16  16
#     4  10  21  42  67  86 125 172 225 270 327 398
#     4  10  19  32  60  91 122 168 219 264 321 391
#     4  11  22  39  65  93 125 170 221 272 332 389
#     4  10  18  37  61  86 119 168 217 266 316 387
#     4  10  20  35  58  94 131 166 214 268 326 392
#
# _framework density 22.122309999999999
#
# number of rings (size 3 to 8) (size 9 to 14) (size 15 to 20)
#    0.000    1.778    4.444    4.333    3.111    0.444 
#    0.000    7.778    0.000    1.333    0.000    0.000 
#    0.000    0.889    0.000    0.000    0.000    0.000 
#
# Total GULP energy -100368.512406 kJ/mol
# GULP energy per Si atom -5576.028467 kJ/mol
# Density = 2.207196 g / cm^3
# Si number density = 22.122310 Si / 1000 Ang^3
#
#
#
# Elastic Constant Matrix: (Units=GPa)
#
#
# Indices 1 2 3 4 5 6 
#
# 1 51.7408 0.8054 13.5522 0.0000 0.0000 0.0000
# 2 0.8054 75.5229 9.2244 0.0000 0.0000 0.0000
# 3 13.5522 9.2244 115.4508 0.0000 0.0000 0.0000
# 4 0.0000 0.0000 0.0000 1.2941 0.0000 0.0000
# 5 0.0000 0.0000 0.0000 0.0000 23.2691 0.0000
# 6 0.0000 0.0000 0.0000 0.0000 0.0000 3.1790
#
#
#
# Elastic Compliance Matrix: (Units=1/GPa)
#
#
# Indices 1 2 3 4 5 6 
#
# 1 0.019941 0.000074 -0.002347 0.000000 0.000000 0.000000
# 2 0.000074 0.013372 -0.001077 0.000000 0.000000 0.000000
# 3 -0.002347 -0.001077 0.009023 0.000000 0.000000 0.000000
# 4 0.000000 0.000000 0.000000 0.772767 0.000000 0.000000
# 5 0.000000 0.000000 0.000000 0.000000 0.042975 0.000000
# 6 0.000000 0.000000 0.000000 0.000000 0.000000 0.314562
#
#
# Mechanical properties :
#
#
# Convention : Reuss Voigt Hill
#
# Bulk Modulus (GPa) = 28.06143 32.20871 30.13507
# Shear Modulus (GPa) = 4.19738 20.15727 12.17733
#
# Velocity S-wave (km/s) = 1.37894 3.02184 2.34872
# Velocity P-wave (km/s) = 3.90481 5.17362 4.58333
#
# Compressibility (1/GPa) = 0.03563610
#
# Stress axis : x y z
#
# Youngs Moduli (GPa) = 50.14899 74.78430 110.82524
#
# Poissons Ratio (x) = -0.00553 0.26007
# Poissons Ratio (y) = -0.00371 0.11937
# Poissons Ratio (z) = 0.11768 0.08055
#
# Static dielectric constant tensor:
#      x y z
#    x 1.854300 0.000000 0.000000 
#    y 0.000000 1.927470 0.000000 
#    z 0.000000 0.000000 1.800180 
# 
# From -- ./inp_files/13583.got.cif
#   From: 2010.05.17/outbox.cif.g08.bks.cpg/sg22_7_cif.got.tgz:13583.got - 2010.06.03 23:40:54.
