data_PCOD9326446
_publ_section_title
;
Structure prediction by ZEFSAII (Michael W. Deem and Ramdas Pophale) SiO2 
 PCOD9326446
Probable space group: F 2 2 2
;
_chemical_formula_sum "Si O2"
_cell_formula_units_Z 92
_cell_length_a 18.561896
_cell_length_b 16.424874
_cell_length_c 13.882191
_cell_angle_alpha 90.000000
_cell_angle_beta 90.000000
_cell_angle_gamma 90.000000
_cell_volume 4232.358011
_symmetry_space_group_name_H-M "F 2 2 2"
_symmetry_group_IT_number 22
_symmetry_cell_setting 'orthorhombic'
loop_
_space_group_symop_operation_xyz
x,y,z
-x,-y,z
x,-y,-z
-x,y,-z
x,1/2+y,1/2+z
-x,1/2-y,1/2+z
x,1/2-y,1/2-z
-x,1/2+y,1/2-z
1/2+x,y,1/2+z
1/2-x,-y,1/2+z
1/2+x,-y,1/2-z
1/2-x,y,1/2-z
1/2+x,1/2+y,z
1/2-x,1/2-y,z
1/2+x,1/2-y,-z
1/2-x,1/2+y,-z
loop_
_atom_site_type_symbol
_atom_site_label
_atom_site_fract_x
_atom_site_fract_y
_atom_site_fract_z
Si Si1 0.435292 0.346066 0.220947
Si Si2 0.382329 0.695963 0.984074
Si Si3 0.000000 0.000000 0.500000
Si Si4 0.259281 0.579363 0.031190
Si Si5 0.089799 0.663282 0.300360
Si Si6 0.250000 0.095455 0.750000
Si Si7 0.881227 0.883220 0.414742
O O1 0.438755 0.250000 0.250000
O O2 0.409181 0.350375 0.111292
O O3 0.516399 0.380947 0.232861
O O4 0.380098 0.381368 0.298888
O O5 0.388780 0.791303 0.957725
O O6 0.302798 0.662095 0.010049
O O7 0.420896 0.676507 0.084970
O O8 0.948015 0.939819 0.441732
O O9 0.237458 0.564668 0.141622
O O10 0.304663 0.500000 0.000000
O O11 0.189785 0.583801 0.964580
O O12 0.088311 0.750000 0.250000
O O13 0.169317 0.632075 0.272739
#
# Coordination Sequence:
#
# PCOD9326446 Si02
#       7
#    16  16   4  16  16   8  16
#     4   9  21  36  62  96 127 178 226 274 338 412
#     4  10  22  41  68  95 135 184 230 282 345 417
#     4  12  28  40  68 108 144 176 222 296 356 416
#     4  11  24  44  65  96 135 178 230 288 343 413
#     4  10  19  34  62  97 128 170 232 285 331 405
#     4  10  23  38  60  92 131 174 224 282 350 399
#     4  11  24  42  64 102 138 178 229 279 358 414
#
# _framework density 21.737293000000001
#
# number of rings (size 3 to 8) (size 9 to 14) (size 15 to 20)
#    0.000    1.739    0.870    2.348    9.739    4.870 
#    0.000    2.609    0.000    4.174    0.000    0.000 
#    0.000    0.000    0.000    0.000    0.000    0.000 
#
# Total GULP energy -128040.352735 kJ/mol
# GULP energy per Si atom -5566.971858 kJ/mol
# Density = 2.168782 g / cm^3
# Si number density = 21.737293 Si / 1000 Ang^3
#
#
#
# Elastic Constant Matrix: (Units=GPa)
#
#
# Indices 1 2 3 4 5 6 
#
# 1 81.6710 23.9893 55.1191 0.0000 0.0000 0.0000
# 2 23.9893 66.4557 35.6813 0.0000 0.0000 0.0000
# 3 55.1191 35.6813 192.3233 0.0000 0.0000 0.0000
# 4 0.0000 0.0000 0.0000 13.2260 0.0000 0.0000
# 5 0.0000 0.0000 0.0000 0.0000 26.4812 0.0000
# 6 0.0000 0.0000 0.0000 0.0000 0.0000 73.7525
#
#
#
# Elastic Compliance Matrix: (Units=1/GPa)
#
#
# Indices 1 2 3 4 5 6 
#
# 1 0.015947 -0.003668 -0.003890 0.000000 0.000000 0.000000
# 2 -0.003668 0.017556 -0.002206 0.000000 0.000000 0.000000
# 3 -0.003890 -0.002206 0.006724 0.000000 0.000000 0.000000
# 4 0.000000 0.000000 0.000000 0.075608 0.000000 0.000000
# 5 0.000000 0.000000 0.000000 0.000000 0.037763 0.000000
# 6 0.000000 0.000000 0.000000 0.000000 0.000000 0.013559
#
#
# Mechanical properties :
#
#
# Convention : Reuss Voigt Hill
#
# Bulk Modulus (GPa) = 48.31116 63.33660 55.82388
# Shear Modulus (GPa) = 25.82862 37.73597 31.78230
#
# Velocity S-wave (km/s) = 3.45079 4.17106 3.82790
# Velocity P-wave (km/s) = 6.17661 7.23861 6.72860
#
# Compressibility (1/GPa) = 0.02069915
#
# Stress axis : x y z
#
# Youngs Moduli (GPa) = 62.70830 56.96023 148.72923
#
# Poissons Ratio (x) = 0.20893 0.57852
# Poissons Ratio (y) = 0.23002 0.32808
# Poissons Ratio (z) = 0.24392 0.12565
#
# Static dielectric constant tensor:
#      x y z
#    x 1.825140 0.000000 0.000000 
#    y 0.000000 1.878290 0.000000 
#    z 0.000000 0.000000 1.683710 
# 
# From -- ./inp_files/21449.got.cif
#   From: 2010.05.17/outbox.cif.g08.bks.cpg/sg22_11_cif.got.tgz:21449.got - 2010.06.03 23:40:54.
