data_PCOD9326550
_publ_section_title
;
Structure prediction by ZEFSAII (Michael W. Deem and Ramdas Pophale) SiO2 
 PCOD9326550
Probable space group: F 2 2 2
;
_chemical_formula_sum "Si O2"
_cell_formula_units_Z 64
_cell_length_a 7.715888
_cell_length_b 21.860792
_cell_length_c 14.670755
_cell_angle_alpha 90.000000
_cell_angle_beta 90.000000
_cell_angle_gamma 90.000000
_cell_volume 2474.595800
_symmetry_space_group_name_H-M "F 2 2 2"
_symmetry_group_IT_number 22
_symmetry_cell_setting 'orthorhombic'
loop_
_space_group_symop_operation_xyz
x,y,z
-x,-y,z
x,-y,-z
-x,y,-z
x,1/2+y,1/2+z
-x,1/2-y,1/2+z
x,1/2-y,1/2-z
-x,1/2+y,1/2-z
1/2+x,y,1/2+z
1/2-x,-y,1/2+z
1/2+x,-y,1/2-z
1/2-x,y,1/2-z
1/2+x,1/2+y,z
1/2-x,1/2-y,z
1/2+x,1/2-y,-z
1/2-x,1/2+y,-z
loop_
_atom_site_type_symbol
_atom_site_label
_atom_site_fract_x
_atom_site_fract_y
_atom_site_fract_z
Si Si1 0.500000 0.843014 0.500000
Si Si2 0.750000 0.393204 0.250000
Si Si3 0.484229 0.340824 0.607836
Si Si4 0.000000 0.000000 0.807652
Si Si5 0.250000 0.250000 0.116577
Si Si6 0.765607 0.940750 0.446110
O O1 0.387229 0.796620 0.564428
O O2 0.655557 0.893894 0.509577
O O3 0.689491 0.349230 0.333486
O O4 0.594645 0.441690 0.236761
O O5 0.500000 0.319519 0.500000
O O6 0.615427 0.296583 0.661942
O O7 0.574861 0.405917 0.596779
O O8 0.142156 0.965967 0.868345
O O9 0.816128 0.000000 0.500000
#
# Coordination Sequence:
#
# PCOD9326550 Si02
#       6
#     8   8  16   8   8  16
#     4  10  19  36  66 110 147 196 276 322 390 474
#     4  12  28  44  72 115 156 215 256 324 418 478
#     4  11  25  46  75 111 156 201 268 330 396 483
#     4  12  23  42  63 104 166 196 252 332 403 482
#     4  10  22  40  74 108 148 202 270 338 380 475
#     4  11  21  38  71 114 146 203 259 323 403 490
#
# _framework density 25.862808999999999
#
# number of rings (size 3 to 8) (size 9 to 14) (size 15 to 20)
#    0.000    1.000    3.750    3.000    3.500    2.500 
#    0.000    0.000    0.000   27.750    6.500    0.000 
#    0.000    0.000    0.000    0.000    0.000    0.000 
#
# Total GULP energy -89089.945212 kJ/mol
# GULP energy per Si atom -5568.121576 kJ/mol
# Density = 2.580394 g / cm^3
# Si number density = 25.862809 Si / 1000 Ang^3
#
#
#
# Elastic Constant Matrix: (Units=GPa)
#
#
# Indices 1 2 3 4 5 6 
#
# 1 95.7615 34.1191 57.0204 0.0000 0.0000 0.0000
# 2 34.1191 158.3702 29.7876 0.0000 0.0000 0.0000
# 3 57.0204 29.7876 92.8370 0.0000 0.0000 0.0000
# 4 0.0000 0.0000 0.0000 0.6491 0.0000 0.0000
# 5 0.0000 0.0000 0.0000 0.0000 64.3673 0.0000
# 6 0.0000 0.0000 0.0000 0.0000 0.0000 32.2516
#
#
#
# Elastic Compliance Matrix: (Units=1/GPa)
#
#
# Indices 1 2 3 4 5 6 
#
# 1 0.016933 -0.001801 -0.009822 0.000000 0.000000 0.000000
# 2 -0.001801 0.006911 -0.001112 0.000000 0.000000 0.000000
# 3 -0.009822 -0.001112 0.017161 0.000000 0.000000 0.000000
# 4 0.000000 0.000000 0.000000 1.540561 0.000000 0.000000
# 5 0.000000 0.000000 0.000000 0.000000 0.015536 0.000000
# 6 0.000000 0.000000 0.000000 0.000000 0.000000 0.031006
#
#
# Mechanical properties :
#
#
# Convention : Reuss Voigt Hill
#
# Bulk Modulus (GPa) = 64.36626 65.42478 64.89552
# Shear Modulus (GPa) = 3.01431 34.52305 18.76868
#
# Velocity S-wave (km/s) = 1.08075 3.65753 2.69681
# Velocity P-wave (km/s) = 5.14772 6.57179 5.90286
#
# Compressibility (1/GPa) = 0.01553609
#
# Stress axis : x y z
#
# Youngs Moduli (GPa) = 59.05703 144.69032 58.27103
#
# Poissons Ratio (x) = 0.26052 0.57236
# Poissons Ratio (y) = 0.10633 0.06478
# Poissons Ratio (z) = 0.58008 0.16085
#
# Static dielectric constant tensor:
#      x y z
#    x 2.138130 0.000000 0.000000 
#    y 0.000000 1.990460 0.000000 
#    z 0.000000 0.000000 2.756770 
# 
# From -- ./inp_files/34956.got.cif
#   From: 2010.05.17/outbox.cif.g08.bks.cpg/sg22_18_cif.got.tgz:34956.got - 2010.06.03 23:40:54.
