data_PCOD9326679
_publ_section_title
;
Structure prediction by ZEFSAII (Michael W. Deem and Ramdas Pophale) SiO2 
 PCOD9326679
Probable space group: F 2 2 2
;
_chemical_formula_sum "Si O2"
_cell_formula_units_Z 72
_cell_length_a 18.070548
_cell_length_b 13.854700
_cell_length_c 13.393297
_cell_angle_alpha 90.000000
_cell_angle_beta 90.000000
_cell_angle_gamma 90.000000
_cell_volume 3353.172910
_symmetry_space_group_name_H-M "F 2 2 2"
_symmetry_group_IT_number 22
_symmetry_cell_setting 'orthorhombic'
loop_
_space_group_symop_operation_xyz
x,y,z
-x,-y,z
x,-y,-z
-x,y,-z
x,1/2+y,1/2+z
-x,1/2-y,1/2+z
x,1/2-y,1/2-z
-x,1/2+y,1/2-z
1/2+x,y,1/2+z
1/2-x,-y,1/2+z
1/2+x,-y,1/2-z
1/2-x,y,1/2-z
1/2+x,1/2+y,z
1/2-x,1/2-y,z
1/2+x,1/2-y,-z
1/2-x,1/2+y,-z
loop_
_atom_site_type_symbol
_atom_site_label
_atom_site_fract_x
_atom_site_fract_y
_atom_site_fract_z
Si Si1 0.358790 0.795540 0.855231
Si Si2 0.010544 0.201325 0.882817
Si Si3 0.123298 0.508588 0.110146
Si Si4 0.500000 0.500000 0.226752
Si Si5 0.829722 0.720696 0.917338
O O1 0.333589 0.750000 0.750000
O O2 0.448757 0.781485 0.853858
O O3 0.337476 0.907595 0.864894
O O4 0.334851 0.753040 0.963190
O O5 0.095430 0.235501 0.868497
O O6 0.990973 0.097957 0.835848
O O7 0.000000 0.190273 0.000000
O O8 0.168695 0.605706 0.097414
O O9 0.067699 0.520430 0.200278
O O10 0.086588 0.500000 0.000000
O O11 0.750000 0.750000 0.878125
#
# Coordination Sequence:
#
# PCOD9326679 Si02
#       5
#    16  16  16   8  16
#     4  10  19  40  69  99 126 172 236 281 323 389
#     4  10  22  38  62  95 132 173 228 286 329 392
#     4  10  21  36  63  97 126 167 222 275 328 394
#     4  12  20  36  64  94 128 176 222 286 330 386
#     4  10  23  42  64  95 140 182 211 275 352 411
#
# _framework density 21.472199
#
# number of rings (size 3 to 8) (size 9 to 14) (size 15 to 20)
#    0.000    1.778    2.222    2.000    0.000    4.000 
#    0.000   15.556    9.778    0.000    0.000    0.000 
#    0.000    0.000    0.000    0.000    0.000    0.000 
#
# Total GULP energy -100375.455234 kJ/mol
# GULP energy per Si atom -5576.414180 kJ/mol
# Density = 2.142333 g / cm^3
# Si number density = 21.472199 Si / 1000 Ang^3
#
#
#
# Elastic Constant Matrix: (Units=GPa)
#
#
# Indices 1 2 3 4 5 6 
#
# 1 129.7812 40.9076 6.0576 0.0000 0.0000 0.0000
# 2 40.9076 137.5632 45.3215 0.0000 0.0000 0.0000
# 3 6.0576 45.3215 120.5819 0.0000 0.0000 0.0000
# 4 0.0000 0.0000 0.0000 43.9985 0.0000 0.0000
# 5 0.0000 0.0000 0.0000 0.0000 -2.8932 0.0000
# 6 0.0000 0.0000 0.0000 0.0000 0.0000 10.3931
#
#
#
# Elastic Compliance Matrix: (Units=1/GPa)
#
#
# Indices 1 2 3 4 5 6 
#
# 1 0.008540 -0.002737 0.000600 0.000000 0.000000 0.000000
# 2 -0.002737 0.009174 -0.003311 0.000000 0.000000 0.000000
# 3 0.000600 -0.003311 0.009507 0.000000 0.000000 0.000000
# 4 0.000000 0.000000 0.000000 0.022728 0.000000 0.000000
# 5 0.000000 0.000000 0.000000 0.000000 -0.345644 0.000000
# 6 0.000000 0.000000 0.000000 0.000000 0.000000 0.096218
#
#
# Mechanical properties :
#
#
# Convention : Reuss Voigt Hill
#
# Bulk Modulus (GPa) = 61.25444 63.61108 62.43276
# Shear Modulus (GPa) = -27.30167 30.00900 1.35367
#
# Velocity S-wave (km/s) = -3.56966 3.74247 0.79486
# Velocity P-wave (km/s) = 3.40577 6.95442 5.47555
#
# Compressibility (1/GPa) = 0.01632535
#
# Stress axis : x y z
#
# Youngs Moduli (GPa) = 117.09526 109.00289 105.18218
#
# Poissons Ratio (x) = 0.29836 -0.06308
# Poissons Ratio (y) = 0.32051 0.34822
# Poissons Ratio (z) = -0.07023 0.36087
#
# Static dielectric constant tensor:
#      x y z
#    x 1.793310 0.000000 0.000000 
#    y 0.000000 1.786540 0.000000 
#    z 0.000000 0.000000 1.821430 
# 
# From -- ./inp_files/30414.got.cif
#   From: 2010.05.17/outbox.cif.g08.bks.cpg/sg22_16_cif.got.tgz:30414.got - 2010.06.03 23:40:54.
