data_PCOD9326568
_publ_section_title
;
Structure prediction by ZEFSAII (Michael W. Deem and Ramdas Pophale) SiO2 
 PCOD9326568
Probable space group: F 2 2 2
;
_chemical_formula_sum "Si O2"
_cell_formula_units_Z 88
_cell_length_a 17.303530
_cell_length_b 12.811921
_cell_length_c 20.970791
_cell_angle_alpha 90.000000
_cell_angle_beta 90.000000
_cell_angle_gamma 90.000000
_cell_volume 4649.045261
_symmetry_space_group_name_H-M "F 2 2 2"
_symmetry_group_IT_number 22
_symmetry_cell_setting 'orthorhombic'
loop_
_space_group_symop_operation_xyz
x,y,z
-x,-y,z
x,-y,-z
-x,y,-z
x,1/2+y,1/2+z
-x,1/2-y,1/2+z
x,1/2-y,1/2-z
-x,1/2+y,1/2-z
1/2+x,y,1/2+z
1/2-x,-y,1/2+z
1/2+x,-y,1/2-z
1/2-x,y,1/2-z
1/2+x,1/2+y,z
1/2-x,1/2-y,z
1/2+x,1/2-y,-z
1/2-x,1/2+y,-z
loop_
_atom_site_type_symbol
_atom_site_label
_atom_site_fract_x
_atom_site_fract_y
_atom_site_fract_z
Si Si1 0.428207 0.799544 0.180463
Si Si2 0.188871 0.168990 0.907941
Si Si3 0.186744 0.500000 0.500000
Si Si4 0.297367 0.963133 0.185864
Si Si5 0.291759 0.139577 0.092586
Si Si6 0.530210 0.120914 0.931885
O O1 0.445970 0.750000 0.250000
O O2 0.370458 0.725895 0.139209
O O3 0.379739 0.906313 0.191603
O O4 0.497343 0.823988 0.131582
O O5 0.250000 0.250000 0.940566
O O6 0.247294 0.102784 0.864490
O O7 0.147572 0.089177 0.956513
O O8 0.239814 0.567884 0.546908
O O9 0.250000 0.957055 0.250000
O O10 0.300947 0.079645 0.159642
O O11 0.250000 0.250000 0.099073
O O12 0.378219 0.136546 0.065328
O O13 0.500000 0.000000 0.928551
O O14 0.500000 0.162341 0.000000
#
# Coordination Sequence:
#
# PCOD9326568 Si02
#       6
#    16  16   8  16  16  16
#     4  11  21  39  67  94 124 169 221 277 331 395
#     4   9  19  30  59  93 116 156 202 263 321 380
#     4  10  20  36  61  89 128 156 212 262 324 394
#     4  10  19  37  61  94 127 157 217 274 324 395
#     4  11  24  40  63  96 129 177 218 274 342 408
#     4  11  24  42  66  96 135 174 225 281 343 404
#
# _framework density 18.928618
#
# number of rings (size 3 to 8) (size 9 to 14) (size 15 to 20)
#    0.000    1.636    3.636    1.636    7.636    0.364 
#    3.273    0.000    0.000    1.091    0.000    0.000 
#    0.000    0.000    0.000    0.000    0.000    0.000 
#
# Total GULP energy -122606.753758 kJ/mol
# GULP energy per Si atom -5573.034262 kJ/mol
# Density = 1.888554 g / cm^3
# Si number density = 18.928618 Si / 1000 Ang^3
#
#
#
# Elastic Constant Matrix: (Units=GPa)
#
#
# Indices 1 2 3 4 5 6 
#
# 1 38.9766 17.6062 0.8200 0.0000 0.0000 0.0000
# 2 17.6062 107.5065 40.8399 0.0000 0.0000 0.0000
# 3 0.8200 40.8399 99.3695 0.0000 0.0000 0.0000
# 4 0.0000 0.0000 0.0000 30.5178 0.0000 0.0000
# 5 0.0000 0.0000 0.0000 0.0000 24.4387 0.0000
# 6 0.0000 0.0000 0.0000 0.0000 0.0000 12.1929
#
#
#
# Elastic Compliance Matrix: (Units=1/GPa)
#
#
# Indices 1 2 3 4 5 6 
#
# 1 0.028025 -0.005335 0.001961 0.000000 0.000000 0.000000
# 2 -0.005335 0.012038 -0.004904 0.000000 0.000000 0.000000
# 3 0.001961 -0.004904 0.012063 0.000000 0.000000 0.000000
# 4 0.000000 0.000000 0.000000 0.032768 0.000000 0.000000
# 5 0.000000 0.000000 0.000000 0.000000 0.040919 0.000000
# 6 0.000000 0.000000 0.000000 0.000000 0.000000 0.082015
#
#
# Mechanical properties :
#
#
# Convention : Reuss Voigt Hill
#
# Bulk Modulus (GPa) = 28.11223 40.48720 34.29972
# Shear Modulus (GPa) = 21.16509 25.86899 23.51704
#
# Velocity S-wave (km/s) = 3.34751 3.70085 3.52860
# Velocity P-wave (km/s) = 5.46123 6.30060 5.89587
#
# Compressibility (1/GPa) = 0.03557171
#
# Stress axis : x y z
#
# Youngs Moduli (GPa) = 35.68256 83.06901 82.90103
#
# Poissons Ratio (x) = 0.44314 -0.16259
# Poissons Ratio (y) = 0.19035 0.40651
# Poissons Ratio (z) = -0.06998 0.40733
#
# Static dielectric constant tensor:
#      x y z
#    x 1.651550 0.000000 0.000000 
#    y 0.000000 1.704090 0.000000 
#    z 0.000000 0.000000 1.681450 
# 
# From -- ./inp_files/21421.got.cif
#   From: 2010.05.17/outbox.cif.g08.bks.cpg/sg22_11_cif.got.tgz:21421.got - 2010.06.03 23:40:54.
