data_PCOD9326419
_publ_section_title
;
Structure prediction by ZEFSAII (Michael W. Deem and Ramdas Pophale) SiO2 
 PCOD9326419
Probable space group: F 2 2 2
;
_chemical_formula_sum "Si O2"
_cell_formula_units_Z 100
_cell_length_a 20.090528
_cell_length_b 24.746785
_cell_length_c 10.340466
_cell_angle_alpha 90.000000
_cell_angle_beta 90.000000
_cell_angle_gamma 90.000000
_cell_volume 5141.031286
_symmetry_space_group_name_H-M "F 2 2 2"
_symmetry_group_IT_number 22
_symmetry_cell_setting 'orthorhombic'
loop_
_space_group_symop_operation_xyz
x,y,z
-x,-y,z
x,-y,-z
-x,y,-z
x,1/2+y,1/2+z
-x,1/2-y,1/2+z
x,1/2-y,1/2-z
-x,1/2+y,1/2-z
1/2+x,y,1/2+z
1/2-x,-y,1/2+z
1/2+x,-y,1/2-z
1/2-x,y,1/2-z
1/2+x,1/2+y,z
1/2-x,1/2-y,z
1/2+x,1/2-y,-z
1/2-x,1/2+y,-z
loop_
_atom_site_type_symbol
_atom_site_label
_atom_site_fract_x
_atom_site_fract_y
_atom_site_fract_z
Si Si1 0.750000 0.250000 0.750000
Si Si2 0.672879 0.364252 0.473069
Si Si3 0.192897 0.523380 0.143125
Si Si4 0.950653 0.185904 0.105013
Si Si5 0.169076 0.415012 0.243491
Si Si6 0.546432 0.687352 0.611843
Si Si7 0.681432 0.167826 0.547219
O O1 0.704747 0.212267 0.655332
O O2 0.662400 0.418921 0.391564
O O3 0.653938 0.377694 0.621007
O O4 0.623593 0.318973 0.424040
O O5 0.750303 0.348453 0.475342
O O6 0.250000 0.532996 0.250000
O O7 0.148305 0.475868 0.207054
O O8 0.215443 0.500000 0.000000
O O9 0.969005 0.249203 0.117815
O O10 0.961641 0.162134 0.246877
O O11 0.875622 0.184395 0.051870
O O12 0.000000 0.161242 0.000000
O O13 0.250000 0.418625 0.250000
O O14 0.152647 0.383848 0.373924
O O15 0.500000 0.663151 0.500000
#
# Coordination Sequence:
#
# PCOD9326419 Si02
#       7
#     4  16  16  16  16  16  16
#     4  12  20  32  56  90 124 164 188 244 312 350
#     4  10  19  34  57  88 115 147 189 241 290 341
#     4   9  18  32  55  82 121 152 190 236 291 349
#     4  10  24  39  57  82 114 157 198 242 289 355
#     4   8  16  33  51  84 117 148 188 231 281 351
#     4  10  23  41  57  80 116 157 198 238 299 355
#     4  11  21  33  58  92 123 151 200 241 297 348
#
# _framework density 19.451350999999999
#
# number of rings (size 3 to 8) (size 9 to 14) (size 15 to 20)
#    0.000    2.240    2.400    1.920    4.480    1.280 
#    0.000    1.600    0.000    4.320    0.000    1.120 
#    0.000    0.000    0.000    0.000    0.000    0.000 
#
# Total GULP energy -139192.503526 kJ/mol
# GULP energy per Si atom -5567.700141 kJ/mol
# Density = 1.940708 g / cm^3
# Si number density = 19.451351 Si / 1000 Ang^3
#
#
#
# Elastic Constant Matrix: (Units=GPa)
#
#
# Indices 1 2 3 4 5 6 
#
# 1 60.6371 0.6186 48.6247 0.0000 0.0000 0.0000
# 2 0.6186 42.3333 24.6345 0.0000 0.0000 0.0000
# 3 48.6247 24.6345 128.1259 0.0000 0.0000 0.0000
# 4 0.0000 0.0000 0.0000 21.0791 0.0000 0.0000
# 5 0.0000 0.0000 0.0000 0.0000 20.2639 0.0000
# 6 0.0000 0.0000 0.0000 0.0000 0.0000 3.6158
#
#
#
# Elastic Compliance Matrix: (Units=1/GPa)
#
#
# Indices 1 2 3 4 5 6 
#
# 1 0.024903 0.005783 -0.010563 0.000000 0.000000 0.000000
# 2 0.005783 0.027941 -0.007567 0.000000 0.000000 0.000000
# 3 -0.010563 -0.007567 0.013268 0.000000 0.000000 0.000000
# 4 0.000000 0.000000 0.000000 0.047440 0.000000 0.000000
# 5 0.000000 0.000000 0.000000 0.000000 0.049349 0.000000
# 6 0.000000 0.000000 0.000000 0.000000 0.000000 0.276565
#
#
# Mechanical properties :
#
#
# Convention : Reuss Voigt Hill
#
# Bulk Modulus (GPa) = 24.14385 42.09467 33.11926
# Shear Modulus (GPa) = 10.46101 19.47298 14.96700
#
# Velocity S-wave (km/s) = 2.32158 3.16747 2.77692
# Velocity P-wave (km/s) = 4.43009 5.92158 5.22928
#
# Compressibility (1/GPa) = 0.04141841
#
# Stress axis : x y z
#
# Youngs Moduli (GPa) = 40.15635 35.79009 75.36811
#
# Poissons Ratio (x) = -0.20696 0.79608
# Poissons Ratio (y) = -0.23221 0.57028
# Poissons Ratio (z) = 0.42415 0.27081
#
# Static dielectric constant tensor:
#      x y z
#    x 1.657850 0.000000 0.000000 
#    y 0.000000 1.737720 0.000000 
#    z 0.000000 0.000000 1.750380 
# 
# From -- ./inp_files/12979.got.cif
#   From: 2010.05.17/outbox.cif.g08.bks.cpg/sg22_7_cif.got.tgz:12979.got - 2010.06.03 23:40:54.
