data_PCOD9326991
_publ_section_title
;
Structure prediction by ZEFSAII (Michael W. Deem and Ramdas Pophale) SiO2 
 PCOD9326991
Probable space group: F 2 2 2
;
_chemical_formula_sum "Si O2"
_cell_formula_units_Z 112
_cell_length_a 19.930380
_cell_length_b 10.833079
_cell_length_c 22.710678
_cell_angle_alpha 90.000000
_cell_angle_beta 90.000000
_cell_angle_gamma 90.000000
_cell_volume 4903.403009
_symmetry_space_group_name_H-M "F 2 2 2"
_symmetry_group_IT_number 22
_symmetry_cell_setting 'orthorhombic'
loop_
_space_group_symop_operation_xyz
x,y,z
-x,-y,z
x,-y,-z
-x,y,-z
x,1/2+y,1/2+z
-x,1/2-y,1/2+z
x,1/2-y,1/2-z
-x,1/2+y,1/2-z
1/2+x,y,1/2+z
1/2-x,-y,1/2+z
1/2+x,-y,1/2-z
1/2-x,y,1/2-z
1/2+x,1/2+y,z
1/2-x,1/2-y,z
1/2+x,1/2-y,-z
1/2-x,1/2+y,-z
loop_
_atom_site_type_symbol
_atom_site_label
_atom_site_fract_x
_atom_site_fract_y
_atom_site_fract_z
Si Si1 0.847003 0.615676 0.425104
Si Si2 0.001663 0.641290 0.604812
Si Si3 0.903213 0.565461 0.763695
Si Si4 0.287688 0.563718 0.809681
Si Si5 0.696363 0.342366 0.346681
Si Si6 0.962360 0.669463 0.204854
Si Si7 0.644995 0.172644 0.448025
O O1 0.927070 0.635534 0.427312
O O2 0.815789 0.651057 0.361804
O O3 0.834587 0.467643 0.429756
O O4 0.827975 0.682736 0.485447
O O5 0.011784 0.752787 0.650570
O O6 0.000000 0.500000 0.630157
O O7 0.935447 0.667653 0.565987
O O8 0.853685 0.515057 0.713086
O O9 0.865932 0.662817 0.803718
O O10 0.920062 0.451489 0.807864
O O11 0.976208 0.622481 0.753445
O O12 0.250000 0.607842 0.750000
O O13 0.231791 0.474591 0.839976
O O14 0.750000 0.250000 0.320624
O O15 0.675144 0.282083 0.408370
O O16 0.918753 0.750000 0.250000
#
# Coordination Sequence:
#
# PCOD9326991 Si02
#       7
#    16  16  16  16  16  16  16
#     4  10  20  37  64  93 133 177 226 293 352 416
#     4  10  21  37  65  99 134 177 229 293 358 426
#     4  10  24  39  60 101 138 178 229 288 358 420
#     4  10  22  38  63  95 137 177 233 283 352 421
#     4  11  21  39  66  98 130 179 231 298 346 412
#     4  11  23  36  62  94 143 179 221 286 361 426
#     4  10  20  37  62  99 133 166 235 297 353 416
#
# _framework density 22.841280000000001
#
# number of rings (size 3 to 8) (size 9 to 14) (size 15 to 20)
#    0.000    1.714    2.857    1.286    8.000    3.714 
#    0.000    0.000    9.429   16.714    0.000    0.000 
#    0.000    0.000    0.000    0.000    0.000    0.000 
#
# Total GULP energy -156006.370169 kJ/mol
# GULP energy per Si atom -5571.656077 kJ/mol
# Density = 2.278929 g / cm^3
# Si number density = 22.841280 Si / 1000 Ang^3
#
#
#
# Elastic Constant Matrix: (Units=GPa)
#
#
# Indices 1 2 3 4 5 6 
#
# 1 83.5616 16.4488 39.0353 0.0000 0.0000 0.0000
# 2 16.4488 66.2702 43.5778 0.0000 0.0000 0.0000
# 3 39.0353 43.5778 173.1680 0.0000 0.0000 0.0000
# 4 0.0000 0.0000 0.0000 28.5737 0.0000 0.0000
# 5 0.0000 0.0000 0.0000 0.0000 9.4821 0.0000
# 6 0.0000 0.0000 0.0000 0.0000 0.0000 25.1595
#
#
#
# Elastic Compliance Matrix: (Units=1/GPa)
#
#
# Indices 1 2 3 4 5 6 
#
# 1 0.013519 -0.001620 -0.002640 0.000000 0.000000 0.000000
# 2 -0.001620 0.018276 -0.004234 0.000000 0.000000 0.000000
# 3 -0.002640 -0.004234 0.007435 0.000000 0.000000 0.000000
# 4 0.000000 0.000000 0.000000 0.034997 0.000000 0.000000
# 5 0.000000 0.000000 0.000000 0.000000 0.105462 0.000000
# 6 0.000000 0.000000 0.000000 0.000000 0.000000 0.039746
#
#
# Mechanical properties :
#
#
# Convention : Reuss Voigt Hill
#
# Bulk Modulus (GPa) = 44.95729 57.90262 51.42996
# Shear Modulus (GPa) = 20.50543 27.57225 24.03884
#
# Velocity S-wave (km/s) = 2.99947 3.47814 3.24764
# Velocity P-wave (km/s) = 5.63214 6.44476 6.05210
#
# Compressibility (1/GPa) = 0.02224333
#
# Stress axis : x y z
#
# Youngs Moduli (GPa) = 73.96857 54.71668 134.49305
#
# Poissons Ratio (x) = 0.08862 0.35505
# Poissons Ratio (y) = 0.11980 0.56945
# Poissons Ratio (z) = 0.19527 0.23167
#
# Static dielectric constant tensor:
#      x y z
#    x 1.920940 0.000000 0.000000 
#    y 0.000000 1.939850 0.000000 
#    z 0.000000 0.000000 1.901200 
# 
# From -- ./inp_files/49975.got.cif
#   From: 2010.05.17/outbox.cif.g08.bks.cpg/sg22_25_cif.got.tgz:49975.got - 2010.06.03 23:40:54.
