data_PCOD9326930
_publ_section_title
;
Structure prediction by ZEFSAII (Michael W. Deem and Ramdas Pophale) SiO2 
 PCOD9326930
Probable space group: F 2 2 2
;
_chemical_formula_sum "Si O2"
_cell_formula_units_Z 112
_cell_length_a 13.019636
_cell_length_b 29.611302
_cell_length_c 13.185530
_cell_angle_alpha 90.000000
_cell_angle_beta 90.000000
_cell_angle_gamma 90.000000
_cell_volume 5083.395935
_symmetry_space_group_name_H-M "F 2 2 2"
_symmetry_group_IT_number 22
_symmetry_cell_setting 'orthorhombic'
loop_
_space_group_symop_operation_xyz
x,y,z
-x,-y,z
x,-y,-z
-x,y,-z
x,1/2+y,1/2+z
-x,1/2-y,1/2+z
x,1/2-y,1/2-z
-x,1/2+y,1/2-z
1/2+x,y,1/2+z
1/2-x,-y,1/2+z
1/2+x,-y,1/2-z
1/2-x,y,1/2-z
1/2+x,1/2+y,z
1/2-x,1/2-y,z
1/2+x,1/2-y,-z
1/2-x,1/2+y,-z
loop_
_atom_site_type_symbol
_atom_site_label
_atom_site_fract_x
_atom_site_fract_y
_atom_site_fract_z
Si Si1 0.380442 0.221209 0.975197
Si Si2 0.896358 0.483307 0.803253
Si Si3 0.190251 0.479378 0.601632
Si Si4 0.616800 0.390570 0.018936
Si Si5 0.132663 0.885193 0.781133
Si Si6 0.795442 0.810713 0.864112
Si Si7 0.362775 0.292621 0.297645
O O1 0.311734 0.182399 0.925077
O O2 0.351121 0.264971 0.907017
O O3 0.500000 0.215260 0.000000
O O4 0.341253 0.221498 0.088926
O O5 0.876328 0.512898 0.701732
O O6 0.796371 0.494127 0.872086
O O7 0.911304 0.432401 0.760997
O O8 0.000000 0.500000 0.854677
O O9 0.143208 0.500000 0.500000
O O10 0.192079 0.427319 0.569422
O O11 0.626311 0.349263 0.097969
O O12 0.500000 0.407376 0.000000
O O13 0.640497 0.378084 0.902352
O O14 0.250000 0.890125 0.750000
O O15 0.086466 0.840760 0.726581
O O16 0.750000 0.808273 0.750000
O O17 0.421805 0.250000 0.250000
O O18 0.250000 0.296578 0.250000
#
# Coordination Sequence:
#
# PCOD9326930 Si02
#       7
#    16  16  16  16  16  16  16
#     4  11  23  43  66  94 132 182 227 277 344 424
#     4  11  23  41  65  94 135 183 231 295 368 428
#     4  11  23  42  65  96 132 176 235 293 346 426
#     4  12  25  42  69 102 137 185 239 295 354 429
#     4  11  20  41  67  93 132 174 230 299 353 410
#     4  11  25  45  66  98 146 185 225 289 361 427
#     4  10  20  36  66  96 123 162 225 289 338 406
#
# _framework density 22.032515
#
# number of rings (size 3 to 8) (size 9 to 14) (size 15 to 20)
#    0.000    1.000    2.857    6.429    2.000    2.571 
#    2.571    0.000    0.000    0.000    0.000    0.000 
#    0.000    0.000    0.000    0.000    0.000    0.000 
#
# Total GULP energy -155874.807115 kJ/mol
# GULP energy per Si atom -5566.957397 kJ/mol
# Density = 2.198237 g / cm^3
# Si number density = 22.032515 Si / 1000 Ang^3
#
#
#
# Elastic Constant Matrix: (Units=GPa)
#
#
# Indices 1 2 3 4 5 6 
#
# 1 92.3996 -7.0777 9.2362 0.0000 0.0000 0.0000
# 2 -7.0777 111.7440 8.8332 0.0000 0.0000 0.0000
# 3 9.2362 8.8332 132.2598 0.0000 0.0000 0.0000
# 4 0.0000 0.0000 0.0000 28.8254 0.0000 0.0000
# 5 0.0000 0.0000 0.0000 0.0000 21.3888 0.0000
# 6 0.0000 0.0000 0.0000 0.0000 0.0000 17.6774
#
#
#
# Elastic Compliance Matrix: (Units=1/GPa)
#
#
# Indices 1 2 3 4 5 6 
#
# 1 0.010962 0.000759 -0.000816 0.000000 0.000000 0.000000
# 2 0.000759 0.009049 -0.000657 0.000000 0.000000 0.000000
# 3 -0.000816 -0.000657 0.007662 0.000000 0.000000 0.000000
# 4 0.000000 0.000000 0.000000 0.034692 0.000000 0.000000
# 5 0.000000 0.000000 0.000000 0.000000 0.046753 0.000000
# 6 0.000000 0.000000 0.000000 0.000000 0.000000 0.056569
#
#
# Mechanical properties :
#
#
# Convention : Reuss Voigt Hill
#
# Bulk Modulus (GPa) = 38.10440 39.82074 38.96257
# Shear Modulus (GPa) = 28.43094 35.27244 31.85169
#
# Velocity S-wave (km/s) = 3.59612 4.00550 3.80632
# Velocity P-wave (km/s) = 5.88005 6.28529 6.08604
#
# Compressibility (1/GPa) = 0.02624369
#
# Stress axis : x y z
#
# Youngs Moduli (GPa) = 91.22197 110.50875 130.51796
#
# Poissons Ratio (x) = -0.08386 0.10653
# Poissons Ratio (y) = -0.06922 0.08580
# Poissons Ratio (z) = 0.07446 0.07264
#
# Static dielectric constant tensor:
#      x y z
#    x 1.834810 0.000000 0.000000 
#    y 0.000000 1.966690 0.000000 
#    z 0.000000 0.000000 1.675350 
# 
# From -- ./inp_files/20280.got.cif
#   From: 2010.05.17/outbox.cif.g08.bks.cpg/sg22_11_cif.got.tgz:20280.got - 2010.06.03 23:40:54.
