data_PCOD9326693
_publ_section_title
;
Structure prediction by ZEFSAII (Michael W. Deem and Ramdas Pophale) SiO2 
 PCOD9326693
Probable space group: F 2 2 2
;
_chemical_formula_sum "Si O2"
_cell_formula_units_Z 48
_cell_length_a 13.105556
_cell_length_b 27.862666
_cell_length_c 5.623024
_cell_angle_alpha 90.000000
_cell_angle_beta 90.000000
_cell_angle_gamma 90.000000
_cell_volume 2053.279431
_symmetry_space_group_name_H-M "F 2 2 2"
_symmetry_group_IT_number 22
_symmetry_cell_setting 'orthorhombic'
loop_
_space_group_symop_operation_xyz
x,y,z
-x,-y,z
x,-y,-z
-x,y,-z
x,1/2+y,1/2+z
-x,1/2-y,1/2+z
x,1/2-y,1/2-z
-x,1/2+y,1/2-z
1/2+x,y,1/2+z
1/2-x,-y,1/2+z
1/2+x,-y,1/2-z
1/2-x,y,1/2-z
1/2+x,1/2+y,z
1/2-x,1/2-y,z
1/2+x,1/2-y,-z
1/2-x,1/2+y,-z
loop_
_atom_site_type_symbol
_atom_site_label
_atom_site_fract_x
_atom_site_fract_y
_atom_site_fract_z
Si Si1 0.000000 0.721670 0.000000
Si Si2 0.000000 0.908773 0.000000
Si Si3 0.353263 0.856329 0.869752
Si Si4 0.885177 0.048273 0.390833
O O1 0.096931 0.686246 0.017303
O O2 0.008824 0.750000 0.750000
O O3 0.085878 0.943214 0.117349
O O4 0.938965 0.874623 0.181674
O O5 0.250000 0.839868 0.750000
O O6 0.330050 0.904020 0.021370
O O7 0.000000 0.049534 0.500000
O O8 0.838063 0.000000 0.500000
#
# Coordination Sequence:
#
# PCOD9326693 Si02
#       4
#     8   8  16  16
#     4  12  27  52  78 106 145 187 252 323 380 444
#     4  10  19  43  69  96 150 191 234 301 345 432
#     4  11  24  45  70 105 140 190 236 297 376 436
#     4   9  19  37  66 104 141 191 239 282 356 429
#
# _framework density 23.377238999999999
#
# number of rings (size 3 to 8) (size 9 to 14) (size 15 to 20)
#    0.000    1.667    5.000    1.000    0.000   12.667 
#    6.000    5.000    0.000    0.000    0.000    0.000 
#    0.000    0.000    0.000    0.000    0.000    0.000 
#
# Total GULP energy -66993.330748 kJ/mol
# GULP energy per Si atom -5582.777562 kJ/mol
# Density = 2.332403 g / cm^3
# Si number density = 23.377239 Si / 1000 Ang^3
#
#
#
# Elastic Constant Matrix: (Units=GPa)
#
#
# Indices 1 2 3 4 5 6 
#
# 1 78.0369 26.8755 8.0546 0.0000 -0.0005 0.0000
# 2 26.8755 126.0915 41.1159 0.0000 0.0000 0.0000
# 3 8.0546 41.1159 87.7132 0.0000 -0.0010 0.0001
# 4 0.0000 0.0000 0.0000 18.3574 0.0000 0.0000
# 5 -0.0005 0.0000 -0.0010 0.0000 35.4198 0.0000
# 6 0.0000 0.0000 0.0001 0.0000 0.0000 -12.1616
#
#
#
# Elastic Compliance Matrix: (Units=1/GPa)
#
#
# Indices 1 2 3 4 5 6 
#
# 1 0.013831 -0.002991 0.000132 0.000000 0.000000 0.000000
# 2 -0.002991 0.010009 -0.004417 0.000000 0.000000 0.000000
# 3 0.000132 -0.004417 0.013459 0.000000 0.000000 0.000000
# 4 0.000000 0.000000 0.000000 0.054474 0.000000 0.000000
# 5 0.000000 0.000000 0.000000 0.000000 0.028233 0.000000
# 6 0.000000 0.000000 0.000000 0.000000 0.000000 -0.082226
#
#
# Mechanical properties :
#
#
# Convention : Reuss Voigt Hill
#
# Bulk Modulus (GPa) = 43.96236 49.32595 46.64416
# Shear Modulus (GPa) = 83.45375 22.70951 53.08163
#
# Velocity S-wave (km/s) = 5.98132 3.12017 4.77031
# Velocity P-wave (km/s) = 8.15770 5.84178 7.09487
#
# Compressibility (1/GPa) = 0.02274673
#
# Stress axis : x y z
#
# Youngs Moduli (GPa) = 72.30186 99.91506 74.29921
#
# Poissons Ratio (x) = 0.29884 -0.00980
# Poissons Ratio (y) = 0.21625 0.32817
# Poissons Ratio (z) = -0.00954 0.44131
#
# Static dielectric constant tensor:
#      x y z
#    x 1.895630 0.000000 0.000000 
#    y 0.000000 1.913790 0.000000 
#    z 0.000000 0.000000 2.048190 
# 
# From -- ./inp_files/1629.got.cif
#   From: 2010.05.17/outbox.cif.g08.bks.cpg/sg22_1_cif.got.tgz:1629.got - 2010.06.03 23:40:54.
