data_PCOD9326961
_publ_section_title
;
Structure prediction by ZEFSAII (Michael W. Deem and Ramdas Pophale) SiO2 
 PCOD9326961
Probable space group: F 2 2 2
;
_chemical_formula_sum "Si O2"
_cell_formula_units_Z 104
_cell_length_a 26.941856
_cell_length_b 21.689485
_cell_length_c 9.159968
_cell_angle_alpha 90.000000
_cell_angle_beta 90.000000
_cell_angle_gamma 90.000000
_cell_volume 5352.672932
_symmetry_space_group_name_H-M "F 2 2 2"
_symmetry_group_IT_number 22
_symmetry_cell_setting 'orthorhombic'
loop_
_space_group_symop_operation_xyz
x,y,z
-x,-y,z
x,-y,-z
-x,y,-z
x,1/2+y,1/2+z
-x,1/2-y,1/2+z
x,1/2-y,1/2-z
-x,1/2+y,1/2-z
1/2+x,y,1/2+z
1/2-x,-y,1/2+z
1/2+x,-y,1/2-z
1/2-x,y,1/2-z
1/2+x,1/2+y,z
1/2-x,1/2-y,z
1/2+x,1/2-y,-z
1/2-x,1/2+y,-z
loop_
_atom_site_type_symbol
_atom_site_label
_atom_site_fract_x
_atom_site_fract_y
_atom_site_fract_z
Si Si1 0.580399 0.092071 0.509481
Si Si2 0.348649 0.756908 0.076681
Si Si3 0.198893 0.387642 0.931203
Si Si4 0.948839 0.268598 0.581426
Si Si5 0.188717 0.620535 0.419738
Si Si6 0.367648 0.000000 0.000000
Si Si7 0.554319 0.511766 0.756396
O O1 0.562346 0.158802 0.559515
O O2 0.639989 0.089556 0.487966
O O3 0.557314 0.073946 0.352593
O O4 0.563844 0.042263 0.626949
O O5 0.359039 0.750000 0.250000
O O6 0.317005 0.817232 0.039119
O O7 0.319687 0.693202 0.046319
O O8 0.400690 0.761906 0.993273
O O9 0.189983 0.391767 0.755207
O O10 0.256478 0.397916 0.969509
O O11 0.165948 0.438965 0.009722
O O12 0.951939 0.250000 0.750000
O O13 0.000000 0.252864 0.500000
O O14 0.403114 0.990718 0.137847
O O15 0.500000 0.500000 0.692547
#
# Coordination Sequence:
#
# PCOD9326961 Si02
#       7
#    16  16  16  16  16   8  16
#     4  10  21  42  65  87 118 162 213 250 307 389
#     4   9  19  37  64  88 121 162 212 252 306 379
#     4  10  20  37  59  94 124 163 202 258 308 372
#     4  11  23  39  60  93 125 161 205 266 324 378
#     4   9  18  38  65  89 120 161 205 255 313 376
#     4  12  25  38  58  94 132 150 209 264 312 364
#     4  11  23  42  63  86 118 170 208 254 306 376
#
# _framework density 19.429544
#
# number of rings (size 3 to 8) (size 9 to 14) (size 15 to 20)
#    0.000    1.846    1.538    3.000    2.154    3.077 
#    2.769    0.000    0.000    0.923    0.000    0.000 
#    0.000    0.000    0.000    0.000    0.000    0.000 
#
# Total GULP energy -145148.194632 kJ/mol
# GULP energy per Si atom -5582.622870 kJ/mol
# Density = 1.938532 g / cm^3
# Si number density = 19.429544 Si / 1000 Ang^3
#
#
#
# Elastic Constant Matrix: (Units=GPa)
#
#
# Indices 1 2 3 4 5 6 
#
# 1 153.9742 22.3081 32.6958 0.0000 0.0000 0.0000
# 2 22.3081 53.0552 11.3067 0.0000 -0.0001 0.0000
# 3 32.6958 11.3067 51.7352 0.0002 -0.0002 -0.0002
# 4 0.0000 0.0000 0.0002 19.1733 -0.0001 -0.0001
# 5 0.0000 -0.0001 -0.0002 -0.0001 26.7130 0.0001
# 6 0.0000 0.0000 -0.0002 -0.0001 0.0001 14.7673
#
#
#
# Elastic Compliance Matrix: (Units=1/GPa)
#
#
# Indices 1 2 3 4 5 6 
#
# 1 0.007766 -0.002328 -0.004399 0.000000 0.000000 0.000000
# 2 -0.002328 0.020467 -0.003002 0.000000 0.000000 0.000000
# 3 -0.004399 -0.003002 0.022765 0.000000 0.000000 0.000000
# 4 0.000000 0.000000 0.000000 0.052156 0.000000 0.000000
# 5 0.000000 0.000000 0.000000 0.000000 0.037435 0.000000
# 6 0.000000 0.000000 0.000000 0.000000 0.000000 0.067717
#
#
# Mechanical properties :
#
#
# Convention : Reuss Voigt Hill
#
# Bulk Modulus (GPa) = 31.70529 43.48729 37.59629
# Shear Modulus (GPa) = 20.98391 24.96099 22.97245
#
# Velocity S-wave (km/s) = 3.28990 3.58815 3.44226
# Velocity P-wave (km/s) = 5.54840 6.29262 5.93219
#
# Compressibility (1/GPa) = 0.03154047
#
# Stress axis : x y z
#
# Youngs Moduli (GPa) = 128.76606 48.85957 43.92615
#
# Poissons Ratio (x) = 0.11374 0.19324
# Poissons Ratio (y) = 0.29975 0.13186
# Poissons Ratio (z) = 0.56647 0.14667
#
# Static dielectric constant tensor:
#      x y z
#    x 1.674540 0.000000 0.000000 
#    y 0.000000 1.682460 0.000000 
#    z 0.000000 0.000000 1.662320 
# 
# From -- ./inp_files/14921.got.cif
#   From: 2010.05.17/outbox.cif.g08.bks.cpg/sg22_8_cif.got.tgz:14921.got - 2010.06.03 23:40:54.
