data_PCOD9326738
_publ_section_title
;
Structure prediction by ZEFSAII (Michael W. Deem and Ramdas Pophale) SiO2 
 PCOD9326738
Probable space group: F 2 2 2
;
_chemical_formula_sum "Si O2"
_cell_formula_units_Z 92
_cell_length_a 20.446904
_cell_length_b 12.317405
_cell_length_c 16.610118
_cell_angle_alpha 90.000000
_cell_angle_beta 90.000000
_cell_angle_gamma 90.000000
_cell_volume 4183.304686
_symmetry_space_group_name_H-M "F 2 2 2"
_symmetry_group_IT_number 22
_symmetry_cell_setting 'orthorhombic'
loop_
_space_group_symop_operation_xyz
x,y,z
-x,-y,z
x,-y,-z
-x,y,-z
x,1/2+y,1/2+z
-x,1/2-y,1/2+z
x,1/2-y,1/2-z
-x,1/2+y,1/2-z
1/2+x,y,1/2+z
1/2-x,-y,1/2+z
1/2+x,-y,1/2-z
1/2-x,y,1/2-z
1/2+x,1/2+y,z
1/2-x,1/2-y,z
1/2+x,1/2-y,-z
1/2-x,1/2+y,-z
loop_
_atom_site_type_symbol
_atom_site_label
_atom_site_fract_x
_atom_site_fract_y
_atom_site_fract_z
Si Si1 0.440217 0.855311 0.699773
Si Si2 0.463790 0.271414 0.586189
Si Si3 0.682981 0.193657 0.097076
Si Si4 0.750000 0.250000 0.750000
Si Si5 0.314330 0.570634 0.859724
Si Si6 0.750000 0.390599 0.250000
Si Si7 0.000000 0.000000 0.331630
Si Si8 0.274636 0.500000 0.500000
O O1 0.416435 0.750000 0.750000
O O2 0.502653 0.808801 0.651426
O O3 0.390874 0.907046 0.635326
O O4 0.449536 0.945431 0.768919
O O5 0.500000 0.261039 0.500000
O O6 0.386012 0.249300 0.583318
O O7 0.473962 0.396798 0.617396
O O8 0.750000 0.250000 0.067265
O O9 0.700081 0.169877 0.190102
O O10 0.680757 0.079750 0.051196
O O11 0.710220 0.328921 0.807378
O O12 0.294139 0.464096 0.809159
O O13 0.273325 0.563725 0.940478
#
# Coordination Sequence:
#
# PCOD9326738 Si02
#       8
#    16  16  16   4  16   8   8   8
#     4  10  22  41  67  97 132 173 227 270 331 404
#     4  11  26  43  70 104 139 177 230 283 352 405
#     4  11  25  44  69  98 137 181 227 288 339 414
#     4  10  20  32  70  84 126 170 216 256 318 380
#     4  10  20  40  61  98 129 171 213 276 323 403
#     4   9  21  41  69 102 130 176 234 278 340 402
#     4  10  23  44  69  96 132 182 220 282 329 414
#     4  10  26  38  63  99 136 168 224 272 350 390
#
# _framework density 21.992182
#
# number of rings (size 3 to 8) (size 9 to 14) (size 15 to 20)
#    0.000    1.739    0.870    1.565    6.087    6.957 
#    0.000    0.000    0.000    0.000    0.000    0.000 
#    0.000    0.000    0.000    0.000    0.000    0.000 
#
# Total GULP energy -128368.752542 kJ/mol
# GULP energy per Si atom -5581.250111 kJ/mol
# Density = 2.194213 g / cm^3
# Si number density = 21.992182 Si / 1000 Ang^3
#
#
#
# Elastic Constant Matrix: (Units=GPa)
#
#
# Indices 1 2 3 4 5 6 
#
# 1 146.5948 16.6645 36.9973 0.0000 0.0000 0.0000
# 2 16.6645 39.6660 19.6809 0.0000 0.0000 0.0000
# 3 36.9973 19.6809 115.3938 0.0000 0.0000 0.0000
# 4 0.0000 0.0000 0.0000 68.1084 0.0000 0.0000
# 5 0.0000 0.0000 0.0000 0.0000 1.2061 0.0000
# 6 0.0000 0.0000 0.0000 0.0000 0.0000 14.6382
#
#
#
# Elastic Compliance Matrix: (Units=1/GPa)
#
#
# Indices 1 2 3 4 5 6 
#
# 1 0.007588 -0.002164 -0.002064 0.000000 0.000000 0.000000
# 2 -0.002164 0.028158 -0.004109 0.000000 0.000000 0.000000
# 3 -0.002064 -0.004109 0.010028 0.000000 0.000000 0.000000
# 4 0.000000 0.000000 0.000000 0.014682 0.000000 0.000000
# 5 0.000000 0.000000 0.000000 0.000000 0.829120 0.000000
# 6 0.000000 0.000000 0.000000 0.000000 0.000000 0.068314
#
#
# Mechanical properties :
#
#
# Convention : Reuss Voigt Hill
#
# Bulk Modulus (GPa) = 34.36198 49.81554 42.08876
# Shear Modulus (GPa) = 5.07993 32.01135 18.54564
#
# Velocity S-wave (km/s) = 1.52148 3.81934 2.90708
# Velocity P-wave (km/s) = 4.32956 6.49234 5.51795
#
# Compressibility (1/GPa) = 0.02910193
#
# Stress axis : x y z
#
# Youngs Moduli (GPa) = 131.78006 35.51358 99.71631
#
# Poissons Ratio (x) = 0.07685 0.20580
# Poissons Ratio (y) = 0.28517 0.40970
# Poissons Ratio (z) = 0.27198 0.14591
#
# Static dielectric constant tensor:
#      x y z
#    x 1.841750 0.000000 0.000000 
#    y 0.000000 1.872660 0.000000 
#    z 0.000000 0.000000 1.763670 
# 
# From -- ./inp_files/38855.got.cif
#   From: 2010.05.17/outbox.cif.g08.bks.cpg/sg22_20_cif.got.tgz:38855.got - 2010.06.03 23:40:54.
