data_PCOD9326957
_publ_section_title
;
Structure prediction by ZEFSAII (Michael W. Deem and Ramdas Pophale) SiO2 
 PCOD9326957
Probable space group: F 2 2 2
;
_chemical_formula_sum "Si O2"
_cell_formula_units_Z 80
_cell_length_a 9.327231
_cell_length_b 15.781663
_cell_length_c 26.136502
_cell_angle_alpha 90.000000
_cell_angle_beta 90.000000
_cell_angle_gamma 90.000000
_cell_volume 3847.272613
_symmetry_space_group_name_H-M "F 2 2 2"
_symmetry_group_IT_number 22
_symmetry_cell_setting 'orthorhombic'
loop_
_space_group_symop_operation_xyz
x,y,z
-x,-y,z
x,-y,-z
-x,y,-z
x,1/2+y,1/2+z
-x,1/2-y,1/2+z
x,1/2-y,1/2-z
-x,1/2+y,1/2-z
1/2+x,y,1/2+z
1/2-x,-y,1/2+z
1/2+x,-y,1/2-z
1/2-x,y,1/2-z
1/2+x,1/2+y,z
1/2-x,1/2-y,z
1/2+x,1/2-y,-z
1/2-x,1/2+y,-z
loop_
_atom_site_type_symbol
_atom_site_label
_atom_site_fract_x
_atom_site_fract_y
_atom_site_fract_z
Si Si1 0.061614 0.093326 0.854533
Si Si2 0.852519 0.165626 0.361414
Si Si3 0.082713 0.912095 0.258398
Si Si4 0.096494 0.650306 0.546466
Si Si5 0.581769 0.350244 0.548322
O O1 0.230670 0.093733 0.865755
O O2 0.036175 0.125644 0.796610
O O3 0.983775 0.142116 0.899711
O O4 0.000000 0.000000 0.855015
O O5 0.750000 0.250000 0.365661
O O6 0.921095 0.153113 0.305365
O O7 0.975092 0.151419 0.403285
O O8 0.250000 0.934024 0.250000
O O9 0.000000 0.000000 0.269016
O O10 0.257072 0.614230 0.552501
O O11 0.105675 0.750597 0.536396
O O12 0.000000 0.613708 0.500000
O O13 0.500000 0.388993 0.500000
#
# Coordination Sequence:
#
# PCOD9326957 Si02
#       5
#    16  16  16  16  16
#     4  10  21  38  59  86 121 163 203 249 315 370
#     4  11  21  38  63  94 120 160 212 259 300 365
#     4   9  21  38  60  87 120 166 203 249 310 372
#     4  10  20  37  59  85 123 159 201 253 309 370
#     4  10  21  35  60  89 118 159 200 253 313 366
#
# _framework density 20.793952000000001
#
# number of rings (size 3 to 8) (size 9 to 14) (size 15 to 20)
#    0.000    2.000    2.000    1.200    2.800    8.800 
#    0.000    0.000    0.000    6.600    0.000    0.000 
#    0.000    0.000    0.000    0.000    0.000    0.000 
#
# Total GULP energy -111434.363417 kJ/mol
# GULP energy per Si atom -5571.718171 kJ/mol
# Density = 2.074662 g / cm^3
# Si number density = 20.793952 Si / 1000 Ang^3
#
#
#
# Elastic Constant Matrix: (Units=GPa)
#
#
# Indices 1 2 3 4 5 6 
#
# 1 137.4360 21.1036 102.0476 0.0000 0.0000 0.0000
# 2 21.1036 29.6590 20.3302 0.0000 0.0000 0.0000
# 3 102.0476 20.3302 166.0460 0.0000 0.0000 0.0000
# 4 0.0000 0.0000 0.0000 39.1058 0.0000 0.0000
# 5 0.0000 0.0000 0.0000 0.0000 19.9386 0.0000
# 6 0.0000 0.0000 0.0000 0.0000 0.0000 26.5898
#
#
#
# Elastic Compliance Matrix: (Units=1/GPa)
#
#
# Indices 1 2 3 4 5 6 
#
# 1 0.013890 -0.004401 -0.007998 0.000000 0.000000 0.000000
# 2 -0.004401 0.038200 -0.001972 0.000000 0.000000 0.000000
# 3 -0.007998 -0.001972 0.011179 0.000000 0.000000 0.000000
# 4 0.000000 0.000000 0.000000 0.025572 0.000000 0.000000
# 5 0.000000 0.000000 0.000000 0.000000 0.050154 0.000000
# 6 0.000000 0.000000 0.000000 0.000000 0.000000 0.037608
#
#
# Mechanical properties :
#
#
# Convention : Reuss Voigt Hill
#
# Bulk Modulus (GPa) = 28.96275 68.90044 48.93159
# Shear Modulus (GPa) = 23.05682 29.77080 26.41381
#
# Velocity S-wave (km/s) = 3.33351 3.78789 3.56794
# Velocity P-wave (km/s) = 5.36424 7.23447 6.36839
#
# Compressibility (1/GPa) = 0.03452711
#
# Stress axis : x y z
#
# Youngs Moduli (GPa) = 71.99227 26.17784 89.45252
#
# Poissons Ratio (x) = 0.11522 0.71542
# Poissons Ratio (y) = 0.31687 0.17641
# Poissons Ratio (z) = 0.57578 0.05163
#
# Static dielectric constant tensor:
#      x y z
#    x 1.765170 0.000000 0.000000 
#    y 0.000000 1.799110 0.000000 
#    z 0.000000 0.000000 1.786190 
# 
# From -- ./inp_files/11634.got.cif
#   From: 2010.05.17/outbox.cif.g08.bks.cpg/sg22_6_cif.got.tgz:11634.got - 2010.06.03 23:40:54.
