data_PCOD9326464
_publ_section_title
;
Structure prediction by ZEFSAII (Michael W. Deem and Ramdas Pophale) SiO2 
 PCOD9326464
Probable space group: F 2 2 2
;
_chemical_formula_sum "Si O2"
_cell_formula_units_Z 88
_cell_length_a 23.223823
_cell_length_b 9.649136
_cell_length_c 17.499078
_cell_angle_alpha 90.000000
_cell_angle_beta 90.000000
_cell_angle_gamma 90.000000
_cell_volume 3921.365354
_symmetry_space_group_name_H-M "F 2 2 2"
_symmetry_group_IT_number 22
_symmetry_cell_setting 'orthorhombic'
loop_
_space_group_symop_operation_xyz
x,y,z
-x,-y,z
x,-y,-z
-x,y,-z
x,1/2+y,1/2+z
-x,1/2-y,1/2+z
x,1/2-y,1/2-z
-x,1/2+y,1/2-z
1/2+x,y,1/2+z
1/2-x,-y,1/2+z
1/2+x,-y,1/2-z
1/2-x,y,1/2-z
1/2+x,1/2+y,z
1/2-x,1/2-y,z
1/2+x,1/2-y,-z
1/2-x,1/2+y,-z
loop_
_atom_site_type_symbol
_atom_site_label
_atom_site_fract_x
_atom_site_fract_y
_atom_site_fract_z
Si Si1 0.311155 0.033355 0.215443
Si Si2 0.862040 0.225102 0.342349
Si Si3 0.750000 0.250000 0.619294
Si Si4 0.536941 0.621344 0.076993
Si Si5 0.840191 0.524566 0.384818
Si Si6 0.491479 0.337544 0.672889
O O1 0.250000 0.982941 0.250000
O O2 0.296963 0.174051 0.172394
O O3 0.348851 0.048747 0.292225
O O4 0.331468 0.922461 0.153511
O O5 0.858981 0.250000 0.250000
O O6 0.835552 0.356719 0.385825
O O7 0.928785 0.200965 0.361293
O O8 0.787007 0.379922 0.586327
O O9 0.500000 0.500000 0.120167
O O10 0.601726 0.569172 0.073612
O O11 0.537671 0.768764 0.117605
O O12 0.500000 0.637870 0.000000
O O13 0.500000 0.500000 0.683229
O O14 0.495585 0.250000 0.750000
#
# Coordination Sequence:
#
# PCOD9326464 Si02
#       6
#    16  16   8  16  16  16
#     4   9  18  32  51  89 132 173 207 267 349 406
#     4   9  19  32  51  83 127 169 204 273 332 408
#     4  10  21  32  58 100 134 176 211 284 349 412
#     4  11  24  43  66  93 127 188 232 281 342 411
#     4  10  19  35  56  88 128 165 230 262 332 409
#     4  11  24  38  61  98 128 167 221 282 351 401
#
# _framework density 22.441163
#
# number of rings (size 3 to 8) (size 9 to 14) (size 15 to 20)
#    0.000    2.000    1.818    3.000    7.636    8.727 
#    0.000    0.000    0.000    0.000   18.909    0.000 
#    0.000    0.000    0.000    0.000    0.000    0.000 
#
# Total GULP energy -122622.002778 kJ/mol
# GULP energy per Si atom -5573.727399 kJ/mol
# Density = 2.239009 g / cm^3
# Si number density = 22.441163 Si / 1000 Ang^3
#
#
#
# Elastic Constant Matrix: (Units=GPa)
#
#
# Indices 1 2 3 4 5 6 
#
# 1 74.9277 37.6581 27.0840 0.0000 0.0000 0.0000
# 2 37.6581 190.6766 36.1449 0.0000 0.0000 0.0000
# 3 27.0840 36.1449 44.9563 0.0000 0.0000 0.0000
# 4 0.0000 0.0000 0.0000 9.1172 0.0000 0.0000
# 5 0.0000 0.0000 0.0000 0.0000 12.3049 0.0000
# 6 0.0000 0.0000 0.0000 0.0000 0.0000 24.2858
#
#
#
# Elastic Compliance Matrix: (Units=1/GPa)
#
#
# Indices 1 2 3 4 5 6 
#
# 1 0.017528 -0.001723 -0.009175 0.000000 0.000000 0.000000
# 2 -0.001723 0.006357 -0.004073 0.000000 0.000000 0.000000
# 3 -0.009175 -0.004073 0.031046 0.000000 0.000000 0.000000
# 4 0.000000 0.000000 0.000000 0.109682 0.000000 0.000000
# 5 0.000000 0.000000 0.000000 0.000000 0.081269 0.000000
# 6 0.000000 0.000000 0.000000 0.000000 0.000000 0.041176
#
#
# Mechanical properties :
#
#
# Convention : Reuss Voigt Hill
#
# Bulk Modulus (GPa) = 40.01623 56.92607 48.47115
# Shear Modulus (GPa) = 15.36900 23.11982 19.24441
#
# Velocity S-wave (km/s) = 2.61982 3.21322 2.93157
# Velocity P-wave (km/s) = 5.19823 6.26005 5.75369
#
# Compressibility (1/GPa) = 0.02498986
#
# Stress axis : x y z
#
# Youngs Moduli (GPa) = 57.04999 157.31224 32.21007
#
# Poissons Ratio (x) = 0.27098 0.29553
# Poissons Ratio (y) = 0.09827 0.13119
# Poissons Ratio (z) = 0.52344 0.64075
#
# Static dielectric constant tensor:
#      x y z
#    x 1.858390 0.000000 0.000000 
#    y 0.000000 1.901350 0.000000 
#    z 0.000000 0.000000 1.922090 
# 
# From -- ./inp_files/45222.got.cif
#   From: 2010.05.17/outbox.cif.g08.bks.cpg/sg22_23_cif.got.tgz:45222.got - 2010.06.03 23:40:54.
