data_PCOD9326217
_publ_section_title
;
Structure prediction by ZEFSAII (Michael W. Deem and Ramdas Pophale) SiO2 
 PCOD9326217
Probable space group: F 2 2 2
;
_chemical_formula_sum "Si O2"
_cell_formula_units_Z 108
_cell_length_a 9.676008
_cell_length_b 16.315478
_cell_length_c 30.775607
_cell_angle_alpha 90.000000
_cell_angle_beta 90.000000
_cell_angle_gamma 90.000000
_cell_volume 4858.504935
_symmetry_space_group_name_H-M "F 2 2 2"
_symmetry_group_IT_number 22
_symmetry_cell_setting 'orthorhombic'
loop_
_space_group_symop_operation_xyz
x,y,z
-x,-y,z
x,-y,-z
-x,y,-z
x,1/2+y,1/2+z
-x,1/2-y,1/2+z
x,1/2-y,1/2-z
-x,1/2+y,1/2-z
1/2+x,y,1/2+z
1/2-x,-y,1/2+z
1/2+x,-y,1/2-z
1/2-x,y,1/2-z
1/2+x,1/2+y,z
1/2-x,1/2-y,z
1/2+x,1/2-y,-z
1/2-x,1/2+y,-z
loop_
_atom_site_type_symbol
_atom_site_label
_atom_site_fract_x
_atom_site_fract_y
_atom_site_fract_z
Si Si1 0.788191 0.111940 0.192567
Si Si2 0.750000 0.538387 0.250000
Si Si3 0.492682 0.666646 0.954112
Si Si4 0.288934 0.941658 0.957971
Si Si5 0.250000 0.750000 0.250000
Si Si6 0.391194 0.695840 0.596908
Si Si7 0.358819 0.551443 0.100574
Si Si8 0.469556 0.405790 0.318749
O O1 0.839201 0.190313 0.218873
O O2 0.831001 0.103002 0.143192
O O3 0.622188 0.122716 0.194426
O O4 0.821994 0.026060 0.216597
O O5 0.640139 0.587976 0.279042
O O6 0.357657 0.608109 0.959502
O O7 0.495083 0.732430 0.915922
O O8 0.613765 0.605334 0.942003
O O9 0.500000 0.710342 0.000000
O O10 0.391932 0.870252 0.942499
O O11 0.267509 0.995412 0.914160
O O12 0.314759 0.000000 0.000000
O O13 0.250000 0.750000 0.597624
O O14 0.415091 0.649650 0.641912
O O15 0.500000 0.500000 0.108142
O O16 0.500000 0.500000 0.332429
#
# Coordination Sequence:
#
# PCOD9326217 Si02
#       8
#    16   8  16  16   4  16  16  16
#     4  10  22  40  61  94 126 163 212 275 326 388
#     4   9  20  41  67  88 119 172 208 266 323 394
#     4  10  20  38  59  94 131 165 211 270 323 378
#     4  10  18  36  63  88 120 164 222 268 308 379
#     4  10  24  40  52  82 134 160 206 260 330 394
#     4  10  23  41  58  91 133 169 209 275 329 387
#     4  10  21  36  69  95 119 168 224 266 322 398
#     4  10  21  43  67  91 129 165 220 271 326 399
#
# _framework density 22.229058999999999
#
# number of rings (size 3 to 8) (size 9 to 14) (size 15 to 20)
#    0.000    2.074    1.481    1.778    2.074    2.963 
#    8.000    0.000    0.000    0.000    0.000    0.000 
#    0.000    0.000    0.000    0.000    0.000    0.000 
#
# Total GULP energy -150445.273262 kJ/mol
# GULP energy per Si atom -5572.047158 kJ/mol
# Density = 2.217847 g / cm^3
# Si number density = 22.229059 Si / 1000 Ang^3
#
#
#
# Elastic Constant Matrix: (Units=GPa)
#
#
# Indices 1 2 3 4 5 6 
#
# 1 39.4491 29.0467 26.5318 0.0000 0.0000 0.0000
# 2 29.0467 95.1875 57.5566 0.0000 0.0000 0.0000
# 3 26.5318 57.5566 155.7144 0.0000 0.0000 0.0000
# 4 0.0000 0.0000 0.0000 54.8202 0.0000 0.0000
# 5 0.0000 0.0000 0.0000 0.0000 9.8964 0.0000
# 6 0.0000 0.0000 0.0000 0.0000 0.0000 12.7355
#
#
#
# Elastic Compliance Matrix: (Units=1/GPa)
#
#
# Indices 1 2 3 4 5 6 
#
# 1 0.033422 -0.008700 -0.002479 0.000000 0.000000 0.000000
# 2 -0.008700 0.015794 -0.004356 0.000000 0.000000 0.000000
# 3 -0.002479 -0.004356 0.008454 0.000000 0.000000 0.000000
# 4 0.000000 0.000000 0.000000 0.018241 0.000000 0.000000
# 5 0.000000 0.000000 0.000000 0.000000 0.101046 0.000000
# 6 0.000000 0.000000 0.000000 0.000000 0.000000 0.078521
#
#
# Mechanical properties :
#
#
# Convention : Reuss Voigt Hill
#
# Bulk Modulus (GPa) = 37.59169 57.40235 47.49702
# Shear Modulus (GPa) = 16.92533 27.30483 22.11508
#
# Velocity S-wave (km/s) = 2.76235 3.50857 3.15758
# Velocity P-wave (km/s) = 5.20787 6.50327 5.89128
#
# Compressibility (1/GPa) = 0.02660163
#
# Stress axis : x y z
#
# Youngs Moduli (GPa) = 29.92028 63.31497 118.28214
#
# Poissons Ratio (x) = 0.55083 0.29322
# Poissons Ratio (y) = 0.26030 0.51519
# Poissons Ratio (z) = 0.07417 0.27577
#
# Static dielectric constant tensor:
#      x y z
#    x 1.852270 0.000000 0.000000 
#    y 0.000000 1.859570 0.000000 
#    z 0.000000 0.000000 1.815370 
# 
# From -- ./inp_files/56137.got.cif
#   From: 2010.05.17/outbox.cif.g08.bks.cpg/sg22_29_cif.got.tgz:56137.got - 2010.06.03 23:40:54.
