data_PCOD9326361
_publ_section_title
;
Structure prediction by ZEFSAII (Michael W. Deem and Ramdas Pophale) SiO2 
 PCOD9326361
Probable space group: F 2 2 2
;
_chemical_formula_sum "Si O2"
_cell_formula_units_Z 104
_cell_length_a 23.454043
_cell_length_b 8.159977
_cell_length_c 27.814862
_cell_angle_alpha 90.000000
_cell_angle_beta 90.000000
_cell_angle_gamma 90.000000
_cell_volume 5323.332106
_symmetry_space_group_name_H-M "F 2 2 2"
_symmetry_group_IT_number 22
_symmetry_cell_setting 'orthorhombic'
loop_
_space_group_symop_operation_xyz
x,y,z
-x,-y,z
x,-y,-z
-x,y,-z
x,1/2+y,1/2+z
-x,1/2-y,1/2+z
x,1/2-y,1/2-z
-x,1/2+y,1/2-z
1/2+x,y,1/2+z
1/2-x,-y,1/2+z
1/2+x,-y,1/2-z
1/2-x,y,1/2-z
1/2+x,1/2+y,z
1/2-x,1/2-y,z
1/2+x,1/2-y,-z
1/2-x,1/2+y,-z
loop_
_atom_site_type_symbol
_atom_site_label
_atom_site_fract_x
_atom_site_fract_y
_atom_site_fract_z
Si Si1 0.040092 0.758844 0.191424
Si Si2 0.823031 0.532383 0.383325
Si Si3 0.225254 0.562129 0.052724
Si Si4 0.769514 0.018375 0.301296
Si Si5 0.357356 0.831402 0.131155
Si Si6 0.579121 0.127612 0.672400
Si Si7 0.658437 0.250000 0.750000
O O1 0.046444 0.750000 0.250000
O O2 0.082672 0.647313 0.159179
O O3 0.973264 0.747070 0.177749
O O4 0.056242 0.942546 0.174566
O O5 0.777386 0.548008 0.425995
O O6 0.782053 0.523713 0.336648
O O7 0.851862 0.353449 0.388148
O O8 0.876256 0.650157 0.371539
O O9 0.250000 0.750000 0.052679
O O10 0.170307 0.559574 0.088380
O O11 0.210895 0.500000 0.000000
O O12 0.750000 0.078452 0.250000
O O13 0.810407 0.145076 0.327346
O O14 0.804943 0.856456 0.286917
O O15 0.617271 0.135831 0.719880
#
# Coordination Sequence:
#
# PCOD9326361 Si02
#       7
#    16  16  16  16  16  16   8
#     4  10  19  33  52  71 101 154 193 216 250 303
#     4   9  19  34  51  74 105 137 179 218 266 330
#     4   9  18  37  58  82 112 134 172 227 290 342
#     4  11  20  29  44  68 106 146 172 215 267 312
#     4   9  20  35  51  76 104 141 188 219 253 334
#     4  10  20  32  47  70 105 146 185 220 255 304
#     4  12  21  32  38  70 114 142 173 222 258 308
#
# _framework density 19.536636000000001
#
# number of rings (size 3 to 8) (size 9 to 14) (size 15 to 20)
#    0.000    2.154    2.308    2.538    2.154    0.615 
#    5.538    0.000    0.000    0.000    0.000   19.385 
#    9.231    0.000    0.000    0.000    0.000    0.000 
#
# Total GULP energy -144799.506726 kJ/mol
# GULP energy per Si atom -5569.211797 kJ/mol
# Density = 1.949217 g / cm^3
# Si number density = 19.536636 Si / 1000 Ang^3
#
#
#
# Elastic Constant Matrix: (Units=GPa)
#
#
# Indices 1 2 3 4 5 6 
#
# 1 135.0637 13.5292 52.8601 0.0000 0.0000 0.0000
# 2 13.5292 21.5713 3.9115 0.0000 0.0000 -0.0002
# 3 52.8601 3.9115 115.8180 0.0000 0.0000 0.0000
# 4 0.0000 0.0000 0.0000 18.5462 0.0000 0.0000
# 5 0.0000 0.0000 0.0000 0.0000 15.5607 0.0000
# 6 0.0000 -0.0002 0.0000 0.0000 0.0000 -11.7107
#
#
#
# Elastic Compliance Matrix: (Units=1/GPa)
#
#
# Indices 1 2 3 4 5 6 
#
# 1 0.009569 -0.005242 -0.004190 0.000000 0.000000 0.000000
# 2 -0.005242 0.049515 0.000720 0.000000 0.000000 -0.000001
# 3 -0.004190 0.000720 0.010522 0.000000 0.000000 0.000000
# 4 0.000000 0.000000 0.000000 0.053919 0.000000 0.000000
# 5 0.000000 0.000000 0.000000 0.000000 0.064265 0.000000
# 6 0.000000 -0.000001 0.000000 0.000000 0.000000 -0.085392
#
#
# Mechanical properties :
#
#
# Convention : Reuss Voigt Hill
#
# Bulk Modulus (GPa) = 19.16353 45.89495 32.52924
# Shear Modulus (GPa) = 36.43883 17.95604 27.19743
#
# Velocity S-wave (km/s) = 4.32343 3.03495 3.73517
# Velocity P-wave (km/s) = 5.89517 5.98531 5.94041
#
# Compressibility (1/GPa) = 0.05218245
#
# Stress axis : x y z
#
# Youngs Moduli (GPa) = 104.50490 20.19594 95.03536
#
# Poissons Ratio (x) = 0.10586 0.39823
# Poissons Ratio (y) = 0.54778 -0.06843
# Poissons Ratio (z) = 0.43791 -0.01454
#
# Static dielectric constant tensor:
#      x y z
#    x 1.751890 0.000000 0.000000 
#    y 0.000000 1.811780 0.000000 
#    z 0.000000 0.000000 1.671270 
# 
# From -- ./inp_files/50460.got.cif
#   From: 2010.05.17/outbox.cif.g08.bks.cpg/sg22_26_cif.got.tgz:50460.got - 2010.06.03 23:40:54.
