data_PCOD9326149
_publ_section_title
;
Structure prediction by ZEFSAII (Michael W. Deem and Ramdas Pophale) SiO2 
 PCOD9326149
Probable space group: F 2 2 2
;
_chemical_formula_sum "Si O2"
_cell_formula_units_Z 112
_cell_length_a 26.018074
_cell_length_b 20.694494
_cell_length_c 10.698496
_cell_angle_alpha 90.000000
_cell_angle_beta 90.000000
_cell_angle_gamma 90.000000
_cell_volume 5760.400576
_symmetry_space_group_name_H-M "F 2 2 2"
_symmetry_group_IT_number 22
_symmetry_cell_setting 'orthorhombic'
loop_
_space_group_symop_operation_xyz
x,y,z
-x,-y,z
x,-y,-z
-x,y,-z
x,1/2+y,1/2+z
-x,1/2-y,1/2+z
x,1/2-y,1/2-z
-x,1/2+y,1/2-z
1/2+x,y,1/2+z
1/2-x,-y,1/2+z
1/2+x,-y,1/2-z
1/2-x,y,1/2-z
1/2+x,1/2+y,z
1/2-x,1/2-y,z
1/2+x,1/2-y,-z
1/2-x,1/2+y,-z
loop_
_atom_site_type_symbol
_atom_site_label
_atom_site_fract_x
_atom_site_fract_y
_atom_site_fract_z
Si Si1 0.542233 0.942898 0.280001
Si Si2 0.769674 0.067018 0.370187
Si Si3 0.882240 0.045549 0.277020
Si Si4 0.115294 0.103231 0.007916
Si Si5 0.038443 0.650342 0.168007
Si Si6 0.052755 0.284462 0.563962
Si Si7 0.726543 0.076675 0.620411
O O1 0.566335 0.922353 0.413117
O O2 0.515368 0.886700 0.197443
O O3 0.500000 0.000000 0.297118
O O4 0.590823 0.976388 0.214370
O O5 0.750000 0.106128 0.250000
O O6 0.827553 0.047649 0.342138
O O7 0.759952 0.099638 0.502049
O O8 0.735553 0.001155 0.372951
O O9 0.919737 0.094980 0.346454
O O10 0.880477 0.068858 0.129432
O O11 0.167558 0.090808 0.084912
O O12 0.102026 0.179391 0.993000
O O13 0.049848 0.686305 0.298039
O O14 0.048592 0.707009 0.068785
O O15 0.000000 0.306347 0.500000
O O16 0.750000 0.102028 0.750000
#
# Coordination Sequence:
#
# PCOD9326149 Si02
#       7
#    16  16  16  16  16  16  16
#     4  10  19  30  52  91 130 151 189 256 326 376
#     4  10  18  34  52  81 122 167 198 243 313 389
#     4  10  20  32  57  86 124 161 197 251 320 388
#     4  11  20  32  56  89 119 162 205 254 313 379
#     4   9  20  35  53  85 117 153 203 253 301 371
#     4  10  19  36  57  79 112 158 210 251 296 356
#     4  10  21  33  53  84 122 158 200 252 311 383
#
# _framework density 19.443093000000001
#
# number of rings (size 3 to 8) (size 9 to 14) (size 15 to 20)
#    0.000    2.000    2.857    2.143    2.000    2.857 
#    0.000    4.286    0.000    3.857    0.000    1.000 
#    0.000    0.000    0.000    0.000    0.000    0.000 
#
# Total GULP energy -155900.824747 kJ/mol
# GULP energy per Si atom -5567.886598 kJ/mol
# Density = 1.939884 g / cm^3
# Si number density = 19.443093 Si / 1000 Ang^3
#
#
#
# Elastic Constant Matrix: (Units=GPa)
#
#
# Indices 1 2 3 4 5 6 
#
# 1 144.3722 46.6755 45.6156 0.0000 0.0000 0.0000
# 2 46.6755 89.4962 23.4985 0.0000 0.0000 0.0000
# 3 45.6156 23.4985 79.2819 0.0000 0.0000 0.0000
# 4 0.0000 0.0000 0.0000 11.4012 0.0000 0.0000
# 5 0.0000 0.0000 0.0000 0.0000 28.1783 0.0000
# 6 0.0000 0.0000 0.0000 0.0000 0.0000 17.6094
#
#
#
# Elastic Compliance Matrix: (Units=1/GPa)
#
#
# Indices 1 2 3 4 5 6 
#
# 1 0.009541 -0.003833 -0.004354 0.000000 0.000000 0.000000
# 2 -0.003833 0.013656 -0.001842 0.000000 0.000000 0.000000
# 3 -0.004354 -0.001842 0.015664 0.000000 0.000000 0.000000
# 4 0.000000 0.000000 0.000000 0.087710 0.000000 0.000000
# 5 0.000000 0.000000 0.000000 0.000000 0.035488 0.000000
# 6 0.000000 0.000000 0.000000 0.000000 0.000000 0.056788
#
#
# Mechanical properties :
#
#
# Convention : Reuss Voigt Hill
#
# Bulk Modulus (GPa) = 53.18005 60.52551 56.85278
# Shear Modulus (GPa) = 20.39365 24.59514 22.49439
#
# Velocity S-wave (km/s) = 3.24217 3.56052 3.40506
# Velocity P-wave (km/s) = 6.43635 6.93543 6.69054
#
# Compressibility (1/GPa) = 0.01880404
#
# Stress axis : x y z
#
# Youngs Moduli (GPa) = 104.80725 73.22545 63.84007
#
# Poissons Ratio (x) = 0.28068 0.27793
# Poissons Ratio (y) = 0.40173 0.11761
# Poissons Ratio (z) = 0.45629 0.13490
#
# Static dielectric constant tensor:
#      x y z
#    x 1.684810 0.000000 0.000000 
#    y 0.000000 1.711760 0.000000 
#    z 0.000000 0.000000 1.759310 
# 
# From -- ./inp_files/23968.got.cif
#   From: 2010.05.17/outbox.cif.g08.bks.cpg/sg22_12_cif.got.tgz:23968.got - 2010.06.03 23:40:54.
