data_PCOD9326124
_publ_section_title
;
Structure prediction by ZEFSAII (Michael W. Deem and Ramdas Pophale) SiO2 
 PCOD9326124
Probable space group: F 2 2 2
;
_chemical_formula_sum "Si O2"
_cell_formula_units_Z 96
_cell_length_a 28.790177
_cell_length_b 10.665370
_cell_length_c 14.800824
_cell_angle_alpha 90.000000
_cell_angle_beta 90.000000
_cell_angle_gamma 90.000000
_cell_volume 4544.709789
_symmetry_space_group_name_H-M "F 2 2 2"
_symmetry_group_IT_number 22
_symmetry_cell_setting 'orthorhombic'
loop_
_space_group_symop_operation_xyz
x,y,z
-x,-y,z
x,-y,-z
-x,y,-z
x,1/2+y,1/2+z
-x,1/2-y,1/2+z
x,1/2-y,1/2-z
-x,1/2+y,1/2-z
1/2+x,y,1/2+z
1/2-x,-y,1/2+z
1/2+x,-y,1/2-z
1/2-x,y,1/2-z
1/2+x,1/2+y,z
1/2-x,1/2-y,z
1/2+x,1/2-y,-z
1/2-x,1/2+y,-z
loop_
_atom_site_type_symbol
_atom_site_label
_atom_site_fract_x
_atom_site_fract_y
_atom_site_fract_z
Si Si1 0.143950 0.005012 0.892274
Si Si2 0.997846 0.645174 0.110118
Si Si3 0.602912 0.741450 0.389750
Si Si4 0.746219 0.106518 0.357309
Si Si5 0.597138 0.242991 0.111064
Si Si6 0.345031 0.995284 0.105411
O O1 0.197911 0.038304 0.878050
O O2 0.115430 0.123731 0.856324
O O3 0.124580 0.872585 0.858202
O O4 0.137184 0.000000 0.000000
O O5 0.949964 0.711156 0.137685
O O6 0.000000 0.500000 0.139633
O O7 0.044455 0.716074 0.137816
O O8 0.000000 0.642772 0.000000
O O9 0.601116 0.744752 0.500578
O O10 0.635138 0.625787 0.358992
O O11 0.750000 0.116828 0.250000
O O12 0.750000 0.250000 0.394903
O O13 0.790331 0.025857 0.387684
O O14 0.629587 0.128297 0.142750
O O15 0.357704 0.000000 0.000000
#
# Coordination Sequence:
#
# PCOD9326124 Si02
#       6
#    16  16  16  16  16  16
#     4  10  20  35  51  78 111 138 175 221 267 314
#     4   9  14  24  44  75 110 140 172 210 254 309
#     4   9  18  28  48  78 107 139 170 212 265 307
#     4  11  23  38  56  77 101 139 185 223 266 320
#     4   9  16  28  49  74 109 141 170 213 258 312
#     4  10  18  33  54  78 104 137 176 215 262 312
#
# _framework density 21.123462
#
# number of rings (size 3 to 8) (size 9 to 14) (size 15 to 20)
#    0.000    2.333    3.333    0.500    0.000    1.333 
#    0.000    5.000    0.000    0.000    0.000    7.000 
#    0.000    0.000    0.000    0.000    0.000    0.000 
#
# Total GULP energy -133995.654856 kJ/mol
# GULP energy per Si atom -5583.152286 kJ/mol
# Density = 2.107538 g / cm^3
# Si number density = 21.123462 Si / 1000 Ang^3
#
#
#
# Elastic Constant Matrix: (Units=GPa)
#
#
# Indices 1 2 3 4 5 6 
#
# 1 211.5431 149.4867 -14.1177 0.0000 0.0000 0.0000
# 2 149.4867 238.2297 11.7715 0.0000 0.0000 0.0000
# 3 -14.1177 11.7715 49.8632 0.0000 0.0000 0.0000
# 4 0.0000 0.0000 0.0000 -11.5977 0.0000 0.0000
# 5 0.0000 0.0000 0.0000 0.0000 -44.0899 0.0000
# 6 0.0000 0.0000 0.0000 0.0000 0.0000 3.3501
#
#
#
# Elastic Compliance Matrix: (Units=1/GPa)
#
#
# Indices 1 2 3 4 5 6 
#
# 1 0.009229 -0.005990 0.004027 0.000000 0.000000 0.000000
# 2 -0.005990 0.008135 -0.003616 0.000000 0.000000 0.000000
# 3 0.004027 -0.003616 0.022049 0.000000 0.000000 0.000000
# 4 0.000000 0.000000 0.000000 -0.086224 0.000000 0.000000
# 5 0.000000 0.000000 0.000000 0.000000 -0.022681 0.000000
# 6 0.000000 0.000000 0.000000 0.000000 0.000000 0.298501
#
#
# Mechanical properties :
#
#
# Convention : Reuss Voigt Hill
#
# Bulk Modulus (GPa) = 35.39347 88.21299 61.80323
# Shear Modulus (GPa) = 20.03329 13.03220 16.53274
#
# Velocity S-wave (km/s) = 3.08294 2.48655 2.80066
# Velocity P-wave (km/s) = 5.42813 7.07780 6.30713
#
# Compressibility (1/GPa) = 0.02825380
#
# Stress axis : x y z
#
# Youngs Moduli (GPa) = 108.35827 122.92720 45.35399
#
# Poissons Ratio (x) = 0.73632 -0.18264
# Poissons Ratio (y) = 0.64905 0.16402
# Poissons Ratio (z) = -0.43636 0.44455
#
# Static dielectric constant tensor:
#      x y z
#    x 1.733740 0.000000 0.000000 
#    y 0.000000 1.763730 0.000000 
#    z 0.000000 0.000000 1.799480 
# 
# From -- ./inp_files/12860.got.cif
#   From: 2010.05.17/outbox.cif.g08.bks.cpg/sg22_7_cif.got.tgz:12860.got - 2010.06.03 23:40:54.
