data_PCOD9326546
_publ_section_title
;
Structure prediction by ZEFSAII (Michael W. Deem and Ramdas Pophale) SiO2 
 PCOD9326546
Probable space group: F 2 2 2
;
_chemical_formula_sum "Si O2"
_cell_formula_units_Z 104
_cell_length_a 20.569610
_cell_length_b 8.586866
_cell_length_c 29.365177
_cell_angle_alpha 90.000000
_cell_angle_beta 90.000000
_cell_angle_gamma 90.000000
_cell_volume 5186.726718
_symmetry_space_group_name_H-M "F 2 2 2"
_symmetry_group_IT_number 22
_symmetry_cell_setting 'orthorhombic'
loop_
_space_group_symop_operation_xyz
x,y,z
-x,-y,z
x,-y,-z
-x,y,-z
x,1/2+y,1/2+z
-x,1/2-y,1/2+z
x,1/2-y,1/2-z
-x,1/2+y,1/2-z
1/2+x,y,1/2+z
1/2-x,-y,1/2+z
1/2+x,-y,1/2-z
1/2-x,y,1/2-z
1/2+x,1/2+y,z
1/2-x,1/2-y,z
1/2+x,1/2-y,-z
1/2-x,1/2+y,-z
loop_
_atom_site_type_symbol
_atom_site_label
_atom_site_fract_x
_atom_site_fract_y
_atom_site_fract_z
Si Si1 0.744524 0.567249 0.635455
Si Si2 0.329980 0.362113 0.293959
Si Si3 0.308125 0.374824 0.539681
Si Si4 0.072308 0.431399 0.740161
Si Si5 0.000000 0.500000 0.395738
Si Si6 0.126218 0.572863 0.651350
Si Si7 0.065894 0.333410 0.524535
O O1 0.750000 0.750000 0.646644
O O2 0.722765 0.470536 0.680437
O O3 0.697619 0.554810 0.591152
O O4 0.816044 0.502763 0.622118
O O5 0.315467 0.250000 0.250000
O O6 0.388722 0.472867 0.278387
O O7 0.350879 0.239479 0.331807
O O8 0.298226 0.500000 0.500000
O O9 0.250000 0.250000 0.538180
O O10 0.375092 0.284672 0.528760
O O11 0.068343 0.250000 0.750000
O O12 0.113798 0.461249 0.694592
O O13 0.000000 0.500000 0.734978
O O14 0.055099 0.409499 0.369130
O O15 0.041146 0.618153 0.426001
O O16 0.082983 0.500000 0.500000
O O17 0.000000 0.273447 0.500000
#
# Coordination Sequence:
#
# PCOD9326546 Si02
#       7
#    16  16  16  16   8  16  16
#     4  11  24  42  63  96 132 170 224 280 336 399
#     4  10  24  43  62  93 125 171 222 272 328 393
#     4  11  24  42  67  97 131 171 218 276 340 396
#     4  11  22  39  62  90 127 169 216 266 326 389
#     4  10  19  36  64  90 124 166 210 262 329 384
#     4  11  22  38  63  89 126 168 216 267 327 393
#     4   9  21  41  65  92 127 168 216 262 329 405
#
# _framework density 20.051183000000002
#
# number of rings (size 3 to 8) (size 9 to 14) (size 15 to 20)
#    0.000    1.692    0.769    5.077    0.000    9.538 
#    0.000    3.846    0.000    0.000    0.000    0.000 
#    0.000    0.000    0.000    0.000    0.000    0.000 
#
# Total GULP energy -145059.890673 kJ/mol
# GULP energy per Si atom -5579.226564 kJ/mol
# Density = 2.000555 g / cm^3
# Si number density = 20.051183 Si / 1000 Ang^3
#
#
#
# Elastic Constant Matrix: (Units=GPa)
#
#
# Indices 1 2 3 4 5 6 
#
# 1 112.5122 39.7894 27.2704 0.0000 0.0000 -0.0001
# 2 39.7894 115.8476 43.2224 0.0000 0.0000 -0.0001
# 3 27.2704 43.2224 67.3227 0.0000 0.0000 0.0000
# 4 0.0000 0.0000 0.0000 5.1344 -0.0001 0.0000
# 5 0.0000 0.0000 0.0000 -0.0001 8.6625 0.0000
# 6 -0.0001 -0.0001 0.0000 0.0000 0.0000 39.4946
#
#
#
# Elastic Compliance Matrix: (Units=1/GPa)
#
#
# Indices 1 2 3 4 5 6 
#
# 1 0.010435 -0.002639 -0.002533 0.000000 0.000000 0.000000
# 2 -0.002639 0.012018 -0.006647 0.000000 0.000000 0.000000
# 3 -0.002533 -0.006647 0.020147 0.000000 0.000000 0.000000
# 4 0.000000 0.000000 0.000000 0.194765 0.000001 0.000000
# 5 0.000000 0.000000 0.000000 0.000001 0.115441 0.000000
# 6 0.000000 0.000000 0.000000 0.000000 0.000000 0.025320
#
#
# Mechanical properties :
#
#
# Convention : Reuss Voigt Hill
#
# Bulk Modulus (GPa) = 52.73353 57.36078 55.04715
# Shear Modulus (GPa) = 12.25234 23.01832 17.63533
#
# Velocity S-wave (km/s) = 2.47463 3.39186 2.96888
# Velocity P-wave (km/s) = 5.87551 6.63392 6.26620
#
# Compressibility (1/GPa) = 0.01896327
#
# Stress axis : x y z
#
# Youngs Moduli (GPa) = 95.83052 83.20525 49.63469
#
# Poissons Ratio (x) = 0.21959 0.12570
# Poissons Ratio (y) = 0.25291 0.32992
# Poissons Ratio (z) = 0.24269 0.55307
#
# Static dielectric constant tensor:
#      x y z
#    x 2.159050 0.000000 0.000000 
#    y 0.000000 1.684590 0.000000 
#    z 0.000000 0.000000 1.776220 
# 
# From -- ./inp_files/53908.got.cif
#   From: 2010.05.17/outbox.cif.g08.bks.cpg/sg22_27_cif.got.tgz:53908.got - 2010.06.03 23:40:54.
