data_PCOD9326594
_publ_section_title
;
Structure prediction by ZEFSAII (Michael W. Deem and Ramdas Pophale) SiO2 
 PCOD9326594
Probable space group: F 2 2 2
;
_chemical_formula_sum "Si O2"
_cell_formula_units_Z 52
_cell_length_a 20.253198
_cell_length_b 7.173494
_cell_length_c 14.513844
_cell_angle_alpha 90.000000
_cell_angle_beta 90.000000
_cell_angle_gamma 90.000000
_cell_volume 2108.661160
_symmetry_space_group_name_H-M "F 2 2 2"
_symmetry_group_IT_number 22
_symmetry_cell_setting 'orthorhombic'
loop_
_space_group_symop_operation_xyz
x,y,z
-x,-y,z
x,-y,-z
-x,y,-z
x,1/2+y,1/2+z
-x,1/2-y,1/2+z
x,1/2-y,1/2-z
-x,1/2+y,1/2-z
1/2+x,y,1/2+z
1/2-x,-y,1/2+z
1/2+x,-y,1/2-z
1/2-x,y,1/2-z
1/2+x,1/2+y,z
1/2-x,1/2-y,z
1/2+x,1/2-y,-z
1/2-x,1/2+y,-z
loop_
_atom_site_type_symbol
_atom_site_label
_atom_site_fract_x
_atom_site_fract_y
_atom_site_fract_z
Si Si1 0.811122 0.484692 0.612110
Si Si2 0.837091 0.943157 0.392532
Si Si3 0.571694 0.753046 0.652873
Si Si4 0.500000 0.000000 0.500000
O O1 0.812717 0.500000 0.500000
O O2 0.837140 0.275690 0.627554
O O3 0.735270 0.506220 0.642314
O O4 0.859600 0.630514 0.658650
O O5 0.833918 0.000000 0.500000
O O6 0.903393 0.043813 0.362046
O O7 0.534618 0.750000 0.750000
O O8 0.537543 0.858617 0.568634
#
# Coordination Sequence:
#
# PCOD9326594 Si02
#       4
#    16  16  16   4
#     4  10  19  38  69 109 153 182 236 302 371 449
#     4  10  19  37  72 109 145 196 227 297 387 435
#     4  12  26  48  73 102 141 200 250 307 374 430
#     4  12  28  60  70 102 162 188 260 336 336 442
#
# _framework density 24.660195999999999
#
# number of rings (size 3 to 8) (size 9 to 14) (size 15 to 20)
#    0.000    1.231    4.615    0.923    0.000    3.692 
#   11.077    4.615    0.000    0.000    0.000    0.000 
#    0.000    0.000    0.000    0.000    0.000    0.000 
#
# Total GULP energy -72694.696616 kJ/mol
# GULP energy per Si atom -5591.899740 kJ/mol
# Density = 2.460407 g / cm^3
# Si number density = 24.660196 Si / 1000 Ang^3
#
#
#
# Elastic Constant Matrix: (Units=GPa)
#
#
# Indices 1 2 3 4 5 6 
#
# 1 51.2538 38.4055 36.9857 0.0000 0.0000 0.0000
# 2 38.4055 108.1880 14.5404 0.0000 0.0000 0.0000
# 3 36.9857 14.5404 134.0374 0.0000 0.0000 0.0000
# 4 0.0000 0.0000 0.0000 14.5986 0.0000 0.0000
# 5 0.0000 0.0000 0.0000 0.0000 -2.1505 0.0000
# 6 0.0000 0.0000 0.0000 0.0000 0.0000 25.5969
#
#
#
# Elastic Compliance Matrix: (Units=1/GPa)
#
#
# Indices 1 2 3 4 5 6 
#
# 1 0.033386 -0.010771 -0.008044 0.000000 0.000000 0.000000
# 2 -0.010771 0.012855 0.001578 0.000000 0.000000 0.000000
# 3 -0.008044 0.001578 0.009509 0.000000 0.000000 0.000000
# 4 0.000000 0.000000 0.000000 0.068500 0.000000 0.000000
# 5 0.000000 0.000000 0.000000 0.000000 -0.465008 0.000000
# 6 0.000000 0.000000 0.000000 0.000000 0.000000 0.039067
#
#
# Mechanical properties :
#
#
# Convention : Reuss Voigt Hill
#
# Bulk Modulus (GPa) = 47.00217 52.59362 49.79790
# Shear Modulus (GPa) = -19.22153 21.17883 0.97865
#
# Velocity S-wave (km/s) = -2.79490 2.93375 0.63065
# Velocity P-wave (km/s) = 2.94720 5.73145 4.55717
#
# Compressibility (1/GPa) = 0.02127561
#
# Stress axis : x y z
#
# Youngs Moduli (GPa) = 29.95261 77.79324 105.16236
#
# Poissons Ratio (x) = 0.83788 0.84593
# Poissons Ratio (y) = 0.32261 -0.16590
# Poissons Ratio (z) = 0.24094 -0.12272
#
# Static dielectric constant tensor:
#      x y z
#    x 1.949370 0.000000 0.000000 
#    y 0.000000 1.929660 0.000000 
#    z 0.000000 0.000000 2.043160 
# 
# From -- ./inp_files/9466.got.cif
#   From: 2010.05.17/outbox.cif.g08.bks.cpg/sg22_5_cif.got.tgz:9466.got - 2010.06.03 23:40:54.
