data_PCOD9326906
_publ_section_title
;
Structure prediction by ZEFSAII (Michael W. Deem and Ramdas Pophale) SiO2 
 PCOD9326906
Probable space group: F 2 2 2
;
_chemical_formula_sum "Si O2"
_cell_formula_units_Z 52
_cell_length_a 26.801366
_cell_length_b 4.892366
_cell_length_c 18.466059
_cell_angle_alpha 90.000000
_cell_angle_beta 90.000000
_cell_angle_gamma 90.000000
_cell_volume 2421.308283
_symmetry_space_group_name_H-M "F 2 2 2"
_symmetry_group_IT_number 22
_symmetry_cell_setting 'orthorhombic'
loop_
_space_group_symop_operation_xyz
x,y,z
-x,-y,z
x,-y,-z
-x,y,-z
x,1/2+y,1/2+z
-x,1/2-y,1/2+z
x,1/2-y,1/2-z
-x,1/2+y,1/2-z
1/2+x,y,1/2+z
1/2-x,-y,1/2+z
1/2+x,-y,1/2-z
1/2-x,y,1/2-z
1/2+x,1/2+y,z
1/2-x,1/2-y,z
1/2+x,1/2-y,-z
1/2-x,1/2+y,-z
loop_
_atom_site_type_symbol
_atom_site_label
_atom_site_fract_x
_atom_site_fract_y
_atom_site_fract_z
Si Si1 0.826718 0.431861 0.643556
Si Si2 0.391578 0.595919 0.328045
Si Si3 0.000000 0.500000 0.195720
Si Si4 0.278193 0.500000 0.000000
Si Si5 0.250000 0.250000 0.750000
O O1 0.858757 0.177638 0.673053
O O2 0.863540 0.681872 0.624397
O O3 0.804676 0.348369 0.566441
O O4 0.785540 0.557450 0.699449
O O5 0.392996 0.750000 0.250000
O O6 0.448949 0.542654 0.347529
O O7 0.989997 0.750000 0.250000
O O8 0.250000 0.250000 0.961970
#
# Coordination Sequence:
#
# PCOD9326906 Si02
#       5
#    16  16   8   8   4
#     4  12  26  41  66  94 138 170 225 274 336 392
#     4  11  23  40  65  99 130 169 217 280 335 396
#     4  10  20  36  62  95 134 165 208 278 348 396
#     4  12  26  46  64  91 132 189 224 270 328 404
#     4  12  28  42  66 100 126 170 218 284 318 382
#
# _framework density 21.475992999999999
#
# number of rings (size 3 to 8) (size 9 to 14) (size 15 to 20)
#    0.000    0.615    3.077    6.462    0.000    1.231 
#    0.000    0.000    0.000    5.538    0.000    0.000 
#    0.000    0.000    0.000    0.000    0.000    0.000 
#
# Total GULP energy -72599.510076 kJ/mol
# GULP energy per Si atom -5584.577698 kJ/mol
# Density = 2.142711 g / cm^3
# Si number density = 21.475993 Si / 1000 Ang^3
#
#
#
# Elastic Constant Matrix: (Units=GPa)
#
#
# Indices 1 2 3 4 5 6 
#
# 1 153.4669 56.3615 30.8165 -0.0001 0.0002 -0.0001
# 2 56.3615 148.1145 8.9133 -0.0003 0.0001 0.0000
# 3 30.8165 8.9133 63.8647 -0.0001 0.0000 -0.0001
# 4 -0.0001 -0.0003 -0.0001 27.7379 -0.0001 0.0000
# 5 0.0002 0.0001 0.0000 -0.0001 12.1886 0.0000
# 6 -0.0001 0.0000 -0.0001 0.0000 0.0000 34.5953
#
#
#
# Elastic Compliance Matrix: (Units=1/GPa)
#
#
# Indices 1 2 3 4 5 6 
#
# 1 0.008323 -0.002950 -0.003605 0.000000 0.000000 0.000000
# 2 -0.002950 0.007855 0.000327 0.000000 0.000000 0.000000
# 3 -0.003605 0.000327 0.017352 0.000000 0.000000 0.000000
# 4 0.000000 0.000000 0.000000 0.036052 0.000000 0.000000
# 5 0.000000 0.000000 0.000000 0.000000 0.082044 0.000000
# 6 0.000000 0.000000 0.000000 0.000000 0.000000 0.028906
#
#
# Mechanical properties :
#
#
# Convention : Reuss Voigt Hill
#
# Bulk Modulus (GPa) = 47.45025 61.95874 54.70449
# Shear Modulus (GPa) = 24.99868 32.86135 28.93001
#
# Velocity S-wave (km/s) = 3.41549 3.91595 3.67425
# Velocity P-wave (km/s) = 6.13976 7.02560 6.59756
#
# Compressibility (1/GPa) = 0.02107471
#
# Stress axis : x y z
#
# Youngs Moduli (GPa) = 120.14335 127.31527 57.63126
#
# Poissons Ratio (x) = 0.37563 0.20773
# Poissons Ratio (y) = 0.35447 -0.01887
# Poissons Ratio (z) = 0.43306 -0.04169
#
# Static dielectric constant tensor:
#      x y z
#    x 1.855280 0.000000 0.000000 
#    y 0.000000 1.795130 0.000000 
#    z 0.000000 0.000000 1.751740 
# 
# From -- ./inp_files/40144.got.cif
#   From: 2010.05.17/outbox.cif.g08.bks.cpg/sg22_21_cif.got.tgz:40144.got - 2010.06.03 23:40:54.
