data_PCOD9326802
_publ_section_title
;
Structure prediction by ZEFSAII (Michael W. Deem and Ramdas Pophale) SiO2 
 PCOD9326802
Probable space group: F 2 2 2
;
_chemical_formula_sum "Si O2"
_cell_formula_units_Z 80
_cell_length_a 10.075706
_cell_length_b 30.554644
_cell_length_c 14.983910
_cell_angle_alpha 90.000000
_cell_angle_beta 90.000000
_cell_angle_gamma 90.000000
_cell_volume 4612.940687
_symmetry_space_group_name_H-M "F 2 2 2"
_symmetry_group_IT_number 22
_symmetry_cell_setting 'orthorhombic'
loop_
_space_group_symop_operation_xyz
x,y,z
-x,-y,z
x,-y,-z
-x,y,-z
x,1/2+y,1/2+z
-x,1/2-y,1/2+z
x,1/2-y,1/2-z
-x,1/2+y,1/2-z
1/2+x,y,1/2+z
1/2-x,-y,1/2+z
1/2+x,-y,1/2-z
1/2-x,y,1/2-z
1/2+x,1/2+y,z
1/2-x,1/2-y,z
1/2+x,1/2-y,-z
1/2-x,1/2+y,-z
loop_
_atom_site_type_symbol
_atom_site_label
_atom_site_fract_x
_atom_site_fract_y
_atom_site_fract_z
Si Si1 0.500000 0.288461 0.500000
Si Si2 0.750000 0.750000 0.402876
Si Si3 0.147486 0.010824 0.820294
Si Si4 0.775317 0.500000 0.000000
Si Si5 0.503170 0.640132 0.652656
Si Si6 0.250000 0.597874 0.250000
Si Si7 0.750000 0.821753 0.250000
Si Si8 0.500000 0.429336 0.500000
O O1 0.375046 0.260825 0.465440
O O2 0.468639 0.319472 0.585248
O O3 0.720576 0.790428 0.335416
O O4 0.250000 0.991037 0.750000
O O5 0.182945 0.992199 0.915832
O O6 0.177324 0.062971 0.816048
O O7 0.000000 0.000000 0.792400
O O8 0.874226 0.540064 0.980216
O O9 0.636057 0.626326 0.704362
O O10 0.380148 0.651453 0.718027
O O11 0.469056 0.600362 0.585654
#
# Coordination Sequence:
#
# PCOD9326802 Si02
#       8
#     8   8  16   8  16   8   8   8
#     4   9  20  35  62  83 120 148 188 223 278 351
#     4   9  18  38  58  91 112 148 188 221 274 344
#     4  10  23  38  56  82 108 148 200 256 294 349
#     4  11  21  36  60  78 110 154 198 254 286 346
#     4  10  20  37  55  85 114 152 184 237 292 345
#     4  10  22  36  53  81 113 142 192 243 286 356
#     4   9  20  36  61  82 117 148 184 229 282 351
#     4  10  20  35  56  80 108 150 198 232 300 339
#
# _framework density 17.342516
#
# number of rings (size 3 to 8) (size 9 to 14) (size 15 to 20)
#    0.600    1.600    2.000    0.300    5.600    3.200 
#    0.000    0.000    0.000    0.000    0.000    0.000 
#    0.000    0.000    0.000    0.000    0.000    0.000 
#
# Total GULP energy -111406.770115 kJ/mol
# GULP energy per Si atom -5570.338506 kJ/mol
# Density = 1.730304 g / cm^3
# Si number density = 17.342516 Si / 1000 Ang^3
#
#
#
# Elastic Constant Matrix: (Units=GPa)
#
#
# Indices 1 2 3 4 5 6 
#
# 1 151.7826 54.5051 64.2925 0.0000 0.0000 0.0000
# 2 54.5051 66.9604 23.1885 0.0000 0.0000 0.0000
# 3 64.2925 23.1885 93.1916 0.0000 0.0000 0.0000
# 4 0.0000 0.0000 0.0000 10.6165 0.0000 0.0000
# 5 0.0000 0.0000 0.0000 0.0000 43.2490 0.0000
# 6 0.0000 0.0000 0.0000 0.0000 0.0000 26.4988
#
#
#
# Elastic Compliance Matrix: (Units=1/GPa)
#
#
# Indices 1 2 3 4 5 6 
#
# 1 0.012020 -0.007564 -0.006410 0.000000 0.000000 0.000000
# 2 -0.007564 0.021103 -0.000032 0.000000 0.000000 0.000000
# 3 -0.006410 -0.000032 0.015161 0.000000 0.000000 0.000000
# 4 0.000000 0.000000 0.000000 0.094193 0.000000 0.000000
# 5 0.000000 0.000000 0.000000 0.000000 0.023122 0.000000
# 6 0.000000 0.000000 0.000000 0.000000 0.000000 0.037738
#
#
# Mechanical properties :
#
#
# Convention : Reuss Voigt Hill
#
# Bulk Modulus (GPa) = 49.33441 66.21187 57.77314
# Shear Modulus (GPa) = 20.99899 27.40276 24.20088
#
# Velocity S-wave (km/s) = 3.48349 3.97935 3.73965
# Velocity P-wave (km/s) = 6.68494 7.70555 7.21332
#
# Compressibility (1/GPa) = 0.02026983
#
# Stress axis : x y z
#
# Youngs Moduli (GPa) = 83.19452 47.38741 65.95818
#
# Poissons Ratio (x) = 0.35845 0.42282
# Poissons Ratio (y) = 0.62931 0.00213
# Poissons Ratio (z) = 0.53331 0.00153
#
# Static dielectric constant tensor:
#      x y z
#    x 1.556650 0.000000 0.000000 
#    y 0.000000 1.612450 0.000000 
#    z 0.000000 0.000000 1.588500 
# 
# From -- ./inp_files/35241.got.cif
#   From: 2010.05.17/outbox.cif.g08.bks.cpg/sg22_18_cif.got.tgz:35241.got - 2010.06.03 23:40:54.
