data_PCOD9326869
_publ_section_title
;
Structure prediction by ZEFSAII (Michael W. Deem and Ramdas Pophale) SiO2 
 PCOD9326869
Probable space group: F 2 2 2
;
_chemical_formula_sum "Si O2"
_cell_formula_units_Z 88
_cell_length_a 26.154724
_cell_length_b 5.117665
_cell_length_c 30.079631
_cell_angle_alpha 90.000000
_cell_angle_beta 90.000000
_cell_angle_gamma 90.000000
_cell_volume 4026.192166
_symmetry_space_group_name_H-M "F 2 2 2"
_symmetry_group_IT_number 22
_symmetry_cell_setting 'orthorhombic'
loop_
_space_group_symop_operation_xyz
x,y,z
-x,-y,z
x,-y,-z
-x,y,-z
x,1/2+y,1/2+z
-x,1/2-y,1/2+z
x,1/2-y,1/2-z
-x,1/2+y,1/2-z
1/2+x,y,1/2+z
1/2-x,-y,1/2+z
1/2+x,-y,1/2-z
1/2-x,y,1/2-z
1/2+x,1/2+y,z
1/2-x,1/2-y,z
1/2+x,1/2-y,-z
1/2-x,1/2+y,-z
loop_
_atom_site_type_symbol
_atom_site_label
_atom_site_fract_x
_atom_site_fract_y
_atom_site_fract_z
Si Si1 0.944335 0.750000 0.250000
Si Si2 0.784188 0.500970 0.587898
Si Si3 0.869639 0.755439 0.847069
Si Si4 0.500000 0.000000 0.077477
Si Si5 0.917066 0.500000 0.000000
Si Si6 0.443241 0.753350 0.652130
Si Si7 0.128290 0.250000 0.750000
Si Si8 0.153903 0.500000 0.500000
O O1 0.969344 0.738394 0.201249
O O2 0.908111 0.499860 0.250791
O O3 0.750000 0.750000 0.576748
O O4 0.826321 0.628303 0.620801
O O5 0.812579 0.427511 0.542622
O O6 0.750000 0.250000 0.603417
O O7 0.900043 0.479654 0.853942
O O8 0.844859 0.742339 0.797614
O O9 0.913289 0.975821 0.849030
O O10 0.452667 0.992737 0.043644
O O11 0.516533 0.779088 0.112690
O O12 0.882190 0.751823 0.993884
#
# Coordination Sequence:
#
# PCOD9326869 Si02
#       8
#     8  16  16   8   8  16   8   8
#     4   8  16  32  53  82 109 153 200 235 289 344
#     4  12  24  39  63  93 121 152 201 258 310 368
#     4  10  20  38  60  85 118 160 198 239 303 359
#     4  11  24  40  60  94 126 158 210 261 302 354
#     4  11  26  41  64  89 122 167 208 247 304 379
#     4  10  20  36  59  84 120 160 200 248 295 353
#     4   8  16  32  58  80 110 153 196 231 278 362
#     4  12  24  46  64  85 122 165 202 248 316 374
#
# _framework density 21.85688
#
# number of rings (size 3 to 8) (size 9 to 14) (size 15 to 20)
#    0.000    1.636    0.000    4.909    0.000    3.636 
#    0.000    5.909    0.000    1.091    0.000    0.000 
#    0.000    0.000    0.000    0.000    0.000    0.000 
#
# Total GULP energy -122749.157850 kJ/mol
# GULP energy per Si atom -5579.507175 kJ/mol
# Density = 2.180713 g / cm^3
# Si number density = 21.856880 Si / 1000 Ang^3
#
#
#
# Elastic Constant Matrix: (Units=GPa)
#
#
# Indices 1 2 3 4 5 6 
#
# 1 66.6490 23.5582 37.3082 -0.0086 -0.1234 0.0337
# 2 23.5582 132.5404 -4.4582 -0.0107 -0.2552 0.0668
# 3 37.3082 -4.4582 162.0146 -0.0040 -0.0090 -0.0086
# 4 -0.0086 -0.0107 -0.0040 26.7777 -0.0581 0.0108
# 5 -0.1234 -0.2552 -0.0090 -0.0581 36.1268 0.0909
# 6 0.0337 0.0668 -0.0086 0.0108 0.0909 2.6386
#
#
#
# Elastic Compliance Matrix: (Units=1/GPa)
#
#
# Indices 1 2 3 4 5 6 
#
# 1 0.018694 -0.003471 -0.004400 0.000004 0.000039 -0.000167
# 2 -0.003471 0.008196 0.001025 0.000002 0.000047 -0.000162
# 3 -0.004400 0.001025 0.007214 0.000000 -0.000006 0.000054
# 4 0.000004 0.000002 0.000000 0.037345 0.000060 -0.000156
# 5 0.000039 0.000047 -0.000006 0.000060 0.027683 -0.000956
# 6 -0.000167 -0.000162 0.000054 -0.000156 -0.000956 0.379023
#
#
# Mechanical properties :
#
#
# Convention : Reuss Voigt Hill
#
# Bulk Modulus (GPa) = 48.99116 52.66894 50.83005
# Shear Modulus (GPa) = 10.02704 33.42836 21.72770
#
# Velocity S-wave (km/s) = 2.14419 3.91502 3.15634
# Velocity P-wave (km/s) = 5.34727 6.67728 6.04894
#
# Compressibility (1/GPa) = 0.02041184
#
# Stress axis : x y z
#
# Youngs Moduli (GPa) = 53.49300 122.00494 138.62369
#
# Poissons Ratio (x) = 0.42343 0.60999
# Poissons Ratio (y) = 0.18565 -0.14205
# Poissons Ratio (z) = 0.23539 -0.12502
#
# Static dielectric constant tensor:
#      x y z
#    x 1.847920 -0.000090 0.000040 
#    y -0.000090 1.762570 -0.000030 
#    z 0.000040 -0.000030 1.868300 
# 
# From -- ./inp_files/6505.got.cif
#   From: 2010.05.17/outbox.cif.g08.bks.cpg/sg22_4_cif.got.tgz:6505.got - 2010.06.03 23:40:54.
