data_PCOD9326830
_publ_section_title
;
Structure prediction by ZEFSAII (Michael W. Deem and Ramdas Pophale) SiO2 
 PCOD9326830
Probable space group: F 2 2 2
;
_chemical_formula_sum "Si O2"
_cell_formula_units_Z 116
_cell_length_a 8.849345
_cell_length_b 25.995414
_cell_length_c 24.543878
_cell_angle_alpha 90.000000
_cell_angle_beta 90.000000
_cell_angle_gamma 90.000000
_cell_volume 5646.132279
_symmetry_space_group_name_H-M "F 2 2 2"
_symmetry_group_IT_number 22
_symmetry_cell_setting 'orthorhombic'
loop_
_space_group_symop_operation_xyz
x,y,z
-x,-y,z
x,-y,-z
-x,y,-z
x,1/2+y,1/2+z
-x,1/2-y,1/2+z
x,1/2-y,1/2-z
-x,1/2+y,1/2-z
1/2+x,y,1/2+z
1/2-x,-y,1/2+z
1/2+x,-y,1/2-z
1/2-x,y,1/2-z
1/2+x,1/2+y,z
1/2-x,1/2-y,z
1/2+x,1/2-y,-z
1/2-x,1/2+y,-z
loop_
_atom_site_type_symbol
_atom_site_label
_atom_site_fract_x
_atom_site_fract_y
_atom_site_fract_z
Si Si1 0.792499 0.190538 0.693697
Si Si2 0.793097 0.388287 0.311973
Si Si3 0.192188 0.931778 0.586565
Si Si4 0.969750 0.157754 0.374122
Si Si5 0.928093 0.741016 0.558726
Si Si6 0.000000 0.000000 0.500000
Si Si7 0.562961 0.359530 0.886061
Si Si8 0.684631 0.993469 0.307744
O O1 0.750000 0.165320 0.750000
O O2 0.750000 0.250000 0.695266
O O3 0.701349 0.167406 0.644309
O O4 0.964060 0.177879 0.683046
O O5 0.750000 0.370926 0.250000
O O6 0.695690 0.359851 0.358069
O O7 0.961902 0.382632 0.336671
O O8 0.753721 0.448445 0.312692
O O9 0.350058 0.900306 0.574560
O O10 0.246197 0.962872 0.640742
O O11 0.062182 0.890518 0.602445
O O12 0.112858 0.966478 0.539545
O O13 0.987139 0.208027 0.410926
O O14 0.750000 0.750000 0.556386
O O15 0.973135 0.686878 0.585800
O O16 0.000000 0.740402 0.500000
O O17 0.750000 0.972716 0.250000
O O18 0.500000 0.000000 0.307301
#
# Coordination Sequence:
#
# PCOD9326830 Si02
#       8
#    16  16  16  16  16   4  16  16
#     4  10  20  35  61  95 136 176 212 262 327 404
#     4  11  23  41  70 104 142 181 228 283 358 429
#     4  11  27  46  77 100 145 182 240 297 360 440
#     4  11  24  43  69 100 136 180 229 283 337 423
#     4  12  28  46  71  95 135 183 240 294 347 416
#     4  12  28  52  74 112 140 196 238 306 388 430
#     4  11  23  46  66 104 138 182 231 289 344 415
#     4  11  25  45  73 106 143 188 239 299 359 432
#
# _framework density 20.545038000000002
#
# number of rings (size 3 to 8) (size 9 to 14) (size 15 to 20)
#    0.000    0.966    4.138    1.655    9.655    2.207 
#    2.483    1.034    0.000    0.000    0.000    0.000 
#    0.000    0.000    0.000    0.000    0.000    0.000 
#
# Total GULP energy -161544.064579 kJ/mol
# GULP energy per Si atom -5570.484985 kJ/mol
# Density = 2.049828 g / cm^3
# Si number density = 20.545038 Si / 1000 Ang^3
#
#
#
# Elastic Constant Matrix: (Units=GPa)
#
#
# Indices 1 2 3 4 5 6 
#
# 1 108.7948 43.9382 50.6321 0.0000 0.0000 0.0000
# 2 43.9382 113.2609 66.1158 0.0000 0.0000 0.0000
# 3 50.6321 66.1158 121.9150 0.0000 0.0000 0.0000
# 4 0.0000 0.0000 0.0000 143.7409 0.0000 0.0000
# 5 0.0000 0.0000 0.0000 0.0000 36.2752 0.0000
# 6 0.0000 0.0000 0.0000 0.0000 0.0000 27.1596
#
#
#
# Elastic Compliance Matrix: (Units=1/GPa)
#
#
# Indices 1 2 3 4 5 6 
#
# 1 0.011868 -0.002527 -0.003559 0.000000 0.000000 0.000000
# 2 -0.002527 0.013457 -0.006248 0.000000 0.000000 0.000000
# 3 -0.003559 -0.006248 0.013069 0.000000 0.000000 0.000000
# 4 0.000000 0.000000 0.000000 0.006957 0.000000 0.000000
# 5 0.000000 0.000000 0.000000 0.000000 0.027567 0.000000
# 6 0.000000 0.000000 0.000000 0.000000 0.000000 0.036819
#
#
# Mechanical properties :
#
#
# Convention : Reuss Voigt Hill
#
# Bulk Modulus (GPa) = 72.85249 73.92700 73.38975
# Shear Modulus (GPa) = 35.97620 53.65412 44.81516
#
# Velocity S-wave (km/s) = 4.18914 5.11586 4.67552
# Velocity P-wave (km/s) = 7.67694 8.42360 8.05892
#
# Compressibility (1/GPa) = 0.01372637
#
# Stress axis : x y z
#
# Youngs Moduli (GPa) = 84.25837 74.31117 76.51713
#
# Poissons Ratio (x) = 0.18777 0.27230
# Poissons Ratio (y) = 0.21290 0.47811
# Poissons Ratio (z) = 0.29985 0.46433
#
# Static dielectric constant tensor:
#      x y z
#    x 1.539420 0.000000 0.000000 
#    y 0.000000 1.837930 0.000000 
#    z 0.000000 0.000000 1.737310 
# 
# From -- ./inp_files/47529.got.cif
#   From: 2010.05.17/outbox.cif.g08.bks.cpg/sg22_24_cif.got.tgz:47529.got - 2010.06.03 23:40:54.
