data_PCOD9326723
_publ_section_title
;
Structure prediction by ZEFSAII (Michael W. Deem and Ramdas Pophale) SiO2 
 PCOD9326723
Probable space group: F 2 2 2
;
_chemical_formula_sum "Si O2"
_cell_formula_units_Z 80
_cell_length_a 10.778205
_cell_length_b 34.534412
_cell_length_c 10.778189
_cell_angle_alpha 90.000000
_cell_angle_beta 90.000000
_cell_angle_gamma 90.000000
_cell_volume 4011.846431
_symmetry_space_group_name_H-M "F 2 2 2"
_symmetry_group_IT_number 22
_symmetry_cell_setting 'orthorhombic'
loop_
_space_group_symop_operation_xyz
x,y,z
-x,-y,z
x,-y,-z
-x,y,-z
x,1/2+y,1/2+z
-x,1/2-y,1/2+z
x,1/2-y,1/2-z
-x,1/2+y,1/2-z
1/2+x,y,1/2+z
1/2-x,-y,1/2+z
1/2+x,-y,1/2-z
1/2-x,y,1/2-z
1/2+x,1/2+y,z
1/2-x,1/2-y,z
1/2+x,1/2-y,-z
1/2-x,1/2+y,-z
loop_
_atom_site_type_symbol
_atom_site_label
_atom_site_fract_x
_atom_site_fract_y
_atom_site_fract_z
Si Si1 0.791649 0.000000 0.000000
Si Si2 0.145038 0.060632 0.354962
Si Si3 0.257324 0.206860 0.542729
Si Si4 0.895614 0.650717 0.104386
Si Si5 0.042729 0.293140 0.742676
Si Si6 0.000000 0.000000 0.208351
O O1 0.704213 0.963642 0.032022
O O2 0.882572 0.007202 0.117428
O O3 0.250000 0.060564 0.250000
O O4 0.118215 0.105073 0.381785
O O5 0.032023 0.036358 0.295787
O O6 0.250000 0.250000 0.486778
O O7 0.223716 0.173215 0.447604
O O8 0.151837 0.207122 0.651837
O O9 0.386904 0.201325 0.613096
O O10 0.947605 0.673215 0.223716
O O11 0.000000 0.656797 0.000000
O O12 0.986779 0.250000 0.750000
#
# Coordination Sequence:
#
# PCOD9326723 Si02
#       6
#     8  16  16  16  16   8
#     4   9  20  39  60  80 108 149 186 227 280 344
#     4  10  22  38  56  82 114 144 188 229 287 346
#     4   8  15  31  52  73 105 147 185 224 274 328
#     4  10  20  32  52  84 110 138 186 240 274 335
#     4   8  15  31  52  73 105 147 185 224 274 328
#     4   9  20  39  60  80 108 149 186 227 280 344
#
# _framework density 19.940943000000001
#
# number of rings (size 3 to 8) (size 9 to 14) (size 15 to 20)
#    0.000    3.000    0.000    1.200    2.800    1.600 
#    3.600    0.000    0.000    0.000    0.000    0.000 
#    0.000    0.000    0.000    0.000    0.000    0.000 
#
# Total GULP energy -111563.041575 kJ/mol
# GULP energy per Si atom -5578.152079 kJ/mol
# Density = 1.989556 g / cm^3
# Si number density = 19.940943 Si / 1000 Ang^3
#
#
#
# Elastic Constant Matrix: (Units=GPa)
#
#
# Indices 1 2 3 4 5 6 
#
# 1 60.6599 69.5560 50.0633 0.0000 0.0000 0.0000
# 2 69.5560 207.0308 69.5556 0.0000 0.0000 0.0000
# 3 50.0633 69.5556 60.6592 0.0000 0.0000 0.0000
# 4 0.0000 0.0000 0.0000 59.5704 0.0000 0.0000
# 5 0.0000 0.0000 0.0000 0.0000 20.9686 0.0000
# 6 0.0000 0.0000 0.0000 0.0000 0.0000 59.5709
#
#
#
# Elastic Compliance Matrix: (Units=1/GPa)
#
#
# Indices 1 2 3 4 5 6 
#
# 1 0.055001 -0.005251 -0.039372 0.000000 0.000000 0.000000
# 2 -0.005251 0.008358 -0.005251 0.000000 0.000000 0.000000
# 3 -0.039372 -0.005251 0.055001 0.000000 0.000000 0.000000
# 4 0.000000 0.000000 0.000000 0.016787 0.000000 0.000000
# 5 0.000000 0.000000 0.000000 0.000000 0.047690 0.000000
# 6 0.000000 0.000000 0.000000 0.000000 0.000000 0.016787
#
#
# Mechanical properties :
#
#
# Convention : Reuss Voigt Hill
#
# Bulk Modulus (GPa) = 53.72712 78.52218 66.12465
# Shear Modulus (GPa) = 16.36256 37.30031 26.83143
#
# Velocity S-wave (km/s) = 2.86763 4.32966 3.67215
# Velocity P-wave (km/s) = 6.16166 8.02854 7.15624
#
# Compressibility (1/GPa) = 0.01861258
#
# Stress axis : x y z
#
# Youngs Moduli (GPa) = 18.18162 119.64138 18.18145
#
# Poissons Ratio (x) = 0.62820 0.71585
# Poissons Ratio (y) = 0.09547 0.09546
# Poissons Ratio (z) = 0.71585 0.62820
#
# Static dielectric constant tensor:
#      x y z
#    x 1.726530 0.000000 0.000000 
#    y 0.000000 1.675940 0.000000 
#    z 0.000000 0.000000 1.726530 
# 
# From -- ./inp_files/18335.got.cif
#   From: 2010.05.17/outbox.cif.g08.bks.cpg/sg22_10_cif.got.tgz:18335.got - 2010.06.03 23:40:54.
