data_PCOD9326411
_publ_section_title
;
Structure prediction by ZEFSAII (Michael W. Deem and Ramdas Pophale) SiO2 
 PCOD9326411
Probable space group: F 2 2 2
;
_chemical_formula_sum "Si O2"
_cell_formula_units_Z 96
_cell_length_a 15.632441
_cell_length_b 26.066869
_cell_length_c 11.701089
_cell_angle_alpha 90.000000
_cell_angle_beta 90.000000
_cell_angle_gamma 90.000000
_cell_volume 4768.062618
_symmetry_space_group_name_H-M "F 2 2 2"
_symmetry_group_IT_number 22
_symmetry_cell_setting 'orthorhombic'
loop_
_space_group_symop_operation_xyz
x,y,z
-x,-y,z
x,-y,-z
-x,y,-z
x,1/2+y,1/2+z
-x,1/2-y,1/2+z
x,1/2-y,1/2-z
-x,1/2+y,1/2-z
1/2+x,y,1/2+z
1/2-x,-y,1/2+z
1/2+x,-y,1/2-z
1/2-x,y,1/2-z
1/2+x,1/2+y,z
1/2-x,1/2-y,z
1/2+x,1/2-y,-z
1/2-x,1/2+y,-z
loop_
_atom_site_type_symbol
_atom_site_label
_atom_site_fract_x
_atom_site_fract_y
_atom_site_fract_z
Si Si1 0.408564 0.066223 0.365297
Si Si2 0.818343 0.327598 0.590800
Si Si3 0.630124 0.287901 0.580134
Si Si4 0.052753 0.200623 0.669997
Si Si5 0.895501 0.045634 0.138314
Si Si6 0.673909 0.353479 0.175688
O O1 0.361222 0.121445 0.353275
O O2 0.403359 0.054116 0.501192
O O3 0.507856 0.062823 0.327001
O O4 0.373301 0.011584 0.319898
O O5 0.716838 0.318280 0.610565
O O6 0.860130 0.272001 0.616468
O O7 0.829062 0.333806 0.453366
O O8 0.544416 0.309462 0.635468
O O9 0.609637 0.290985 0.444110
O O10 0.056891 0.250000 0.750000
O O11 0.090454 0.157937 0.751287
O O12 0.823178 0.085544 0.171320
O O13 0.750000 0.330095 0.250000
#
# Coordination Sequence:
#
# PCOD9326411 Si02
#       6
#    16  16  16  16  16  16
#     4   8  15  30  54  78 105 140 176 236 285 342
#     4  10  19  34  56  82 114 152 194 232 290 351
#     4  10  22  35  53  85 119 156 194 233 287 365
#     4  11  22  35  54  80 118 154 195 241 289 337
#     4   8  16  29  52  83 104 130 186 234 293 334
#     4  11  20  32  56  83 109 142 192 251 285 329
#
# _framework density 20.133963000000001
#
# number of rings (size 3 to 8) (size 9 to 14) (size 15 to 20)
#    0.000    2.333    3.333    1.000    2.333    1.667 
#    0.000    1.667    7.333    0.000    0.000    0.000 
#    0.000    0.000    0.000    0.000    0.000    0.000 
#
# Total GULP energy -133609.475807 kJ/mol
# GULP energy per Si atom -5567.061492 kJ/mol
# Density = 2.008814 g / cm^3
# Si number density = 20.133963 Si / 1000 Ang^3
#
#
#
# Elastic Constant Matrix: (Units=GPa)
#
#
# Indices 1 2 3 4 5 6 
#
# 1 84.6928 40.5216 14.6946 0.0000 0.0000 0.0000
# 2 40.5216 113.3666 16.3369 0.0000 0.0000 0.0000
# 3 14.6946 16.3369 42.5043 0.0000 0.0000 0.0000
# 4 0.0000 0.0000 0.0000 6.4670 0.0000 0.0000
# 5 0.0000 0.0000 0.0000 0.0000 32.2428 0.0000
# 6 0.0000 0.0000 0.0000 0.0000 0.0000 28.5443
#
#
#
# Elastic Compliance Matrix: (Units=1/GPa)
#
#
# Indices 1 2 3 4 5 6 
#
# 1 0.014651 -0.004771 -0.003231 0.000000 0.000000 0.000000
# 2 -0.004771 0.010892 -0.002537 0.000000 0.000000 0.000000
# 3 -0.003231 -0.002537 0.025619 0.000000 0.000000 0.000000
# 4 0.000000 0.000000 0.000000 0.154631 0.000000 0.000000
# 5 0.000000 0.000000 0.000000 0.000000 0.031015 0.000000
# 6 0.000000 0.000000 0.000000 0.000000 0.000000 0.035033
#
#
# Mechanical properties :
#
#
# Convention : Reuss Voigt Hill
#
# Bulk Modulus (GPa) = 33.24103 42.63000 37.93551
# Shear Modulus (GPa) = 16.50454 24.71820 20.61137
#
# Velocity S-wave (km/s) = 2.86621 3.50764 3.20302
# Velocity P-wave (km/s) = 5.24398 6.13383 5.70627
#
# Compressibility (1/GPa) = 0.03008331
#
# Stress axis : x y z
#
# Youngs Moduli (GPa) = 68.25578 91.81123 39.03321
#
# Poissons Ratio (x) = 0.43804 0.12613
# Poissons Ratio (y) = 0.32566 0.09902
# Poissons Ratio (z) = 0.22055 0.23292
#
# Static dielectric constant tensor:
#      x y z
#    x 1.768080 0.000000 0.000000 
#    y 0.000000 1.603130 0.000000 
#    z 0.000000 0.000000 1.721640 
# 
# From -- ./inp_files/21580.got.cif
#   From: 2010.05.17/outbox.cif.g08.bks.cpg/sg22_11_cif.got.tgz:21580.got - 2010.06.03 23:40:54.
