data_PCOD9326090
_publ_section_title
;
Structure prediction by ZEFSAII (Michael W. Deem and Ramdas Pophale) SiO2 
 PCOD9326090
Probable space group: F 2 2 2
;
_chemical_formula_sum "Si O2"
_cell_formula_units_Z 76
_cell_length_a 11.937397
_cell_length_b 14.770953
_cell_length_c 22.468049
_cell_angle_alpha 90.000000
_cell_angle_beta 90.000000
_cell_angle_gamma 90.000000
_cell_volume 3961.717610
_symmetry_space_group_name_H-M "F 2 2 2"
_symmetry_group_IT_number 22
_symmetry_cell_setting 'orthorhombic'
loop_
_space_group_symop_operation_xyz
x,y,z
-x,-y,z
x,-y,-z
-x,y,-z
x,1/2+y,1/2+z
-x,1/2-y,1/2+z
x,1/2-y,1/2-z
-x,1/2+y,1/2-z
1/2+x,y,1/2+z
1/2-x,-y,1/2+z
1/2+x,-y,1/2-z
1/2-x,y,1/2-z
1/2+x,1/2+y,z
1/2-x,1/2-y,z
1/2+x,1/2-y,-z
1/2-x,1/2+y,-z
loop_
_atom_site_type_symbol
_atom_site_label
_atom_site_fract_x
_atom_site_fract_y
_atom_site_fract_z
Si Si1 0.681741 0.340917 0.653167
Si Si2 0.546674 0.250000 0.750000
Si Si3 0.262027 0.535965 0.321397
Si Si4 0.500000 0.500000 0.500000
Si Si5 0.056717 0.872694 0.399793
Si Si6 0.862436 0.203862 0.155094
O O1 0.750000 0.250000 0.637757
O O2 0.624728 0.321878 0.717320
O O3 0.750950 0.432584 0.659020
O O4 0.575521 0.360496 0.611012
O O5 0.465854 0.209745 0.699871
O O6 0.250000 0.545072 0.250000
O O7 0.382128 0.574736 0.345007
O O8 0.172717 0.601126 0.353647
O O9 0.571408 0.434418 0.457348
O O10 0.108170 0.771762 0.398843
O O11 0.750000 0.250000 0.181984
#
# Coordination Sequence:
#
# PCOD9326090 Si02
#       6
#    16   8  16   4  16  16
#     4  11  21  35  51  86 125 165 204 244 306 363
#     4  10  18  32  50  78 124 164 186 240 300 372
#     4  11  19  34  59  90 125 158 198 250 311 381
#     4  12  20  44  68  84 114 162 224 258 296 372
#     4  10  22  38  61  84 116 157 208 254 299 362
#     4   9  18  32  54  85 115 147 200 246 301 358
#
# _framework density 19.183599000000001
#
# number of rings (size 3 to 8) (size 9 to 14) (size 15 to 20)
#    0.000    1.684    2.105    5.684    0.000    0.842 
#    0.000   13.684    0.000    0.000    0.000    1.474 
#    0.000    0.000    0.000    0.000    0.000    0.000 
#
# Total GULP energy -105904.865795 kJ/mol
# GULP energy per Si atom -5573.940305 kJ/mol
# Density = 1.913994 g / cm^3
# Si number density = 19.183599 Si / 1000 Ang^3
#
#
#
# Elastic Constant Matrix: (Units=GPa)
#
#
# Indices 1 2 3 4 5 6 
#
# 1 72.4852 53.2829 26.7141 0.0000 0.0000 0.0000
# 2 53.2829 192.3493 41.6388 0.0000 0.0000 0.0000
# 3 26.7141 41.6388 69.7559 0.0000 0.0000 0.0000
# 4 0.0000 0.0000 0.0000 31.6761 0.0000 0.0000
# 5 0.0000 0.0000 0.0000 0.0000 11.3213 0.0000
# 6 0.0000 0.0000 0.0000 0.0000 0.0000 33.6350
#
#
#
# Elastic Compliance Matrix: (Units=1/GPa)
#
#
# Indices 1 2 3 4 5 6 
#
# 1 0.018542 -0.004133 -0.004634 0.000000 0.000000 0.000000
# 2 -0.004133 0.006892 -0.002531 0.000000 0.000000 0.000000
# 3 -0.004634 -0.002531 0.017621 0.000000 0.000000 0.000000
# 4 0.000000 0.000000 0.000000 0.031570 0.000000 0.000000
# 5 0.000000 0.000000 0.000000 0.000000 0.088329 0.000000
# 6 0.000000 0.000000 0.000000 0.000000 0.000000 0.029731
#
#
# Mechanical properties :
#
#
# Convention : Reuss Voigt Hill
#
# Bulk Modulus (GPa) = 48.87841 64.20688 56.54265
# Shear Modulus (GPa) = 22.51243 29.52344 26.01794
#
# Velocity S-wave (km/s) = 3.42939 3.92726 3.68674
# Velocity P-wave (km/s) = 6.41993 7.35573 6.90371
#
# Compressibility (1/GPa) = 0.02045893
#
# Stress axis : x y z
#
# Youngs Moduli (GPa) = 53.93181 145.10186 56.75037
#
# Poissons Ratio (x) = 0.59974 0.26296
# Poissons Ratio (y) = 0.22291 0.14363
# Poissons Ratio (z) = 0.24990 0.36724
#
# Static dielectric constant tensor:
#      x y z
#    x 1.707840 0.000000 0.000000 
#    y 0.000000 1.737600 0.000000 
#    z 0.000000 0.000000 1.675220 
# 
# From -- ./inp_files/23578.got.cif
#   From: 2010.05.17/outbox.cif.g08.bks.cpg/sg22_12_cif.got.tgz:23578.got - 2010.06.03 23:40:54.
