data_PCOD9326762
_publ_section_title
;
Structure prediction by ZEFSAII (Michael W. Deem and Ramdas Pophale) SiO2 
 PCOD9326762
Probable space group: F 2 2 2
;
_chemical_formula_sum "Si O2"
_cell_formula_units_Z 116
_cell_length_a 30.904091
_cell_length_b 7.759739
_cell_length_c 25.572514
_cell_angle_alpha 90.000000
_cell_angle_beta 90.000000
_cell_angle_gamma 90.000000
_cell_volume 6132.485259
_symmetry_space_group_name_H-M "F 2 2 2"
_symmetry_group_IT_number 22
_symmetry_cell_setting 'orthorhombic'
loop_
_space_group_symop_operation_xyz
x,y,z
-x,-y,z
x,-y,-z
-x,y,-z
x,1/2+y,1/2+z
-x,1/2-y,1/2+z
x,1/2-y,1/2-z
-x,1/2+y,1/2-z
1/2+x,y,1/2+z
1/2-x,-y,1/2+z
1/2+x,-y,1/2-z
1/2-x,y,1/2-z
1/2+x,1/2+y,z
1/2-x,1/2-y,z
1/2+x,1/2-y,-z
1/2-x,1/2+y,-z
loop_
_atom_site_type_symbol
_atom_site_label
_atom_site_fract_x
_atom_site_fract_y
_atom_site_fract_z
Si Si1 0.450747 0.540981 0.804515
Si Si2 0.250000 0.250000 0.750000
Si Si3 0.800650 0.045272 0.060529
Si Si4 0.311931 0.556764 0.741168
Si Si5 0.203510 0.959349 0.439618
Si Si6 0.548125 0.449248 0.685587
Si Si7 0.635736 0.025837 0.144995
Si Si8 0.639950 0.066028 0.345719
O O1 0.500000 0.500000 0.820751
O O2 0.445024 0.474893 0.744421
O O3 0.448363 0.746150 0.806529
O O4 0.410621 0.474839 0.838384
O O5 0.280838 0.395989 0.723110
O O6 0.797430 0.252324 0.064428
O O7 0.752201 0.978818 0.074144
O O8 0.836870 0.992042 0.102374
O O9 0.809702 0.000000 0.000000
O O10 0.294369 0.750000 0.750000
O O11 0.347945 0.571702 0.696571
O O12 0.333595 0.497781 0.795225
O O13 0.165762 0.031185 0.402933
O O14 0.196092 0.000000 0.500000
O O15 0.500000 0.500000 0.669322
O O16 0.584457 0.502399 0.644398
O O17 0.643517 0.228227 0.152757
#
# Coordination Sequence:
#
# PCOD9326762 Si02
#       8
#    16   4  16  16  16  16  16  16
#     4  10  20  34  54  82 114 150 192 236 289 354
#     4  12  26  44  52  78 128 160 194 248 292 344
#     4   9  20  37  58  81 111 151 197 242 291 340
#     4  12  25  39  58  85 116 162 202 234 293 356
#     4   9  20  37  58  81 111 151 197 242 291 340
#     4  10  20  34  54  82 114 150 192 236 289 354
#     4  11  21  36  59  83 120 156 190 244 295 344
#     4  11  21  36  59  83 120 156 190 244 295 344
#
# _framework density 18.915658000000001
#
# number of rings (size 3 to 8) (size 9 to 14) (size 15 to 20)
#    0.000    1.655    2.759    1.862    1.931    3.310 
#    0.000    0.000    0.000    0.828    0.000    5.793 
#    0.000    0.000    0.000    0.000    0.000    0.000 
#
# Total GULP energy -161718.413238 kJ/mol
# GULP energy per Si atom -5576.497008 kJ/mol
# Density = 1.887261 g / cm^3
# Si number density = 18.915658 Si / 1000 Ang^3
#
#
#
# Elastic Constant Matrix: (Units=GPa)
#
#
# Indices 1 2 3 4 5 6 
#
# 1 172.5417 20.3614 85.4021 0.0000 -0.0003 0.0000
# 2 20.3614 74.1938 5.8175 0.0000 -0.0007 -0.0004
# 3 85.4021 5.8175 91.6514 0.0000 0.0000 0.0000
# 4 0.0000 0.0000 0.0000 19.4419 -0.0001 -0.0001
# 5 -0.0003 -0.0007 0.0000 -0.0001 38.5546 0.0003
# 6 0.0000 -0.0004 0.0000 -0.0001 0.0003 24.3901
#
#
#
# Elastic Compliance Matrix: (Units=1/GPa)
#
#
# Indices 1 2 3 4 5 6 
#
# 1 0.011119 -0.002250 -0.010218 0.000000 0.000000 0.000000
# 2 -0.002250 0.014001 0.001208 0.000000 0.000000 0.000000
# 3 -0.010218 0.001208 0.020355 0.000000 0.000000 0.000000
# 4 0.000000 0.000000 0.000000 0.051435 0.000000 0.000000
# 5 0.000000 0.000000 0.000000 0.000000 0.025937 0.000000
# 6 0.000000 0.000000 0.000000 0.000000 0.000000 0.041000
#
#
# Mechanical properties :
#
#
# Convention : Reuss Voigt Hill
#
# Bulk Modulus (GPa) = 43.56300 62.39430 52.97865
# Shear Modulus (GPa) = 25.77065 31.59770 28.68418
#
# Velocity S-wave (km/s) = 3.69507 4.09155 3.89835
# Velocity P-wave (km/s) = 6.42533 7.44165 6.95209
#
# Compressibility (1/GPa) = 0.02295526
#
# Stress axis : x y z
#
# Youngs Moduli (GPa) = 89.93903 71.42337 49.12742
#
# Poissons Ratio (x) = 0.16072 0.50197
# Poissons Ratio (y) = 0.20238 -0.05935
# Poissons Ratio (z) = 0.91897 -0.08628
#
# Static dielectric constant tensor:
#      x y z
#    x 1.719600 0.000000 0.000000 
#    y 0.000000 1.706430 0.000000 
#    z 0.000000 0.000000 1.645300 
# 
# From -- ./inp_files/54494.got.cif
#   From: 2010.05.17/outbox.cif.g08.bks.cpg/sg22_28_cif.got.tgz:54494.got - 2010.06.03 23:40:54.
