data_PCOD9326728
_publ_section_title
;
Structure prediction by ZEFSAII (Michael W. Deem and Ramdas Pophale) SiO2 
 PCOD9326728
Probable space group: F 2 2 2
;
_chemical_formula_sum "Si O2"
_cell_formula_units_Z 56
_cell_length_a 7.244626
_cell_length_b 16.263056
_cell_length_c 21.119092
_cell_angle_alpha 90.000000
_cell_angle_beta 90.000000
_cell_angle_gamma 90.000000
_cell_volume 2488.246316
_symmetry_space_group_name_H-M "F 2 2 2"
_symmetry_group_IT_number 22
_symmetry_cell_setting 'orthorhombic'
loop_
_space_group_symop_operation_xyz
x,y,z
-x,-y,z
x,-y,-z
-x,y,-z
x,1/2+y,1/2+z
-x,1/2-y,1/2+z
x,1/2-y,1/2-z
-x,1/2+y,1/2-z
1/2+x,y,1/2+z
1/2-x,-y,1/2+z
1/2+x,-y,1/2-z
1/2-x,y,1/2-z
1/2+x,1/2+y,z
1/2-x,1/2-y,z
1/2+x,1/2-y,-z
1/2-x,1/2+y,-z
loop_
_atom_site_type_symbol
_atom_site_label
_atom_site_fract_x
_atom_site_fract_y
_atom_site_fract_z
Si Si1 0.289652 0.495618 0.891998
Si Si2 0.250000 0.952666 0.250000
Si Si3 0.507713 0.135237 0.929378
Si Si4 0.553847 0.798532 0.804598
O O1 0.500000 0.500000 0.913069
O O2 0.289404 0.501064 0.814806
O O3 0.184269 0.411874 0.911869
O O4 0.166659 0.566916 0.922562
O O5 0.407180 0.888947 0.224994
O O6 0.536825 0.197889 0.872535
O O7 0.500000 0.168258 0.000000
O O8 0.452423 0.750000 0.750000
O O9 0.750000 0.750000 0.813349
#
# Coordination Sequence:
#
# PCOD9326728 Si02
#       4
#    16   8  16  16
#     4  10  20  32  55  90 122 150 182 240 295 357
#     4   8  17  30  54  86 109 144 190 232 292 338
#     4  10  21  36  57  85 117 155 195 235 295 357
#     4   8  16  35  61  78 107 157 195 241 289 331
#
# _framework density 22.50581
#
# number of rings (size 3 to 8) (size 9 to 14) (size 15 to 20)
#    0.000    3.143    0.000    1.714    8.000    2.286 
#    0.000    0.000   18.857   15.429    0.000    0.000 
#    0.000    0.000    0.000    0.000    0.000    0.000 
#
# Total GULP energy -78098.155978 kJ/mol
# GULP energy per Si atom -5578.439713 kJ/mol
# Density = 2.245459 g / cm^3
# Si number density = 22.505810 Si / 1000 Ang^3
#
#
#
# Elastic Constant Matrix: (Units=GPa)
#
#
# Indices 1 2 3 4 5 6 
#
# 1 122.6831 7.7837 6.1157 0.0000 0.0000 0.0000
# 2 7.7837 16.9441 21.5431 0.0000 0.0000 0.0000
# 3 6.1157 21.5431 216.2525 0.0000 0.0000 0.0000
# 4 0.0000 0.0000 0.0000 12.4954 0.0000 0.0000
# 5 0.0000 0.0000 0.0000 0.0000 16.6773 0.0000
# 6 0.0000 0.0000 0.0000 0.0000 0.0000 -5.9981
#
#
#
# Elastic Compliance Matrix: (Units=1/GPa)
#
#
# Indices 1 2 3 4 5 6 
#
# 1 0.008401 -0.004073 0.000168 0.000000 0.000000 0.000000
# 2 -0.004073 0.069551 -0.006814 0.000000 0.000000 0.000000
# 3 0.000168 -0.006814 0.005298 0.000000 0.000000 0.000000
# 4 0.000000 0.000000 0.000000 0.080030 0.000000 0.000000
# 5 0.000000 0.000000 0.000000 0.000000 0.059962 0.000000
# 6 0.000000 0.000000 0.000000 0.000000 0.000000 -0.166720
#
#
# Mechanical properties :
#
#
# Convention : Reuss Voigt Hill
#
# Bulk Modulus (GPa) = 16.17757 47.41829 31.79793
# Shear Modulus (GPa) = 50.72849 25.99739 38.36294
#
# Velocity S-wave (km/s) = 4.75280 3.40242 4.13313
# Velocity P-wave (km/s) = 6.10922 6.04569 6.07754
#
# Compressibility (1/GPa) = 0.06181396
#
# Stress axis : x y z
#
# Youngs Moduli (GPa) = 119.03178 14.37784 188.74200
#
# Poissons Ratio (x) = 0.05856 -0.03174
# Poissons Ratio (y) = 0.48482 1.28600
# Poissons Ratio (z) = -0.02002 0.09796
#
# Static dielectric constant tensor:
#      x y z
#    x 1.856460 0.000000 0.000000 
#    y 0.000000 1.903980 0.000000 
#    z 0.000000 0.000000 1.863790 
# 
# From -- ./inp_files/41476.got.cif
#   From: 2010.05.17/outbox.cif.g08.bks.cpg/sg22_21_cif.got.tgz:41476.got - 2010.06.03 23:40:54.
