data_PCOD9326777
_publ_section_title
;
Structure prediction by ZEFSAII (Michael W. Deem and Ramdas Pophale) SiO2 
 PCOD9326777
Probable space group: F 2 2 2
;
_chemical_formula_sum "Si O2"
_cell_formula_units_Z 88
_cell_length_a 8.556714
_cell_length_b 22.836776
_cell_length_c 20.487199
_cell_angle_alpha 90.000000
_cell_angle_beta 90.000000
_cell_angle_gamma 90.000000
_cell_volume 4003.357684
_symmetry_space_group_name_H-M "F 2 2 2"
_symmetry_group_IT_number 22
_symmetry_cell_setting 'orthorhombic'
loop_
_space_group_symop_operation_xyz
x,y,z
-x,-y,z
x,-y,-z
-x,y,-z
x,1/2+y,1/2+z
-x,1/2-y,1/2+z
x,1/2-y,1/2-z
-x,1/2+y,1/2-z
1/2+x,y,1/2+z
1/2-x,-y,1/2+z
1/2+x,-y,1/2-z
1/2-x,y,1/2-z
1/2+x,1/2+y,z
1/2-x,1/2-y,z
1/2+x,1/2-y,-z
1/2-x,1/2+y,-z
loop_
_atom_site_type_symbol
_atom_site_label
_atom_site_fract_x
_atom_site_fract_y
_atom_site_fract_z
Si Si1 0.250000 0.250000 0.750000
Si Si2 0.082386 0.348616 0.068212
Si Si3 0.915981 0.939465 0.211592
Si Si4 0.926187 0.726503 0.569113
Si Si5 0.250000 0.750000 0.750000
Si Si6 0.062641 0.387960 0.428014
Si Si7 0.505710 0.838084 0.799919
O O1 0.352698 0.207534 0.794722
O O2 0.264289 0.360740 0.062030
O O3 0.011096 0.375639 0.133908
O O4 0.037151 0.281226 0.084084
O O5 0.000000 0.363398 0.000000
O O6 0.750000 0.937329 0.250000
O O7 0.911962 0.932131 0.132709
O O8 0.008169 0.884086 0.241381
O O9 0.000000 0.000000 0.227142
O O10 0.750000 0.750000 0.564911
O O11 0.000000 0.709480 0.500000
O O12 0.950948 0.663881 0.602005
O O13 0.356789 0.795186 0.789845
O O14 0.000000 0.409406 0.500000
#
# Coordination Sequence:
#
# PCOD9326777 Si02
#       7
#     4  16  16  16   4  16  16
#     4  10  28  38  68 118 144 186 240 306 368 438
#     4  11  22  37  63  99 150 185 232 280 364 442
#     4  12  28  54  77  99 138 196 250 303 364 435
#     4  10  20  34  58 101 151 192 227 280 359 438
#     4  10  20  42  72  98 140 182 244 298 368 442
#     4  11  23  44  74 102 140 187 242 300 355 430
#     4  11  24  44  70 104 146 192 239 300 367 441
#
# _framework density 21.981548
#
# number of rings (size 3 to 8) (size 9 to 14) (size 15 to 20)
#    0.000    1.091    2.727    4.909   10.182    1.818 
#    0.000    0.000    0.000    0.545    0.000    0.000 
#    0.000    0.000    0.000    0.000    0.000    0.000 
#
# Total GULP energy -122661.843455 kJ/mol
# GULP energy per Si atom -5575.538339 kJ/mol
# Density = 2.193152 g / cm^3
# Si number density = 21.981548 Si / 1000 Ang^3
#
#
#
# Elastic Constant Matrix: (Units=GPa)
#
#
# Indices 1 2 3 4 5 6 
#
# 1 131.7877 44.1999 59.4075 0.0000 0.0000 0.0000
# 2 44.1999 76.1177 29.1576 0.0000 0.0000 0.0000
# 3 59.4075 29.1576 179.5123 0.0000 0.0000 0.0000
# 4 0.0000 0.0000 0.0000 -0.5319 0.0000 0.0000
# 5 0.0000 0.0000 0.0000 0.0000 21.2864 0.0000
# 6 0.0000 0.0000 0.0000 0.0000 0.0000 22.5528
#
#
#
# Elastic Compliance Matrix: (Units=1/GPa)
#
#
# Indices 1 2 3 4 5 6 
#
# 1 0.010482 -0.005073 -0.002645 0.000000 0.000000 0.000000
# 2 -0.005073 0.016465 -0.000995 0.000000 0.000000 0.000000
# 3 -0.002645 -0.000995 0.006608 0.000000 0.000000 0.000000
# 4 0.000000 0.000000 0.000000 -1.880083 0.000000 0.000000
# 5 0.000000 0.000000 0.000000 0.000000 0.046978 0.000000
# 6 0.000000 0.000000 0.000000 0.000000 0.000000 0.044340
#
#
# Mechanical properties :
#
#
# Convention : Reuss Voigt Hill
#
# Bulk Modulus (GPa) = 62.00732 72.54975 67.27853
# Shear Modulus (GPa) = -2.88616 25.63831 11.37608
#
# Velocity S-wave (km/s) = -1.14710 3.41890 2.27739
# Velocity P-wave (km/s) = 5.14933 6.97579 6.13096
#
# Compressibility (1/GPa) = 0.01612713
#
# Stress axis : x y z
#
# Youngs Moduli (GPa) = 95.40419 60.73548 151.34157
#
# Poissons Ratio (x) = 0.30814 0.40026
# Poissons Ratio (y) = 0.48402 0.15064
# Poissons Ratio (z) = 0.25232 0.06045
#
# Static dielectric constant tensor:
#      x y z
#    x 1.833320 0.000000 0.000000 
#    y 0.000000 1.916450 0.000000 
#    z 0.000000 0.000000 2.108370 
# 
# From -- ./inp_files/41884.got.cif
#   From: 2010.05.17/outbox.cif.g08.bks.cpg/sg22_21_cif.got.tgz:41884.got - 2010.06.03 23:40:54.
