data_PCOD9326667
_publ_section_title
;
Structure prediction by ZEFSAII (Michael W. Deem and Ramdas Pophale) SiO2 
 PCOD9326667
Probable space group: F 2 2 2
;
_chemical_formula_sum "Si O2"
_cell_formula_units_Z 72
_cell_length_a 11.842985
_cell_length_b 25.156958
_cell_length_c 11.793501
_cell_angle_alpha 90.000000
_cell_angle_beta 90.000000
_cell_angle_gamma 90.000000
_cell_volume 3513.678750
_symmetry_space_group_name_H-M "F 2 2 2"
_symmetry_group_IT_number 22
_symmetry_cell_setting 'orthorhombic'
loop_
_space_group_symop_operation_xyz
x,y,z
-x,-y,z
x,-y,-z
-x,y,-z
x,1/2+y,1/2+z
-x,1/2-y,1/2+z
x,1/2-y,1/2-z
-x,1/2+y,1/2-z
1/2+x,y,1/2+z
1/2-x,-y,1/2+z
1/2+x,-y,1/2-z
1/2-x,y,1/2-z
1/2+x,1/2+y,z
1/2-x,1/2-y,z
1/2+x,1/2-y,-z
1/2-x,1/2+y,-z
loop_
_atom_site_type_symbol
_atom_site_label
_atom_site_fract_x
_atom_site_fract_y
_atom_site_fract_z
Si Si1 0.988363 0.831252 0.809457
Si Si2 0.000000 0.756702 0.500000
Si Si3 0.750000 0.122898 0.250000
Si Si4 0.397937 0.854643 0.928332
Si Si5 0.747036 0.441142 0.476618
Si Si6 0.500000 0.416555 0.000000
O O1 0.857648 0.841213 0.779109
O O2 0.020507 0.879130 0.892390
O O3 0.062179 0.837888 0.696476
O O4 0.000252 0.778996 0.887377
O O5 0.893645 0.797759 0.494048
O O6 0.718897 0.084726 0.144955
O O7 0.500000 0.881985 0.000000
O O8 0.296339 0.895714 0.936352
O O9 0.700027 0.500000 0.500000
O O10 0.882522 0.445201 0.478896
#
# Coordination Sequence:
#
# PCOD9326667 Si02
#       6
#    16   8   8  16  16   8
#     4  10  19  40  63  89 129 162 206 264 309 366
#     4   9  20  38  62  94 126 168 206 249 318 372
#     4  10  20  40  63  90 120 166 213 252 298 394
#     4  10  21  37  60  97 128 152 214 255 308 364
#     4  11  23  41  63  91 125 165 211 257 316 362
#     4   9  23  40  63  88 119 170 217 247 310 388
#
# _framework density 20.491343000000001
#
# number of rings (size 3 to 8) (size 9 to 14) (size 15 to 20)
#    0.667    1.333    2.222    1.000    0.000    3.111 
#    0.000   26.667    0.000    8.000    0.000    0.000 
#    0.000    0.000    0.000    0.000    0.000    0.000 
#
# Total GULP energy -100254.125164 kJ/mol
# GULP energy per Si atom -5569.673620 kJ/mol
# Density = 2.044470 g / cm^3
# Si number density = 20.491343 Si / 1000 Ang^3
#
#
#
# Elastic Constant Matrix: (Units=GPa)
#
#
# Indices 1 2 3 4 5 6 
#
# 1 43.5220 30.6589 14.6671 0.0000 0.0000 0.0000
# 2 30.6589 146.2142 46.8778 0.0000 0.0000 0.0000
# 3 14.6671 46.8778 122.7158 0.0000 0.0000 0.0000
# 4 0.0000 0.0000 0.0000 15.5872 0.0000 0.0000
# 5 0.0000 0.0000 0.0000 0.0000 24.5516 0.0000
# 6 0.0000 0.0000 0.0000 0.0000 0.0000 -5.6037
#
#
#
# Elastic Compliance Matrix: (Units=1/GPa)
#
#
# Indices 1 2 3 4 5 6 
#
# 1 0.027118 -0.005296 -0.001218 0.000000 0.000000 0.000000
# 2 -0.005296 0.008828 -0.002739 0.000000 0.000000 0.000000
# 3 -0.001218 -0.002739 0.009341 0.000000 0.000000 0.000000
# 4 0.000000 0.000000 0.000000 0.064155 0.000000 0.000000
# 5 0.000000 0.000000 0.000000 0.000000 0.040731 0.000000
# 6 0.000000 0.000000 0.000000 0.000000 0.000000 -0.178453
#
#
# Mechanical properties :
#
#
# Convention : Reuss Voigt Hill
#
# Bulk Modulus (GPa) = 37.34073 55.20661 46.27367
# Shear Modulus (GPa) = -5899.70942 21.59023 -2939.05959
#
# Velocity S-wave (km/s) = -53.71567 3.24948 -37.91315
# Velocity P-wave (km/s) = 61.87812 6.40927 43.51910
#
# Compressibility (1/GPa) = 0.02678041
#
# Stress axis : x y z
#
# Youngs Moduli (GPa) = 36.87600 113.27631 107.05543
#
# Poissons Ratio (x) = 0.59987 0.13041
# Poissons Ratio (y) = 0.19528 0.29326
# Poissons Ratio (z) = 0.04492 0.31031
#
# Static dielectric constant tensor:
#      x y z
#    x 1.774180 0.000000 0.000000 
#    y 0.000000 1.731990 0.000000 
#    z 0.000000 0.000000 1.740360 
# 
# From -- ./inp_files/18152.got.cif
#   From: 2010.05.17/outbox.cif.g08.bks.cpg/sg22_10_cif.got.tgz:18152.got - 2010.06.03 23:40:54.
