data_PCOD9326668
_publ_section_title
;
Structure prediction by ZEFSAII (Michael W. Deem and Ramdas Pophale) SiO2 
 PCOD9326668
Probable space group: F 2 2 2
;
_chemical_formula_sum "Si O2"
_cell_formula_units_Z 68
_cell_length_a 8.085840
_cell_length_b 13.771465
_cell_length_c 25.794225
_cell_angle_alpha 90.000000
_cell_angle_beta 90.000000
_cell_angle_gamma 90.000000
_cell_volume 2872.286585
_symmetry_space_group_name_H-M "F 2 2 2"
_symmetry_group_IT_number 22
_symmetry_cell_setting 'orthorhombic'
loop_
_space_group_symop_operation_xyz
x,y,z
-x,-y,z
x,-y,-z
-x,y,-z
x,1/2+y,1/2+z
-x,1/2-y,1/2+z
x,1/2-y,1/2-z
-x,1/2+y,1/2-z
1/2+x,y,1/2+z
1/2-x,-y,1/2+z
1/2+x,-y,1/2-z
1/2-x,y,1/2-z
1/2+x,1/2+y,z
1/2-x,1/2-y,z
1/2+x,1/2-y,-z
1/2-x,1/2+y,-z
loop_
_atom_site_type_symbol
_atom_site_label
_atom_site_fract_x
_atom_site_fract_y
_atom_site_fract_z
Si Si1 0.964862 0.861202 0.740919
Si Si2 0.670375 0.652334 0.573959
Si Si3 0.814327 0.446534 0.334850
Si Si4 0.500000 0.000000 0.000000
Si Si5 0.334673 0.648473 0.643474
O O1 0.917075 0.750000 0.750000
O O2 0.963396 0.911203 0.796977
O O3 0.837689 0.919815 0.703977
O O4 0.123673 0.855668 0.704851
O O5 0.750000 0.750000 0.549913
O O6 0.808914 0.624619 0.616382
O O7 0.620025 0.570684 0.532790
O O8 0.502036 0.653214 0.609114
O O9 0.769290 0.549198 0.362044
O O10 0.250000 0.750000 0.632366
#
# Coordination Sequence:
#
# PCOD9326668 Si02
#       5
#    16  16  16   4  16
#     4  10  20  35  58  93 133 189 238 285 353 430
#     4  11  23  47  77 105 141 189 239 316 382 457
#     4  10  19  40  63  92 137 186 238 286 356 435
#     4  12  24  48  84 112 140 192 260 318 400 452
#     4  11  24  41  66 103 151 192 247 302 368 448
#
# _framework density 23.674517999999999
#
# number of rings (size 3 to 8) (size 9 to 14) (size 15 to 20)
#    0.000    1.412    2.353    6.353    0.000    7.059 
#    0.000    3.529    0.000    0.000    0.000    0.000 
#    0.000    0.000    0.000    0.000    0.000    0.000 
#
# Total GULP energy -94772.819149 kJ/mol
# GULP energy per Si atom -5574.871715 kJ/mol
# Density = 2.362063 g / cm^3
# Si number density = 23.674518 Si / 1000 Ang^3
#
#
#
# Elastic Constant Matrix: (Units=GPa)
#
#
# Indices 1 2 3 4 5 6 
#
# 1 42.0582 21.7323 26.3017 0.0000 0.0000 0.0000
# 2 21.7323 192.1503 45.7892 0.0000 0.0000 0.0000
# 3 26.3017 45.7892 111.0623 0.0000 0.0000 0.0000
# 4 0.0000 0.0000 0.0000 14.7898 0.0000 0.0000
# 5 0.0000 0.0000 0.0000 0.0000 -177.9274 0.0000
# 6 0.0000 0.0000 0.0000 0.0000 0.0000 35.6163
#
#
#
# Elastic Compliance Matrix: (Units=1/GPa)
#
#
# Indices 1 2 3 4 5 6 
#
# 1 0.028453 -0.001788 -0.006001 0.000000 0.000000 0.000000
# 2 -0.001788 0.005884 -0.002002 0.000000 0.000000 0.000000
# 3 -0.006001 -0.002002 0.011251 0.000000 0.000000 0.000000
# 4 0.000000 0.000000 0.000000 0.067614 0.000000 0.000000
# 5 0.000000 0.000000 0.000000 0.000000 -0.005620 0.000000
# 6 0.000000 0.000000 0.000000 0.000000 0.000000 0.028077
#
#
# Mechanical properties :
#
#
# Convention : Reuss Voigt Hill
#
# Bulk Modulus (GPa) = 38.45448 59.21300 48.83374
# Shear Modulus (GPa) = 30.50458 -8.74110 10.88174
#
# Velocity S-wave (km/s) = 3.59346 -1.92359 2.14625
# Velocity P-wave (km/s) = 5.78753 4.48687 5.17820
#
# Compressibility (1/GPa) = 0.02600477
#
# Stress axis : x y z
#
# Youngs Moduli (GPa) = 35.14521 169.96308 88.88373
#
# Poissons Ratio (x) = 0.30390 0.53340
# Poissons Ratio (y) = 0.06284 0.17797
# Poissons Ratio (z) = 0.21091 0.34032
#
# Static dielectric constant tensor:
#      x y z
#    x 2.073830 0.000000 0.000000 
#    y 0.000000 5.224540 0.000000 
#    z 0.000000 0.000000 1.852140 
# 
# From -- ./inp_files/51635.got.cif
#   From: 2010.05.17/outbox.cif.g08.bks.cpg/sg22_26_cif.got.tgz:51635.got - 2010.06.03 23:40:54.
