data_PCOD9326604
_publ_section_title
;
Structure prediction by ZEFSAII (Michael W. Deem and Ramdas Pophale) SiO2 
 PCOD9326604
Probable space group: F 2 2 2
;
_chemical_formula_sum "Si O2"
_cell_formula_units_Z 116
_cell_length_a 21.723866
_cell_length_b 16.548608
_cell_length_c 14.826335
_cell_angle_alpha 90.000000
_cell_angle_beta 90.000000
_cell_angle_gamma 90.000000
_cell_volume 5330.063617
_symmetry_space_group_name_H-M "F 2 2 2"
_symmetry_group_IT_number 22
_symmetry_cell_setting 'orthorhombic'
loop_
_space_group_symop_operation_xyz
x,y,z
-x,-y,z
x,-y,-z
-x,y,-z
x,1/2+y,1/2+z
-x,1/2-y,1/2+z
x,1/2-y,1/2-z
-x,1/2+y,1/2-z
1/2+x,y,1/2+z
1/2-x,-y,1/2+z
1/2+x,-y,1/2-z
1/2-x,y,1/2-z
1/2+x,1/2+y,z
1/2-x,1/2-y,z
1/2+x,1/2-y,-z
1/2-x,1/2+y,-z
loop_
_atom_site_type_symbol
_atom_site_label
_atom_site_fract_x
_atom_site_fract_y
_atom_site_fract_z
Si Si1 0.871261 0.213101 0.345143
Si Si2 0.897716 0.309021 0.666476
Si Si3 0.178583 0.955621 0.767473
Si Si4 0.358959 0.037330 0.902425
Si Si5 0.526109 0.658604 0.907000
Si Si6 0.000000 0.000000 0.000000
Si Si7 0.788467 0.561761 0.577275
Si Si8 0.186039 0.769771 0.987450
O O1 0.847637 0.250000 0.250000
O O2 0.890396 0.118314 0.358201
O O3 0.922748 0.280651 0.370324
O O4 0.821689 0.214900 0.425246
O O5 0.891760 0.250000 0.750000
O O6 0.853233 0.385226 0.677259
O O7 0.871600 0.264237 0.578104
O O8 0.967216 0.339961 0.657747
O O9 0.250000 0.933901 0.750000
O O10 0.141191 0.969828 0.675856
O O11 0.181881 0.036892 0.827652
O O12 0.285216 0.053710 0.911389
O O13 0.379368 0.000000 0.000000
O O14 0.500000 0.695134 0.000000
O O15 0.538227 0.564625 0.937983
O O16 0.807230 0.500000 0.500000
O O17 0.809277 0.644556 0.534970
O O18 0.250000 0.750000 0.938447
#
# Coordination Sequence:
#
# PCOD9326604 Si02
#       8
#    16  16  16  16  16   4  16  16
#     4  12  25  44  69  99 141 190 233 292 348 416
#     4  12  27  41  68 103 140 183 231 287 353 428
#     4  10  23  39  64  99 139 182 226 287 343 420
#     4  10  23  41  64  95 141 187 228 281 342 428
#     4  10  23  47  72  99 133 178 230 294 353 409
#     4   8  20  44  80 104 126 162 244 308 344 418
#     4  10  19  38  61  95 136 177 228 273 350 414
#     4  12  24  39  67 100 138 181 225 291 353 423
#
# _framework density 21.763344
#
# number of rings (size 3 to 8) (size 9 to 14) (size 15 to 20)
#    0.414    0.828    4.138    1.241    3.862    3.586 
#    1.241    0.000    0.000    3.724    0.000    0.000 
#    0.000    0.000    0.000    0.000    0.000    0.000 
#
# Total GULP energy -161586.121603 kJ/mol
# GULP energy per Si atom -5571.935228 kJ/mol
# Density = 2.171381 g / cm^3
# Si number density = 21.763344 Si / 1000 Ang^3
#
#
#
# Elastic Constant Matrix: (Units=GPa)
#
#
# Indices 1 2 3 4 5 6 
#
# 1 62.0535 17.2093 9.8735 0.0000 0.0000 0.0000
# 2 17.2093 76.1582 16.8789 0.0000 0.0000 0.0000
# 3 9.8735 16.8789 105.7260 0.0000 0.0000 0.0000
# 4 0.0000 0.0000 0.0000 32.9594 0.0000 0.0000
# 5 0.0000 0.0000 0.0000 0.0000 17.4312 0.0000
# 6 0.0000 0.0000 0.0000 0.0000 0.0000 12.7609
#
#
#
# Elastic Compliance Matrix: (Units=1/GPa)
#
#
# Indices 1 2 3 4 5 6 
#
# 1 0.017300 -0.003681 -0.001028 0.000000 0.000000 0.000000
# 2 -0.003681 0.014396 -0.001954 0.000000 0.000000 0.000000
# 3 -0.001028 -0.001954 0.009866 0.000000 0.000000 0.000000
# 4 0.000000 0.000000 0.000000 0.030340 0.000000 0.000000
# 5 0.000000 0.000000 0.000000 0.000000 0.057368 0.000000
# 6 0.000000 0.000000 0.000000 0.000000 0.000000 0.078364
#
#
# Mechanical properties :
#
#
# Convention : Reuss Voigt Hill
#
# Bulk Modulus (GPa) = 35.41786 36.87347 36.14566
# Shear Modulus (GPa) = 21.70389 25.96204 23.83296
#
# Velocity S-wave (km/s) = 3.16138 3.45762 3.31281
# Velocity P-wave (km/s) = 5.44382 5.73759 5.59263
#
# Compressibility (1/GPa) = 0.02823435
#
# Stress axis : x y z
#
# Youngs Moduli (GPa) = 57.80477 69.46573 101.35385
#
# Poissons Ratio (x) = 0.25573 0.10418
# Poissons Ratio (y) = 0.21280 0.19809
# Poissons Ratio (z) = 0.05942 0.13577
#
# Static dielectric constant tensor:
#      x y z
#    x 1.816380 0.000000 0.000000 
#    y 0.000000 2.229070 0.000000 
#    z 0.000000 0.000000 1.987450 
# 
# From -- ./inp_files/32643.got.cif
#   From: 2010.05.17/outbox.cif.g08.bks.cpg/sg22_17_cif.got.tgz:32643.got - 2010.06.03 23:40:54.
