data_PCOD9326165
_publ_section_title
;
Structure prediction by ZEFSAII (Michael W. Deem and Ramdas Pophale) SiO2 
 PCOD9326165
Probable space group: F 2 2 2
;
_chemical_formula_sum "Si O2"
_cell_formula_units_Z 112
_cell_length_a 15.211094
_cell_length_b 26.214702
_cell_length_c 14.278399
_cell_angle_alpha 90.000000
_cell_angle_beta 90.000000
_cell_angle_gamma 90.000000
_cell_volume 5693.572946
_symmetry_space_group_name_H-M "F 2 2 2"
_symmetry_group_IT_number 22
_symmetry_cell_setting 'orthorhombic'
loop_
_space_group_symop_operation_xyz
x,y,z
-x,-y,z
x,-y,-z
-x,y,-z
x,1/2+y,1/2+z
-x,1/2-y,1/2+z
x,1/2-y,1/2-z
-x,1/2+y,1/2-z
1/2+x,y,1/2+z
1/2-x,-y,1/2+z
1/2+x,-y,1/2-z
1/2-x,y,1/2-z
1/2+x,1/2+y,z
1/2-x,1/2-y,z
1/2+x,1/2-y,-z
1/2-x,1/2+y,-z
loop_
_atom_site_type_symbol
_atom_site_label
_atom_site_fract_x
_atom_site_fract_y
_atom_site_fract_z
Si Si1 0.333854 0.784058 0.069938
Si Si2 0.509453 0.945390 0.253573
Si Si3 0.041823 0.213250 0.840372
Si Si4 0.882925 0.852478 0.188011
Si Si5 0.590483 0.552264 0.448970
Si Si6 0.689303 0.150376 0.893327
Si Si7 0.850625 0.868974 0.730451
O O1 0.250000 0.750000 0.101056
O O2 0.416931 0.747276 0.079308
O O3 0.347840 0.832461 0.138897
O O4 0.320594 0.804267 0.966100
O O5 0.566560 0.906096 0.313645
O O6 0.563436 0.957206 0.158457
O O7 0.419070 0.916059 0.225718
O O8 0.500000 0.000000 0.301539
O O9 0.037387 0.250000 0.750000
O O10 0.108842 0.167717 0.811261
O O11 0.947133 0.189131 0.855597
O O12 0.789136 0.854329 0.140027
O O13 0.868283 0.841743 0.299251
O O14 0.619155 0.500000 0.500000
O O15 0.500000 0.568565 0.500000
O O16 0.658056 0.598585 0.444394
O O17 0.750000 0.884397 0.750000
#
# Coordination Sequence:
#
# PCOD9326165 Si02
#       7
#    16  16  16  16  16  16  16
#     4  11  21  35  62  93 120 158 212 258 309 378
#     4  10  19  35  58  88 115 164 208 250 315 379
#     4   9  19  36  62  82 119 165 199 252 316 364
#     4   9  21  42  59  81 130 171 204 254 312 378
#     4  10  18  34  58  87 124 149 196 273 322 358
#     4  10  22  39  60  88 121 167 211 254 310 382
#     4  10  19  36  60  87 127 161 201 262 320 368
#
# _framework density 19.671305
#
# number of rings (size 3 to 8) (size 9 to 14) (size 15 to 20)
#    0.000    2.143    2.857    0.857    0.000    2.286 
#    5.143    7.857    0.000    0.000    0.000    1.000 
#    0.000    0.000    0.000    0.000    0.000    0.000 
#
# Total GULP energy -156318.056679 kJ/mol
# GULP energy per Si atom -5582.787739 kJ/mol
# Density = 1.962653 g / cm^3
# Si number density = 19.671305 Si / 1000 Ang^3
#
#
#
# Elastic Constant Matrix: (Units=GPa)
#
#
# Indices 1 2 3 4 5 6 
#
# 1 99.8516 64.3103 26.8670 0.0000 0.0000 0.0000
# 2 64.3103 124.6847 40.6736 0.0000 0.0000 0.0000
# 3 26.8670 40.6736 54.5749 0.0000 0.0000 0.0000
# 4 0.0000 0.0000 0.0000 24.0153 0.0000 0.0000
# 5 0.0000 0.0000 0.0000 0.0000 18.4317 0.0000
# 6 0.0000 0.0000 0.0000 0.0000 0.0000 21.4655
#
#
#
# Elastic Compliance Matrix: (Units=1/GPa)
#
#
# Indices 1 2 3 4 5 6 
#
# 1 0.015188 -0.007127 -0.002165 0.000000 0.000000 0.000000
# 2 -0.007127 0.013941 -0.006881 0.000000 0.000000 0.000000
# 3 -0.002165 -0.006881 0.024518 0.000000 0.000000 0.000000
# 4 0.000000 0.000000 0.000000 0.041640 0.000000 0.000000
# 5 0.000000 0.000000 0.000000 0.000000 0.054254 0.000000
# 6 0.000000 0.000000 0.000000 0.000000 0.000000 0.046586
#
#
# Mechanical properties :
#
#
# Convention : Reuss Voigt Hill
#
# Bulk Modulus (GPa) = 46.94971 60.31257 53.63114
# Shear Modulus (GPa) = 21.22469 22.59987 21.91228
#
# Velocity S-wave (km/s) = 3.28833 3.39318 3.34117
# Velocity P-wave (km/s) = 6.19164 6.78810 6.49672
#
# Compressibility (1/GPa) = 0.02129939
#
# Stress axis : x y z
#
# Youngs Moduli (GPa) = 65.84202 71.72992 40.78678
#
# Poissons Ratio (x) = 0.51125 0.08830
# Poissons Ratio (y) = 0.46928 0.28067
# Poissons Ratio (z) = 0.14255 0.49360
#
# Static dielectric constant tensor:
#      x y z
#    x 1.691370 0.000000 0.000000 
#    y 0.000000 1.719320 0.000000 
#    z 0.000000 0.000000 1.700910 
# 
# From -- ./inp_files/29775.got.cif
#   From: 2010.05.17/outbox.cif.g08.bks.cpg/sg22_15_cif.got.tgz:29775.got - 2010.06.03 23:40:54.
