data_PCOD9326747
_publ_section_title
;
Structure prediction by ZEFSAII (Michael W. Deem and Ramdas Pophale) SiO2 
 PCOD9326747
Probable space group: F 2 2 2
;
_chemical_formula_sum "Si O2"
_cell_formula_units_Z 104
_cell_length_a 20.590169
_cell_length_b 31.538990
_cell_length_c 8.832574
_cell_angle_alpha 90.000000
_cell_angle_beta 90.000000
_cell_angle_gamma 90.000000
_cell_volume 5735.812913
_symmetry_space_group_name_H-M "F 2 2 2"
_symmetry_group_IT_number 22
_symmetry_cell_setting 'orthorhombic'
loop_
_space_group_symop_operation_xyz
x,y,z
-x,-y,z
x,-y,-z
-x,y,-z
x,1/2+y,1/2+z
-x,1/2-y,1/2+z
x,1/2-y,1/2-z
-x,1/2+y,1/2-z
1/2+x,y,1/2+z
1/2-x,-y,1/2+z
1/2+x,-y,1/2-z
1/2-x,y,1/2-z
1/2+x,1/2+y,z
1/2-x,1/2-y,z
1/2+x,1/2-y,-z
1/2-x,1/2+y,-z
loop_
_atom_site_type_symbol
_atom_site_label
_atom_site_fract_x
_atom_site_fract_y
_atom_site_fract_z
Si Si1 0.828049 0.759264 0.920645
Si Si2 0.368753 0.151461 0.441002
Si Si3 0.813729 0.809802 0.350648
Si Si4 0.940198 0.974463 0.840526
Si Si5 0.755421 0.878222 0.577119
Si Si6 0.310509 0.530131 0.356474
Si Si7 0.000000 0.604223 0.500000
O O1 0.850996 0.750000 0.750000
O O2 0.750000 0.750000 0.919609
O O3 0.850386 0.806450 0.962970
O O4 0.847806 0.728270 0.059099
O O5 0.356697 0.165252 0.269208
O O6 0.315764 0.117316 0.501262
O O7 0.440231 0.133500 0.453768
O O8 0.750000 0.796955 0.250000
O O9 0.790271 0.843137 0.476232
O O10 0.875907 0.971501 0.741862
O O11 0.969017 0.928262 0.878498
O O12 0.000000 0.000000 0.765923
O O13 0.927304 0.000000 0.000000
O O14 0.750000 0.862633 0.750000
O O15 0.793323 0.922360 0.587559
O O16 0.315815 0.500000 0.500000
O O17 0.250000 0.517267 0.250000
#
# Coordination Sequence:
#
# PCOD9326747 Si02
#       7
#    16  16  16  16  16  16   8
#     4  11  20  34  58  85 115 155 197 241 294 353
#     4  11  22  35  59  84 120 152 200 244 295 354
#     4  10  20  33  55  86 112 146 194 245 287 343
#     4   9  21  42  66  82 114 163 207 236 295 368
#     4  10  20  34  55  85 117 148 187 248 305 347
#     4  11  23  37  59  90 122 151 194 254 302 352
#     4  10  21  40  60  86 116 164 198 240 291 358
#
# _framework density 18.131692999999999
#
# number of rings (size 3 to 8) (size 9 to 14) (size 15 to 20)
#    0.000    1.846    3.077    3.692    0.000    5.846 
#    0.000    1.538    0.000    6.462    0.000    0.000 
#    0.000    0.000    0.000    0.000    0.000    0.000 
#
# Total GULP energy -145003.367921 kJ/mol
# GULP energy per Si atom -5577.052612 kJ/mol
# Density = 1.809042 g / cm^3
# Si number density = 18.131693 Si / 1000 Ang^3
#
#
#
# Elastic Constant Matrix: (Units=GPa)
#
#
# Indices 1 2 3 4 5 6 
#
# 1 139.1372 77.5685 45.2628 0.0000 0.0001 -0.0001
# 2 77.5685 109.6760 74.6017 0.0000 0.0000 0.0000
# 3 45.2628 74.6017 114.4471 0.0002 0.0000 -0.0001
# 4 0.0000 0.0000 0.0002 20.0482 -0.0001 -0.0001
# 5 0.0001 0.0000 0.0000 -0.0001 20.8225 0.0001
# 6 -0.0001 0.0000 -0.0001 -0.0001 0.0001 -0.8933
#
#
#
# Elastic Compliance Matrix: (Units=1/GPa)
#
#
# Indices 1 2 3 4 5 6 
#
# 1 0.011991 -0.009441 0.001412 0.000000 0.000000 -0.000001
# 2 -0.009441 0.023814 -0.011789 0.000000 0.000000 0.000002
# 3 0.001412 -0.011789 0.015864 0.000000 0.000000 -0.000002
# 4 0.000000 0.000000 0.000000 0.049880 0.000000 -0.000006
# 5 0.000000 0.000000 0.000000 0.000000 0.048025 0.000007
# 6 -0.000001 0.000002 -0.000002 -0.000006 0.000007 -1.119416
#
#
# Mechanical properties :
#
#
# Convention : Reuss Voigt Hill
#
# Bulk Modulus (GPa) = 83.11033 84.23627 83.67330
# Shear Modulus (GPa) = -5.39844 19.05063 6.82610
#
# Velocity S-wave (km/s) = -1.72737 3.24494 1.94240
# Velocity P-wave (km/s) = 6.47751 7.78450 7.16088
#
# Compressibility (1/GPa) = 0.01203220
#
# Stress axis : x y z
#
# Youngs Moduli (GPa) = 83.39392 41.99217 63.03559
#
# Poissons Ratio (x) = 0.39645 -0.08899
# Poissons Ratio (y) = 0.78733 0.74314
# Poissons Ratio (z) = -0.11772 0.49505
#
# Static dielectric constant tensor:
#      x y z
#    x 1.617450 0.000000 0.000000 
#    y 0.000000 1.662760 0.000000 
#    z 0.000000 0.000000 1.636710 
# 
# From -- ./inp_files/13077.got.cif
#   From: 2010.05.17/outbox.cif.g08.bks.cpg/sg22_7_cif.got.tgz:13077.got - 2010.06.03 23:40:54.
