data_PCOD9326369
_publ_section_title
;
Structure prediction by ZEFSAII (Michael W. Deem and Ramdas Pophale) SiO2 
 PCOD9326369
Probable space group: F 2 2 2
;
_chemical_formula_sum "Si O2"
_cell_formula_units_Z 112
_cell_length_a 13.581917
_cell_length_b 22.452323
_cell_length_c 20.707511
_cell_angle_alpha 90.000000
_cell_angle_beta 90.000000
_cell_angle_gamma 90.000000
_cell_volume 6314.664106
_symmetry_space_group_name_H-M "F 2 2 2"
_symmetry_group_IT_number 22
_symmetry_cell_setting 'orthorhombic'
loop_
_space_group_symop_operation_xyz
x,y,z
-x,-y,z
x,-y,-z
-x,y,-z
x,1/2+y,1/2+z
-x,1/2-y,1/2+z
x,1/2-y,1/2-z
-x,1/2+y,1/2-z
1/2+x,y,1/2+z
1/2-x,-y,1/2+z
1/2+x,-y,1/2-z
1/2-x,y,1/2-z
1/2+x,1/2+y,z
1/2-x,1/2-y,z
1/2+x,1/2-y,-z
1/2-x,1/2+y,-z
loop_
_atom_site_type_symbol
_atom_site_label
_atom_site_fract_x
_atom_site_fract_y
_atom_site_fract_z
Si Si1 0.636559 0.583501 0.232581
Si Si2 0.676460 0.881299 0.800817
Si Si3 0.818806 0.518880 0.400055
Si Si4 0.977856 0.189374 0.217412
Si Si5 0.397389 0.501108 0.355300
Si Si6 0.181532 0.192622 0.892905
Si Si7 0.613290 0.407756 0.019162
O O1 0.750000 0.602008 0.250000
O O2 0.641545 0.542032 0.168658
O O3 0.562168 0.638315 0.217330
O O4 0.601891 0.544030 0.294001
O O5 0.750000 0.912156 0.750000
O O6 0.609598 0.834062 0.763915
O O7 0.611058 0.931929 0.830180
O O8 0.746483 0.849522 0.851422
O O9 0.702473 0.509663 0.393354
O O10 0.834683 0.567571 0.455417
O O11 0.869587 0.458006 0.425221
O O12 0.016264 0.250000 0.250000
O O13 0.918437 0.201383 0.150156
O O14 0.500000 0.500000 0.392470
O O15 0.250000 0.250000 0.905025
O O16 0.151576 0.155132 0.955481
O O17 0.500000 0.404657 0.000000
#
# Coordination Sequence:
#
# PCOD9326369 Si02
#       7
#    16  16  16  16  16  16  16
#     4  10  22  36  58  90 125 157 188 237 300 356
#     4  10  19  33  54  88 119 150 179 235 298 348
#     4  10  21  38  57  88 119 150 193 244 296 350
#     4  11  21  34  57  90 119 152 195 235 291 362
#     4  11  20  34  59  89 121 151 187 237 300 358
#     4  11  22  38  64  85 117 150 196 245 295 345
#     4  11  23  39  63  85 115 153 197 247 295 345
#
# _framework density 17.736494
#
# number of rings (size 3 to 8) (size 9 to 14) (size 15 to 20)
#    0.000    1.429    4.286    3.000    2.000    1.429 
#    0.000    1.429   15.714    0.000    0.000    0.000 
#    0.000    0.000    0.000    0.000    0.000    0.000 
#
# Total GULP energy -156137.270892 kJ/mol
# GULP energy per Si atom -5576.331103 kJ/mol
# Density = 1.769613 g / cm^3
# Si number density = 17.736494 Si / 1000 Ang^3
#
#
#
# Elastic Constant Matrix: (Units=GPa)
#
#
# Indices 1 2 3 4 5 6 
#
# 1 107.9772 39.6344 33.9772 0.0000 0.0000 0.0000
# 2 39.6344 88.8911 29.9333 0.0000 0.0000 0.0000
# 3 33.9772 29.9333 54.3939 0.0000 0.0000 0.0000
# 4 0.0000 0.0000 0.0000 23.6319 0.0000 0.0000
# 5 0.0000 0.0000 0.0000 0.0000 22.3006 0.0000
# 6 0.0000 0.0000 0.0000 0.0000 0.0000 5.7660
#
#
#
# Elastic Compliance Matrix: (Units=1/GPa)
#
#
# Indices 1 2 3 4 5 6 
#
# 1 0.012392 -0.003582 -0.005769 0.000000 0.000000 0.000000
# 2 -0.003582 0.014844 -0.005931 0.000000 0.000000 0.000000
# 3 -0.005769 -0.005931 0.025252 0.000000 0.000000 0.000000
# 4 0.000000 0.000000 0.000000 0.042316 0.000000 0.000000
# 5 0.000000 0.000000 0.000000 0.000000 0.044842 0.000000
# 6 0.000000 0.000000 0.000000 0.000000 0.000000 0.173430
#
#
# Mechanical properties :
#
#
# Convention : Reuss Voigt Hill
#
# Bulk Modulus (GPa) = 45.61476 50.92799 48.27138
# Shear Modulus (GPa) = 14.24714 20.18751 17.21733
#
# Velocity S-wave (km/s) = 2.83727 3.37737 3.11903
# Velocity P-wave (km/s) = 6.04213 6.63211 6.34398
#
# Compressibility (1/GPa) = 0.02192273
#
# Stress axis : x y z
#
# Youngs Moduli (GPa) = 80.70039 67.36590 39.60098
#
# Poissons Ratio (x) = 0.24134 0.22846
# Poissons Ratio (y) = 0.28911 0.23488
# Poissons Ratio (z) = 0.46555 0.39956
#
# Static dielectric constant tensor:
#      x y z
#    x 1.554160 0.000000 0.000000 
#    y 0.000000 1.605460 0.000000 
#    z 0.000000 0.000000 1.622710 
# 
# From -- ./inp_files/42898.got.cif
#   From: 2010.05.17/outbox.cif.g08.bks.cpg/sg22_22_cif.got.tgz:42898.got - 2010.06.03 23:40:54.
