data_PCOD9326016
_publ_section_title
;
Structure prediction by ZEFSAII (Michael W. Deem and Ramdas Pophale) SiO2 
 PCOD9326016
Probable space group: F 2 2 2
;
_chemical_formula_sum "Si O2"
_cell_formula_units_Z 96
_cell_length_a 15.127958
_cell_length_b 13.594774
_cell_length_c 20.522341
_cell_angle_alpha 90.000000
_cell_angle_beta 90.000000
_cell_angle_gamma 90.000000
_cell_volume 4220.648663
_symmetry_space_group_name_H-M "F 2 2 2"
_symmetry_group_IT_number 22
_symmetry_cell_setting 'orthorhombic'
loop_
_space_group_symop_operation_xyz
x,y,z
-x,-y,z
x,-y,-z
-x,y,-z
x,1/2+y,1/2+z
-x,1/2-y,1/2+z
x,1/2-y,1/2-z
-x,1/2+y,1/2-z
1/2+x,y,1/2+z
1/2-x,-y,1/2+z
1/2+x,-y,1/2-z
1/2-x,y,1/2-z
1/2+x,1/2+y,z
1/2-x,1/2-y,z
1/2+x,1/2-y,-z
1/2-x,1/2+y,-z
loop_
_atom_site_type_symbol
_atom_site_label
_atom_site_fract_x
_atom_site_fract_y
_atom_site_fract_z
Si Si1 0.679013 0.428676 0.947482
Si Si2 0.250000 0.591829 0.250000
Si Si3 0.097401 0.951655 0.812769
Si Si4 0.370594 0.986266 0.925610
Si Si5 0.750000 0.750000 0.533918
Si Si6 0.461748 0.114372 0.184747
Si Si7 0.126035 0.313968 0.856467
O O1 0.625348 0.406895 0.882382
O O2 0.765088 0.488658 0.923633
O O3 0.631883 0.500000 0.000000
O O4 0.724094 0.338717 0.986176
O O5 0.173833 0.528783 0.287577
O O6 0.197683 0.656834 0.197424
O O7 0.091716 0.877348 0.751830
O O8 0.000000 0.000000 0.823565
O O9 0.404484 0.897038 0.881312
O O10 0.401018 0.085318 0.892172
O O11 0.398194 0.000000 0.000000
O O12 0.831811 0.753507 0.585042
O O13 0.532734 0.202357 0.178085
O O14 0.500000 0.000000 0.194873
#
# Coordination Sequence:
#
# PCOD9326016 Si02
#       7
#    16   8  16  16   8  16  16
#     4  11  22  41  67  97 135 186 227 273 341 416
#     4  12  18  37  68 103 130 172 216 285 350 405
#     4  11  19  36  68 104 131 170 233 276 336 417
#     4  10  17  35  62  97 130 168 219 277 333 397
#     4  12  24  43  64  99 138 184 232 274 348 412
#     4   9  18  33  60 103 125 164 226 284 336 393
#     4  11  21  36  64  97 131 170 222 279 341 405
#
# _framework density 22.745318000000001
#
# number of rings (size 3 to 8) (size 9 to 14) (size 15 to 20)
#    0.000    1.333   10.000    0.000    0.000    3.667 
#    0.000    0.000   14.667    4.500    0.000    0.000 
#    0.000    0.000    0.000    0.000    0.000    0.000 
#
# Total GULP energy -133631.360768 kJ/mol
# GULP energy per Si atom -5567.973365 kJ/mol
# Density = 2.269355 g / cm^3
# Si number density = 22.745318 Si / 1000 Ang^3
#
#
#
# Elastic Constant Matrix: (Units=GPa)
#
#
# Indices 1 2 3 4 5 6 
#
# 1 87.1814 -2.9515 50.9007 0.0000 0.0000 0.0000
# 2 -2.9515 27.7630 25.4397 0.0000 0.0000 0.0000
# 3 50.9007 25.4397 197.0678 0.0000 0.0000 0.0000
# 4 0.0000 0.0000 0.0000 15.7913 0.0000 0.0000
# 5 0.0000 0.0000 0.0000 0.0000 27.2120 0.0000
# 6 0.0000 0.0000 0.0000 0.0000 0.0000 11.4894
#
#
#
# Elastic Compliance Matrix: (Units=1/GPa)
#
#
# Indices 1 2 3 4 5 6 
#
# 1 0.014219 0.005531 -0.004387 0.000000 0.000000 0.000000
# 2 0.005531 0.043003 -0.006980 0.000000 0.000000 0.000000
# 3 -0.004387 -0.006980 0.007108 0.000000 0.000000 0.000000
# 4 0.000000 0.000000 0.000000 0.063326 0.000000 0.000000
# 5 0.000000 0.000000 0.000000 0.000000 0.036749 0.000000
# 6 0.000000 0.000000 0.000000 0.000000 0.000000 0.087037
#
#
# Mechanical properties :
#
#
# Convention : Reuss Voigt Hill
#
# Bulk Modulus (GPa) = 18.99002 50.97667 34.98335
# Shear Modulus (GPa) = 17.81482 26.80676 22.31079
#
# Velocity S-wave (km/s) = 2.80166 3.43674 3.13532
# Velocity P-wave (km/s) = 4.33968 6.18133 5.34049
#
# Compressibility (1/GPa) = 0.05265924
#
# Stress axis : x y z
#
# Youngs Moduli (GPa) = 70.33005 23.25422 140.67769
#
# Poissons Ratio (x) = -0.12862 0.61709
# Poissons Ratio (y) = -0.38900 0.98192
# Poissons Ratio (z) = 0.30851 0.16231
#
# Static dielectric constant tensor:
#      x y z
#    x 2.123080 0.000000 0.000000 
#    y 0.000000 1.907990 0.000000 
#    z 0.000000 0.000000 2.071350 
# 
# From -- ./inp_files/43506.got.cif
#   From: 2010.05.17/outbox.cif.g08.bks.cpg/sg22_22_cif.got.tgz:43506.got - 2010.06.03 23:40:54.
