data_PCOD9326947
_publ_section_title
;
Structure prediction by ZEFSAII (Michael W. Deem and Ramdas Pophale) SiO2 
 PCOD9326947
Probable space group: F 2 2 2
;
_chemical_formula_sum "Si O2"
_cell_formula_units_Z 80
_cell_length_a 17.185950
_cell_length_b 25.637190
_cell_length_c 10.379321
_cell_angle_alpha 90.000000
_cell_angle_beta 90.000000
_cell_angle_gamma 90.000000
_cell_volume 4573.123285
_symmetry_space_group_name_H-M "F 2 2 2"
_symmetry_group_IT_number 22
_symmetry_cell_setting 'orthorhombic'
loop_
_space_group_symop_operation_xyz
x,y,z
-x,-y,z
x,-y,-z
-x,y,-z
x,1/2+y,1/2+z
-x,1/2-y,1/2+z
x,1/2-y,1/2-z
-x,1/2+y,1/2-z
1/2+x,y,1/2+z
1/2-x,-y,1/2+z
1/2+x,-y,1/2-z
1/2-x,y,1/2-z
1/2+x,1/2+y,z
1/2-x,1/2-y,z
1/2+x,1/2-y,-z
1/2-x,1/2+y,-z
loop_
_atom_site_type_symbol
_atom_site_label
_atom_site_fract_x
_atom_site_fract_y
_atom_site_fract_z
Si Si1 0.201781 0.070879 0.878663
Si Si2 0.310189 0.587242 0.627811
Si Si3 0.913099 0.522038 0.298013
Si Si4 0.414157 0.374042 0.030646
Si Si5 0.657904 0.308670 0.742916
O O1 0.250000 0.079246 0.750000
O O2 0.148789 0.019613 0.853804
O O3 0.261072 0.072272 0.000988
O O4 0.139608 0.116206 0.907882
O O5 0.250000 0.585562 0.750000
O O6 0.375985 0.545722 0.667525
O O7 0.348203 0.645753 0.632285
O O8 0.919710 0.569888 0.398027
O O9 0.000000 0.500000 0.281373
O O10 0.372534 0.336544 0.129751
O O11 0.500000 0.355787 0.000000
O O12 0.623878 0.250000 0.750000
O O13 0.750000 0.302146 0.750000
#
# Coordination Sequence:
#
# PCOD9326947 Si02
#       5
#    16  16  16  16  16
#     4  12  24  35  55  86 121 157 188 240 286 332
#     4  10  20  37  56  86 112 147 204 236 274 351
#     4  11  22  33  57  83 116 158 194 229 281 342
#     4  11  21  36  59  86 115 150 198 238 282 356
#     4   9  17  35  67  86 101 143 208 244 279 336
#
# _framework density 17.493514000000001
#
# number of rings (size 3 to 8) (size 9 to 14) (size 15 to 20)
#    0.000    1.400    8.000    1.200    2.800    0.000 
#    0.000    2.000    4.400    1.200    0.000    0.000 
#    0.000    0.000    0.000    0.000    0.000    0.000 
#
# Total GULP energy -111380.504703 kJ/mol
# GULP energy per Si atom -5569.025235 kJ/mol
# Density = 1.745370 g / cm^3
# Si number density = 17.493514 Si / 1000 Ang^3
#
#
#
# Elastic Constant Matrix: (Units=GPa)
#
#
# Indices 1 2 3 4 5 6 
#
# 1 110.2906 47.6894 59.5028 0.0000 0.0000 0.0000
# 2 47.6894 121.9786 37.9860 0.0000 0.0000 0.0000
# 3 59.5028 37.9860 98.8810 0.0000 0.0000 0.0000
# 4 0.0000 0.0000 0.0000 7.5397 0.0000 0.0000
# 5 0.0000 0.0000 0.0000 0.0000 20.0684 0.0000
# 6 0.0000 0.0000 0.0000 0.0000 0.0000 -98.4293
#
#
#
# Elastic Compliance Matrix: (Units=1/GPa)
#
#
# Indices 1 2 3 4 5 6 
#
# 1 0.014547 -0.003364 -0.007462 0.000000 0.000000 0.000000
# 2 -0.003364 0.010090 -0.001852 0.000000 0.000000 0.000000
# 3 -0.007462 -0.001852 0.015315 0.000000 0.000000 0.000000
# 4 0.000000 0.000000 0.000000 0.132631 0.000000 0.000000
# 5 0.000000 0.000000 0.000000 0.000000 0.049829 0.000000
# 6 0.000000 0.000000 0.000000 0.000000 0.000000 -0.010160
#
#
# Mechanical properties :
#
#
# Convention : Reuss Voigt Hill
#
# Bulk Modulus (GPa) = 68.50694 69.05629 68.78161
# Shear Modulus (GPa) = 20.62083 -1.76609 9.42737
#
# Velocity S-wave (km/s) = 3.43705 -1.00586 2.32395
# Velocity P-wave (km/s) = 7.41602 6.18159 6.82677
#
# Compressibility (1/GPa) = 0.01459706
#
# Stress axis : x y z
#
# Youngs Moduli (GPa) = 68.74245 99.10800 65.29643
#
# Poissons Ratio (x) = 0.33337 0.48722
# Poissons Ratio (y) = 0.23123 0.12093
# Poissons Ratio (z) = 0.51293 0.18355
#
# Static dielectric constant tensor:
#      x y z
#    x 1.616160 0.000000 0.000000 
#    y 0.000000 1.662100 0.000000 
#    z 0.000000 0.000000 1.620240 
# 
# From -- ./inp_files/11608.got.cif
#   From: 2010.05.17/outbox.cif.g08.bks.cpg/sg22_6_cif.got.tgz:11608.got - 2010.06.03 23:40:54.
