data_PCOD9326331
_publ_section_title
;
Structure prediction by ZEFSAII (Michael W. Deem and Ramdas Pophale) SiO2 
 PCOD9326331
Probable space group: F 2 2 2
;
_chemical_formula_sum "Si O2"
_cell_formula_units_Z 116
_cell_length_a 31.838312
_cell_length_b 7.649582
_cell_length_c 24.356684
_cell_angle_alpha 90.000000
_cell_angle_beta 90.000000
_cell_angle_gamma 90.000000
_cell_volume 5932.064990
_symmetry_space_group_name_H-M "F 2 2 2"
_symmetry_group_IT_number 22
_symmetry_cell_setting 'orthorhombic'
loop_
_space_group_symop_operation_xyz
x,y,z
-x,-y,z
x,-y,-z
-x,y,-z
x,1/2+y,1/2+z
-x,1/2-y,1/2+z
x,1/2-y,1/2-z
-x,1/2+y,1/2-z
1/2+x,y,1/2+z
1/2-x,-y,1/2+z
1/2+x,-y,1/2-z
1/2-x,y,1/2-z
1/2+x,1/2+y,z
1/2-x,1/2-y,z
1/2+x,1/2-y,-z
1/2-x,1/2+y,-z
loop_
_atom_site_type_symbol
_atom_site_label
_atom_site_fract_x
_atom_site_fract_y
_atom_site_fract_z
Si Si1 0.548265 0.041605 0.744861
Si Si2 0.611821 0.484190 0.667671
Si Si3 0.124128 0.423504 0.327997
Si Si4 0.811930 0.443001 0.238640
Si Si5 0.750000 0.750000 0.250000
Si Si6 0.662696 0.466178 0.064636
Si Si7 0.745585 0.959198 0.935070
Si Si8 0.845639 0.051270 0.436529
O O1 0.548940 0.250000 0.750000
O O2 0.569083 0.967087 0.801015
O O3 0.581694 0.994094 0.697356
O O4 0.500000 0.000000 0.735292
O O5 0.621038 0.282789 0.681937
O O6 0.651224 0.584877 0.694046
O O7 0.616285 0.499820 0.602717
O O8 0.163599 0.494743 0.293501
O O9 0.130318 0.455684 0.392254
O O10 0.793742 0.250000 0.250000
O O11 0.780917 0.603452 0.222145
O O12 0.709327 0.531925 0.082836
O O13 0.659827 0.258124 0.068405
O O14 0.656762 0.500000 0.000000
O O15 0.750000 0.750000 0.926728
O O16 0.699837 0.022336 0.915762
O O17 0.744451 0.000000 0.000000
O O18 0.851274 0.000000 0.500000
#
# Coordination Sequence:
#
# PCOD9326331 Si02
#       8
#    16  16  16  16   4  16  16  16
#     4   9  20  37  62  87 112 139 178 232 294 362
#     4  10  20  38  56  81 117 149 184 240 295 345
#     4  10  20  38  56  81 117 149 184 240 295 345
#     4  11  22  38  58  79 111 156 199 242 293 348
#     4  12  22  40  52  82 120 152 202 244 292 344
#     4  10  19  32  51  78 109 152 198 241 285 336
#     4   8  16  29  44  65  98 134 187 235 265 303
#     4  10  19  32  51  78 109 152 198 241 285 336
#
# _framework density 19.554741
#
# number of rings (size 3 to 8) (size 9 to 14) (size 15 to 20)
#    0.000    2.207    1.379    2.690    0.000    5.517 
#    0.000    2.759    0.000    0.828    0.000    5.793 
#    0.000    0.000    0.000    0.000    0.000    0.000 
#
# Total GULP energy -161565.111319 kJ/mol
# GULP energy per Si atom -5571.210735 kJ/mol
# Density = 1.951023 g / cm^3
# Si number density = 19.554741 Si / 1000 Ang^3
#
#
#
# Elastic Constant Matrix: (Units=GPa)
#
#
# Indices 1 2 3 4 5 6 
#
# 1 115.3456 6.6978 47.1616 0.0000 0.0000 -0.0001
# 2 6.6978 68.8639 -7.2381 0.0001 0.0000 0.0000
# 3 47.1616 -7.2381 91.3605 0.0000 0.0000 0.0000
# 4 0.0000 0.0001 0.0000 23.3810 0.0000 0.0000
# 5 0.0000 0.0000 0.0000 0.0000 17.5252 0.0000
# 6 -0.0001 0.0000 0.0000 0.0000 0.0000 19.2267
#
#
#
# Elastic Compliance Matrix: (Units=1/GPa)
#
#
# Indices 1 2 3 4 5 6 
#
# 1 0.011185 -0.001709 -0.005909 0.000000 0.000000 0.000000
# 2 -0.001709 0.014904 0.002063 0.000000 0.000000 0.000000
# 3 -0.005909 0.002063 0.014160 0.000000 0.000000 0.000000
# 4 0.000000 0.000000 0.000000 0.042770 0.000000 0.000000
# 5 0.000000 0.000000 0.000000 0.000000 0.057061 0.000000
# 6 0.000000 0.000000 0.000000 0.000000 0.000000 0.052011
#
#
# Mechanical properties :
#
#
# Convention : Reuss Voigt Hill
#
# Bulk Modulus (GPa) = 34.31881 40.97919 37.64900
# Shear Modulus (GPa) = 23.48369 27.28982 25.38676
#
# Velocity S-wave (km/s) = 3.46919 3.73977 3.60702
# Velocity P-wave (km/s) = 5.79959 6.29679 6.05329
#
# Compressibility (1/GPa) = 0.02913854
#
# Stress axis : x y z
#
# Youngs Moduli (GPa) = 89.40579 67.09409 70.62384
#
# Poissons Ratio (x) = 0.11466 0.41733
# Poissons Ratio (y) = 0.15279 -0.14570
# Poissons Ratio (z) = 0.52832 -0.13842
#
# Static dielectric constant tensor:
#      x y z
#    x 1.722780 0.000000 0.000000 
#    y 0.000000 1.671320 0.000000 
#    z 0.000000 0.000000 1.714090 
# 
# From -- ./inp_files/50773.got.cif
#   From: 2010.05.17/outbox.cif.g08.bks.cpg/sg22_26_cif.got.tgz:50773.got - 2010.06.03 23:40:54.
