data_PCOD9326097
_publ_section_title
;
Structure prediction by ZEFSAII (Michael W. Deem and Ramdas Pophale) SiO2 
 PCOD9326097
Probable space group: F 2 2 2
;
_chemical_formula_sum "Si O2"
_cell_formula_units_Z 120
_cell_length_a 27.229886
_cell_length_b 20.081817
_cell_length_c 12.000670
_cell_angle_alpha 90.000000
_cell_angle_beta 90.000000
_cell_angle_gamma 90.000000
_cell_volume 6562.273424
_symmetry_space_group_name_H-M "F 2 2 2"
_symmetry_group_IT_number 22
_symmetry_cell_setting 'orthorhombic'
loop_
_space_group_symop_operation_xyz
x,y,z
-x,-y,z
x,-y,-z
-x,y,-z
x,1/2+y,1/2+z
-x,1/2-y,1/2+z
x,1/2-y,1/2-z
-x,1/2+y,1/2-z
1/2+x,y,1/2+z
1/2-x,-y,1/2+z
1/2+x,-y,1/2-z
1/2-x,y,1/2-z
1/2+x,1/2+y,z
1/2-x,1/2-y,z
1/2+x,1/2-y,-z
1/2-x,1/2+y,-z
loop_
_atom_site_type_symbol
_atom_site_label
_atom_site_fract_x
_atom_site_fract_y
_atom_site_fract_z
Si Si1 0.899088 0.159837 0.463346
Si Si2 0.847658 0.821153 0.189040
Si Si3 0.303328 0.922936 0.972016
Si Si4 0.250000 0.112698 0.250000
Si Si5 0.763325 0.825780 0.879520
Si Si6 0.452465 0.668553 0.241193
Si Si7 0.940829 0.674406 0.200567
Si Si8 0.626664 0.310435 0.064846
O O1 0.855751 0.112434 0.506031
O O2 0.926398 0.138400 0.350640
O O3 0.936657 0.173775 0.566184
O O4 0.875649 0.230350 0.426325
O O5 0.842059 0.750000 0.250000
O O6 0.792603 0.847517 0.185757
O O7 0.889847 0.858280 0.259366
O O8 0.870529 0.820394 0.066850
O O9 0.281806 0.921138 0.846731
O O10 0.266020 0.880000 0.048886
O O11 0.306524 0.000000 0.000000
O O12 0.750000 0.830618 0.750000
O O13 0.750000 0.750000 0.918035
O O14 0.821690 0.834923 0.887921
O O15 0.454201 0.750000 0.250000
O O16 0.509015 0.645870 0.248859
O O17 0.419203 0.658467 0.131540
O O18 0.939212 0.750000 0.250000
#
# Coordination Sequence:
#
# PCOD9326097 Si02
#       8
#    16  16  16   8  16  16  16  16
#     4  11  19  36  56  80 120 158 195 244 301 367
#     4  11  20  32  57  84 117 152 194 240 297 359
#     4  12  26  40  60  88 120 161 204 257 311 375
#     4  12  23  40  56  84 115 154 204 246 300 376
#     4  11  23  37  60  86 123 164 204 249 307 376
#     4   9  21  31  52  83 119 153 197 243 299 358
#     4  10  18  32  52  85 115 155 188 244 306 350
#     4  11  19  34  54  84 116 158 199 238 301 364
#
# _framework density 18.286346000000002
#
# number of rings (size 3 to 8) (size 9 to 14) (size 15 to 20)
#    0.000    1.200    6.667    1.400    4.667    0.533 
#    0.000    0.000    0.000    1.600    0.000    0.000 
#    0.000    1.067    0.000    0.000    0.000    0.000 
#
# Total GULP energy -167055.314822 kJ/mol
# GULP energy per Si atom -5568.510494 kJ/mol
# Density = 1.824473 g / cm^3
# Si number density = 18.286346 Si / 1000 Ang^3
#
#
#
# Elastic Constant Matrix: (Units=GPa)
#
#
# Indices 1 2 3 4 5 6 
#
# 1 135.5805 30.9504 38.3496 0.0000 0.0000 0.0000
# 2 30.9504 53.3688 28.5579 0.0000 0.0000 0.0000
# 3 38.3496 28.5579 101.9203 0.0000 0.0000 0.0000
# 4 0.0000 0.0000 0.0000 8.6622 0.0000 0.0000
# 5 0.0000 0.0000 0.0000 0.0000 15.5729 0.0000
# 6 0.0000 0.0000 0.0000 0.0000 0.0000 5.8984
#
#
#
# Elastic Compliance Matrix: (Units=1/GPa)
#
#
# Indices 1 2 3 4 5 6 
#
# 1 0.008916 -0.003971 -0.002242 0.000000 0.000000 0.000000
# 2 -0.003971 0.023811 -0.005178 0.000000 0.000000 0.000000
# 3 -0.002242 -0.005178 0.012106 0.000000 0.000000 0.000000
# 4 0.000000 0.000000 0.000000 0.115445 0.000000 0.000000
# 5 0.000000 0.000000 0.000000 0.000000 0.064214 0.000000
# 6 0.000000 0.000000 0.000000 0.000000 0.000000 0.169538
#
#
# Mechanical properties :
#
#
# Convention : Reuss Voigt Hill
#
# Bulk Modulus (GPa) = 45.34826 54.06504 49.70665
# Shear Modulus (GPa) = 11.78793 18.89414 15.34104
#
# Velocity S-wave (km/s) = 2.54171 3.21789 2.89958
# Velocity P-wave (km/s) = 5.78503 6.59063 6.20092
#
# Compressibility (1/GPa) = 0.02205156
#
# Stress axis : x y z
#
# Youngs Moduli (GPa) = 112.15210 41.99730 82.60326
#
# Poissons Ratio (x) = 0.16677 0.18522
# Poissons Ratio (y) = 0.44537 0.42769
# Poissons Ratio (z) = 0.25148 0.21745
#
# Static dielectric constant tensor:
#      x y z
#    x 1.678390 0.000000 0.000000 
#    y 0.000000 1.653110 0.000000 
#    z 0.000000 0.000000 1.694460 
# 
# From -- ./inp_files/24820.got.cif
#   From: 2010.05.17/outbox.cif.g08.bks.cpg/sg22_13_cif.got.tgz:24820.got - 2010.06.03 23:40:54.
