data_PCOD9326737
_publ_section_title
;
Structure prediction by ZEFSAII (Michael W. Deem and Ramdas Pophale) SiO2 
 PCOD9326737
Probable space group: F 2 2 2
;
_chemical_formula_sum "Si O2"
_cell_formula_units_Z 64
_cell_length_a 18.994296
_cell_length_b 15.432969
_cell_length_c 11.910448
_cell_angle_alpha 90.000000
_cell_angle_beta 90.000000
_cell_angle_gamma 90.000000
_cell_volume 3491.409448
_symmetry_space_group_name_H-M "F 2 2 2"
_symmetry_group_IT_number 22
_symmetry_cell_setting 'orthorhombic'
loop_
_space_group_symop_operation_xyz
x,y,z
-x,-y,z
x,-y,-z
-x,y,-z
x,1/2+y,1/2+z
-x,1/2-y,1/2+z
x,1/2-y,1/2-z
-x,1/2+y,1/2-z
1/2+x,y,1/2+z
1/2-x,-y,1/2+z
1/2+x,-y,1/2-z
1/2-x,y,1/2-z
1/2+x,1/2+y,z
1/2-x,1/2-y,z
1/2+x,1/2-y,-z
1/2-x,1/2+y,-z
loop_
_atom_site_type_symbol
_atom_site_label
_atom_site_fract_x
_atom_site_fract_y
_atom_site_fract_z
Si Si1 0.582360 0.479017 0.625511
Si Si2 0.811097 0.363671 0.532737
Si Si3 0.178129 0.473356 0.683323
Si Si4 0.660711 0.697957 0.367375
O O1 0.500000 0.500000 0.628429
O O2 0.609046 0.500000 0.500000
O O3 0.619944 0.535741 0.720979
O O4 0.604900 0.378996 0.645124
O O5 0.839262 0.441782 0.609401
O O6 0.810156 0.396843 0.405586
O O7 0.733204 0.343463 0.583833
O O8 0.855454 0.276057 0.547097
O O9 0.250000 0.489800 0.750000
O O10 0.670235 0.750000 0.250000
#
# Coordination Sequence:
#
# PCOD9326737 Si02
#       4
#    16  16  16  16
#     4  11  24  42  61  88 128 176 218 253 315 389
#     4  10  20  32  63 101 120 151 211 266 315 364
#     4  11  19  36  62  95 126 161 203 268 319 366
#     4  11  19  38  64  96 125 164 212 255 315 390
#
# _framework density 18.330704999999998
#
# number of rings (size 3 to 8) (size 9 to 14) (size 15 to 20)
#    0.000    1.250    5.000    3.000    0.000    0.000 
#    0.000   16.250    0.000    0.000    0.000    0.000 
#    0.000    0.000    0.000    0.000    0.000    0.000 
#
# Total GULP energy -89182.492698 kJ/mol
# GULP energy per Si atom -5573.905794 kJ/mol
# Density = 1.828898 g / cm^3
# Si number density = 18.330705 Si / 1000 Ang^3
#
#
#
# Elastic Constant Matrix: (Units=GPa)
#
#
# Indices 1 2 3 4 5 6 
#
# 1 62.0234 31.4052 37.8465 0.0000 0.0000 0.0000
# 2 31.4052 105.3062 50.5781 0.0000 0.0000 0.0000
# 3 37.8465 50.5781 150.1036 0.0000 0.0000 0.0000
# 4 0.0000 0.0000 0.0000 40.1402 0.0000 0.0000
# 5 0.0000 0.0000 0.0000 0.0000 22.3403 0.0000
# 6 0.0000 0.0000 0.0000 0.0000 0.0000 21.8929
#
#
#
# Elastic Compliance Matrix: (Units=1/GPa)
#
#
# Indices 1 2 3 4 5 6 
#
# 1 0.020602 -0.004354 -0.003727 0.000000 0.000000 0.000000
# 2 -0.004354 0.012250 -0.003030 0.000000 0.000000 0.000000
# 3 -0.003727 -0.003030 0.008623 0.000000 0.000000 0.000000
# 4 0.000000 0.000000 0.000000 0.024913 0.000000 0.000000
# 5 0.000000 0.000000 0.000000 0.000000 0.044762 0.000000
# 6 0.000000 0.000000 0.000000 0.000000 0.000000 0.045677
#
#
# Mechanical properties :
#
#
# Convention : Reuss Voigt Hill
#
# Bulk Modulus (GPa) = 51.94183 61.89919 56.92051
# Shear Modulus (GPa) = 26.95912 30.04823 28.50368
#
# Velocity S-wave (km/s) = 3.83914 4.05313 3.94759
# Velocity P-wave (km/s) = 6.93177 7.46627 7.20398
#
# Compressibility (1/GPa) = 0.01925231
#
# Stress axis : x y z
#
# Youngs Moduli (GPa) = 48.53914 81.63421 115.97135
#
# Poissons Ratio (x) = 0.35542 0.43228
# Poissons Ratio (y) = 0.21133 0.35138
# Poissons Ratio (z) = 0.18093 0.24734
#
# Static dielectric constant tensor:
#      x y z
#    x 1.631270 0.000000 0.000000 
#    y 0.000000 1.678830 0.000000 
#    z 0.000000 0.000000 1.669570 
# 
# From -- ./inp_files/19365.got.cif
#   From: 2010.05.17/outbox.cif.g08.bks.cpg/sg22_10_cif.got.tgz:19365.got - 2010.06.03 23:40:54.
