data_PCOD9326189
_publ_section_title
;
Structure prediction by ZEFSAII (Michael W. Deem and Ramdas Pophale) SiO2 
 PCOD9326189
Probable space group: F 2 2 2
;
_chemical_formula_sum "Si O2"
_cell_formula_units_Z 112
_cell_length_a 12.026461
_cell_length_b 23.886610
_cell_length_c 17.723687
_cell_angle_alpha 90.000000
_cell_angle_beta 90.000000
_cell_angle_gamma 90.000000
_cell_volume 5091.508087
_symmetry_space_group_name_H-M "F 2 2 2"
_symmetry_group_IT_number 22
_symmetry_cell_setting 'orthorhombic'
loop_
_space_group_symop_operation_xyz
x,y,z
-x,-y,z
x,-y,-z
-x,y,-z
x,1/2+y,1/2+z
-x,1/2-y,1/2+z
x,1/2-y,1/2-z
-x,1/2+y,1/2-z
1/2+x,y,1/2+z
1/2-x,-y,1/2+z
1/2+x,-y,1/2-z
1/2-x,y,1/2-z
1/2+x,1/2+y,z
1/2-x,1/2-y,z
1/2+x,1/2-y,-z
1/2-x,1/2+y,-z
loop_
_atom_site_type_symbol
_atom_site_label
_atom_site_fract_x
_atom_site_fract_y
_atom_site_fract_z
Si Si1 0.675406 0.370470 0.622728
Si Si2 0.917807 0.856287 0.095421
Si Si3 0.852183 0.613636 0.573414
Si Si4 0.651975 0.560210 0.529284
Si Si5 0.043862 0.236109 0.337762
Si Si6 0.826377 0.163964 0.315164
Si Si7 0.520236 0.065276 0.183607
O O1 0.806178 0.374080 0.638078
O O2 0.651671 0.395292 0.538800
O O3 0.634607 0.306817 0.629875
O O4 0.599043 0.405139 0.680223
O O5 0.027247 0.893333 0.110109
O O6 0.953121 0.793963 0.117809
O O7 0.882080 0.859847 0.007702
O O8 0.779242 0.558574 0.559205
O O9 0.761341 0.649651 0.618976
O O10 0.623926 0.500000 0.500000
O O11 0.568992 0.570137 0.598002
O O12 0.065661 0.250000 0.250000
O O13 0.925288 0.204342 0.341198
O O14 0.750000 0.188222 0.250000
O O15 0.888084 0.107791 0.280731
O O16 0.500000 0.000000 0.203695
#
# Coordination Sequence:
#
# PCOD9326189 Si02
#       7
#    16  16  16  16  16  16  16
#     4  10  21  35  57  94 125 163 211 268 318 403
#     4  10  21  41  56  86 137 166 215 270 333 396
#     4   9  21  40  58  91 126 169 211 273 325 396
#     4  10  18  34  64  92 127 162 211 271 332 393
#     4  11  24  42  66  93 125 179 224 273 338 404
#     4  10  22  42  69  91 125 168 234 276 329 407
#     4  10  19  35  65  95 126 162 213 274 337 396
#
# _framework density 21.997412000000001
#
# number of rings (size 3 to 8) (size 9 to 14) (size 15 to 20)
#    0.000    2.000    1.429    1.714    0.000    4.286 
#   28.286    5.714    9.429    0.000    0.000    0.000 
#    0.000    0.000    0.000    0.000    0.000    0.000 
#
# Total GULP energy -156205.379442 kJ/mol
# GULP energy per Si atom -5578.763551 kJ/mol
# Density = 2.194735 g / cm^3
# Si number density = 21.997412 Si / 1000 Ang^3
#
#
#
# Elastic Constant Matrix: (Units=GPa)
#
#
# Indices 1 2 3 4 5 6 
#
# 1 196.3470 39.9045 21.5489 0.0000 0.0000 0.0000
# 2 39.9045 58.5628 0.3458 0.0000 0.0000 0.0000
# 3 21.5489 0.3458 47.4952 0.0000 0.0000 0.0000
# 4 0.0000 0.0000 0.0000 2.1565 0.0000 0.0000
# 5 0.0000 0.0000 0.0000 0.0000 12.7920 0.0000
# 6 0.0000 0.0000 0.0000 0.0000 0.0000 16.9677
#
#
#
# Elastic Compliance Matrix: (Units=1/GPa)
#
#
# Indices 1 2 3 4 5 6 
#
# 1 0.006266 -0.004253 -0.002812 0.000000 0.000000 0.000000
# 2 -0.004253 0.019963 0.001784 0.000000 0.000000 0.000000
# 3 -0.002812 0.001784 0.022318 0.000000 0.000000 0.000000
# 4 0.000000 0.000000 0.000000 0.463705 0.000000 0.000000
# 5 0.000000 0.000000 0.000000 0.000000 0.078174 0.000000
# 6 0.000000 0.000000 0.000000 0.000000 0.000000 0.058935
#
#
# Mechanical properties :
#
#
# Convention : Reuss Voigt Hill
#
# Bulk Modulus (GPa) = 26.32597 47.33371 36.82984
# Shear Modulus (GPa) = 7.43401 22.42365 14.92883
#
# Velocity S-wave (km/s) = 1.84033 3.19623 2.60794
# Velocity P-wave (km/s) = 4.06319 5.93176 5.08406
#
# Compressibility (1/GPa) = 0.03798530
#
# Stress axis : x y z
#
# Youngs Moduli (GPa) = 159.59154 50.09232 44.80771
#
# Poissons Ratio (x) = 0.21304 0.12600
# Poissons Ratio (y) = 0.67875 -0.07995
# Poissons Ratio (z) = 0.44877 -0.08938
#
# Static dielectric constant tensor:
#      x y z
#    x 1.854900 0.000000 0.000000 
#    y 0.000000 1.836420 0.000000 
#    z 0.000000 0.000000 1.951690 
# 
# From -- ./inp_files/42889.got.cif
#   From: 2010.05.17/outbox.cif.g08.bks.cpg/sg22_22_cif.got.tgz:42889.got - 2010.06.03 23:40:54.
