data_PCOD9326409
_publ_section_title
;
Structure prediction by ZEFSAII (Michael W. Deem and Ramdas Pophale) SiO2 
 PCOD9326409
Probable space group: F 2 2 2
;
_chemical_formula_sum "Si O2"
_cell_formula_units_Z 116
_cell_length_a 30.806598
_cell_length_b 8.487725
_cell_length_c 23.259355
_cell_angle_alpha 90.000000
_cell_angle_beta 90.000000
_cell_angle_gamma 90.000000
_cell_volume 6081.808045
_symmetry_space_group_name_H-M "F 2 2 2"
_symmetry_group_IT_number 22
_symmetry_cell_setting 'orthorhombic'
loop_
_space_group_symop_operation_xyz
x,y,z
-x,-y,z
x,-y,-z
-x,y,-z
x,1/2+y,1/2+z
-x,1/2-y,1/2+z
x,1/2-y,1/2-z
-x,1/2+y,1/2-z
1/2+x,y,1/2+z
1/2-x,-y,1/2+z
1/2+x,-y,1/2-z
1/2-x,y,1/2-z
1/2+x,1/2+y,z
1/2-x,1/2-y,z
1/2+x,1/2-y,-z
1/2-x,1/2+y,-z
loop_
_atom_site_type_symbol
_atom_site_label
_atom_site_fract_x
_atom_site_fract_y
_atom_site_fract_z
Si Si1 0.492070 0.744163 0.405561
Si Si2 0.464331 0.101402 0.786977
Si Si3 0.069460 0.467583 0.432142
Si Si4 0.000000 0.500000 0.000000
Si Si5 0.689267 0.846420 0.810916
Si Si6 0.761184 0.423822 0.681509
Si Si7 0.882611 0.066879 0.735357
Si Si8 0.354739 0.453061 0.851585
O O1 0.487418 0.664208 0.344050
O O2 0.540359 0.812202 0.418971
O O3 0.477915 0.620711 0.455112
O O4 0.459150 0.889846 0.406801
O O5 0.450293 0.250000 0.750000
O O6 0.500000 0.000000 0.752828
O O7 0.424258 0.987649 0.799861
O O8 0.071333 0.500000 0.500000
O O9 0.117101 0.481361 0.404044
O O10 0.696779 0.750000 0.750000
O O11 0.662173 0.727194 0.851047
O O12 0.732389 0.925048 0.837048
O O13 0.659454 0.996181 0.795268
O O14 0.750000 0.421310 0.750000
O O15 0.750000 0.250000 0.659281
O O16 0.810879 0.453150 0.664724
O O17 0.880373 0.250000 0.750000
O O18 0.885255 0.977535 0.796305
#
# Coordination Sequence:
#
# PCOD9326409 Si02
#       8
#    16  16  16   4  16  16  16  16
#     4  11  23  43  66  88 121 168 215 270 317 380
#     4  12  26  38  54  87 126 172 202 254 322 387
#     4  11  23  43  66  87 117 160 219 267 317 364
#     4  12  20  42  68  96 108 166 236 274 324 346
#     4  10  19  34  55  87 121 158 201 240 297 370
#     4  11  20  35  58  89 125 164 201 242 303 376
#     4  11  22  36  53  84 127 165 202 243 304 379
#     4  11  23  35  63  90 123 165 201 262 305 376
#
# _framework density 19.073276
#
# number of rings (size 3 to 8) (size 9 to 14) (size 15 to 20)
#    0.000    0.966    4.828    4.966    5.793    0.000 
#    0.000    0.000    0.000    1.655    0.000    0.000 
#    0.000    0.000    0.000    0.000    0.000    0.000 
#
# Total GULP energy -161744.928080 kJ/mol
# GULP energy per Si atom -5577.411313 kJ/mol
# Density = 1.902986 g / cm^3
# Si number density = 19.073276 Si / 1000 Ang^3
#
#
#
# Elastic Constant Matrix: (Units=GPa)
#
#
# Indices 1 2 3 4 5 6 
#
# 1 130.2139 55.3988 36.3507 0.0000 0.0000 0.0000
# 2 55.3988 128.4541 25.9184 0.0000 0.0000 0.0000
# 3 36.3507 25.9184 57.7778 0.0000 0.0000 0.0000
# 4 0.0000 0.0000 0.0000 18.6715 0.0000 0.0000
# 5 0.0000 0.0000 0.0000 0.0000 13.2008 0.0000
# 6 0.0000 0.0000 0.0000 0.0000 0.0000 26.0352
#
#
#
# Elastic Compliance Matrix: (Units=1/GPa)
#
#
# Indices 1 2 3 4 5 6 
#
# 1 0.010609 -0.003550 -0.005082 0.000000 0.000000 0.000000
# 2 -0.003550 0.009747 -0.002139 0.000000 0.000000 0.000000
# 3 -0.005082 -0.002139 0.021465 0.000000 0.000000 0.000000
# 4 0.000000 0.000000 0.000000 0.053558 0.000000 0.000000
# 5 0.000000 0.000000 0.000000 0.000000 0.075753 0.000000
# 6 0.000000 0.000000 0.000000 0.000000 0.000000 0.038410
#
#
# Mechanical properties :
#
#
# Convention : Reuss Voigt Hill
#
# Bulk Modulus (GPa) = 49.31293 61.30906 55.31100
# Shear Modulus (GPa) = 21.02231 24.83334 22.92782
#
# Velocity S-wave (km/s) = 3.32352 3.61223 3.47088
# Velocity P-wave (km/s) = 6.37482 7.04354 6.71750
#
# Compressibility (1/GPa) = 0.02027866
#
# Stress axis : x y z
#
# Youngs Moduli (GPa) = 94.26301 102.59083 46.58823
#
# Poissons Ratio (x) = 0.36418 0.23676
# Poissons Ratio (y) = 0.33462 0.09966
# Poissons Ratio (z) = 0.47904 0.21947
#
# Static dielectric constant tensor:
#      x y z
#    x 1.716970 0.000000 0.000000 
#    y 0.000000 1.732510 0.000000 
#    z 0.000000 0.000000 1.661350 
# 
# From -- ./inp_files/50754.got.cif
#   From: 2010.05.17/outbox.cif.g08.bks.cpg/sg22_26_cif.got.tgz:50754.got - 2010.06.03 23:40:54.
