data_PCOD9326177
_publ_section_title
;
Structure prediction by ZEFSAII (Michael W. Deem and Ramdas Pophale) SiO2 
 PCOD9326177
Probable space group: F 2 2 2
;
_chemical_formula_sum "Si O2"
_cell_formula_units_Z 92
_cell_length_a 21.728491
_cell_length_b 20.701795
_cell_length_c 9.471264
_cell_angle_alpha 90.000000
_cell_angle_beta 90.000000
_cell_angle_gamma 90.000000
_cell_volume 4260.352288
_symmetry_space_group_name_H-M "F 2 2 2"
_symmetry_group_IT_number 22
_symmetry_cell_setting 'orthorhombic'
loop_
_space_group_symop_operation_xyz
x,y,z
-x,-y,z
x,-y,-z
-x,y,-z
x,1/2+y,1/2+z
-x,1/2-y,1/2+z
x,1/2-y,1/2-z
-x,1/2+y,1/2-z
1/2+x,y,1/2+z
1/2-x,-y,1/2+z
1/2+x,-y,1/2-z
1/2-x,y,1/2-z
1/2+x,1/2+y,z
1/2-x,1/2-y,z
1/2+x,1/2-y,-z
1/2-x,1/2+y,-z
loop_
_atom_site_type_symbol
_atom_site_label
_atom_site_fract_x
_atom_site_fract_y
_atom_site_fract_z
Si Si1 0.125121 0.698379 0.135273
Si Si2 0.633515 0.424402 0.518741
Si Si3 0.439918 0.729559 0.907920
Si Si4 0.750000 0.750000 0.926662
Si Si5 0.000000 0.000000 0.000000
Si Si6 0.900023 0.587359 0.345233
Si Si7 0.731683 0.621884 0.088812
O O1 0.098063 0.750000 0.250000
O O2 0.197774 0.708096 0.151762
O O3 0.109770 0.622730 0.109514
O O4 0.110549 0.726249 0.981295
O O5 0.621283 0.500000 0.500000
O O6 0.606220 0.408598 0.674716
O O7 0.707450 0.411936 0.525233
O O8 0.450791 0.750000 0.750000
O O9 0.420319 0.656008 0.906792
O O10 0.500000 0.739706 0.000000
O O11 0.720179 0.691421 0.016750
O O12 0.047369 0.960667 0.899794
O O13 0.830371 0.578944 0.405715
O O14 0.750000 0.635912 0.250000
#
# Coordination Sequence:
#
# PCOD9326177 Si02
#       7
#    16  16  16   8   4  16  16
#     4  11  23  40  67 103 138 179 230 289 352 420
#     4  10  23  44  66 100 143 186 229 287 372 438
#     4  12  24  45  71  97 129 170 232 295 347 409
#     4  10  18  34  62 100 139 170 215 292 357 404
#     4  12  28  44  70  96 148 192 246 296 360 432
#     4  11  23  45  67  99 132 188 236 292 348 436
#     4   9  19  35  67  99 132 173 230 286 358 424
#
# _framework density 21.594457999999999
#
# number of rings (size 3 to 8) (size 9 to 14) (size 15 to 20)
#    0.000    1.391    4.348    1.043    1.217    1.391 
#    3.130    3.913    0.000    0.000    0.000    0.000 
#    0.000    0.000    0.000    0.000    0.000    0.000 
#
# Total GULP energy -128106.178763 kJ/mol
# GULP energy per Si atom -5569.833859 kJ/mol
# Density = 2.154531 g / cm^3
# Si number density = 21.594458 Si / 1000 Ang^3
#
#
#
# Elastic Constant Matrix: (Units=GPa)
#
#
# Indices 1 2 3 4 5 6 
#
# 1 71.5231 7.7891 16.5487 0.0001 0.0000 0.0000
# 2 7.7891 128.0114 28.0359 0.0001 0.0000 0.0000
# 3 16.5487 28.0359 79.1025 0.0003 -0.0002 -0.0001
# 4 0.0001 0.0001 0.0003 31.0983 -0.0001 -0.0001
# 5 0.0000 0.0000 -0.0002 -0.0001 14.7678 0.0001
# 6 0.0000 0.0000 -0.0001 -0.0001 0.0001 6.8587
#
#
#
# Elastic Compliance Matrix: (Units=1/GPa)
#
#
# Indices 1 2 3 4 5 6 
#
# 1 0.014699 -0.000240 -0.002990 0.000000 0.000000 0.000000
# 2 -0.000240 0.008473 -0.002953 0.000000 0.000000 0.000000
# 3 -0.002990 -0.002953 0.014314 0.000000 0.000000 0.000000
# 4 0.000000 0.000000 0.000000 0.032156 0.000000 0.000000
# 5 0.000000 0.000000 0.000000 0.000000 0.067715 -0.000001
# 6 0.000000 0.000000 0.000000 0.000000 -0.000001 0.145800
#
#
# Mechanical properties :
#
#
# Convention : Reuss Voigt Hill
#
# Bulk Modulus (GPa) = 39.80731 42.59824 41.20278
# Shear Modulus (GPa) = 16.45294 25.62918 21.04106
#
# Velocity S-wave (km/s) = 2.76326 3.44879 3.12488
# Velocity P-wave (km/s) = 5.35302 5.96894 5.66935
#
# Compressibility (1/GPa) = 0.02512101
#
# Stress axis : x y z
#
# Youngs Moduli (GPa) = 68.02965 118.02042 69.86155
#
# Poissons Ratio (x) = 0.02827 0.20891
# Poissons Ratio (y) = 0.01629 0.20630
# Poissons Ratio (z) = 0.20343 0.34851
#
# Static dielectric constant tensor:
#      x y z
#    x -0.237530 0.000000 0.000000 
#    y 0.000000 1.796090 0.000000 
#    z 0.000000 0.000000 1.886570 
# 
# From -- ./inp_files/13765.got.cif
#   From: 2010.05.17/outbox.cif.g08.bks.cpg/sg22_7_cif.got.tgz:13765.got - 2010.06.03 23:40:54.
