data_PCOD9326462
_publ_section_title
;
Structure prediction by ZEFSAII (Michael W. Deem and Ramdas Pophale) SiO2 
 PCOD9326462
Probable space group: F 2 2 2
;
_chemical_formula_sum "Si O2"
_cell_formula_units_Z 88
_cell_length_a 19.956188
_cell_length_b 34.117590
_cell_length_c 5.811776
_cell_angle_alpha 90.000000
_cell_angle_beta 90.000000
_cell_angle_gamma 90.000000
_cell_volume 3956.988605
_symmetry_space_group_name_H-M "F 2 2 2"
_symmetry_group_IT_number 22
_symmetry_cell_setting 'orthorhombic'
loop_
_space_group_symop_operation_xyz
x,y,z
-x,-y,z
x,-y,-z
-x,y,-z
x,1/2+y,1/2+z
-x,1/2-y,1/2+z
x,1/2-y,1/2-z
-x,1/2+y,1/2-z
1/2+x,y,1/2+z
1/2-x,-y,1/2+z
1/2+x,-y,1/2-z
1/2-x,y,1/2-z
1/2+x,1/2+y,z
1/2-x,1/2-y,z
1/2+x,1/2-y,-z
1/2-x,1/2+y,-z
loop_
_atom_site_type_symbol
_atom_site_label
_atom_site_fract_x
_atom_site_fract_y
_atom_site_fract_z
Si Si1 0.431795 0.378094 0.413435
Si Si2 0.813103 0.646852 0.416878
Si Si3 0.326994 0.735507 0.006516
Si Si4 0.664861 0.077509 0.260991
Si Si5 0.434810 0.045634 0.362649
Si Si6 0.849393 0.000000 0.500000
O O1 0.500000 0.357308 0.500000
O O2 0.380943 0.358777 0.232181
O O3 0.383613 0.394583 0.612477
O O4 0.456754 0.416869 0.284127
O O5 0.750000 0.650736 0.250000
O O6 0.823719 0.688641 0.533284
O O7 0.796530 0.609593 0.580097
O O8 0.358468 0.750000 0.250000
O O9 0.250000 0.750000 0.004862
O O10 0.353189 0.750000 0.750000
O O11 0.621798 0.056923 0.457137
O O12 0.687684 0.040003 0.097534
O O13 0.500000 0.035527 0.500000
O O14 0.399327 0.015443 0.194867
#
# Coordination Sequence:
#
# PCOD9326462 Si02
#       6
#    16  16  16  16  16   8
#     4  10  21  39  63  98 137 179 233 296 368 437
#     4  11  24  41  67 111 141 187 242 305 378 454
#     4  10  21  40  70 107 153 178 227 310 379 429
#     4  10  22  37  61  92 138 174 234 300 362 435
#     4  10  19  35  55  88 128 170 230 296 363 421
#     4  10  22  35  54  98 128 182 240 307 364 430
#
# _framework density 22.239132999999999
#
# number of rings (size 3 to 8) (size 9 to 14) (size 15 to 20)
#    0.000    1.818    3.636    0.545    2.545    2.909 
#    3.273    0.000    0.000    0.000  174.909    0.000 
#    0.000    0.000    0.000    0.000    0.000    0.000 
#
# Total GULP energy -122555.021473 kJ/mol
# GULP energy per Si atom -5570.682794 kJ/mol
# Density = 2.218852 g / cm^3
# Si number density = 22.239133 Si / 1000 Ang^3
#
#
#
# Elastic Constant Matrix: (Units=GPa)
#
#
# Indices 1 2 3 4 5 6 
#
# 1 60.1914 18.4621 13.3999 -0.0077 0.0164 0.0066
# 2 18.4621 141.2125 46.3636 -0.0029 -0.0248 0.0026
# 3 13.3999 46.3636 125.9238 -0.0145 0.0073 0.0093
# 4 -0.0077 -0.0029 -0.0145 75.1128 -0.0069 0.0075
# 5 0.0164 -0.0248 0.0073 -0.0069 20.3111 -0.0047
# 6 0.0066 0.0026 0.0093 0.0075 -0.0047 11.4767
#
#
#
# Elastic Compliance Matrix: (Units=1/GPa)
#
#
# Indices 1 2 3 4 5 6 
#
# 1 0.017455 -0.001902 -0.001157 0.000001 -0.000016 -0.000009
# 2 -0.001902 0.008263 -0.002840 0.000000 0.000013 0.000002
# 3 -0.001157 -0.002840 0.009110 0.000002 -0.000006 -0.000006
# 4 0.000001 0.000000 0.000002 0.013313 0.000004 -0.000009
# 5 -0.000016 0.000013 -0.000006 0.000004 0.049234 0.000020
# 6 -0.000009 0.000002 -0.000006 -0.000009 0.000020 0.087133
#
#
# Mechanical properties :
#
#
# Convention : Reuss Voigt Hill
#
# Bulk Modulus (GPa) = 43.42284 53.75321 48.58802
# Shear Modulus (GPa) = 24.51197 37.98693 31.24945
#
# Velocity S-wave (km/s) = 3.32354 4.13741 3.75261
# Velocity P-wave (km/s) = 5.85625 6.85910 6.37742
#
# Compressibility (1/GPa) = 0.02302936
#
# Stress axis : x y z
#
# Youngs Moduli (GPa) = 57.29116 121.02755 109.76941
#
# Poissons Ratio (x) = 0.23021 0.12701
# Poissons Ratio (y) = 0.10898 0.31172
# Poissons Ratio (z) = 0.06629 0.34369
#
# Static dielectric constant tensor:
#      x y z
#    x 1.747560 0.000040 0.000030 
#    y 0.000040 1.966860 0.000030 
#    z 0.000030 0.000030 1.881580 
# 
# From -- ./inp_files/4858.got.cif
#   From: 2010.05.17/outbox.cif.g08.bks.cpg/sg22_3_cif.got.tgz:4858.got - 2010.06.03 23:40:54.
