data_PCOD9326176
_publ_section_title
;
Structure prediction by ZEFSAII (Michael W. Deem and Ramdas Pophale) SiO2 
 PCOD9326176
Probable space group: F 2 2 2
;
_chemical_formula_sum "Si O2"
_cell_formula_units_Z 112
_cell_length_a 26.315112
_cell_length_b 15.127249
_cell_length_c 13.719884
_cell_angle_alpha 90.000000
_cell_angle_beta 90.000000
_cell_angle_gamma 90.000000
_cell_volume 5461.546276
_symmetry_space_group_name_H-M "F 2 2 2"
_symmetry_group_IT_number 22
_symmetry_cell_setting 'orthorhombic'
loop_
_space_group_symop_operation_xyz
x,y,z
-x,-y,z
x,-y,-z
-x,y,-z
x,1/2+y,1/2+z
-x,1/2-y,1/2+z
x,1/2-y,1/2-z
-x,1/2+y,1/2-z
1/2+x,y,1/2+z
1/2-x,-y,1/2+z
1/2+x,-y,1/2-z
1/2-x,y,1/2-z
1/2+x,1/2+y,z
1/2-x,1/2-y,z
1/2+x,1/2-y,-z
1/2-x,1/2+y,-z
loop_
_atom_site_type_symbol
_atom_site_label
_atom_site_fract_x
_atom_site_fract_y
_atom_site_fract_z
Si Si1 0.446589 0.593133 0.951234
Si Si2 0.849195 0.299316 0.589892
Si Si3 0.554090 0.986186 0.240405
Si Si4 0.689216 0.456807 0.399228
Si Si5 0.873629 0.851136 0.747682
Si Si6 0.783379 0.664856 0.597108
Si Si7 0.151175 0.616241 0.802531
O O1 0.403057 0.667041 0.953561
O O2 0.456669 0.567809 0.839261
O O3 0.429085 0.500000 0.000000
O O4 0.500000 0.618322 0.000000
O O5 0.807669 0.316927 0.508006
O O6 0.842893 0.352958 0.691047
O O7 0.845823 0.198336 0.624791
O O8 0.596029 0.929006 0.184804
O O9 0.500000 0.000000 0.190201
O O10 0.581950 0.078347 0.266584
O O11 0.671129 0.500000 0.500000
O O12 0.651912 0.382367 0.354295
O O13 0.744085 0.414744 0.410518
O O14 0.690138 0.538559 0.325113
O O15 0.891523 0.750000 0.750000
O O16 0.828218 0.855379 0.826763
O O17 0.750000 0.750000 0.628327
#
# Coordination Sequence:
#
# PCOD9326176 Si02
#       7
#    16  16  16  16  16  16  16
#     4  10  18  34  61  95 132 161 214 288 343 398
#     4  10  22  42  65  95 131 179 225 275 343 415
#     4  10  20  39  62  92 129 173 220 275 345 406
#     4  11  24  42  66  94 134 179 222 278 341 408
#     4  11  24  43  66  97 136 178 227 289 340 414
#     4  12  24  39  66  99 133 172 227 283 341 411
#     4   9  22  44  65  89 137 183 220 276 338 425
#
# _framework density 20.507013000000001
#
# number of rings (size 3 to 8) (size 9 to 14) (size 15 to 20)
#    0.000    1.571    2.857    2.143    0.000    5.143 
#    5.143    4.286    0.000    3.857    0.000    0.000 
#    0.000    0.000    0.000    0.000    0.000    0.000 
#
# Total GULP energy -156463.437589 kJ/mol
# GULP energy per Si atom -5587.979914 kJ/mol
# Density = 2.046034 g / cm^3
# Si number density = 20.507013 Si / 1000 Ang^3
#
#
#
# Elastic Constant Matrix: (Units=GPa)
#
#
# Indices 1 2 3 4 5 6 
#
# 1 123.1254 66.4379 52.5266 0.0000 0.0000 0.0000
# 2 66.4379 126.6844 37.3563 0.0000 0.0000 0.0000
# 3 52.5266 37.3563 69.7479 0.0000 0.0000 0.0000
# 4 0.0000 0.0000 0.0000 24.0326 0.0000 0.0000
# 5 0.0000 0.0000 0.0000 0.0000 29.9860 0.0000
# 6 0.0000 0.0000 0.0000 0.0000 0.0000 23.5883
#
#
#
# Elastic Compliance Matrix: (Units=1/GPa)
#
#
# Indices 1 2 3 4 5 6 
#
# 1 0.014324 -0.005143 -0.008032 0.000000 0.000000 0.000000
# 2 -0.005143 0.011221 -0.002136 0.000000 0.000000 0.000000
# 3 -0.008032 -0.002136 0.021531 0.000000 0.000000 0.000000
# 4 0.000000 0.000000 0.000000 0.041610 0.000000 0.000000
# 5 0.000000 0.000000 0.000000 0.000000 0.033349 0.000000
# 6 0.000000 0.000000 0.000000 0.000000 0.000000 0.042394
#
#
# Mechanical properties :
#
#
# Convention : Reuss Voigt Hill
#
# Bulk Modulus (GPa) = 60.78606 70.24437 65.51522
# Shear Modulus (GPa) = 24.93307 26.40383 25.66845
#
# Velocity S-wave (km/s) = 3.49066 3.59214 3.54176
# Velocity P-wave (km/s) = 6.77881 7.17864 6.98158
#
# Compressibility (1/GPa) = 0.01645114
#
# Stress axis : x y z
#
# Youngs Moduli (GPa) = 69.81352 89.11880 46.44517
#
# Poissons Ratio (x) = 0.45837 0.37307
# Poissons Ratio (y) = 0.35908 0.09923
# Poissons Ratio (z) = 0.56077 0.19039
#
# Static dielectric constant tensor:
#      x y z
#    x 1.746630 0.000000 0.000000 
#    y 0.000000 1.736810 0.000000 
#    z 0.000000 0.000000 1.756690 
# 
# From -- ./inp_files/32527.got.cif
#   From: 2010.05.17/outbox.cif.g08.bks.cpg/sg22_17_cif.got.tgz:32527.got - 2010.06.03 23:40:54.
