data_PCOD9326755
_publ_section_title
;
Structure prediction by ZEFSAII (Michael W. Deem and Ramdas Pophale) SiO2 
 PCOD9326755
Probable space group: F 2 2 2
;
_chemical_formula_sum "Si O2"
_cell_formula_units_Z 104
_cell_length_a 24.289986
_cell_length_b 11.667988
_cell_length_c 18.867057
_cell_angle_alpha 90.000000
_cell_angle_beta 90.000000
_cell_angle_gamma 90.000000
_cell_volume 5347.211963
_symmetry_space_group_name_H-M "F 2 2 2"
_symmetry_group_IT_number 22
_symmetry_cell_setting 'orthorhombic'
loop_
_space_group_symop_operation_xyz
x,y,z
-x,-y,z
x,-y,-z
-x,y,-z
x,1/2+y,1/2+z
-x,1/2-y,1/2+z
x,1/2-y,1/2-z
-x,1/2+y,1/2-z
1/2+x,y,1/2+z
1/2-x,-y,1/2+z
1/2+x,-y,1/2-z
1/2-x,y,1/2-z
1/2+x,1/2+y,z
1/2-x,1/2-y,z
1/2+x,1/2-y,-z
1/2-x,1/2+y,-z
loop_
_atom_site_type_symbol
_atom_site_label
_atom_site_fract_x
_atom_site_fract_y
_atom_site_fract_z
Si Si1 0.321643 0.483405 0.118159
Si Si2 0.097728 0.000000 0.000000
Si Si3 0.120126 0.254109 0.331756
Si Si4 0.341875 0.117439 0.748117
Si Si5 0.217210 0.075352 0.324914
Si Si6 0.029846 0.875550 0.212351
Si Si7 0.974457 0.700479 0.430261
O O1 0.359126 0.381531 0.149876
O O2 0.310847 0.573292 0.179167
O O3 0.260756 0.431415 0.110647
O O4 0.358477 0.541613 0.058626
O O5 0.059342 0.904368 0.965666
O O6 0.102391 0.250000 0.250000
O O7 0.172307 0.172398 0.338219
O O8 0.070048 0.228362 0.384775
O O9 0.331460 0.250000 0.750000
O O10 0.406836 0.101072 0.733137
O O11 0.317908 0.040106 0.810895
O O12 0.250000 0.102051 0.250000
O O13 0.017464 0.750000 0.250000
O O14 0.016758 0.848793 0.129038
O O15 0.000000 0.000000 0.227924
O O16 0.000000 0.759616 0.500000
#
# Coordination Sequence:
#
# PCOD9326755 Si02
#       7
#    16   8  16  16  16  16  16
#     4  10  20  34  61  86 121 155 195 248 306 356
#     4  10  21  38  58  86 120 152 203 250 294 354
#     4  11  19  33  59  97 120 151 200 262 311 352
#     4  10  21  35  55  87 123 155 191 240 303 359
#     4  10  20  33  60  90 125 148 192 253 308 359
#     4  11  23  38  62  95 124 160 212 258 314 365
#     4  11  22  36  60  89 126 162 201 257 307 367
#
# _framework density 19.449387999999999
#
# number of rings (size 3 to 8) (size 9 to 14) (size 15 to 20)
#    0.000    1.538    3.077    4.846    2.154    2.769 
#    0.000    0.000   20.308    0.462    4.000    0.000 
#    0.000    0.000    0.000    0.000    0.000    0.000 
#
# Total GULP energy -144750.730479 kJ/mol
# GULP energy per Si atom -5567.335788 kJ/mol
# Density = 1.940512 g / cm^3
# Si number density = 19.449388 Si / 1000 Ang^3
#
#
#
# Elastic Constant Matrix: (Units=GPa)
#
#
# Indices 1 2 3 4 5 6 
#
# 1 109.8088 15.3478 37.1703 0.0000 0.0000 0.0000
# 2 15.3478 88.9864 18.1022 0.0000 0.0000 0.0000
# 3 37.1703 18.1022 83.6697 0.0000 0.0000 0.0000
# 4 0.0000 0.0000 0.0000 19.5616 0.0000 0.0000
# 5 0.0000 0.0000 0.0000 0.0000 32.2678 0.0000
# 6 0.0000 0.0000 0.0000 0.0000 0.0000 27.6616
#
#
#
# Elastic Compliance Matrix: (Units=1/GPa)
#
#
# Indices 1 2 3 4 5 6 
#
# 1 0.010791 -0.000927 -0.004593 0.000000 0.000000 0.000000
# 2 -0.000927 0.011835 -0.002149 0.000000 0.000000 0.000000
# 3 -0.004593 -0.002149 0.014457 0.000000 0.000000 0.000000
# 4 0.000000 0.000000 0.000000 0.051120 0.000000 0.000000
# 5 0.000000 0.000000 0.000000 0.000000 0.030991 0.000000
# 6 0.000000 0.000000 0.000000 0.000000 0.000000 0.036151
#
#
# Mechanical properties :
#
#
# Convention : Reuss Voigt Hill
#
# Bulk Modulus (GPa) = 45.98729 47.07838 46.53284
# Shear Modulus (GPa) = 28.10068 30.02120 29.06094
#
# Velocity S-wave (km/s) = 3.80519 3.93307 3.86966
# Velocity P-wave (km/s) = 6.55758 6.69952 6.62893
#
# Compressibility (1/GPa) = 0.02174514
#
# Stress axis : x y z
#
# Youngs Moduli (GPa) = 92.66841 84.49778 69.16926
#
# Poissons Ratio (x) = 0.07831 0.31773
# Poissons Ratio (y) = 0.08588 0.14863
# Poissons Ratio (z) = 0.42567 0.18156
#
# Static dielectric constant tensor:
#      x y z
#    x 1.780640 0.000000 0.000000 
#    y 0.000000 1.706170 0.000000 
#    z 0.000000 0.000000 1.742120 
# 
# From -- ./inp_files/24675.got.cif
#   From: 2010.05.17/outbox.cif.g08.bks.cpg/sg22_13_cif.got.tgz:24675.got - 2010.06.03 23:40:54.
