data_PCOD9326476
_publ_section_title
;
Structure prediction by ZEFSAII (Michael W. Deem and Ramdas Pophale) SiO2 
 PCOD9326476
Probable space group: F 2 2 2
;
_chemical_formula_sum "Si O2"
_cell_formula_units_Z 116
_cell_length_a 15.453172
_cell_length_b 25.047546
_cell_length_c 14.348745
_cell_angle_alpha 90.000000
_cell_angle_beta 90.000000
_cell_angle_gamma 90.000000
_cell_volume 5553.883159
_symmetry_space_group_name_H-M "F 2 2 2"
_symmetry_group_IT_number 22
_symmetry_cell_setting 'orthorhombic'
loop_
_space_group_symop_operation_xyz
x,y,z
-x,-y,z
x,-y,-z
-x,y,-z
x,1/2+y,1/2+z
-x,1/2-y,1/2+z
x,1/2-y,1/2-z
-x,1/2+y,1/2-z
1/2+x,y,1/2+z
1/2-x,-y,1/2+z
1/2+x,-y,1/2-z
1/2-x,y,1/2-z
1/2+x,1/2+y,z
1/2-x,1/2-y,z
1/2+x,1/2-y,-z
1/2-x,1/2+y,-z
loop_
_atom_site_type_symbol
_atom_site_label
_atom_site_fract_x
_atom_site_fract_y
_atom_site_fract_z
Si Si1 0.147247 0.234009 0.648535
Si Si2 0.161252 0.973559 0.308248
Si Si3 0.500000 0.500000 0.000000
Si Si4 0.452314 0.424742 0.853110
Si Si5 0.335299 0.906288 0.859828
Si Si6 0.630823 0.168426 0.467418
Si Si7 0.635513 0.883791 0.340132
Si Si8 0.326543 0.626345 0.439934
O O1 0.111964 0.250000 0.750000
O O2 0.250000 0.250000 0.652622
O O3 0.114888 0.271512 0.565102
O O4 0.131986 0.172210 0.624662
O O5 0.250000 0.979078 0.250000
O O6 0.092978 0.945957 0.238700
O O7 0.175896 0.930845 0.390196
O O8 0.135818 0.032539 0.343413
O O9 0.437147 0.464507 0.937890
O O10 0.420658 0.368572 0.894063
O O11 0.555624 0.424123 0.843748
O O12 0.359388 0.870339 0.769844
O O13 0.229965 0.907681 0.862305
O O14 0.365662 0.882011 0.957417
O O15 0.614997 0.157680 0.576825
O O16 0.729858 0.149659 0.452942
#
# Coordination Sequence:
#
# PCOD9326476 Si02
#       8
#    16  16   4  16  16  16  16  16
#     4   9  18  33  58  89 121 156 206 264 310 358
#     4  12  22  35  57  91 124 164 203 251 311 373
#     4  12  24  32  52  92 126 160 190 252 314 388
#     4  12  23  34  58  91 126 157 201 254 322 370
#     4  10  22  40  57  85 128 164 206 249 303 386
#     4  10  19  35  59  88 123 150 203 266 317 363
#     4  10  20  39  57  87 121 164 202 255 310 377
#     4  10  21  36  60  86 119 164 208 251 309 372
#
# _framework density 20.886288
#
# number of rings (size 3 to 8) (size 9 to 14) (size 15 to 20)
#    0.000    1.517    4.138    2.069    1.931    0.000 
#    0.000    1.379    0.000   14.069    0.000    0.000 
#    0.000    0.000    0.000    0.000    0.000    0.000 
#
# Total GULP energy -161718.645842 kJ/mol
# GULP energy per Si atom -5576.505029 kJ/mol
# Density = 2.083875 g / cm^3
# Si number density = 20.886288 Si / 1000 Ang^3
#
#
#
# Elastic Constant Matrix: (Units=GPa)
#
#
# Indices 1 2 3 4 5 6 
#
# 1 23.8696 -8.2864 7.8990 0.0000 0.0000 0.0000
# 2 -8.2864 75.2438 46.5349 0.0000 0.0000 0.0000
# 3 7.8990 46.5349 148.4335 0.0000 0.0000 0.0000
# 4 0.0000 0.0000 0.0000 30.5135 0.0000 0.0000
# 5 0.0000 0.0000 0.0000 0.0000 9.5895 0.0000
# 6 0.0000 0.0000 0.0000 0.0000 0.0000 6.8189
#
#
#
# Elastic Compliance Matrix: (Units=1/GPa)
#
#
# Indices 1 2 3 4 5 6 
#
# 1 0.046426 0.008238 -0.005053 0.000000 0.000000 0.000000
# 2 0.008238 0.017949 -0.006065 0.000000 0.000000 0.000000
# 3 -0.005053 -0.006065 0.008907 0.000000 0.000000 0.000000
# 4 0.000000 0.000000 0.000000 0.032772 0.000000 0.000000
# 5 0.000000 0.000000 0.000000 0.000000 0.104281 0.000000
# 6 0.000000 0.000000 0.000000 0.000000 0.000000 0.146651
#
#
# Mechanical properties :
#
#
# Convention : Reuss Voigt Hill
#
# Bulk Modulus (GPa) = 14.81021 37.76023 26.28522
# Shear Modulus (GPa) = 12.97843 22.81100 17.89472
#
# Velocity S-wave (km/s) = 2.49546 3.30836 2.93024
# Velocity P-wave (km/s) = 3.92548 5.71943 4.90516
#
# Compressibility (1/GPa) = 0.06752100
#
# Stress axis : x y z
#
# Youngs Moduli (GPa) = 21.53951 55.71489 112.26527
#
# Poissons Ratio (x) = -0.45898 0.56731
# Poissons Ratio (y) = -0.17744 0.68093
# Poissons Ratio (z) = 0.10885 0.33793
#
# Static dielectric constant tensor:
#      x y z
#    x 1.776200 0.000000 0.000000 
#    y 0.000000 1.756680 0.000000 
#    z 0.000000 0.000000 1.797420 
# 
# From -- ./inp_files/30926.got.cif
#   From: 2010.05.17/outbox.cif.g08.bks.cpg/sg22_16_cif.got.tgz:30926.got - 2010.06.03 23:40:54.
