data_PCOD9326734
_publ_section_title
;
Structure prediction by ZEFSAII (Michael W. Deem and Ramdas Pophale) SiO2 
 PCOD9326734
Probable space group: F 2 2 2
;
_chemical_formula_sum "Si O2"
_cell_formula_units_Z 84
_cell_length_a 19.092544
_cell_length_b 22.827204
_cell_length_c 10.051973
_cell_angle_alpha 90.000000
_cell_angle_beta 90.000000
_cell_angle_gamma 90.000000
_cell_volume 4380.945329
_symmetry_space_group_name_H-M "F 2 2 2"
_symmetry_group_IT_number 22
_symmetry_cell_setting 'orthorhombic'
loop_
_space_group_symop_operation_xyz
x,y,z
-x,-y,z
x,-y,-z
-x,y,-z
x,1/2+y,1/2+z
-x,1/2-y,1/2+z
x,1/2-y,1/2-z
-x,1/2+y,1/2-z
1/2+x,y,1/2+z
1/2-x,-y,1/2+z
1/2+x,-y,1/2-z
1/2-x,y,1/2-z
1/2+x,1/2+y,z
1/2-x,1/2-y,z
1/2+x,1/2-y,-z
1/2-x,1/2+y,-z
loop_
_atom_site_type_symbol
_atom_site_label
_atom_site_fract_x
_atom_site_fract_y
_atom_site_fract_z
Si Si1 0.000000 0.345169 0.500000
Si Si2 0.530313 0.436730 0.232741
Si Si3 0.750000 0.250000 0.750000
Si Si4 0.322369 0.603631 0.194405
Si Si5 0.000000 0.868663 0.500000
Si Si6 0.342412 0.191523 0.469827
Si Si7 0.385386 0.208820 0.863172
O O1 0.986540 0.387119 0.375129
O O2 0.927957 0.311613 0.534754
O O3 0.500000 0.500000 0.203112
O O4 0.614380 0.440591 0.221693
O O5 0.500569 0.411095 0.371448
O O6 0.699658 0.207871 0.662009
O O7 0.250000 0.580308 0.250000
O O8 0.343955 0.659359 0.284256
O O9 0.319962 0.631912 0.046329
O O10 0.064036 0.824899 0.465150
O O11 0.332810 0.248366 0.562487
O O12 0.422612 0.250000 0.750000
#
# Coordination Sequence:
#
# PCOD9326734 Si02
#       7
#     8  16   4  16   8  16  16
#     4  10  22  40  60  82 116 170 206 242 300 386
#     4  10  21  38  62  85 110 149 205 266 304 348
#     4  12  24  32  54  88 136 162 184 266 308 340
#     4   9  18  36  59  80 111 155 199 232 295 375
#     4  10  20  32  58  88 118 144 196 262 296 328
#     4  10  21  35  54  84 124 159 199 235 299 364
#     4   9  18  32  53  83 116 161 190 228 284 369
#
# _framework density 19.173945
#
# number of rings (size 3 to 8) (size 9 to 14) (size 15 to 20)
#    0.000    2.286    0.000    3.429    2.667    2.667 
#    5.143    0.000    2.095    6.857    0.000    0.000 
#    0.000    0.000    0.000    0.000    0.000    0.000 
#
# Total GULP energy -116986.326220 kJ/mol
# GULP energy per Si atom -5570.777439 kJ/mol
# Density = 1.913030 g / cm^3
# Si number density = 19.173945 Si / 1000 Ang^3
#
#
#
# Elastic Constant Matrix: (Units=GPa)
#
#
# Indices 1 2 3 4 5 6 
#
# 1 138.1679 43.4237 52.3300 0.0000 0.0000 0.0000
# 2 43.4237 67.2206 9.7051 0.0000 0.0000 0.0000
# 3 52.3300 9.7051 101.1642 0.0000 0.0000 0.0000
# 4 0.0000 0.0000 0.0000 14.0711 0.0000 0.0000
# 5 0.0000 0.0000 0.0000 0.0000 27.0015 0.0000
# 6 0.0000 0.0000 0.0000 0.0000 0.0000 7.0317
#
#
#
# Elastic Compliance Matrix: (Units=1/GPa)
#
#
# Indices 1 2 3 4 5 6 
#
# 1 0.011255 -0.006520 -0.005196 0.000000 0.000000 0.000000
# 2 -0.006520 0.018863 0.001563 0.000000 0.000000 0.000000
# 3 -0.005196 0.001563 0.012423 0.000000 0.000000 0.000000
# 4 0.000000 0.000000 0.000000 0.071068 0.000000 0.000000
# 5 0.000000 0.000000 0.000000 0.000000 0.037035 0.000000
# 6 0.000000 0.000000 0.000000 0.000000 0.000000 0.142214
#
#
# Mechanical properties :
#
#
# Convention : Reuss Voigt Hill
#
# Bulk Modulus (GPa) = 44.97690 57.49671 51.23681
# Shear Modulus (GPa) = 15.59695 23.02710 19.31202
#
# Velocity S-wave (km/s) = 2.85519 3.46924 3.17709
# Velocity P-wave (km/s) = 5.86325 6.78966 6.34339
#
# Compressibility (1/GPa) = 0.02223363
#
# Stress axis : x y z
#
# Youngs Moduli (GPa) = 88.85054 53.01461 80.49635
#
# Poissons Ratio (x) = 0.34567 0.41829
# Poissons Ratio (y) = 0.57933 -0.12583
# Poissons Ratio (z) = 0.46170 -0.08287
#
# Static dielectric constant tensor:
#      x y z
#    x 1.764590 0.000000 0.000000 
#    y 0.000000 1.651320 0.000000 
#    z 0.000000 0.000000 1.744640 
# 
# From -- ./inp_files/12598.got.cif
#   From: 2010.05.17/outbox.cif.g08.bks.cpg/sg22_7_cif.got.tgz:12598.got - 2010.06.03 23:40:54.
