data_PCOD9326688
_publ_section_title
;
Structure prediction by ZEFSAII (Michael W. Deem and Ramdas Pophale) SiO2 
 PCOD9326688
Probable space group: F 2 2 2
;
_chemical_formula_sum "Si O2"
_cell_formula_units_Z 80
_cell_length_a 10.834412
_cell_length_b 26.282495
_cell_length_c 13.549196
_cell_angle_alpha 90.000000
_cell_angle_beta 90.000000
_cell_angle_gamma 90.000000
_cell_volume 3858.206445
_symmetry_space_group_name_H-M "F 2 2 2"
_symmetry_group_IT_number 22
_symmetry_cell_setting 'orthorhombic'
loop_
_space_group_symop_operation_xyz
x,y,z
-x,-y,z
x,-y,-z
-x,y,-z
x,1/2+y,1/2+z
-x,1/2-y,1/2+z
x,1/2-y,1/2-z
-x,1/2+y,1/2-z
1/2+x,y,1/2+z
1/2-x,-y,1/2+z
1/2+x,-y,1/2-z
1/2-x,y,1/2-z
1/2+x,1/2+y,z
1/2-x,1/2-y,z
1/2+x,1/2-y,-z
1/2-x,1/2+y,-z
loop_
_atom_site_type_symbol
_atom_site_label
_atom_site_fract_x
_atom_site_fract_y
_atom_site_fract_z
Si Si1 0.644772 0.994418 0.108791
Si Si2 0.108313 0.384292 0.084167
Si Si3 0.226598 0.160801 0.914775
Si Si4 0.000000 0.722201 0.500000
Si Si5 0.978376 0.708689 0.836049
Si Si6 0.750000 0.420088 0.250000
O O1 0.657891 0.935242 0.135649
O O2 0.500000 0.000000 0.097930
O O3 0.677315 0.039745 0.182180
O O4 0.704463 0.000000 0.000000
O O5 0.048903 0.345455 0.163437
O O6 0.216129 0.362311 0.014967
O O7 0.000000 0.394095 0.000000
O O8 0.104720 0.190656 0.945384
O O9 0.338379 0.194670 0.868996
O O10 0.194495 0.118358 0.832023
O O11 0.946356 0.761005 0.420090
O O12 0.973479 0.750000 0.750000
#
# Coordination Sequence:
#
# PCOD9326688 Si02
#       6
#    16  16  16   8  16   8
#     4  11  20  41  70  93 128 174 227 280 334 399
#     4  10  19  41  70  92 129 180 225 276 337 396
#     4  11  23  42  66  97 137 175 225 276 337 413
#     4  12  24  40  66  99 143 176 214 280 342 392
#     4  11  23  43  73 101 131 180 233 274 329 405
#     4  12  24  42  71 102 127 178 232 278 338 406
#
# _framework density 20.735023000000002
#
# number of rings (size 3 to 8) (size 9 to 14) (size 15 to 20)
#    0.000    1.000    7.000    3.000    0.000    0.800 
#    7.200    1.000    0.000    0.000    0.000    0.000 
#    0.000    0.000    0.000    0.000    0.000    0.000 
#
# Total GULP energy -111393.937610 kJ/mol
# GULP energy per Si atom -5569.696880 kJ/mol
# Density = 2.068783 g / cm^3
# Si number density = 20.735023 Si / 1000 Ang^3
#
#
#
# Elastic Constant Matrix: (Units=GPa)
#
#
# Indices 1 2 3 4 5 6 
#
# 1 36.1755 45.2164 29.1922 0.0000 0.0000 0.0000
# 2 45.2164 181.4821 67.4499 0.0000 0.0000 0.0000
# 3 29.1922 67.4499 90.6072 0.0000 0.0000 0.0000
# 4 0.0000 0.0000 0.0000 55.4566 0.0000 0.0000
# 5 0.0000 0.0000 0.0000 0.0000 12.2987 0.0000
# 6 0.0000 0.0000 0.0000 0.0000 0.0000 19.5358
#
#
#
# Elastic Compliance Matrix: (Units=1/GPa)
#
#
# Indices 1 2 3 4 5 6 
#
# 1 0.044309 -0.007927 -0.008375 0.000000 0.000000 0.000000
# 2 -0.007927 0.009036 -0.004173 0.000000 0.000000 0.000000
# 3 -0.008375 -0.004173 0.016841 0.000000 0.000000 0.000000
# 4 0.000000 0.000000 0.000000 0.018032 0.000000 0.000000
# 5 0.000000 0.000000 0.000000 0.000000 0.081309 0.000000
# 6 0.000000 0.000000 0.000000 0.000000 0.000000 0.051188
#
#
# Mechanical properties :
#
#
# Convention : Reuss Voigt Hill
#
# Bulk Modulus (GPa) = 34.20256 65.77574 49.98915
# Shear Modulus (GPa) = 18.42227 28.55196 23.48712
#
# Velocity S-wave (km/s) = 2.98394 3.71481 3.36925
# Velocity P-wave (km/s) = 5.32942 7.08454 6.26871
#
# Compressibility (1/GPa) = 0.02923758
#
# Stress axis : x y z
#
# Youngs Moduli (GPa) = 22.56864 110.66780 59.37900
#
# Poissons Ratio (x) = 0.87728 0.49727
# Poissons Ratio (y) = 0.17891 0.24777
# Poissons Ratio (z) = 0.18900 0.46177
#
# Static dielectric constant tensor:
#      x y z
#    x 1.739700 0.000000 0.000000 
#    y 0.000000 1.836220 0.000000 
#    z 0.000000 0.000000 1.905660 
# 
# From -- ./inp_files/28153.got.cif
#   From: 2010.05.17/outbox.cif.g08.bks.cpg/sg22_15_cif.got.tgz:28153.got - 2010.06.03 23:40:54.
