data_PCOD9326839
_publ_section_title
;
Structure prediction by ZEFSAII (Michael W. Deem and Ramdas Pophale) SiO2 
 PCOD9326839
Probable space group: F 2 2 2
;
_chemical_formula_sum "Si O2"
_cell_formula_units_Z 112
_cell_length_a 17.111259
_cell_length_b 22.954082
_cell_length_c 13.839201
_cell_angle_alpha 90.000000
_cell_angle_beta 90.000000
_cell_angle_gamma 90.000000
_cell_volume 5435.667846
_symmetry_space_group_name_H-M "F 2 2 2"
_symmetry_group_IT_number 22
_symmetry_cell_setting 'orthorhombic'
loop_
_space_group_symop_operation_xyz
x,y,z
-x,-y,z
x,-y,-z
-x,y,-z
x,1/2+y,1/2+z
-x,1/2-y,1/2+z
x,1/2-y,1/2-z
-x,1/2+y,1/2-z
1/2+x,y,1/2+z
1/2-x,-y,1/2+z
1/2+x,-y,1/2-z
1/2-x,y,1/2-z
1/2+x,1/2+y,z
1/2-x,1/2-y,z
1/2+x,1/2-y,-z
1/2-x,1/2+y,-z
loop_
_atom_site_type_symbol
_atom_site_label
_atom_site_fract_x
_atom_site_fract_y
_atom_site_fract_z
Si Si1 0.371230 0.917842 0.083451
Si Si2 0.786905 0.638547 0.351324
Si Si3 0.333762 0.959410 0.868159
Si Si4 0.449141 0.715775 0.587955
Si Si5 0.476512 0.897414 0.795731
Si Si6 0.528844 0.846691 0.391395
Si Si7 0.298904 0.699465 0.471557
O O1 0.456507 0.918101 0.131178
O O2 0.333808 0.853624 0.090668
O O3 0.324496 0.971617 0.129874
O O4 0.369528 0.935030 0.969983
O O5 0.750000 0.663204 0.250000
O O6 0.747000 0.574672 0.355346
O O7 0.879612 0.641457 0.367218
O O8 0.752799 0.671036 0.444320
O O9 0.402066 0.939915 0.795210
O O10 0.500000 0.690947 0.500000
O O11 0.444837 0.665506 0.666617
O O12 0.483487 0.777119 0.622255
O O13 0.368335 0.728019 0.534057
O O14 0.512677 0.884845 0.690779
O O15 0.500000 0.859767 0.500000
O O16 0.250000 0.750000 0.420070
#
# Coordination Sequence:
#
# PCOD9326839 Si02
#       7
#    16  16  16  16  16  16  16
#     4  10  21  36  61  99 126 157 209 272 339 373
#     4  11  20  37  63  94 129 166 220 270 316 379
#     4  10  20  35  66  96 124 156 207 286 329 372
#     4  11  19  35  57  97 131 165 206 267 330 388
#     4  12  19  36  62  94 129 164 212 265 326 392
#     4  11  25  38  59  93 138 174 211 258 328 400
#     4  11  20  34  60  92 131 163 205 266 329 382
#
# _framework density 20.604644
#
# number of rings (size 3 to 8) (size 9 to 14) (size 15 to 20)
#    0.000    1.143    7.143    1.286    0.000    1.429 
#    0.000    0.000   12.571    1.714    7.429    0.000 
#    0.000    0.000    0.000    0.000    0.000    0.000 
#
# Total GULP energy -156130.444733 kJ/mol
# GULP energy per Si atom -5576.087312 kJ/mol
# Density = 2.055775 g / cm^3
# Si number density = 20.604644 Si / 1000 Ang^3
#
#
#
# Elastic Constant Matrix: (Units=GPa)
#
#
# Indices 1 2 3 4 5 6 
#
# 1 66.5224 7.8418 13.7193 0.0000 0.0000 0.0000
# 2 7.8418 96.8643 16.0767 0.0000 0.0000 0.0000
# 3 13.7193 16.0767 67.3184 0.0000 0.0000 0.0000
# 4 0.0000 0.0000 0.0000 21.4524 0.0000 0.0000
# 5 0.0000 0.0000 0.0000 0.0000 17.7514 0.0000
# 6 0.0000 0.0000 0.0000 0.0000 0.0000 9.6948
#
#
#
# Elastic Compliance Matrix: (Units=1/GPa)
#
#
# Indices 1 2 3 4 5 6 
#
# 1 0.015747 -0.000773 -0.003025 0.000000 0.000000 0.000000
# 2 -0.000773 0.010788 -0.002419 0.000000 0.000000 0.000000
# 3 -0.003025 -0.002419 0.016049 0.000000 0.000000 0.000000
# 4 0.000000 0.000000 0.000000 0.046615 0.000000 0.000000
# 5 0.000000 0.000000 0.000000 0.000000 0.056334 0.000000
# 6 0.000000 0.000000 0.000000 0.000000 0.000000 0.103148
#
#
# Mechanical properties :
#
#
# Convention : Reuss Voigt Hill
#
# Bulk Modulus (GPa) = 33.16600 33.99784 33.58192
# Shear Modulus (GPa) = 18.43904 22.65087 20.54495
#
# Velocity S-wave (km/s) = 2.99473 3.31918 3.16112
# Velocity P-wave (km/s) = 5.29992 5.58795 5.44584
#
# Compressibility (1/GPa) = 0.03015136
#
# Stress axis : x y z
#
# Youngs Moduli (GPa) = 63.50244 92.69785 62.30973
#
# Poissons Ratio (x) = 0.07164 0.18847
# Poissons Ratio (y) = 0.04908 0.15071
# Poissons Ratio (z) = 0.19208 0.22422
#
# Static dielectric constant tensor:
#      x y z
#    x 1.810720 0.000000 0.000000 
#    y 0.000000 1.773360 0.000000 
#    z 0.000000 0.000000 1.807570 
# 
# From -- ./inp_files/29606.got.cif
#   From: 2010.05.17/outbox.cif.g08.bks.cpg/sg22_15_cif.got.tgz:29606.got - 2010.06.03 23:40:54.
