data_PCOD9326342
_publ_section_title
;
Structure prediction by ZEFSAII (Michael W. Deem and Ramdas Pophale) SiO2 
 PCOD9326342
Probable space group: F 2 2 2
;
_chemical_formula_sum "Si O2"
_cell_formula_units_Z 104
_cell_length_a 18.066203
_cell_length_b 13.274014
_cell_length_c 25.293017
_cell_angle_alpha 90.000000
_cell_angle_beta 90.000000
_cell_angle_gamma 90.000000
_cell_volume 6065.544498
_symmetry_space_group_name_H-M "F 2 2 2"
_symmetry_group_IT_number 22
_symmetry_cell_setting 'orthorhombic'
loop_
_space_group_symop_operation_xyz
x,y,z
-x,-y,z
x,-y,-z
-x,y,-z
x,1/2+y,1/2+z
-x,1/2-y,1/2+z
x,1/2-y,1/2-z
-x,1/2+y,1/2-z
1/2+x,y,1/2+z
1/2-x,-y,1/2+z
1/2+x,-y,1/2-z
1/2-x,y,1/2-z
1/2+x,1/2+y,z
1/2-x,1/2-y,z
1/2+x,1/2-y,-z
1/2-x,1/2+y,-z
loop_
_atom_site_type_symbol
_atom_site_label
_atom_site_fract_x
_atom_site_fract_y
_atom_site_fract_z
Si Si1 0.078553 0.058913 0.452415
Si Si2 0.472050 0.661649 0.790488
Si Si3 0.288336 0.854115 0.338734
Si Si4 0.936143 0.267637 0.388865
Si Si5 0.138932 0.445827 0.862735
Si Si6 0.000000 0.743111 0.000000
Si Si7 0.885932 0.530390 0.739432
O O1 0.059833 0.169646 0.471814
O O2 0.118511 0.000000 0.500000
O O3 0.120197 0.041109 0.398560
O O4 0.000000 0.000000 0.446354
O O5 0.452243 0.750000 0.750000
O O6 0.498653 0.703190 0.847520
O O7 0.410331 0.574566 0.787471
O O8 0.545856 0.607324 0.768332
O O9 0.250000 0.750000 0.320210
O O10 0.361388 0.826542 0.372323
O O11 0.223236 0.910257 0.369682
O O12 0.317158 0.921006 0.290651
O O13 0.913134 0.149615 0.380048
O O14 0.960722 0.291762 0.448942
O O15 0.126754 0.473690 0.801828
#
# Coordination Sequence:
#
# PCOD9326342 Si02
#       7
#    16  16  16  16  16   8  16
#     4   9  17  28  47  79 107 130 171 228 278 321
#     4  10  20  32  51  81 114 145 178 228 278 347
#     4   9  21  35  54  80 111 145 185 228 276 338
#     4  10  19  33  53  79 111 140 184 226 279 328
#     4  11  18  30  55  79 110 139 175 230 287 328
#     4  10  19  32  56  77 112 136 180 239 282 319
#     4  10  21  32  53  82 116 145 177 225 292 331
#
# _framework density 17.146028000000001
#
# number of rings (size 3 to 8) (size 9 to 14) (size 15 to 20)
#    0.000    2.308    4.615    0.462    4.308    1.846 
#    0.000    0.000    3.385    8.308    0.000    0.000 
#    0.000    0.000    0.000    0.000    0.000    0.000 
#
# Total GULP energy -144801.781326 kJ/mol
# GULP energy per Si atom -5569.299282 kJ/mol
# Density = 1.710700 g / cm^3
# Si number density = 17.146028 Si / 1000 Ang^3
#
#
#
# Elastic Constant Matrix: (Units=GPa)
#
#
# Indices 1 2 3 4 5 6 
#
# 1 61.2527 29.3862 49.0045 0.0000 0.0000 0.0000
# 2 29.3862 50.3816 34.5034 0.0000 0.0000 0.0000
# 3 49.0045 34.5034 143.0628 0.0000 0.0000 0.0000
# 4 0.0000 0.0000 0.0000 24.4333 0.0000 0.0000
# 5 0.0000 0.0000 0.0000 0.0000 18.9346 0.0000
# 6 0.0000 0.0000 0.0000 0.0000 0.0000 18.3693
#
#
#
# Elastic Compliance Matrix: (Units=1/GPa)
#
#
# Indices 1 2 3 4 5 6 
#
# 1 0.026933 -0.011249 -0.006513 0.000000 0.000000 0.000000
# 2 -0.011249 0.028474 -0.003014 0.000000 0.000000 0.000000
# 3 -0.006513 -0.003014 0.009948 0.000000 0.000000 0.000000
# 4 0.000000 0.000000 0.000000 0.040928 0.000000 0.000000
# 5 0.000000 0.000000 0.000000 0.000000 0.052813 0.000000
# 6 0.000000 0.000000 0.000000 0.000000 0.000000 0.054439
#
#
# Mechanical properties :
#
#
# Convention : Reuss Voigt Hill
#
# Bulk Modulus (GPa) = 42.01128 53.38724 47.69926
# Shear Modulus (GPa) = 19.00997 21.80097 20.40547
#
# Velocity S-wave (km/s) = 3.33334 3.56966 3.45352
# Velocity P-wave (km/s) = 6.27456 6.94222 6.61682
#
# Compressibility (1/GPa) = 0.02380313
#
# Stress axis : x y z
#
# Youngs Moduli (GPa) = 37.12931 35.11987 100.52651
#
# Poissons Ratio (x) = 0.39507 0.65468
# Poissons Ratio (y) = 0.41767 0.30298
# Poissons Ratio (z) = 0.24181 0.10585
#
# Static dielectric constant tensor:
#      x y z
#    x 1.588270 0.000000 0.000000 
#    y 0.000000 1.621580 0.000000 
#    z 0.000000 0.000000 1.610300 
# 
# From -- ./inp_files/53603.got.cif
#   From: 2010.05.17/outbox.cif.g08.bks.cpg/sg22_27_cif.got.tgz:53603.got - 2010.06.03 23:40:54.
