data_PCOD9326215
_publ_section_title
;
Structure prediction by ZEFSAII (Michael W. Deem and Ramdas Pophale) SiO2 
 PCOD9326215
Probable space group: F 2 2 2
;
_chemical_formula_sum "Si O2"
_cell_formula_units_Z 88
_cell_length_a 15.926531
_cell_length_b 22.246896
_cell_length_c 12.468745
_cell_angle_alpha 90.000000
_cell_angle_beta 90.000000
_cell_angle_gamma 90.000000
_cell_volume 4417.874342
_symmetry_space_group_name_H-M "F 2 2 2"
_symmetry_group_IT_number 22
_symmetry_cell_setting 'orthorhombic'
loop_
_space_group_symop_operation_xyz
x,y,z
-x,-y,z
x,-y,-z
-x,y,-z
x,1/2+y,1/2+z
-x,1/2-y,1/2+z
x,1/2-y,1/2-z
-x,1/2+y,1/2-z
1/2+x,y,1/2+z
1/2-x,-y,1/2+z
1/2+x,-y,1/2-z
1/2-x,y,1/2-z
1/2+x,1/2+y,z
1/2-x,1/2-y,z
1/2+x,1/2-y,-z
1/2-x,1/2+y,-z
loop_
_atom_site_type_symbol
_atom_site_label
_atom_site_fract_x
_atom_site_fract_y
_atom_site_fract_z
Si Si1 0.250000 0.750000 0.750000
Si Si2 0.366695 0.961552 0.838364
Si Si3 0.500000 0.223303 0.000000
Si Si4 0.000000 0.500000 0.000000
Si Si5 0.338843 0.574276 0.190248
Si Si6 0.776427 0.500000 0.500000
Si Si7 0.599189 0.170209 0.802737
Si Si8 0.562786 0.301603 0.172487
O O1 0.315532 0.791917 0.812598
O O2 0.440948 0.961676 0.924315
O O3 0.373047 0.897965 0.781971
O O4 0.375803 0.019071 0.760919
O O5 0.282672 0.969592 0.909163
O O6 0.455048 0.182765 0.089812
O O7 0.563739 0.269141 0.058210
O O8 0.250000 0.587064 0.250000
O O9 0.326154 0.548740 0.070013
O O10 0.392704 0.634742 0.186342
O O11 0.534939 0.189380 0.708194
O O12 0.599017 0.250000 0.250000
#
# Coordination Sequence:
#
# PCOD9326215 Si02
#       8
#     4  16   8   4  16   8  16  16
#     4  12  24  40  64 100 120 164 222 248 324 392
#     4  10  21  37  63  88 130 159 213 274 312 380
#     4  10  21  42  60  92 126 169 202 274 310 379
#     4  10  18  36  60  98 110 166 218 248 324 384
#     4  10  22  40  62  93 129 168 214 262 329 378
#     4   9  22  37  54  97 121 168 206 270 315 385
#     4  11  23  41  65  94 127 167 218 265 324 380
#     4  10  22  42  63  87 130 167 211 265 323 379
#
# _framework density 19.919080999999998
#
# number of rings (size 3 to 8) (size 9 to 14) (size 15 to 20)
#    0.000    1.818    2.727    1.636    3.818   10.545 
#    0.000    0.000    0.000    0.000    0.000    0.000 
#    0.000    0.000    0.000    0.000    0.000    0.000 
#
# Total GULP energy -122651.928082 kJ/mol
# GULP energy per Si atom -5575.087640 kJ/mol
# Density = 1.987374 g / cm^3
# Si number density = 19.919081 Si / 1000 Ang^3
#
#
#
# Elastic Constant Matrix: (Units=GPa)
#
#
# Indices 1 2 3 4 5 6 
#
# 1 71.9112 38.5964 2.9874 0.0000 0.0000 0.0000
# 2 38.5964 167.2540 28.2804 0.0000 0.0000 0.0000
# 3 2.9874 28.2804 65.8888 0.0000 0.0000 0.0000
# 4 0.0000 0.0000 0.0000 19.8437 0.0000 0.0000
# 5 0.0000 0.0000 0.0000 0.0000 -12.1258 0.0000
# 6 0.0000 0.0000 0.0000 0.0000 0.0000 -24.9828
#
#
#
# Elastic Compliance Matrix: (Units=1/GPa)
#
#
# Indices 1 2 3 4 5 6 
#
# 1 0.015924 -0.003831 0.000922 0.000000 0.000000 0.000000
# 2 -0.003831 0.007368 -0.002989 0.000000 0.000000 0.000000
# 3 0.000922 -0.002989 0.016418 0.000000 0.000000 0.000000
# 4 0.000000 0.000000 0.000000 0.050394 0.000000 0.000000
# 5 0.000000 0.000000 0.000000 0.000000 -0.082469 0.000000
# 6 0.000000 0.000000 0.000000 0.000000 0.000000 -0.040028
#
#
# Mechanical properties :
#
#
# Convention : Reuss Voigt Hill
#
# Bulk Modulus (GPa) = 35.82241 49.42029 42.62135
# Shear Modulus (GPa) = -442.75312 12.22635 -215.26338
#
# Velocity S-wave (km/s) = -14.92509 2.48019 -10.40690
# Velocity P-wave (km/s) = 16.70294 5.75032 11.08878
#
# Compressibility (1/GPa) = 0.02791549
#
# Stress axis : x y z
#
# Youngs Moduli (GPa) = 62.79960 135.71712 60.90819
#
# Poissons Ratio (x) = 0.51987 -0.05617
# Poissons Ratio (y) = 0.24056 0.18205
# Poissons Ratio (z) = -0.05791 0.40564
#
# Static dielectric constant tensor:
#      x y z
#    x 1.722210 0.000000 0.000000 
#    y 0.000000 1.793560 0.000000 
#    z 0.000000 0.000000 1.744630 
# 
# From -- ./inp_files/21473.got.cif
#   From: 2010.05.17/outbox.cif.g08.bks.cpg/sg22_11_cif.got.tgz:21473.got - 2010.06.03 23:40:54.
