data_PCOD9326827
_publ_section_title
;
Structure prediction by ZEFSAII (Michael W. Deem and Ramdas Pophale) SiO2 
 PCOD9326827
Probable space group: F 2 2 2
;
_chemical_formula_sum "Si O2"
_cell_formula_units_Z 88
_cell_length_a 29.157358
_cell_length_b 16.825019
_cell_length_c 7.909859
_cell_angle_alpha 90.000000
_cell_angle_beta 90.000000
_cell_angle_gamma 90.000000
_cell_volume 3880.364069
_symmetry_space_group_name_H-M "F 2 2 2"
_symmetry_group_IT_number 22
_symmetry_cell_setting 'orthorhombic'
loop_
_space_group_symop_operation_xyz
x,y,z
-x,-y,z
x,-y,-z
-x,y,-z
x,1/2+y,1/2+z
-x,1/2-y,1/2+z
x,1/2-y,1/2-z
-x,1/2+y,1/2-z
1/2+x,y,1/2+z
1/2-x,-y,1/2+z
1/2+x,-y,1/2-z
1/2-x,y,1/2-z
1/2+x,1/2+y,z
1/2-x,1/2-y,z
1/2+x,1/2-y,-z
1/2-x,1/2+y,-z
loop_
_atom_site_type_symbol
_atom_site_label
_atom_site_fract_x
_atom_site_fract_y
_atom_site_fract_z
Si Si1 0.300070 0.373313 0.472268
Si Si2 0.198537 0.088600 0.067863
Si Si3 0.868161 0.500000 0.000000
Si Si4 0.948913 0.143133 0.035822
Si Si5 0.365331 0.771073 0.552531
Si Si6 0.947143 0.505534 0.248467
O O1 0.246331 0.377819 0.508501
O O2 0.300897 0.400599 0.272943
O O3 0.332930 0.434544 0.568239
O O4 0.325556 0.290353 0.497601
O O5 0.156248 0.142822 0.019022
O O6 0.193819 0.000000 0.000000
O O7 0.904349 0.531864 0.134958
O O8 0.939516 0.086275 0.196169
O O9 0.914851 0.217583 0.028208
O O10 0.000000 0.173713 0.000000
O O11 0.946097 0.073220 0.892418
O O12 0.372584 0.750000 0.750000
O O13 0.000000 0.500000 0.186066
#
# Coordination Sequence:
#
# PCOD9326827 Si02
#       6
#    16  16   8  16  16  16
#     4  10  22  37  54  89 121 156 199 260 308 368
#     4  10  20  37  63  85 115 161 209 250 302 371
#     4  12  21  36  58  84 128 154 211 252 316 372
#     4   9  19  38  62  88 118 158 211 253 299 373
#     4  10  20  35  60  90 120 154 202 254 306 358
#     4   9  19  35  59  87 118 160 205 255 305 366
#
# _framework density 22.678284000000001
#
# number of rings (size 3 to 8) (size 9 to 14) (size 15 to 20)
#    0.000    2.182    0.909    4.091    5.091    2.182 
#    0.000    6.364    0.000    0.000    0.000    0.000 
#    0.000    0.000    0.000    0.000    0.000    0.000 
#
# Total GULP energy -122573.488502 kJ/mol
# GULP energy per Si atom -5571.522205 kJ/mol
# Density = 2.262667 g / cm^3
# Si number density = 22.678284 Si / 1000 Ang^3
#
#
#
# Elastic Constant Matrix: (Units=GPa)
#
#
# Indices 1 2 3 4 5 6 
#
# 1 140.3542 41.4399 8.5682 0.0000 0.0000 0.0000
# 2 41.4399 90.0321 1.3172 0.0000 0.0000 0.0000
# 3 8.5682 1.3172 6.6174 0.0000 0.0000 0.0000
# 4 0.0000 0.0000 0.0000 13.0080 0.0000 0.0000
# 5 0.0000 0.0000 0.0000 0.0000 -53.6115 0.0000
# 6 0.0000 0.0000 0.0000 0.0000 0.0000 24.8527
#
#
#
# Elastic Compliance Matrix: (Units=1/GPa)
#
#
# Indices 1 2 3 4 5 6 
#
# 1 0.008955 -0.003964 -0.010806 0.000000 0.000000 0.000000
# 2 -0.003964 0.012894 0.002566 0.000000 0.000000 0.000000
# 3 -0.010806 0.002566 0.164597 0.000000 0.000000 0.000000
# 4 0.000000 0.000000 0.000000 0.076876 0.000000 0.000000
# 5 0.000000 0.000000 0.000000 0.000000 -0.018653 0.000000
# 6 0.000000 0.000000 0.000000 0.000000 0.000000 0.040237
#
#
# Mechanical properties :
#
#
# Convention : Reuss Voigt Hill
#
# Bulk Modulus (GPa) = 6.17137 37.73937 21.95537
# Shear Modulus (GPa) = 13.76173 9.22840 11.49507
#
# Velocity S-wave (km/s) = 2.46605 2.01943 2.25383
# Velocity P-wave (km/s) = 3.29177 4.70264 4.05897
#
# Compressibility (1/GPa) = 0.16203848
#
# Stress axis : x y z
#
# Youngs Moduli (GPa) = 111.67260 77.55563 6.07543
#
# Poissons Ratio (x) = 0.30740 0.06565
# Poissons Ratio (y) = 0.44262 -0.01559
# Poissons Ratio (z) = 1.20670 -0.19897
#
# Static dielectric constant tensor:
#      x y z
#    x 1.820270 0.000000 0.000000 
#    y 0.000000 2.245890 0.000000 
#    z 0.000000 0.000000 1.951700 
# 
# From -- ./inp_files/15558.got.cif
#   From: 2010.05.17/outbox.cif.g08.bks.cpg/sg22_8_cif.got.tgz:15558.got - 2010.06.03 23:40:54.
