data_PCOD9326391
_publ_section_title
;
Structure prediction by ZEFSAII (Michael W. Deem and Ramdas Pophale) SiO2 
 PCOD9326391
Probable space group: F 2 2 2
;
_chemical_formula_sum "Si O2"
_cell_formula_units_Z 112
_cell_length_a 18.011800
_cell_length_b 15.470909
_cell_length_c 20.802760
_cell_angle_alpha 90.000000
_cell_angle_beta 90.000000
_cell_angle_gamma 90.000000
_cell_volume 5796.874608
_symmetry_space_group_name_H-M "F 2 2 2"
_symmetry_group_IT_number 22
_symmetry_cell_setting 'orthorhombic'
loop_
_space_group_symop_operation_xyz
x,y,z
-x,-y,z
x,-y,-z
-x,y,-z
x,1/2+y,1/2+z
-x,1/2-y,1/2+z
x,1/2-y,1/2-z
-x,1/2+y,1/2-z
1/2+x,y,1/2+z
1/2-x,-y,1/2+z
1/2+x,-y,1/2-z
1/2-x,y,1/2-z
1/2+x,1/2+y,z
1/2-x,1/2-y,z
1/2+x,1/2-y,-z
1/2-x,1/2+y,-z
loop_
_atom_site_type_symbol
_atom_site_label
_atom_site_fract_x
_atom_site_fract_y
_atom_site_fract_z
Si Si1 0.328835 0.454442 0.714429
Si Si2 0.169964 0.522616 0.573990
Si Si3 0.672217 0.713742 0.625165
Si Si4 0.913874 0.624841 0.981587
Si Si5 0.898904 0.120554 0.166416
Si Si6 0.844942 0.457561 0.907635
Si Si7 0.976613 0.898165 0.070799
O O1 0.250000 0.471377 0.750000
O O2 0.316450 0.373138 0.666357
O O3 0.390928 0.427799 0.766093
O O4 0.355692 0.531841 0.668352
O O5 0.158388 0.500000 0.500000
O O6 0.146102 0.441333 0.617250
O O7 0.256522 0.537924 0.583472
O O8 0.111140 0.599791 0.584840
O O9 0.750000 0.750000 0.599289
O O10 0.615938 0.698078 0.566271
O O11 0.641020 0.787867 0.671130
O O12 0.887984 0.538602 0.941678
O O13 0.872752 0.622351 0.050264
O O14 0.000000 0.625443 0.000000
O O15 0.977125 0.135962 0.131331
O O16 0.000000 0.000000 0.068851
O O17 0.000000 0.863086 0.000000
#
# Coordination Sequence:
#
# PCOD9326391 Si02
#       7
#    16  16  16  16  16  16  16
#     4  11  20  34  53  84 110 144 193 239 290 351
#     4  11  17  31  53  82 110 137 188 236 285 339
#     4  11  22  34  56  81 113 153 192 236 290 353
#     4  10  21  38  53  82 114 148 193 239 295 344
#     4  11  20  32  51  81 117 149 179 229 302 351
#     4  10  19  33  60  75 105 152 187 243 285 341
#     4   9  17  29  46  73 111 142 169 229 286 339
#
# _framework density 19.320755999999999
#
# number of rings (size 3 to 8) (size 9 to 14) (size 15 to 20)
#    0.000    1.571    7.143    2.143    0.000    0.571 
#    0.000    8.571    0.000    0.000    0.000    0.000 
#    0.000    0.286    0.000    0.429    0.000    0.000 
#
# Total GULP energy -155989.698046 kJ/mol
# GULP energy per Si atom -5571.060645 kJ/mol
# Density = 1.927678 g / cm^3
# Si number density = 19.320756 Si / 1000 Ang^3
#
#
#
# Elastic Constant Matrix: (Units=GPa)
#
#
# Indices 1 2 3 4 5 6 
#
# 1 121.4967 -2.6183 35.5851 0.0000 0.0000 0.0000
# 2 -2.6183 7.2387 14.1363 0.0000 0.0000 0.0000
# 3 35.5851 14.1363 126.4792 0.0000 0.0000 0.0000
# 4 0.0000 0.0000 0.0000 17.7546 0.0000 0.0000
# 5 0.0000 0.0000 0.0000 0.0000 24.6832 0.0000
# 6 0.0000 0.0000 0.0000 0.0000 0.0000 1.3926
#
#
#
# Elastic Compliance Matrix: (Units=1/GPa)
#
#
# Indices 1 2 3 4 5 6 
#
# 1 0.009634 0.011229 -0.003966 0.000000 0.000000 0.000000
# 2 0.011229 0.189809 -0.024374 0.000000 0.000000 0.000000
# 3 -0.003966 -0.024374 0.011746 0.000000 0.000000 0.000000
# 4 0.000000 0.000000 0.000000 0.056324 0.000000 0.000000
# 5 0.000000 0.000000 0.000000 0.000000 0.040513 0.000000
# 6 0.000000 0.000000 0.000000 0.000000 0.000000 0.718057
#
#
# Mechanical properties :
#
#
# Convention : Reuss Voigt Hill
#
# Bulk Modulus (GPa) = 5.65072 38.82455 22.23763
# Shear Modulus (GPa) = 4.46711 22.64018 13.55364
#
# Velocity S-wave (km/s) = 1.52220 3.42688 2.65147
# Velocity P-wave (km/s) = 2.45367 5.98301 4.57257
#
# Compressibility (1/GPa) = 0.17696852
#
# Stress axis : x y z
#
# Youngs Moduli (GPa) = 103.79728 5.26847 85.13243
#
# Poissons Ratio (x) = -0.05916 0.33761
# Poissons Ratio (y) = -1.16556 2.07501
# Poissons Ratio (z) = 0.41162 0.12841
#
# Static dielectric constant tensor:
#      x y z
#    x 1.745560 0.000000 0.000000 
#    y 0.000000 1.699490 0.000000 
#    z 0.000000 0.000000 1.696730 
# 
# From -- ./inp_files/38233.got.cif
#   From: 2010.05.17/outbox.cif.g08.bks.cpg/sg22_20_cif.got.tgz:38233.got - 2010.06.03 23:40:54.
