data_PCOD9326345
_publ_section_title
;
Structure prediction by ZEFSAII (Michael W. Deem and Ramdas Pophale) SiO2 
 PCOD9326345
Probable space group: F 2 2 2
;
_chemical_formula_sum "Si O2"
_cell_formula_units_Z 104
_cell_length_a 18.924137
_cell_length_b 16.769501
_cell_length_c 16.723809
_cell_angle_alpha 90.000000
_cell_angle_beta 90.000000
_cell_angle_gamma 90.000000
_cell_volume 5307.272930
_symmetry_space_group_name_H-M "F 2 2 2"
_symmetry_group_IT_number 22
_symmetry_cell_setting 'orthorhombic'
loop_
_space_group_symop_operation_xyz
x,y,z
-x,-y,z
x,-y,-z
-x,y,-z
x,1/2+y,1/2+z
-x,1/2-y,1/2+z
x,1/2-y,1/2-z
-x,1/2+y,1/2-z
1/2+x,y,1/2+z
1/2-x,-y,1/2+z
1/2+x,-y,1/2-z
1/2-x,y,1/2-z
1/2+x,1/2+y,z
1/2-x,1/2-y,z
1/2+x,1/2-y,-z
1/2-x,1/2+y,-z
loop_
_atom_site_type_symbol
_atom_site_label
_atom_site_fract_x
_atom_site_fract_y
_atom_site_fract_z
Si Si1 0.890893 0.312734 0.806613
Si Si2 0.640902 0.200888 0.991821
Si Si3 0.750000 0.384496 0.750000
Si Si4 0.074837 0.051313 0.568363
Si Si5 0.189689 0.484409 0.373846
Si Si6 0.421728 0.486583 0.268256
Si Si7 0.201476 0.132059 0.982837
O O1 0.930468 0.250000 0.750000
O O2 0.818877 0.331173 0.757029
O O3 0.925494 0.399061 0.807784
O O4 0.877272 0.288384 0.897813
O O5 0.584737 0.141519 0.035390
O O6 0.718590 0.160064 0.997648
O O7 0.653527 0.289253 0.027668
O O8 0.746777 0.441410 0.673098
O O9 0.115409 0.000000 0.500000
O O10 0.100053 0.045078 0.659350
O O11 0.000000 0.000000 0.573950
O O12 0.130725 0.488888 0.305734
O O13 0.204341 0.570798 0.409363
O O14 0.172600 0.422062 0.444244
O O15 0.500000 0.500000 0.237265
#
# Coordination Sequence:
#
# PCOD9326345 Si02
#       7
#    16  16   8  16  16  16  16
#     4  11  21  32  58  90 121 149 194 254 314 348
#     4  11  21  36  59  89 130 155 193 260 308 368
#     4  10  19  32  56  87 116 150 186 250 293 358
#     4  10  21  38  62  90 117 160 204 251 317 372
#     4  10  21  38  61  84 117 162 208 238 305 380
#     4  10  22  40  60  83 115 157 205 256 304 370
#     4  10  23  37  57  93 123 163 202 242 317 380
#
# _framework density 19.595751
#
# number of rings (size 3 to 8) (size 9 to 14) (size 15 to 20)
#    0.000    1.692    3.077    2.077    8.615    0.000 
#    0.000    5.385    3.385    0.000    0.000    0.000 
#    0.000    0.000    0.000    0.000    0.000    0.000 
#
# Total GULP energy -144787.919592 kJ/mol
# GULP energy per Si atom -5568.766138 kJ/mol
# Density = 1.955115 g / cm^3
# Si number density = 19.595751 Si / 1000 Ang^3
#
#
#
# Elastic Constant Matrix: (Units=GPa)
#
#
# Indices 1 2 3 4 5 6 
#
# 1 39.7274 17.6528 8.9797 0.0000 0.0000 0.0000
# 2 17.6528 148.3660 52.2914 0.0000 0.0000 0.0000
# 3 8.9797 52.2914 106.7066 0.0000 0.0000 0.0000
# 4 0.0000 0.0000 0.0000 9.3595 0.0000 0.0000
# 5 0.0000 0.0000 0.0000 0.0000 11.9100 0.0000
# 6 0.0000 0.0000 0.0000 0.0000 0.0000 17.4681
#
#
#
# Elastic Compliance Matrix: (Units=1/GPa)
#
#
# Indices 1 2 3 4 5 6 
#
# 1 0.026638 -0.002876 -0.000832 0.000000 0.000000 0.000000
# 2 -0.002876 0.008458 -0.003903 0.000000 0.000000 0.000000
# 3 -0.000832 -0.003903 0.011354 0.000000 0.000000 0.000000
# 4 0.000000 0.000000 0.000000 0.106843 0.000000 0.000000
# 5 0.000000 0.000000 0.000000 0.000000 0.083963 0.000000
# 6 0.000000 0.000000 0.000000 0.000000 0.000000 0.057247
#
#
# Mechanical properties :
#
#
# Convention : Reuss Voigt Hill
#
# Bulk Modulus (GPa) = 32.02308 50.29418 41.15863
# Shear Modulus (GPa) = 15.61844 22.13925 18.87884
#
# Velocity S-wave (km/s) = 2.82624 3.36489 3.10726
# Velocity P-wave (km/s) = 5.19880 6.38892 5.82433
#
# Compressibility (1/GPa) = 0.03122748
#
# Stress axis : x y z
#
# Youngs Moduli (GPa) = 37.54090 118.23420 88.07439
#
# Poissons Ratio (x) = 0.34005 0.07330
# Poissons Ratio (y) = 0.10797 0.34373
# Poissons Ratio (z) = 0.03124 0.46143
#
# Static dielectric constant tensor:
#      x y z
#    x 1.748640 0.000000 0.000000 
#    y 0.000000 1.740530 0.000000 
#    z 0.000000 0.000000 1.716120 
# 
# From -- ./inp_files/31718.got.cif
#   From: 2010.05.17/outbox.cif.g08.bks.cpg/sg22_16_cif.got.tgz:31718.got - 2010.06.03 23:40:54.
