data_PCOD9326647
_publ_section_title
;
Structure prediction by ZEFSAII (Michael W. Deem and Ramdas Pophale) SiO2 
 PCOD9326647
Probable space group: F 2 2 2
;
_chemical_formula_sum "Si O2"
_cell_formula_units_Z 112
_cell_length_a 14.363703
_cell_length_b 31.933187
_cell_length_c 10.372561
_cell_angle_alpha 90.000000
_cell_angle_beta 90.000000
_cell_angle_gamma 90.000000
_cell_volume 4757.673977
_symmetry_space_group_name_H-M "F 2 2 2"
_symmetry_group_IT_number 22
_symmetry_cell_setting 'orthorhombic'
loop_
_space_group_symop_operation_xyz
x,y,z
-x,-y,z
x,-y,-z
-x,y,-z
x,1/2+y,1/2+z
-x,1/2-y,1/2+z
x,1/2-y,1/2-z
-x,1/2+y,1/2-z
1/2+x,y,1/2+z
1/2-x,-y,1/2+z
1/2+x,-y,1/2-z
1/2-x,y,1/2-z
1/2+x,1/2+y,z
1/2-x,1/2-y,z
1/2+x,1/2-y,-z
1/2-x,1/2+y,-z
loop_
_atom_site_type_symbol
_atom_site_label
_atom_site_fract_x
_atom_site_fract_y
_atom_site_fract_z
Si Si1 0.310553 0.085688 0.628540
Si Si2 0.105230 0.165380 0.965419
Si Si3 0.899727 0.482358 0.196896
Si Si4 0.781074 0.797138 0.454911
Si Si5 0.057780 0.852587 0.633406
Si Si6 0.352685 0.936812 0.941354
Si Si7 0.402622 0.795609 0.220021
O O1 0.250000 0.104042 0.750000
O O2 0.387548 0.117646 0.580030
O O3 0.353001 0.043850 0.689887
O O4 0.242138 0.077700 0.509472
O O5 0.188721 0.174242 0.064044
O O6 0.148959 0.194110 0.851749
O O7 0.000000 0.177548 0.000000
O O8 0.842448 0.522276 0.146341
O O9 0.000000 0.500000 0.232702
O O10 0.908522 0.452124 0.070787
O O11 0.750000 0.750000 0.425870
O O12 0.860070 0.818979 0.369389
O O13 0.839225 0.796362 0.593029
O O14 0.100149 0.899111 0.637890
O O15 0.000000 0.852925 0.500000
O O16 0.978916 0.832679 0.722552
O O17 0.445017 0.750000 0.250000
#
# Coordination Sequence:
#
# PCOD9326647 Si02
#       7
#    16  16  16  16  16  16  16
#     4  10  22  42  69  94 129 176 219 268 331 400
#     4  12  26  42  64  95 138 176 224 279 328 388
#     4  10  21  36  67  99 131 166 213 279 326 391
#     4  11  22  40  69  98 133 177 220 272 330 392
#     4  10  22  37  68 102 131 168 221 275 329 396
#     4  10  19  39  65 100 130 167 221 268 329 393
#     4  11  24  39  66 102 132 173 224 276 331 399
#
# _framework density 23.540914000000001
#
# number of rings (size 3 to 8) (size 9 to 14) (size 15 to 20)
#    0.000    1.429    2.857    3.000   10.000    0.000 
#    0.000    7.857    0.000    0.000    0.000    0.000 
#    0.000    0.000    0.000    0.000    0.000    0.000 
#
# Total GULP energy -156225.156518 kJ/mol
# GULP energy per Si atom -5579.469876 kJ/mol
# Density = 2.348733 g / cm^3
# Si number density = 23.540914 Si / 1000 Ang^3
#
#
#
# Elastic Constant Matrix: (Units=GPa)
#
#
# Indices 1 2 3 4 5 6 
#
# 1 110.6285 56.0698 6.3716 0.0000 0.0000 0.0000
# 2 56.0698 156.4503 29.5435 0.0000 0.0000 0.0000
# 3 6.3716 29.5435 48.2974 0.0000 0.0000 0.0000
# 4 0.0000 0.0000 0.0000 13.7036 0.0000 0.0000
# 5 0.0000 0.0000 0.0000 0.0000 10.9274 0.0000
# 6 0.0000 0.0000 0.0000 0.0000 0.0000 44.3155
#
#
#
# Elastic Compliance Matrix: (Units=1/GPa)
#
#
# Indices 1 2 3 4 5 6 
#
# 1 0.011097 -0.004184 0.001095 0.000000 0.000000 0.000000
# 2 -0.004184 0.008804 -0.004833 0.000000 0.000000 0.000000
# 3 0.001095 -0.004833 0.023517 0.000000 0.000000 0.000000
# 4 0.000000 0.000000 0.000000 0.072973 0.000000 0.000000
# 5 0.000000 0.000000 0.000000 0.000000 0.091513 0.000000
# 6 0.000000 0.000000 0.000000 0.000000 0.000000 0.022565
#
#
# Mechanical properties :
#
#
# Convention : Reuss Voigt Hill
#
# Bulk Modulus (GPa) = 36.26612 55.48290 45.87451
# Shear Modulus (GPa) = 19.56911 28.68205 24.12558
#
# Velocity S-wave (km/s) = 2.88632 3.49433 3.20478
# Velocity P-wave (km/s) = 5.15236 6.31667 5.76399
#
# Compressibility (1/GPa) = 0.02757394
#
# Stress axis : x y z
#
# Youngs Moduli (GPa) = 90.11763 113.58573 42.52212
#
# Poissons Ratio (x) = 0.47521 -0.04657
# Poissons Ratio (y) = 0.37703 0.20553
# Poissons Ratio (z) = -0.09870 0.54901
#
# Static dielectric constant tensor:
#      x y z
#    x 1.884280 0.000000 0.000000 
#    y 0.000000 1.892590 0.000000 
#    z 0.000000 0.000000 1.959610 
# 
# From -- ./inp_files/20309.got.cif
#   From: 2010.05.17/outbox.cif.g08.bks.cpg/sg22_11_cif.got.tgz:20309.got - 2010.06.03 23:40:54.
