data_PCOD9326271
_publ_section_title
;
Structure prediction by ZEFSAII (Michael W. Deem and Ramdas Pophale) SiO2 
 PCOD9326271
Probable space group: F 2 2 2
;
_chemical_formula_sum "Si O2"
_cell_formula_units_Z 88
_cell_length_a 20.490046
_cell_length_b 13.613870
_cell_length_c 15.654858
_cell_angle_alpha 90.000000
_cell_angle_beta 90.000000
_cell_angle_gamma 90.000000
_cell_volume 4366.904206
_symmetry_space_group_name_H-M "F 2 2 2"
_symmetry_group_IT_number 22
_symmetry_cell_setting 'orthorhombic'
loop_
_space_group_symop_operation_xyz
x,y,z
-x,-y,z
x,-y,-z
-x,y,-z
x,1/2+y,1/2+z
-x,1/2-y,1/2+z
x,1/2-y,1/2-z
-x,1/2+y,1/2-z
1/2+x,y,1/2+z
1/2-x,-y,1/2+z
1/2+x,-y,1/2-z
1/2-x,y,1/2-z
1/2+x,1/2+y,z
1/2-x,1/2-y,z
1/2+x,1/2-y,-z
1/2-x,1/2+y,-z
loop_
_atom_site_type_symbol
_atom_site_label
_atom_site_fract_x
_atom_site_fract_y
_atom_site_fract_z
Si Si1 0.476077 0.633566 0.357412
Si Si2 0.000000 0.000000 0.500000
Si Si3 0.673065 0.644875 0.603088
Si Si4 0.500000 0.500000 0.199708
Si Si5 0.685738 0.795263 0.447524
Si Si6 0.257818 0.000000 0.500000
Si Si7 0.538895 0.326573 0.908989
Si Si8 0.750000 0.750000 0.750000
O O1 0.523286 0.578677 0.426941
O O2 0.403430 0.625137 0.393902
O O3 0.472569 0.579375 0.266922
O O4 0.498199 0.745673 0.356293
O O5 0.682891 0.731772 0.534468
O O6 0.711581 0.549424 0.570871
O O7 0.703801 0.683420 0.690735
O O8 0.541891 0.567770 0.136689
O O9 0.750000 0.750000 0.400815
O O10 0.700133 0.909477 0.465258
O O11 0.612967 0.788097 0.412237
O O12 0.500000 0.333925 0.000000
#
# Coordination Sequence:
#
# PCOD9326271 Si02
#       8
#    16   4  16   8  16   8  16   4
#     4  11  23  43  69  95 140 173 226 283 338 399
#     4  10  18  40  66 102 110 182 234 264 314 422
#     4  11  22  40  64  96 130 175 221 275 331 398
#     4  11  29  39  61 110 138 166 217 291 351 389
#     4  10  22  41  66  97 130 177 232 272 324 403
#     4  10  21  40  63  97 132 173 226 276 322 407
#     4  12  24  43  71  99 134 181 229 276 339 410
#     4  12  24  36  60 100 134 158 214 264 344 384
#
# _framework density 20.151575999999999
#
# number of rings (size 3 to 8) (size 9 to 14) (size 15 to 20)
#    0.000    1.091    5.455    1.364    5.091    5.818 
#    0.000    0.000    0.000    6.545    0.000    1.273 
#    0.000    0.000    0.000    0.000    0.000    0.000 
#
# Total GULP energy -122489.948206 kJ/mol
# GULP energy per Si atom -5567.724918 kJ/mol
# Density = 2.010571 g / cm^3
# Si number density = 20.151576 Si / 1000 Ang^3
#
#
#
# Elastic Constant Matrix: (Units=GPa)
#
#
# Indices 1 2 3 4 5 6 
#
# 1 97.0825 11.5467 21.6799 0.0000 0.0000 0.0000
# 2 11.5467 108.8606 35.3026 0.0000 0.0000 0.0000
# 3 21.6799 35.3026 78.5008 0.0000 0.0000 0.0000
# 4 0.0000 0.0000 0.0000 39.3157 0.0000 0.0000
# 5 0.0000 0.0000 0.0000 0.0000 8.8774 0.0000
# 6 0.0000 0.0000 0.0000 0.0000 0.0000 11.2280
#
#
#
# Elastic Compliance Matrix: (Units=1/GPa)
#
#
# Indices 1 2 3 4 5 6 
#
# 1 0.010982 -0.000212 -0.002937 0.000000 0.000000 0.000000
# 2 -0.000212 0.010759 -0.004780 0.000000 0.000000 0.000000
# 3 -0.002937 -0.004780 0.015699 0.000000 0.000000 0.000000
# 4 0.000000 0.000000 0.000000 0.025435 0.000000 0.000000
# 5 0.000000 0.000000 0.000000 0.000000 0.112646 0.000000
# 6 0.000000 0.000000 0.000000 0.000000 0.000000 0.089063
#
#
# Mechanical properties :
#
#
# Convention : Reuss Voigt Hill
#
# Bulk Modulus (GPa) = 46.33678 46.83360 46.58519
# Shear Modulus (GPa) = 17.38311 26.27853 21.83082
#
# Velocity S-wave (km/s) = 2.94022 3.61507 3.29497
# Velocity P-wave (km/s) = 5.87967 6.38092 6.13542
#
# Compressibility (1/GPa) = 0.02158113
#
# Stress axis : x y z
#
# Youngs Moduli (GPa) = 91.06037 92.94926 63.69668
#
# Poissons Ratio (x) = 0.01973 0.18710
# Poissons Ratio (y) = 0.01933 0.30445
# Poissons Ratio (z) = 0.26748 0.44426
#
# Static dielectric constant tensor:
#      x y z
#    x 1.791160 0.000000 0.000000 
#    y 0.000000 1.720110 0.000000 
#    z 0.000000 0.000000 1.730140 
# 
# From -- ./inp_files/31505.got.cif
#   From: 2010.05.17/outbox.cif.g08.bks.cpg/sg22_16_cif.got.tgz:31505.got - 2010.06.03 23:40:54.
