data_PCOD9326457
_publ_section_title
;
Structure prediction by ZEFSAII (Michael W. Deem and Ramdas Pophale) SiO2 
 PCOD9326457
Probable space group: F 2 2 2
;
_chemical_formula_sum "Si O2"
_cell_formula_units_Z 104
_cell_length_a 18.788095
_cell_length_b 31.221561
_cell_length_c 9.059950
_cell_angle_alpha 90.000000
_cell_angle_beta 90.000000
_cell_angle_gamma 90.000000
_cell_volume 5314.509177
_symmetry_space_group_name_H-M "F 2 2 2"
_symmetry_group_IT_number 22
_symmetry_cell_setting 'orthorhombic'
loop_
_space_group_symop_operation_xyz
x,y,z
-x,-y,z
x,-y,-z
-x,y,-z
x,1/2+y,1/2+z
-x,1/2-y,1/2+z
x,1/2-y,1/2-z
-x,1/2+y,1/2-z
1/2+x,y,1/2+z
1/2-x,-y,1/2+z
1/2+x,-y,1/2-z
1/2-x,y,1/2-z
1/2+x,1/2+y,z
1/2-x,1/2-y,z
1/2+x,1/2-y,-z
1/2-x,1/2+y,-z
loop_
_atom_site_type_symbol
_atom_site_label
_atom_site_fract_x
_atom_site_fract_y
_atom_site_fract_z
Si Si1 0.915449 0.951274 0.965348
Si Si2 0.376846 0.816188 0.440518
Si Si3 0.044841 0.882453 0.256740
Si Si4 0.377829 0.383713 0.192396
Si Si5 0.847047 0.362948 0.998754
Si Si6 0.250000 0.652367 0.250000
Si Si7 0.667253 0.762899 0.079825
O O1 0.916661 0.925228 0.810234
O O2 0.871718 0.922196 0.078432
O O3 0.000000 0.949245 0.000000
O O4 0.894645 0.000000 0.000000
O O5 0.436422 0.843459 0.355862
O O6 0.363109 0.841462 0.594391
O O7 0.310464 0.820320 0.329630
O O8 0.383948 0.766832 0.480877
O O9 0.079814 0.872802 0.414465
O O10 0.960073 0.885052 0.248218
O O11 0.335045 0.385819 0.343474
O O12 0.787260 0.373412 0.119504
O O13 0.843184 0.312473 0.958410
O O14 0.653981 0.750000 0.250000
O O15 0.750000 0.750000 0.051333
#
# Coordination Sequence:
#
# PCOD9326457 Si02
#       7
#    16  16  16  16  16   8  16
#     4   8  15  32  58  83 109 142 179 219 263 323
#     4  10  19  35  53  75 106 140 182 235 265 318
#     4   9  20  34  53  83 113 142 180 215 267 338
#     4  10  19  35  55  79 113 149 172 212 280 335
#     4  11  21  35  53  77 113 144 179 236 272 314
#     4  10  22  33  50  80 100 130 190 232 278 296
#     4  11  21  34  53  77 106 136 198 241 270 303
#
# _framework density 19.56907
#
# number of rings (size 3 to 8) (size 9 to 14) (size 15 to 20)
#    0.000    2.154    3.077    1.846    0.000    3.692 
#    0.000    5.385    0.000    3.692    0.000   58.154 
#    0.000    0.000    0.000    0.000    0.000    0.000 
#
# Total GULP energy -144860.654376 kJ/mol
# GULP energy per Si atom -5571.563630 kJ/mol
# Density = 1.952453 g / cm^3
# Si number density = 19.569070 Si / 1000 Ang^3
#
#
#
# Elastic Constant Matrix: (Units=GPa)
#
#
# Indices 1 2 3 4 5 6 
#
# 1 18.4028 7.8301 13.8157 0.0000 0.0000 0.0000
# 2 7.8301 95.7907 22.5206 0.0000 0.0000 0.0000
# 3 13.8157 22.5206 118.3668 0.0000 0.0000 0.0000
# 4 0.0000 0.0000 0.0000 7.1876 0.0000 0.0000
# 5 0.0000 0.0000 0.0000 0.0000 27.9722 0.0000
# 6 0.0000 0.0000 0.0000 0.0000 0.0000 13.6896
#
#
#
# Elastic Compliance Matrix: (Units=1/GPa)
#
#
# Indices 1 2 3 4 5 6 
#
# 1 0.060626 -0.003446 -0.006421 0.000000 0.000000 0.000000
# 2 -0.003446 0.011124 -0.001714 0.000000 0.000000 0.000000
# 3 -0.006421 -0.001714 0.009524 0.000000 0.000000 0.000000
# 4 0.000000 0.000000 0.000000 0.139128 0.000000 0.000000
# 5 0.000000 0.000000 0.000000 0.000000 0.035750 0.000000
# 6 0.000000 0.000000 0.000000 0.000000 0.000000 0.073048
#
#
# Mechanical properties :
#
#
# Convention : Reuss Voigt Hill
#
# Bulk Modulus (GPa) = 17.20813 35.65481 26.43147
# Shear Modulus (GPa) = 13.45052 22.32946 17.88999
#
# Velocity S-wave (km/s) = 2.62455 3.38162 3.02685
# Velocity P-wave (km/s) = 4.24229 5.78850 5.07463
#
# Compressibility (1/GPa) = 0.05811207
#
# Stress axis : x y z
#
# Youngs Moduli (GPa) = 16.49454 89.89455 104.99919
#
# Poissons Ratio (x) = 0.30979 0.67416
# Poissons Ratio (y) = 0.05684 0.18000
# Poissons Ratio (z) = 0.10590 0.15410
#
# Static dielectric constant tensor:
#      x y z
#    x 1.745700 0.000000 0.000000 
#    y 0.000000 1.694790 0.000000 
#    z 0.000000 0.000000 1.720100 
# 
# From -- ./inp_files/13059.got.cif
#   From: 2010.05.17/outbox.cif.g08.bks.cpg/sg22_7_cif.got.tgz:13059.got - 2010.06.03 23:40:54.
