data_PCOD9326525
_publ_section_title
;
Structure prediction by ZEFSAII (Michael W. Deem and Ramdas Pophale) SiO2 
 PCOD9326525
Probable space group: F 2 2 2
;
_chemical_formula_sum "Si O2"
_cell_formula_units_Z 108
_cell_length_a 20.233948
_cell_length_b 22.376314
_cell_length_c 11.727213
_cell_angle_alpha 90.000000
_cell_angle_beta 90.000000
_cell_angle_gamma 90.000000
_cell_volume 5309.626725
_symmetry_space_group_name_H-M "F 2 2 2"
_symmetry_group_IT_number 22
_symmetry_cell_setting 'orthorhombic'
loop_
_space_group_symop_operation_xyz
x,y,z
-x,-y,z
x,-y,-z
-x,y,-z
x,1/2+y,1/2+z
-x,1/2-y,1/2+z
x,1/2-y,1/2-z
-x,1/2+y,1/2-z
1/2+x,y,1/2+z
1/2-x,-y,1/2+z
1/2+x,-y,1/2-z
1/2-x,y,1/2-z
1/2+x,1/2+y,z
1/2-x,1/2-y,z
1/2+x,1/2-y,-z
1/2-x,1/2+y,-z
loop_
_atom_site_type_symbol
_atom_site_label
_atom_site_fract_x
_atom_site_fract_y
_atom_site_fract_z
Si Si1 0.043107 0.138437 0.393548
Si Si2 0.864079 0.468924 0.893684
Si Si3 0.750000 0.750000 0.750000
Si Si4 0.839787 0.445514 0.421209
Si Si5 0.045750 0.445137 0.740703
Si Si6 0.750000 0.019268 0.750000
Si Si7 0.662533 0.726420 0.375264
Si Si8 0.212893 0.321340 0.522193
O O1 0.087222 0.082239 0.433690
O O2 0.096199 0.188235 0.360529
O O3 0.000000 0.159544 0.500000
O O4 0.996984 0.107812 0.297037
O O5 0.908160 0.519572 0.832168
O O6 0.808270 0.444446 0.809697
O O7 0.829850 0.500000 0.000000
O O8 0.781275 0.704407 0.653114
O O9 0.861859 0.500000 0.500000
O O10 0.903561 0.422300 0.353348
O O11 0.787710 0.475846 0.336190
O O12 0.804261 0.390479 0.480468
O O13 0.000000 0.500000 0.697344
O O14 0.681184 0.750000 0.250000
O O15 0.720149 0.691237 0.447413
O O16 0.656346 0.784081 0.456987
#
# Coordination Sequence:
#
# PCOD9326525 Si02
#       8
#    16  16   4  16  16   8  16  16
#     4  11  22  39  69  95 124 178 229 274 322 388
#     4  10  19  36  60  93 135 167 207 269 324 384
#     4   8  18  40  66  92 128 178 212 260 340 390
#     4  11  24  40  62 101 135 173 215 270 341 406
#     4   9  21  39  59  92 131 175 212 260 325 395
#     4  10  23  34  56 101 135 169 218 260 324 400
#     4  10  24  45  64  94 128 175 224 278 337 395
#     4  10  22  43  70  96 133 173 219 280 347 400
#
# _framework density 20.340413000000002
#
# number of rings (size 3 to 8) (size 9 to 14) (size 15 to 20)
#    0.000    2.074    1.481    1.778    4.148    6.222 
#    5.333    0.000    0.000    0.000    0.000    0.000 
#    0.000    0.000    0.000    0.000    0.000    0.000 
#
# Total GULP energy -150423.605229 kJ/mol
# GULP energy per Si atom -5571.244638 kJ/mol
# Density = 2.029412 g / cm^3
# Si number density = 20.340413 Si / 1000 Ang^3
#
#
#
# Elastic Constant Matrix: (Units=GPa)
#
#
# Indices 1 2 3 4 5 6 
#
# 1 104.3766 22.2190 40.0923 0.0000 0.0000 0.0000
# 2 22.2190 67.4077 32.0920 0.0000 0.0000 0.0000
# 3 40.0923 32.0920 94.8660 0.0000 0.0000 0.0000
# 4 0.0000 0.0000 0.0000 18.9430 0.0000 0.0000
# 5 0.0000 0.0000 0.0000 0.0000 33.4759 0.0000
# 6 0.0000 0.0000 0.0000 0.0000 0.0000 43.3448
#
#
#
# Elastic Compliance Matrix: (Units=1/GPa)
#
#
# Indices 1 2 3 4 5 6 
#
# 1 0.011613 -0.001778 -0.004307 0.000000 0.000000 0.000000
# 2 -0.001778 0.017955 -0.005323 0.000000 0.000000 0.000000
# 3 -0.004307 -0.005323 0.014162 0.000000 0.000000 0.000000
# 4 0.000000 0.000000 0.000000 0.052790 0.000000 0.000000
# 5 0.000000 0.000000 0.000000 0.000000 0.029872 0.000000
# 6 0.000000 0.000000 0.000000 0.000000 0.000000 0.023071
#
#
# Mechanical properties :
#
#
# Convention : Reuss Voigt Hill
#
# Bulk Modulus (GPa) = 47.80969 50.60631 49.20800
# Shear Modulus (GPa) = 27.89406 30.63588 29.26497
#
# Velocity S-wave (km/s) = 3.70721 3.88514 3.79721
# Velocity P-wave (km/s) = 6.47150 6.71263 6.59317
#
# Compressibility (1/GPa) = 0.02091626
#
# Stress axis : x y z
#
# Youngs Moduli (GPa) = 86.10784 55.69442 70.61213
#
# Poissons Ratio (x) = 0.09900 0.30410
# Poissons Ratio (y) = 0.15307 0.37585
# Poissons Ratio (z) = 0.37084 0.29645
#
# Static dielectric constant tensor:
#      x y z
#    x 1.733060 0.000000 0.000000 
#    y 0.000000 1.712780 0.000000 
#    z 0.000000 0.000000 1.745830 
# 
# From -- ./inp_files/22980.got.cif
#   From: 2010.05.17/outbox.cif.g08.bks.cpg/sg22_12_cif.got.tgz:22980.got - 2010.06.03 23:40:54.
