data_PCOD9326110
_publ_section_title
;
Structure prediction by ZEFSAII (Michael W. Deem and Ramdas Pophale) SiO2 
 PCOD9326110
Probable space group: F 2 2 2
;
_chemical_formula_sum "Si O2"
_cell_formula_units_Z 80
_cell_length_a 14.936405
_cell_length_b 21.653535
_cell_length_c 13.812241
_cell_angle_alpha 90.000000
_cell_angle_beta 90.000000
_cell_angle_gamma 90.000000
_cell_volume 4467.237422
_symmetry_space_group_name_H-M "F 2 2 2"
_symmetry_group_IT_number 22
_symmetry_cell_setting 'orthorhombic'
loop_
_space_group_symop_operation_xyz
x,y,z
-x,-y,z
x,-y,-z
-x,y,-z
x,1/2+y,1/2+z
-x,1/2-y,1/2+z
x,1/2-y,1/2-z
-x,1/2+y,1/2-z
1/2+x,y,1/2+z
1/2-x,-y,1/2+z
1/2+x,-y,1/2-z
1/2-x,y,1/2-z
1/2+x,1/2+y,z
1/2-x,1/2-y,z
1/2+x,1/2-y,-z
1/2-x,1/2+y,-z
loop_
_atom_site_type_symbol
_atom_site_label
_atom_site_fract_x
_atom_site_fract_y
_atom_site_fract_z
Si Si1 0.500000 0.426085 0.613492
Si Si2 0.153502 0.353026 0.778429
Si Si3 0.153502 0.353027 0.221570
Si Si4 0.604362 0.736382 0.110787
Si Si5 0.395639 0.763620 0.389212
O O1 0.500000 0.500000 0.616284
O O2 0.500000 0.406560 0.500000
O O3 0.413653 0.399199 0.669015
O O4 0.586345 0.399200 0.669018
O O5 0.250000 0.379063 0.750000
O O6 0.162193 0.293508 0.849418
O O7 0.114317 0.321872 0.681171
O O8 0.250000 0.379064 0.250000
O O9 0.114320 0.321869 0.318826
O O10 0.162194 0.293510 0.150578
O O11 0.500000 0.756938 0.117257
O O12 0.624859 0.722124 1.000000
#
# Coordination Sequence:
#
# PCOD9326110 Si02
#       5
#    16  16  16  16  16
#     4  11  24  43  63  81 109 153 201 246 288 335
#     4  11  21  35  58  86 117 149 188 238 286 341
#     4  11  21  35  58  86 117 149 188 238 286 341
#     4  10  18  32  57  87 120 155 184 222 285 352
#     4  10  18  32  57  87 120 155 184 222 285 352
#
# _framework density 17.908158
#
# number of rings (size 3 to 8) (size 9 to 14) (size 15 to 20)
#    0.000    1.400    4.000    4.800    0.000    5.600 
#    0.000    0.000    0.000    2.400    0.000    0.000 
#    0.000    0.000    0.000    0.000    0.000    0.000 
#
# Total GULP energy -111675.269990 kJ/mol
# GULP energy per Si atom -5583.763499 kJ/mol
# Density = 1.786740 g / cm^3
# Si number density = 17.908158 Si / 1000 Ang^3
#
#
#
# Elastic Constant Matrix: (Units=GPa)
#
#
# Indices 1 2 3 4 5 6 
#
# 1 126.0066 42.2272 49.1373 0.0000 0.0000 0.0000
# 2 42.2272 70.6780 49.1118 0.0000 0.0000 0.0000
# 3 49.1373 49.1118 166.7716 0.0000 0.0000 0.0000
# 4 0.0000 0.0000 0.0000 24.7909 0.0000 0.0000
# 5 0.0000 0.0000 0.0000 0.0000 7.1106 0.0000
# 6 0.0000 0.0000 0.0000 0.0000 0.0000 14.3214
#
#
#
# Elastic Compliance Matrix: (Units=1/GPa)
#
#
# Indices 1 2 3 4 5 6 
#
# 1 0.010222 -0.005047 -0.001526 0.000000 0.000000 0.000000
# 2 -0.005047 0.020281 -0.004485 0.000000 0.000000 0.000000
# 3 -0.001526 -0.004485 0.007767 0.000000 0.000000 0.000000
# 4 0.000000 0.000000 0.000000 0.040337 0.000000 0.000000
# 5 0.000000 0.000000 0.000000 0.000000 0.140636 0.000000
# 6 0.000000 0.000000 0.000000 0.000000 0.000000 0.069825
#
#
# Mechanical properties :
#
#
# Convention : Reuss Voigt Hill
#
# Bulk Modulus (GPa) = 61.90617 71.60097 66.75357
# Shear Modulus (GPa) = 15.79431 24.10990 19.95211
#
# Velocity S-wave (km/s) = 2.97301 3.67319 3.34149
# Velocity P-wave (km/s) = 6.81387 7.61964 7.22799
#
# Compressibility (1/GPa) = 0.01615348
#
# Stress axis : x y z
#
# Youngs Moduli (GPa) = 97.82350 49.30723 128.75718
#
# Poissons Ratio (x) = 0.24888 0.19642
# Poissons Ratio (y) = 0.49376 0.57751
# Poissons Ratio (z) = 0.14923 0.22116
#
# Static dielectric constant tensor:
#      x y z
#    x 1.674830 0.000000 0.000000 
#    y 0.000000 1.579460 0.000000 
#    z 0.000000 0.000000 1.612120 
# 
# From -- ./inp_files/29159.got.cif
#   From: 2010.05.17/outbox.cif.g08.bks.cpg/sg22_15_cif.got.tgz:29159.got - 2010.06.03 23:40:54.
