data_PCOD9326175
_publ_section_title
;
Structure prediction by ZEFSAII (Michael W. Deem and Ramdas Pophale) SiO2 
 PCOD9326175
Probable space group: F 2 2 2
;
_chemical_formula_sum "Si O2"
_cell_formula_units_Z 88
_cell_length_a 18.799068
_cell_length_b 19.207278
_cell_length_c 12.476133
_cell_angle_alpha 90.000000
_cell_angle_beta 90.000000
_cell_angle_gamma 90.000000
_cell_volume 4504.868695
_symmetry_space_group_name_H-M "F 2 2 2"
_symmetry_group_IT_number 22
_symmetry_cell_setting 'orthorhombic'
loop_
_space_group_symop_operation_xyz
x,y,z
-x,-y,z
x,-y,-z
-x,y,-z
x,1/2+y,1/2+z
-x,1/2-y,1/2+z
x,1/2-y,1/2-z
-x,1/2+y,1/2-z
1/2+x,y,1/2+z
1/2-x,-y,1/2+z
1/2+x,-y,1/2-z
1/2-x,y,1/2-z
1/2+x,1/2+y,z
1/2-x,1/2-y,z
1/2+x,1/2-y,-z
1/2-x,1/2+y,-z
loop_
_atom_site_type_symbol
_atom_site_label
_atom_site_fract_x
_atom_site_fract_y
_atom_site_fract_z
Si Si1 0.447856 0.879490 0.276487
Si Si2 0.913298 0.998729 0.623919
Si Si3 0.750000 0.750000 0.569638
Si Si4 0.604173 0.850113 0.193771
Si Si5 0.500000 0.127304 0.500000
Si Si6 0.645966 0.250000 0.250000
Si Si7 0.364440 0.788967 0.583350
O O1 0.404024 0.932833 0.202101
O O2 0.519012 0.851293 0.216982
O O3 0.474219 0.910730 0.390795
O O4 0.401037 0.811604 0.296908
O O5 0.890730 0.000000 0.500000
O O6 0.881240 0.069607 0.670723
O O7 0.000000 0.000000 0.622512
O O8 0.693259 0.718997 0.653474
O O9 0.703674 0.798207 0.491757
O O10 0.643472 0.823298 0.299988
O O11 0.621798 0.793568 0.102588
O O12 0.565602 0.175379 0.535928
#
# Coordination Sequence:
#
# PCOD9326175 Si02
#       7
#    16  16   8  16   8   8  16
#     4  10  19  35  59  89 118 151 195 247 293 352
#     4   9  19  33  54  88 124 154 188 239 300 352
#     4  11  24  35  58  86 118 161 192 247 298 342
#     4   9  20  34  57  88 115 150 198 243 295 347
#     4  10  18  34  61  90 115 148 190 250 300 344
#     4  11  22  38  56  86 120 155 202 239 290 354
#     4  10  20  36  57  85 116 151 199 243 297 340
#
# _framework density 19.534420000000001
#
# number of rings (size 3 to 8) (size 9 to 14) (size 15 to 20)
#    0.000    2.182    1.818    2.182    2.545    2.909 
#    0.000   11.364    0.000    6.545    0.000    0.000 
#    0.000    0.000    0.000    0.000    0.000    0.000 
#
# Total GULP energy -122478.211995 kJ/mol
# GULP energy per Si atom -5567.191454 kJ/mol
# Density = 1.948996 g / cm^3
# Si number density = 19.534420 Si / 1000 Ang^3
#
#
#
# Elastic Constant Matrix: (Units=GPa)
#
#
# Indices 1 2 3 4 5 6 
#
# 1 42.2976 10.8107 26.4142 0.0000 0.0000 0.0000
# 2 10.8107 90.7124 46.1670 0.0000 0.0000 0.0000
# 3 26.4142 46.1670 109.2405 0.0000 0.0000 0.0000
# 4 0.0000 0.0000 0.0000 17.5633 0.0000 0.0000
# 5 0.0000 0.0000 0.0000 0.0000 32.4437 0.0000
# 6 0.0000 0.0000 0.0000 0.0000 0.0000 -7.2371
#
#
#
# Elastic Compliance Matrix: (Units=1/GPa)
#
#
# Indices 1 2 3 4 5 6 
#
# 1 0.027848 0.000138 -0.006792 0.000000 0.000000 0.000000
# 2 0.000138 0.014045 -0.005969 0.000000 0.000000 0.000000
# 3 -0.006792 -0.005969 0.013319 0.000000 0.000000 0.000000
# 4 0.000000 0.000000 0.000000 0.056937 0.000000 0.000000
# 5 0.000000 0.000000 0.000000 0.000000 0.030823 0.000000
# 6 0.000000 0.000000 0.000000 0.000000 0.000000 -0.138177
#
#
# Mechanical properties :
#
#
# Convention : Reuss Voigt Hill
#
# Bulk Modulus (GPa) = 33.37096 45.44826 39.40961
# Shear Modulus (GPa) = 124.90607 19.14455 72.02531
#
# Velocity S-wave (km/s) = 8.00502 3.13396 6.07873
# Velocity P-wave (km/s) = 10.12723 6.03422 8.33584
#
# Compressibility (1/GPa) = 0.02996617
#
# Stress axis : x y z
#
# Youngs Moduli (GPa) = 35.90893 71.19793 75.08036
#
# Poissons Ratio (x) = -0.00981 0.50994
# Poissons Ratio (y) = -0.00495 0.44817
# Poissons Ratio (z) = 0.24389 0.42499
#
# Static dielectric constant tensor:
#      x y z
#    x 1.676990 0.000000 0.000000 
#    y 0.000000 1.669020 0.000000 
#    z 0.000000 0.000000 1.765260 
# 
# From -- ./inp_files/22643.got.cif
#   From: 2010.05.17/outbox.cif.g08.bks.cpg/sg22_12_cif.got.tgz:22643.got - 2010.06.03 23:40:54.
