data_PCOD9326689
_publ_section_title
;
Structure prediction by ZEFSAII (Michael W. Deem and Ramdas Pophale) SiO2 
 PCOD9326689
Probable space group: F 2 2 2
;
_chemical_formula_sum "Si O2"
_cell_formula_units_Z 64
_cell_length_a 8.805375
_cell_length_b 24.106472
_cell_length_c 12.276256
_cell_angle_alpha 90.000000
_cell_angle_beta 90.000000
_cell_angle_gamma 90.000000
_cell_volume 2605.838212
_symmetry_space_group_name_H-M "F 2 2 2"
_symmetry_group_IT_number 22
_symmetry_cell_setting 'orthorhombic'
loop_
_space_group_symop_operation_xyz
x,y,z
-x,-y,z
x,-y,-z
-x,y,-z
x,1/2+y,1/2+z
-x,1/2-y,1/2+z
x,1/2-y,1/2-z
-x,1/2+y,1/2-z
1/2+x,y,1/2+z
1/2-x,-y,1/2+z
1/2+x,-y,1/2-z
1/2-x,y,1/2-z
1/2+x,1/2+y,z
1/2-x,1/2-y,z
1/2+x,1/2-y,-z
1/2-x,1/2+y,-z
loop_
_atom_site_type_symbol
_atom_site_label
_atom_site_fract_x
_atom_site_fract_y
_atom_site_fract_z
Si Si1 0.072940 0.834134 0.734992
Si Si2 0.930899 0.942432 0.121427
Si Si3 0.857840 0.197244 0.084301
Si Si4 0.649905 0.108292 0.971259
O O1 0.250000 0.815860 0.750000
O O2 0.044639 0.893363 0.793709
O O3 0.075012 0.844502 0.607267
O O4 0.942067 0.801893 0.798770
O O5 0.754085 0.934022 0.096107
O O6 0.000000 0.000000 0.161043
O O7 0.000000 0.934767 0.000000
O O8 0.750000 0.250000 0.069861
O O9 0.756291 0.142395 0.055790
O O10 0.000000 0.197615 0.000000
O O11 0.500000 0.075415 0.000000
#
# Coordination Sequence:
#
# PCOD9326689 Si02
#       4
#    16  16  16  16
#     4  10  20  44  77  97 144 193 239 299 371 434
#     4  10  19  41  75 101 139 190 233 295 374 432
#     4  12  23  45  74 109 145 195 253 311 372 440
#     4  11  23  44  71 107 149 192 244 308 371 438
#
# _framework density 24.560234000000001
#
# number of rings (size 3 to 8) (size 9 to 14) (size 15 to 20)
#    0.000    1.250    7.500    0.750    0.000    1.000 
#    0.000   27.500    0.000    0.000    0.000    0.000 
#    0.000    0.000    0.000    0.000    0.000    0.000 
#
# Total GULP energy -89207.004504 kJ/mol
# GULP energy per Si atom -5575.437781 kJ/mol
# Density = 2.450433 g / cm^3
# Si number density = 24.560234 Si / 1000 Ang^3
#
#
#
# Elastic Constant Matrix: (Units=GPa)
#
#
# Indices 1 2 3 4 5 6 
#
# 1 178.5866 71.3972 36.7590 0.0000 0.0000 0.0000
# 2 71.3972 135.1975 7.7681 0.0000 0.0000 0.0000
# 3 36.7590 7.7681 94.5773 0.0000 0.0000 0.0000
# 4 0.0000 0.0000 0.0000 32.2064 0.0000 0.0000
# 5 0.0000 0.0000 0.0000 0.0000 53.7287 0.0000
# 6 0.0000 0.0000 0.0000 0.0000 0.0000 -639.2134
#
#
#
# Elastic Compliance Matrix: (Units=1/GPa)
#
#
# Indices 1 2 3 4 5 6 
#
# 1 0.007719 -0.003922 -0.002678 0.000000 0.000000 0.000000
# 2 -0.003922 0.009425 0.000750 0.000000 0.000000 0.000000
# 3 -0.002678 0.000750 0.011553 0.000000 0.000000 0.000000
# 4 0.000000 0.000000 0.000000 0.031050 0.000000 0.000000
# 5 0.000000 0.000000 0.000000 0.000000 0.018612 0.000000
# 6 0.000000 0.000000 0.000000 0.000000 0.000000 -0.001564
#
#
# Mechanical properties :
#
#
# Convention : Reuss Voigt Hill
#
# Bulk Modulus (GPa) = 58.83582 71.13445 64.98514
# Shear Modulus (GPa) = 53.10170 -91.15985 -19.02908
#
# Velocity S-wave (km/s) = 4.65488 -6.09897 -2.78653
# Velocity P-wave (km/s) = 7.27312 4.53546 4.02044
#
# Compressibility (1/GPa) = 0.01699645
#
# Stress axis : x y z
#
# Youngs Moduli (GPa) = 129.55247 106.10197 86.56104
#
# Poissons Ratio (x) = 0.41618 0.23180
# Poissons Ratio (y) = 0.50816 -0.06496
# Poissons Ratio (z) = 0.34693 -0.07962
#
# Static dielectric constant tensor:
#      x y z
#    x 1.390990 0.000000 0.000000 
#    y 0.000000 2.014520 0.000000 
#    z 0.000000 0.000000 58.249470 
# 
# From -- ./inp_files/26877.got.cif
#   From: 2010.05.17/outbox.cif.g08.bks.cpg/sg22_14_cif.got.tgz:26877.got - 2010.06.03 23:40:54.
