data_PCOD9326427
_publ_section_title
;
Structure prediction by ZEFSAII (Michael W. Deem and Ramdas Pophale) SiO2 
 PCOD9326427
Probable space group: F 2 2 2
;
_chemical_formula_sum "Si O2"
_cell_formula_units_Z 52
_cell_length_a 20.635683
_cell_length_b 7.658023
_cell_length_c 14.919108
_cell_angle_alpha 90.000000
_cell_angle_beta 90.000000
_cell_angle_gamma 90.000000
_cell_volume 2357.644781
_symmetry_space_group_name_H-M "F 2 2 2"
_symmetry_group_IT_number 22
_symmetry_cell_setting 'orthorhombic'
loop_
_space_group_symop_operation_xyz
x,y,z
-x,-y,z
x,-y,-z
-x,y,-z
x,1/2+y,1/2+z
-x,1/2-y,1/2+z
x,1/2-y,1/2-z
-x,1/2+y,1/2-z
1/2+x,y,1/2+z
1/2-x,-y,1/2+z
1/2+x,-y,1/2-z
1/2-x,y,1/2-z
1/2+x,1/2+y,z
1/2-x,1/2-y,z
1/2+x,1/2-y,-z
1/2-x,1/2+y,-z
loop_
_atom_site_type_symbol
_atom_site_label
_atom_site_fract_x
_atom_site_fract_y
_atom_site_fract_z
Si Si1 0.750000 0.250000 0.250000
Si Si2 0.928087 0.030424 0.108065
Si Si3 0.649628 0.856732 0.889287
Si Si4 0.825519 0.756799 0.410742
O O1 0.704154 0.143189 0.185538
O O2 0.908229 0.226720 0.132959
O O3 0.868765 0.898426 0.130493
O O4 0.000000 0.000000 0.144678
O O5 0.932304 0.000000 0.000000
O O6 0.636123 0.060922 0.897942
O O7 0.676702 0.763736 0.980029
O O8 0.750000 0.750000 0.381401
#
# Coordination Sequence:
#
# PCOD9326427 Si02
#       4
#     4  16  16  16
#     4  12  20  36  58  92 124 152 186 252 298 344
#     4   9  19  36  59  86 116 153 200 248 291 349
#     4  10  21  33  56  85 121 152 192 238 295 350
#     4  10  19  34  58  89 114 154 193 241 291 354
#
# _framework density 22.055910999999998
#
# number of rings (size 3 to 8) (size 9 to 14) (size 15 to 20)
#    0.000    2.154    1.538    1.846    8.615    1.231 
#    0.000   13.077    6.769    0.000    0.000    0.000 
#    0.000    0.000    0.000    0.000    0.000    0.000 
#
# Total GULP energy -72404.594434 kJ/mol
# GULP energy per Si atom -5569.584187 kJ/mol
# Density = 2.200571 g / cm^3
# Si number density = 22.055911 Si / 1000 Ang^3
#
#
#
# Elastic Constant Matrix: (Units=GPa)
#
#
# Indices 1 2 3 4 5 6 
#
# 1 174.2476 88.6364 0.2239 0.0000 0.0000 0.0000
# 2 88.6364 120.7586 4.1270 0.0000 0.0000 0.0000
# 3 0.2239 4.1270 36.1579 0.0000 0.0000 0.0000
# 4 0.0000 0.0000 0.0000 -0.7575 0.0000 0.0000
# 5 0.0000 0.0000 0.0000 0.0000 1.7731 0.0000
# 6 0.0000 0.0000 0.0000 0.0000 0.0000 -2.9118
#
#
#
# Elastic Compliance Matrix: (Units=1/GPa)
#
#
# Indices 1 2 3 4 5 6 
#
# 1 0.009177 -0.006760 0.000715 0.000000 0.000000 0.000000
# 2 -0.006760 0.013293 -0.001475 0.000000 0.000000 0.000000
# 3 0.000715 -0.001475 0.027820 0.000000 0.000000 0.000000
# 4 0.000000 0.000000 0.000000 -1.320090 0.000001 0.000000
# 5 0.000000 0.000000 0.000000 0.000001 0.563975 0.000000
# 6 0.000000 0.000000 0.000000 0.000000 0.000000 -0.343426
#
#
# Mechanical properties :
#
#
# Convention : Reuss Voigt Hill
#
# Bulk Modulus (GPa) = 28.36964 57.45986 42.91475
# Shear Modulus (GPa) = -4.89017 15.49921 5.30452
#
# Velocity S-wave (km/s) = -1.49063 2.65377 1.55250
# Velocity P-wave (km/s) = 3.15085 5.95806 4.76583
#
# Compressibility (1/GPa) = 0.03524895
#
# Stress axis : x y z
#
# Youngs Moduli (GPa) = 108.97020 75.22553 35.94481
#
# Poissons Ratio (x) = 0.50854 -0.02569
# Poissons Ratio (y) = 0.73666 0.05303
# Poissons Ratio (z) = -0.07789 0.11099
#
# Static dielectric constant tensor:
#      x y z
#    x 1.803750 0.000000 0.000000 
#    y 0.000000 1.936730 0.000000 
#    z 0.000000 0.000000 1.937560 
# 
# From -- ./inp_files/9420.got.cif
#   From: 2010.05.17/outbox.cif.g08.bks.cpg/sg22_5_cif.got.tgz:9420.got - 2010.06.03 23:40:54.
