data_PCOD9326120
_publ_section_title
;
Structure prediction by ZEFSAII (Michael W. Deem and Ramdas Pophale) SiO2 
 PCOD9326120
Probable space group: F 2 2 2
;
_chemical_formula_sum "Si O2"
_cell_formula_units_Z 104
_cell_length_a 9.362308
_cell_length_b 24.299932
_cell_length_c 26.429114
_cell_angle_alpha 90.000000
_cell_angle_beta 90.000000
_cell_angle_gamma 90.000000
_cell_volume 6012.714556
_symmetry_space_group_name_H-M "F 2 2 2"
_symmetry_group_IT_number 22
_symmetry_cell_setting 'orthorhombic'
loop_
_space_group_symop_operation_xyz
x,y,z
-x,-y,z
x,-y,-z
-x,y,-z
x,1/2+y,1/2+z
-x,1/2-y,1/2+z
x,1/2-y,1/2-z
-x,1/2+y,1/2-z
1/2+x,y,1/2+z
1/2-x,-y,1/2+z
1/2+x,-y,1/2-z
1/2-x,y,1/2-z
1/2+x,1/2+y,z
1/2-x,1/2-y,z
1/2+x,1/2-y,-z
1/2-x,1/2+y,-z
loop_
_atom_site_type_symbol
_atom_site_label
_atom_site_fract_x
_atom_site_fract_y
_atom_site_fract_z
Si Si1 0.250000 0.345271 0.750000
Si Si2 0.517020 0.750000 0.750000
Si Si3 0.243255 0.846510 0.571781
Si Si4 0.250000 0.250000 0.503788
Si Si5 0.047432 0.316603 0.579011
Si Si6 0.489685 0.434578 0.439750
Si Si7 0.809533 0.131652 0.362494
Si Si8 0.563237 0.281958 0.645026
O O1 0.380418 0.302665 0.761156
O O2 0.218917 0.378928 0.802187
O O3 0.423662 0.734170 0.702537
O O4 0.191405 0.800223 0.530783
O O5 0.411782 0.852589 0.561620
O O6 0.159149 0.903727 0.571879
O O7 0.191789 0.817868 0.623645
O O8 0.132337 0.280465 0.537821
O O9 0.163083 0.350630 0.610559
O O10 0.968149 0.271925 0.613166
O O11 0.500000 0.500000 0.433969
O O12 0.500000 0.422425 0.500000
O O13 0.607848 0.409530 0.400940
O O14 0.917068 0.183314 0.360660
#
# Coordination Sequence:
#
# PCOD9326120 Si02
#       8
#     8   8  16   8  16  16  16  16
#     4   9  16  28  52  88 108 146 194 225 270 338
#     4   9  16  28  53  74 120 156 180 220 260 352
#     4  11  24  34  53  81 116 149 187 233 278 346
#     4  12  22  30  52  82 126 152 176 220 288 354
#     4  12  20  33  50  84 117 149 181 219 277 344
#     4  10  23  43  62  80 106 149 200 246 297 348
#     4  10  19  33  61  81 111 151 192 232 279 341
#     4  10  18  33  49  79 117 152 180 215 276 334
#
# _framework density 17.296679999999999
#
# number of rings (size 3 to 8) (size 9 to 14) (size 15 to 20)
#    0.000    1.538    4.615    1.385    2.154    0.000 
#    0.000    2.308    0.000    3.692    0.000    0.000 
#    0.000    0.000    0.000    0.000    0.000    0.000 
#
# Total GULP energy -144771.016452 kJ/mol
# GULP energy per Si atom -5568.116017 kJ/mol
# Density = 1.725731 g / cm^3
# Si number density = 17.296680 Si / 1000 Ang^3
#
#
#
# Elastic Constant Matrix: (Units=GPa)
#
#
# Indices 1 2 3 4 5 6 
#
# 1 121.6107 36.9128 46.7459 0.0000 0.0000 0.0000
# 2 36.9128 68.1189 37.6887 0.0000 0.0000 0.0000
# 3 46.7459 37.6887 113.7097 0.0000 0.0000 0.0000
# 4 0.0000 0.0000 0.0000 19.0331 0.0000 0.0000
# 5 0.0000 0.0000 0.0000 0.0000 5.0971 0.0000
# 6 0.0000 0.0000 0.0000 0.0000 0.0000 5.7579
#
#
#
# Elastic Compliance Matrix: (Units=1/GPa)
#
#
# Indices 1 2 3 4 5 6 
#
# 1 0.010622 -0.004090 -0.003011 0.000000 0.000000 0.000000
# 2 -0.004090 0.019552 -0.004799 0.000000 0.000000 0.000000
# 3 -0.003011 -0.004799 0.011623 0.000000 0.000000 0.000000
# 4 0.000000 0.000000 0.000000 0.052540 0.000000 0.000000
# 5 0.000000 0.000000 0.000000 0.000000 0.196191 0.000000
# 6 0.000000 0.000000 0.000000 0.000000 0.000000 0.173676
#
#
# Mechanical properties :
#
#
# Convention : Reuss Voigt Hill
#
# Bulk Modulus (GPa) = 55.56664 60.68157 58.12410
# Shear Modulus (GPa) = 10.12143 18.11708 14.11925
#
# Velocity S-wave (km/s) = 2.42165 3.23991 2.86019
# Velocity P-wave (km/s) = 6.32570 7.01106 6.67718
#
# Compressibility (1/GPa) = 0.01799641
#
# Stress axis : x y z
#
# Youngs Moduli (GPa) = 94.14626 51.14661 86.03802
#
# Poissons Ratio (x) = 0.20918 0.25906
# Poissons Ratio (y) = 0.38505 0.41290
# Poissons Ratio (z) = 0.28348 0.24545
#
# Static dielectric constant tensor:
#      x y z
#    x 1.634690 0.000000 0.000000 
#    y 0.000000 1.565920 0.000000 
#    z 0.000000 0.000000 1.668410 
# 
# From -- ./inp_files/52103.got.cif
#   From: 2010.05.17/outbox.cif.g08.bks.cpg/sg22_27_cif.got.tgz:52103.got - 2010.06.03 23:40:54.
