data_PCOD9326997
_publ_section_title
;
Structure prediction by ZEFSAII (Michael W. Deem and Ramdas Pophale) SiO2 
 PCOD9326997
Probable space group: F 2 2 2
;
_chemical_formula_sum "Si O2"
_cell_formula_units_Z 104
_cell_length_a 15.479847
_cell_length_b 17.440814
_cell_length_c 19.399860
_cell_angle_alpha 90.000000
_cell_angle_beta 90.000000
_cell_angle_gamma 90.000000
_cell_volume 5237.596169
_symmetry_space_group_name_H-M "F 2 2 2"
_symmetry_group_IT_number 22
_symmetry_cell_setting 'orthorhombic'
loop_
_space_group_symop_operation_xyz
x,y,z
-x,-y,z
x,-y,-z
-x,y,-z
x,1/2+y,1/2+z
-x,1/2-y,1/2+z
x,1/2-y,1/2-z
-x,1/2+y,1/2-z
1/2+x,y,1/2+z
1/2-x,-y,1/2+z
1/2+x,-y,1/2-z
1/2-x,y,1/2-z
1/2+x,1/2+y,z
1/2-x,1/2-y,z
1/2+x,1/2-y,-z
1/2-x,1/2+y,-z
loop_
_atom_site_type_symbol
_atom_site_label
_atom_site_fract_x
_atom_site_fract_y
_atom_site_fract_z
Si Si1 0.347995 0.439149 0.260367
Si Si2 0.169533 0.308018 0.502897
Si Si3 0.050101 0.157474 0.354541
Si Si4 0.385753 0.893966 0.228681
Si Si5 0.000000 0.295772 0.000000
Si Si6 0.223924 0.839701 0.146570
Si Si7 0.664152 0.196450 0.651399
O O1 0.250000 0.465138 0.250000
O O2 0.374535 0.401534 0.333043
O O3 0.400358 0.517229 0.252674
O O4 0.353328 0.369084 0.206729
O O5 0.250000 0.250000 0.498649
O O6 0.082598 0.258620 0.514775
O O7 0.189859 0.358688 0.570005
O O8 0.166068 0.340088 0.425261
O O9 0.020612 0.153452 0.433355
O O10 0.087028 0.242595 0.346180
O O11 0.971114 0.141309 0.303816
O O12 0.308465 0.885349 0.172274
O O13 0.349835 0.852371 0.296543
O O14 0.250000 0.750000 0.147207
O O15 0.750000 0.250000 0.663367
#
# Coordination Sequence:
#
# PCOD9326997 Si02
#       7
#    16  16  16  16   8  16  16
#     4  12  23  40  61  91 137 170 210 260 323 385
#     4   9  19  36  59  91 125 161 212 274 327 377
#     4  11  23  39  67  91 125 167 216 267 323 383
#     4  11  23  40  59  93 130 168 209 268 318 384
#     4  10  22  40  63  98 127 154 214 290 328 380
#     4  10  20  37  64  85 122 165 216 263 313 378
#     4  10  21  37  63  92 124 167 215 265 316 387
#
# _framework density 19.856437
#
# number of rings (size 3 to 8) (size 9 to 14) (size 15 to 20)
#    0.000    1.538    3.077    3.692    0.000    6.154 
#    0.000    2.308    0.000    0.000    0.000    6.462 
#    0.000    0.000    0.000    0.000    0.000    0.000 
#
# Total GULP energy -145087.889500 kJ/mol
# GULP energy per Si atom -5580.303442 kJ/mol
# Density = 1.981124 g / cm^3
# Si number density = 19.856437 Si / 1000 Ang^3
#
#
#
# Elastic Constant Matrix: (Units=GPa)
#
#
# Indices 1 2 3 4 5 6 
#
# 1 109.1098 17.6607 37.3866 0.0000 0.0000 0.0000
# 2 17.6607 81.5693 45.6206 0.0000 0.0000 0.0000
# 3 37.3866 45.6206 134.9383 0.0000 0.0000 0.0000
# 4 0.0000 0.0000 0.0000 -1.3405 0.0000 0.0000
# 5 0.0000 0.0000 0.0000 0.0000 34.7731 0.0000
# 6 0.0000 0.0000 0.0000 0.0000 0.0000 18.7108
#
#
#
# Elastic Compliance Matrix: (Units=1/GPa)
#
#
# Indices 1 2 3 4 5 6 
#
# 1 0.010166 -0.000772 -0.002556 0.000000 0.000000 0.000000
# 2 -0.000772 0.015177 -0.004917 0.000000 0.000000 0.000000
# 3 -0.002556 -0.004917 0.009781 0.000000 0.000000 0.000000
# 4 0.000000 0.000000 0.000000 -0.746016 0.000000 0.000000
# 5 0.000000 0.000000 0.000000 0.000000 0.028758 0.000000
# 6 0.000000 0.000000 0.000000 0.000000 0.000000 0.053445
#
#
# Mechanical properties :
#
#
# Convention : Reuss Voigt Hill
#
# Bulk Modulus (GPa) = 53.66344 58.55035 56.10689
# Shear Modulus (GPa) = -8.25098 25.42531 8.58717
#
# Velocity S-wave (km/s) = -2.04067 3.58223 2.08183
# Velocity P-wave (km/s) = 4.64025 6.83086 5.83920
#
# Compressibility (1/GPa) = 0.01863466
#
# Stress axis : x y z
#
# Youngs Moduli (GPa) = 98.37020 65.89033 102.23566
#
# Poissons Ratio (x) = 0.05084 0.26128
# Poissons Ratio (y) = 0.07591 0.50272
# Poissons Ratio (z) = 0.25140 0.32400
#
# Static dielectric constant tensor:
#      x y z
#    x 1.739990 0.000000 0.000000 
#    y 0.000000 1.673980 0.000000 
#    z 0.000000 0.000000 1.745800 
# 
# From -- ./inp_files/43642.got.cif
#   From: 2010.05.17/outbox.cif.g08.bks.cpg/sg22_22_cif.got.tgz:43642.got - 2010.06.03 23:40:54.
