data_PCOD9326695
_publ_section_title
;
Structure prediction by ZEFSAII (Michael W. Deem and Ramdas Pophale) SiO2 
 PCOD9326695
Probable space group: F 2 2 2
;
_chemical_formula_sum "Si O2"
_cell_formula_units_Z 104
_cell_length_a 23.030636
_cell_length_b 9.848649
_cell_length_c 26.641589
_cell_angle_alpha 90.000000
_cell_angle_beta 90.000000
_cell_angle_gamma 90.000000
_cell_volume 6042.862540
_symmetry_space_group_name_H-M "F 2 2 2"
_symmetry_group_IT_number 22
_symmetry_cell_setting 'orthorhombic'
loop_
_space_group_symop_operation_xyz
x,y,z
-x,-y,z
x,-y,-z
-x,y,-z
x,1/2+y,1/2+z
-x,1/2-y,1/2+z
x,1/2-y,1/2-z
-x,1/2+y,1/2-z
1/2+x,y,1/2+z
1/2-x,-y,1/2+z
1/2+x,-y,1/2-z
1/2-x,y,1/2-z
1/2+x,1/2+y,z
1/2-x,1/2-y,z
1/2+x,1/2-y,-z
1/2-x,1/2+y,-z
loop_
_atom_site_type_symbol
_atom_site_label
_atom_site_fract_x
_atom_site_fract_y
_atom_site_fract_z
Si Si1 0.570377 0.342711 0.999635
Si Si2 0.930570 0.708651 0.388095
Si Si3 0.598634 0.546623 0.330919
Si Si4 0.681842 0.586512 0.747580
Si Si5 0.065504 0.296971 0.896390
Si Si6 0.410527 0.438076 0.826504
Si Si7 0.000000 0.000000 0.252990
O O1 0.589232 0.288533 0.945649
O O2 0.590300 0.500000 0.000000
O O3 0.500000 0.348436 0.000000
O O4 0.583951 0.248077 0.047497
O O5 0.891804 0.807225 0.354589
O O6 0.929274 0.559300 0.363622
O O7 0.997122 0.762372 0.389327
O O8 0.651302 0.477171 0.301312
O O9 0.577785 0.446822 0.375776
O O10 0.546964 0.565580 0.289972
O O11 0.673070 0.750000 0.750000
O O12 0.750000 0.559193 0.750000
O O13 0.646537 0.527444 0.794939
O O14 0.098042 0.195284 0.858890
O O15 0.460971 0.411399 0.784989
#
# Coordination Sequence:
#
# PCOD9326695 Si02
#       7
#    16  16  16  16  16  16   8
#     4   9  18  30  50  73 109 147 180 212 252 318
#     4  11  20  33  49  82 112 143 172 217 268 314
#     4  11  22  33  51  79 111 139 177 219 269 313
#     4  10  22  39  56  77 103 141 188 221 260 318
#     4  11  18  33  50  80 110 144 179 211 260 320
#     4  11  20  31  56  77 104 140 180 214 264 310
#     4  10  20  30  46  74 110 134 168 214 256 316
#
# _framework density 17.210386
#
# number of rings (size 3 to 8) (size 9 to 14) (size 15 to 20)
#    0.000    1.538    6.154    0.000    0.000    4.308 
#    0.000    3.846    0.000    0.000    0.000    6.462 
#    0.000    0.000    0.000    0.000    0.000    0.000 
#
# Total GULP energy -144915.877133 kJ/mol
# GULP energy per Si atom -5573.687582 kJ/mol
# Density = 1.717121 g / cm^3
# Si number density = 17.210386 Si / 1000 Ang^3
#
#
#
# Elastic Constant Matrix: (Units=GPa)
#
#
# Indices 1 2 3 4 5 6 
#
# 1 65.6275 1.5365 22.4590 0.0000 0.0000 0.0000
# 2 1.5365 49.7072 19.0189 0.0000 0.0000 0.0000
# 3 22.4590 19.0189 119.1056 0.0000 0.0000 0.0000
# 4 0.0000 0.0000 0.0000 18.8930 0.0000 0.0000
# 5 0.0000 0.0000 0.0000 0.0000 9.6693 0.0000
# 6 0.0000 0.0000 0.0000 0.0000 0.0000 13.9437
#
#
#
# Elastic Compliance Matrix: (Units=1/GPa)
#
#
# Indices 1 2 3 4 5 6 
#
# 1 0.016313 0.000716 -0.003190 0.000000 0.000000 0.000000
# 2 0.000716 0.021458 -0.003562 0.000000 0.000000 0.000000
# 3 -0.003190 -0.003562 0.009566 0.000000 0.000000 0.000000
# 4 0.000000 0.000000 0.000000 0.052930 0.000000 0.000000
# 5 0.000000 0.000000 0.000000 0.000000 0.103420 0.000000
# 6 0.000000 0.000000 0.000000 0.000000 0.000000 0.071717
#
#
# Mechanical properties :
#
#
# Convention : Reuss Voigt Hill
#
# Bulk Modulus (GPa) = 28.35580 35.60767 31.98174
# Shear Modulus (GPa) = 16.70955 21.26293 18.98624
#
# Velocity S-wave (km/s) = 3.11931 3.51874 3.32503
# Velocity P-wave (km/s) = 5.43003 6.10273 5.77618
#
# Compressibility (1/GPa) = 0.03526615
#
# Stress axis : x y z
#
# Youngs Moduli (GPa) = 61.30251 46.60184 104.53457
#
# Poissons Ratio (x) = -0.03339 0.33350
# Poissons Ratio (y) = -0.04392 0.37231
# Poissons Ratio (z) = 0.19558 0.16598
#
# Static dielectric constant tensor:
#      x y z
#    x 1.574280 0.000000 0.000000 
#    y 0.000000 1.619360 0.000000 
#    z 0.000000 0.000000 1.614360 
# 
# From -- ./inp_files/14051.got.cif
#   From: 2010.05.17/outbox.cif.g08.bks.cpg/sg22_8_cif.got.tgz:14051.got - 2010.06.03 23:40:54.
