data_PCOD9326990
_publ_section_title
;
Structure prediction by ZEFSAII (Michael W. Deem and Ramdas Pophale) SiO2 
 PCOD9326990
Probable space group: F 2 2 2
;
_chemical_formula_sum "Si O2"
_cell_formula_units_Z 104
_cell_length_a 16.754967
_cell_length_b 21.715240
_cell_length_c 12.915702
_cell_angle_alpha 90.000000
_cell_angle_beta 90.000000
_cell_angle_gamma 90.000000
_cell_volume 4699.224858
_symmetry_space_group_name_H-M "F 2 2 2"
_symmetry_group_IT_number 22
_symmetry_cell_setting 'orthorhombic'
loop_
_space_group_symop_operation_xyz
x,y,z
-x,-y,z
x,-y,-z
-x,y,-z
x,1/2+y,1/2+z
-x,1/2-y,1/2+z
x,1/2-y,1/2-z
-x,1/2+y,1/2-z
1/2+x,y,1/2+z
1/2-x,-y,1/2+z
1/2+x,-y,1/2-z
1/2-x,y,1/2-z
1/2+x,1/2+y,z
1/2-x,1/2-y,z
1/2+x,1/2-y,-z
1/2-x,1/2+y,-z
loop_
_atom_site_type_symbol
_atom_site_label
_atom_site_fract_x
_atom_site_fract_y
_atom_site_fract_z
Si Si1 0.130757 0.912716 0.388699
Si Si2 0.000000 0.335236 0.000000
Si Si3 0.830083 0.365508 0.683223
Si Si4 0.346299 0.497058 0.225248
Si Si5 0.858783 0.315920 0.289679
Si Si6 0.196683 0.911980 0.049355
Si Si7 0.025350 0.213365 0.114027
O O1 0.069785 0.879122 0.462524
O O2 0.105321 0.968063 0.314655
O O3 0.154767 0.861967 0.303649
O O4 0.211362 0.931206 0.445130
O O5 0.973885 0.286601 0.910371
O O6 0.750000 0.350053 0.750000
O O7 0.869761 0.425872 0.733841
O O8 0.815438 0.395377 0.569707
O O9 0.892241 0.311017 0.660674
O O10 0.250000 0.499920 0.250000
O O11 0.351516 0.535696 0.116220
O O12 0.831540 0.250000 0.250000
O O13 0.819719 0.348115 0.388977
O O14 0.952033 0.307215 0.315515
O O15 0.000000 0.186867 0.000000
#
# Coordination Sequence:
#
# PCOD9326990 Si02
#       7
#    16   8  16  16  16  16  16
#     4  10  21  36  64  98 130 171 226 287 347 409
#     4  10  20  40  62  92 146 182 220 280 348 410
#     4  11  22  40  66  94 138 181 226 279 343 429
#     4   8  18  37  64  96 128 170 224 289 342 395
#     4  11  19  38  63  91 131 172 223 281 330 401
#     4  10  20  37  62  99 128 165 234 283 342 401
#     4  10  21  40  60  92 139 185 217 265 348 403
#
# _framework density 22.131309000000002
#
# number of rings (size 3 to 8) (size 9 to 14) (size 15 to 20)
#    0.462    1.538    3.077    1.846    0.000    2.462 
#    0.000    3.077    0.000    9.231    0.000    0.000 
#    0.000    0.000    0.000    0.000    0.000    0.000 
#
# Total GULP energy -144918.063493 kJ/mol
# GULP energy per Si atom -5573.771673 kJ/mol
# Density = 2.208094 g / cm^3
# Si number density = 22.131309 Si / 1000 Ang^3
#
#
#
# Elastic Constant Matrix: (Units=GPa)
#
#
# Indices 1 2 3 4 5 6 
#
# 1 94.4820 31.5039 31.8969 0.0000 0.0000 0.0000
# 2 31.5039 69.8813 8.2169 0.0000 0.0000 0.0000
# 3 31.8969 8.2169 51.1313 0.0000 0.0000 0.0000
# 4 0.0000 0.0000 0.0000 19.4750 0.0000 0.0000
# 5 0.0000 0.0000 0.0000 0.0000 22.6400 0.0000
# 6 0.0000 0.0000 0.0000 0.0000 0.0000 7.2162
#
#
#
# Elastic Compliance Matrix: (Units=1/GPa)
#
#
# Indices 1 2 3 4 5 6 
#
# 1 0.015519 -0.005971 -0.008722 0.000000 0.000000 0.000000
# 2 -0.005971 0.016883 0.001012 0.000000 0.000000 0.000000
# 3 -0.008722 0.001012 0.024836 0.000000 0.000000 0.000000
# 4 0.000000 0.000000 0.000000 0.051348 0.000000 0.000000
# 5 0.000000 0.000000 0.000000 0.000000 0.044170 0.000000
# 6 0.000000 0.000000 0.000000 0.000000 0.000000 0.138577
#
#
# Mechanical properties :
#
#
# Convention : Reuss Voigt Hill
#
# Bulk Modulus (GPa) = 33.47178 39.85890 36.66534
# Shear Modulus (GPa) = 15.21360 19.45803 17.33582
#
# Velocity S-wave (km/s) = 2.62472 2.96836 2.80182
# Velocity P-wave (km/s) = 4.93382 5.45871 5.20289
#
# Compressibility (1/GPa) = 0.02987591
#
# Stress axis : x y z
#
# Youngs Moduli (GPa) = 64.43529 59.23176 40.26445
#
# Poissons Ratio (x) = 0.35367 0.35118
# Poissons Ratio (y) = 0.38474 -0.04074
# Poissons Ratio (z) = 0.56200 -0.05993
#
# Static dielectric constant tensor:
#      x y z
#    x 1.802220 0.000000 0.000000 
#    y 0.000000 1.938330 0.000000 
#    z 0.000000 0.000000 2.007060 
# 
# From -- ./inp_files/21761.got.cif
#   From: 2010.05.17/outbox.cif.g08.bks.cpg/sg22_11_cif.got.tgz:21761.got - 2010.06.03 23:40:54.
