data_PCOD9326100
_publ_section_title
;
Structure prediction by ZEFSAII (Michael W. Deem and Ramdas Pophale) SiO2 
 PCOD9326100
Probable space group: F 2 2 2
;
_chemical_formula_sum "Si O2"
_cell_formula_units_Z 80
_cell_length_a 20.158545
_cell_length_b 25.390266
_cell_length_c 8.569797
_cell_angle_alpha 90.000000
_cell_angle_beta 90.000000
_cell_angle_gamma 90.000000
_cell_volume 4386.286223
_symmetry_space_group_name_H-M "F 2 2 2"
_symmetry_group_IT_number 22
_symmetry_cell_setting 'orthorhombic'
loop_
_space_group_symop_operation_xyz
x,y,z
-x,-y,z
x,-y,-z
-x,y,-z
x,1/2+y,1/2+z
-x,1/2-y,1/2+z
x,1/2-y,1/2-z
-x,1/2+y,1/2-z
1/2+x,y,1/2+z
1/2-x,-y,1/2+z
1/2+x,-y,1/2-z
1/2-x,y,1/2-z
1/2+x,1/2+y,z
1/2-x,1/2-y,z
1/2+x,1/2-y,-z
1/2-x,1/2+y,-z
loop_
_atom_site_type_symbol
_atom_site_label
_atom_site_fract_x
_atom_site_fract_y
_atom_site_fract_z
Si Si1 0.792282 0.885262 0.982158
Si Si2 0.649784 0.000000 0.000000
Si Si3 0.750000 0.459154 0.750000
Si Si4 0.562032 0.709900 0.611715
Si Si5 0.144569 0.395035 0.846050
Si Si6 0.678524 0.268093 0.929973
O O1 0.832894 0.905666 0.832497
O O2 0.714640 0.879434 0.930493
O O3 0.790704 0.924309 0.127385
O O4 0.821669 0.830350 0.042389
O O5 0.698494 0.009236 0.853859
O O6 0.616522 0.945050 0.945235
O O7 0.500000 0.700588 0.500000
O O8 0.542369 0.750000 0.750000
O O9 0.594626 0.654183 0.659264
O O10 0.619772 0.740457 0.520229
O O11 0.675469 0.250000 0.750000
O O12 0.750000 0.250000 0.993391
#
# Coordination Sequence:
#
# PCOD9326100 Si02
#       6
#    16   8   8  16  16  16
#     4  10  19  33  59  90 125 159 196 252 309 363
#     4  10  20  34  57  88 124 162 207 252 310 358
#     4  10  18  32  53  90 129 162 192 256 308 360
#     4  12  25  43  61  86 124 163 206 252 316 374
#     4  10  21  37  59  89 121 163 204 251 308 367
#     4  11  21  34  59  93 123 154 200 249 302 374
#
# _framework density 18.238662999999999
#
# number of rings (size 3 to 8) (size 9 to 14) (size 15 to 20)
#    0.000    1.400    4.000    4.200    2.800    0.400 
#    0.000    0.500    0.000    0.000    0.000    0.000 
#    0.000    0.000    0.000    0.000    0.000    0.000 
#
# Total GULP energy -111556.935834 kJ/mol
# GULP energy per Si atom -5577.846792 kJ/mol
# Density = 1.819715 g / cm^3
# Si number density = 18.238663 Si / 1000 Ang^3
#
#
#
# Elastic Constant Matrix: (Units=GPa)
#
#
# Indices 1 2 3 4 5 6 
#
# 1 55.9605 12.1823 26.3536 0.0000 0.0000 0.0001
# 2 12.1823 113.8625 41.0293 -0.0001 0.0000 0.0001
# 3 26.3536 41.0293 108.8119 -0.0001 0.0001 0.0004
# 4 0.0000 -0.0001 -0.0001 35.1875 0.0000 0.0002
# 5 0.0000 0.0000 0.0001 0.0000 22.4177 -0.0002
# 6 0.0001 0.0001 0.0004 0.0002 -0.0002 14.4211
#
#
#
# Elastic Compliance Matrix: (Units=1/GPa)
#
#
# Indices 1 2 3 4 5 6 
#
# 1 0.020191 -0.000461 -0.004716 0.000000 0.000000 0.000000
# 2 -0.000461 0.010174 -0.003725 0.000000 0.000000 0.000000
# 3 -0.004716 -0.003725 0.011737 0.000000 0.000000 0.000000
# 4 0.000000 0.000000 0.000000 0.028419 0.000000 0.000000
# 5 0.000000 0.000000 0.000000 0.000000 0.044608 0.000001
# 6 0.000000 0.000000 0.000000 0.000000 0.000001 0.069343
#
#
# Mechanical properties :
#
#
# Convention : Reuss Voigt Hill
#
# Bulk Modulus (GPa) = 41.15509 48.64058 44.89783
# Shear Modulus (GPa) = 23.76709 27.67657 25.72183
#
# Velocity S-wave (km/s) = 3.61379 3.89969 3.75946
# Velocity P-wave (km/s) = 6.32664 6.85592 6.59659
#
# Compressibility (1/GPa) = 0.02429833
#
# Stress axis : x y z
#
# Youngs Moduli (GPa) = 49.52655 98.29008 85.20131
#
# Poissons Ratio (x) = 0.04529 0.40185
# Poissons Ratio (y) = 0.02282 0.31735
# Poissons Ratio (z) = 0.23359 0.36610
#
# Static dielectric constant tensor:
#      x y z
#    x 1.586560 0.000000 0.000000 
#    y 0.000000 1.689940 0.000000 
#    z 0.000000 0.000000 1.625800 
# 
# From -- ./inp_files/11675.got.cif
#   From: 2010.05.17/outbox.cif.g08.bks.cpg/sg22_6_cif.got.tgz:11675.got - 2010.06.03 23:40:54.
