data_PCOD9326538
_publ_section_title
;
Structure prediction by ZEFSAII (Michael W. Deem and Ramdas Pophale) SiO2 
 PCOD9326538
Probable space group: F 2 2 2
;
_chemical_formula_sum "Si O2"
_cell_formula_units_Z 96
_cell_length_a 23.206454
_cell_length_b 18.251714
_cell_length_c 11.907913
_cell_angle_alpha 90.000000
_cell_angle_beta 90.000000
_cell_angle_gamma 90.000000
_cell_volume 5043.686591
_symmetry_space_group_name_H-M "F 2 2 2"
_symmetry_group_IT_number 22
_symmetry_cell_setting 'orthorhombic'
loop_
_space_group_symop_operation_xyz
x,y,z
-x,-y,z
x,-y,-z
-x,y,-z
x,1/2+y,1/2+z
-x,1/2-y,1/2+z
x,1/2-y,1/2-z
-x,1/2+y,1/2-z
1/2+x,y,1/2+z
1/2-x,-y,1/2+z
1/2+x,-y,1/2-z
1/2-x,y,1/2-z
1/2+x,1/2+y,z
1/2-x,1/2-y,z
1/2+x,1/2-y,-z
1/2-x,1/2+y,-z
loop_
_atom_site_type_symbol
_atom_site_label
_atom_site_fract_x
_atom_site_fract_y
_atom_site_fract_z
Si Si1 0.104687 0.789219 0.128297
Si Si2 0.155082 0.365633 0.243074
Si Si3 0.750000 0.514140 0.250000
Si Si4 0.000000 0.137672 0.000000
Si Si5 0.344116 0.950189 0.388537
Si Si6 0.553839 0.545381 0.202421
Si Si7 0.182858 0.257973 0.435352
O O1 0.100418 0.750000 0.250000
O O2 0.141281 0.864931 0.121222
O O3 0.043550 0.812902 0.073482
O O4 0.140781 0.742290 0.038750
O O5 0.198523 0.431534 0.215160
O O6 0.088900 0.391073 0.233831
O O7 0.168651 0.334928 0.369605
O O8 0.169858 0.301893 0.158571
O O9 0.719608 0.464206 0.158065
O O10 0.032856 0.084276 0.087188
O O11 0.346914 0.000000 0.500000
O O12 0.396235 0.986624 0.318944
O O13 0.500000 0.500000 0.250590
O O14 0.250000 0.250000 0.465531
#
# Coordination Sequence:
#
# PCOD9326538 Si02
#       7
#    16  16   8   8  16  16  16
#     4  12  27  42  61  97 133 172 213 269 344 400
#     4  10  19  36  63 102 122 165 225 266 322 379
#     4  10  20  35  61  92 122 160 214 274 302 374
#     4  12  21  40  64  92 118 169 222 274 318 387
#     4  11  21  39  64  93 127 168 222 266 319 390
#     4  11  19  35  67  95 119 156 224 284 313 366
#     4  11  21  38  64  91 138 172 211 265 324 408
#
# _framework density 19.033695000000002
#
# number of rings (size 3 to 8) (size 9 to 14) (size 15 to 20)
#    0.000    1.000    6.667    1.750    0.000    3.000 
#    0.000    0.000    0.000    0.000    4.333    0.000 
#    0.000    0.000    0.000    0.000    0.000    0.000 
#
# Total GULP energy -133671.459355 kJ/mol
# GULP energy per Si atom -5569.644140 kJ/mol
# Density = 1.899037 g / cm^3
# Si number density = 19.033695 Si / 1000 Ang^3
#
#
#
# Elastic Constant Matrix: (Units=GPa)
#
#
# Indices 1 2 3 4 5 6 
#
# 1 121.2557 23.8120 34.9670 0.0000 0.0000 0.0000
# 2 23.8120 60.5271 24.7682 0.0000 0.0000 0.0000
# 3 34.9670 24.7682 69.4030 0.0000 0.0000 0.0000
# 4 0.0000 0.0000 0.0000 13.1331 0.0000 0.0000
# 5 0.0000 0.0000 0.0000 0.0000 34.3763 0.0000
# 6 0.0000 0.0000 0.0000 0.0000 0.0000 19.6394
#
#
#
# Elastic Compliance Matrix: (Units=1/GPa)
#
#
# Indices 1 2 3 4 5 6 
#
# 1 0.009886 -0.002168 -0.004207 0.000000 0.000000 0.000000
# 2 -0.002168 0.019822 -0.005982 0.000000 0.000000 0.000000
# 3 -0.004207 -0.005982 0.018663 0.000000 0.000000 0.000000
# 4 0.000000 0.000000 0.000000 0.076143 0.000000 0.000000
# 5 0.000000 0.000000 0.000000 0.000000 0.029090 0.000000
# 6 0.000000 0.000000 0.000000 0.000000 0.000000 0.050918
#
#
# Mechanical properties :
#
#
# Convention : Reuss Voigt Hill
#
# Bulk Modulus (GPa) = 42.26961 46.47560 44.37261
# Shear Modulus (GPa) = 21.08620 24.60567 22.84594
#
# Velocity S-wave (km/s) = 3.33203 3.59937 3.46828
# Velocity P-wave (km/s) = 6.08763 6.46100 6.27709
#
# Compressibility (1/GPa) = 0.02365766
#
# Stress axis : x y z
#
# Youngs Moduli (GPa) = 101.15350 50.44865 53.58159
#
# Poissons Ratio (x) = 0.10935 0.22543
# Poissons Ratio (y) = 0.21926 0.32052
# Poissons Ratio (z) = 0.42558 0.30178
#
# Static dielectric constant tensor:
#      x y z
#    x 1.677770 0.000000 0.000000 
#    y 0.000000 1.763600 0.000000 
#    z 0.000000 0.000000 1.701060 
# 
# From -- ./inp_files/22859.got.cif
#   From: 2010.05.17/outbox.cif.g08.bks.cpg/sg22_12_cif.got.tgz:22859.got - 2010.06.03 23:40:54.
