data_PCOD9326638
_publ_section_title
;
Structure prediction by ZEFSAII (Michael W. Deem and Ramdas Pophale) SiO2 
 PCOD9326638
Probable space group: F 2 2 2
;
_chemical_formula_sum "Si O2"
_cell_formula_units_Z 64
_cell_length_a 9.937852
_cell_length_b 11.663590
_cell_length_c 26.670014
_cell_angle_alpha 90.000000
_cell_angle_beta 90.000000
_cell_angle_gamma 90.000000
_cell_volume 3091.348825
_symmetry_space_group_name_H-M "F 2 2 2"
_symmetry_group_IT_number 22
_symmetry_cell_setting 'orthorhombic'
loop_
_space_group_symop_operation_xyz
x,y,z
-x,-y,z
x,-y,-z
-x,y,-z
x,1/2+y,1/2+z
-x,1/2-y,1/2+z
x,1/2-y,1/2-z
-x,1/2+y,1/2-z
1/2+x,y,1/2+z
1/2-x,-y,1/2+z
1/2+x,-y,1/2-z
1/2-x,y,1/2-z
1/2+x,1/2+y,z
1/2-x,1/2-y,z
1/2+x,1/2-y,-z
1/2-x,1/2+y,-z
loop_
_atom_site_type_symbol
_atom_site_label
_atom_site_fract_x
_atom_site_fract_y
_atom_site_fract_z
Si Si1 0.250000 0.750000 0.021456
Si Si2 0.835306 0.006455 0.798176
Si Si3 0.302047 0.430682 0.907099
Si Si4 0.592122 0.675744 0.071538
Si Si5 0.750000 0.250000 0.841890
O O1 0.207512 0.645699 0.058127
O O2 0.367453 0.723536 0.981868
O O3 0.750000 0.968617 0.750000
O O4 0.792297 0.933323 0.847179
O O5 0.787259 0.137419 0.810237
O O6 0.000000 0.000000 0.793383
O O7 0.444684 0.372826 0.920813
O O8 0.313370 0.562540 0.922777
O O9 0.626885 0.758334 0.118212
#
# Coordination Sequence:
#
# PCOD9326638 Si02
#       5
#     8  16  16  16   8
#     4  11  20  28  58  98 120 168 216 273 336 412
#     4  11  22  43  69 100 132 182 234 292 349 408
#     4  10  19  39  59  88 132 168 221 283 338 410
#     4   9  18  36  64  87 121 172 219 264 337 419
#     4   9  17  38  69  94 125 170 225 273 338 418
#
# _framework density 20.702936000000001
#
# number of rings (size 3 to 8) (size 9 to 14) (size 15 to 20)
#    0.000    2.000    5.000    1.875    0.000    2.000 
#    4.500    0.625    0.000   18.000    0.000    0.000 
#    0.000    0.000    0.000    0.000    0.000    0.000 
#
# Total GULP energy -89071.945538 kJ/mol
# GULP energy per Si atom -5566.996596 kJ/mol
# Density = 2.065582 g / cm^3
# Si number density = 20.702936 Si / 1000 Ang^3
#
#
#
# Elastic Constant Matrix: (Units=GPa)
#
#
# Indices 1 2 3 4 5 6 
#
# 1 52.5469 37.7336 52.5983 0.0000 0.0000 0.0000
# 2 37.7336 75.8623 51.0069 0.0000 0.0000 0.0000
# 3 52.5983 51.0069 210.0722 0.0000 0.0000 0.0000
# 4 0.0000 0.0000 0.0000 57.1665 0.0000 0.0000
# 5 0.0000 0.0000 0.0000 0.0000 32.5829 0.0000
# 6 0.0000 0.0000 0.0000 0.0000 0.0000 37.4418
#
#
#
# Elastic Compliance Matrix: (Units=1/GPa)
#
#
# Indices 1 2 3 4 5 6 
#
# 1 0.033828 -0.013303 -0.005240 0.000000 0.000000 0.000000
# 2 -0.013303 0.020985 -0.001764 0.000000 0.000000 0.000000
# 3 -0.005240 -0.001764 0.006501 0.000000 0.000000 0.000000
# 4 0.000000 0.000000 0.000000 0.017493 0.000000 0.000000
# 5 0.000000 0.000000 0.000000 0.000000 0.030691 0.000000
# 6 0.000000 0.000000 0.000000 0.000000 0.000000 0.026708
#
#
# Mechanical properties :
#
#
# Convention : Reuss Voigt Hill
#
# Bulk Modulus (GPa) = 48.31082 69.01768 58.66425
# Shear Modulus (GPa) = 27.21524 38.58108 32.89816
#
# Velocity S-wave (km/s) = 3.62962 4.32158 3.99062
# Velocity P-wave (km/s) = 6.39933 7.63616 7.04494
#
# Compressibility (1/GPa) = 0.02069930
#
# Stress axis : x y z
#
# Youngs Moduli (GPa) = 29.56088 47.65316 153.82964
#
# Poissons Ratio (x) = 0.63393 0.80607
# Poissons Ratio (y) = 0.39325 0.27143
# Poissons Ratio (z) = 0.15490 0.08408
#
# Static dielectric constant tensor:
#      x y z
#    x 1.834670 0.000000 0.000000 
#    y 0.000000 1.822680 0.000000 
#    z 0.000000 0.000000 1.785130 
# 
# From -- ./inp_files/24346.got.cif
#   From: 2010.05.17/outbox.cif.g08.bks.cpg/sg22_13_cif.got.tgz:24346.got - 2010.06.03 23:40:54.
