data_PCOD9326801
_publ_section_title
;
Structure prediction by ZEFSAII (Michael W. Deem and Ramdas Pophale) SiO2 
 PCOD9326801
Probable space group: F 2 2 2
;
_chemical_formula_sum "Si O2"
_cell_formula_units_Z 104
_cell_length_a 17.529152
_cell_length_b 23.948793
_cell_length_c 10.227170
_cell_angle_alpha 90.000000
_cell_angle_beta 90.000000
_cell_angle_gamma 90.000000
_cell_volume 4293.386755
_symmetry_space_group_name_H-M "F 2 2 2"
_symmetry_group_IT_number 22
_symmetry_cell_setting 'orthorhombic'
loop_
_space_group_symop_operation_xyz
x,y,z
-x,-y,z
x,-y,-z
-x,y,-z
x,1/2+y,1/2+z
-x,1/2-y,1/2+z
x,1/2-y,1/2-z
-x,1/2+y,1/2-z
1/2+x,y,1/2+z
1/2-x,-y,1/2+z
1/2+x,-y,1/2-z
1/2-x,y,1/2-z
1/2+x,1/2+y,z
1/2-x,1/2-y,z
1/2+x,1/2-y,-z
1/2-x,1/2+y,-z
loop_
_atom_site_type_symbol
_atom_site_label
_atom_site_fract_x
_atom_site_fract_y
_atom_site_fract_z
Si Si1 0.000000 0.179261 0.000000
Si Si2 0.166459 0.560517 0.513019
Si Si3 0.218448 0.644384 0.893636
Si Si4 0.018984 0.367358 0.791208
Si Si5 0.842228 0.071698 0.270058
Si Si6 0.094987 0.226608 0.394597
Si Si7 0.894195 0.451740 0.803274
O O1 0.070447 0.221935 0.016713
O O2 0.993631 0.147478 0.137545
O O3 0.208171 0.500000 0.500000
O O4 0.215532 0.616556 0.522838
O O5 0.123758 0.565169 0.376944
O O6 0.120906 0.555905 0.647245
O O7 0.250000 0.658991 0.750000
O O8 0.169387 0.695149 0.944523
O O9 0.162554 0.591940 0.870182
O O10 0.108116 0.376950 0.824088
O O11 0.973468 0.318171 0.866498
O O12 0.977423 0.426128 0.825725
O O13 0.750000 0.075502 0.250000
O O14 0.867140 0.013863 0.337566
O O15 0.111869 0.250000 0.250000
#
# Coordination Sequence:
#
# PCOD9326801 Si02
#       7
#     8  16  16  16  16  16  16
#     4  10  20  38  57  74  99 132 180 234 262 286
#     4   9  17  29  48  76 110 142 166 201 254 310
#     4   9  17  32  53  77 103 132 171 217 264 308
#     4  10  20  35  56  78 102 136 178 213 255 311
#     4  11  21  32  50  80 116 143 161 196 256 323
#     4   9  20  36  56  75  96 133 179 228 266 293
#     4   9  17  33  55  79 104 134 172 212 248 299
#
# _framework density 24.223303000000001
#
# number of rings (size 3 to 8) (size 9 to 14) (size 15 to 20)
#    0.000    2.462    0.000    3.692    0.000    2.769 
#    0.000    3.077    0.000   13.385    0.000    5.385 
#    0.000    0.000    0.000    0.000    0.000    0.000 
#
# Total GULP energy -145132.844361 kJ/mol
# GULP energy per Si atom -5582.032475 kJ/mol
# Density = 2.416817 g / cm^3
# Si number density = 24.223303 Si / 1000 Ang^3
#
#
#
# Elastic Constant Matrix: (Units=GPa)
#
#
# Indices 1 2 3 4 5 6 
#
# 1 101.2382 69.9597 -15.8616 0.0000 0.0000 0.0000
# 2 69.9597 103.4060 2.6365 0.0000 0.0000 0.0000
# 3 -15.8616 2.6365 60.4856 0.0000 0.0000 0.0000
# 4 0.0000 0.0000 0.0000 5.4123 0.0000 0.0000
# 5 0.0000 0.0000 0.0000 0.0000 -0.8248 0.0000
# 6 0.0000 0.0000 0.0000 0.0000 0.0000 36.6414
#
#
#
# Elastic Compliance Matrix: (Units=1/GPa)
#
#
# Indices 1 2 3 4 5 6 
#
# 1 0.020511 -0.014030 0.005990 0.000000 0.000000 0.000000
# 2 -0.014030 0.019278 -0.004519 0.000000 0.000000 0.000000
# 3 0.005990 -0.004519 0.018301 0.000000 0.000000 0.000000
# 4 0.000000 0.000000 0.000000 0.184765 0.000000 0.000000
# 5 0.000000 0.000000 0.000000 0.000000 -1.212475 0.000000
# 6 0.000000 0.000000 0.000000 0.000000 0.000000 0.027292
#
#
# Mechanical properties :
#
#
# Convention : Reuss Voigt Hill
#
# Bulk Modulus (GPa) = 30.32852 42.06655 36.19753
# Shear Modulus (GPa) = -5.51742 22.13879 8.31068
#
# Velocity S-wave (km/s) = -1.51085 3.02643 1.85427
# Velocity P-wave (km/s) = 3.08286 5.44208 4.42268
#
# Compressibility (1/GPa) = 0.03297227
#
# Stress axis : x y z
#
# Youngs Moduli (GPa) = 48.75333 51.87322 54.64254
#
# Poissons Ratio (x) = 0.72777 -0.32733
# Poissons Ratio (y) = 0.68400 0.24695
# Poissons Ratio (z) = -0.29205 0.23444
#
# Static dielectric constant tensor:
#      x y z
#    x 2.019950 0.000000 0.000000 
#    y 0.000000 1.932620 0.000000 
#    z 0.000000 0.000000 1.944850 
# 
# From -- ./inp_files/21770.got.cif
#   From: 2010.05.17/outbox.cif.g08.bks.cpg/sg22_11_cif.got.tgz:21770.got - 2010.06.03 23:40:54.
