data_PCOD9326266
_publ_section_title
;
Structure prediction by ZEFSAII (Michael W. Deem and Ramdas Pophale) SiO2 
 PCOD9326266
Probable space group: F 2 2 2
;
_chemical_formula_sum "Si O2"
_cell_formula_units_Z 72
_cell_length_a 24.151200
_cell_length_b 5.378835
_cell_length_c 25.446229
_cell_angle_alpha 90.000000
_cell_angle_beta 90.000000
_cell_angle_gamma 90.000000
_cell_volume 3305.600517
_symmetry_space_group_name_H-M "F 2 2 2"
_symmetry_group_IT_number 22
_symmetry_cell_setting 'orthorhombic'
loop_
_space_group_symop_operation_xyz
x,y,z
-x,-y,z
x,-y,-z
-x,y,-z
x,1/2+y,1/2+z
-x,1/2-y,1/2+z
x,1/2-y,1/2-z
-x,1/2+y,1/2-z
1/2+x,y,1/2+z
1/2-x,-y,1/2+z
1/2+x,-y,1/2-z
1/2-x,y,1/2-z
1/2+x,1/2+y,z
1/2-x,1/2-y,z
1/2+x,1/2-y,-z
1/2-x,1/2+y,-z
loop_
_atom_site_type_symbol
_atom_site_label
_atom_site_fract_x
_atom_site_fract_y
_atom_site_fract_z
Si Si1 0.652729 0.122161 0.947331
Si Si2 0.812250 0.298277 0.834250
Si Si3 0.430895 0.500000 0.000000
Si Si4 0.949115 0.184234 0.404371
Si Si5 0.619259 0.303411 0.191418
O O1 0.688619 0.208229 0.898255
O O2 0.611320 0.335483 0.966001
O O3 0.609245 0.932471 0.921939
O O4 0.678946 0.000000 0.000000
O O5 0.750000 0.250000 0.815117
O O6 0.839078 0.566376 0.819196
O O7 0.849044 0.066204 0.814328
O O8 0.462189 0.333507 0.957260
O O9 0.931071 0.314386 0.350499
O O10 0.000000 0.000000 0.394952
O O11 0.598487 0.250000 0.250000
#
# Coordination Sequence:
#
# PCOD9326266 Si02
#       5
#    16  16   8  16  16
#     4   9  20  37  58  92 129 173 213 270 333 401
#     4  11  23  43  67 100 134 173 231 284 343 415
#     4  10  18  39  64  84 136 168 216 272 333 400
#     4  10  22  39  63  97 128 172 224 273 336 407
#     4  11  24  45  68  96 137 179 225 289 347 408
#
# _framework density 21.781217999999999
#
# number of rings (size 3 to 8) (size 9 to 14) (size 15 to 20)
#    0.000    1.778    2.222    1.333    0.000    8.444 
#    2.000    4.444    0.000    0.000    0.000    0.000 
#    0.000    0.000    0.000    0.000    0.000    0.000 
#
# Total GULP energy -100354.461447 kJ/mol
# GULP energy per Si atom -5575.247858 kJ/mol
# Density = 2.173164 g / cm^3
# Si number density = 21.781218 Si / 1000 Ang^3
#
#
#
# Elastic Constant Matrix: (Units=GPa)
#
#
# Indices 1 2 3 4 5 6 
#
# 1 67.5506 8.0293 15.6235 0.0017 -0.0028 0.0186
# 2 8.0293 69.8449 -9.4958 0.0109 -0.0048 0.0049
# 3 15.6235 -9.4958 118.0170 0.0053 0.0021 -0.0061
# 4 0.0017 0.0109 0.0053 15.4850 0.0001 -0.0025
# 5 -0.0028 -0.0048 0.0021 0.0001 -0.1173 0.0053
# 6 0.0186 0.0049 -0.0061 -0.0025 0.0053 22.9333
#
#
#
# Elastic Compliance Matrix: (Units=1/GPa)
#
#
# Indices 1 2 3 4 5 6 
#
# 1 0.015568 -0.002093 -0.002229 0.000001 -0.000329 -0.000013
# 2 -0.002093 0.014757 0.001464 -0.000011 -0.000529 -0.000001
# 3 -0.002229 0.001464 0.008886 -0.000004 0.000156 0.000004
# 4 0.000001 -0.000011 -0.000004 0.064579 0.000081 0.000007
# 5 -0.000329 -0.000529 0.000156 0.000081 -8.528313 0.001960
# 6 -0.000013 -0.000001 0.000004 0.000007 0.001960 0.043604
#
#
# Mechanical properties :
#
#
# Convention : Reuss Voigt Hill
#
# Bulk Modulus (GPa) = 29.85426 31.52518 30.68972
# Shear Modulus (GPa) = -0.59780 23.74390 11.57305
#
# Velocity S-wave (km/s) = -0.52445 3.30526 2.30756
# Velocity P-wave (km/s) = 3.65643 5.39178 4.60656
#
# Compressibility (1/GPa) = 0.03349605
#
# Stress axis : x y z
#
# Youngs Moduli (GPa) = 64.23399 67.76401 112.53263
#
# Poissons Ratio (x) = 0.14182 0.25087
# Poissons Ratio (y) = 0.13443 -0.16480
# Poissons Ratio (z) = 0.14320 -0.09924
#
# Static dielectric constant tensor:
#      x y z
#    x 1.826990 0.000000 0.000020 
#    y 0.000000 1.833640 0.000000 
#    z 0.000020 0.000000 1.702530 
# 
# From -- ./inp_files/50363.got.cif
#   From: 2010.05.17/outbox.cif.g08.bks.cpg/sg22_26_cif.got.tgz:50363.got - 2010.06.03 23:40:54.
