data_PCOD9326959
_publ_section_title
;
Structure prediction by ZEFSAII (Michael W. Deem and Ramdas Pophale) SiO2 
 PCOD9326959
Probable space group: F 2 2 2
;
_chemical_formula_sum "Si O2"
_cell_formula_units_Z 92
_cell_length_a 14.012622
_cell_length_b 14.696317
_cell_length_c 21.004552
_cell_angle_alpha 90.000000
_cell_angle_beta 90.000000
_cell_angle_gamma 90.000000
_cell_volume 4325.550044
_symmetry_space_group_name_H-M "F 2 2 2"
_symmetry_group_IT_number 22
_symmetry_cell_setting 'orthorhombic'
loop_
_space_group_symop_operation_xyz
x,y,z
-x,-y,z
x,-y,-z
-x,y,-z
x,1/2+y,1/2+z
-x,1/2-y,1/2+z
x,1/2-y,1/2-z
-x,1/2+y,1/2-z
1/2+x,y,1/2+z
1/2-x,-y,1/2+z
1/2+x,-y,1/2-z
1/2-x,y,1/2-z
1/2+x,1/2+y,z
1/2-x,1/2-y,z
1/2+x,1/2-y,-z
1/2-x,1/2+y,-z
loop_
_atom_site_type_symbol
_atom_site_label
_atom_site_fract_x
_atom_site_fract_y
_atom_site_fract_z
Si Si1 0.093003 0.134827 0.962945
Si Si2 0.612148 0.850088 0.933706
Si Si3 0.270176 0.357121 0.451243
Si Si4 0.298317 0.388498 0.848411
Si Si5 0.500000 0.000000 0.851435
Si Si6 0.750000 0.750000 0.750000
Si Si7 0.300415 0.570519 0.689746
O O1 0.086424 0.243897 0.944927
O O2 0.114629 0.092002 0.894782
O O3 0.178111 0.107719 0.011015
O O4 0.000000 0.109270 0.000000
O O5 0.711377 0.852895 0.893534
O O6 0.542817 0.917998 0.895445
O O7 0.639764 0.883406 0.004656
O O8 0.250000 0.250000 0.454374
O O9 0.285428 0.382831 0.378735
O O10 0.313969 0.313417 0.794706
O O11 0.260544 0.478711 0.816813
O O12 0.587845 0.041180 0.809911
O O13 0.250000 0.619196 0.750000
#
# Coordination Sequence:
#
# PCOD9326959 Si02
#       7
#    16  16  16  16   8   4  16
#     4  10  20  37  59  91 123 165 210 255 314 392
#     4   9  19  37  59  93 126 150 213 266 316 374
#     4   9  21  40  62  87 126 169 200 262 334 375
#     4  10  20  37  63  90 123 167 204 263 322 375
#     4  10  24  37  66 102 116 167 210 276 328 365
#     4  12  16  36  64  88 118 168 204 248 324 380
#     4  11  24  43  62  91 132 164 216 269 320 386
#
# _framework density 21.268969999999999
#
# number of rings (size 3 to 8) (size 9 to 14) (size 15 to 20)
#    0.000    2.087    2.609    1.043    4.870    7.304 
#    3.130    0.870    0.000    0.000    0.000    0.000 
#    0.000    0.000    0.000    0.000    0.000    0.000 
#
# Total GULP energy -128285.411667 kJ/mol
# GULP energy per Si atom -5577.626594 kJ/mol
# Density = 2.122056 g / cm^3
# Si number density = 21.268970 Si / 1000 Ang^3
#
#
#
# Elastic Constant Matrix: (Units=GPa)
#
#
# Indices 1 2 3 4 5 6 
#
# 1 89.4603 6.6209 41.0623 0.0000 0.0000 0.0000
# 2 6.6209 47.5849 5.6412 0.0000 0.0000 0.0000
# 3 41.0623 5.6412 138.5792 0.0000 0.0000 0.0000
# 4 0.0000 0.0000 0.0000 21.9516 0.0000 0.0000
# 5 0.0000 0.0000 0.0000 0.0000 17.0691 0.0000
# 6 0.0000 0.0000 0.0000 0.0000 0.0000 18.1314
#
#
#
# Elastic Compliance Matrix: (Units=1/GPa)
#
#
# Indices 1 2 3 4 5 6 
#
# 1 0.013025 -0.001361 -0.003804 0.000000 0.000000 0.000000
# 2 -0.001361 0.021259 -0.000462 0.000000 0.000000 0.000000
# 3 -0.003804 -0.000462 0.008362 0.000000 0.000000 0.000000
# 4 0.000000 0.000000 0.000000 0.045555 0.000000 0.000000
# 5 0.000000 0.000000 0.000000 0.000000 0.058585 0.000000
# 6 0.000000 0.000000 0.000000 0.000000 0.000000 0.055153
#
#
# Mechanical properties :
#
#
# Convention : Reuss Voigt Hill
#
# Bulk Modulus (GPa) = 31.85572 42.47481 37.16526
# Shear Modulus (GPa) = 22.35557 26.25041 24.30299
#
# Velocity S-wave (km/s) = 3.24557 3.51695 3.38398
# Velocity P-wave (km/s) = 5.39027 6.04198 5.72541
#
# Compressibility (1/GPa) = 0.03139154
#
# Stress axis : x y z
#
# Youngs Moduli (GPa) = 76.77590 47.03835 119.58784
#
# Poissons Ratio (x) = 0.06403 0.45491
# Poissons Ratio (y) = 0.10452 0.05525
# Poissons Ratio (z) = 0.29205 0.02173
#
# Static dielectric constant tensor:
#      x y z
#    x 1.803310 0.000000 0.000000 
#    y 0.000000 1.819440 0.000000 
#    z 0.000000 0.000000 1.889270 
# 
# From -- ./inp_files/43521.got.cif
#   From: 2010.05.17/outbox.cif.g08.bks.cpg/sg22_22_cif.got.tgz:43521.got - 2010.06.03 23:40:54.
