data_PCOD9326184
_publ_section_title
;
Structure prediction by ZEFSAII (Michael W. Deem and Ramdas Pophale) SiO2 
 PCOD9326184
Probable space group: F 2 2 2
;
_chemical_formula_sum "Si O2"
_cell_formula_units_Z 64
_cell_length_a 9.545331
_cell_length_b 19.187512
_cell_length_c 14.787181
_cell_angle_alpha 90.000000
_cell_angle_beta 90.000000
_cell_angle_gamma 90.000000
_cell_volume 2708.289251
_symmetry_space_group_name_H-M "F 2 2 2"
_symmetry_group_IT_number 22
_symmetry_cell_setting 'orthorhombic'
loop_
_space_group_symop_operation_xyz
x,y,z
-x,-y,z
x,-y,-z
-x,y,-z
x,1/2+y,1/2+z
-x,1/2-y,1/2+z
x,1/2-y,1/2-z
-x,1/2+y,1/2-z
1/2+x,y,1/2+z
1/2-x,-y,1/2+z
1/2+x,-y,1/2-z
1/2-x,y,1/2-z
1/2+x,1/2+y,z
1/2-x,1/2-y,z
1/2+x,1/2-y,-z
1/2-x,1/2+y,-z
loop_
_atom_site_type_symbol
_atom_site_label
_atom_site_fract_x
_atom_site_fract_y
_atom_site_fract_z
Si Si1 0.441451 0.148981 0.732670
Si Si2 0.750000 0.603822 0.250000
Si Si3 0.630974 0.119346 0.058309
Si Si4 0.655109 0.983818 0.622182
Si Si5 0.750000 0.250000 0.103032
O O1 0.610060 0.149108 0.735467
O O2 0.403592 0.141835 0.838189
O O3 0.387915 0.074314 0.696971
O O4 0.363126 0.207313 0.668930
O O5 0.738243 0.548828 0.165844
O O6 0.746591 0.060145 0.057016
O O7 0.691633 0.193462 0.031873
O O8 0.500000 0.098355 0.000000
O O9 0.500000 0.000000 0.588500
#
# Coordination Sequence:
#
# PCOD9326184 Si02
#       5
#    16   8  16  16   8
#     4  10  19  36  66  94 128 171 227 265 316 386
#     4  10  18  34  63 101 124 158 230 270 308 382
#     4  11  21  37  62  98 132 173 213 272 337 383
#     4   9  17  34  65  96 129 166 218 266 322 393
#     4  10  21  44  66  90 127 186 227 260 316 396
#
# _framework density 23.631155
#
# number of rings (size 3 to 8) (size 9 to 14) (size 15 to 20)
#    0.000    2.000    2.500    3.750    0.000    0.000 
#    4.500    3.750    0.000    4.500    6.500    0.000 
#    0.000    0.000    0.000    0.000    0.000    0.000 
#
# Total GULP energy -89136.455258 kJ/mol
# GULP energy per Si atom -5571.028454 kJ/mol
# Density = 2.357737 g / cm^3
# Si number density = 23.631155 Si / 1000 Ang^3
#
#
#
# Elastic Constant Matrix: (Units=GPa)
#
#
# Indices 1 2 3 4 5 6 
#
# 1 236.2759 72.6027 30.3135 0.0000 0.0000 0.0000
# 2 72.6027 103.6999 21.2823 0.0000 0.0000 0.0000
# 3 30.3135 21.2823 41.3539 0.0000 0.0000 0.0000
# 4 0.0000 0.0000 0.0000 -20.1101 0.0000 0.0000
# 5 0.0000 0.0000 0.0000 0.0000 33.1189 0.0000
# 6 0.0000 0.0000 0.0000 0.0000 0.0000 26.1968
#
#
#
# Elastic Compliance Matrix: (Units=1/GPa)
#
#
# Indices 1 2 3 4 5 6 
#
# 1 0.005586 -0.003433 -0.002328 0.000000 0.000000 0.000000
# 2 -0.003433 0.012892 -0.004118 0.000000 0.000000 0.000000
# 3 -0.002328 -0.004118 0.028007 0.000000 0.000000 0.000000
# 4 0.000000 0.000000 0.000000 -0.049726 0.000000 0.000000
# 5 0.000000 0.000000 0.000000 0.000000 0.030194 0.000000
# 6 0.000000 0.000000 0.000000 0.000000 0.000000 0.038173
#
#
# Mechanical properties :
#
#
# Convention : Reuss Voigt Hill
#
# Bulk Modulus (GPa) = 37.41535 69.96963 53.69249
# Shear Modulus (GPa) = 53.30886 24.98318 39.14602
#
# Velocity S-wave (km/s) = 4.75475 3.25501 4.07448
# Velocity P-wave (km/s) = 6.78314 6.61817 6.70116
#
# Compressibility (1/GPa) = 0.02672700
#
# Stress axis : x y z
#
# Youngs Moduli (GPa) = 179.02199 77.56778 35.70501
#
# Poissons Ratio (x) = 0.26630 0.08312
# Poissons Ratio (y) = 0.61460 0.14704
# Poissons Ratio (z) = 0.41673 0.31944
#
# Static dielectric constant tensor:
#      x y z
#    x 3.171440 0.000000 0.000000 
#    y 0.000000 2.070720 0.000000 
#    z 0.000000 0.000000 1.989700 
# 
# From -- ./inp_files/26906.got.cif
#   From: 2010.05.17/outbox.cif.g08.bks.cpg/sg22_14_cif.got.tgz:26906.got - 2010.06.03 23:40:54.
