data_PCOD9326580
_publ_section_title
;
Structure prediction by ZEFSAII (Michael W. Deem and Ramdas Pophale) SiO2 
 PCOD9326580
Probable space group: F 2 2 2
;
_chemical_formula_sum "Si O2"
_cell_formula_units_Z 64
_cell_length_a 17.716858
_cell_length_b 12.419947
_cell_length_c 14.706517
_cell_angle_alpha 90.000000
_cell_angle_beta 90.000000
_cell_angle_gamma 90.000000
_cell_volume 3236.057846
_symmetry_space_group_name_H-M "F 2 2 2"
_symmetry_group_IT_number 22
_symmetry_cell_setting 'orthorhombic'
loop_
_space_group_symop_operation_xyz
x,y,z
-x,-y,z
x,-y,-z
-x,y,-z
x,1/2+y,1/2+z
-x,1/2-y,1/2+z
x,1/2-y,1/2-z
-x,1/2+y,1/2-z
1/2+x,y,1/2+z
1/2-x,-y,1/2+z
1/2+x,-y,1/2-z
1/2-x,y,1/2-z
1/2+x,1/2+y,z
1/2-x,1/2-y,z
1/2+x,1/2-y,-z
1/2-x,1/2+y,-z
loop_
_atom_site_type_symbol
_atom_site_label
_atom_site_fract_x
_atom_site_fract_y
_atom_site_fract_z
Si Si1 0.061116 0.899410 0.094237
Si Si2 0.081618 0.703105 0.604958
Si Si3 0.585685 0.542754 0.406752
Si Si4 0.336357 0.972585 0.720128
O O1 0.005850 0.810024 0.136358
O O2 0.133819 0.938650 0.148362
O O3 0.084478 0.854548 0.994981
O O4 0.000000 0.000000 0.095533
O O5 0.094740 0.828637 0.593886
O O6 0.135992 0.639663 0.673789
O O7 0.500000 0.500000 0.407313
O O8 0.621972 0.500000 0.500000
O O9 0.619935 0.503964 0.312852
O O10 0.250000 0.970320 0.750000
#
# Coordination Sequence:
#
# PCOD9326580 Si02
#       4
#    16  16  16  16
#     4   9  17  35  63  87 105 140 194 242 280 332
#     4  10  19  37  65  86 108 148 197 242 287 341
#     4  11  23  38  58  86 117 149 191 246 292 332
#     4  11  23  37  56  86 119 153 189 229 286 356
#
# _framework density 19.777149000000001
#
# number of rings (size 3 to 8) (size 9 to 14) (size 15 to 20)
#    0.000    1.750    0.000   11.250    0.000    4.000 
#    0.000    3.750    0.000   10.500    0.000    0.000 
#    0.000    0.000    0.000    0.000    0.000    0.000 
#
# Total GULP energy -89117.609075 kJ/mol
# GULP energy per Si atom -5569.850567 kJ/mol
# Density = 1.973214 g / cm^3
# Si number density = 19.777149 Si / 1000 Ang^3
#
#
#
# Elastic Constant Matrix: (Units=GPa)
#
#
# Indices 1 2 3 4 5 6 
#
# 1 109.7066 12.5589 55.1262 0.0000 0.0000 0.0000
# 2 12.5589 44.0482 25.4151 0.0000 0.0000 0.0000
# 3 55.1262 25.4151 113.8703 0.0000 0.0000 0.0000
# 4 0.0000 0.0000 0.0000 25.8956 0.0000 0.0000
# 5 0.0000 0.0000 0.0000 0.0000 -37.4455 0.0000
# 6 0.0000 0.0000 0.0000 0.0000 0.0000 7.1174
#
#
#
# Elastic Compliance Matrix: (Units=1/GPa)
#
#
# Indices 1 2 3 4 5 6 
#
# 1 0.012046 -0.000080 -0.005814 0.000000 0.000000 0.000000
# 2 -0.000080 0.026059 -0.005777 0.000000 0.000000 0.000000
# 3 -0.005814 -0.005777 0.012886 0.000000 0.000000 0.000000
# 4 0.000000 0.000000 0.000000 0.038617 0.000000 0.000000
# 5 0.000000 0.000000 0.000000 0.000000 -0.026705 0.000000
# 6 0.000000 0.000000 0.000000 0.000000 0.000000 0.140500
#
#
# Mechanical properties :
#
#
# Convention : Reuss Voigt Hill
#
# Bulk Modulus (GPa) = 36.16886 50.42507 43.29696
# Shear Modulus (GPa) = 21.19009 10.74849 15.96929
#
# Velocity S-wave (km/s) = 3.27684 2.33380 2.84467
# Velocity P-wave (km/s) = 5.71357 5.72836 5.72097
#
# Compressibility (1/GPa) = 0.02764809
#
# Stress axis : x y z
#
# Youngs Moduli (GPa) = 83.01747 38.37495 77.60460
#
# Poissons Ratio (x) = 0.00307 0.45116
# Poissons Ratio (y) = 0.00665 0.44835
# Poissons Ratio (z) = 0.48263 0.22171
#
# Static dielectric constant tensor:
#      x y z
#    x 1.696760 0.000000 0.000000 
#    y 0.000000 1.781110 0.000000 
#    z 0.000000 0.000000 1.736830 
# 
# From -- ./inp_files/19378.got.cif
#   From: 2010.05.17/outbox.cif.g08.bks.cpg/sg22_10_cif.got.tgz:19378.got - 2010.06.03 23:40:54.
