data_PCOD9326341
_publ_section_title
;
Structure prediction by ZEFSAII (Michael W. Deem and Ramdas Pophale) SiO2 
 PCOD9326341
Probable space group: F 2 2 2
;
_chemical_formula_sum "Si O2"
_cell_formula_units_Z 104
_cell_length_a 14.103196
_cell_length_b 26.286437
_cell_length_c 14.298045
_cell_angle_alpha 90.000000
_cell_angle_beta 90.000000
_cell_angle_gamma 90.000000
_cell_volume 5300.610893
_symmetry_space_group_name_H-M "F 2 2 2"
_symmetry_group_IT_number 22
_symmetry_cell_setting 'orthorhombic'
loop_
_space_group_symop_operation_xyz
x,y,z
-x,-y,z
x,-y,-z
-x,y,-z
x,1/2+y,1/2+z
-x,1/2-y,1/2+z
x,1/2-y,1/2-z
-x,1/2+y,1/2-z
1/2+x,y,1/2+z
1/2-x,-y,1/2+z
1/2+x,-y,1/2-z
1/2-x,y,1/2-z
1/2+x,1/2+y,z
1/2-x,1/2-y,z
1/2+x,1/2-y,-z
1/2-x,1/2+y,-z
loop_
_atom_site_type_symbol
_atom_site_label
_atom_site_fract_x
_atom_site_fract_y
_atom_site_fract_z
Si Si1 0.109723 0.514083 0.889808
Si Si2 0.888737 0.708101 0.819550
Si Si3 0.742042 0.130932 0.390288
Si Si4 0.096397 0.275964 0.161853
Si Si5 0.851276 0.224274 0.008507
Si Si6 0.105642 0.623761 0.950706
Si Si7 0.250000 0.453868 0.750000
O O1 0.110437 0.575110 0.884314
O O2 0.176908 0.486936 0.813118
O O3 0.000000 0.500000 0.875095
O O4 0.131619 0.500000 0.000000
O O5 0.850388 0.750000 0.750000
O O6 0.817573 0.662143 0.826786
O O7 0.998155 0.700663 0.796363
O O8 0.893059 0.735207 0.919323
O O9 0.668897 0.171211 0.437691
O O10 0.813431 0.113943 0.472291
O O11 0.704273 0.084277 0.328443
O O12 0.145980 0.250000 0.250000
O O13 0.089914 0.229759 0.086325
O O14 0.131434 0.324819 0.104344
O O15 0.750000 0.250000 0.985367
O O16 0.000000 0.627440 0.000000
#
# Coordination Sequence:
#
# PCOD9326341 Si02
#       7
#    16  16  16  16  16  16   8
#     4  11  23  44  73 100 129 170 227 293 352 407
#     4  10  19  32  55  84 120 161 204 250 308 372
#     4  11  21  34  62  88 124 161 205 271 329 381
#     4  11  22  36  57  88 127 169 213 256 309 393
#     4  10  19  34  50  82 124 162 190 245 310 379
#     4  12  19  40  67  89 119 169 220 275 332 395
#     4  12  24  42  67 108 127 160 232 302 340 406
#
# _framework density 19.620380000000001
#
# number of rings (size 3 to 8) (size 9 to 14) (size 15 to 20)
#    0.000    1.077    7.692    1.385    0.000    2.462 
#    2.769    0.000    0.000    0.462    0.000    0.000 
#    0.000    0.000    0.000    0.000    0.000    0.000 
#
# Total GULP energy -144738.057136 kJ/mol
# GULP energy per Si atom -5566.848351 kJ/mol
# Density = 1.957572 g / cm^3
# Si number density = 19.620380 Si / 1000 Ang^3
#
#
#
# Elastic Constant Matrix: (Units=GPa)
#
#
# Indices 1 2 3 4 5 6 
#
# 1 71.1986 27.9958 34.2310 0.0000 0.0000 0.0000
# 2 27.9958 130.2867 60.3289 0.0000 0.0000 0.0000
# 3 34.2310 60.3289 122.6200 0.0000 0.0000 0.0000
# 4 0.0000 0.0000 0.0000 37.4847 0.0000 0.0000
# 5 0.0000 0.0000 0.0000 0.0000 25.0744 0.0000
# 6 0.0000 0.0000 0.0000 0.0000 0.0000 -24.4464
#
#
#
# Elastic Compliance Matrix: (Units=1/GPa)
#
#
# Indices 1 2 3 4 5 6 
#
# 1 0.016555 -0.001835 -0.003718 0.000000 0.000000 0.000000
# 2 -0.001835 0.010143 -0.004478 0.000000 0.000000 0.000000
# 3 -0.003718 -0.004478 0.011397 0.000000 0.000000 0.000000
# 4 0.000000 0.000000 0.000000 0.026678 0.000000 0.000000
# 5 0.000000 0.000000 0.000000 0.000000 0.039881 0.000000
# 6 0.000000 0.000000 0.000000 0.000000 0.000000 -0.040906
#
#
# Mechanical properties :
#
#
# Convention : Reuss Voigt Hill
#
# Bulk Modulus (GPa) = 55.46126 63.24630 59.35378
# Shear Modulus (GPa) = 55.66575 21.05918 38.36247
#
# Velocity S-wave (km/s) = 5.33226 3.27973 4.42660
# Velocity P-wave (km/s) = 8.13875 6.82987 7.51287
#
# Compressibility (1/GPa) = 0.01803061
#
# Stress axis : x y z
#
# Youngs Moduli (GPa) = 60.40593 98.58655 87.74575
#
# Poissons Ratio (x) = 0.18095 0.32628
# Poissons Ratio (y) = 0.11087 0.39294
# Poissons Ratio (z) = 0.22461 0.44148
#
# Static dielectric constant tensor:
#      x y z
#    x 1.772580 0.000000 0.000000 
#    y 0.000000 1.727990 0.000000 
#    z 0.000000 0.000000 1.795760 
# 
# From -- ./inp_files/30954.got.cif
#   From: 2010.05.17/outbox.cif.g08.bks.cpg/sg22_16_cif.got.tgz:30954.got - 2010.06.03 23:40:54.
