data_PCOD9326179
_publ_section_title
;
Structure prediction by ZEFSAII (Michael W. Deem and Ramdas Pophale) SiO2 
 PCOD9326179
Probable space group: F 2 2 2
;
_chemical_formula_sum "Si O2"
_cell_formula_units_Z 96
_cell_length_a 26.111587
_cell_length_b 14.499143
_cell_length_c 14.335180
_cell_angle_alpha 90.000000
_cell_angle_beta 90.000000
_cell_angle_gamma 90.000000
_cell_volume 5427.236559
_symmetry_space_group_name_H-M "F 2 2 2"
_symmetry_group_IT_number 22
_symmetry_cell_setting 'orthorhombic'
loop_
_space_group_symop_operation_xyz
x,y,z
-x,-y,z
x,-y,-z
-x,y,-z
x,1/2+y,1/2+z
-x,1/2-y,1/2+z
x,1/2-y,1/2-z
-x,1/2+y,1/2-z
1/2+x,y,1/2+z
1/2-x,-y,1/2+z
1/2+x,-y,1/2-z
1/2-x,y,1/2-z
1/2+x,1/2+y,z
1/2-x,1/2-y,z
1/2+x,1/2-y,-z
1/2-x,1/2+y,-z
loop_
_atom_site_type_symbol
_atom_site_label
_atom_site_fract_x
_atom_site_fract_y
_atom_site_fract_z
Si Si1 0.076005 0.355850 0.967134
Si Si2 0.514996 0.602874 0.345774
Si Si3 0.138234 0.299081 0.446959
Si Si4 0.668579 0.000000 0.500000
Si Si5 0.839285 0.000000 0.500000
Si Si6 0.750000 0.250000 0.911471
Si Si7 0.412305 0.250000 0.250000
Si Si8 0.247790 0.543169 0.855056
O O1 0.125120 0.420187 0.958965
O O2 0.038576 0.353061 0.879263
O O3 0.046814 0.399514 0.057019
O O4 0.095788 0.255860 0.995566
O O5 0.500000 0.500000 0.313462
O O6 0.550294 0.665340 0.279422
O O7 0.139069 0.405695 0.477684
O O8 0.195164 0.255771 0.464428
O O9 0.122580 0.280490 0.338422
O O10 0.707171 0.993324 0.587657
O O11 0.803487 0.029202 0.585711
O O12 0.746117 0.345851 0.856323
O O13 0.250000 0.510136 0.750000
#
# Coordination Sequence:
#
# PCOD9326179 Si02
#       8
#    16  16  16   8   8   8   8  16
#     4  10  18  34  62  80 102 141 194 243 293 337
#     4  10  19  37  57  82 111 139 188 256 292 337
#     4  10  21  37  57  86 118 153 195 239 297 360
#     4   9  22  38  54  84 126 162 188 238 301 362
#     4  11  18  33  56  87 102 151 194 237 299 338
#     4  10  19  30  56  84 115 150 191 242 282 338
#     4  10  24  37  58  88 116 155 194 248 298 354
#     4  10  21  33  52  84 120 153 194 240 288 353
#
# _framework density 17.688559999999999
#
# number of rings (size 3 to 8) (size 9 to 14) (size 15 to 20)
#    0.000    2.000    3.333    0.750    4.667    0.000 
#    3.000    0.000    0.000    1.000    0.000    0.000 
#    0.000    0.000    0.000    0.000    0.000    0.000 
#
# Total GULP energy -133616.655168 kJ/mol
# GULP energy per Si atom -5567.360632 kJ/mol
# Density = 1.764830 g / cm^3
# Si number density = 17.688560 Si / 1000 Ang^3
#
#
#
# Elastic Constant Matrix: (Units=GPa)
#
#
# Indices 1 2 3 4 5 6 
#
# 1 93.2710 47.9989 33.0097 0.0000 0.0000 0.0000
# 2 47.9989 107.1037 31.6397 0.0000 0.0000 0.0000
# 3 33.0097 31.6397 72.2184 0.0000 0.0000 0.0000
# 4 0.0000 0.0000 0.0000 16.5067 0.0000 0.0000
# 5 0.0000 0.0000 0.0000 0.0000 95.7494 0.0000
# 6 0.0000 0.0000 0.0000 0.0000 0.0000 29.9924
#
#
#
# Elastic Compliance Matrix: (Units=1/GPa)
#
#
# Indices 1 2 3 4 5 6 
#
# 1 0.015124 -0.005440 -0.004530 0.000000 0.000000 0.000000
# 2 -0.005440 0.012681 -0.003069 0.000000 0.000000 0.000000
# 3 -0.004530 -0.003069 0.017262 0.000000 0.000000 0.000000
# 4 0.000000 0.000000 0.000000 0.060581 0.000000 0.000000
# 5 0.000000 0.000000 0.000000 0.000000 0.010444 0.000000
# 6 0.000000 0.000000 0.000000 0.000000 0.000000 0.033342
#
#
# Mechanical properties :
#
#
# Convention : Reuss Voigt Hill
#
# Bulk Modulus (GPa) = 52.66019 55.32106 53.99063
# Shear Modulus (GPa) = 27.49640 39.11269 33.30454
#
# Velocity S-wave (km/s) = 3.94696 4.70743 4.34387
# Velocity P-wave (km/s) = 7.11384 7.80317 7.46646
#
# Compressibility (1/GPa) = 0.01898968
#
# Stress axis : x y z
#
# Youngs Moduli (GPa) = 66.12045 78.85613 57.93046
#
# Poissons Ratio (x) = 0.42895 0.26241
# Poissons Ratio (y) = 0.35968 0.17781
# Poissons Ratio (z) = 0.29950 0.24204
#
# Static dielectric constant tensor:
#      x y z
#    x 1.646690 0.000000 0.000000 
#    y 0.000000 1.573970 0.000000 
#    z 0.000000 0.000000 1.606930 
# 
# From -- ./inp_files/33145.got.cif
#   From: 2010.05.17/outbox.cif.g08.bks.cpg/sg22_17_cif.got.tgz:33145.got - 2010.06.03 23:40:54.
