data_PCOD9326509
_publ_section_title
;
Structure prediction by ZEFSAII (Michael W. Deem and Ramdas Pophale) SiO2 
 PCOD9326509
Probable space group: F 2 2 2
;
_chemical_formula_sum "Si O2"
_cell_formula_units_Z 72
_cell_length_a 8.140196
_cell_length_b 16.880567
_cell_length_c 27.095419
_cell_angle_alpha 90.000000
_cell_angle_beta 90.000000
_cell_angle_gamma 90.000000
_cell_volume 3723.211979
_symmetry_space_group_name_H-M "F 2 2 2"
_symmetry_group_IT_number 22
_symmetry_cell_setting 'orthorhombic'
loop_
_space_group_symop_operation_xyz
x,y,z
-x,-y,z
x,-y,-z
-x,y,-z
x,1/2+y,1/2+z
-x,1/2-y,1/2+z
x,1/2-y,1/2-z
-x,1/2+y,1/2-z
1/2+x,y,1/2+z
1/2-x,-y,1/2+z
1/2+x,-y,1/2-z
1/2-x,y,1/2-z
1/2+x,1/2+y,z
1/2-x,1/2-y,z
1/2+x,1/2-y,-z
1/2-x,1/2+y,-z
loop_
_atom_site_type_symbol
_atom_site_label
_atom_site_fract_x
_atom_site_fract_y
_atom_site_fract_z
Si Si1 0.750000 0.250000 0.750000
Si Si2 0.750000 0.250000 0.988379
Si Si3 0.145612 0.651721 0.659962
Si Si4 0.500000 0.500000 0.119426
Si Si5 0.967529 0.706562 0.103244
Si Si6 0.245849 0.609962 0.061633
Si Si7 0.500000 0.000000 0.000000
O O1 0.849647 0.308221 0.713593
O O2 0.890455 0.282252 0.951331
O O3 0.695151 0.323015 0.022855
O O4 0.024452 0.706513 0.627099
O O5 0.325598 0.664064 0.635402
O O6 0.097376 0.561585 0.653595
O O7 0.381694 0.553195 0.085141
O O8 0.134700 0.658682 0.100624
O O9 0.116917 0.554020 0.033281
#
# Coordination Sequence:
#
# PCOD9326509 Si02
#       7
#     4   8  16   8  16  16   4
#     4   8  18  44  76  82 112 158 192 230 306 420
#     4  10  19  36  58  79 110 173 222 246 275 360
#     4   9  20  40  66  91 111 150 203 249 316 369
#     4  12  26  35  56  97 130 148 199 270 309 346
#     4   9  19  40  59  77 114 170 212 240 295 368
#     4  12  23  38  55  83 128 168 211 253 298 347
#     4  12  24  38  52  82 116 176 218 264 300 314
#
# _framework density 19.338142000000001
#
# number of rings (size 3 to 8) (size 9 to 14) (size 15 to 20)
#    0.000    2.222    2.222    2.667    3.111    2.222 
#    0.000    4.444    0.000    5.333    0.000    0.000 
#    0.000    0.000    0.000    0.000    0.000    0.000 
#
# Total GULP energy -100511.677894 kJ/mol
# GULP energy per Si atom -5583.982105 kJ/mol
# Density = 1.929413 g / cm^3
# Si number density = 19.338142 Si / 1000 Ang^3
#
#
#
# Elastic Constant Matrix: (Units=GPa)
#
#
# Indices 1 2 3 4 5 6 
#
# 1 93.0447 54.5504 35.4558 0.0000 0.0000 0.0000
# 2 54.5504 155.6173 58.5425 0.0000 0.0000 0.0000
# 3 35.4558 58.5425 111.5333 0.0000 0.0000 0.0000
# 4 0.0000 0.0000 0.0000 13.5220 0.0000 0.0000
# 5 0.0000 0.0000 0.0000 0.0000 9.7951 0.0000
# 6 0.0000 0.0000 0.0000 0.0000 0.0000 51.6658
#
#
#
# Elastic Compliance Matrix: (Units=1/GPa)
#
#
# Indices 1 2 3 4 5 6 
#
# 1 0.014000 -0.004029 -0.002336 0.000000 0.000000 0.000000
# 2 -0.004029 0.009166 -0.003531 0.000000 0.000000 0.000000
# 3 -0.002336 -0.003531 0.011562 0.000000 0.000000 0.000000
# 4 0.000000 0.000000 0.000000 0.073954 0.000000 0.000000
# 5 0.000000 0.000000 0.000000 0.000000 0.102092 0.000000
# 6 0.000000 0.000000 0.000000 0.000000 0.000000 0.019355
#
#
# Mechanical properties :
#
#
# Convention : Reuss Voigt Hill
#
# Bulk Modulus (GPa) = 66.94602 73.03251 69.98927
# Shear Modulus (GPa) = 19.61567 29.10635 24.36101
#
# Velocity S-wave (km/s) = 3.18834 3.88380 3.55313
# Velocity P-wave (km/s) = 6.94607 7.61314 7.28724
#
# Compressibility (1/GPa) = 0.01493741
#
# Stress axis : x y z
#
# Youngs Moduli (GPa) = 71.43081 109.09314 86.49281
#
# Poissons Ratio (x) = 0.43951 0.20203
# Poissons Ratio (y) = 0.28778 0.30538
# Poissons Ratio (z) = 0.16684 0.38517
#
# Static dielectric constant tensor:
#      x y z
#    x 1.728140 0.000000 0.000000 
#    y 0.000000 1.698580 0.000000 
#    z 0.000000 0.000000 1.672940 
# 
# From -- ./inp_files/51709.got.cif
#   From: 2010.05.17/outbox.cif.g08.bks.cpg/sg22_26_cif.got.tgz:51709.got - 2010.06.03 23:40:54.
