data_PCOD9326684
_publ_section_title
;
Structure prediction by ZEFSAII (Michael W. Deem and Ramdas Pophale) SiO2 
 PCOD9326684
Probable space group: F 2 2 2
;
_chemical_formula_sum "Si O2"
_cell_formula_units_Z 116
_cell_length_a 17.224090
_cell_length_b 29.377770
_cell_length_c 11.540846
_cell_angle_alpha 90.000000
_cell_angle_beta 90.000000
_cell_angle_gamma 90.000000
_cell_volume 5839.729871
_symmetry_space_group_name_H-M "F 2 2 2"
_symmetry_group_IT_number 22
_symmetry_cell_setting 'orthorhombic'
loop_
_space_group_symop_operation_xyz
x,y,z
-x,-y,z
x,-y,-z
-x,y,-z
x,1/2+y,1/2+z
-x,1/2-y,1/2+z
x,1/2-y,1/2-z
-x,1/2+y,1/2-z
1/2+x,y,1/2+z
1/2-x,-y,1/2+z
1/2+x,-y,1/2-z
1/2-x,y,1/2-z
1/2+x,1/2+y,z
1/2-x,1/2-y,z
1/2+x,1/2-y,-z
1/2-x,1/2+y,-z
loop_
_atom_site_type_symbol
_atom_site_label
_atom_site_fract_x
_atom_site_fract_y
_atom_site_fract_z
Si Si1 0.916934 0.300362 0.210968
Si Si2 0.670539 0.870987 0.427465
Si Si3 0.920497 0.436702 0.685745
Si Si4 0.049434 0.366727 0.603509
Si Si5 0.000000 0.500000 0.500000
Si Si6 0.412563 0.952718 0.953033
Si Si7 0.395158 0.802131 0.760260
Si Si8 0.842695 0.352872 0.991959
O O1 0.891324 0.250000 0.250000
O O2 0.901491 0.334283 0.316036
O O3 0.880227 0.322193 0.095066
O O4 0.011711 0.300791 0.215732
O O5 0.662242 0.912043 0.336122
O O6 0.613357 0.891038 0.526049
O O7 0.634619 0.828615 0.354317
O O8 0.749970 0.857258 0.486438
O O9 0.945741 0.472036 0.588035
O O10 0.918344 0.455413 0.814460
O O11 0.989837 0.398314 0.674049
O O12 0.000000 0.342494 0.500000
O O13 0.500000 0.950530 0.000000
O O14 0.374239 0.904784 0.990653
O O15 0.376573 0.000000 0.000000
O O16 0.369060 0.750000 0.750000
O O17 0.363214 0.828609 0.870941
#
# Coordination Sequence:
#
# PCOD9326684 Si02
#       8
#    16  16  16  16   4  16  16  16
#     4  11  24  40  67  99 130 177 227 283 334 405
#     4  11  23  42  66  95 136 178 214 276 353 410
#     4  11  21  40  67  96 124 174 224 291 338 408
#     4  10  19  41  64  88 125 170 222 264 331 400
#     4  12  20  36  66 104 116 160 246 286 328 408
#     4  11  23  42  68  96 130 176 229 287 343 410
#     4  11  23  41  71 100 129 179 234 280 332 413
#     4  12  25  42  66 101 143 174 223 288 355 409
#
# _framework density 19.863931999999998
#
# number of rings (size 3 to 8) (size 9 to 14) (size 15 to 20)
#    0.000    0.966    6.207    3.310    1.931    1.655 
#    1.241    0.690    0.000    0.000    0.000    0.000 
#    0.000    0.000    0.000    0.000    0.000    0.000 
#
# Total GULP energy -161470.103592 kJ/mol
# GULP energy per Si atom -5567.934607 kJ/mol
# Density = 1.981872 g / cm^3
# Si number density = 19.863932 Si / 1000 Ang^3
#
#
#
# Elastic Constant Matrix: (Units=GPa)
#
#
# Indices 1 2 3 4 5 6 
#
# 1 72.7937 21.9397 16.2172 0.0000 0.0000 0.0000
# 2 21.9397 143.3813 49.5844 0.0000 0.0000 0.0000
# 3 16.2172 49.5844 98.5184 0.0000 0.0000 0.0000
# 4 0.0000 0.0000 0.0000 35.2835 0.0000 0.0000
# 5 0.0000 0.0000 0.0000 0.0000 17.5853 0.0000
# 6 0.0000 0.0000 0.0000 0.0000 0.0000 20.7684
#
#
#
# Elastic Compliance Matrix: (Units=1/GPa)
#
#
# Indices 1 2 3 4 5 6 
#
# 1 0.014594 -0.001698 -0.001548 0.000000 0.000000 0.000000
# 2 -0.001698 0.008642 -0.004070 0.000000 0.000000 0.000000
# 3 -0.001548 -0.004070 0.012454 0.000000 0.000000 0.000000
# 4 0.000000 0.000000 0.000000 0.028342 0.000000 0.000000
# 5 0.000000 0.000000 0.000000 0.000000 0.056866 0.000000
# 6 0.000000 0.000000 0.000000 0.000000 0.000000 0.048150
#
#
# Mechanical properties :
#
#
# Convention : Reuss Voigt Hill
#
# Bulk Modulus (GPa) = 47.48753 54.46399 50.97576
# Shear Modulus (GPa) = 26.21955 29.85757 28.03856
#
# Velocity S-wave (km/s) = 3.63706 3.88120 3.76111
# Velocity P-wave (km/s) = 6.44949 6.89659 6.67678
#
# Compressibility (1/GPa) = 0.02105816
#
# Stress axis : x y z
#
# Youngs Moduli (GPa) = 68.52125 115.71846 80.29843
#
# Poissons Ratio (x) = 0.19647 0.12429
# Poissons Ratio (y) = 0.11634 0.32680
# Poissons Ratio (z) = 0.10606 0.47096
#
# Static dielectric constant tensor:
#      x y z
#    x 1.762580 0.000000 0.000000 
#    y 0.000000 1.765900 0.000000 
#    z 0.000000 0.000000 1.667640 
# 
# From -- ./inp_files/21831.got.cif
#   From: 2010.05.17/outbox.cif.g08.bks.cpg/sg22_11_cif.got.tgz:21831.got - 2010.06.03 23:40:54.
