data_PCOD9326781
_publ_section_title
;
Structure prediction by ZEFSAII (Michael W. Deem and Ramdas Pophale) SiO2 
 PCOD9326781
Probable space group: F 2 2 2
;
_chemical_formula_sum "Si O2"
_cell_formula_units_Z 84
_cell_length_a 18.886143
_cell_length_b 22.723359
_cell_length_c 8.724622
_cell_angle_alpha 90.000000
_cell_angle_beta 90.000000
_cell_angle_gamma 90.000000
_cell_volume 3744.229179
_symmetry_space_group_name_H-M "F 2 2 2"
_symmetry_group_IT_number 22
_symmetry_cell_setting 'orthorhombic'
loop_
_space_group_symop_operation_xyz
x,y,z
-x,-y,z
x,-y,-z
-x,y,-z
x,1/2+y,1/2+z
-x,1/2-y,1/2+z
x,1/2-y,1/2-z
-x,1/2+y,1/2-z
1/2+x,y,1/2+z
1/2-x,-y,1/2+z
1/2+x,-y,1/2-z
1/2-x,y,1/2-z
1/2+x,1/2+y,z
1/2-x,1/2-y,z
1/2+x,1/2-y,-z
1/2-x,1/2+y,-z
loop_
_atom_site_type_symbol
_atom_site_label
_atom_site_fract_x
_atom_site_fract_y
_atom_site_fract_z
Si Si1 0.616779 0.684362 0.084801
Si Si2 0.904258 0.361288 0.243099
Si Si3 0.496939 0.250000 0.250000
Si Si4 0.000000 0.500000 0.500000
Si Si5 0.750000 0.348442 0.750000
Si Si6 0.547324 0.922981 0.244960
Si Si7 0.833355 0.932259 0.486092
O O1 0.559415 0.735696 0.112555
O O2 0.694380 0.690703 0.154422
O O3 0.581524 0.636680 0.196160
O O4 0.619068 0.657152 0.914654
O O5 0.949977 0.302823 0.200371
O O6 0.844692 0.390155 0.134970
O O7 0.964184 0.411498 0.236272
O O8 0.947558 0.534294 0.388125
O O9 0.712976 0.392850 0.629398
O O10 0.589626 0.940133 0.095253
O O11 0.806095 0.000000 0.500000
#
# Coordination Sequence:
#
# PCOD9326781 Si02
#       7
#    16  16   8   4   8  16  16
#     4  10  22  42  64  96 133 180 227 278 340 419
#     4  11  22  41  68 102 138 176 229 288 360 430
#     4  10  22  41  74 107 138 172 218 290 376 424
#     4  12  16  32  62  92 132 172 206 280 352 416
#     4  10  26  45  62  90 136 189 250 286 332 408
#     4  10  20  34  59  94 129 166 214 279 350 410
#     4  11  25  42  63  97 139 187 238 290 346 419
#
# _framework density 22.434524
#
# number of rings (size 3 to 8) (size 9 to 14) (size 15 to 20)
#    0.000    1.524    1.905    3.429    0.000   12.571 
#    3.429    0.000    0.000    1.143    0.000    0.000 
#    0.000    0.000    0.000    0.000    0.000    0.000 
#
# Total GULP energy -116980.946341 kJ/mol
# GULP energy per Si atom -5570.521254 kJ/mol
# Density = 2.238346 g / cm^3
# Si number density = 22.434524 Si / 1000 Ang^3
#
#
#
# Elastic Constant Matrix: (Units=GPa)
#
#
# Indices 1 2 3 4 5 6 
#
# 1 72.4808 14.5279 23.5568 0.0000 0.0000 0.0000
# 2 14.5279 81.2028 19.3217 0.0000 0.0000 0.0000
# 3 23.5568 19.3217 98.4482 0.0000 0.0000 0.0000
# 4 0.0000 0.0000 0.0000 40.1130 0.0000 0.0000
# 5 0.0000 0.0000 0.0000 0.0000 20.7939 0.0000
# 6 0.0000 0.0000 0.0000 0.0000 0.0000 18.1352
#
#
#
# Elastic Compliance Matrix: (Units=1/GPa)
#
#
# Indices 1 2 3 4 5 6 
#
# 1 0.015249 -0.001951 -0.003266 0.000000 0.000000 0.000000
# 2 -0.001951 0.013168 -0.002117 0.000000 0.000000 0.000000
# 3 -0.003266 -0.002117 0.011355 0.000000 0.000000 0.000000
# 4 0.000000 0.000000 0.000000 0.024930 0.000000 0.000000
# 5 0.000000 0.000000 0.000000 0.000000 0.048091 0.000000
# 6 0.000000 0.000000 0.000000 0.000000 0.000000 0.055141
#
#
# Mechanical properties :
#
#
# Convention : Reuss Voigt Hill
#
# Bulk Modulus (GPa) = 39.83641 40.77163 40.30402
# Shear Modulus (GPa) = 26.18209 28.79012 27.48611
#
# Velocity S-wave (km/s) = 3.41991 3.58620 3.50404
# Velocity P-wave (km/s) = 5.77838 5.94650 5.86304
#
# Compressibility (1/GPa) = 0.02510266
#
# Stress axis : x y z
#
# Youngs Moduli (GPa) = 65.57682 75.94311 88.06935
#
# Poissons Ratio (x) = 0.14817 0.28763
# Poissons Ratio (y) = 0.12795 0.18648
# Poissons Ratio (z) = 0.21417 0.16081
#
# Static dielectric constant tensor:
#      x y z
#    x 1.895460 0.000000 0.000000 
#    y 0.000000 2.770300 0.000000 
#    z 0.000000 0.000000 1.866700 
# 
# From -- ./inp_files/12599.got.cif
#   From: 2010.05.17/outbox.cif.g08.bks.cpg/sg22_7_cif.got.tgz:12599.got - 2010.06.03 23:40:54.
