data_PCOD9326043
_publ_section_title
;
Structure prediction by ZEFSAII (Michael W. Deem and Ramdas Pophale) SiO2 
 PCOD9326043
Probable space group: F 2 2 2
;
_chemical_formula_sum "Si O2"
_cell_formula_units_Z 112
_cell_length_a 17.793471
_cell_length_b 12.928986
_cell_length_c 22.425814
_cell_angle_alpha 90.000000
_cell_angle_beta 90.000000
_cell_angle_gamma 90.000000
_cell_volume 5159.092989
_symmetry_space_group_name_H-M "F 2 2 2"
_symmetry_group_IT_number 22
_symmetry_cell_setting 'orthorhombic'
loop_
_space_group_symop_operation_xyz
x,y,z
-x,-y,z
x,-y,-z
-x,y,-z
x,1/2+y,1/2+z
-x,1/2-y,1/2+z
x,1/2-y,1/2-z
-x,1/2+y,1/2-z
1/2+x,y,1/2+z
1/2-x,-y,1/2+z
1/2+x,-y,1/2-z
1/2-x,y,1/2-z
1/2+x,1/2+y,z
1/2-x,1/2-y,z
1/2+x,1/2-y,-z
1/2-x,1/2+y,-z
loop_
_atom_site_type_symbol
_atom_site_label
_atom_site_fract_x
_atom_site_fract_y
_atom_site_fract_z
Si Si1 0.422735 0.689210 0.806762
Si Si2 0.294186 0.969668 0.691808
Si Si3 0.164618 0.360010 0.117920
Si Si4 0.442242 0.410631 0.073576
Si Si5 0.375332 0.952721 0.061141
Si Si6 0.628761 0.751796 0.995048
Si Si7 0.196846 0.434750 0.578026
O O1 0.456682 0.750000 0.750000
O O2 0.365429 0.597755 0.788078
O O3 0.373383 0.774720 0.841268
O O4 0.465546 0.633311 0.861279
O O5 0.250000 0.000083 0.750000
O O6 0.241474 0.895214 0.650094
O O7 0.309134 0.068095 0.649805
O O8 0.111471 0.462258 0.111907
O O9 0.170426 0.313074 0.050185
O O10 0.500000 0.500000 0.059509
O O11 0.432662 0.313574 0.030812
O O12 0.360960 0.469266 0.068188
O O13 0.283643 0.953230 0.061402
O O14 0.398424 0.834342 0.054366
O O15 0.405235 0.000000 0.000000
O O16 0.673976 0.666440 0.957864
#
# Coordination Sequence:
#
# PCOD9326043 Si02
#       7
#    16  16  16  16  16  16  16
#     4  10  18  30  54  84 108 148 198 250 305 353
#     4  10  18  29  48  83 127 156 192 244 304 362
#     4   9  18  28  47  80 117 148 183 241 297 357
#     4  10  22  37  54  83 116 151 204 261 304 359
#     4   9  17  29  47  77 114 149 183 230 290 368
#     4  10  19  32  51  77 114 154 196 233 301 368
#     4  10  20  30  49  80 115 155 194 241 306 356
#
# _framework density 21.709242
#
# number of rings (size 3 to 8) (size 9 to 14) (size 15 to 20)
#    0.000    2.286    1.429    2.143    0.000   11.429 
#    0.000    0.000    0.000    8.571    3.714   30.000 
#    0.000    0.000    0.000    0.000    0.000    0.000 
#
# Total GULP energy -155896.794785 kJ/mol
# GULP energy per Si atom -5567.742671 kJ/mol
# Density = 2.165983 g / cm^3
# Si number density = 21.709242 Si / 1000 Ang^3
#
#
#
# Elastic Constant Matrix: (Units=GPa)
#
#
# Indices 1 2 3 4 5 6 
#
# 1 27.7767 11.0338 15.1605 0.0000 0.0000 0.0000
# 2 11.0338 88.8151 45.6856 0.0000 0.0000 0.0000
# 3 15.1605 45.6856 115.6183 0.0000 0.0000 0.0000
# 4 0.0000 0.0000 0.0000 36.2063 0.0000 0.0000
# 5 0.0000 0.0000 0.0000 0.0000 7.8765 0.0000
# 6 0.0000 0.0000 0.0000 0.0000 0.0000 17.0747
#
#
#
# Elastic Compliance Matrix: (Units=1/GPa)
#
#
# Indices 1 2 3 4 5 6 
#
# 1 0.039325 -0.002803 -0.004049 0.000000 0.000000 0.000000
# 2 -0.002803 0.014331 -0.005295 0.000000 0.000000 0.000000
# 3 -0.004049 -0.005295 0.011273 0.000000 0.000000 0.000000
# 4 0.000000 0.000000 0.000000 0.027620 0.000000 0.000000
# 5 0.000000 0.000000 0.000000 0.000000 0.126960 0.000000
# 6 0.000000 0.000000 0.000000 0.000000 0.000000 0.058566
#
#
# Mechanical properties :
#
#
# Convention : Reuss Voigt Hill
#
# Bulk Modulus (GPa) = 24.60971 41.77444 33.19207
# Shear Modulus (GPa) = 15.82710 22.92017 19.37364
#
# Velocity S-wave (km/s) = 2.70302 3.25280 2.99057
# Velocity P-wave (km/s) = 4.59374 5.77859 5.21989
#
# Compressibility (1/GPa) = 0.04063436
#
# Stress axis : x y z
#
# Youngs Moduli (GPa) = 25.42935 69.77658 88.71122
#
# Poissons Ratio (x) = 0.19556 0.35919
# Poissons Ratio (y) = 0.07127 0.46977
# Poissons Ratio (z) = 0.10296 0.36950
#
# Static dielectric constant tensor:
#      x y z
#    x 1.861610 0.000000 0.000000 
#    y 0.000000 1.853490 0.000000 
#    z 0.000000 0.000000 1.854610 
# 
# From -- ./inp_files/49951.got.cif
#   From: 2010.05.17/outbox.cif.g08.bks.cpg/sg22_25_cif.got.tgz:49951.got - 2010.06.03 23:40:54.
