data_PCOD9326132
_publ_section_title
;
Structure prediction by ZEFSAII (Michael W. Deem and Ramdas Pophale) SiO2 
 PCOD9326132
Probable space group: F 2 2 2
;
_chemical_formula_sum "Si O2"
_cell_formula_units_Z 56
_cell_length_a 16.307593
_cell_length_b 12.326562
_cell_length_c 13.722840
_cell_angle_alpha 90.000000
_cell_angle_beta 90.000000
_cell_angle_gamma 90.000000
_cell_volume 2758.518038
_symmetry_space_group_name_H-M "F 2 2 2"
_symmetry_group_IT_number 22
_symmetry_cell_setting 'orthorhombic'
loop_
_space_group_symop_operation_xyz
x,y,z
-x,-y,z
x,-y,-z
-x,y,-z
x,1/2+y,1/2+z
-x,1/2-y,1/2+z
x,1/2-y,1/2-z
-x,1/2+y,1/2-z
1/2+x,y,1/2+z
1/2-x,-y,1/2+z
1/2+x,-y,1/2-z
1/2-x,y,1/2-z
1/2+x,1/2+y,z
1/2-x,1/2-y,z
1/2+x,1/2-y,-z
1/2-x,1/2+y,-z
loop_
_atom_site_type_symbol
_atom_site_label
_atom_site_fract_x
_atom_site_fract_y
_atom_site_fract_z
Si Si1 0.370486 0.160262 0.493493
Si Si2 0.586000 0.524759 0.837143
Si Si3 0.750000 0.530990 0.250000
Si Si4 0.311405 0.110877 0.044931
O O1 0.419534 0.126217 0.589486
O O2 0.369598 0.285892 0.466421
O O3 0.274444 0.131074 0.512257
O O4 0.397907 0.079471 0.407493
O O5 0.500000 0.500000 0.785355
O O6 0.668388 0.535811 0.775595
O O7 0.719863 0.599362 0.343683
O O8 0.345802 0.000000 0.000000
#
# Coordination Sequence:
#
# PCOD9326132 Si02
#       4
#    16  16   8  16
#     4   9  17  32  58  87 113 150 204 240 300 357
#     4  10  19  36  62  86 116 153 208 254 292 358
#     4  10  20  37  63  90 118 164 201 249 304 358
#     4  10  18  33  57  86 122 157 199 245 300 361
#
# _framework density 20.300754999999999
#
# number of rings (size 3 to 8) (size 9 to 14) (size 15 to 20)
#    0.000    2.286    5.714    1.714    0.000    9.143 
#    0.000    2.857   18.857    0.000    0.000    0.000 
#    0.000    0.000    0.000    0.000    0.000    0.000 
#
# Total GULP energy -77975.533081 kJ/mol
# GULP energy per Si atom -5569.680934 kJ/mol
# Density = 2.025455 g / cm^3
# Si number density = 20.300755 Si / 1000 Ang^3
#
#
#
# Elastic Constant Matrix: (Units=GPa)
#
#
# Indices 1 2 3 4 5 6 
#
# 1 96.8392 0.4842 22.4875 0.0000 0.0000 0.0000
# 2 0.4842 126.4600 25.8838 0.0000 0.0000 0.0000
# 3 22.4875 25.8838 57.2949 0.0000 0.0000 0.0000
# 4 0.0000 0.0000 0.0000 6.4162 0.0000 0.0000
# 5 0.0000 0.0000 0.0000 0.0000 18.4670 0.0000
# 6 0.0000 0.0000 0.0000 0.0000 0.0000 15.5297
#
#
#
# Elastic Compliance Matrix: (Units=1/GPa)
#
#
# Indices 1 2 3 4 5 6 
#
# 1 0.011468 0.000967 -0.004938 0.000000 0.000000 0.000000
# 2 0.000967 0.008795 -0.004353 0.000000 0.000000 0.000000
# 3 -0.004938 -0.004353 0.021358 0.000000 0.000000 0.000000
# 4 0.000000 0.000000 0.000000 0.155855 0.000000 0.000000
# 5 0.000000 0.000000 0.000000 0.000000 0.054151 0.000000
# 6 0.000000 0.000000 0.000000 0.000000 0.000000 0.064393
#
#
# Mechanical properties :
#
#
# Convention : Reuss Voigt Hill
#
# Bulk Modulus (GPa) = 40.04236 42.03389 41.03813
# Shear Modulus (GPa) = 14.66309 23.53180 19.09745
#
# Velocity S-wave (km/s) = 2.69047 3.40834 3.07045
# Velocity P-wave (km/s) = 5.42392 6.01993 5.72968
#
# Compressibility (1/GPa) = 0.02497355
#
# Stress axis : x y z
#
# Youngs Moduli (GPa) = 87.19755 113.70316 46.82089
#
# Poissons Ratio (x) = -0.10992 0.23120
# Poissons Ratio (y) = -0.08430 0.20379
# Poissons Ratio (z) = 0.43057 0.49491
#
# Static dielectric constant tensor:
#      x y z
#    x 1.763570 0.000000 0.000000 
#    y 0.000000 1.741070 0.000000 
#    z 0.000000 0.000000 1.767570 
# 
# From -- ./inp_files/19235.got.cif
#   From: 2010.05.17/outbox.cif.g08.bks.cpg/sg22_10_cif.got.tgz:19235.got - 2010.06.03 23:40:54.
