data_PCOD9326002
_publ_section_title
;
Structure prediction by ZEFSAII (Michael W. Deem and Ramdas Pophale) SiO2 
 PCOD9326002
Probable space group: F 2 2 2
;
_chemical_formula_sum "Si O2"
_cell_formula_units_Z 96
_cell_length_a 16.970741
_cell_length_b 25.993291
_cell_length_c 12.035464
_cell_angle_alpha 90.000000
_cell_angle_beta 90.000000
_cell_angle_gamma 90.000000
_cell_volume 5309.148983
_symmetry_space_group_name_H-M "F 2 2 2"
_symmetry_group_IT_number 22
_symmetry_cell_setting 'orthorhombic'
loop_
_space_group_symop_operation_xyz
x,y,z
-x,-y,z
x,-y,-z
-x,y,-z
x,1/2+y,1/2+z
-x,1/2-y,1/2+z
x,1/2-y,1/2-z
-x,1/2+y,1/2-z
1/2+x,y,1/2+z
1/2-x,-y,1/2+z
1/2+x,-y,1/2-z
1/2-x,y,1/2-z
1/2+x,1/2+y,z
1/2-x,1/2-y,z
1/2+x,1/2-y,-z
1/2-x,1/2+y,-z
loop_
_atom_site_type_symbol
_atom_site_label
_atom_site_fract_x
_atom_site_fract_y
_atom_site_fract_z
Si Si1 0.609553 0.752391 0.904993
Si Si2 0.162046 0.337424 0.739688
Si Si3 0.425743 0.219627 0.144060
Si Si4 0.795091 0.989981 0.369503
Si Si5 0.074549 0.077514 0.642396
Si Si6 0.404421 0.101630 0.108540
O O1 0.636151 0.695885 0.866585
O O2 0.658019 0.794331 0.836184
O O3 0.518333 0.765429 0.873436
O O4 0.617724 0.761575 0.034199
O O5 0.250000 0.358841 0.750000
O O6 0.102615 0.383558 0.762985
O O7 0.397028 0.250000 0.250000
O O8 0.414081 0.158657 0.156123
O O9 0.750000 0.998508 0.250000
O O10 0.827247 0.931485 0.367028
O O11 0.763214 0.000000 0.500000
O O12 0.870429 0.027968 0.363226
O O13 0.088948 0.106430 0.524871
O O14 0.981329 0.069489 0.647011
#
# Coordination Sequence:
#
# PCOD9326002 Si02
#       6
#    16  16  16  16  16  16
#     4  10  18  31  48  79 109 142 185 226 272 314
#     4  11  19  31  53  79 115 142 178 236 280 317
#     4  11  18  32  55  76 109 150 187 228 270 324
#     4  10  22  38  61  86 114 145 183 230 292 343
#     4  10  17  34  58  89 103 143 191 236 271 324
#     4  10  18  34  58  81 114 141 191 235 267 320
#
# _framework density 18.081994000000002
#
# number of rings (size 3 to 8) (size 9 to 14) (size 15 to 20)
#    0.000    1.667    5.000    3.000    0.000    2.000 
#    0.000    5.000    0.000    4.000    0.000    0.000 
#    0.000    0.000    0.000    0.000    0.000    0.000 
#
# Total GULP energy -133628.075372 kJ/mol
# GULP energy per Si atom -5567.836474 kJ/mol
# Density = 1.804084 g / cm^3
# Si number density = 18.081994 Si / 1000 Ang^3
#
#
#
# Elastic Constant Matrix: (Units=GPa)
#
#
# Indices 1 2 3 4 5 6 
#
# 1 41.1297 11.3656 21.7799 0.0000 0.0000 0.0000
# 2 11.3656 75.0071 27.2228 0.0000 0.0000 0.0000
# 3 21.7799 27.2228 106.0896 0.0000 0.0000 0.0000
# 4 0.0000 0.0000 0.0000 26.9738 0.0000 0.0000
# 5 0.0000 0.0000 0.0000 0.0000 16.4600 0.0000
# 6 0.0000 0.0000 0.0000 0.0000 0.0000 12.2494
#
#
#
# Elastic Compliance Matrix: (Units=1/GPa)
#
#
# Indices 1 2 3 4 5 6 
#
# 1 0.027649 -0.002348 -0.005074 0.000000 0.000000 0.000000
# 2 -0.002348 0.014901 -0.003341 0.000000 0.000000 0.000000
# 3 -0.005074 -0.003341 0.011325 0.000000 0.000000 0.000000
# 4 0.000000 0.000000 0.000000 0.037073 0.000000 0.000000
# 5 0.000000 0.000000 0.000000 0.000000 0.060753 0.000000
# 6 0.000000 0.000000 0.000000 0.000000 0.000000 0.081637
#
#
# Mechanical properties :
#
#
# Convention : Reuss Voigt Hill
#
# Bulk Modulus (GPa) = 30.91385 38.10703 34.51044
# Shear Modulus (GPa) = 18.82197 21.92719 20.37458
#
# Velocity S-wave (km/s) = 3.22983 3.48609 3.36041
# Velocity P-wave (km/s) = 5.57160 6.10935 5.84666
#
# Compressibility (1/GPa) = 0.03234796
#
# Stress axis : x y z
#
# Youngs Moduli (GPa) = 36.16777 67.11135 88.29986
#
# Poissons Ratio (x) = 0.15759 0.44801
# Poissons Ratio (y) = 0.08493 0.29505
# Poissons Ratio (z) = 0.18351 0.22425
#
# Static dielectric constant tensor:
#      x y z
#    x 1.702940 0.000000 0.000000 
#    y 0.000000 1.643260 0.000000 
#    z 0.000000 0.000000 1.643160 
# 
# From -- ./inp_files/21568.got.cif
#   From: 2010.05.17/outbox.cif.g08.bks.cpg/sg22_11_cif.got.tgz:21568.got - 2010.06.03 23:40:54.
