data_PCOD9326508
_publ_section_title
;
Structure prediction by ZEFSAII (Michael W. Deem and Ramdas Pophale) SiO2 
 PCOD9326508
Probable space group: F 2 2 2
;
_chemical_formula_sum "Si O2"
_cell_formula_units_Z 116
_cell_length_a 25.322553
_cell_length_b 20.547435
_cell_length_c 9.868742
_cell_angle_alpha 90.000000
_cell_angle_beta 90.000000
_cell_angle_gamma 90.000000
_cell_volume 5134.839807
_symmetry_space_group_name_H-M "F 2 2 2"
_symmetry_group_IT_number 22
_symmetry_cell_setting 'orthorhombic'
loop_
_space_group_symop_operation_xyz
x,y,z
-x,-y,z
x,-y,-z
-x,y,-z
x,1/2+y,1/2+z
-x,1/2-y,1/2+z
x,1/2-y,1/2-z
-x,1/2+y,1/2-z
1/2+x,y,1/2+z
1/2-x,-y,1/2+z
1/2+x,-y,1/2-z
1/2-x,y,1/2-z
1/2+x,1/2+y,z
1/2-x,1/2-y,z
1/2+x,1/2-y,-z
1/2-x,1/2+y,-z
loop_
_atom_site_type_symbol
_atom_site_label
_atom_site_fract_x
_atom_site_fract_y
_atom_site_fract_z
Si Si1 0.766987 0.362860 0.894790
Si Si2 0.660221 0.924543 0.474271
Si Si3 0.057668 0.590076 0.003899
Si Si4 0.750000 0.750000 0.750000
Si Si5 0.875419 0.107758 0.257509
Si Si6 0.946957 0.739493 0.085388
Si Si7 0.159867 0.231459 0.565144
Si Si8 0.648963 0.534666 0.318485
O O1 0.750000 0.335788 0.750000
O O2 0.713607 0.383366 0.968741
O O3 0.798897 0.429703 0.870206
O O4 0.806777 0.312793 0.962062
O O5 0.624827 0.897706 0.596568
O O6 0.635701 0.930079 0.324613
O O7 0.674054 0.000000 0.500000
O O8 0.056082 0.662135 0.940209
O O9 0.101770 0.552622 0.918945
O O10 0.071052 0.594413 0.163000
O O11 0.000000 0.563502 0.000000
O O12 0.794255 0.726589 0.639988
O O13 0.859352 0.176424 0.325225
O O14 0.842072 0.042866 0.300792
O O15 0.949273 0.750000 0.250000
O O16 0.891200 0.761203 0.012022
O O17 0.000000 0.761697 0.000000
#
# Coordination Sequence:
#
# PCOD9326508 Si02
#       8
#    16  16  16   4  16  16  16  16
#     4  10  20  35  58  88 124 166 204 254 310 387
#     4   9  20  32  52  85 125 168 211 244 293 372
#     4  10  21  39  62  90 123 153 210 263 320 392
#     4  12  28  44  58 100 136 188 214 282 338 400
#     4  10  20  37  60  87 126 167 202 257 311 379
#     4  10  23  45  71  95 123 168 227 289 334 387
#     4  11  24  42  63  92 133 169 224 269 334 408
#     4  10  19  36  57  91 129 160 207 250 311 382
#
# _framework density 22.590772999999999
#
# number of rings (size 3 to 8) (size 9 to 14) (size 15 to 20)
#    0.000    1.931    2.759    1.241    2.897    2.207 
#    3.724    0.690    0.000    2.483    0.000    0.000 
#    0.000    0.000    0.000    0.000    0.000    0.000 
#
# Total GULP energy -161487.237758 kJ/mol
# GULP energy per Si atom -5568.525440 kJ/mol
# Density = 2.253936 g / cm^3
# Si number density = 22.590773 Si / 1000 Ang^3
#
#
#
# Elastic Constant Matrix: (Units=GPa)
#
#
# Indices 1 2 3 4 5 6 
#
# 1 135.7445 5.1401 87.6118 0.0000 0.0000 0.0001
# 2 5.1401 62.0956 37.7962 0.0000 0.0000 0.0001
# 3 87.6118 37.7962 182.1937 0.0001 0.0000 0.0000
# 4 0.0000 0.0000 0.0001 41.1449 0.0000 0.0001
# 5 0.0000 0.0000 0.0000 0.0000 35.3485 0.0000
# 6 0.0001 0.0001 0.0000 0.0001 0.0000 126.3794
#
#
#
# Elastic Compliance Matrix: (Units=1/GPa)
#
#
# Indices 1 2 3 4 5 6 
#
# 1 0.011052 0.002655 -0.005865 0.000000 0.000000 0.000000
# 2 0.002655 0.019069 -0.005233 0.000000 0.000000 0.000000
# 3 -0.005865 -0.005233 0.009395 0.000000 0.000000 0.000000
# 4 0.000000 0.000000 0.000000 0.024304 0.000000 0.000000
# 5 0.000000 0.000000 0.000000 0.000000 0.028290 0.000000
# 6 0.000000 0.000000 0.000000 0.000000 0.000000 0.007913
#
#
# Mechanical properties :
#
#
# Convention : Reuss Voigt Hill
#
# Bulk Modulus (GPa) = 44.18870 71.23666 57.71268
# Shear Modulus (GPa) = 40.17613 57.20693 48.69153
#
# Velocity S-wave (km/s) = 4.22172 5.03767 4.64764
# Velocity P-wave (km/s) = 6.58535 8.08947 7.37585
#
# Compressibility (1/GPa) = 0.02263022
#
# Stress axis : x y z
#
# Youngs Moduli (GPa) = 90.48274 52.43977 106.44313
#
# Poissons Ratio (x) = -0.13924 0.62433
# Poissons Ratio (y) = -0.24025 0.55700
# Poissons Ratio (z) = 0.53071 0.27441
#
# Static dielectric constant tensor:
#      x y z
#    x 1.840450 0.000000 0.000000 
#    y 0.000000 1.914920 0.000000 
#    z 0.000000 0.000000 1.812340 
# 
# From -- ./inp_files/15002.got.cif
#   From: 2010.05.17/outbox.cif.g08.bks.cpg/sg22_8_cif.got.tgz:15002.got - 2010.06.03 23:40:54.
