data_PCOD9326259
_publ_section_title
;
Structure prediction by ZEFSAII (Michael W. Deem and Ramdas Pophale) SiO2 
 PCOD9326259
Probable space group: F 2 2 2
;
_chemical_formula_sum "Si O2"
_cell_formula_units_Z 72
_cell_length_a 13.510988
_cell_length_b 14.156720
_cell_length_c 18.217425
_cell_angle_alpha 90.000000
_cell_angle_beta 90.000000
_cell_angle_gamma 90.000000
_cell_volume 3484.470089
_symmetry_space_group_name_H-M "F 2 2 2"
_symmetry_group_IT_number 22
_symmetry_cell_setting 'orthorhombic'
loop_
_space_group_symop_operation_xyz
x,y,z
-x,-y,z
x,-y,-z
-x,y,-z
x,1/2+y,1/2+z
-x,1/2-y,1/2+z
x,1/2-y,1/2-z
-x,1/2+y,1/2-z
1/2+x,y,1/2+z
1/2-x,-y,1/2+z
1/2+x,-y,1/2-z
1/2-x,y,1/2-z
1/2+x,1/2+y,z
1/2-x,1/2-y,z
1/2+x,1/2-y,-z
1/2-x,1/2+y,-z
loop_
_atom_site_type_symbol
_atom_site_label
_atom_site_fract_x
_atom_site_fract_y
_atom_site_fract_z
Si Si1 0.250000 0.498711 0.750000
Si Si2 0.196384 0.895738 0.977470
Si Si3 0.017843 0.267242 0.420360
Si Si4 0.823929 0.340037 0.841715
Si Si5 0.808090 0.339495 0.364629
O O1 0.173554 0.575308 0.783528
O O2 0.206242 0.430373 0.687116
O O3 0.100836 0.843361 0.944621
O O4 0.278542 0.885556 0.915502
O O5 0.236866 0.855118 0.053996
O O6 0.166363 0.000000 0.000000
O O7 0.069697 0.200972 0.361055
O O8 0.000000 0.218609 0.500000
O O9 0.921271 0.313733 0.384500
O O10 0.750000 0.250000 0.826207
O O11 0.750000 0.250000 0.332621
#
# Coordination Sequence:
#
# PCOD9326259 Si02
#       5
#     8  16  16  16  16
#     4  12  24  42  66  92 134 182 214 258 332 392
#     4  10  18  38  71 100 124 160 219 271 326 386
#     4   9  20  39  69  96 127 163 216 278 328 376
#     4  10  21  42  67  97 129 168 211 271 329 387
#     4  11  23  42  64  92 132 172 217 271 326 382
#
# _framework density 20.663112999999999
#
# number of rings (size 3 to 8) (size 9 to 14) (size 15 to 20)
#    0.000    1.778    2.222    4.000    0.000    4.000 
#    0.000   14.444    0.000    0.000    0.000    0.000 
#    0.000    0.000    0.000    0.000    0.000    0.000 
#
# Total GULP energy -100368.715513 kJ/mol
# GULP energy per Si atom -5576.039751 kJ/mol
# Density = 2.061608 g / cm^3
# Si number density = 20.663113 Si / 1000 Ang^3
#
#
#
# Elastic Constant Matrix: (Units=GPa)
#
#
# Indices 1 2 3 4 5 6 
#
# 1 28.7506 13.1788 9.4835 0.0000 0.0000 0.0000
# 2 13.1788 134.1764 54.9590 0.0000 0.0000 0.0000
# 3 9.4835 54.9590 89.1311 0.0000 0.0000 0.0000
# 4 0.0000 0.0000 0.0000 46.5635 0.0000 0.0000
# 5 0.0000 0.0000 0.0000 0.0000 4.4822 0.0000
# 6 0.0000 0.0000 0.0000 0.0000 0.0000 7.9493
#
#
#
# Elastic Compliance Matrix: (Units=1/GPa)
#
#
# Indices 1 2 3 4 5 6 
#
# 1 0.036757 -0.002687 -0.002254 0.000000 0.000000 0.000000
# 2 -0.002687 0.010168 -0.005984 0.000000 0.000000 0.000000
# 3 -0.002254 -0.005984 0.015149 0.000000 0.000000 0.000000
# 4 0.000000 0.000000 0.000000 0.021476 0.000000 0.000000
# 5 0.000000 0.000000 0.000000 0.000000 0.223103 0.000000
# 6 0.000000 0.000000 0.000000 0.000000 0.000000 0.125798
#
#
# Mechanical properties :
#
#
# Convention : Reuss Voigt Hill
#
# Bulk Modulus (GPa) = 24.86066 45.25563 35.05814
# Shear Modulus (GPa) = 10.69043 23.42811 17.05927
#
# Velocity S-wave (km/s) = 2.27704 3.37087 2.87643
# Velocity P-wave (km/s) = 4.35554 6.09094 5.29482
#
# Compressibility (1/GPa) = 0.04022419
#
# Stress axis : x y z
#
# Youngs Moduli (GPa) = 27.20564 98.35087 66.01181
#
# Poissons Ratio (x) = 0.26427 0.14880
# Poissons Ratio (y) = 0.07310 0.39499
# Poissons Ratio (z) = 0.06133 0.58849
#
# Static dielectric constant tensor:
#      x y z
#    x 1.733300 0.000000 0.000000 
#    y 0.000000 1.837060 0.000000 
#    z 0.000000 0.000000 1.803660 
# 
# From -- ./inp_files/29048.got.cif
#   From: 2010.05.17/outbox.cif.g08.bks.cpg/sg22_15_cif.got.tgz:29048.got - 2010.06.03 23:40:54.
