data_PCOD9326782
_publ_section_title
;
Structure prediction by ZEFSAII (Michael W. Deem and Ramdas Pophale) SiO2 
 PCOD9326782
Probable space group: F 2 2 2
;
_chemical_formula_sum "Si O2"
_cell_formula_units_Z 104
_cell_length_a 9.081419
_cell_length_b 19.808505
_cell_length_c 29.099837
_cell_angle_alpha 90.000000
_cell_angle_beta 90.000000
_cell_angle_gamma 90.000000
_cell_volume 5234.750288
_symmetry_space_group_name_H-M "F 2 2 2"
_symmetry_group_IT_number 22
_symmetry_cell_setting 'orthorhombic'
loop_
_space_group_symop_operation_xyz
x,y,z
-x,-y,z
x,-y,-z
-x,y,-z
x,1/2+y,1/2+z
-x,1/2-y,1/2+z
x,1/2-y,1/2-z
-x,1/2+y,1/2-z
1/2+x,y,1/2+z
1/2-x,-y,1/2+z
1/2+x,-y,1/2-z
1/2-x,y,1/2-z
1/2+x,1/2+y,z
1/2-x,1/2-y,z
1/2+x,1/2-y,-z
1/2-x,1/2+y,-z
loop_
_atom_site_type_symbol
_atom_site_label
_atom_site_fract_x
_atom_site_fract_y
_atom_site_fract_z
Si Si1 0.005010 0.846831 0.446236
Si Si2 0.649737 0.091681 0.793916
Si Si3 0.311988 0.570126 0.298676
Si Si4 0.738230 0.890357 0.392749
Si Si5 0.707091 0.027525 0.052627
Si Si6 0.110470 0.884313 0.116680
Si Si7 0.750000 0.250000 0.097826
O O1 0.065209 0.924205 0.440044
O O2 0.124969 0.794013 0.427887
O O3 0.000000 0.836350 0.500000
O O4 0.843920 0.842847 0.423510
O O5 0.750000 0.113522 0.750000
O O6 0.474186 0.103408 0.799702
O O7 0.714625 0.119677 0.840618
O O8 0.665786 0.010412 0.795637
O O9 0.250000 0.593442 0.250000
O O10 0.196255 0.581013 0.340360
O O11 0.563308 0.885309 0.389941
O O12 0.774376 0.964637 0.413239
O O13 0.831712 0.080131 0.069719
O O14 0.715170 0.000000 0.000000
O O15 0.160648 0.807532 0.123413
#
# Coordination Sequence:
#
# PCOD9326782 Si02
#       7
#    16  16  16  16  16  16   8
#     4  11  24  43  64  90 124 176 217 271 318 392
#     4  10  20  34  59  95 132 165 203 258 328 407
#     4  10  20  36  60  89 130 168 204 258 330 391
#     4  12  23  36  66  97 127 161 211 266 329 391
#     4  11  22  40  62  92 129 161 203 256 329 389
#     4  11  24  42  62  91 127 171 212 268 316 389
#     4  10  26  46  61  80 126 170 227 260 318 370
#
# _framework density 19.867232999999999
#
# number of rings (size 3 to 8) (size 9 to 14) (size 15 to 20)
#    0.000    1.231    3.077    3.692    2.154    4.308 
#    0.000    0.385    0.000    0.000    0.000    1.077 
#    0.000    0.000    0.000    0.000    0.000    0.000 
#
# Total GULP energy -144782.433315 kJ/mol
# GULP energy per Si atom -5568.555128 kJ/mol
# Density = 1.982201 g / cm^3
# Si number density = 19.867233 Si / 1000 Ang^3
#
#
#
# Elastic Constant Matrix: (Units=GPa)
#
#
# Indices 1 2 3 4 5 6 
#
# 1 193.1075 12.5368 74.4363 0.0000 0.0000 0.0000
# 2 12.5368 47.5874 17.4113 0.0000 0.0000 0.0000
# 3 74.4363 17.4113 111.2844 0.0000 0.0000 0.0000
# 4 0.0000 0.0000 0.0000 82.2923 0.0000 0.0000
# 5 0.0000 0.0000 0.0000 0.0000 1.6520 0.0000
# 6 0.0000 0.0000 0.0000 0.0000 0.0000 3.1380
#
#
#
# Elastic Compliance Matrix: (Units=1/GPa)
#
#
# Indices 1 2 3 4 5 6 
#
# 1 0.006978 -0.000139 -0.004646 0.000000 0.000000 0.000000
# 2 -0.000139 0.022293 -0.003395 0.000000 0.000000 0.000000
# 3 -0.004646 -0.003395 0.012625 0.000000 0.000000 0.000000
# 4 0.000000 0.000000 0.000000 0.012152 0.000000 0.000000
# 5 0.000000 0.000000 0.000000 0.000000 0.605311 0.000000
# 6 0.000000 0.000000 0.000000 0.000000 0.000000 0.318674
#
#
# Mechanical properties :
#
#
# Convention : Reuss Voigt Hill
#
# Bulk Modulus (GPa) = 39.15983 62.30533 50.73258
# Shear Modulus (GPa) = 4.98552 33.92281 19.45417
#
# Velocity S-wave (km/s) = 1.58583 4.13664 3.13263
# Velocity P-wave (km/s) = 4.80694 7.36510 6.21898
#
# Compressibility (1/GPa) = 0.02553637
#
# Stress axis : x y z
#
# Youngs Moduli (GPa) = 143.30068 44.85773 79.20905
#
# Poissons Ratio (x) = 0.00621 0.36801
# Poissons Ratio (y) = 0.01985 0.26893
# Poissons Ratio (z) = 0.66578 0.15230
#
# Static dielectric constant tensor:
#      x y z
#    x -4.966410 0.000000 0.000000 
#    y 0.000000 1.744890 0.000000 
#    z 0.000000 0.000000 1.723410 
# 
# From -- ./inp_files/51977.got.cif
#   From: 2010.05.17/outbox.cif.g08.bks.cpg/sg22_26_cif.got.tgz:51977.got - 2010.06.03 23:40:54.
