data_PCOD9326398
_publ_section_title
;
Structure prediction by ZEFSAII (Michael W. Deem and Ramdas Pophale) SiO2 
 PCOD9326398
Probable space group: F 2 2 2
;
_chemical_formula_sum "Si O2"
_cell_formula_units_Z 104
_cell_length_a 8.865539
_cell_length_b 22.914951
_cell_length_c 26.711343
_cell_angle_alpha 90.000000
_cell_angle_beta 90.000000
_cell_angle_gamma 90.000000
_cell_volume 5426.499929
_symmetry_space_group_name_H-M "F 2 2 2"
_symmetry_group_IT_number 22
_symmetry_cell_setting 'orthorhombic'
loop_
_space_group_symop_operation_xyz
x,y,z
-x,-y,z
x,-y,-z
-x,y,-z
x,1/2+y,1/2+z
-x,1/2-y,1/2+z
x,1/2-y,1/2-z
-x,1/2+y,1/2-z
1/2+x,y,1/2+z
1/2-x,-y,1/2+z
1/2+x,-y,1/2-z
1/2-x,y,1/2-z
1/2+x,1/2+y,z
1/2-x,1/2-y,z
1/2+x,1/2-y,-z
1/2-x,1/2+y,-z
loop_
_atom_site_type_symbol
_atom_site_label
_atom_site_fract_x
_atom_site_fract_y
_atom_site_fract_z
Si Si1 0.567554 0.784441 0.162515
Si Si2 0.492403 0.568843 0.559537
Si Si3 0.014265 0.853760 0.827457
Si Si4 0.724812 0.155493 0.581440
Si Si5 0.000000 0.214886 0.000000
Si Si6 0.207433 0.140538 0.631592
Si Si7 0.750000 0.155777 0.750000
Si Si8 0.250000 0.750000 0.433543
O O1 0.517095 0.717923 0.172060
O O2 0.663003 0.798721 0.111399
O O3 0.423419 0.826257 0.161451
O O4 0.670346 0.806139 0.207523
O O5 0.500000 0.500000 0.569407
O O6 0.500000 0.577515 0.500000
O O7 0.336976 0.602144 0.571391
O O8 0.625505 0.596830 0.593366
O O9 0.104793 0.866722 0.878030
O O10 0.114401 0.875060 0.780490
O O11 0.845497 0.878007 0.833182
O O12 0.624118 0.179700 0.534392
O O13 0.899365 0.256251 0.034347
O O14 0.276224 0.192198 0.597682
#
# Coordination Sequence:
#
# PCOD9326398 Si02
#       8
#    16  16  16  16   8  16   8   8
#     4  10  19  34  53  82 119 160 189 234 282 356
#     4  10  23  42  60  77 110 156 206 249 295 347
#     4  11  19  35  53  83 122 149 196 233 290 353
#     4  10  21  35  54  78 113 150 194 241 285 345
#     4  12  24  30  52  85 119 162 192 230 288 358
#     4  11  21  36  55  84 117 152 192 249 289 342
#     4  10  21  32  54  80 120 170 190 218 290 365
#     4  12  24  32  50  85 120 157 192 232 290 352
#
# _framework density 19.165208
#
# number of rings (size 3 to 8) (size 9 to 14) (size 15 to 20)
#    0.000    1.385    3.077    3.692    7.538    0.615 
#    0.000    2.308    0.000    0.000    0.000   58.154 
#    0.000    0.000    0.000    0.000    0.000    0.000 
#
# Total GULP energy -144881.195653 kJ/mol
# GULP energy per Si atom -5572.353679 kJ/mol
# Density = 1.912159 g / cm^3
# Si number density = 19.165208 Si / 1000 Ang^3
#
#
#
# Elastic Constant Matrix: (Units=GPa)
#
#
# Indices 1 2 3 4 5 6 
#
# 1 142.4969 22.4820 45.6737 0.0000 0.0000 0.0000
# 2 22.4820 40.4134 17.6392 0.0000 0.0000 0.0000
# 3 45.6737 17.6392 80.6227 0.0000 0.0000 0.0000
# 4 0.0000 0.0000 0.0000 16.3168 0.0000 0.0000
# 5 0.0000 0.0000 0.0000 0.0000 47.3523 0.0000
# 6 0.0000 0.0000 0.0000 0.0000 0.0000 16.0743
#
#
#
# Elastic Compliance Matrix: (Units=1/GPa)
#
#
# Indices 1 2 3 4 5 6 
#
# 1 0.008900 -0.003041 -0.004377 0.000000 0.000000 0.000000
# 2 -0.003041 0.028396 -0.004490 0.000000 0.000000 0.000000
# 3 -0.004377 -0.004490 0.015865 0.000000 0.000000 0.000000
# 4 0.000000 0.000000 0.000000 0.061287 0.000000 0.000000
# 5 0.000000 0.000000 0.000000 0.000000 0.021118 0.000000
# 6 0.000000 0.000000 0.000000 0.000000 0.000000 0.062211
#
#
# Mechanical properties :
#
#
# Convention : Reuss Voigt Hill
#
# Bulk Modulus (GPa) = 34.07617 48.34697 41.21157
# Shear Modulus (GPa) = 21.61001 27.79791 24.70396
#
# Velocity S-wave (km/s) = 3.36157 3.81259 3.59416
# Velocity P-wave (km/s) = 5.73460 6.68299 6.22688
#
# Compressibility (1/GPa) = 0.02934602
#
# Stress axis : x y z
#
# Youngs Moduli (GPa) = 112.35521 35.21668 63.03067
#
# Poissons Ratio (x) = 0.10709 0.27587
# Poissons Ratio (y) = 0.34166 0.28300
# Poissons Ratio (z) = 0.49176 0.15812
#
# Static dielectric constant tensor:
#      x y z
#    x 1.644730 0.000000 0.000000 
#    y 0.000000 1.654200 0.000000 
#    z 0.000000 0.000000 1.749940 
# 
# From -- ./inp_files/55621.got.cif
#   From: 2010.05.17/outbox.cif.g08.bks.cpg/sg22_28_cif.got.tgz:55621.got - 2010.06.03 23:40:54.
