data_PCOD9326787
_publ_section_title
;
Structure prediction by ZEFSAII (Michael W. Deem and Ramdas Pophale) SiO2 
 PCOD9326787
Probable space group: F 2 2 2
;
_chemical_formula_sum "Si O2"
_cell_formula_units_Z 60
_cell_length_a 11.038007
_cell_length_b 17.502342
_cell_length_c 15.987386
_cell_angle_alpha 90.000000
_cell_angle_beta 90.000000
_cell_angle_gamma 90.000000
_cell_volume 3088.618665
_symmetry_space_group_name_H-M "F 2 2 2"
_symmetry_group_IT_number 22
_symmetry_cell_setting 'orthorhombic'
loop_
_space_group_symop_operation_xyz
x,y,z
-x,-y,z
x,-y,-z
-x,y,-z
x,1/2+y,1/2+z
-x,1/2-y,1/2+z
x,1/2-y,1/2-z
-x,1/2+y,1/2-z
1/2+x,y,1/2+z
1/2-x,-y,1/2+z
1/2+x,-y,1/2-z
1/2-x,y,1/2-z
1/2+x,1/2+y,z
1/2-x,1/2-y,z
1/2+x,1/2-y,-z
1/2-x,1/2+y,-z
loop_
_atom_site_type_symbol
_atom_site_label
_atom_site_fract_x
_atom_site_fract_y
_atom_site_fract_z
Si Si1 0.250000 0.078859 0.250000
Si Si2 0.000000 0.500000 0.000000
Si Si3 0.727282 0.835361 0.849101
Si Si4 0.857906 0.982017 0.904269
Si Si5 0.469725 0.584017 0.655376
O O1 0.367273 0.121431 0.212567
O O2 0.208505 0.028131 0.170466
O O3 0.071087 0.444622 0.063194
O O4 0.750000 0.835038 0.750000
O O5 0.750000 0.750000 0.881272
O O6 0.820717 0.894667 0.888902
O O7 0.590759 0.867628 0.858042
O O8 0.000000 0.000000 0.897082
O O9 0.823421 0.000000 0.000000
O O10 0.500000 0.500000 0.695408
#
# Coordination Sequence:
#
# PCOD9326787 Si02
#       5
#     8   4  16  16  16
#     4  12  20  34  67  99 124 162 230 274 318 374
#     4   8  20  32  60  96 128 160 230 268 306 380
#     4  11  22  39  64  95 130 170 216 268 336 399
#     4  11  23  39  64  92 129 168 221 269 319 386
#     4  10  20  34  61  98 124 166 222 271 315 386
#
# _framework density 19.426158000000001
#
# number of rings (size 3 to 8) (size 9 to 14) (size 15 to 20)
#    0.800    0.533    4.000    2.400    7.467    0.000 
#    0.000    2.667    0.000   11.200    0.000    0.000 
#    0.000    0.000    0.000    0.000    0.000    0.000 
#
# Total GULP energy -83538.370904 kJ/mol
# GULP energy per Si atom -5569.224727 kJ/mol
# Density = 1.938194 g / cm^3
# Si number density = 19.426158 Si / 1000 Ang^3
#
#
#
# Elastic Constant Matrix: (Units=GPa)
#
#
# Indices 1 2 3 4 5 6 
#
# 1 153.9316 64.4667 41.4407 0.0000 0.0000 0.0000
# 2 64.4667 114.1057 23.9515 0.0000 0.0000 0.0000
# 3 41.4407 23.9515 129.5179 0.0000 0.0000 0.0000
# 4 0.0000 0.0000 0.0000 16.9497 0.0000 0.0000
# 5 0.0000 0.0000 0.0000 0.0000 35.8590 0.0000
# 6 0.0000 0.0000 0.0000 0.0000 0.0000 23.3584
#
#
#
# Elastic Compliance Matrix: (Units=1/GPa)
#
#
# Indices 1 2 3 4 5 6 
#
# 1 0.008989 -0.004655 -0.002015 0.000000 0.000000 0.000000
# 2 -0.004655 0.011529 -0.000642 0.000000 0.000000 0.000000
# 3 -0.002015 -0.000642 0.008485 0.000000 0.000000 0.000000
# 4 0.000000 0.000000 0.000000 0.058998 0.000000 0.000000
# 5 0.000000 0.000000 0.000000 0.000000 0.027887 0.000000
# 6 0.000000 0.000000 0.000000 0.000000 0.000000 0.042811
#
#
# Mechanical properties :
#
#
# Convention : Reuss Voigt Hill
#
# Bulk Modulus (GPa) = 69.55998 73.03034 71.29516
# Shear Modulus (GPa) = 28.07164 33.07985 30.57575
#
# Velocity S-wave (km/s) = 3.80550 4.13104 3.97160
# Velocity P-wave (km/s) = 7.42928 7.77363 7.60341
#
# Compressibility (1/GPa) = 0.01437608
#
# Stress axis : x y z
#
# Youngs Moduli (GPa) = 111.25293 86.73944 117.86196
#
# Poissons Ratio (x) = 0.40380 0.23750
# Poissons Ratio (y) = 0.51792 0.07572
# Poissons Ratio (z) = 0.22418 0.05573
#
# Static dielectric constant tensor:
#      x y z
#    x 1.781110 0.000000 0.000000 
#    y 0.000000 1.695150 0.000000 
#    z 0.000000 0.000000 1.709250 
# 
# From -- ./inp_files/27756.got.cif
#   From: 2010.05.17/outbox.cif.g08.bks.cpg/sg22_14_cif.got.tgz:27756.got - 2010.06.03 23:40:54.
