data_PCOD9326819
_publ_section_title
;
Structure prediction by ZEFSAII (Michael W. Deem and Ramdas Pophale) SiO2 
 PCOD9326819
Probable space group: F 2 2 2
;
_chemical_formula_sum "Si O2"
_cell_formula_units_Z 64
_cell_length_a 14.611161
_cell_length_b 8.127993
_cell_length_c 20.619892
_cell_angle_alpha 90.000000
_cell_angle_beta 90.000000
_cell_angle_gamma 90.000000
_cell_volume 2448.806297
_symmetry_space_group_name_H-M "F 2 2 2"
_symmetry_group_IT_number 22
_symmetry_cell_setting 'orthorhombic'
loop_
_space_group_symop_operation_xyz
x,y,z
-x,-y,z
x,-y,-z
-x,y,-z
x,1/2+y,1/2+z
-x,1/2-y,1/2+z
x,1/2-y,1/2-z
-x,1/2+y,1/2-z
1/2+x,y,1/2+z
1/2-x,-y,1/2+z
1/2+x,-y,1/2-z
1/2-x,y,1/2-z
1/2+x,1/2+y,z
1/2-x,1/2-y,z
1/2+x,1/2-y,-z
1/2-x,1/2+y,-z
loop_
_atom_site_type_symbol
_atom_site_label
_atom_site_fract_x
_atom_site_fract_y
_atom_site_fract_z
Si Si1 0.894058 0.984569 0.602065
Si Si2 0.359204 0.062114 0.248998
Si Si3 0.605535 0.132506 0.379716
Si Si4 0.924004 0.188358 0.941957
O O1 0.852948 0.803375 0.592966
O O2 0.889549 0.996816 0.679453
O O3 0.860782 0.152244 0.567691
O O4 0.000000 0.000000 0.579766
O O5 0.395125 0.250000 0.250000
O O6 0.250000 0.075099 0.250000
O O7 0.377262 0.936700 0.308096
O O8 0.497295 0.176586 0.382447
O O9 0.627209 0.983036 0.428915
O O10 0.000000 0.189388 0.000000
#
# Coordination Sequence:
#
# PCOD9326819 Si02
#       4
#    16  16  16  16
#     4  10  22  35  60  94 122 160 203 260 309 381
#     4  11  23  39  60  90 130 168 209 261 326 387
#     4  10  20  35  58  88 120 161 201 251 313 373
#     4  10  21  38  59  94 126 158 204 257 310 365
#
# _framework density 26.135183000000001
#
# number of rings (size 3 to 8) (size 9 to 14) (size 15 to 20)
#    0.000    1.750    2.500    2.250    3.500    7.500 
#    0.000    0.000    0.000    0.000   45.500    0.000 
#    0.000    0.000    0.000    0.000    0.000    0.000 
#
# Total GULP energy -89152.848147 kJ/mol
# GULP energy per Si atom -5572.053009 kJ/mol
# Density = 2.607570 g / cm^3
# Si number density = 26.135183 Si / 1000 Ang^3
#
#
#
# Elastic Constant Matrix: (Units=GPa)
#
#
# Indices 1 2 3 4 5 6 
#
# 1 40.1864 13.7144 6.9144 0.0000 0.0000 0.0000
# 2 13.7144 329.6896 85.2442 0.0000 0.0000 0.0000
# 3 6.9144 85.2442 164.8886 0.0000 0.0000 0.0000
# 4 0.0000 0.0000 0.0000 19.1966 0.0000 0.0000
# 5 0.0000 0.0000 0.0000 0.0000 -146.4612 0.0000
# 6 0.0000 0.0000 0.0000 0.0000 0.0000 10.8462
#
#
#
# Elastic Compliance Matrix: (Units=1/GPa)
#
#
# Indices 1 2 3 4 5 6 
#
# 1 0.025293 -0.000898 -0.000596 0.000000 0.000000 0.000000
# 2 -0.000898 0.003533 -0.001789 0.000000 0.000000 0.000000
# 3 -0.000596 -0.001789 0.007015 0.000000 0.000000 0.000000
# 4 0.000000 0.000000 0.000000 0.052093 0.000000 0.000000
# 5 0.000000 0.000000 0.000000 0.000000 -0.006828 0.000000
# 6 0.000000 0.000000 0.000000 0.000000 0.000000 0.092199
#
#
# Mechanical properties :
#
#
# Convention : Reuss Voigt Hill
#
# Bulk Modulus (GPa) = 34.15973 82.94563 58.55268
# Shear Modulus (GPa) = 26.36732 5.30907 15.83819
#
# Velocity S-wave (km/s) = 3.17974 1.42681 2.46440
# Velocity P-wave (km/s) = 5.15555 5.87541 5.52721
#
# Compressibility (1/GPa) = 0.02927424
#
# Stress axis : x y z
#
# Youngs Moduli (GPa) = 39.53645 283.04290 142.56150
#
# Poissons Ratio (x) = 0.25415 0.08503
# Poissons Ratio (y) = 0.03550 0.25502
# Poissons Ratio (z) = 0.02358 0.50632
#
# Static dielectric constant tensor:
#      x y z
#    x 2.100750 0.000000 0.000000 
#    y 0.000000 2.448650 0.000000 
#    z 0.000000 0.000000 2.083950 
# 
# From -- ./inp_files/11130.got.cif
#   From: 2010.05.17/outbox.cif.g08.bks.cpg/sg22_6_cif.got.tgz:11130.got - 2010.06.03 23:40:54.
