data_PCOD9326522
_publ_section_title
;
Structure prediction by ZEFSAII (Michael W. Deem and Ramdas Pophale) SiO2 
 PCOD9326522
Probable space group: F 2 2 2
;
_chemical_formula_sum "Si O2"
_cell_formula_units_Z 88
_cell_length_a 10.713232
_cell_length_b 22.067938
_cell_length_c 18.750325
_cell_angle_alpha 90.000000
_cell_angle_beta 90.000000
_cell_angle_gamma 90.000000
_cell_volume 4432.931953
_symmetry_space_group_name_H-M "F 2 2 2"
_symmetry_group_IT_number 22
_symmetry_cell_setting 'orthorhombic'
loop_
_space_group_symop_operation_xyz
x,y,z
-x,-y,z
x,-y,-z
-x,y,-z
x,1/2+y,1/2+z
-x,1/2-y,1/2+z
x,1/2-y,1/2-z
-x,1/2+y,1/2-z
1/2+x,y,1/2+z
1/2-x,-y,1/2+z
1/2+x,-y,1/2-z
1/2-x,y,1/2-z
1/2+x,1/2+y,z
1/2-x,1/2-y,z
1/2+x,1/2-y,-z
1/2-x,1/2+y,-z
loop_
_atom_site_type_symbol
_atom_site_label
_atom_site_fract_x
_atom_site_fract_y
_atom_site_fract_z
Si Si1 0.862358 0.516199 0.583936
Si Si2 0.785062 0.643521 0.539021
Si Si3 0.536249 0.750000 0.250000
Si Si4 0.465905 0.825033 0.115701
Si Si5 0.250000 0.160055 0.250000
Si Si6 0.178724 0.588624 0.890983
Si Si7 0.000000 0.736028 0.500000
O O1 0.868838 0.500000 0.500000
O O2 0.839857 0.587671 0.584668
O O3 0.743021 0.477829 0.611896
O O4 0.000000 0.500000 0.614730
O O5 0.669378 0.669918 0.581993
O O6 0.738527 0.617573 0.462576
O O7 0.889386 0.693319 0.525859
O O8 0.464186 0.789555 0.190959
O O9 0.635175 0.799432 0.278607
O O10 0.532328 0.891209 0.108316
O O11 0.542365 0.779746 0.064021
O O12 0.214820 0.120908 0.317764
#
# Coordination Sequence:
#
# PCOD9326522 Si02
#       7
#    16  16   8  16   8  16   8
#     4   9  19  36  59  86 117 160 208 262 316 380
#     4  11  21  36  59  91 122 160 211 262 322 378
#     4   9  20  36  55  88 130 164 206 242 330 394
#     4  11  22  36  59  94 125 166 202 267 324 388
#     4   9  18  34  62  86 120 174 207 262 312 384
#     4  10  19  36  60  88 120 156 216 260 316 373
#     4  12  22  36  59  87 128 160 206 256 316 390
#
# _framework density 19.851420999999998
#
# number of rings (size 3 to 8) (size 9 to 14) (size 15 to 20)
#    0.000    1.818    1.818    3.818    0.000    2.182 
#    0.000    4.545   12.000    0.000    0.000    0.000 
#    0.000    0.000    0.000    0.000    0.000    0.000 
#
# Total GULP energy -122495.908980 kJ/mol
# GULP energy per Si atom -5567.995863 kJ/mol
# Density = 1.980624 g / cm^3
# Si number density = 19.851421 Si / 1000 Ang^3
#
#
#
# Elastic Constant Matrix: (Units=GPa)
#
#
# Indices 1 2 3 4 5 6 
#
# 1 115.8073 52.5005 21.5694 0.0000 0.0000 0.0000
# 2 52.5005 94.7853 2.9724 0.0000 0.0000 0.0000
# 3 21.5694 2.9724 43.5754 0.0000 0.0000 0.0000
# 4 0.0000 0.0000 0.0000 7.8175 0.0000 0.0000
# 5 0.0000 0.0000 0.0000 0.0000 16.2197 0.0000
# 6 0.0000 0.0000 0.0000 0.0000 0.0000 -22.8402
#
#
#
# Elastic Compliance Matrix: (Units=1/GPa)
#
#
# Indices 1 2 3 4 5 6 
#
# 1 0.012887 -0.006953 -0.005905 0.000000 0.000000 0.000000
# 2 -0.006953 0.014324 0.002464 0.000000 0.000000 0.000000
# 3 -0.005905 0.002464 0.025703 0.000000 0.000000 0.000000
# 4 0.000000 0.000000 0.000000 0.127919 0.000000 0.000000
# 5 0.000000 0.000000 0.000000 0.000000 0.061654 0.000000
# 6 0.000000 0.000000 0.000000 0.000000 0.000000 -0.043783
#
#
# Mechanical properties :
#
#
# Convention : Reuss Voigt Hill
#
# Bulk Modulus (GPa) = 31.12514 45.36138 38.24326
# Shear Modulus (GPa) = 21.72036 12.04777 16.88406
#
# Velocity S-wave (km/s) = 3.31138 2.46620 2.91953
# Velocity P-wave (km/s) = 5.50757 5.56862 5.53818
#
# Compressibility (1/GPa) = 0.03212837
#
# Stress axis : x y z
#
# Youngs Moduli (GPa) = 77.59946 69.81359 38.90551
#
# Poissons Ratio (x) = 0.48539 0.22972
# Poissons Ratio (y) = 0.53952 -0.09588
# Poissons Ratio (z) = 0.45819 -0.17205
#
# Static dielectric constant tensor:
#      x y z
#    x 1.805330 0.000000 0.000000 
#    y 0.000000 1.739510 0.000000 
#    z 0.000000 0.000000 1.690480 
# 
# From -- ./inp_files/36100.got.cif
#   From: 2010.05.17/outbox.cif.g08.bks.cpg/sg22_19_cif.got.tgz:36100.got - 2010.06.03 23:40:54.
