data_PCOD9326193
_publ_section_title
;
Structure prediction by ZEFSAII (Michael W. Deem and Ramdas Pophale) SiO2 
 PCOD9326193
Probable space group: F 2 2 2
;
_chemical_formula_sum "Si O2"
_cell_formula_units_Z 104
_cell_length_a 19.504533
_cell_length_b 14.474996
_cell_length_c 14.305151
_cell_angle_alpha 90.000000
_cell_angle_beta 90.000000
_cell_angle_gamma 90.000000
_cell_volume 4038.745203
_symmetry_space_group_name_H-M "F 2 2 2"
_symmetry_group_IT_number 22
_symmetry_cell_setting 'orthorhombic'
loop_
_space_group_symop_operation_xyz
x,y,z
-x,-y,z
x,-y,-z
-x,y,-z
x,1/2+y,1/2+z
-x,1/2-y,1/2+z
x,1/2-y,1/2-z
-x,1/2+y,1/2-z
1/2+x,y,1/2+z
1/2-x,-y,1/2+z
1/2+x,-y,1/2-z
1/2-x,y,1/2-z
1/2+x,1/2+y,z
1/2-x,1/2-y,z
1/2+x,1/2-y,-z
1/2-x,1/2+y,-z
loop_
_atom_site_type_symbol
_atom_site_label
_atom_site_fract_x
_atom_site_fract_y
_atom_site_fract_z
Si Si1 0.710148 0.386707 0.619774
Si Si2 0.842378 0.849603 0.894374
Si Si3 0.074866 0.977169 0.857025
Si Si4 0.147181 0.295972 0.391799
Si Si5 0.048106 0.573024 0.160779
Si Si6 0.055396 0.250000 0.750000
Si Si7 0.198602 0.409298 0.896179
O O1 0.782866 0.343033 0.645669
O O2 0.651946 0.310344 0.639263
O O3 0.710934 0.402669 0.507428
O O4 0.704153 0.490625 0.652785
O O5 0.894532 0.803089 0.822205
O O6 0.763778 0.851715 0.860407
O O7 0.867964 0.956283 0.902993
O O8 0.847548 0.800706 0.994976
O O9 0.089227 0.868931 0.865799
O O10 0.070421 0.011788 0.750371
O O11 0.000000 0.000000 0.896750
O O12 0.014976 0.668676 0.197113
O O13 0.118000 0.608739 0.114494
O O14 0.000000 0.500000 0.107318
#
# Coordination Sequence:
#
# PCOD9326193 Si02
#       7
#    16  16  16  16  16   8  16
#     4   9  19  34  59  88 118 159 201 258 308 381
#     4  10  20  35  61  91 121 156 199 267 310 365
#     4  10  21  37  57  86 126 163 203 254 309 369
#     4  10  18  35  58  87 123 158 202 247 315 373
#     4  10  23  42  59  84 124 164 200 258 312 370
#     4  10  22  39  62  94 122 153 214 250 314 377
#     4  10  19  38  61  87 122 156 205 261 326 353
#
# _framework density 25.750572999999999
#
# number of rings (size 3 to 8) (size 9 to 14) (size 15 to 20)
#    0.000    2.154    1.538    1.385    0.000    6.154 
#    8.308    1.538    3.385    1.846    0.000    0.000 
#    0.000    0.000    0.000    0.000    0.000    0.000 
#
# Total GULP energy -145270.056992 kJ/mol
# GULP energy per Si atom -5587.309884 kJ/mol
# Density = 2.569196 g / cm^3
# Si number density = 25.750573 Si / 1000 Ang^3
#
#
#
# Elastic Constant Matrix: (Units=GPa)
#
#
# Indices 1 2 3 4 5 6 
#
# 1 123.9509 44.4686 13.0254 0.0000 0.0000 0.0000
# 2 44.4686 185.0960 -3.3672 0.0000 0.0000 0.0000
# 3 13.0254 -3.3672 67.4604 0.0000 0.0000 0.0000
# 4 0.0000 0.0000 0.0000 23.9938 0.0000 0.0000
# 5 0.0000 0.0000 0.0000 0.0000 67.9919 0.0000
# 6 0.0000 0.0000 0.0000 0.0000 0.0000 34.1604
#
#
#
# Elastic Compliance Matrix: (Units=1/GPa)
#
#
# Indices 1 2 3 4 5 6 
#
# 1 0.009056 -0.002209 -0.001859 0.000000 0.000000 0.000000
# 2 -0.002209 0.005947 0.000723 0.000000 0.000000 0.000000
# 3 -0.001859 0.000723 0.015219 0.000000 0.000000 0.000000
# 4 0.000000 0.000000 0.000000 0.041677 0.000000 0.000000
# 5 0.000000 0.000000 0.000000 0.000000 0.014708 0.000000
# 6 0.000000 0.000000 0.000000 0.000000 0.000000 0.029274
#
#
# Mechanical properties :
#
#
# Convention : Reuss Voigt Hill
#
# Bulk Modulus (GPa) = 42.49673 53.86234 48.17954
# Shear Modulus (GPa) = 38.33979 46.72125 42.53052
#
# Velocity S-wave (km/s) = 3.86280 4.26417 4.06844
# Velocity P-wave (km/s) = 6.03606 6.72358 6.38908
#
# Compressibility (1/GPa) = 0.02353122
#
# Stress axis : x y z
#
# Youngs Moduli (GPa) = 110.42783 168.16437 65.70945
#
# Poissons Ratio (x) = 0.37154 0.12214
# Poissons Ratio (y) = 0.24398 -0.04753
# Poissons Ratio (z) = 0.20526 -0.12165
#
# Static dielectric constant tensor:
#      x y z
#    x 2.116850 0.000000 0.000000 
#    y 0.000000 2.057950 0.000000 
#    z 0.000000 0.000000 2.044790 
# 
# From -- ./inp_files/37247.got.cif
#   From: 2010.05.17/outbox.cif.g08.bks.cpg/sg22_19_cif.got.tgz:37247.got - 2010.06.03 23:40:54.
