data_PCOD9326608
_publ_section_title
;
Structure prediction by ZEFSAII (Michael W. Deem and Ramdas Pophale) SiO2 
 PCOD9326608
Probable space group: F 2 2 2
;
_chemical_formula_sum "Si O2"
_cell_formula_units_Z 112
_cell_length_a 25.682018
_cell_length_b 16.562990
_cell_length_c 12.686365
_cell_angle_alpha 90.000000
_cell_angle_beta 90.000000
_cell_angle_gamma 90.000000
_cell_volume 5396.411859
_symmetry_space_group_name_H-M "F 2 2 2"
_symmetry_group_IT_number 22
_symmetry_cell_setting 'orthorhombic'
loop_
_space_group_symop_operation_xyz
x,y,z
-x,-y,z
x,-y,-z
-x,y,-z
x,1/2+y,1/2+z
-x,1/2-y,1/2+z
x,1/2-y,1/2-z
-x,1/2+y,1/2-z
1/2+x,y,1/2+z
1/2-x,-y,1/2+z
1/2+x,-y,1/2-z
1/2-x,y,1/2-z
1/2+x,1/2+y,z
1/2-x,1/2-y,z
1/2+x,1/2-y,-z
1/2-x,1/2+y,-z
loop_
_atom_site_type_symbol
_atom_site_label
_atom_site_fract_x
_atom_site_fract_y
_atom_site_fract_z
Si Si1 0.417648 0.329779 0.535608
Si Si2 0.521955 0.589596 0.722068
Si Si3 0.584416 0.658576 0.283636
Si Si4 0.694999 0.344558 0.716562
Si Si5 0.894506 0.317363 0.343635
Si Si6 0.313546 0.907558 0.014908
Si Si7 0.772510 0.664550 0.632546
O O1 0.459298 0.374149 0.609688
O O2 0.420829 0.348676 0.411229
O O3 0.418092 0.234112 0.559056
O O4 0.360936 0.362920 0.573493
O O5 0.500000 0.500000 0.708255
O O6 0.470290 0.633349 0.763566
O O7 0.569320 0.609987 0.801738
O O8 0.591136 0.750000 0.250000
O O9 0.639241 0.618599 0.247897
O O10 0.696476 0.250000 0.750000
O O11 0.750000 0.381938 0.750000
O O12 0.692810 0.357343 0.592032
O O13 0.895179 0.250000 0.250000
O O14 0.834631 0.338821 0.367334
O O15 0.258137 0.904340 0.071178
O O16 0.329612 0.000000 0.000000
O O17 0.750000 0.661062 0.750000
O O18 0.750000 0.750000 0.588728
#
# Coordination Sequence:
#
# PCOD9326608 Si02
#       7
#    16  16  16  16  16  16  16
#     4  10  21  37  65  88 122 164 209 263 323 389
#     4  11  24  38  59  90 125 160 203 269 327 381
#     4  10  21  38  60  89 117 159 212 257 304 373
#     4   9  21  39  61  88 120 170 211 252 319 398
#     4  10  19  38  62  91 117 162 218 258 308 398
#     4  11  24  37  59  99 136 160 213 282 333 395
#     4  11  19  36  64  92 124 167 212 261 325 391
#
# _framework density 20.754532000000001
#
# number of rings (size 3 to 8) (size 9 to 14) (size 15 to 20)
#    0.000    1.714    2.857    2.571    6.000    2.286 
#    2.571    0.000    0.000    0.857    0.000    0.000 
#    0.000    0.000    0.000    0.000    0.000    0.000 
#
# Total GULP energy -155995.995171 kJ/mol
# GULP energy per Si atom -5571.285542 kJ/mol
# Density = 2.070729 g / cm^3
# Si number density = 20.754532 Si / 1000 Ang^3
#
#
#
# Elastic Constant Matrix: (Units=GPa)
#
#
# Indices 1 2 3 4 5 6 
#
# 1 194.7690 29.2648 21.2409 0.0000 0.0000 0.0000
# 2 29.2648 58.6005 23.9383 0.0000 0.0000 0.0000
# 3 21.2409 23.9383 22.1609 0.0000 0.0000 0.0000
# 4 0.0000 0.0000 0.0000 11.6039 0.0000 0.0000
# 5 0.0000 0.0000 0.0000 0.0000 32.5163 0.0000
# 6 0.0000 0.0000 0.0000 0.0000 0.0000 7.7985
#
#
#
# Elastic Compliance Matrix: (Units=1/GPa)
#
#
# Indices 1 2 3 4 5 6 
#
# 1 0.005774 -0.001115 -0.004330 0.000000 0.000000 0.000000
# 2 -0.001115 0.030757 -0.032155 0.000000 0.000000 0.000000
# 3 -0.004330 -0.032155 0.084009 0.000000 0.000000 0.000000
# 4 0.000000 0.000000 0.000000 0.086178 0.000000 0.000000
# 5 0.000000 0.000000 0.000000 0.000000 0.030754 0.000000
# 6 0.000000 0.000000 0.000000 0.000000 0.000000 0.128229
#
#
# Mechanical properties :
#
#
# Convention : Reuss Voigt Hill
#
# Bulk Modulus (GPa) = 22.05573 47.15760 34.60666
# Shear Modulus (GPa) = 10.96457 23.78951 17.37704
#
# Velocity S-wave (km/s) = 2.30097 3.38928 2.89669
# Velocity P-wave (km/s) = 4.20824 6.17148 5.28188
#
# Compressibility (1/GPa) = 0.04533970
#
# Stress axis : x y z
#
# Youngs Moduli (GPa) = 173.18988 32.51322 11.90346
#
# Poissons Ratio (x) = 0.03624 0.05155
# Poissons Ratio (y) = 0.19303 0.38276
# Poissons Ratio (z) = 0.74998 1.04547
#
# Static dielectric constant tensor:
#      x y z
#    x 1.878640 0.000000 0.000000 
#    y 0.000000 1.740210 0.000000 
#    z 0.000000 0.000000 1.794030 
# 
# From -- ./inp_files/32518.got.cif
#   From: 2010.05.17/outbox.cif.g08.bks.cpg/sg22_17_cif.got.tgz:32518.got - 2010.06.03 23:40:54.
