data_PCOD9326466
_publ_section_title
;
Structure prediction by ZEFSAII (Michael W. Deem and Ramdas Pophale) SiO2 
 PCOD9326466
Probable space group: F 2 2 2
;
_chemical_formula_sum "Si O2"
_cell_formula_units_Z 96
_cell_length_a 16.947535
_cell_length_b 10.653061
_cell_length_c 27.976984
_cell_angle_alpha 90.000000
_cell_angle_beta 90.000000
_cell_angle_gamma 90.000000
_cell_volume 5051.052096
_symmetry_space_group_name_H-M "F 2 2 2"
_symmetry_group_IT_number 22
_symmetry_cell_setting 'orthorhombic'
loop_
_space_group_symop_operation_xyz
x,y,z
-x,-y,z
x,-y,-z
-x,y,-z
x,1/2+y,1/2+z
-x,1/2-y,1/2+z
x,1/2-y,1/2-z
-x,1/2+y,1/2-z
1/2+x,y,1/2+z
1/2-x,-y,1/2+z
1/2+x,-y,1/2-z
1/2-x,y,1/2-z
1/2+x,1/2+y,z
1/2-x,1/2-y,z
1/2+x,1/2-y,-z
1/2-x,1/2+y,-z
loop_
_atom_site_type_symbol
_atom_site_label
_atom_site_fract_x
_atom_site_fract_y
_atom_site_fract_z
Si Si1 0.660616 0.118081 0.535098
Si Si2 0.520722 0.643868 0.109609
Si Si3 0.388583 0.242942 0.303362
Si Si4 0.132917 0.248257 0.941994
Si Si5 0.762663 0.450669 0.093117
Si Si6 0.753890 0.453789 0.803278
O O1 0.595983 0.132613 0.575515
O O2 0.651418 0.232721 0.498355
O O3 0.642162 0.000000 0.500000
O O4 0.739550 0.076958 0.563800
O O5 0.500000 0.500000 0.123712
O O6 0.546913 0.724250 0.155640
O O7 0.451497 0.705990 0.077981
O O8 0.423468 0.250000 0.250000
O O9 0.326462 0.127592 0.307288
O O10 0.329557 0.361454 0.306591
O O11 0.157871 0.386248 0.925291
O O12 0.193593 0.147916 0.919204
O O13 0.760983 0.464236 0.149733
O O14 0.750000 0.511315 0.750000
#
# Coordination Sequence:
#
# PCOD9326466 Si02
#       6
#    16  16  16  16  16  16
#     4  10  19  35  57  83 110 153 198 236 289 352
#     4  12  19  35  60  86 116 154 197 240 297 352
#     4   9  19  35  57  89 113 146 201 247 286 349
#     4  10  22  34  54  85 124 141 192 254 285 353
#     4  10  19  38  54  85 113 148 194 245 299 333
#     4   9  17  36  61  83 113 151 199 247 288 350
#
# _framework density 19.005941
#
# number of rings (size 3 to 8) (size 9 to 14) (size 15 to 20)
#    0.000    2.000    5.000    1.500    0.000    0.000 
#   15.000    7.500    0.000    0.000    0.000    0.000 
#    0.000    0.000    0.000    0.000    0.000    0.000 
#
# Total GULP energy -133708.503831 kJ/mol
# GULP energy per Si atom -5571.187660 kJ/mol
# Density = 1.896268 g / cm^3
# Si number density = 19.005941 Si / 1000 Ang^3
#
#
#
# Elastic Constant Matrix: (Units=GPa)
#
#
# Indices 1 2 3 4 5 6 
#
# 1 54.9334 24.8334 25.6307 0.0000 0.0000 0.0000
# 2 24.8334 30.0066 39.9685 0.0000 0.0000 0.0000
# 3 25.6307 39.9685 151.8386 0.0000 0.0000 0.0000
# 4 0.0000 0.0000 0.0000 26.7291 0.0000 0.0000
# 5 0.0000 0.0000 0.0000 0.0000 26.0703 0.0000
# 6 0.0000 0.0000 0.0000 0.0000 0.0000 19.8588
#
#
#
# Elastic Compliance Matrix: (Units=1/GPa)
#
#
# Indices 1 2 3 4 5 6 
#
# 1 0.029569 -0.027446 0.002233 0.000000 0.000000 0.000000
# 2 -0.027446 0.076796 -0.015582 0.000000 0.000000 0.000000
# 3 0.002233 -0.015582 0.010311 0.000000 0.000000 0.000000
# 4 0.000000 0.000000 0.000000 0.037412 0.000000 0.000000
# 5 0.000000 0.000000 0.000000 0.000000 0.038358 0.000000
# 6 0.000000 0.000000 0.000000 0.000000 0.000000 0.050355
#
#
# Mechanical properties :
#
#
# Convention : Reuss Voigt Hill
#
# Bulk Modulus (GPa) = 28.50170 46.40488 37.45329
# Shear Modulus (GPa) = 14.87713 24.28802 19.58258
#
# Velocity S-wave (km/s) = 2.80082 3.57868 3.21337
# Velocity P-wave (km/s) = 5.04859 6.44553 5.78935
#
# Compressibility (1/GPa) = 0.03508563
#
# Stress axis : x y z
#
# Youngs Moduli (GPa) = 33.81877 13.02159 96.98776
#
# Poissons Ratio (x) = 0.35740 -0.21661
# Poissons Ratio (y) = 0.92820 1.51125
# Poissons Ratio (z) = -0.07553 0.20290
#
# Static dielectric constant tensor:
#      x y z
#    x 1.669970 0.000000 0.000000 
#    y 0.000000 1.739470 0.000000 
#    z 0.000000 0.000000 1.684240 
# 
# From -- ./inp_files/53555.got.cif
#   From: 2010.05.17/outbox.cif.g08.bks.cpg/sg22_27_cif.got.tgz:53555.got - 2010.06.03 23:40:54.
