data_PCOD9326085
_publ_section_title
;
Structure prediction by ZEFSAII (Michael W. Deem and Ramdas Pophale) SiO2 
 PCOD9326085
Probable space group: F 2 2 2
;
_chemical_formula_sum "Si O2"
_cell_formula_units_Z 84
_cell_length_a 26.816794
_cell_length_b 5.412354
_cell_length_c 32.780815
_cell_angle_alpha 90.000000
_cell_angle_beta 90.000000
_cell_angle_gamma 90.000000
_cell_volume 4757.872470
_symmetry_space_group_name_H-M "F 2 2 2"
_symmetry_group_IT_number 22
_symmetry_cell_setting 'orthorhombic'
loop_
_space_group_symop_operation_xyz
x,y,z
-x,-y,z
x,-y,-z
-x,y,-z
x,1/2+y,1/2+z
-x,1/2-y,1/2+z
x,1/2-y,1/2-z
-x,1/2+y,1/2-z
1/2+x,y,1/2+z
1/2-x,-y,1/2+z
1/2+x,-y,1/2-z
1/2-x,y,1/2-z
1/2+x,1/2+y,z
1/2-x,1/2-y,z
1/2+x,1/2-y,-z
1/2-x,1/2+y,-z
loop_
_atom_site_type_symbol
_atom_site_label
_atom_site_fract_x
_atom_site_fract_y
_atom_site_fract_z
Si Si1 0.940034 0.997447 0.905921
Si Si2 0.763077 0.001135 0.100919
Si Si3 0.188360 0.502606 0.180657
Si Si4 0.439369 0.001008 0.046755
Si Si5 0.250000 0.750000 0.750000
Si Si6 0.642411 0.997478 0.345068
O O1 0.924837 0.250590 0.929048
O O2 0.924913 0.752082 0.930843
O O3 0.912632 0.981882 0.862689
O O4 0.000000 0.000000 0.902331
O O5 0.750000 0.250000 0.078078
O O6 0.819475 0.002298 0.116446
O O7 0.750000 0.750000 0.078775
O O8 0.727262 0.003010 0.142039
O O9 0.218791 0.429732 0.220620
O O10 0.160651 0.765746 0.180865
O O11 0.151836 0.269440 0.174484
O O12 0.500000 0.000000 0.045784
O O13 0.422016 0.000000 0.000000
#
# Coordination Sequence:
#
# PCOD9326085 Si02
#       6
#    16  16  16  16   4  16
#     4  10  19  30  49  72  99 137 170 196 241 293
#     4   8  14  27  40  60  88 117 140 189 228 290
#     4  10  20  30  48  70 100 124 155 198 252 317
#     4   9  17  30  47  71 100 128 162 208 252 291
#     4  12  20  34  52  78 104 134 144 206 280 338
#     4  10  18  32  43  68 102 130 159 199 233 295
#
# _framework density 17.654948999999998
#
# number of rings (size 3 to 8) (size 9 to 14) (size 15 to 20)
#    0.000    2.476    2.857    1.714    0.000    3.810 
#    0.000    0.000    0.000    0.000    0.000    2.667 
#    0.000  137.143    0.000    0.000    0.000    0.000 
#
# Total GULP energy -116989.166073 kJ/mol
# GULP energy per Si atom -5570.912670 kJ/mol
# Density = 1.761477 g / cm^3
# Si number density = 17.654949 Si / 1000 Ang^3
#
#
#
# Elastic Constant Matrix: (Units=GPa)
#
#
# Indices 1 2 3 4 5 6 
#
# 1 35.6342 30.0401 25.0575 -0.0201 0.0499 0.0130
# 2 30.0401 171.8373 30.2912 -0.0317 0.2182 0.0551
# 3 25.0575 30.2912 49.0370 0.0018 -0.0019 0.0007
# 4 -0.0201 -0.0317 0.0018 18.8728 0.0146 0.0295
# 5 0.0499 0.2182 -0.0019 0.0146 -38.0659 -0.1207
# 6 0.0130 0.0551 0.0007 0.0295 -0.1207 9.0637
#
#
#
# Elastic Compliance Matrix: (Units=1/GPa)
#
#
# Indices 1 2 3 4 5 6 
#
# 1 0.046630 -0.004434 -0.021089 0.000044 0.000037 -0.000038
# 2 -0.004434 0.006952 -0.002029 0.000007 0.000034 -0.000035
# 3 -0.021089 -0.002029 0.032422 -0.000029 -0.000041 0.000040
# 4 0.000044 0.000007 -0.000029 0.052987 0.000021 -0.000172
# 5 0.000037 0.000034 -0.000041 0.000021 -0.026269 -0.000350
# 6 -0.000038 -0.000035 0.000040 -0.000172 -0.000350 0.110327
#
#
# Mechanical properties :
#
#
# Convention : Reuss Voigt Hill
#
# Bulk Modulus (GPa) = 32.36085 47.47623 39.91854
# Shear Modulus (GPa) = 17.33387 9.38209 13.35798
#
# Velocity S-wave (km/s) = 3.13679 2.30774 2.75365
# Velocity P-wave (km/s) = 5.61148 5.83528 5.72447
#
# Compressibility (1/GPa) = 0.03090153
#
# Stress axis : x y z
#
# Youngs Moduli (GPa) = 21.44524 143.83870 30.84328
#
# Poissons Ratio (x) = 0.63783 0.65044
# Poissons Ratio (y) = 0.09510 0.06257
# Poissons Ratio (z) = 0.45225 0.29179
#
# Static dielectric constant tensor:
#      x y z
#    x 1.626070 0.000040 -0.000010 
#    y 0.000040 1.682190 -0.000010 
#    z -0.000010 -0.000010 1.591570 
# 
# From -- ./inp_files/4881.got.cif
#   From: 2010.05.17/outbox.cif.g08.bks.cpg/sg22_3_cif.got.tgz:4881.got - 2010.06.03 23:40:54.
