data_PCOD9326523
_publ_section_title
;
Structure prediction by ZEFSAII (Michael W. Deem and Ramdas Pophale) SiO2 
 PCOD9326523
Probable space group: F 2 2 2
;
_chemical_formula_sum "Si O2"
_cell_formula_units_Z 92
_cell_length_a 20.547990
_cell_length_b 13.851529
_cell_length_c 15.715190
_cell_angle_alpha 90.000000
_cell_angle_beta 90.000000
_cell_angle_gamma 90.000000
_cell_volume 4472.874340
_symmetry_space_group_name_H-M "F 2 2 2"
_symmetry_group_IT_number 22
_symmetry_cell_setting 'orthorhombic'
loop_
_space_group_symop_operation_xyz
x,y,z
-x,-y,z
x,-y,-z
-x,y,-z
x,1/2+y,1/2+z
-x,1/2-y,1/2+z
x,1/2-y,1/2-z
-x,1/2+y,1/2-z
1/2+x,y,1/2+z
1/2-x,-y,1/2+z
1/2+x,-y,1/2-z
1/2-x,y,1/2-z
1/2+x,1/2+y,z
1/2-x,1/2-y,z
1/2+x,1/2-y,-z
1/2-x,1/2+y,-z
loop_
_atom_site_type_symbol
_atom_site_label
_atom_site_fract_x
_atom_site_fract_y
_atom_site_fract_z
Si Si1 0.250000 0.750000 0.750000
Si Si2 0.651452 0.000000 0.500000
Si Si3 0.538270 0.910112 0.159698
Si Si4 0.313650 0.206993 0.559287
Si Si5 0.928536 0.398315 0.648269
Si Si6 0.153403 0.796655 0.616181
Si Si7 0.965461 0.766755 0.907571
O O1 0.206837 0.814510 0.687639
O O2 0.690635 0.906267 0.533644
O O3 0.607045 0.963528 0.421352
O O4 0.563203 0.931758 0.255235
O O5 0.602098 0.881395 0.108111
O O6 0.490391 0.817775 0.154664
O O7 0.500000 0.000000 0.124284
O O8 0.250000 0.250000 0.606663
O O9 0.316566 0.269117 0.472758
O O10 0.387749 0.222324 0.593040
O O11 0.886725 0.298289 0.647469
O O12 0.000134 0.366657 0.618104
O O13 0.000000 0.745188 0.000000
#
# Coordination Sequence:
#
# PCOD9326523 Si02
#       7
#     4   8  16  16  16  16  16
#     4  12  16  32  64  84 124 160 202 260 324 380
#     4  10  22  39  66 100 119 170 214 278 325 384
#     4  11  23  37  57  93 124 163 212 263 326 389
#     4  11  23  40  60  95 132 167 219 267 328 392
#     4  10  21  38  62  95 121 151 222 270 323 375
#     4  10  19  36  60  89 120 167 204 265 325 372
#     4  11  20  39  63  87 125 165 211 272 329 378
#
# _framework density 20.568429999999999
#
# number of rings (size 3 to 8) (size 9 to 14) (size 15 to 20)
#    0.000    1.391    7.826    1.565    2.435    1.043 
#    3.130    0.000    0.000    2.087    0.000    0.000 
#    0.000    0.000    0.000    0.000    0.000    0.000 
#
# Total GULP energy -128288.454011 kJ/mol
# GULP energy per Si atom -5577.758870 kJ/mol
# Density = 2.052161 g / cm^3
# Si number density = 20.568430 Si / 1000 Ang^3
#
#
#
# Elastic Constant Matrix: (Units=GPa)
#
#
# Indices 1 2 3 4 5 6 
#
# 1 132.7096 37.0859 1.5845 0.0000 0.0000 0.0000
# 2 37.0859 92.6338 9.2351 0.0000 0.0000 0.0000
# 3 1.5845 9.2351 37.7430 0.0000 0.0000 0.0000
# 4 0.0000 0.0000 0.0000 21.6935 0.0000 0.0000
# 5 0.0000 0.0000 0.0000 0.0000 26.6043 0.0000
# 6 0.0000 0.0000 0.0000 0.0000 0.0000 23.0510
#
#
#
# Elastic Compliance Matrix: (Units=1/GPa)
#
#
# Indices 1 2 3 4 5 6 
#
# 1 0.008493 -0.003449 0.000487 0.000000 0.000000 0.000000
# 2 -0.003449 0.012466 -0.002905 0.000000 0.000000 0.000000
# 3 0.000487 -0.002905 0.027185 0.000000 0.000000 0.000000
# 4 0.000000 0.000000 0.000000 0.046097 0.000000 0.000000
# 5 0.000000 0.000000 0.000000 0.000000 0.037588 0.000000
# 6 0.000000 0.000000 0.000000 0.000000 0.000000 0.043382
#
#
# Mechanical properties :
#
#
# Convention : Reuss Voigt Hill
#
# Bulk Modulus (GPa) = 27.46461 39.87750 33.67105
# Shear Modulus (GPa) = 25.11535 28.61516 26.86526
#
# Velocity S-wave (km/s) = 3.49816 3.73395 3.61798
# Velocity P-wave (km/s) = 5.44958 6.16601 5.81883
#
# Compressibility (1/GPa) = 0.03641049
#
# Stress axis : x y z
#
# Youngs Moduli (GPa) = 117.74104 80.22091 36.78443
#
# Poissons Ratio (x) = 0.27667 -0.01793
# Poissons Ratio (y) = 0.40607 0.10687
# Poissons Ratio (z) = -0.05738 0.23307
#
# Static dielectric constant tensor:
#      x y z
#    x 1.831150 0.000000 0.000000 
#    y 0.000000 1.762480 0.000000 
#    z 0.000000 0.000000 1.756940 
# 
# From -- ./inp_files/38834.got.cif
#   From: 2010.05.17/outbox.cif.g08.bks.cpg/sg22_20_cif.got.tgz:38834.got - 2010.06.03 23:40:54.
