data_PCOD9326242
_publ_section_title
;
Structure prediction by ZEFSAII (Michael W. Deem and Ramdas Pophale) SiO2 
 PCOD9326242
Probable space group: F 2 2 2
;
_chemical_formula_sum "Si O2"
_cell_formula_units_Z 72
_cell_length_a 25.292045
_cell_length_b 8.576932
_cell_length_c 14.256588
_cell_angle_alpha 90.000000
_cell_angle_beta 90.000000
_cell_angle_gamma 90.000000
_cell_volume 3092.655262
_symmetry_space_group_name_H-M "F 2 2 2"
_symmetry_group_IT_number 22
_symmetry_cell_setting 'orthorhombic'
loop_
_space_group_symop_operation_xyz
x,y,z
-x,-y,z
x,-y,-z
-x,y,-z
x,1/2+y,1/2+z
-x,1/2-y,1/2+z
x,1/2-y,1/2-z
-x,1/2+y,1/2-z
1/2+x,y,1/2+z
1/2-x,-y,1/2+z
1/2+x,-y,1/2-z
1/2-x,y,1/2-z
1/2+x,1/2+y,z
1/2-x,1/2-y,z
1/2+x,1/2-y,-z
1/2-x,1/2+y,-z
loop_
_atom_site_type_symbol
_atom_site_label
_atom_site_fract_x
_atom_site_fract_y
_atom_site_fract_z
Si Si1 0.000000 0.000000 0.744034
Si Si2 0.163159 0.179378 0.896593
Si Si3 0.735482 0.988805 0.856914
Si Si4 0.921640 0.750000 0.750000
Si Si5 0.360603 0.853614 0.933854
Si Si6 0.078584 0.750000 0.750000
O O1 0.040628 0.124230 0.697662
O O2 0.959706 0.117662 0.793745
O O3 0.207984 0.050746 0.898901
O O4 0.196683 0.336112 0.864415
O O5 0.117156 0.161586 0.820886
O O6 0.136969 0.209800 0.996270
O O7 0.750000 0.025550 0.750000
O O8 0.700947 0.116973 0.908855
O O9 0.388988 0.825969 0.835137
O O10 0.378340 0.000000 0.000000
#
# Coordination Sequence:
#
# PCOD9326242 Si02
#       6
#     8  16  16   8  16   8
#     4  10  24  42  74 100 134 180 240 314 360 414
#     4  10  19  38  65  91 135 187 223 269 343 431
#     4  10  18  37  63  96 132 183 226 266 339 417
#     4  11  20  43  70  96 136 185 238 295 364 416
#     4  10  23  43  65 101 145 183 234 290 350 423
#     4  11  24  50  71 106 140 187 242 301 374 420
#
# _framework density 23.280964999999998
#
# number of rings (size 3 to 8) (size 9 to 14) (size 15 to 20)
#    0.000    1.778    2.222    3.333    0.000    0.000 
#   20.000   12.778    0.000    0.000    0.000    0.000 
#    0.000    0.000    0.000    0.000    0.000    0.000 
#
# Total GULP energy -100413.626497 kJ/mol
# GULP energy per Si atom -5578.534805 kJ/mol
# Density = 2.322798 g / cm^3
# Si number density = 23.280965 Si / 1000 Ang^3
#
#
#
# Elastic Constant Matrix: (Units=GPa)
#
#
# Indices 1 2 3 4 5 6 
#
# 1 135.0069 47.3343 50.0227 0.0000 0.0000 0.0000
# 2 47.3343 61.2274 27.3891 0.0000 0.0000 0.0000
# 3 50.0227 27.3891 146.9917 0.0000 0.0000 0.0000
# 4 0.0000 0.0000 0.0000 27.2216 0.0000 0.0000
# 5 0.0000 0.0000 0.0000 0.0000 -0.6541 0.0000
# 6 0.0000 0.0000 0.0000 0.0000 0.0000 36.0251
#
#
#
# Elastic Compliance Matrix: (Units=1/GPa)
#
#
# Indices 1 2 3 4 5 6 
#
# 1 0.010842 -0.007343 -0.002321 0.000000 0.000000 0.000000
# 2 -0.007343 0.022791 -0.001748 0.000000 0.000000 0.000000
# 3 -0.002321 -0.001748 0.007919 0.000000 0.000000 0.000000
# 4 0.000000 0.000000 0.000000 0.036736 0.000000 0.000000
# 5 0.000000 0.000000 0.000000 0.000000 -1.528870 0.000000
# 6 0.000000 0.000000 0.000000 0.000000 0.000000 0.027758
#
#
# Mechanical properties :
#
#
# Convention : Reuss Voigt Hill
#
# Bulk Modulus (GPa) = 53.39806 65.85758 59.62782
# Shear Modulus (GPa) = -3.58743 27.08385 11.74821
#
# Velocity S-wave (km/s) = -1.24269 3.41449 2.24883
# Velocity P-wave (km/s) = 4.57462 6.62530 5.69305
#
# Compressibility (1/GPa) = 0.01872727
#
# Stress axis : x y z
#
# Youngs Moduli (GPa) = 92.23655 43.87621 126.28314
#
# Poissons Ratio (x) = 0.32219 0.29314
# Poissons Ratio (y) = 0.67731 0.22071
# Poissons Ratio (z) = 0.21410 0.07669
#
# Static dielectric constant tensor:
#      x y z
#    x 1.853270 0.000000 0.000000 
#    y 0.000000 2.018510 0.000000 
#    z 0.000000 0.000000 1.843830 
# 
# From -- ./inp_files/32963.got.cif
#   From: 2010.05.17/outbox.cif.g08.bks.cpg/sg22_17_cif.got.tgz:32963.got - 2010.06.03 23:40:54.
