data_PCOD9326860
_publ_section_title
;
Structure prediction by ZEFSAII (Michael W. Deem and Ramdas Pophale) SiO2 
 PCOD9326860
Probable space group: F 2 2 2
;
_chemical_formula_sum "Si O2"
_cell_formula_units_Z 92
_cell_length_a 19.467687
_cell_length_b 10.281563
_cell_length_c 22.683920
_cell_angle_alpha 90.000000
_cell_angle_beta 90.000000
_cell_angle_gamma 90.000000
_cell_volume 4540.373738
_symmetry_space_group_name_H-M "F 2 2 2"
_symmetry_group_IT_number 22
_symmetry_cell_setting 'orthorhombic'
loop_
_space_group_symop_operation_xyz
x,y,z
-x,-y,z
x,-y,-z
-x,y,-z
x,1/2+y,1/2+z
-x,1/2-y,1/2+z
x,1/2-y,1/2-z
-x,1/2+y,1/2-z
1/2+x,y,1/2+z
1/2-x,-y,1/2+z
1/2+x,-y,1/2-z
1/2-x,y,1/2-z
1/2+x,1/2+y,z
1/2-x,1/2-y,z
1/2+x,1/2-y,-z
1/2-x,1/2+y,-z
loop_
_atom_site_type_symbol
_atom_site_label
_atom_site_fract_x
_atom_site_fract_y
_atom_site_fract_z
Si Si1 0.154211 0.923198 0.335193
Si Si2 0.750000 0.750000 0.750000
Si Si3 0.500000 0.000000 0.356545
Si Si4 0.113434 0.399020 0.265889
Si Si5 0.792089 0.966587 0.135140
Si Si6 0.106473 0.311196 0.590432
Si Si7 0.190145 0.350534 0.482598
O O1 0.200803 0.834832 0.291606
O O2 0.112848 0.827950 0.378341
O O3 0.109481 0.012353 0.292138
O O4 0.211014 0.009507 0.369046
O O5 0.443149 0.060836 0.313652
O O6 0.537626 0.110457 0.394721
O O7 0.106972 0.250000 0.250000
O O8 0.185113 0.425383 0.299873
O O9 0.817622 0.860944 0.087599
O O10 0.832133 0.099945 0.118873
O O11 0.124513 0.311270 0.521321
O O12 0.208023 0.500000 0.500000
O O13 0.250000 0.250000 0.497982
#
# Coordination Sequence:
#
# PCOD9326860 Si02
#       7
#    16   4   8  16  16  16  16
#     4  12  20  35  65  93 128 170 211 264 328 404
#     4  12  16  32  58  88 124 148 216 250 296 404
#     4  10  24  42  61  86 122 167 230 270 302 374
#     4  11  25  38  57  90 128 171 210 260 328 387
#     4  10  20  36  57  96 129 158 200 266 333 394
#     4  10  20  39  61  89 117 166 223 268 307 374
#     4  10  21  37  62  91 132 161 210 269 333 397
#
# _framework density 20.262647999999999
#
# number of rings (size 3 to 8) (size 9 to 14) (size 15 to 20)
#    0.000    1.391    3.478    3.130    4.870    0.696 
#    0.000   10.870    0.000    0.000    0.000    0.000 
#    0.000    0.000    0.000    0.000    0.000    0.000 
#
# Total GULP energy -128463.307092 kJ/mol
# GULP energy per Si atom -5585.361178 kJ/mol
# Density = 2.021653 g / cm^3
# Si number density = 20.262648 Si / 1000 Ang^3
#
#
#
# Elastic Constant Matrix: (Units=GPa)
#
#
# Indices 1 2 3 4 5 6 
#
# 1 72.6643 29.0470 32.0651 0.0000 0.0000 0.0000
# 2 29.0470 98.7786 46.1462 0.0000 0.0000 0.0000
# 3 32.0651 46.1462 105.9079 0.0000 0.0000 0.0000
# 4 0.0000 0.0000 0.0000 24.7866 0.0000 0.0000
# 5 0.0000 0.0000 0.0000 0.0000 18.8743 0.0000
# 6 0.0000 0.0000 0.0000 0.0000 0.0000 23.6164
#
#
#
# Elastic Compliance Matrix: (Units=1/GPa)
#
#
# Indices 1 2 3 4 5 6 
#
# 1 0.016648 -0.003190 -0.003650 0.000000 0.000000 0.000000
# 2 -0.003190 0.013322 -0.004839 0.000000 0.000000 0.000000
# 3 -0.003650 -0.004839 0.012656 0.000000 0.000000 0.000000
# 4 0.000000 0.000000 0.000000 0.040344 0.000000 0.000000
# 5 0.000000 0.000000 0.000000 0.000000 0.052982 0.000000
# 6 0.000000 0.000000 0.000000 0.000000 0.000000 0.042343
#
#
# Mechanical properties :
#
#
# Convention : Reuss Voigt Hill
#
# Bulk Modulus (GPa) = 51.90192 54.65195 53.27693
# Shear Modulus (GPa) = 24.02951 24.79496 24.41224
#
# Velocity S-wave (km/s) = 3.44743 3.50191 3.47477
# Velocity P-wave (km/s) = 6.44333 6.58646 6.51529
#
# Compressibility (1/GPa) = 0.01926711
#
# Stress axis : x y z
#
# Youngs Moduli (GPa) = 60.06726 75.06176 79.01521
#
# Poissons Ratio (x) = 0.23946 0.28844
# Poissons Ratio (y) = 0.19163 0.38235
# Poissons Ratio (z) = 0.21927 0.36322
#
# Static dielectric constant tensor:
#      x y z
#    x 1.740400 0.000000 0.000000 
#    y 0.000000 1.723580 0.000000 
#    z 0.000000 0.000000 1.768040 
# 
# From -- ./inp_files/49858.got.cif
#   From: 2010.05.17/outbox.cif.g08.bks.cpg/sg22_25_cif.got.tgz:49858.got - 2010.06.03 23:40:54.
