data_PCOD9326805
_publ_section_title
;
Structure prediction by ZEFSAII (Michael W. Deem and Ramdas Pophale) SiO2 
 PCOD9326805
Probable space group: F 2 2 2
;
_chemical_formula_sum "Si O2"
_cell_formula_units_Z 64
_cell_length_a 23.140331
_cell_length_b 15.229701
_cell_length_c 9.551542
_cell_angle_alpha 90.000000
_cell_angle_beta 90.000000
_cell_angle_gamma 90.000000
_cell_volume 3366.157509
_symmetry_space_group_name_H-M "F 2 2 2"
_symmetry_group_IT_number 22
_symmetry_cell_setting 'orthorhombic'
loop_
_space_group_symop_operation_xyz
x,y,z
-x,-y,z
x,-y,-z
-x,y,-z
x,1/2+y,1/2+z
-x,1/2-y,1/2+z
x,1/2-y,1/2-z
-x,1/2+y,1/2-z
1/2+x,y,1/2+z
1/2-x,-y,1/2+z
1/2+x,-y,1/2-z
1/2-x,y,1/2-z
1/2+x,1/2+y,z
1/2-x,1/2-y,z
1/2+x,1/2-y,-z
1/2-x,1/2+y,-z
loop_
_atom_site_type_symbol
_atom_site_label
_atom_site_fract_x
_atom_site_fract_y
_atom_site_fract_z
Si Si1 0.057102 0.750000 0.750000
Si Si2 0.043751 0.393562 0.746294
Si Si3 0.345794 0.185625 0.048859
Si Si4 0.000000 0.500000 0.500000
Si Si5 0.906052 0.000000 0.500000
Si Si6 0.250000 0.750000 0.750000
Si Si7 0.641929 0.250000 0.250000
O O1 0.100098 0.759336 0.616619
O O2 0.013842 0.666567 0.759691
O O3 0.038427 0.443154 0.601742
O O4 0.098766 0.331514 0.734792
O O5 0.056203 0.460620 0.872633
O O6 0.367729 0.085035 0.040960
O O7 0.292212 0.193489 0.152741
O O8 0.328707 0.226997 0.898125
#
# Coordination Sequence:
#
# PCOD9326805 Si02
#       7
#     8  16  16   4   8   4   8
#     4  10  20  35  56  82 122 161 190 218 276 348
#     4  10  21  34  52  84 120 155 183 224 277 344
#     4  10  21  40  61  84 111 151 197 244 289 342
#     4  12  20  26  44  78 116 150 184 216 256 310
#     4  10  22  39  60  87 118 153 194 239 290 342
#     4  10  24  44  64  80 108 150 196 246 304 352
#     4   9  20  36  56  80 110 144 186 227 286 352
#
# _framework density 19.012777
#
# number of rings (size 3 to 8) (size 9 to 14) (size 15 to 20)
#    0.000    2.000    0.000    3.000    0.000   16.000 
#    0.000    5.000    0.000    3.000    0.000    0.000 
#    0.000    0.000    0.000    0.000    0.000    0.000 
#
# Total GULP energy -89220.319350 kJ/mol
# GULP energy per Si atom -5576.269959 kJ/mol
# Density = 1.896950 g / cm^3
# Si number density = 19.012777 Si / 1000 Ang^3
#
#
#
# Elastic Constant Matrix: (Units=GPa)
#
#
# Indices 1 2 3 4 5 6 
#
# 1 98.4111 46.0820 62.2745 0.0000 0.0000 0.0000
# 2 46.0820 116.2315 78.3118 0.0000 0.0000 0.0000
# 3 62.2745 78.3118 170.8144 0.0000 0.0000 0.0000
# 4 0.0000 0.0000 0.0000 32.2265 0.0000 0.0000
# 5 0.0000 0.0000 0.0000 0.0000 15.8340 0.0000
# 6 0.0000 0.0000 0.0000 0.0000 0.0000 14.2785
#
#
#
# Elastic Compliance Matrix: (Units=1/GPa)
#
#
# Indices 1 2 3 4 5 6 
#
# 1 0.013912 -0.003036 -0.003680 0.000000 0.000000 0.000000
# 2 -0.003036 0.013112 -0.004904 0.000000 0.000000 0.000000
# 3 -0.003680 -0.004904 0.009444 0.000000 0.000000 0.000000
# 4 0.000000 0.000000 0.000000 0.031030 0.000000 0.000000
# 5 0.000000 0.000000 0.000000 0.000000 0.063155 0.000000
# 6 0.000000 0.000000 0.000000 0.000000 0.000000 0.070036
#
#
# Mechanical properties :
#
#
# Convention : Reuss Voigt Hill
#
# Bulk Modulus (GPa) = 75.60297 84.31039 79.95668
# Shear Modulus (GPa) = 21.89732 25.72037 23.80884
#
# Velocity S-wave (km/s) = 3.39738 3.68202 3.54256
# Velocity P-wave (km/s) = 7.43237 7.90675 7.67323
#
# Compressibility (1/GPa) = 0.01322699
#
# Stress axis : x y z
#
# Youngs Moduli (GPa) = 71.88126 76.26875 105.88410
#
# Poissons Ratio (x) = 0.23157 0.38964
# Poissons Ratio (y) = 0.21825 0.51928
# Poissons Ratio (z) = 0.26452 0.37404
#
# Static dielectric constant tensor:
#      x y z
#    x 1.655950 0.000000 0.000000 
#    y 0.000000 1.692450 0.000000 
#    z 0.000000 0.000000 1.695080 
# 
# From -- ./inp_files/9912.got.cif
#   From: 2010.05.17/outbox.cif.g08.bks.cpg/sg22_5_cif.got.tgz:9912.got - 2010.06.03 23:40:54.
