data_PCOD9326122
_publ_section_title
;
Structure prediction by ZEFSAII (Michael W. Deem and Ramdas Pophale) SiO2 
 PCOD9326122
Probable space group: F 2 2 2
;
_chemical_formula_sum "Si O2"
_cell_formula_units_Z 112
_cell_length_a 27.953905
_cell_length_b 14.101250
_cell_length_c 14.303972
_cell_angle_alpha 90.000000
_cell_angle_beta 90.000000
_cell_angle_gamma 90.000000
_cell_volume 5638.411244
_symmetry_space_group_name_H-M "F 2 2 2"
_symmetry_group_IT_number 22
_symmetry_cell_setting 'orthorhombic'
loop_
_space_group_symop_operation_xyz
x,y,z
-x,-y,z
x,-y,-z
-x,y,-z
x,1/2+y,1/2+z
-x,1/2-y,1/2+z
x,1/2-y,1/2-z
-x,1/2+y,1/2-z
1/2+x,y,1/2+z
1/2-x,-y,1/2+z
1/2+x,-y,1/2-z
1/2-x,y,1/2-z
1/2+x,1/2+y,z
1/2-x,1/2-y,z
1/2+x,1/2-y,-z
1/2-x,1/2+y,-z
loop_
_atom_site_type_symbol
_atom_site_label
_atom_site_fract_x
_atom_site_fract_y
_atom_site_fract_z
Si Si1 0.228237 0.156440 0.552778
Si Si2 0.820915 0.365239 0.549073
Si Si3 0.363734 0.901140 0.948017
Si Si4 0.052800 0.527882 0.609071
Si Si5 0.793671 0.497931 0.806326
Si Si6 0.403696 0.266924 0.141252
Si Si7 0.351501 0.061999 0.640916
O O1 0.250000 0.250000 0.601617
O O2 0.264984 0.147647 0.466435
O O3 0.174201 0.153066 0.515604
O O4 0.230969 0.063902 0.615968
O O5 0.849036 0.296367 0.617733
O O6 0.831392 0.466341 0.593737
O O7 0.843667 0.363997 0.443496
O O8 0.406434 0.831331 0.916897
O O9 0.332506 0.931822 0.856788
O O10 0.377005 0.000000 0.000000
O O11 0.056527 0.500000 0.500000
O O12 0.065424 0.639768 0.615198
O O13 0.093343 0.464487 0.659010
O O14 0.000000 0.500000 0.641693
O O15 0.750000 0.450623 0.750000
O O16 0.822442 0.569035 0.736652
O O17 0.410845 0.250000 0.250000
#
# Coordination Sequence:
#
# PCOD9326122 Si02
#       7
#    16  16  16  16  16  16  16
#     4  11  21  34  49  74 123 170 223 264 302 362
#     4  10  18  33  53  79 119 164 202 263 312 355
#     4  10  22  35  52  81 123 174 212 258 319 380
#     4  10  20  38  69  99 122 156 209 275 344 405
#     4  11  21  33  53  82 120 172 221 256 311 378
#     4  11  21  38  63  94 123 161 216 265 325 392
#     4  10  18  34  57  84 119 158 205 264 328 375
#
# _framework density 19.863752999999999
#
# number of rings (size 3 to 8) (size 9 to 14) (size 15 to 20)
#    0.000    1.571    5.714    2.571    4.000    0.286 
#    0.000    0.714    0.000   12.000    0.000    0.000 
#    0.000    1.143    0.000    0.000    0.000    0.000 
#
# Total GULP energy -156016.680447 kJ/mol
# GULP energy per Si atom -5572.024302 kJ/mol
# Density = 1.981854 g / cm^3
# Si number density = 19.863753 Si / 1000 Ang^3
#
#
#
# Elastic Constant Matrix: (Units=GPa)
#
#
# Indices 1 2 3 4 5 6 
#
# 1 81.4706 30.1028 14.4469 0.0000 0.0000 0.0000
# 2 30.1028 108.7677 29.4218 0.0000 0.0000 0.0000
# 3 14.4469 29.4218 65.0715 0.0000 0.0000 0.0000
# 4 0.0000 0.0000 0.0000 24.7455 0.0000 0.0000
# 5 0.0000 0.0000 0.0000 0.0000 11.8072 0.0000
# 6 0.0000 0.0000 0.0000 0.0000 0.0000 19.4191
#
#
#
# Elastic Compliance Matrix: (Units=1/GPa)
#
#
# Indices 1 2 3 4 5 6 
#
# 1 0.013804 -0.003408 -0.001524 0.000000 0.000000 0.000000
# 2 -0.003408 0.011317 -0.004360 0.000000 0.000000 0.000000
# 3 -0.001524 -0.004360 0.017677 0.000000 0.000000 0.000000
# 4 0.000000 0.000000 0.000000 0.040411 0.000000 0.000000
# 5 0.000000 0.000000 0.000000 0.000000 0.084694 0.000000
# 6 0.000000 0.000000 0.000000 0.000000 0.000000 0.051496
#
#
# Mechanical properties :
#
#
# Convention : Reuss Voigt Hill
#
# Bulk Modulus (GPa) = 41.29860 44.80588 43.05224
# Shear Modulus (GPa) = 20.32075 23.28359 21.80217
#
# Velocity S-wave (km/s) = 3.20192 3.42740 3.31658
# Velocity P-wave (km/s) = 5.87416 6.18614 6.03217
#
# Compressibility (1/GPa) = 0.02421390
#
# Stress axis : x y z
#
# Youngs Moduli (GPa) = 72.44342 88.36596 56.56954
#
# Poissons Ratio (x) = 0.30117 0.08619
# Poissons Ratio (y) = 0.24690 0.24665
# Poissons Ratio (z) = 0.11038 0.38528
#
# Static dielectric constant tensor:
#      x y z
#    x 1.720480 0.000000 0.000000 
#    y 0.000000 1.824760 0.000000 
#    z 0.000000 0.000000 1.748340 
# 
# From -- ./inp_files/33597.got.cif
#   From: 2010.05.17/outbox.cif.g08.bks.cpg/sg22_17_cif.got.tgz:33597.got - 2010.06.03 23:40:54.
