data_PCOD9326670
_publ_section_title
;
Structure prediction by ZEFSAII (Michael W. Deem and Ramdas Pophale) SiO2 
 PCOD9326670
Probable space group: F 2 2 2
;
_chemical_formula_sum "Si O2"
_cell_formula_units_Z 72
_cell_length_a 26.148405
_cell_length_b 14.415321
_cell_length_c 8.605083
_cell_angle_alpha 90.000000
_cell_angle_beta 90.000000
_cell_angle_gamma 90.000000
_cell_volume 3243.579779
_symmetry_space_group_name_H-M "F 2 2 2"
_symmetry_group_IT_number 22
_symmetry_cell_setting 'orthorhombic'
loop_
_space_group_symop_operation_xyz
x,y,z
-x,-y,z
x,-y,-z
-x,y,-z
x,1/2+y,1/2+z
-x,1/2-y,1/2+z
x,1/2-y,1/2-z
-x,1/2+y,1/2-z
1/2+x,y,1/2+z
1/2-x,-y,1/2+z
1/2+x,-y,1/2-z
1/2-x,y,1/2-z
1/2+x,1/2+y,z
1/2-x,1/2-y,z
1/2+x,1/2-y,-z
1/2-x,1/2+y,-z
loop_
_atom_site_type_symbol
_atom_site_label
_atom_site_fract_x
_atom_site_fract_y
_atom_site_fract_z
Si Si1 0.351214 0.640575 0.412195
Si Si2 0.310646 0.000000 0.500000
Si Si3 0.627111 0.564678 0.273072
Si Si4 0.934019 0.750000 0.750000
Si Si5 0.511892 0.892059 0.180046
Si Si6 0.750000 0.880193 0.750000
O O1 0.372168 0.544095 0.331412
O O2 0.342480 0.617235 0.591539
O O3 0.395144 0.715776 0.382799
O O4 0.297844 0.667037 0.334255
O O5 0.346648 0.064456 0.393608
O O6 0.275674 0.056575 0.617730
O O7 0.571356 0.611047 0.277472
O O8 0.973094 0.833422 0.784418
O O9 0.500000 0.000000 0.191101
O O10 0.500000 0.864576 0.000000
#
# Coordination Sequence:
#
# PCOD9326670 Si02
#       6
#    16   8  16   8  16   8
#     4  10  20  37  66  92 132 176 237 292 347 416
#     4  10  20  36  67  98 130 181 242 294 352 424
#     4  10  19  40  63  96 131 180 231 297 346 416
#     4  12  22  37  64 102 132 187 238 282 356 422
#     4  11  20  41  68  95 135 188 229 287 352 423
#     4  10  20  37  60  94 130 177 232 291 354 416
#
# _framework density 22.197697000000002
#
# number of rings (size 3 to 8) (size 9 to 14) (size 15 to 20)
#    0.000    1.556    4.444    4.000    0.000    0.444 
#    8.000    0.556    0.000    0.000    0.000    6.222 
#    0.000    0.000    0.000    0.000    0.000    0.000 
#
# Total GULP energy -100515.809992 kJ/mol
# GULP energy per Si atom -5584.211666 kJ/mol
# Density = 2.214717 g / cm^3
# Si number density = 22.197697 Si / 1000 Ang^3
#
#
#
# Elastic Constant Matrix: (Units=GPa)
#
#
# Indices 1 2 3 4 5 6 
#
# 1 199.7491 47.1197 76.7471 0.0000 0.0000 0.0000
# 2 47.1197 54.4244 42.6011 0.0000 0.0000 0.0000
# 3 76.7471 42.6011 137.6269 0.0000 0.0000 0.0000
# 4 0.0000 0.0000 0.0000 22.1297 0.0000 0.0000
# 5 0.0000 0.0000 0.0000 0.0000 10.6614 0.0000
# 6 0.0000 0.0000 0.0000 0.0000 0.0000 4.6122
#
#
#
# Elastic Compliance Matrix: (Units=1/GPa)
#
#
# Indices 1 2 3 4 5 6 
#
# 1 0.006958 -0.003942 -0.002660 0.000000 0.000000 0.000000
# 2 -0.003942 0.026483 -0.005999 0.000000 0.000000 0.000000
# 3 -0.002660 -0.005999 0.010606 0.000000 0.000000 0.000000
# 4 0.000000 0.000000 0.000000 0.045188 0.000000 0.000000
# 5 0.000000 0.000000 0.000000 0.000000 0.093796 0.000000
# 6 0.000000 0.000000 0.000000 0.000000 0.000000 0.216818
#
#
# Mechanical properties :
#
#
# Convention : Reuss Voigt Hill
#
# Bulk Modulus (GPa) = 53.06477 80.52626 66.79552
# Shear Modulus (GPa) = 11.59193 22.50282 17.04738
#
# Velocity S-wave (km/s) = 2.28768 3.18739 2.77425
# Velocity P-wave (km/s) = 5.56196 7.06410 6.35755
#
# Compressibility (1/GPa) = 0.01884489
#
# Stress axis : x y z
#
# Youngs Moduli (GPa) = 143.71481 37.75986 94.28320
#
# Poissons Ratio (x) = 0.14886 0.25079
# Poissons Ratio (y) = 0.56655 0.56563
# Poissons Ratio (z) = 0.38227 0.22653
#
# Static dielectric constant tensor:
#      x y z
#    x 1.829160 0.000000 0.000000 
#    y 0.000000 1.860010 0.000000 
#    z 0.000000 0.000000 1.824010 
# 
# From -- ./inp_files/14530.got.cif
#   From: 2010.05.17/outbox.cif.g08.bks.cpg/sg22_8_cif.got.tgz:14530.got - 2010.06.03 23:40:54.
