data_PCOD9326714
_publ_section_title
;
Structure prediction by ZEFSAII (Michael W. Deem and Ramdas Pophale) SiO2 
 PCOD9326714
Probable space group: F 2 2 2
;
_chemical_formula_sum "Si O2"
_cell_formula_units_Z 80
_cell_length_a 25.813339
_cell_length_b 9.791436
_cell_length_c 17.377970
_cell_angle_alpha 90.000000
_cell_angle_beta 90.000000
_cell_angle_gamma 90.000000
_cell_volume 4392.275953
_symmetry_space_group_name_H-M "F 2 2 2"
_symmetry_group_IT_number 22
_symmetry_cell_setting 'orthorhombic'
loop_
_space_group_symop_operation_xyz
x,y,z
-x,-y,z
x,-y,-z
-x,y,-z
x,1/2+y,1/2+z
-x,1/2-y,1/2+z
x,1/2-y,1/2-z
-x,1/2+y,1/2-z
1/2+x,y,1/2+z
1/2-x,-y,1/2+z
1/2+x,-y,1/2-z
1/2-x,y,1/2-z
1/2+x,1/2+y,z
1/2-x,1/2-y,z
1/2+x,1/2-y,-z
1/2-x,1/2+y,-z
loop_
_atom_site_type_symbol
_atom_site_label
_atom_site_fract_x
_atom_site_fract_y
_atom_site_fract_z
Si Si1 0.866384 0.766955 0.390770
Si Si2 0.310934 0.767379 0.448544
Si Si3 0.301609 0.984362 0.656537
Si Si4 0.681764 0.028118 0.171790
Si Si5 0.038810 0.394301 0.440374
O O1 0.845299 0.768146 0.478220
O O2 0.829374 0.660079 0.347513
O O3 0.859436 0.914258 0.353108
O O4 0.923253 0.700455 0.394173
O O5 0.250000 0.750000 0.468929
O O6 0.317465 0.918511 0.413959
O O7 0.322811 0.662208 0.379756
O O8 0.317422 0.053681 0.737177
O O9 0.239584 0.970049 0.654384
O O10 0.067477 0.500000 0.500000
O O11 0.000000 0.500000 0.396581
O O12 0.000000 0.317394 0.500000
#
# Coordination Sequence:
#
# PCOD9326714 Si02
#       5
#    16  16  16  16  16
#     4  12  18  30  56  83  96 133 182 244 263 288
#     4  10  20  32  49  75 112 151 183 207 247 321
#     4  10  20  33  50  73 115 159 179 192 257 336
#     4  10  21  33  45  79 123 146 168 214 261 323
#     4   6  16  32  49  75  97 126 179 220 267 337
#
# _framework density 18.213791000000001
#
# number of rings (size 3 to 8) (size 9 to 14) (size 15 to 20)
#    1.200    1.200    0.000    5.400    0.000    7.200 
#    0.000    0.000    0.000    2.400   10.400    0.000 
#    0.000    0.000    0.000    0.000    0.000    0.000 
#
# Total GULP energy -111369.446888 kJ/mol
# GULP energy per Si atom -5568.472344 kJ/mol
# Density = 1.817234 g / cm^3
# Si number density = 18.213791 Si / 1000 Ang^3
#
#
#
# Elastic Constant Matrix: (Units=GPa)
#
#
# Indices 1 2 3 4 5 6 
#
# 1 52.2682 20.6062 12.3408 0.0000 0.0000 0.0000
# 2 20.6062 45.9867 -2.6228 0.0000 0.0000 0.0000
# 3 12.3408 -2.6228 58.1927 0.0000 0.0000 0.0000
# 4 0.0000 0.0000 0.0000 29.2210 0.0000 0.0000
# 5 0.0000 0.0000 0.0000 0.0000 79.0049 0.0000
# 6 0.0000 0.0000 0.0000 0.0000 0.0000 23.7387
#
#
#
# Elastic Compliance Matrix: (Units=1/GPa)
#
#
# Indices 1 2 3 4 5 6 
#
# 1 0.025071 -0.011567 -0.005838 0.000000 0.000000 0.000000
# 2 -0.011567 0.027138 0.003676 0.000000 0.000000 0.000000
# 3 -0.005838 0.003676 0.018588 0.000000 0.000000 0.000000
# 4 0.000000 0.000000 0.000000 0.034222 0.000000 0.000000
# 5 0.000000 0.000000 0.000000 0.000000 0.012657 0.000000
# 6 0.000000 0.000000 0.000000 0.000000 0.000000 0.042125
#
#
# Mechanical properties :
#
#
# Convention : Reuss Voigt Hill
#
# Bulk Modulus (GPa) = 23.07380 24.12177 23.59779
# Shear Modulus (GPa) = 24.78867 34.80117 29.79492
#
# Velocity S-wave (km/s) = 3.69315 4.37590 4.04894
# Velocity P-wave (km/s) = 5.55713 6.22927 5.90277
#
# Compressibility (1/GPa) = 0.04333919
#
# Stress axis : x y z
#
# Youngs Moduli (GPa) = 39.88744 36.84867 53.79809
#
# Poissons Ratio (x) = 0.42622 0.31407
# Poissons Ratio (y) = 0.46137 -0.19777
# Poissons Ratio (z) = 0.23286 -0.13546
#
# Static dielectric constant tensor:
#      x y z
#    x 1.633160 0.000000 0.000000 
#    y 0.000000 1.610810 0.000000 
#    z 0.000000 0.000000 1.645650 
# 
# From -- ./inp_files/40276.got.cif
#   From: 2010.05.17/outbox.cif.g08.bks.cpg/sg22_21_cif.got.tgz:40276.got - 2010.06.03 23:40:54.
