data_PCOD9326746
_publ_section_title
;
Structure prediction by ZEFSAII (Michael W. Deem and Ramdas Pophale) SiO2 
 PCOD9326746
Probable space group: F 2 2 2
;
_chemical_formula_sum "Si O2"
_cell_formula_units_Z 104
_cell_length_a 32.792963
_cell_length_b 8.462509
_cell_length_c 19.103241
_cell_angle_alpha 90.000000
_cell_angle_beta 90.000000
_cell_angle_gamma 90.000000
_cell_volume 5301.354633
_symmetry_space_group_name_H-M "F 2 2 2"
_symmetry_group_IT_number 22
_symmetry_cell_setting 'orthorhombic'
loop_
_space_group_symop_operation_xyz
x,y,z
-x,-y,z
x,-y,-z
-x,y,-z
x,1/2+y,1/2+z
-x,1/2-y,1/2+z
x,1/2-y,1/2-z
-x,1/2+y,1/2-z
1/2+x,y,1/2+z
1/2-x,-y,1/2+z
1/2+x,-y,1/2-z
1/2-x,y,1/2-z
1/2+x,1/2+y,z
1/2-x,1/2-y,z
1/2+x,1/2-y,-z
1/2-x,1/2+y,-z
loop_
_atom_site_type_symbol
_atom_site_label
_atom_site_fract_x
_atom_site_fract_y
_atom_site_fract_z
Si Si1 0.533076 0.621794 0.689775
Si Si2 0.205916 0.183346 0.474018
Si Si3 0.676649 0.830508 0.178957
Si Si4 0.384374 0.927943 0.229839
Si Si5 0.397321 0.890533 0.629375
Si Si6 0.986681 0.324815 0.580403
Si Si7 0.848931 0.000000 0.000000
O O1 0.500000 0.500000 0.717708
O O2 0.538728 0.750000 0.750000
O O3 0.578342 0.558916 0.675239
O O4 0.512140 0.698667 0.623265
O O5 0.250000 0.250000 0.496392
O O6 0.204504 0.168176 0.389258
O O7 0.176051 0.332011 0.495786
O O8 0.198106 0.000000 0.500000
O O9 0.693243 0.750000 0.250000
O O10 0.636546 0.735305 0.152958
O O11 0.657014 0.994720 0.202857
O O12 0.375269 0.750000 0.250000
O O13 0.402680 0.012504 0.299070
O O14 0.438779 0.817303 0.598805
O O15 0.377179 0.997616 0.568943
O O16 0.000000 0.500000 0.603098
O O17 0.000000 0.310051 0.500000
#
# Coordination Sequence:
#
# PCOD9326746 Si02
#       7
#    16  16  16  16  16  16   8
#     4  11  21  34  53  77 109 154 203 259 314 368
#     4  11  23  42  69 100 133 168 207 257 320 402
#     4   9  21  41  61  89 122 165 210 258 319 383
#     4  10  20  33  55  84 114 152 206 264 304 368
#     4  10  20  37  58  80 118 164 208 257 318 374
#     4  11  22  36  53  79 114 159 207 259 316 375
#     4  10  22  40  65  94 126 172 204 262 317 384
#
# _framework density 19.617629000000001
#
# number of rings (size 3 to 8) (size 9 to 14) (size 15 to 20)
#    0.000    1.692    0.769    5.077    2.154    1.846 
#    2.769    0.000    0.000    0.000    0.000    0.000 
#    0.000    0.000    0.000    0.000    0.000    0.000 
#
# Total GULP energy -144903.352408 kJ/mol
# GULP energy per Si atom -5573.205862 kJ/mol
# Density = 1.957298 g / cm^3
# Si number density = 19.617629 Si / 1000 Ang^3
#
#
#
# Elastic Constant Matrix: (Units=GPa)
#
#
# Indices 1 2 3 4 5 6 
#
# 1 48.5294 17.2403 22.9783 0.0000 0.0000 0.0000
# 2 17.2403 88.6309 24.9373 0.0000 0.0000 0.0000
# 3 22.9783 24.9373 90.1175 0.0000 0.0000 0.0000
# 4 0.0000 0.0000 0.0000 20.5614 0.0000 0.0000
# 5 0.0000 0.0000 0.0000 0.0000 20.9880 0.0000
# 6 0.0000 0.0000 0.0000 0.0000 0.0000 9.7017
#
#
#
# Elastic Compliance Matrix: (Units=1/GPa)
#
#
# Indices 1 2 3 4 5 6 
#
# 1 0.024259 -0.003230 -0.005292 0.000000 0.000000 0.000000
# 2 -0.003230 0.012665 -0.002681 0.000000 0.000000 0.000000
# 3 -0.005292 -0.002681 0.013188 0.000000 0.000000 0.000000
# 4 0.000000 0.000000 0.000000 0.048635 0.000000 0.000000
# 5 0.000000 0.000000 0.000000 0.000000 0.047646 0.000000
# 6 0.000000 0.000000 0.000000 0.000000 0.000000 0.103075
#
#
# Mechanical properties :
#
#
# Convention : Reuss Voigt Hill
#
# Bulk Modulus (GPa) = 36.09260 39.73218 37.91239
# Shear Modulus (GPa) = 17.78663 21.05835 19.42249
#
# Velocity S-wave (km/s) = 3.01436 3.27989 3.14992
# Velocity P-wave (km/s) = 5.52749 5.88565 5.70938
#
# Compressibility (1/GPa) = 0.02770651
#
# Stress axis : x y z
#
# Youngs Moduli (GPa) = 41.22152 78.95519 75.82710
#
# Poissons Ratio (x) = 0.25502 0.40127
# Poissons Ratio (y) = 0.13314 0.20331
# Poissons Ratio (z) = 0.21814 0.21169
#
# Static dielectric constant tensor:
#      x y z
#    x 1.721780 0.000000 0.000000 
#    y 0.000000 1.739370 0.000000 
#    z 0.000000 0.000000 1.756720 
# 
# From -- ./inp_files/46036.got.cif
#   From: 2010.05.17/outbox.cif.g08.bks.cpg/sg22_24_cif.got.tgz:46036.got - 2010.06.03 23:40:54.
