data_PCOD9326077
_publ_section_title
;
Structure prediction by ZEFSAII (Michael W. Deem and Ramdas Pophale) SiO2 
 PCOD9326077
Probable space group: F 2 2 2
;
_chemical_formula_sum "Si O2"
_cell_formula_units_Z 64
_cell_length_a 4.979585
_cell_length_b 25.026447
_cell_length_c 23.678021
_cell_angle_alpha 90.000000
_cell_angle_beta 90.000000
_cell_angle_gamma 90.000000
_cell_volume 2950.786234
_symmetry_space_group_name_H-M "F 2 2 2"
_symmetry_group_IT_number 22
_symmetry_cell_setting 'orthorhombic'
loop_
_space_group_symop_operation_xyz
x,y,z
-x,-y,z
x,-y,-z
-x,y,-z
x,1/2+y,1/2+z
-x,1/2-y,1/2+z
x,1/2-y,1/2-z
-x,1/2+y,1/2-z
1/2+x,y,1/2+z
1/2-x,-y,1/2+z
1/2+x,-y,1/2-z
1/2-x,y,1/2-z
1/2+x,1/2+y,z
1/2-x,1/2-y,z
1/2+x,1/2-y,-z
1/2-x,1/2+y,-z
loop_
_atom_site_type_symbol
_atom_site_label
_atom_site_fract_x
_atom_site_fract_y
_atom_site_fract_z
Si Si1 0.700177 0.932186 0.591974
Si Si2 0.000000 0.500000 0.315367
Si Si3 0.750000 0.750000 0.337022
Si Si4 0.500000 0.000000 0.000000
Si Si5 0.817955 0.865069 0.372091
Si Si6 0.250000 0.750000 0.250000
Si Si7 0.250000 0.907852 0.750000
O O1 0.719194 0.977543 0.640894
O O2 0.800643 0.962827 0.536733
O O3 0.410033 0.904033 0.601070
O O4 0.906080 0.884949 0.602716
O O5 0.959160 0.550539 0.275745
O O6 0.779315 0.802313 0.375782
O O7 0.486249 0.762341 0.297866
O O8 0.837808 0.874436 0.303898
#
# Coordination Sequence:
#
# PCOD9326077 Si02
#       7
#    16   8   8   4  16   4   8
#     4  11  25  40  64  95 123 164 219 269 345 396
#     4  10  20  36  58  94 132 170 208 260 324 400
#     4  11  22  40  62  90 141 176 227 280 306 375
#     4  12  24  48  72  94 128 160 216 302 336 406
#     4  11  24  39  60  96 130 174 217 258 321 394
#     4  10  20  34  62  94 122 190 228 250 316 358
#     4  10  18  31  55  82 130 167 199 242 296 376
#
# _framework density 21.689133999999999
#
# number of rings (size 3 to 8) (size 9 to 14) (size 15 to 20)
#    0.000    1.250    0.000    7.500    0.000    9.500 
#    0.000    0.000    0.000    3.000    0.000    0.000 
#    0.000    0.000    0.000    0.000    0.000    0.000 
#
# Total GULP energy -89068.785042 kJ/mol
# GULP energy per Si atom -5566.799065 kJ/mol
# Density = 2.163977 g / cm^3
# Si number density = 21.689134 Si / 1000 Ang^3
#
#
#
# Elastic Constant Matrix: (Units=GPa)
#
#
# Indices 1 2 3 4 5 6 
#
# 1 82.1721 7.4552 6.8048 0.0000 0.0000 0.0000
# 2 7.4552 140.4327 27.5717 0.0000 0.0000 0.0000
# 3 6.8048 27.5717 87.0860 0.0000 0.0000 0.0000
# 4 0.0000 0.0000 0.0000 14.3655 0.0000 0.0000
# 5 0.0000 0.0000 0.0000 0.0000 46.9619 0.0000
# 6 0.0000 0.0000 0.0000 0.0000 0.0000 16.6164
#
#
#
# Elastic Compliance Matrix: (Units=1/GPa)
#
#
# Indices 1 2 3 4 5 6 
#
# 1 0.012281 -0.000494 -0.000803 0.000000 0.000000 0.000000
# 2 -0.000494 0.007613 -0.002372 0.000000 0.000000 0.000000
# 3 -0.000803 -0.002372 0.012297 0.000000 0.000000 0.000000
# 4 0.000000 0.000000 0.000000 0.069611 0.000000 0.000000
# 5 0.000000 0.000000 0.000000 0.000000 0.021294 0.000000
# 6 0.000000 0.000000 0.000000 0.000000 0.000000 0.060182
#
#
# Mechanical properties :
#
#
# Convention : Reuss Voigt Hill
#
# Bulk Modulus (GPa) = 40.23794 43.70602 41.97198
# Shear Modulus (GPa) = 25.13839 33.44603 29.29221
#
# Velocity S-wave (km/s) = 3.40815 3.93117 3.67897
# Velocity P-wave (km/s) = 5.83778 6.38752 6.11883
#
# Compressibility (1/GPa) = 0.02485216
#
# Stress axis : x y z
#
# Youngs Moduli (GPa) = 81.42705 131.35923 81.32389
#
# Poissons Ratio (x) = 0.06493 0.06531
# Poissons Ratio (y) = 0.04025 0.19287
# Poissons Ratio (z) = 0.06540 0.31153
#
# Static dielectric constant tensor:
#      x y z
#    x 1.780480 0.000000 0.000000 
#    y 0.000000 1.816900 0.000000 
#    z 0.000000 0.000000 2.035260 
# 
# From -- ./inp_files/51196.got.cif
#   From: 2010.05.17/outbox.cif.g08.bks.cpg/sg22_26_cif.got.tgz:51196.got - 2010.06.03 23:40:54.
