data_PCOD9326923
_publ_section_title
;
Structure prediction by ZEFSAII (Michael W. Deem and Ramdas Pophale) SiO2 
 PCOD9326923
Probable space group: F 2 2 2
;
_chemical_formula_sum "Si O2"
_cell_formula_units_Z 72
_cell_length_a 15.631659
_cell_length_b 7.704956
_cell_length_c 29.381029
_cell_angle_alpha 90.000000
_cell_angle_beta 90.000000
_cell_angle_gamma 90.000000
_cell_volume 3538.687706
_symmetry_space_group_name_H-M "F 2 2 2"
_symmetry_group_IT_number 22
_symmetry_cell_setting 'orthorhombic'
loop_
_space_group_symop_operation_xyz
x,y,z
-x,-y,z
x,-y,-z
-x,y,-z
x,1/2+y,1/2+z
-x,1/2-y,1/2+z
x,1/2-y,1/2-z
-x,1/2+y,1/2-z
1/2+x,y,1/2+z
1/2-x,-y,1/2+z
1/2+x,-y,1/2-z
1/2-x,y,1/2-z
1/2+x,1/2+y,z
1/2-x,1/2-y,z
1/2+x,1/2-y,-z
1/2-x,1/2+y,-z
loop_
_atom_site_type_symbol
_atom_site_label
_atom_site_fract_x
_atom_site_fract_y
_atom_site_fract_z
Si Si1 0.000000 0.000000 0.686897
Si Si2 0.650828 0.013269 0.118654
Si Si3 0.903896 0.294519 0.552106
Si Si4 0.250000 0.750000 0.678751
Si Si5 0.608203 0.250000 0.750000
Si Si6 0.111431 0.190279 0.947086
O O1 0.953063 0.129961 0.720629
O O2 0.074160 0.065558 0.653102
O O3 0.659532 0.178919 0.086130
O O4 0.625046 0.856391 0.085088
O O5 0.721256 0.916884 0.149452
O O6 0.872670 0.268111 0.500237
O O7 0.871838 0.488347 0.563901
O O8 0.007521 0.292601 0.555161
O O9 0.326576 0.816879 0.711229
#
# Coordination Sequence:
#
# PCOD9326923 Si02
#       6
#     8  16  16   8   8  16
#     4  10  20  36  65  88 106 148 213 240 314 364
#     4  11  18  35  58  91 114 168 201 246 290 380
#     4   9  17  30  54  91 128 161 201 260 288 338
#     4   9  22  38  62  82 134 158 188 248 342 359
#     4   9  20  44  62  89 118 154 188 267 318 386
#     4   9  17  30  54  91 130 159 203 252 301 329
#
# _framework density 20.346526000000001
#
# number of rings (size 3 to 8) (size 9 to 14) (size 15 to 20)
#    0.000    2.444    2.222    2.000    0.000    1.778 
#    8.000    1.111   14.667    1.333    0.000    0.000 
#    0.000    0.000    0.000    0.000    0.000    0.000 
#
# Total GULP energy -100334.964523 kJ/mol
# GULP energy per Si atom -5574.164696 kJ/mol
# Density = 2.030022 g / cm^3
# Si number density = 20.346526 Si / 1000 Ang^3
#
#
#
# Elastic Constant Matrix: (Units=GPa)
#
#
# Indices 1 2 3 4 5 6 
#
# 1 82.1707 57.3821 65.0942 0.0000 0.0000 0.0000
# 2 57.3821 112.5359 99.7251 0.0000 0.0000 0.0000
# 3 65.0942 99.7251 146.7758 0.0000 0.0000 0.0000
# 4 0.0000 0.0000 0.0000 -224.3261 0.0000 0.0000
# 5 0.0000 0.0000 0.0000 0.0000 15.8983 0.0000
# 6 0.0000 0.0000 0.0000 0.0000 0.0000 18.8023
#
#
#
# Elastic Compliance Matrix: (Units=1/GPa)
#
#
# Indices 1 2 3 4 5 6 
#
# 1 0.020228 -0.005942 -0.004933 0.000000 0.000000 0.000000
# 2 -0.005942 0.024078 -0.013724 0.000000 0.000000 0.000000
# 3 -0.004933 -0.013724 0.018326 0.000000 0.000000 0.000000
# 4 0.000000 0.000000 0.000000 -0.004458 0.000000 0.000000
# 5 0.000000 0.000000 0.000000 0.000000 0.062900 0.000000
# 6 0.000000 0.000000 0.000000 0.000000 0.000000 0.053185
#
#
# Mechanical properties :
#
#
# Convention : Reuss Voigt Hill
#
# Bulk Modulus (GPa) = 74.45090 87.32055 80.88573
# Shear Modulus (GPa) = 21.93613 -29.97306 -4.01846
#
# Velocity S-wave (km/s) = 3.28705 -3.84230 -1.40688
# Velocity P-wave (km/s) = 7.14683 4.82965 6.09929
#
# Compressibility (1/GPa) = 0.01343167
#
# Stress axis : x y z
#
# Youngs Moduli (GPa) = 49.43741 41.53233 54.56838
#
# Poissons Ratio (x) = 0.24679 0.26921
# Poissons Ratio (y) = 0.29377 0.74889
# Poissons Ratio (z) = 0.24390 0.56999
#
# Static dielectric constant tensor:
#      x y z
#    x 2.204490 0.000000 0.000000 
#    y 0.000000 1.691440 0.000000 
#    z 0.000000 0.000000 1.737520 
# 
# From -- ./inp_files/49290.got.cif
#   From: 2010.05.17/outbox.cif.g08.bks.cpg/sg22_25_cif.got.tgz:49290.got - 2010.06.03 23:40:54.
