data_PCOD9326853
_publ_section_title
;
Structure prediction by ZEFSAII (Michael W. Deem and Ramdas Pophale) SiO2 
 PCOD9326853
Probable space group: F 2 2 2
;
_chemical_formula_sum "Si O2"
_cell_formula_units_Z 120
_cell_length_a 22.325051
_cell_length_b 21.935002
_cell_length_c 11.659642
_cell_angle_alpha 90.000000
_cell_angle_beta 90.000000
_cell_angle_gamma 90.000000
_cell_volume 5709.727134
_symmetry_space_group_name_H-M "F 2 2 2"
_symmetry_group_IT_number 22
_symmetry_cell_setting 'orthorhombic'
loop_
_space_group_symop_operation_xyz
x,y,z
-x,-y,z
x,-y,-z
-x,y,-z
x,1/2+y,1/2+z
-x,1/2-y,1/2+z
x,1/2-y,1/2-z
-x,1/2+y,1/2-z
1/2+x,y,1/2+z
1/2-x,-y,1/2+z
1/2+x,-y,1/2-z
1/2-x,y,1/2-z
1/2+x,1/2+y,z
1/2-x,1/2-y,z
1/2+x,1/2-y,-z
1/2-x,1/2+y,-z
loop_
_atom_site_type_symbol
_atom_site_label
_atom_site_fract_x
_atom_site_fract_y
_atom_site_fract_z
Si Si1 0.812805 0.284530 0.567897
Si Si2 0.684778 0.091633 0.708655
Si Si3 0.878305 0.169244 0.600644
Si Si4 0.500000 0.632325 0.500000
Si Si5 0.325973 0.133503 0.632810
Si Si6 0.810788 0.615369 0.885802
Si Si7 0.078912 0.535246 0.120880
Si Si8 0.098807 0.011831 0.874439
O O1 0.750000 0.250000 0.557244
O O2 0.803664 0.346761 0.637384
O O3 0.857463 0.237367 0.627343
O O4 0.836648 0.308311 0.446146
O O5 0.750000 0.069826 0.750000
O O6 0.641450 0.117114 0.809519
O O7 0.650978 0.039068 0.639411
O O8 0.839127 0.152104 0.489229
O O9 0.947546 0.166817 0.566861
O O10 0.535496 0.592123 0.594959
O O11 0.259917 0.107126 0.601081
O O12 0.321822 0.149557 0.766284
O O13 0.373884 0.079884 0.619369
O O14 0.851006 0.554609 0.876497
O O15 0.067101 0.508855 0.248182
O O16 0.071414 0.500000 0.000000
O O17 0.069830 0.000000 0.000000
#
# Coordination Sequence:
#
# PCOD9326853 Si02
#       8
#    16  16  16   8  16  16  16  16
#     4  12  22  39  63  95 137 176 224 278 342 419
#     4  12  24  38  64  99 137 182 222 281 347 418
#     4  11  23  41  67  92 122 173 229 283 330 397
#     4  10  23  46  68  96 122 165 242 294 326 390
#     4  10  20  36  56  92 139 173 203 264 333 422
#     4   9  19  34  54  92 128 163 216 259 326 392
#     4  10  21  38  68  95 126 175 227 284 326 397
#     4  11  23  38  61 100 143 177 211 276 360 422
#
# _framework density 21.016766000000001
#
# number of rings (size 3 to 8) (size 9 to 14) (size 15 to 20)
#    0.000    1.333    4.000    2.200    3.733    1.067 
#    0.000    0.000   17.600    6.400    0.000    0.000 
#    0.000    0.000    0.000    0.000    0.000    0.000 
#
# Total GULP energy -167363.617359 kJ/mol
# GULP energy per Si atom -5578.787245 kJ/mol
# Density = 2.096893 g / cm^3
# Si number density = 21.016766 Si / 1000 Ang^3
#
#
#
# Elastic Constant Matrix: (Units=GPa)
#
#
# Indices 1 2 3 4 5 6 
#
# 1 58.1202 14.0868 19.7868 0.0000 0.0000 0.0000
# 2 14.0868 65.9589 27.5757 0.0000 0.0000 0.0000
# 3 19.7868 27.5757 143.6226 0.0000 0.0000 0.0000
# 4 0.0000 0.0000 0.0000 23.6286 0.0000 0.0000
# 5 0.0000 0.0000 0.0000 0.0000 5.9777 0.0000
# 6 0.0000 0.0000 0.0000 0.0000 0.0000 16.8008
#
#
#
# Elastic Compliance Matrix: (Units=1/GPa)
#
#
# Indices 1 2 3 4 5 6 
#
# 1 0.018639 -0.003161 -0.001961 0.000000 0.000000 0.000000
# 2 -0.003161 0.017020 -0.002832 0.000000 0.000000 0.000000
# 3 -0.001961 -0.002832 0.007777 0.000000 0.000000 0.000000
# 4 0.000000 0.000000 0.000000 0.042322 0.000000 0.000000
# 5 0.000000 0.000000 0.000000 0.000000 0.167289 0.000000
# 6 0.000000 0.000000 0.000000 0.000000 0.000000 0.059521
#
#
# Mechanical properties :
#
#
# Convention : Reuss Voigt Hill
#
# Bulk Modulus (GPa) = 36.32727 43.40004 39.86366
# Shear Modulus (GPa) = 14.80812 23.03157 18.91984
#
# Velocity S-wave (km/s) = 2.65728 3.31398 3.00363
# Velocity P-wave (km/s) = 5.17081 5.94460 5.57116
#
# Compressibility (1/GPa) = 0.02752753
#
# Stress axis : x y z
#
# Youngs Moduli (GPa) = 53.64954 58.75376 128.58945
#
# Poissons Ratio (x) = 0.18572 0.25217
# Poissons Ratio (y) = 0.16958 0.36422
# Poissons Ratio (z) = 0.10521 0.16641
#
# Static dielectric constant tensor:
#      x y z
#    x 1.744420 0.000000 0.000000 
#    y 0.000000 1.791870 0.000000 
#    z 0.000000 0.000000 1.842030 
# 
# From -- ./inp_files/23019.got.cif
#   From: 2010.05.17/outbox.cif.g08.bks.cpg/sg22_12_cif.got.tgz:23019.got - 2010.06.03 23:40:54.
