data_PCOD9326970
_publ_section_title
;
Structure prediction by ZEFSAII (Michael W. Deem and Ramdas Pophale) SiO2 
 PCOD9326970
Probable space group: F 2 2 2
;
_chemical_formula_sum "Si O2"
_cell_formula_units_Z 72
_cell_length_a 14.338788
_cell_length_b 7.872615
_cell_length_c 33.148340
_cell_angle_alpha 90.000000
_cell_angle_beta 90.000000
_cell_angle_gamma 90.000000
_cell_volume 3741.909174
_symmetry_space_group_name_H-M "F 2 2 2"
_symmetry_group_IT_number 22
_symmetry_cell_setting 'orthorhombic'
loop_
_space_group_symop_operation_xyz
x,y,z
-x,-y,z
x,-y,-z
-x,y,-z
x,1/2+y,1/2+z
-x,1/2-y,1/2+z
x,1/2-y,1/2-z
-x,1/2+y,1/2-z
1/2+x,y,1/2+z
1/2-x,-y,1/2+z
1/2+x,-y,1/2-z
1/2-x,y,1/2-z
1/2+x,1/2+y,z
1/2-x,1/2-y,z
1/2+x,1/2-y,-z
1/2-x,1/2+y,-z
loop_
_atom_site_type_symbol
_atom_site_label
_atom_site_fract_x
_atom_site_fract_y
_atom_site_fract_z
Si Si1 0.747549 0.436492 0.638803
Si Si2 0.750000 0.250000 0.421671
Si Si3 0.427237 0.631374 0.030567
Si Si4 0.608365 0.044215 0.205950
Si Si5 0.107756 0.549387 0.296387
O O1 0.750000 0.250000 0.620264
O O2 0.742686 0.584051 0.606187
O O3 0.663125 0.453701 0.670457
O O4 0.836337 0.466317 0.667491
O O5 0.652323 0.229581 0.446020
O O6 0.500000 0.500000 0.053603
O O7 0.376274 0.500000 0.000000
O O8 0.500000 0.726854 0.000000
O O9 0.620579 0.247132 0.201424
O O10 0.639386 0.996536 0.251336
O O11 0.500000 0.000000 0.203393
O O12 0.000000 0.500000 0.299313
#
# Coordination Sequence:
#
# PCOD9326970 Si02
#       5
#    16   8  16  16  16
#     4  12  25  38  58  98 131 170 219 272 332 390
#     4  12  20  44  77  94 140 176 196 284 349 382
#     4   6  18  43  70 104 125 166 221 261 309 425
#     4  10  20  38  57  86 123 179 236 270 328 386
#     4  10  20  37  61  81 125 182 228 281 322 383
#
# _framework density 19.241516000000001
#
# number of rings (size 3 to 8) (size 9 to 14) (size 15 to 20)
#    1.333    0.889    2.222    2.000    0.000    6.222 
#    6.000    0.000    0.000    1.333    0.000    0.000 
#    0.000    0.000    0.000    0.000    0.000    0.000 
#
# Total GULP energy -100211.038750 kJ/mol
# GULP energy per Si atom -5567.279931 kJ/mol
# Density = 1.919772 g / cm^3
# Si number density = 19.241516 Si / 1000 Ang^3
#
#
#
# Elastic Constant Matrix: (Units=GPa)
#
#
# Indices 1 2 3 4 5 6 
#
# 1 130.5510 32.7747 60.7929 0.0000 0.0000 0.0000
# 2 32.7747 113.2236 53.6622 0.0000 0.0000 0.0000
# 3 60.7929 53.6622 89.0113 0.0000 0.0000 0.0000
# 4 0.0000 0.0000 0.0000 0.5017 0.0000 0.0000
# 5 0.0000 0.0000 0.0000 0.0000 34.1247 0.0000
# 6 0.0000 0.0000 0.0000 0.0000 0.0000 25.3330
#
#
#
# Elastic Compliance Matrix: (Units=1/GPa)
#
#
# Indices 1 2 3 4 5 6 
#
# 1 0.011256 0.000539 -0.008012 0.000000 0.000000 0.000000
# 2 0.000539 0.012391 -0.007839 0.000000 0.000000 0.000000
# 3 -0.008012 -0.007839 0.021433 0.000000 0.000000 0.000000
# 4 0.000000 0.000000 0.000000 1.993322 0.000000 0.000000
# 5 0.000000 0.000000 0.000000 0.000000 0.029304 0.000000
# 6 0.000000 0.000000 0.000000 0.000000 0.000000 0.039474
#
#
# Mechanical properties :
#
#
# Convention : Reuss Voigt Hill
#
# Bulk Modulus (GPa) = 69.17652 69.69393 69.43523
# Shear Modulus (GPa) = 2.33359 24.36229 13.34794
#
# Velocity S-wave (km/s) = 1.10246 3.56213 2.63669
# Velocity P-wave (km/s) = 6.13598 7.29504 6.74047
#
# Compressibility (1/GPa) = 0.01445577
#
# Stress axis : x y z
#
# Youngs Moduli (GPa) = 88.84495 80.70364 46.65807
#
# Poissons Ratio (x) = -0.04353 0.37385
# Poissons Ratio (y) = -0.04792 0.36573
# Poissons Ratio (z) = 0.71187 0.63260
#
# Static dielectric constant tensor:
#      x y z
#    x 1.673880 0.000000 0.000000 
#    y 0.000000 1.697230 0.000000 
#    z 0.000000 0.000000 1.666530 
# 
# From -- ./inp_files/53431.got.cif
#   From: 2010.05.17/outbox.cif.g08.bks.cpg/sg22_27_cif.got.tgz:53431.got - 2010.06.03 23:40:54.
