data_PCOD9326156
_publ_section_title
;
Structure prediction by ZEFSAII (Michael W. Deem and Ramdas Pophale) SiO2 
 PCOD9326156
Probable space group: F 2 2 2
;
_chemical_formula_sum "Si O2"
_cell_formula_units_Z 92
_cell_length_a 21.812043
_cell_length_b 17.933911
_cell_length_c 13.784933
_cell_angle_alpha 90.000000
_cell_angle_beta 90.000000
_cell_angle_gamma 90.000000
_cell_volume 5392.324446
_symmetry_space_group_name_H-M "F 2 2 2"
_symmetry_group_IT_number 22
_symmetry_cell_setting 'orthorhombic'
loop_
_space_group_symop_operation_xyz
x,y,z
-x,-y,z
x,-y,-z
-x,y,-z
x,1/2+y,1/2+z
-x,1/2-y,1/2+z
x,1/2-y,1/2-z
-x,1/2+y,1/2-z
1/2+x,y,1/2+z
1/2-x,-y,1/2+z
1/2+x,-y,1/2-z
1/2-x,y,1/2-z
1/2+x,1/2+y,z
1/2-x,1/2-y,z
1/2+x,1/2-y,-z
1/2-x,1/2+y,-z
loop_
_atom_site_type_symbol
_atom_site_label
_atom_site_fract_x
_atom_site_fract_y
_atom_site_fract_z
Si Si1 0.000000 0.300449 0.500000
Si Si2 0.621864 0.802863 0.005202
Si Si3 0.750000 0.750000 0.422978
Si Si4 0.587986 0.417906 0.355089
Si Si5 0.250000 0.633904 0.750000
Si Si6 0.502305 0.412827 0.819110
Si Si7 0.500000 0.000000 0.000000
Si Si8 0.622723 0.081068 0.814231
O O1 0.061457 0.249416 0.495672
O O2 0.999814 0.354312 0.593908
O O3 0.686393 0.760001 0.019363
O O4 0.617660 0.862012 0.095013
O O5 0.622214 0.850331 0.906062
O O6 0.755228 0.681773 0.348041
O O7 0.554470 0.399979 0.254390
O O8 0.536022 0.444560 0.430292
O O9 0.624224 0.495116 0.346131
O O10 0.313992 0.592822 0.740840
O O11 0.500000 0.500000 0.851119
O O12 0.564314 0.405660 0.755193
#
# Coordination Sequence:
#
# PCOD9326156 Si02
#       8
#     8  16   8  16   8  16   4  16
#     4  12  24  34  55  81 108 148 188 216 274 338
#     4  11  21  34  55  84 112 145 183 227 273 341
#     4   9  20  36  50  75 114 148 178 225 284 321
#     4  11  19  33  59  83 109 137 180 230 284 319
#     4   9  18  32  54  76 104 143 186 226 268 337
#     4  10  21  37  54  78 109 141 176 230 276 324
#     4  12  14  32  56  92 104 132 170 230 290 314
#     4  10  18  34  56  80 106 136 179 231 279 318
#
# _framework density 17.061288999999999
#
# number of rings (size 3 to 8) (size 9 to 14) (size 15 to 20)
#    0.000    1.565    4.348    2.870    0.000    4.174 
#    0.000    3.478    0.000    7.304    0.000    0.000 
#    0.000    0.000    0.000    0.000    0.000    0.000 
#
# Total GULP energy -128211.876174 kJ/mol
# GULP energy per Si atom -5574.429399 kJ/mol
# Density = 1.702246 g / cm^3
# Si number density = 17.061289 Si / 1000 Ang^3
#
#
#
# Elastic Constant Matrix: (Units=GPa)
#
#
# Indices 1 2 3 4 5 6 
#
# 1 124.6113 68.5737 35.4909 0.0000 0.0000 0.0000
# 2 68.5737 95.7867 54.1824 0.0000 0.0000 0.0000
# 3 35.4909 54.1824 70.5574 0.0000 0.0000 0.0000
# 4 0.0000 0.0000 0.0000 43.9357 0.0000 0.0000
# 5 0.0000 0.0000 0.0000 0.0000 24.8018 0.0000
# 6 0.0000 0.0000 0.0000 0.0000 0.0000 47.3265
#
#
#
# Elastic Compliance Matrix: (Units=1/GPa)
#
#
# Indices 1 2 3 4 5 6 
#
# 1 0.013290 -0.010135 0.001098 0.000000 0.000000 0.000000
# 2 -0.010135 0.026187 -0.015011 0.000000 0.000000 0.000000
# 3 0.001098 -0.015011 0.025148 0.000000 0.000000 0.000000
# 4 0.000000 0.000000 0.000000 0.022761 0.000000 0.000000
# 5 0.000000 0.000000 0.000000 0.000000 0.040320 0.000000
# 6 0.000000 0.000000 0.000000 0.000000 0.000000 0.021130
#
#
# Mechanical properties :
#
#
# Convention : Reuss Voigt Hill
#
# Bulk Modulus (GPa) = 60.50405 67.49437 63.99921
# Shear Modulus (GPa) = 24.69861 32.06001 28.37931
#
# Velocity S-wave (km/s) = 3.80891 4.33957 4.08287
# Velocity P-wave (km/s) = 7.40834 8.04705 7.73429
#
# Compressibility (1/GPa) = 0.01652782
#
# Stress axis : x y z
#
# Youngs Moduli (GPa) = 75.24684 38.18692 39.76473
#
# Poissons Ratio (x) = 0.38704 -0.04367
# Poissons Ratio (y) = 0.76265 0.59692
# Poissons Ratio (z) = -0.08264 0.57324
#
# Static dielectric constant tensor:
#      x y z
#    x 1.568670 0.000000 0.000000 
#    y 0.000000 1.610290 0.000000 
#    z 0.000000 0.000000 1.555280 
# 
# From -- ./inp_files/22674.got.cif
#   From: 2010.05.17/outbox.cif.g08.bks.cpg/sg22_12_cif.got.tgz:22674.got - 2010.06.03 23:40:54.
