data_PCOD9326545
_publ_section_title
;
Structure prediction by ZEFSAII (Michael W. Deem and Ramdas Pophale) SiO2 
 PCOD9326545
Probable space group: F 2 2 2
;
_chemical_formula_sum "Si O2"
_cell_formula_units_Z 104
_cell_length_a 8.596943
_cell_length_b 20.621243
_cell_length_c 30.040992
_cell_angle_alpha 90.000000
_cell_angle_beta 90.000000
_cell_angle_gamma 90.000000
_cell_volume 5325.656567
_symmetry_space_group_name_H-M "F 2 2 2"
_symmetry_group_IT_number 22
_symmetry_cell_setting 'orthorhombic'
loop_
_space_group_symop_operation_xyz
x,y,z
-x,-y,z
x,-y,-z
-x,y,-z
x,1/2+y,1/2+z
-x,1/2-y,1/2+z
x,1/2-y,1/2-z
-x,1/2+y,1/2-z
1/2+x,y,1/2+z
1/2-x,-y,1/2+z
1/2+x,-y,1/2-z
1/2-x,y,1/2-z
1/2+x,1/2+y,z
1/2-x,1/2-y,z
1/2+x,1/2-y,-z
1/2-x,1/2+y,-z
loop_
_atom_site_type_symbol
_atom_site_label
_atom_site_fract_x
_atom_site_fract_y
_atom_site_fract_z
Si Si1 0.000000 0.500000 0.600992
Si Si2 0.567298 0.245436 0.121344
Si Si3 0.143383 0.668941 0.206644
Si Si4 0.166784 0.567173 0.523757
Si Si5 0.567302 0.880107 0.652425
Si Si6 0.122730 0.306832 0.039704
Si Si7 0.070635 0.572072 0.740321
O O1 0.884120 0.457751 0.571772
O O2 0.907994 0.552380 0.628552
O O3 0.750000 0.250000 0.107769
O O4 0.565959 0.222187 0.173594
O O5 0.511720 0.320245 0.122199
O O6 0.470080 0.201563 0.086922
O O7 0.250000 0.686233 0.250000
O O8 0.268567 0.638221 0.173648
O O9 0.019655 0.617393 0.224559
O O10 0.222767 0.500000 0.500000
O O11 0.287825 0.625495 0.529060
O O12 0.000000 0.585561 0.500000
O O13 0.451605 0.893718 0.692776
O O14 0.250000 0.250000 0.039017
O O15 0.000000 0.296502 0.000000
O O16 0.250000 0.566677 0.750000
O O17 0.000000 0.500000 0.739218
#
# Coordination Sequence:
#
# PCOD9326545 Si02
#       7
#     8  16  16  16  16  16  16
#     4  10  19  36  64  88 118 162 204 262 323 376
#     4  10  23  42  65  95 128 166 218 265 326 392
#     4   9  21  40  61  90 123 168 212 263 323 388
#     4   9  22  43  66  91 125 167 217 262 329 401
#     4  10  20  37  62  86 123 164 207 257 322 388
#     4  12  25  42  66  96 132 173 218 275 335 390
#     4  11  22  37  58  86 124 166 212 258 320 384
#
# _framework density 19.528108
#
# number of rings (size 3 to 8) (size 9 to 14) (size 15 to 20)
#    0.000    2.000    0.769    3.231    0.000   16.000 
#    0.000    0.769    0.000    0.000    0.000    0.000 
#    0.000    0.000    0.000    0.000    0.000    0.000 
#
# Total GULP energy -144915.664691 kJ/mol
# GULP energy per Si atom -5573.679411 kJ/mol
# Density = 1.948366 g / cm^3
# Si number density = 19.528108 Si / 1000 Ang^3
#
#
#
# Elastic Constant Matrix: (Units=GPa)
#
#
# Indices 1 2 3 4 5 6 
#
# 1 95.6927 58.2809 33.9174 0.0000 0.0000 0.0000
# 2 58.2809 129.3990 44.0899 0.0000 0.0000 0.0000
# 3 33.9174 44.0899 84.4125 0.0000 0.0000 0.0000
# 4 0.0000 0.0000 0.0000 15.9020 0.0000 0.0000
# 5 0.0000 0.0000 0.0000 0.0000 14.3717 0.0000
# 6 0.0000 0.0000 0.0000 0.0000 0.0000 29.9552
#
#
#
# Elastic Compliance Matrix: (Units=1/GPa)
#
#
# Indices 1 2 3 4 5 6 
#
# 1 0.015016 -0.005727 -0.003043 0.000000 0.000000 0.000000
# 2 -0.005727 0.011585 -0.003750 0.000000 0.000000 0.000000
# 3 -0.003043 -0.003750 0.015028 0.000000 0.000000 0.000000
# 4 0.000000 0.000000 0.000000 0.062885 0.000000 0.000000
# 5 0.000000 0.000000 0.000000 0.000000 0.069581 0.000000
# 6 0.000000 0.000000 0.000000 0.000000 0.000000 0.033383
#
#
# Mechanical properties :
#
#
# Convention : Reuss Voigt Hill
#
# Bulk Modulus (GPa) = 60.27465 64.67563 62.47514
# Shear Modulus (GPa) = 21.00423 23.59351 22.29887
#
# Velocity S-wave (km/s) = 3.28318 3.47966 3.38285
# Velocity P-wave (km/s) = 6.73089 7.02390 6.87896
#
# Compressibility (1/GPa) = 0.01659072
#
# Stress axis : x y z
#
# Youngs Moduli (GPa) = 66.59457 86.31838 66.54335
#
# Poissons Ratio (x) = 0.49431 0.20246
# Poissons Ratio (y) = 0.38136 0.24954
# Poissons Ratio (z) = 0.20262 0.32370
#
# Static dielectric constant tensor:
#      x y z
#    x 1.678620 0.000000 0.000000 
#    y 0.000000 1.800310 0.000000 
#    z 0.000000 0.000000 1.761340 
# 
# From -- ./inp_files/51984.got.cif
#   From: 2010.05.17/outbox.cif.g08.bks.cpg/sg22_26_cif.got.tgz:51984.got - 2010.06.03 23:40:54.
