data_PCOD9326863
_publ_section_title
;
Structure prediction by ZEFSAII (Michael W. Deem and Ramdas Pophale) SiO2 
 PCOD9326863
Probable space group: F 2 2 2
;
_chemical_formula_sum "Si O2"
_cell_formula_units_Z 96
_cell_length_a 22.325310
_cell_length_b 22.963932
_cell_length_c 9.176983
_cell_angle_alpha 90.000000
_cell_angle_beta 90.000000
_cell_angle_gamma 90.000000
_cell_volume 4704.827202
_symmetry_space_group_name_H-M "F 2 2 2"
_symmetry_group_IT_number 22
_symmetry_cell_setting 'orthorhombic'
loop_
_space_group_symop_operation_xyz
x,y,z
-x,-y,z
x,-y,-z
-x,y,-z
x,1/2+y,1/2+z
-x,1/2-y,1/2+z
x,1/2-y,1/2-z
-x,1/2+y,1/2-z
1/2+x,y,1/2+z
1/2-x,-y,1/2+z
1/2+x,-y,1/2-z
1/2-x,y,1/2-z
1/2+x,1/2+y,z
1/2-x,1/2-y,z
1/2+x,1/2-y,-z
1/2-x,1/2+y,-z
loop_
_atom_site_type_symbol
_atom_site_label
_atom_site_fract_x
_atom_site_fract_y
_atom_site_fract_z
Si Si1 0.088005 0.438046 0.569586
Si Si2 0.535709 0.384635 0.355338
Si Si3 0.669864 0.728934 0.096586
Si Si4 0.543611 0.173391 0.617155
Si Si5 0.793198 0.626471 0.577589
Si Si6 0.168059 0.336311 0.879752
O O1 0.075868 0.500000 0.500000
O O2 0.056411 0.429523 0.727061
O O3 0.064418 0.387185 0.461526
O O4 0.159710 0.426081 0.582306
O O5 0.500000 0.404758 0.500000
O O6 0.491676 0.341083 0.265311
O O7 0.599720 0.356484 0.400192
O O8 0.691337 0.750000 0.250000
O O9 0.600600 0.713613 0.119902
O O10 0.698676 0.667010 0.060685
O O11 0.678508 0.778844 0.975090
O O12 0.500000 0.201913 0.500000
O O13 0.819004 0.668858 0.707040
O O14 0.721997 0.617240 0.588676
#
# Coordination Sequence:
#
# PCOD9326863 Si02
#       6
#    16  16  16  16  16  16
#     4   9  19  39  65  83 106 148 188 233 289 340
#     4  10  20  36  58  86 118 147 186 238 283 335
#     4  11  21  32  52  81 115 154 191 231 282 333
#     4   9  20  35  52  82 116 151 195 229 270 342
#     4   9  20  37  58  85 110 144 198 237 278 345
#     4  10  20  36  58  80 115 154 185 233 289 337
#
# _framework density 20.404575999999999
#
# number of rings (size 3 to 8) (size 9 to 14) (size 15 to 20)
#    0.000    2.333    0.000    3.000    0.000    7.667 
#    0.000    3.333    0.000   26.000    0.000    0.000 
#    0.000    0.000    0.000    0.000    0.000    0.000 
#
# Total GULP energy -133667.355733 kJ/mol
# GULP energy per Si atom -5569.473156 kJ/mol
# Density = 2.035813 g / cm^3
# Si number density = 20.404576 Si / 1000 Ang^3
#
#
#
# Elastic Constant Matrix: (Units=GPa)
#
#
# Indices 1 2 3 4 5 6 
#
# 1 172.2036 21.7989 27.0034 0.0000 0.0000 0.0000
# 2 21.7989 36.2359 26.0647 0.0000 0.0000 0.0000
# 3 27.0034 26.0647 87.9299 0.0000 0.0000 0.0001
# 4 0.0000 0.0000 0.0000 20.2705 0.0000 0.0000
# 5 0.0000 0.0000 0.0000 0.0000 13.3849 -0.0001
# 6 0.0000 0.0000 0.0001 0.0000 -0.0001 8.7339
#
#
#
# Elastic Compliance Matrix: (Units=1/GPa)
#
#
# Indices 1 2 3 4 5 6 
#
# 1 0.006360 -0.003077 -0.001041 0.000000 0.000000 0.000000
# 2 -0.003077 0.036565 -0.009894 0.000000 0.000000 0.000000
# 3 -0.001041 -0.009894 0.014625 0.000000 0.000000 0.000000
# 4 0.000000 0.000000 0.000000 0.049333 0.000000 0.000000
# 5 0.000000 0.000000 0.000000 0.000000 0.074711 0.000001
# 6 0.000000 0.000000 0.000000 0.000000 0.000001 0.114496
#
#
# Mechanical properties :
#
#
# Convention : Reuss Voigt Hill
#
# Bulk Modulus (GPa) = 33.86854 49.56707 41.71780
# Shear Modulus (GPa) = 14.97204 23.24469 19.10837
#
# Velocity S-wave (km/s) = 2.71174 3.37885 3.06351
# Velocity P-wave (km/s) = 5.14191 6.29023 5.74484
#
# Compressibility (1/GPa) = 0.02952592
#
# Stress axis : x y z
#
# Youngs Moduli (GPa) = 157.23639 27.34879 68.37551
#
# Poissons Ratio (x) = 0.08416 0.07118
# Poissons Ratio (y) = 0.48385 0.67649
# Poissons Ratio (z) = 0.16368 0.27058
#
# Static dielectric constant tensor:
#      x y z
#    x 1.874800 0.000000 0.000000 
#    y 0.000000 1.692110 0.000000 
#    z 0.000000 0.000000 1.776550 
# 
# From -- ./inp_files/13896.got.cif
#   From: 2010.05.17/outbox.cif.g08.bks.cpg/sg22_7_cif.got.tgz:13896.got - 2010.06.03 23:40:54.
