data_PCOD9326778
_publ_section_title
;
Structure prediction by ZEFSAII (Michael W. Deem and Ramdas Pophale) SiO2 
 PCOD9326778
Probable space group: F 2 2 2
;
_chemical_formula_sum "Si O2"
_cell_formula_units_Z 120
_cell_length_a 19.787667
_cell_length_b 13.853080
_cell_length_c 22.668754
_cell_angle_alpha 90.000000
_cell_angle_beta 90.000000
_cell_angle_gamma 90.000000
_cell_volume 6213.961883
_symmetry_space_group_name_H-M "F 2 2 2"
_symmetry_group_IT_number 22
_symmetry_cell_setting 'orthorhombic'
loop_
_space_group_symop_operation_xyz
x,y,z
-x,-y,z
x,-y,-z
-x,y,-z
x,1/2+y,1/2+z
-x,1/2-y,1/2+z
x,1/2-y,1/2-z
-x,1/2+y,1/2-z
1/2+x,y,1/2+z
1/2-x,-y,1/2+z
1/2+x,-y,1/2-z
1/2-x,y,1/2-z
1/2+x,1/2+y,z
1/2-x,1/2-y,z
1/2+x,1/2-y,-z
1/2-x,1/2+y,-z
loop_
_atom_site_type_symbol
_atom_site_label
_atom_site_fract_x
_atom_site_fract_y
_atom_site_fract_z
Si Si1 0.865709 0.054607 0.937601
Si Si2 0.462322 0.299286 0.590855
Si Si3 0.892272 0.523829 0.841256
Si Si4 0.075928 0.902528 0.150079
Si Si5 0.671877 0.353847 0.240014
Si Si6 0.706328 0.437307 0.560202
Si Si7 0.500000 0.000000 0.244067
Si Si8 0.896290 0.223692 0.537418
O O1 0.785416 0.059405 0.922054
O O2 0.889603 0.163936 0.946963
O O3 0.913419 0.994315 0.892710
O O4 0.870159 0.000000 0.000000
O O5 0.432858 0.388945 0.627257
O O6 0.452240 0.194463 0.620902
O O7 0.541014 0.316437 0.575876
O O8 0.420769 0.291140 0.529676
O O9 0.849739 0.572348 0.789579
O O10 0.842651 0.477905 0.888853
O O11 0.943934 0.460071 0.801661
O O12 0.151299 0.883481 0.174622
O O13 0.034110 0.926360 0.209666
O O14 0.637729 0.250000 0.250000
O O15 0.750000 0.344082 0.250000
O O16 0.699542 0.500000 0.500000
O O17 0.673831 0.332488 0.547056
#
# Coordination Sequence:
#
# PCOD9326778 Si02
#       8
#    16  16  16  16  16  16   8  16
#     4  11  23  40  63  90 126 164 205 256 313 382
#     4  11  22  37  63  89 125 162 198 259 305 375
#     4  11  21  41  58  94 122 162 206 252 313 364
#     4  11  21  41  58  94 122 162 206 252 313 364
#     4  10  20  34  58  86 119 155 195 250 303 356
#     4  11  23  40  63  90 126 164 205 256 313 382
#     4  10  24  36  64  84 126 168 204 258 300 374
#     4  11  23  40  58  91 124 166 204 245 313 377
#
# _framework density 19.311350999999998
#
# number of rings (size 3 to 8) (size 9 to 14) (size 15 to 20)
#    0.000    1.200    4.000    2.800    0.000    0.000 
#    0.000    1.333    0.000    2.400    0.000   10.267 
#    0.000    0.000    0.000    0.000    0.000    0.000 
#
# Total GULP energy -167250.568877 kJ/mol
# GULP energy per Si atom -5575.018963 kJ/mol
# Density = 1.926740 g / cm^3
# Si number density = 19.311351 Si / 1000 Ang^3
#
#
#
# Elastic Constant Matrix: (Units=GPa)
#
#
# Indices 1 2 3 4 5 6 
#
# 1 76.4325 5.6753 29.3039 0.0000 0.0000 0.0000
# 2 5.6753 59.9244 15.1271 0.0000 0.0000 0.0000
# 3 29.3039 15.1271 82.0890 0.0000 0.0000 0.0000
# 4 0.0000 0.0000 0.0000 30.4100 0.0000 0.0000
# 5 0.0000 0.0000 0.0000 0.0000 23.5739 0.0000
# 6 0.0000 0.0000 0.0000 0.0000 0.0000 19.6891
#
#
#
# Elastic Compliance Matrix: (Units=1/GPa)
#
#
# Indices 1 2 3 4 5 6 
#
# 1 0.015158 -0.000073 -0.005398 0.000000 0.000000 0.000000
# 2 -0.000073 0.017502 -0.003199 0.000000 0.000000 0.000000
# 3 -0.005398 -0.003199 0.014698 0.000000 0.000000 0.000000
# 4 0.000000 0.000000 0.000000 0.032884 0.000000 0.000000
# 5 0.000000 0.000000 0.000000 0.000000 0.042420 0.000000
# 6 0.000000 0.000000 0.000000 0.000000 0.000000 0.050790
#
#
# Mechanical properties :
#
#
# Convention : Reuss Voigt Hill
#
# Bulk Modulus (GPa) = 33.31227 35.40650 34.35939
# Shear Modulus (GPa) = 24.90060 25.95722 25.42891
#
# Velocity S-wave (km/s) = 3.59476 3.67023 3.63269
# Velocity P-wave (km/s) = 5.87514 6.02787 5.95199
#
# Compressibility (1/GPa) = 0.03001897
#
# Stress axis : x y z
#
# Youngs Moduli (GPa) = 65.97039 57.13562 68.03504
#
# Poissons Ratio (x) = 0.00417 0.36723
# Poissons Ratio (y) = 0.00482 0.21766
# Poissons Ratio (z) = 0.35609 0.18279
#
# Static dielectric constant tensor:
#      x y z
#    x 1.817680 0.000000 0.000000 
#    y 0.000000 1.703500 0.000000 
#    z 0.000000 0.000000 1.672580 
# 
# From -- ./inp_files/43762.got.cif
#   From: 2010.05.17/outbox.cif.g08.bks.cpg/sg22_22_cif.got.tgz:43762.got - 2010.06.03 23:40:54.
