data_PCOD9326147
_publ_section_title
;
Structure prediction by ZEFSAII (Michael W. Deem and Ramdas Pophale) SiO2 
 PCOD9326147
Probable space group: F 2 2 2
;
_chemical_formula_sum "Si O2"
_cell_formula_units_Z 120
_cell_length_a 14.367425
_cell_length_b 22.196644
_cell_length_c 20.438892
_cell_angle_alpha 90.000000
_cell_angle_beta 90.000000
_cell_angle_gamma 90.000000
_cell_volume 6518.138800
_symmetry_space_group_name_H-M "F 2 2 2"
_symmetry_group_IT_number 22
_symmetry_cell_setting 'orthorhombic'
loop_
_space_group_symop_operation_xyz
x,y,z
-x,-y,z
x,-y,-z
-x,y,-z
x,1/2+y,1/2+z
-x,1/2-y,1/2+z
x,1/2-y,1/2-z
-x,1/2+y,1/2-z
1/2+x,y,1/2+z
1/2-x,-y,1/2+z
1/2+x,-y,1/2-z
1/2-x,y,1/2-z
1/2+x,1/2+y,z
1/2-x,1/2-y,z
1/2+x,1/2-y,-z
1/2-x,1/2+y,-z
loop_
_atom_site_type_symbol
_atom_site_label
_atom_site_fract_x
_atom_site_fract_y
_atom_site_fract_z
Si Si1 0.362679 0.363372 0.375107
Si Si2 0.109150 0.505190 0.740449
Si Si3 0.549279 0.621206 0.570912
Si Si4 0.637780 0.495368 0.094137
Si Si5 0.596870 0.897911 0.492750
Si Si6 0.750000 0.113484 0.750000
Si Si7 0.222086 0.181411 0.509792
Si Si8 0.845708 0.992040 0.618182
O O1 0.474318 0.352286 0.377311
O O2 0.297085 0.352510 0.311652
O O3 0.320218 0.329628 0.437318
O O4 0.362155 0.436267 0.385714
O O5 0.114954 0.478750 0.668276
O O6 0.163368 0.569183 0.730844
O O7 0.160370 0.478279 0.803950
O O8 0.000000 0.500000 0.758939
O O9 0.500000 0.620646 0.500000
O O10 0.644084 0.658591 0.560759
O O11 0.579953 0.553368 0.588710
O O12 0.585992 0.450372 0.046497
O O13 0.746991 0.483705 0.083940
O O14 0.617003 0.564425 0.073765
O O15 0.500000 0.862669 0.500000
O O16 0.685068 0.858405 0.510697
O O17 0.250000 0.250000 0.519984
#
# Coordination Sequence:
#
# PCOD9326147 Si02
#       8
#    16  16  16  16  16   8  16  16
#     4  10  20  35  57  84 116 150 182 228 289 341
#     4  11  19  30  49  78 119 155 182 213 268 345
#     4  10  22  35  57  88 115 148 188 235 285 344
#     4  11  19  34  52  78 115 146 178 226 276 336
#     4  11  22  35  54  77 107 148 187 228 284 340
#     4  10  18  34  51  82 118 150 187 236 278 334
#     4  11  23  39  56  78 110 147 188 245 291 333
#     4  11  18  33  54  84 118 149 175 220 280 337
#
# _framework density 18.410163000000001
#
# number of rings (size 3 to 8) (size 9 to 14) (size 15 to 20)
#    0.000    1.333    5.333    3.600    0.000    5.333 
#    0.000    0.333    0.000    0.000    0.000    5.600 
#    0.000    0.000    0.000    0.000    0.000    0.000 
#
# Total GULP energy -167073.473343 kJ/mol
# GULP energy per Si atom -5569.115778 kJ/mol
# Density = 1.836826 g / cm^3
# Si number density = 18.410163 Si / 1000 Ang^3
#
#
#
# Elastic Constant Matrix: (Units=GPa)
#
#
# Indices 1 2 3 4 5 6 
#
# 1 140.7163 23.6535 17.9591 0.0000 0.0000 0.0000
# 2 23.6535 62.4585 10.5702 0.0000 0.0000 0.0000
# 3 17.9591 10.5702 58.6654 0.0000 0.0000 0.0000
# 4 0.0000 0.0000 0.0000 4.0605 0.0000 0.0000
# 5 0.0000 0.0000 0.0000 0.0000 23.9761 0.0000
# 6 0.0000 0.0000 0.0000 0.0000 0.0000 6.4078
#
#
#
# Elastic Compliance Matrix: (Units=1/GPa)
#
#
# Indices 1 2 3 4 5 6 
#
# 1 0.007792 -0.002627 -0.001912 0.000000 0.000000 0.000000
# 2 -0.002627 0.017400 -0.002331 0.000000 0.000000 0.000000
# 3 -0.001912 -0.002331 0.018051 0.000000 0.000000 0.000000
# 4 0.000000 0.000000 0.000000 0.246275 0.000000 0.000000
# 5 0.000000 0.000000 0.000000 0.000000 0.041708 0.000000
# 6 0.000000 0.000000 0.000000 0.000000 0.000000 0.156060
#
#
# Mechanical properties :
#
#
# Convention : Reuss Voigt Hill
#
# Bulk Modulus (GPa) = 33.89486 40.68954 37.29220
# Shear Modulus (GPa) = 9.78738 20.86603 15.32671
#
# Velocity S-wave (km/s) = 2.30821 3.37025 2.88846
# Velocity P-wave (km/s) = 5.05517 6.10692 5.60576
#
# Compressibility (1/GPa) = 0.02950300
#
# Stress axis : x y z
#
# Youngs Moduli (GPa) = 128.33408 57.47099 55.39825
#
# Poissons Ratio (x) = 0.15100 0.10592
# Poissons Ratio (y) = 0.33718 0.12912
# Poissons Ratio (z) = 0.24537 0.13395
#
# Static dielectric constant tensor:
#      x y z
#    x 1.732530 0.000000 0.000000 
#    y 0.000000 1.609160 0.000000 
#    z 0.000000 0.000000 1.678260 
# 
# From -- ./inp_files/43773.got.cif
#   From: 2010.05.17/outbox.cif.g08.bks.cpg/sg22_22_cif.got.tgz:43773.got - 2010.06.03 23:40:54.
