data_PCOD9326868
_publ_section_title
;
Structure prediction by ZEFSAII (Michael W. Deem and Ramdas Pophale) SiO2 
 PCOD9326868
Probable space group: F 2 2 2
;
_chemical_formula_sum "Si O2"
_cell_formula_units_Z 80
_cell_length_a 16.899171
_cell_length_b 18.714842
_cell_length_c 13.826193
_cell_angle_alpha 90.000000
_cell_angle_beta 90.000000
_cell_angle_gamma 90.000000
_cell_volume 4372.745287
_symmetry_space_group_name_H-M "F 2 2 2"
_symmetry_group_IT_number 22
_symmetry_cell_setting 'orthorhombic'
loop_
_space_group_symop_operation_xyz
x,y,z
-x,-y,z
x,-y,-z
-x,y,-z
x,1/2+y,1/2+z
-x,1/2-y,1/2+z
x,1/2-y,1/2-z
-x,1/2+y,1/2-z
1/2+x,y,1/2+z
1/2-x,-y,1/2+z
1/2+x,-y,1/2-z
1/2-x,y,1/2-z
1/2+x,1/2+y,z
1/2-x,1/2-y,z
1/2+x,1/2-y,-z
1/2-x,1/2+y,-z
loop_
_atom_site_type_symbol
_atom_site_label
_atom_site_fract_x
_atom_site_fract_y
_atom_site_fract_z
Si Si1 0.845073 0.750000 0.635973
Si Si2 0.157189 0.525338 0.861160
Si Si3 0.342811 0.025338 0.361160
Si Si4 0.590876 0.890626 0.968652
Si Si5 0.409124 0.890626 0.468652
O O1 0.865434 0.750000 0.750000
O O2 0.750000 0.750000 0.628427
O O3 0.879240 0.819948 0.583895
O O4 0.879240 0.680052 0.583895
O O5 0.250000 0.505647 0.868726
O O6 0.139733 0.542452 0.750000
O O7 0.106252 0.458103 0.898075
O O8 0.139392 0.589600 0.934428
O O9 0.360608 0.089600 0.434428
O O10 0.393748 0.958103 0.398075
O O11 0.500000 0.885466 0.000000
O O12 0.500000 0.885465 0.500000
#
# Coordination Sequence:
#
# PCOD9326868 Si02
#       5
#    16  16  16  16  16
#     4  11  23  40  61  81 107 147 190 231 276 330
#     4  10  20  36  59  84 112 149 188 225 269 325
#     4  10  20  36  59  84 112 149 188 225 269 325
#     4  11  22  36  56  84 115 144 182 232 280 326
#     4  11  22  36  56  84 115 144 182 232 280 326
#
# _framework density 18.295142999999999
#
# number of rings (size 3 to 8) (size 9 to 14) (size 15 to 20)
#    0.000    1.400    0.000    9.000    0.000    8.000 
#    0.000    1.000    0.000    3.600    0.000    0.000 
#    0.000    0.000    0.000    0.000    0.000    0.000 
#
# Total GULP energy -111753.911753 kJ/mol
# GULP energy per Si atom -5587.695588 kJ/mol
# Density = 1.825350 g / cm^3
# Si number density = 18.295143 Si / 1000 Ang^3
#
#
#
# Elastic Constant Matrix: (Units=GPa)
#
#
# Indices 1 2 3 4 5 6 
#
# 1 103.7695 50.4758 58.2687 0.0000 0.0000 0.0000
# 2 50.4758 136.4890 87.6168 0.0000 0.0000 0.0000
# 3 58.2687 87.6168 183.0807 0.0000 0.0000 0.0000
# 4 0.0000 0.0000 0.0000 15.8206 0.0000 0.0000
# 5 0.0000 0.0000 0.0000 0.0000 -6.6229 0.0000
# 6 0.0000 0.0000 0.0000 0.0000 0.0000 -114.8850
#
#
#
# Elastic Compliance Matrix: (Units=1/GPa)
#
#
# Indices 1 2 3 4 5 6 
#
# 1 0.012527 -0.002993 -0.002555 0.000000 0.000000 0.000000
# 2 -0.002993 0.011290 -0.004451 0.000000 0.000000 0.000000
# 3 -0.002555 -0.004451 0.008405 0.000000 0.000000 0.000000
# 4 0.000000 0.000000 0.000000 0.063209 0.000000 0.000000
# 5 0.000000 0.000000 0.000000 0.000000 -0.150990 0.000000
# 6 0.000000 0.000000 0.000000 0.000000 0.000000 -0.008704
#
#
# Mechanical properties :
#
#
# Convention : Reuss Voigt Hill
#
# Bulk Modulus (GPa) = 81.79169 90.67354 86.23261
# Shear Modulus (GPa) = -124.40503 -6.00562 -65.20532
#
# Velocity S-wave (km/s) = -8.25509 -1.81377 -5.97647
# Velocity P-wave (km/s) = 6.78662 6.72925 0.62268
#
# Compressibility (1/GPa) = 0.01222618
#
# Stress axis : x y z
#
# Youngs Moduli (GPa) = 79.82758 88.57035 118.97448
#
# Poissons Ratio (x) = 0.26507 0.30395
# Poissons Ratio (y) = 0.23890 0.52953
# Poissons Ratio (z) = 0.20394 0.39421
#
# Static dielectric constant tensor:
#      x y z
#    x 1.631030 0.000000 0.000000 
#    y 0.000000 1.601990 0.000000 
#    z 0.000000 0.000000 1.625580 
# 
# From -- ./inp_files/30519.got.cif
#   From: 2010.05.17/outbox.cif.g08.bks.cpg/sg22_16_cif.got.tgz:30519.got - 2010.06.03 23:40:54.
