data_PCOD9326447
_publ_section_title
;
Structure prediction by ZEFSAII (Michael W. Deem and Ramdas Pophale) SiO2 
 PCOD9326447
Probable space group: F 2 2 2
;
_chemical_formula_sum "Si O2"
_cell_formula_units_Z 116
_cell_length_a 24.238143
_cell_length_b 29.273337
_cell_length_c 7.650940
_cell_angle_alpha 90.000000
_cell_angle_beta 90.000000
_cell_angle_gamma 90.000000
_cell_volume 5428.581621
_symmetry_space_group_name_H-M "F 2 2 2"
_symmetry_group_IT_number 22
_symmetry_cell_setting 'orthorhombic'
loop_
_space_group_symop_operation_xyz
x,y,z
-x,-y,z
x,-y,-z
-x,y,-z
x,1/2+y,1/2+z
-x,1/2-y,1/2+z
x,1/2-y,1/2-z
-x,1/2+y,1/2-z
1/2+x,y,1/2+z
1/2-x,-y,1/2+z
1/2+x,-y,1/2-z
1/2-x,y,1/2-z
1/2+x,1/2+y,z
1/2-x,1/2-y,z
1/2+x,1/2-y,-z
1/2-x,1/2+y,-z
loop_
_atom_site_type_symbol
_atom_site_label
_atom_site_fract_x
_atom_site_fract_y
_atom_site_fract_z
Si Si1 0.701963 0.547194 0.107915
Si Si2 0.357699 0.824270 0.958019
Si Si3 0.000000 0.000000 0.000000
Si Si4 0.827181 0.770807 0.942967
Si Si5 0.470142 0.152277 0.185349
Si Si6 0.254656 0.358977 0.959114
Si Si7 0.417168 0.420202 0.098902
Si Si8 0.582678 0.665803 0.837396
O O1 0.750000 0.541092 0.250000
O O2 0.640670 0.560870 0.171107
O O3 0.698348 0.500000 0.000000
O O4 0.718653 0.592472 0.999708
O O5 0.409585 0.826134 0.829786
O O6 0.330821 0.774498 0.945457
O O7 0.304863 0.857085 0.946080
O O8 0.384891 0.835138 0.150081
O O9 0.047509 0.038926 0.026108
O O10 0.811714 0.750000 0.750000
O O11 0.789938 0.813323 0.002956
O O12 0.888356 0.791545 0.928111
O O13 0.454836 0.102230 0.251733
O O14 0.517738 0.172611 0.307192
O O15 0.500000 0.151395 0.000000
O O16 0.250000 0.355325 0.750000
O O17 0.409098 0.380088 0.952388
#
# Coordination Sequence:
#
# PCOD9326447 Si02
#       8
#    16  16   4  16  16  16  16  16
#     4  12  27  45  68 102 140 178 226 284 352 413
#     4  10  21  36  61  96 132 171 220 269 332 400
#     4  12  24  40  78  96 108 172 242 278 320 408
#     4  10  19  34  63 101 128 171 232 271 317 414
#     4  10  22  40  62  90 132 170 208 275 343 391
#     4  12  20  38  69  96 131 181 224 280 335 394
#     4  12  22  45  68  95 127 172 229 274 332 415
#     4  10  19  37  64  88 129 174 219 266 324 390
#
# _framework density 21.368379999999998
#
# number of rings (size 3 to 8) (size 9 to 14) (size 15 to 20)
#    0.000    1.103    6.207    1.655    0.000    0.000 
#    0.000   13.448    0.000    0.828    0.000    0.000 
#    0.000    0.000    0.000    0.000    0.000    0.000 
#
# Total GULP energy -161633.764155 kJ/mol
# GULP energy per Si atom -5573.578074 kJ/mol
# Density = 2.131974 g / cm^3
# Si number density = 21.368380 Si / 1000 Ang^3
#
#
#
# Elastic Constant Matrix: (Units=GPa)
#
#
# Indices 1 2 3 4 5 6 
#
# 1 163.8848 29.3649 12.3327 -0.0216 0.0341 0.0048
# 2 29.3649 116.7732 5.2593 -0.0120 0.0139 0.0030
# 3 12.3327 5.2593 40.7577 -0.0308 0.0569 0.0229
# 4 -0.0216 -0.0120 -0.0308 -15.6763 0.0217 0.0061
# 5 0.0341 0.0139 0.0569 0.0217 10.5394 -0.0217
# 6 0.0048 0.0030 0.0229 0.0061 -0.0217 43.2151
#
#
#
# Elastic Compliance Matrix: (Units=1/GPa)
#
#
# Indices 1 2 3 4 5 6 
#
# 1 0.006514 -0.001558 -0.001770 -0.000004 -0.000009 0.000000
# 2 -0.001558 0.008986 -0.000688 -0.000003 -0.000003 0.000000
# 3 -0.001770 -0.000688 0.025160 -0.000047 -0.000129 -0.000013
# 4 -0.000004 -0.000003 -0.000047 -0.063790 0.000132 0.000009
# 5 -0.000009 -0.000003 -0.000129 0.000132 0.094883 0.000048
# 6 0.000000 0.000000 -0.000013 0.000009 0.000048 0.023140
#
#
# Mechanical properties :
#
#
# Convention : Reuss Voigt Hill
#
# Bulk Modulus (GPa) = 30.64894 46.14771 38.39833
# Shear Modulus (GPa) = 43.93604 25.91289 34.92446
#
# Velocity S-wave (km/s) = 4.53937 3.48613 4.04716
# Velocity P-wave (km/s) = 6.46906 6.15201 6.31253
#
# Compressibility (1/GPa) = 0.03262755
#
# Stress axis : x y z
#
# Youngs Moduli (GPa) = 153.50872 111.27809 39.74603
#
# Poissons Ratio (x) = 0.17342 0.07035
# Poissons Ratio (y) = 0.23923 0.02735
# Poissons Ratio (z) = 0.27171 0.07656
#
# Static dielectric constant tensor:
#      x y z
#    x 1.819650 0.000020 -0.000020 
#    y 0.000020 1.738840 -0.000040 
#    z -0.000020 -0.000040 1.878310 
# 
# From -- ./inp_files/14120.got.cif
#   From: 2010.05.17/outbox.cif.g08.bks.cpg/sg22_8_cif.got.tgz:14120.got - 2010.06.03 23:40:54.
