data_PCOD9326800
_publ_section_title
;
Structure prediction by ZEFSAII (Michael W. Deem and Ramdas Pophale) SiO2 
 PCOD9326800
Probable space group: F 2 2 2
;
_chemical_formula_sum "Si O2"
_cell_formula_units_Z 120
_cell_length_a 28.212728
_cell_length_b 16.166844
_cell_length_c 14.405045
_cell_angle_alpha 90.000000
_cell_angle_beta 90.000000
_cell_angle_gamma 90.000000
_cell_volume 6570.296201
_symmetry_space_group_name_H-M "F 2 2 2"
_symmetry_group_IT_number 22
_symmetry_cell_setting 'orthorhombic'
loop_
_space_group_symop_operation_xyz
x,y,z
-x,-y,z
x,-y,-z
-x,y,-z
x,1/2+y,1/2+z
-x,1/2-y,1/2+z
x,1/2-y,1/2-z
-x,1/2+y,1/2-z
1/2+x,y,1/2+z
1/2-x,-y,1/2+z
1/2+x,-y,1/2-z
1/2-x,y,1/2-z
1/2+x,1/2+y,z
1/2-x,1/2-y,z
1/2+x,1/2-y,-z
1/2-x,1/2+y,-z
loop_
_atom_site_type_symbol
_atom_site_label
_atom_site_fract_x
_atom_site_fract_y
_atom_site_fract_z
Si Si1 0.745649 0.845284 0.000934
Si Si2 0.552800 0.997774 0.298151
Si Si3 0.109790 0.672707 0.300714
Si Si4 0.298619 0.112006 0.807367
Si Si5 0.704258 0.918989 0.184900
Si Si6 0.355827 0.152474 0.503653
Si Si7 0.923909 0.000000 0.000000
Si Si8 0.118106 0.163322 0.212515
O O1 0.750000 0.750000 0.029926
O O2 0.720649 0.895392 0.082210
O O3 0.714634 0.853314 0.908359
O O4 0.800472 0.870252 0.985643
O O5 0.579382 0.087157 0.290985
O O6 0.500000 0.000000 0.255789
O O7 0.547611 0.982673 0.408259
O O8 0.584393 0.917150 0.272394
O O9 0.085181 0.750000 0.250000
O O10 0.158717 0.654992 0.246160
O O11 0.125566 0.701387 0.405284
O O12 0.250000 0.120215 0.750000
O O13 0.310952 0.014708 0.813596
O O14 0.750000 0.911932 0.250000
O O15 0.664617 0.859758 0.227889
O O16 0.388071 0.073370 0.517981
O O17 0.366805 0.176413 0.396333
O O18 0.097905 0.250000 0.250000
#
# Coordination Sequence:
#
# PCOD9326800 Si02
#       8
#    16  16  16  16  16  16   8  16
#     4  12  23  33  53  81 117 168 203 238 278 332
#     4  10  21  40  62  90 115 145 197 254 312 367
#     4  11  22  39  61  86 122 159 197 249 302 359
#     4  11  23  36  55  83 120 160 201 236 284 352
#     4  11  23  36  55  83 120 160 201 236 284 352
#     4  10  20  35  55  85 116 155 198 239 298 344
#     4   8  19  32  62  86 110 138 178 256 309 352
#     4  11  22  39  61  86 122 159 197 249 302 359
#
# _framework density 18.264016999999999
#
# number of rings (size 3 to 8) (size 9 to 14) (size 15 to 20)
#    0.000    1.333    4.000    2.200    1.867    0.533 
#    0.000    0.000    0.000    0.000    0.000    6.533 
#    0.000    0.000    0.000    0.000    0.000    0.000 
#
# Total GULP energy -167132.992199 kJ/mol
# GULP energy per Si atom -5571.099740 kJ/mol
# Density = 1.822245 g / cm^3
# Si number density = 18.264017 Si / 1000 Ang^3
#
#
#
# Elastic Constant Matrix: (Units=GPa)
#
#
# Indices 1 2 3 4 5 6 
#
# 1 81.7873 26.5476 6.3811 0.0000 0.0000 0.0000
# 2 26.5476 89.6233 7.2332 0.0000 0.0000 0.0000
# 3 6.3811 7.2332 51.6086 0.0000 0.0000 0.0000
# 4 0.0000 0.0000 0.0000 26.9656 0.0000 0.0000
# 5 0.0000 0.0000 0.0000 0.0000 11.6325 0.0000
# 6 0.0000 0.0000 0.0000 0.0000 0.0000 -27.5602
#
#
#
# Elastic Compliance Matrix: (Units=1/GPa)
#
#
# Indices 1 2 3 4 5 6 
#
# 1 0.013592 -0.003935 -0.001129 0.000000 0.000000 0.000000
# 2 -0.003935 0.012425 -0.001255 0.000000 0.000000 0.000000
# 3 -0.001129 -0.001255 0.019692 0.000000 0.000000 0.000000
# 4 0.000000 0.000000 0.000000 0.037084 0.000000 0.000000
# 5 0.000000 0.000000 0.000000 0.000000 0.085966 0.000000
# 6 0.000000 0.000000 0.000000 0.000000 0.000000 -0.036284
#
#
# Mechanical properties :
#
#
# Convention : Reuss Voigt Hill
#
# Bulk Modulus (GPa) = 30.23790 33.70475 31.97133
# Shear Modulus (GPa) = 32.02318 14.39807 23.21062
#
# Velocity S-wave (km/s) = 4.19184 2.81077 3.56875
# Velocity P-wave (km/s) = 6.32619 5.38778 5.87575
#
# Compressibility (1/GPa) = 0.03307108
#
# Stress axis : x y z
#
# Youngs Moduli (GPa) = 73.57150 80.48476 50.78182
#
# Poissons Ratio (x) = 0.31671 0.05734
# Poissons Ratio (y) = 0.28951 0.06372
# Poissons Ratio (z) = 0.08307 0.10099
#
# Static dielectric constant tensor:
#      x y z
#    x 1.517820 0.000000 0.000000 
#    y 0.000000 1.668670 0.000000 
#    z 0.000000 0.000000 1.664260 
# 
# From -- ./inp_files/33620.got.cif
#   From: 2010.05.17/outbox.cif.g08.bks.cpg/sg22_17_cif.got.tgz:33620.got - 2010.06.03 23:40:54.
