data_PCOD9326938
_publ_section_title
;
Structure prediction by ZEFSAII (Michael W. Deem and Ramdas Pophale) SiO2 
 PCOD9326938
Probable space group: F 2 2 2
;
_chemical_formula_sum "Si O2"
_cell_formula_units_Z 44
_cell_length_a 14.461284
_cell_length_b 25.326931
_cell_length_c 4.932789
_cell_angle_alpha 90.000000
_cell_angle_beta 90.000000
_cell_angle_gamma 90.000000
_cell_volume 1806.683013
_symmetry_space_group_name_H-M "F 2 2 2"
_symmetry_group_IT_number 22
_symmetry_cell_setting 'orthorhombic'
loop_
_space_group_symop_operation_xyz
x,y,z
-x,-y,z
x,-y,-z
-x,y,-z
x,1/2+y,1/2+z
-x,1/2-y,1/2+z
x,1/2-y,1/2-z
-x,1/2+y,1/2-z
1/2+x,y,1/2+z
1/2-x,-y,1/2+z
1/2+x,-y,1/2-z
1/2-x,y,1/2-z
1/2+x,1/2+y,z
1/2-x,1/2-y,z
1/2+x,1/2-y,-z
1/2-x,1/2+y,-z
loop_
_atom_site_type_symbol
_atom_site_label
_atom_site_fract_x
_atom_site_fract_y
_atom_site_fract_z
Si Si1 0.931699 0.250000 0.750000
Si Si2 0.000000 0.500000 0.500000
Si Si3 0.392459 0.862728 0.904377
Si Si4 0.159682 0.427261 0.625217
O O1 0.876607 0.196572 0.694328
O O2 0.000000 0.261357 0.500000
O O3 0.070278 0.464045 0.670524
O O4 0.357490 0.904692 0.678121
O O5 0.500000 0.865806 0.000000
O O6 0.343216 0.876989 0.180384
O O7 0.250000 0.456420 0.750000
#
# Coordination Sequence:
#
# PCOD9326938 Si02
#       4
#     8   4  16  16
#     4  10  20  36  73 108 141 196 248 288 371 470
#     4  12  28  54  76 100 152 210 256 326 392 454
#     4  11  21  45  71 107 148 195 243 311 374 452
#     4  12  27  46  74 108 147 192 259 315 383 455
#
# _framework density 24.354023000000002
#
# number of rings (size 3 to 8) (size 9 to 14) (size 15 to 20)
#    0.000    0.727    3.636    5.455    0.000    5.818 
#    0.000    5.455    0.000    0.000    0.000    0.000 
#    0.000    0.000    0.000    0.000    0.000    0.000 
#
# Total GULP energy -61406.893729 kJ/mol
# GULP energy per Si atom -5582.444884 kJ/mol
# Density = 2.429859 g / cm^3
# Si number density = 24.354023 Si / 1000 Ang^3
#
#
#
# Elastic Constant Matrix: (Units=GPa)
#
#
# Indices 1 2 3 4 5 6 
#
# 1 188.9433 48.0894 40.4986 0.0002 -0.0076 -0.0003
# 2 48.0894 115.4660 10.3924 -0.0001 -0.0017 0.0003
# 3 40.4986 10.3924 99.2605 0.0019 -0.0151 -0.0016
# 4 0.0002 -0.0001 0.0019 38.7332 -0.0011 -0.0008
# 5 -0.0076 -0.0017 -0.0151 -0.0011 27.0098 0.0006
# 6 -0.0003 0.0003 -0.0016 -0.0008 0.0006 -3.5418
#
#
#
# Elastic Compliance Matrix: (Units=1/GPa)
#
#
# Indices 1 2 3 4 5 6 
#
# 1 0.006426 -0.002464 -0.002364 0.000000 0.000000 0.000000
# 2 -0.002464 0.009687 -0.000009 0.000000 0.000000 0.000001
# 3 -0.002364 -0.000009 0.011040 -0.000001 0.000006 -0.000005
# 4 0.000000 0.000000 -0.000001 0.025818 0.000001 -0.000006
# 5 0.000000 0.000000 0.000006 0.000001 0.037024 0.000006
# 6 0.000000 0.000001 -0.000005 -0.000006 0.000006 -0.282339
#
#
# Mechanical properties :
#
#
# Convention : Reuss Voigt Hill
#
# Bulk Modulus (GPa) = 57.20750 66.84784 62.02767
# Shear Modulus (GPa) = -28.27363 32.75286 2.23961
#
# Velocity S-wave (km/s) = -3.41096 3.67122 0.96000
# Velocity P-wave (km/s) = 2.83339 6.74377 5.17236
#
# Compressibility (1/GPa) = 0.01748023
#
# Stress axis : x y z
#
# Youngs Moduli (GPa) = 155.60916 103.22630 90.57983
#
# Poissons Ratio (x) = 0.25432 0.21413
# Poissons Ratio (y) = 0.38337 0.00082
# Poissons Ratio (z) = 0.36786 0.00094
#
# Static dielectric constant tensor:
#      x y z
#    x 2.291440 -0.000010 0.000000 
#    y -0.000010 2.025410 0.000000 
#    z 0.000000 0.000000 1.960390 
# 
# From -- ./inp_files/1550.got.cif
#   From: 2010.05.17/outbox.cif.g08.bks.cpg/sg22_1_cif.got.tgz:1550.got - 2010.06.03 23:40:54.
