data_PCOD9326456
_publ_section_title
;
Structure prediction by ZEFSAII (Michael W. Deem and Ramdas Pophale) SiO2 
 PCOD9326456
Probable space group: F 2 2 2
;
_chemical_formula_sum "Si O2"
_cell_formula_units_Z 120
_cell_length_a 24.029321
_cell_length_b 19.441626
_cell_length_c 14.304797
_cell_angle_alpha 90.000000
_cell_angle_beta 90.000000
_cell_angle_gamma 90.000000
_cell_volume 6682.758738
_symmetry_space_group_name_H-M "F 2 2 2"
_symmetry_group_IT_number 22
_symmetry_cell_setting 'orthorhombic'
loop_
_space_group_symop_operation_xyz
x,y,z
-x,-y,z
x,-y,-z
-x,y,-z
x,1/2+y,1/2+z
-x,1/2-y,1/2+z
x,1/2-y,1/2-z
-x,1/2+y,1/2-z
1/2+x,y,1/2+z
1/2-x,-y,1/2+z
1/2+x,-y,1/2-z
1/2-x,y,1/2-z
1/2+x,1/2+y,z
1/2-x,1/2-y,z
1/2+x,1/2-y,-z
1/2-x,1/2+y,-z
loop_
_atom_site_type_symbol
_atom_site_label
_atom_site_fract_x
_atom_site_fract_y
_atom_site_fract_z
Si Si1 0.585594 0.456668 0.264599
Si Si2 0.536881 0.894456 0.255800
Si Si3 0.437945 0.332520 0.043336
Si Si4 0.139624 0.576510 0.036070
Si Si5 0.160304 0.250000 0.750000
Si Si6 0.358519 0.131109 0.621818
Si Si7 0.234037 0.322210 0.910204
Si Si8 0.445450 0.174692 0.064522
O O1 0.571915 0.537156 0.268957
O O2 0.527337 0.418749 0.241840
O O3 0.611509 0.430631 0.361660
O O4 0.626685 0.435718 0.181317
O O5 0.557585 0.865636 0.354480
O O6 0.541633 0.839873 0.172428
O O7 0.423424 0.251784 0.050810
O O8 0.500000 0.338032 0.000000
O O9 0.393290 0.366258 0.973467
O O10 0.193942 0.624069 0.040703
O O11 0.151019 0.500000 0.000000
O O12 0.096597 0.616812 0.970907
O O13 0.125359 0.197898 0.814089
O O14 0.199171 0.295108 0.819436
O O15 0.292613 0.141593 0.610541
O O16 0.250000 0.250000 0.960358
O O17 0.500000 0.168242 0.000000
#
# Coordination Sequence:
#
# PCOD9326456 Si02
#       8
#    16  16  16  16   8  16  16  16
#     4  11  23  37  64  86 122 163 203 256 310 375
#     4  11  23  42  56  86 128 171 201 247 310 379
#     4  11  24  39  58  91 121 166 211 247 305 373
#     4  12  23  40  65  97 125 159 208 259 325 377
#     4  10  19  34  66  98 122 154 198 270 333 368
#     4  11  21  38  61  90 124 157 206 257 313 374
#     4  10  21  38  64  96 125 158 200 266 325 367
#     4  11  22  37  63  93 124 159 203 261 304 376
#
# _framework density 17.956655999999999
#
# number of rings (size 3 to 8) (size 9 to 14) (size 15 to 20)
#    0.000    1.067    5.333    3.800    0.000    0.800 
#    2.400    0.000    0.000    0.800    0.000    4.667 
#    0.000    0.000    0.000    0.000    0.000    0.000 
#
# Total GULP energy -167479.437982 kJ/mol
# GULP energy per Si atom -5582.647933 kJ/mol
# Density = 1.791579 g / cm^3
# Si number density = 17.956656 Si / 1000 Ang^3
#
#
#
# Elastic Constant Matrix: (Units=GPa)
#
#
# Indices 1 2 3 4 5 6 
#
# 1 62.2702 34.8678 22.6445 0.0000 0.0000 0.0000
# 2 34.8678 65.2712 24.6166 0.0000 0.0000 0.0000
# 3 22.6445 24.6166 107.0918 0.0000 0.0000 0.0000
# 4 0.0000 0.0000 0.0000 27.5319 0.0000 0.0000
# 5 0.0000 0.0000 0.0000 0.0000 14.5271 0.0000
# 6 0.0000 0.0000 0.0000 0.0000 0.0000 33.1168
#
#
#
# Elastic Compliance Matrix: (Units=1/GPa)
#
#
# Indices 1 2 3 4 5 6 
#
# 1 0.023407 -0.011647 -0.002272 0.000000 0.000000 0.000000
# 2 -0.011647 0.022570 -0.002725 0.000000 0.000000 0.000000
# 3 -0.002272 -0.002725 0.010445 0.000000 0.000000 0.000000
# 4 0.000000 0.000000 0.000000 0.036322 0.000000 0.000000
# 5 0.000000 0.000000 0.000000 0.000000 0.068837 0.000000
# 6 0.000000 0.000000 0.000000 0.000000 0.000000 0.030196
#
#
# Mechanical properties :
#
#
# Convention : Reuss Voigt Hill
#
# Bulk Modulus (GPa) = 43.22841 44.32121 43.77481
# Shear Modulus (GPa) = 21.47980 25.20211 23.34095
#
# Velocity S-wave (km/s) = 3.46237 3.75039 3.60925
# Velocity P-wave (km/s) = 6.33325 6.59468 6.46529
#
# Compressibility (1/GPa) = 0.02313293
#
# Stress axis : x y z
#
# Youngs Moduli (GPa) = 42.72224 44.30579 95.74242
#
# Poissons Ratio (x) = 0.51603 0.21754
# Poissons Ratio (y) = 0.49759 0.26093
# Poissons Ratio (z) = 0.09707 0.12075
#
# Static dielectric constant tensor:
#      x y z
#    x 1.611470 0.000000 0.000000 
#    y 0.000000 1.619780 0.000000 
#    z 0.000000 0.000000 1.615380 
# 
# From -- ./inp_files/24005.got.cif
#   From: 2010.05.17/outbox.cif.g08.bks.cpg/sg22_13_cif.got.tgz:24005.got - 2010.06.03 23:40:54.
