data_PCOD9326933
_publ_section_title
;
Structure prediction by ZEFSAII (Michael W. Deem and Ramdas Pophale) SiO2 
 PCOD9326933
Probable space group: F 2 2 2
;
_chemical_formula_sum "Si O2"
_cell_formula_units_Z 44
_cell_length_a 12.819693
_cell_length_b 19.077568
_cell_length_c 7.729871
_cell_angle_alpha 90.000000
_cell_angle_beta 90.000000
_cell_angle_gamma 90.000000
_cell_volume 1890.483458
_symmetry_space_group_name_H-M "F 2 2 2"
_symmetry_group_IT_number 22
_symmetry_cell_setting 'orthorhombic'
loop_
_space_group_symop_operation_xyz
x,y,z
-x,-y,z
x,-y,-z
-x,y,-z
x,1/2+y,1/2+z
-x,1/2-y,1/2+z
x,1/2-y,1/2-z
-x,1/2+y,1/2-z
1/2+x,y,1/2+z
1/2-x,-y,1/2+z
1/2+x,-y,1/2-z
1/2-x,y,1/2-z
1/2+x,1/2+y,z
1/2-x,1/2-y,z
1/2+x,1/2-y,-z
1/2-x,1/2+y,-z
loop_
_atom_site_type_symbol
_atom_site_label
_atom_site_fract_x
_atom_site_fract_y
_atom_site_fract_z
Si Si1 0.750000 0.250000 0.250000
Si Si2 0.000000 0.000000 0.250182
Si Si3 0.192970 0.500000 0.500000
Si Si4 0.227525 0.653987 0.953500
Si Si5 0.500000 0.870546 0.000000
O O1 0.707308 0.194475 0.396899
O O2 0.002914 0.074404 0.344040
O O3 0.889377 0.002784 0.155051
O O4 0.257936 0.429081 0.484305
O O5 0.250000 0.668535 0.750000
O O6 0.106888 0.671702 0.993498
#
# Coordination Sequence:
#
# PCOD9326933 Si02
#       5
#     4   8   8  16   8
#     4  12  30  52  72 102 158 206 250 312 400 438
#     4  10  20  36  68 114 148 186 244 320 376 446
#     4  11  22  41  74 108 146 193 254 313 380 442
#     4  12  26  49  75 109 153 203 254 319 381 463
#     4  11  22  40  70 108 146 193 252 304 382 449
#
# _framework density 23.274469
#
# number of rings (size 3 to 8) (size 9 to 14) (size 15 to 20)
#    0.000    0.727    3.636    4.909    2.545    0.000 
#    6.545    0.000    0.000    0.000    0.000    0.000 
#    0.000    0.000    0.000    0.000    0.000    0.000 
#
# Total GULP energy -61309.363694 kJ/mol
# GULP energy per Si atom -5573.578518 kJ/mol
# Density = 2.322150 g / cm^3
# Si number density = 23.274469 Si / 1000 Ang^3
#
#
#
# Elastic Constant Matrix: (Units=GPa)
#
#
# Indices 1 2 3 4 5 6 
#
# 1 134.1046 22.1524 27.8323 0.0000 0.0000 0.0000
# 2 22.1524 141.2217 49.9478 0.0000 0.0000 0.0000
# 3 27.8323 49.9478 156.5752 0.0000 0.0000 0.0000
# 4 0.0000 0.0000 0.0000 16.9309 0.0000 0.0000
# 5 0.0000 0.0000 0.0000 0.0000 37.2800 0.0000
# 6 0.0000 0.0000 0.0000 0.0000 0.0000 20.6264
#
#
#
# Elastic Compliance Matrix: (Units=1/GPa)
#
#
# Indices 1 2 3 4 5 6 
#
# 1 0.007828 -0.000829 -0.001127 0.000000 0.000000 0.000000
# 2 -0.000829 0.008069 -0.002427 0.000000 0.000000 0.000000
# 3 -0.001127 -0.002427 0.007361 0.000000 0.000000 0.000000
# 4 0.000000 0.000000 0.000000 0.059064 0.000000 0.000000
# 5 0.000000 0.000000 0.000000 0.000000 0.026824 0.000000
# 6 0.000000 0.000000 0.000000 0.000000 0.000000 0.048482
#
#
# Mechanical properties :
#
#
# Convention : Reuss Voigt Hill
#
# Bulk Modulus (GPa) = 69.00150 70.19629 69.59890
# Shear Modulus (GPa) = 29.20144 37.09872 33.15008
#
# Velocity S-wave (km/s) = 3.54595 3.99678 3.77810
# Velocity P-wave (km/s) = 6.81735 7.17807 7.00004
#
# Compressibility (1/GPa) = 0.01449244
#
# Stress axis : x y z
#
# Youngs Moduli (GPa) = 127.75091 123.92406 135.84819
#
# Poissons Ratio (x) = 0.10277 0.15308
# Poissons Ratio (y) = 0.10595 0.32967
# Poissons Ratio (z) = 0.14396 0.30073
#
# Static dielectric constant tensor:
#      x y z
#    x 1.917380 0.000000 0.000000 
#    y 0.000000 1.846970 0.000000 
#    z 0.000000 0.000000 1.994900 
# 
# From -- ./inp_files/8207.got.cif
#   From: 2010.05.17/outbox.cif.g08.bks.cpg/sg22_5_cif.got.tgz:8207.got - 2010.06.03 23:40:54.
