data_PCOD9326907
_publ_section_title
;
Structure prediction by ZEFSAII (Michael W. Deem and Ramdas Pophale) SiO2 
 PCOD9326907
Probable space group: F 2 2 2
;
_chemical_formula_sum "Si O2"
_cell_formula_units_Z 92
_cell_length_a 10.483810
_cell_length_b 20.539980
_cell_length_c 20.865463
_cell_angle_alpha 90.000000
_cell_angle_beta 90.000000
_cell_angle_gamma 90.000000
_cell_volume 4493.111375
_symmetry_space_group_name_H-M "F 2 2 2"
_symmetry_group_IT_number 22
_symmetry_cell_setting 'orthorhombic'
loop_
_space_group_symop_operation_xyz
x,y,z
-x,-y,z
x,-y,-z
-x,y,-z
x,1/2+y,1/2+z
-x,1/2-y,1/2+z
x,1/2-y,1/2-z
-x,1/2+y,1/2-z
1/2+x,y,1/2+z
1/2-x,-y,1/2+z
1/2+x,-y,1/2-z
1/2-x,y,1/2-z
1/2+x,1/2+y,z
1/2-x,1/2-y,z
1/2+x,1/2-y,-z
1/2-x,1/2+y,-z
loop_
_atom_site_type_symbol
_atom_site_label
_atom_site_fract_x
_atom_site_fract_y
_atom_site_fract_z
Si Si1 0.895613 0.323736 0.846422
Si Si2 0.436407 0.636511 0.224161
Si Si3 0.750000 0.982636 0.750000
Si Si4 0.601359 0.180181 0.619793
Si Si5 0.131182 0.461465 0.120846
Si Si6 0.000000 0.389987 0.500000
Si Si7 0.750000 0.750000 0.750000
Si Si8 0.802897 0.000000 0.000000
O O1 0.741673 0.320460 0.848752
O O2 0.942746 0.254737 0.872211
O O3 0.915499 0.387513 0.888205
O O4 0.967510 0.340064 0.780255
O O5 0.365454 0.569033 0.238398
O O6 0.517823 0.630781 0.160842
O O7 0.339094 0.697356 0.214043
O O8 0.790534 0.024938 0.687540
O O9 0.578719 0.155624 0.548519
O O10 0.217622 0.479851 0.060565
O O11 0.000000 0.500000 0.124876
O O12 0.892098 0.440554 0.476017
#
# Coordination Sequence:
#
# PCOD9326907 Si02
#       8
#    16  16   8  16  16   8   4   8
#     4  11  23  42  67  97 135 171 221 271 339 399
#     4  11  21  41  65  98 135 174 219 274 342 390
#     4  11  26  39  68 101 132 173 228 286 324 391
#     4  11  23  43  68  98 134 177 219 278 331 409
#     4  12  25  46  67  99 139 177 228 275 338 407
#     4  11  24  46  70  98 129 170 238 272 329 404
#     4  10  20  36  62  96 132 170 216 256 334 402
#     4  11  25  48  72  94 131 187 220 278 342 397
#
# _framework density 20.475788999999999
#
# number of rings (size 3 to 8) (size 9 to 14) (size 15 to 20)
#    0.000    0.870    5.217    1.826    2.435    1.391 
#    6.261    1.739    0.000    0.000    0.000    0.000 
#    0.000    0.000    0.000    0.000    0.000    0.000 
#
# Total GULP energy -128198.260222 kJ/mol
# GULP energy per Si atom -5573.837401 kJ/mol
# Density = 2.042918 g / cm^3
# Si number density = 20.475789 Si / 1000 Ang^3
#
#
#
# Elastic Constant Matrix: (Units=GPa)
#
#
# Indices 1 2 3 4 5 6 
#
# 1 85.3273 20.0985 31.6108 0.0000 0.0000 0.0000
# 2 20.0985 101.9132 20.8422 0.0000 0.0000 0.0000
# 3 31.6108 20.8422 65.0666 0.0000 0.0000 0.0000
# 4 0.0000 0.0000 0.0000 25.0254 0.0000 0.0000
# 5 0.0000 0.0000 0.0000 0.0000 24.9024 0.0000
# 6 0.0000 0.0000 0.0000 0.0000 0.0000 -393.6498
#
#
#
# Elastic Compliance Matrix: (Units=1/GPa)
#
#
# Indices 1 2 3 4 5 6 
#
# 1 0.014508 -0.001519 -0.006562 0.000000 0.000000 0.000000
# 2 -0.001519 0.010659 -0.002676 0.000000 0.000000 0.000000
# 3 -0.006562 -0.002676 0.019414 0.000000 0.000000 0.000000
# 4 0.000000 0.000000 0.000000 0.039959 0.000000 0.000000
# 5 0.000000 0.000000 0.000000 0.000000 0.040157 0.000000
# 6 0.000000 0.000000 0.000000 0.000000 0.000000 -0.002540
#
#
# Mechanical properties :
#
#
# Convention : Reuss Voigt Hill
#
# Bulk Modulus (GPa) = 43.35227 44.15668 43.75448
# Shear Modulus (GPa) = 33.03360 -56.76067 -11.86354
#
# Velocity S-wave (km/s) = 4.02095 -5.27077 -2.40967
# Velocity P-wave (km/s) = 6.54032 3.92801 3.69774
#
# Compressibility (1/GPa) = 0.02306684
#
# Stress axis : x y z
#
# Youngs Moduli (GPa) = 68.92570 93.81558 51.50918
#
# Poissons Ratio (x) = 0.14253 0.33800
# Poissons Ratio (y) = 0.10472 0.13785
# Poissons Ratio (z) = 0.45228 0.25108
#
# Static dielectric constant tensor:
#      x y z
#    x 1.705290 0.000000 0.000000 
#    y 0.000000 1.663120 0.000000 
#    z 0.000000 0.000000 2.986710 
# 
# From -- ./inp_files/41907.got.cif
#   From: 2010.05.17/outbox.cif.g08.bks.cpg/sg22_21_cif.got.tgz:41907.got - 2010.06.03 23:40:54.
