data_PCOD9326325
_publ_section_title
;
Structure prediction by ZEFSAII (Michael W. Deem and Ramdas Pophale) SiO2 
 PCOD9326325
Probable space group: F 2 2 2
;
_chemical_formula_sum "Si O2"
_cell_formula_units_Z 104
_cell_length_a 11.488415
_cell_length_b 18.501509
_cell_length_c 28.023668
_cell_angle_alpha 90.000000
_cell_angle_beta 90.000000
_cell_angle_gamma 90.000000
_cell_volume 5956.515083
_symmetry_space_group_name_H-M "F 2 2 2"
_symmetry_group_IT_number 22
_symmetry_cell_setting 'orthorhombic'
loop_
_space_group_symop_operation_xyz
x,y,z
-x,-y,z
x,-y,-z
-x,y,-z
x,1/2+y,1/2+z
-x,1/2-y,1/2+z
x,1/2-y,1/2-z
-x,1/2+y,1/2-z
1/2+x,y,1/2+z
1/2-x,-y,1/2+z
1/2+x,-y,1/2-z
1/2-x,y,1/2-z
1/2+x,1/2+y,z
1/2-x,1/2-y,z
1/2+x,1/2-y,-z
1/2-x,1/2+y,-z
loop_
_atom_site_type_symbol
_atom_site_label
_atom_site_fract_x
_atom_site_fract_y
_atom_site_fract_z
Si Si1 0.000000 0.762642 0.500000
Si Si2 0.889371 0.468515 0.631613
Si Si3 0.309889 0.117368 0.016662
Si Si4 0.250000 0.250000 0.353891
Si Si5 0.695381 0.895228 0.197344
Si Si6 0.087515 0.666830 0.571717
Si Si7 0.500000 0.000000 0.157771
Si Si8 0.682269 0.975780 0.921463
O O1 0.894885 0.814842 0.485615
O O2 0.013226 0.711110 0.454113
O O3 0.793840 0.432813 0.665020
O O4 0.942718 0.407878 0.596882
O O5 0.811845 0.522135 0.599850
O O6 0.000000 0.500000 0.658551
O O7 0.183128 0.145564 0.031547
O O8 0.341418 0.056573 0.056663
O O9 0.321334 0.077697 0.966002
O O10 0.309108 0.313103 0.322377
O O11 0.154227 0.285758 0.388601
O O12 0.750000 0.895615 0.250000
O O13 0.577439 0.942208 0.188023
O O14 0.408693 0.962188 0.121083
#
# Coordination Sequence:
#
# PCOD9326325 Si02
#       8
#     8  16  16   8  16  16   8  16
#     4  12  20  27  49  66 106 146 178 224 250 296
#     4   9  20  37  55  73 108 137 178 227 276 326
#     4  10  19  32  48  74 110 140 192 216 250 314
#     4  10  19  40  54  78 118 136 182 220 279 328
#     4  10  22  37  63  87 107 136 176 237 287 344
#     4  10  21  33  47  76 105 147 179 221 254 308
#     4  10  20  35  56  86 114 136 182 229 284 328
#     4   9  19  33  52  78 103 148 180 219 266 313
#
# _framework density 17.459873000000002
#
# number of rings (size 3 to 8) (size 9 to 14) (size 15 to 20)
#    0.000    2.154    1.538    2.077    5.385    1.231 
#    0.000    0.000    0.000    0.000    0.000    0.000 
#    0.000    0.000    0.000    0.000    0.000    0.000 
#
# Total GULP energy -144827.271090 kJ/mol
# GULP energy per Si atom -5570.279657 kJ/mol
# Density = 1.742013 g / cm^3
# Si number density = 17.459873 Si / 1000 Ang^3
#
#
#
# Elastic Constant Matrix: (Units=GPa)
#
#
# Indices 1 2 3 4 5 6 
#
# 1 68.4738 41.6419 27.6667 0.0000 0.0000 0.0000
# 2 41.6419 57.1033 25.1117 0.0000 0.0000 0.0000
# 3 27.6667 25.1117 82.5055 0.0000 0.0000 0.0000
# 4 0.0000 0.0000 0.0000 -2.1115 0.0000 0.0000
# 5 0.0000 0.0000 0.0000 0.0000 18.8360 0.0000
# 6 0.0000 0.0000 0.0000 0.0000 0.0000 8.7866
#
#
#
# Elastic Compliance Matrix: (Units=1/GPa)
#
#
# Indices 1 2 3 4 5 6 
#
# 1 0.027113 -0.018211 -0.003549 0.000000 0.000000 0.000000
# 2 -0.018211 0.032450 -0.003770 0.000000 0.000000 0.000000
# 3 -0.003549 -0.003770 0.014458 0.000000 0.000000 0.000000
# 4 0.000000 0.000000 0.000000 -0.473594 0.000000 0.000000
# 5 0.000000 0.000000 0.000000 0.000000 0.053090 0.000000
# 6 0.000000 0.000000 0.000000 0.000000 0.000000 0.113810
#
#
# Mechanical properties :
#
#
# Convention : Reuss Voigt Hill
#
# Bulk Modulus (GPa) = 43.55207 44.10258 43.82732
# Shear Modulus (GPa) = -28.74231 12.67970 -8.03130
#
# Velocity S-wave (km/s) = -4.06173 2.69777 -2.14706
# Velocity P-wave (km/s) = 1.73244 5.91762 4.36002
#
# Compressibility (1/GPa) = 0.02296102
#
# Stress axis : x y z
#
# Youngs Moduli (GPa) = 36.88242 30.81639 69.16620
#
# Poissons Ratio (x) = 0.56120 0.24548
# Poissons Ratio (y) = 0.67167 0.26075
# Poissons Ratio (z) = 0.13090 0.11617
#
# Static dielectric constant tensor:
#      x y z
#    x 1.604580 0.000000 0.000000 
#    y 0.000000 1.631970 0.000000 
#    z 0.000000 0.000000 1.616350 
# 
# From -- ./inp_files/24703.got.cif
#   From: 2010.05.17/outbox.cif.g08.bks.cpg/sg22_13_cif.got.tgz:24703.got - 2010.06.03 23:40:54.
