data_PCOD9326441
_publ_section_title
;
Structure prediction by ZEFSAII (Michael W. Deem and Ramdas Pophale) SiO2 
 PCOD9326441
Probable space group: F 2 2 2
;
_chemical_formula_sum "Si O2"
_cell_formula_units_Z 56
_cell_length_a 4.919654
_cell_length_b 26.455549
_cell_length_c 18.585234
_cell_angle_alpha 90.000000
_cell_angle_beta 90.000000
_cell_angle_gamma 90.000000
_cell_volume 2418.908116
_symmetry_space_group_name_H-M "F 2 2 2"
_symmetry_group_IT_number 22
_symmetry_cell_setting 'orthorhombic'
loop_
_space_group_symop_operation_xyz
x,y,z
-x,-y,z
x,-y,-z
-x,y,-z
x,1/2+y,1/2+z
-x,1/2-y,1/2+z
x,1/2-y,1/2-z
-x,1/2+y,1/2-z
1/2+x,y,1/2+z
1/2-x,-y,1/2+z
1/2+x,-y,1/2-z
1/2-x,y,1/2-z
1/2+x,1/2+y,z
1/2-x,1/2-y,z
1/2+x,1/2-y,-z
1/2-x,1/2+y,-z
loop_
_atom_site_type_symbol
_atom_site_label
_atom_site_fract_x
_atom_site_fract_y
_atom_site_fract_z
Si Si1 0.578996 0.361514 0.882295
Si Si2 0.582792 0.797434 0.918501
Si Si3 0.250000 0.413572 0.250000
Si Si4 0.230957 0.966141 0.610007
O O1 0.301691 0.342257 0.915393
O O2 0.552007 0.379872 0.799369
O O3 0.690039 0.411728 0.922374
O O4 0.807492 0.317990 0.883434
O O5 0.750000 0.750000 0.887063
O O6 0.500000 0.784535 0.000000
O O7 0.119504 0.448123 0.188516
O O8 0.500000 0.000000 0.617532
O O9 0.000000 0.000000 0.576000
#
# Coordination Sequence:
#
# PCOD9326441 Si02
#       4
#    16  16   8  16
#     4  10  23  37  63  96 128 153 212 257 316 366
#     4  12  24  44  66  86 112 163 223 272 309 367
#     4   8  22  34  63  94 138 162 201 246 314 386
#     4  10  19  34  61  93 131 171 204 238 297 385
#
# _framework density 23.150942000000001
#
# number of rings (size 3 to 8) (size 9 to 14) (size 15 to 20)
#    1.714    0.000    0.000    6.000    0.000    3.429 
#    0.000    4.286    0.000   12.857    0.000    0.000 
#    0.000    0.000    0.000    0.000    0.000    0.000 
#
# Total GULP energy -78049.050133 kJ/mol
# GULP energy per Si atom -5574.932152 kJ/mol
# Density = 2.309825 g / cm^3
# Si number density = 23.150942 Si / 1000 Ang^3
#
#
#
# Elastic Constant Matrix: (Units=GPa)
#
#
# Indices 1 2 3 4 5 6 
#
# 1 131.7443 29.4335 23.9978 0.0000 0.0000 0.0000
# 2 29.4335 75.1163 22.6785 0.0000 0.0000 0.0000
# 3 23.9978 22.6785 60.2744 0.0000 0.0000 0.0000
# 4 0.0000 0.0000 0.0000 -1.3065 0.0000 0.0000
# 5 0.0000 0.0000 0.0000 0.0000 17.2281 0.0000
# 6 0.0000 0.0000 0.0000 0.0000 0.0000 45.9233
#
#
#
# Elastic Compliance Matrix: (Units=1/GPa)
#
#
# Indices 1 2 3 4 5 6 
#
# 1 0.008625 -0.002643 -0.002440 0.000000 0.000000 0.000000
# 2 -0.002643 0.015829 -0.004903 0.000000 0.000000 0.000000
# 3 -0.002440 -0.004903 0.019407 0.000000 0.000000 0.000000
# 4 0.000000 0.000000 0.000000 -0.765375 0.000000 0.000000
# 5 0.000000 0.000000 0.000000 0.000000 0.058045 0.000000
# 6 0.000000 0.000000 0.000000 0.000000 0.000000 0.021775
#
#
# Mechanical properties :
#
#
# Convention : Reuss Voigt Hill
#
# Bulk Modulus (GPa) = 41.86037 46.59495 44.22766
# Shear Modulus (GPa) = -8.14653 25.10399 8.47873
#
# Velocity S-wave (km/s) = -1.87790 3.29654 1.91581
# Velocity P-wave (km/s) = 3.66316 5.88726 4.90299
#
# Compressibility (1/GPa) = 0.02388894
#
# Stress axis : x y z
#
# Youngs Moduli (GPa) = 115.93698 63.17622 51.52792
#
# Poissons Ratio (x) = 0.16699 0.12571
# Poissons Ratio (y) = 0.30645 0.25265
# Poissons Ratio (z) = 0.28284 0.30977
#
# Static dielectric constant tensor:
#      x y z
#    x 1.821090 0.000000 0.000000 
#    y 0.000000 1.027990 0.000000 
#    z 0.000000 0.000000 1.874390 
# 
# From -- ./inp_files/40839.got.cif
#   From: 2010.05.17/outbox.cif.g08.bks.cpg/sg22_21_cif.got.tgz:40839.got - 2010.06.03 23:40:54.
