data_PCOD9326900
_publ_section_title
;
Structure prediction by ZEFSAII (Michael W. Deem and Ramdas Pophale) SiO2 
 PCOD9326900
Probable space group: F 2 2 2
;
_chemical_formula_sum "Si O2"
_cell_formula_units_Z 84
_cell_length_a 19.705512
_cell_length_b 13.904785
_cell_length_c 14.248163
_cell_angle_alpha 90.000000
_cell_angle_beta 90.000000
_cell_angle_gamma 90.000000
_cell_volume 3904.009595
_symmetry_space_group_name_H-M "F 2 2 2"
_symmetry_group_IT_number 22
_symmetry_cell_setting 'orthorhombic'
loop_
_space_group_symop_operation_xyz
x,y,z
-x,-y,z
x,-y,-z
-x,y,-z
x,1/2+y,1/2+z
-x,1/2-y,1/2+z
x,1/2-y,1/2-z
-x,1/2+y,1/2-z
1/2+x,y,1/2+z
1/2-x,-y,1/2+z
1/2+x,-y,1/2-z
1/2-x,y,1/2-z
1/2+x,1/2+y,z
1/2-x,1/2-y,z
1/2+x,1/2-y,-z
1/2-x,1/2+y,-z
loop_
_atom_site_type_symbol
_atom_site_label
_atom_site_fract_x
_atom_site_fract_y
_atom_site_fract_z
Si Si1 0.390313 0.750000 0.250000
Si Si2 0.398396 0.052094 0.836569
Si Si3 0.550211 0.818891 0.567183
Si Si4 0.500000 0.500000 0.174038
Si Si5 0.500000 0.500000 0.500000
Si Si6 0.293423 0.653849 0.022949
Si Si7 0.258292 0.474397 0.360407
O O1 0.361305 0.852346 0.211419
O O2 0.438049 0.767841 0.336389
O O3 0.436905 0.005018 0.746893
O O4 0.338266 0.986910 0.875812
O O5 0.451310 0.057867 0.924583
O O6 0.500000 0.764227 0.500000
O O7 0.509929 0.912606 0.602663
O O8 0.625556 0.832317 0.526337
O O9 0.250000 0.750000 0.043549
O O10 0.276418 0.571206 0.098980
O O11 0.271002 0.611595 0.922878
O O12 0.250000 0.461890 0.250000
#
# Coordination Sequence:
#
# PCOD9326900 Si02
#       7
#     8  16  16   8   4  16  16
#     4  10  22  42  61 104 131 176 234 282 358 406
#     4  10  21  39  64  95 135 176 229 287 349 428
#     4  11  24  40  70  96 139 178 233 292 352 428
#     4   9  21  39  65  98 132 174 226 282 358 404
#     4  10  20  36  62  84 134 174 220 280 342 416
#     4  11  26  46  67 104 140 188 240 290 361 428
#     4  11  24  42  71  97 136 184 235 284 358 418
#
# _framework density 21.516341000000001
#
# number of rings (size 3 to 8) (size 9 to 14) (size 15 to 20)
#    0.000    1.524    0.000    4.857    9.333    0.762 
#    6.857    0.000    0.000    0.000    0.000    0.000 
#    0.000    0.000    0.000    0.000    0.000    0.000 
#
# Total GULP energy -116939.968509 kJ/mol
# GULP energy per Si atom -5568.569929 kJ/mol
# Density = 2.146737 g / cm^3
# Si number density = 21.516341 Si / 1000 Ang^3
#
#
#
# Elastic Constant Matrix: (Units=GPa)
#
#
# Indices 1 2 3 4 5 6 
#
# 1 116.0697 17.0499 42.4275 0.0000 0.0000 0.0000
# 2 17.0499 55.5114 18.6949 0.0000 0.0000 0.0000
# 3 42.4275 18.6949 164.2573 0.0000 0.0000 0.0000
# 4 0.0000 0.0000 0.0000 18.0964 0.0000 0.0000
# 5 0.0000 0.0000 0.0000 0.0000 12.4214 0.0000
# 6 0.0000 0.0000 0.0000 0.0000 0.0000 10.1791
#
#
#
# Elastic Compliance Matrix: (Units=1/GPa)
#
#
# Indices 1 2 3 4 5 6 
#
# 1 0.009774 -0.002238 -0.002270 0.000000 0.000000 0.000000
# 2 -0.002238 0.019245 -0.001612 0.000000 0.000000 0.000000
# 3 -0.002270 -0.001612 0.006858 0.000000 0.000000 0.000000
# 4 0.000000 0.000000 0.000000 0.055260 0.000000 0.000000
# 5 0.000000 0.000000 0.000000 0.000000 0.080506 0.000000
# 6 0.000000 0.000000 0.000000 0.000000 0.000000 0.098240
#
#
# Mechanical properties :
#
#
# Convention : Reuss Voigt Hill
#
# Bulk Modulus (GPa) = 42.30712 54.68700 48.49706
# Shear Modulus (GPa) = 17.24134 25.31714 21.27924
#
# Velocity S-wave (km/s) = 2.83382 3.43395 3.14822
# Velocity P-wave (km/s) = 5.51478 6.41828 5.98361
#
# Compressibility (1/GPa) = 0.02363668
#
# Stress axis : x y z
#
# Youngs Moduli (GPa) = 102.31301 51.96278 145.81848
#
# Poissons Ratio (x) = 0.11627 0.33100
# Poissons Ratio (y) = 0.22893 0.23511
# Poissons Ratio (z) = 0.23224 0.08378
#
# Static dielectric constant tensor:
#      x y z
#    x 1.710990 0.000000 0.000000 
#    y 0.000000 1.974110 0.000000 
#    z 0.000000 0.000000 1.795280 
# 
# From -- ./inp_files/31470.got.cif
#   From: 2010.05.17/outbox.cif.g08.bks.cpg/sg22_16_cif.got.tgz:31470.got - 2010.06.03 23:40:54.
