data_PCOD9326732
_publ_section_title
;
Structure prediction by ZEFSAII (Michael W. Deem and Ramdas Pophale) SiO2 
 PCOD9326732
Probable space group: F 2 2 2
;
_chemical_formula_sum "Si O2"
_cell_formula_units_Z 116
_cell_length_a 29.428993
_cell_length_b 8.908066
_cell_length_c 25.082515
_cell_angle_alpha 90.000000
_cell_angle_beta 90.000000
_cell_angle_gamma 90.000000
_cell_volume 6575.517053
_symmetry_space_group_name_H-M "F 2 2 2"
_symmetry_group_IT_number 22
_symmetry_cell_setting 'orthorhombic'
loop_
_space_group_symop_operation_xyz
x,y,z
-x,-y,z
x,-y,-z
-x,y,-z
x,1/2+y,1/2+z
-x,1/2-y,1/2+z
x,1/2-y,1/2-z
-x,1/2+y,1/2-z
1/2+x,y,1/2+z
1/2-x,-y,1/2+z
1/2+x,-y,1/2-z
1/2-x,y,1/2-z
1/2+x,1/2+y,z
1/2-x,1/2-y,z
1/2+x,1/2-y,-z
1/2-x,1/2+y,-z
loop_
_atom_site_type_symbol
_atom_site_label
_atom_site_fract_x
_atom_site_fract_y
_atom_site_fract_z
Si Si1 0.506669 0.762386 0.421195
Si Si2 0.523251 0.158868 0.802343
Si Si3 0.076371 0.531998 0.441324
Si Si4 0.000000 0.500000 0.000000
Si Si5 0.688672 0.842477 0.805012
Si Si6 0.760655 0.420078 0.686144
Si Si7 0.878850 0.088921 0.738562
Si Si8 0.357657 0.449272 0.842921
O O1 0.510029 0.730890 0.358403
O O2 0.455874 0.820091 0.436380
O O3 0.520715 0.619313 0.457290
O O4 0.541176 0.896565 0.432304
O O5 0.508922 0.250000 0.750000
O O6 0.577130 0.131250 0.795555
O O7 0.500000 0.000000 0.800277
O O8 0.095323 0.500000 0.500000
O O9 0.115190 0.529825 0.396995
O O10 0.699903 0.750000 0.750000
O O11 0.660401 0.720803 0.838167
O O12 0.730763 0.932815 0.830772
O O13 0.654567 0.976388 0.790313
O O14 0.750000 0.421032 0.750000
O O15 0.750000 0.250000 0.667701
O O16 0.811941 0.455518 0.668448
O O17 0.856065 0.250000 0.750000
O O18 0.890058 0.003268 0.793966
#
# Coordination Sequence:
#
# PCOD9326732 Si02
#       8
#    16  16  16   4  16  16  16  16
#     4  11  23  42  66  86 121 165 215 264 313 372
#     4  11  25  35  53  83 126 168 200 249 310 381
#     4  11  23  43  64  87 115 160 213 264 312 363
#     4  12  20  42  68  96 104 166 232 274 312 338
#     4  10  20  32  56  84 121 154 204 241 289 367
#     4  11  20  35  58  86 121 162 197 239 299 371
#     4  10  20  35  48  82 122 163 193 238 298 365
#     4  11  23  34  61  88 119 162 198 257 302 365
#
# _framework density 17.641199
#
# number of rings (size 3 to 8) (size 9 to 14) (size 15 to 20)
#    0.000    1.241    4.828    3.310    5.793    0.552 
#    0.000    0.000    0.000    1.655    0.000    0.000 
#    0.000    0.000    0.000    0.000    0.000    0.000 
#
# Total GULP energy -161603.304934 kJ/mol
# GULP energy per Si atom -5572.527756 kJ/mol
# Density = 1.760105 g / cm^3
# Si number density = 17.641199 Si / 1000 Ang^3
#
#
#
# Elastic Constant Matrix: (Units=GPa)
#
#
# Indices 1 2 3 4 5 6 
#
# 1 68.8541 28.2513 42.3694 0.0000 0.0000 0.0000
# 2 28.2513 107.5733 14.1880 0.0000 0.0000 0.0000
# 3 42.3694 14.1880 106.8558 0.0000 0.0000 0.0000
# 4 0.0000 0.0000 0.0000 25.9260 0.0000 0.0000
# 5 0.0000 0.0000 0.0000 0.0000 15.1358 0.0000
# 6 0.0000 0.0000 0.0000 0.0000 0.0000 20.5717
#
#
#
# Elastic Compliance Matrix: (Units=1/GPa)
#
#
# Indices 1 2 3 4 5 6 
#
# 1 0.021182 -0.004535 -0.007797 0.000000 0.000000 0.000000
# 2 -0.004535 0.010432 0.000413 0.000000 0.000000 0.000000
# 3 -0.007797 0.000413 0.012395 0.000000 0.000000 0.000000
# 4 0.000000 0.000000 0.000000 0.038571 0.000000 0.000000
# 5 0.000000 0.000000 0.000000 0.000000 0.066069 0.000000
# 6 0.000000 0.000000 0.000000 0.000000 0.000000 0.048610
#
#
# Mechanical properties :
#
#
# Convention : Reuss Voigt Hill
#
# Bulk Modulus (GPa) = 49.57272 50.32229 49.94750
# Shear Modulus (GPa) = 21.94712 25.55834 23.75273
#
# Velocity S-wave (km/s) = 3.53098 3.81042 3.67336
# Velocity P-wave (km/s) = 6.69218 6.92434 6.80925
#
# Compressibility (1/GPa) = 0.02017238
#
# Stress axis : x y z
#
# Youngs Moduli (GPa) = 47.21059 95.85510 80.67732
#
# Poissons Ratio (x) = 0.43466 0.62901
# Poissons Ratio (y) = 0.21408 -0.03330
# Poissons Ratio (z) = 0.36809 -0.03957
#
# Static dielectric constant tensor:
#      x y z
#    x 1.737210 0.000000 0.000000 
#    y 0.000000 1.641250 0.000000 
#    z 0.000000 0.000000 1.552390 
# 
# From -- ./inp_files/50753.got.cif
#   From: 2010.05.17/outbox.cif.g08.bks.cpg/sg22_26_cif.got.tgz:50753.got - 2010.06.03 23:40:54.
