data_PCOD9326395
_publ_section_title
;
Structure prediction by ZEFSAII (Michael W. Deem and Ramdas Pophale) SiO2 
 PCOD9326395
Probable space group: F 2 2 2
;
_chemical_formula_sum "Si O2"
_cell_formula_units_Z 72
_cell_length_a 21.204308
_cell_length_b 12.362156
_cell_length_c 12.481688
_cell_angle_alpha 90.000000
_cell_angle_beta 90.000000
_cell_angle_gamma 90.000000
_cell_volume 3271.836900
_symmetry_space_group_name_H-M "F 2 2 2"
_symmetry_group_IT_number 22
_symmetry_cell_setting 'orthorhombic'
loop_
_space_group_symop_operation_xyz
x,y,z
-x,-y,z
x,-y,-z
-x,y,-z
x,1/2+y,1/2+z
-x,1/2-y,1/2+z
x,1/2-y,1/2-z
-x,1/2+y,1/2-z
1/2+x,y,1/2+z
1/2-x,-y,1/2+z
1/2+x,-y,1/2-z
1/2-x,y,1/2-z
1/2+x,1/2+y,z
1/2-x,1/2-y,z
1/2+x,1/2-y,-z
1/2-x,1/2+y,-z
loop_
_atom_site_type_symbol
_atom_site_label
_atom_site_fract_x
_atom_site_fract_y
_atom_site_fract_z
Si Si1 0.182006 0.980467 0.284293
Si Si2 0.072284 0.541104 0.622165
Si Si3 0.644490 0.250000 0.250000
Si Si4 0.042879 0.794213 0.412663
Si Si5 0.948290 0.750000 0.250000
Si Si6 0.115967 0.000000 0.500000
O O1 0.250000 0.023634 0.250000
O O2 0.184620 0.850386 0.290791
O O3 0.126117 0.993931 0.199275
O O4 0.158548 0.026863 0.397167
O O5 0.085120 0.500000 0.500000
O O6 0.080775 0.667918 0.662662
O O7 0.000000 0.500000 0.642546
O O8 0.597006 0.270392 0.149231
O O9 0.000000 0.733171 0.500000
O O10 0.993525 0.826645 0.320806
O O11 0.073549 0.898289 0.466678
#
# Coordination Sequence:
#
# PCOD9326395 Si02
#       6
#    16  16   8  16   8   8
#     4  11  24  44  68  98 142 188 246 295 371 452
#     4  11  25  44  72 109 150 192 244 315 381 446
#     4   9  21  38  63  98 133 181 237 288 347 437
#     4  10  19  33  64  96 138 174 229 291 363 428
#     4  11  24  40  68 108 148 187 236 298 380 457
#     4  10  21  38  60  98 127 184 236 298 358 444
#
# _framework density 22.005987999999999
#
# number of rings (size 3 to 8) (size 9 to 14) (size 15 to 20)
#    0.000    1.556    0.000    6.000    7.778    1.778 
#    0.000    0.556    0.000    0.000    0.000    0.000 
#    0.000    0.000    0.000    0.000    0.000    0.000 
#
# Total GULP energy -100254.974550 kJ/mol
# GULP energy per Si atom -5569.720808 kJ/mol
# Density = 2.195590 g / cm^3
# Si number density = 22.005988 Si / 1000 Ang^3
#
#
#
# Elastic Constant Matrix: (Units=GPa)
#
#
# Indices 1 2 3 4 5 6 
#
# 1 107.3506 6.9790 63.6019 0.0000 0.0000 0.0000
# 2 6.9790 93.3252 32.8638 0.0000 0.0000 0.0000
# 3 63.6019 32.8638 174.6410 0.0000 0.0000 0.0000
# 4 0.0000 0.0000 0.0000 40.1004 0.0000 0.0000
# 5 0.0000 0.0000 0.0000 0.0000 13.9849 0.0000
# 6 0.0000 0.0000 0.0000 0.0000 0.0000 13.0279
#
#
#
# Elastic Compliance Matrix: (Units=1/GPa)
#
#
# Indices 1 2 3 4 5 6 
#
# 1 0.011919 0.000682 -0.004469 0.000000 0.000000 0.000000
# 2 0.000682 0.011515 -0.002415 0.000000 0.000000 0.000000
# 3 -0.004469 -0.002415 0.007808 0.000000 0.000000 0.000000
# 4 0.000000 0.000000 0.000000 0.024937 0.000000 0.000000
# 5 0.000000 0.000000 0.000000 0.000000 0.071506 0.000000
# 6 0.000000 0.000000 0.000000 0.000000 0.000000 0.076759
#
#
# Mechanical properties :
#
#
# Convention : Reuss Voigt Hill
#
# Bulk Modulus (GPa) = 53.08533 64.68959 58.88746
# Shear Modulus (GPa) = 22.40883 31.54744 26.97813
#
# Velocity S-wave (km/s) = 3.19455 3.79038 3.50515
# Velocity P-wave (km/s) = 6.14674 6.97253 6.57261
#
# Compressibility (1/GPa) = 0.01883760
#
# Stress axis : x y z
#
# Youngs Moduli (GPa) = 83.90191 86.84522 128.07178
#
# Poissons Ratio (x) = -0.05927 0.57236
# Poissons Ratio (y) = -0.05726 0.30934
# Poissons Ratio (z) = 0.37496 0.20976
#
# Static dielectric constant tensor:
#      x y z
#    x 1.835430 0.000000 0.000000 
#    y 0.000000 1.906810 0.000000 
#    z 0.000000 0.000000 1.872130 
# 
# From -- ./inp_files/23505.got.cif
#   From: 2010.05.17/outbox.cif.g08.bks.cpg/sg22_12_cif.got.tgz:23505.got - 2010.06.03 23:40:54.
