data_PCOD9326840
_publ_section_title
;
Structure prediction by ZEFSAII (Michael W. Deem and Ramdas Pophale) SiO2 
 PCOD9326840
Probable space group: F 2 2 2
;
_chemical_formula_sum "Si O2"
_cell_formula_units_Z 64
_cell_length_a 31.834850
_cell_length_b 7.009791
_cell_length_c 12.454754
_cell_angle_alpha 90.000000
_cell_angle_beta 90.000000
_cell_angle_gamma 90.000000
_cell_volume 2779.348662
_symmetry_space_group_name_H-M "F 2 2 2"
_symmetry_group_IT_number 22
_symmetry_cell_setting 'orthorhombic'
loop_
_space_group_symop_operation_xyz
x,y,z
-x,-y,z
x,-y,-z
-x,y,-z
x,1/2+y,1/2+z
-x,1/2-y,1/2+z
x,1/2-y,1/2-z
-x,1/2+y,1/2-z
1/2+x,y,1/2+z
1/2-x,-y,1/2+z
1/2+x,-y,1/2-z
1/2-x,y,1/2-z
1/2+x,1/2+y,z
1/2-x,1/2-y,z
1/2+x,1/2-y,-z
1/2-x,1/2+y,-z
loop_
_atom_site_type_symbol
_atom_site_label
_atom_site_fract_x
_atom_site_fract_y
_atom_site_fract_z
Si Si1 0.000000 0.500000 0.000000
Si Si2 0.416097 0.925588 0.620896
Si Si3 0.819956 0.630118 0.399926
Si Si4 0.430488 0.471832 0.651381
Si Si5 0.856035 0.000000 0.500000
Si Si6 0.750000 0.750000 0.250000
O O1 0.969049 0.607036 0.917895
O O2 0.365835 0.927726 0.643553
O O3 0.430009 0.704217 0.631492
O O4 0.434204 0.045111 0.720805
O O5 0.423214 0.000000 0.500000
O O6 0.810283 0.500000 0.500000
O O7 0.828051 0.843038 0.443020
O O8 0.781829 0.624807 0.319199
O O9 0.387409 0.411211 0.590923
#
# Coordination Sequence:
#
# PCOD9326840 Si02
#       6
#     4  16  16  16   8   4
#     4  10  20  36  48  84 124 156 192 256 316 360
#     4   9  18  39  61  84 113 162 210 250 298 367
#     4  10  22  40  63  89 124 160 208 255 307 373
#     4   9  18  36  59  85 121 157 200 256 305 364
#     4   9  18  39  68  84 116 170 212 248 306 375
#     4  12  24  40  62  94 136 162 192 272 326 354
#
# _framework density 23.026978
#
# number of rings (size 3 to 8) (size 9 to 14) (size 15 to 20)
#    0.000    2.500    0.000    3.000    1.750    0.000 
#    9.000   28.750    0.000    0.000    0.000    0.000 
#    0.000    0.000    0.000    0.000    0.000    0.000 
#
# Total GULP energy -89393.094182 kJ/mol
# GULP energy per Si atom -5587.068386 kJ/mol
# Density = 2.297457 g / cm^3
# Si number density = 23.026978 Si / 1000 Ang^3
#
#
#
# Elastic Constant Matrix: (Units=GPa)
#
#
# Indices 1 2 3 4 5 6 
#
# 1 106.7320 27.8675 74.1745 0.0000 0.0000 0.0000
# 2 27.8675 51.0812 19.2550 0.0000 0.0000 0.0000
# 3 74.1745 19.2550 174.4806 0.0000 0.0000 0.0000
# 4 0.0000 0.0000 0.0000 27.2106 0.0000 0.0000
# 5 0.0000 0.0000 0.0000 0.0000 37.4993 0.0000
# 6 0.0000 0.0000 0.0000 0.0000 0.0000 12.9411
#
#
#
# Elastic Compliance Matrix: (Units=1/GPa)
#
#
# Indices 1 2 3 4 5 6 
#
# 1 0.014862 -0.005975 -0.005659 0.000000 0.000000 0.000000
# 2 -0.005975 0.022828 0.000021 0.000000 0.000000 0.000000
# 3 -0.005659 0.000021 0.008135 0.000000 0.000000 0.000000
# 4 0.000000 0.000000 0.000000 0.036750 0.000000 0.000000
# 5 0.000000 0.000000 0.000000 0.000000 0.026667 0.000000
# 6 0.000000 0.000000 0.000000 0.000000 0.000000 0.077273
#
#
# Mechanical properties :
#
#
# Convention : Reuss Voigt Hill
#
# Bulk Modulus (GPa) = 44.24908 63.87642 54.06275
# Shear Modulus (GPa) = 23.01241 29.59665 26.30453
#
# Velocity S-wave (km/s) = 3.16471 3.58900 3.38351
# Velocity P-wave (km/s) = 5.71067 6.70631 6.22842
#
# Compressibility (1/GPa) = 0.02259934
#
# Stress axis : x y z
#
# Youngs Moduli (GPa) = 67.28651 43.80499 122.93194
#
# Poissons Ratio (x) = 0.26173 0.69563
# Poissons Ratio (y) = 0.40203 -0.00255
# Poissons Ratio (z) = 0.38075 -0.00091
#
# Static dielectric constant tensor:
#      x y z
#    x 1.842530 0.000000 0.000000 
#    y 0.000000 1.943680 0.000000 
#    z 0.000000 0.000000 1.897080 
# 
# From -- ./inp_files/25047.got.cif
#   From: 2010.05.17/outbox.cif.g08.bks.cpg/sg22_13_cif.got.tgz:25047.got - 2010.06.03 23:40:54.
