data_PCOD9326477
_publ_section_title
;
Structure prediction by ZEFSAII (Michael W. Deem and Ramdas Pophale) SiO2 
 PCOD9326477
Probable space group: F 2 2 2
;
_chemical_formula_sum "Si O2"
_cell_formula_units_Z 112
_cell_length_a 12.964199
_cell_length_b 24.567885
_cell_length_c 15.412552
_cell_angle_alpha 90.000000
_cell_angle_beta 90.000000
_cell_angle_gamma 90.000000
_cell_volume 4908.943281
_symmetry_space_group_name_H-M "F 2 2 2"
_symmetry_group_IT_number 22
_symmetry_cell_setting 'orthorhombic'
loop_
_space_group_symop_operation_xyz
x,y,z
-x,-y,z
x,-y,-z
-x,y,-z
x,1/2+y,1/2+z
-x,1/2-y,1/2+z
x,1/2-y,1/2-z
-x,1/2+y,1/2-z
1/2+x,y,1/2+z
1/2-x,-y,1/2+z
1/2+x,-y,1/2-z
1/2-x,y,1/2-z
1/2+x,1/2+y,z
1/2-x,1/2-y,z
1/2+x,1/2-y,-z
1/2-x,1/2+y,-z
loop_
_atom_site_type_symbol
_atom_site_label
_atom_site_fract_x
_atom_site_fract_y
_atom_site_fract_z
Si Si1 0.433132 0.923681 0.088226
Si Si2 0.180304 0.304682 0.682987
Si Si3 0.779406 0.863731 0.161966
Si Si4 0.233184 0.011908 0.349889
Si Si5 0.401174 0.445203 0.937062
Si Si6 0.249270 0.855098 0.481585
Si Si7 0.489625 0.878328 0.276576
O O1 0.362136 0.976843 0.111019
O O2 0.356918 0.873957 0.061166
O O3 0.485602 0.904353 0.179585
O O4 0.500000 0.932775 0.000000
O O5 0.250000 0.340314 0.750000
O O6 0.250000 0.250000 0.676998
O O7 0.183779 0.320661 0.584071
O O8 0.067640 0.318998 0.719714
O O9 0.750000 0.834440 0.250000
O O10 0.899270 0.874679 0.178951
O O11 0.722087 0.922792 0.154325
O O12 0.745820 0.831944 0.076973
O O13 0.250000 0.994307 0.250000
O O14 0.336573 0.997028 0.403369
O O15 0.317219 0.409373 0.986722
O O16 0.428989 0.416065 0.845690
O O17 0.500000 0.447701 0.000000
#
# Coordination Sequence:
#
# PCOD9326477 Si02
#       7
#    16  16  16  16  16  16  16
#     4  11  22  39  67  93 136 192 241 291 347 397
#     4  10  21  41  77 109 126 160 221 296 357 433
#     4  11  24  42  60  93 139 190 232 280 344 411
#     4  10  22  41  60  88 134 190 251 294 322 380
#     4  10  19  35  59  90 124 179 233 287 332 385
#     4  10  21  39  62  94 134 173 217 281 354 414
#     4  11  21  40  66  97 136 181 228 289 360 416
#
# _framework density 22.8155
#
# number of rings (size 3 to 8) (size 9 to 14) (size 15 to 20)
#    0.000    1.571    4.286    0.857    0.000    2.857 
#    5.143    5.714    3.143    0.429    0.000    0.000 
#    0.000    0.000    0.000    0.000    0.000    0.000 
#
# Total GULP energy -155944.863216 kJ/mol
# GULP energy per Si atom -5569.459401 kJ/mol
# Density = 2.276357 g / cm^3
# Si number density = 22.815500 Si / 1000 Ang^3
#
#
#
# Elastic Constant Matrix: (Units=GPa)
#
#
# Indices 1 2 3 4 5 6 
#
# 1 84.6056 18.8121 25.9178 0.0000 0.0000 0.0000
# 2 18.8121 41.6069 17.0991 0.0000 0.0000 0.0000
# 3 25.9178 17.0991 192.0597 0.0000 0.0000 0.0000
# 4 0.0000 0.0000 0.0000 10.4942 0.0000 0.0000
# 5 0.0000 0.0000 0.0000 0.0000 51.3792 0.0000
# 6 0.0000 0.0000 0.0000 0.0000 0.0000 12.9296
#
#
#
# Elastic Compliance Matrix: (Units=1/GPa)
#
#
# Indices 1 2 3 4 5 6 
#
# 1 0.013457 -0.005541 -0.001323 0.000000 0.000000 0.000000
# 2 -0.005541 0.027229 -0.001676 0.000000 0.000000 0.000000
# 3 -0.001323 -0.001676 0.005534 0.000000 0.000000 0.000000
# 4 0.000000 0.000000 0.000000 0.095291 0.000000 0.000000
# 5 0.000000 0.000000 0.000000 0.000000 0.019463 0.000000
# 6 0.000000 0.000000 0.000000 0.000000 0.000000 0.077342
#
#
# Mechanical properties :
#
#
# Convention : Reuss Voigt Hill
#
# Bulk Modulus (GPa) = 34.31694 49.10333 41.71013
# Shear Modulus (GPa) = 18.86017 32.05681 25.45849
#
# Velocity S-wave (km/s) = 2.87825 3.75246 3.34405
# Velocity P-wave (km/s) = 5.11072 6.35163 5.76467
#
# Compressibility (1/GPa) = 0.02914013
#
# Stress axis : x y z
#
# Youngs Moduli (GPa) = 74.31241 36.72602 180.68619
#
# Poissons Ratio (x) = 0.20349 0.23898
# Poissons Ratio (y) = 0.41175 0.30291
# Poissons Ratio (z) = 0.09829 0.06157
#
# Static dielectric constant tensor:
#      x y z
#    x 1.900280 0.000000 0.000000 
#    y 0.000000 1.926010 0.000000 
#    z 0.000000 0.000000 2.015590 
# 
# From -- ./inp_files/28465.got.cif
#   From: 2010.05.17/outbox.cif.g08.bks.cpg/sg22_15_cif.got.tgz:28465.got - 2010.06.03 23:40:54.
