data_PCOD9326420
_publ_section_title
;
Structure prediction by ZEFSAII (Michael W. Deem and Ramdas Pophale) SiO2 
 PCOD9326420
Probable space group: F 2 2 2
;
_chemical_formula_sum "Si O2"
_cell_formula_units_Z 88
_cell_length_a 20.893543
_cell_length_b 9.414062
_cell_length_c 21.316559
_cell_angle_alpha 90.000000
_cell_angle_beta 90.000000
_cell_angle_gamma 90.000000
_cell_volume 4192.820267
_symmetry_space_group_name_H-M "F 2 2 2"
_symmetry_group_IT_number 22
_symmetry_cell_setting 'orthorhombic'
loop_
_space_group_symop_operation_xyz
x,y,z
-x,-y,z
x,-y,-z
-x,y,-z
x,1/2+y,1/2+z
-x,1/2-y,1/2+z
x,1/2-y,1/2-z
-x,1/2+y,1/2-z
1/2+x,y,1/2+z
1/2-x,-y,1/2+z
1/2+x,-y,1/2-z
1/2-x,y,1/2-z
1/2+x,1/2+y,z
1/2-x,1/2-y,z
1/2+x,1/2-y,-z
1/2-x,1/2+y,-z
loop_
_atom_site_type_symbol
_atom_site_label
_atom_site_fract_x
_atom_site_fract_y
_atom_site_fract_z
Si Si1 0.457036 0.680156 0.143007
Si Si2 0.942093 0.260346 0.548596
Si Si3 0.292327 0.554219 0.431966
Si Si4 0.000000 0.000000 0.256171
Si Si5 0.407909 0.491784 0.362702
Si Si6 0.346454 0.630039 0.054386
O O1 0.523483 0.660404 0.105993
O O2 0.467639 0.616502 0.211289
O O3 0.399756 0.604049 0.106277
O O4 0.435938 0.846865 0.136683
O O5 0.926120 0.107337 0.578351
O O6 0.885414 0.343606 0.511570
O O7 0.000000 0.242617 0.500000
O O8 0.315098 0.500000 0.500000
O O9 0.331188 0.494002 0.372252
O O10 0.314674 0.716685 0.433258
O O11 0.215986 0.532484 0.434534
O O12 0.943688 0.936242 0.300593
#
# Coordination Sequence:
#
# PCOD9326420 Si02
#       6
#    16  16  16   8  16  16
#     4  10  22  37  57  89 125 159 206 260 325 364
#     4  10  19  35  63  95 118 151 203 269 321 370
#     4  10  19  34  57  88 121 155 199 250 316 377
#     4  12  24  38  56  86 126 166 202 264 312 370
#     4  11  21  34  60  88 119 159 214 258 305 376
#     4   9  20  35  57  89 122 152 197 258 317 379
#
# _framework density 20.988257999999998
#
# number of rings (size 3 to 8) (size 9 to 14) (size 15 to 20)
#    0.000    1.818    3.636    0.545    0.000    5.091 
#    0.000    4.091    0.000    4.364    0.000    0.000 
#    0.000    0.000    0.000    0.000    0.000    0.000 
#
# Total GULP energy -122474.612081 kJ/mol
# GULP energy per Si atom -5567.027822 kJ/mol
# Density = 2.094049 g / cm^3
# Si number density = 20.988258 Si / 1000 Ang^3
#
#
#
# Elastic Constant Matrix: (Units=GPa)
#
#
# Indices 1 2 3 4 5 6 
#
# 1 182.6672 38.4840 77.4127 0.0000 0.0000 0.0000
# 2 38.4840 61.7709 29.9904 0.0000 0.0000 0.0000
# 3 77.4127 29.9904 124.9771 0.0000 0.0000 0.0000
# 4 0.0000 0.0000 0.0000 42.5236 0.0000 0.0000
# 5 0.0000 0.0000 0.0000 0.0000 12.5703 0.0000
# 6 0.0000 0.0000 0.0000 0.0000 0.0000 27.4753
#
#
#
# Elastic Compliance Matrix: (Units=1/GPa)
#
#
# Indices 1 2 3 4 5 6 
#
# 1 0.007846 -0.002862 -0.004173 0.000000 0.000000 0.000000
# 2 -0.002862 0.019368 -0.002875 0.000000 0.000000 0.000000
# 3 -0.004173 -0.002875 0.011276 0.000000 0.000000 0.000000
# 4 0.000000 0.000000 0.000000 0.023516 0.000000 0.000000
# 5 0.000000 0.000000 0.000000 0.000000 0.079553 0.000000
# 6 0.000000 0.000000 0.000000 0.000000 0.000000 0.036396
#
#
# Mechanical properties :
#
#
# Convention : Reuss Voigt Hill
#
# Bulk Modulus (GPa) = 53.56209 73.46549 63.51379
# Shear Modulus (GPa) = 24.50997 31.41568 27.96283
#
# Velocity S-wave (km/s) = 3.42101 3.87308 3.65404
# Velocity P-wave (km/s) = 6.41715 7.42160 6.93758
#
# Compressibility (1/GPa) = 0.01866992
#
# Stress axis : x y z
#
# Youngs Moduli (GPa) = 127.45477 51.63239 88.68228
#
# Poissons Ratio (x) = 0.14777 0.37008
# Poissons Ratio (y) = 0.36478 0.25495
# Poissons Ratio (z) = 0.53188 0.14843
#
# Static dielectric constant tensor:
#      x y z
#    x 1.809370 0.000000 0.000000 
#    y 0.000000 1.897750 0.000000 
#    z 0.000000 0.000000 1.787220 
# 
# From -- ./inp_files/49803.got.cif
#   From: 2010.05.17/outbox.cif.g08.bks.cpg/sg22_25_cif.got.tgz:49803.got - 2010.06.03 23:40:54.
