data_PCOD9326515
_publ_section_title
;
Structure prediction by ZEFSAII (Michael W. Deem and Ramdas Pophale) SiO2 
 PCOD9326515
Probable space group: F 2 2 2
;
_chemical_formula_sum "Si O2"
_cell_formula_units_Z 128
_cell_length_a 12.318839
_cell_length_b 24.777017
_cell_length_c 21.324011
_cell_angle_alpha 90.000000
_cell_angle_beta 90.000000
_cell_angle_gamma 90.000000
_cell_volume 6508.601710
_symmetry_space_group_name_H-M "F 2 2 2"
_symmetry_group_IT_number 22
_symmetry_cell_setting 'orthorhombic'
loop_
_space_group_symop_operation_xyz
x,y,z
-x,-y,z
x,-y,-z
-x,y,-z
x,1/2+y,1/2+z
-x,1/2-y,1/2+z
x,1/2-y,1/2-z
-x,1/2+y,1/2-z
1/2+x,y,1/2+z
1/2-x,-y,1/2+z
1/2+x,-y,1/2-z
1/2-x,y,1/2-z
1/2+x,1/2+y,z
1/2-x,1/2-y,z
1/2+x,1/2-y,-z
1/2-x,1/2+y,-z
loop_
_atom_site_type_symbol
_atom_site_label
_atom_site_fract_x
_atom_site_fract_y
_atom_site_fract_z
Si Si1 0.218144 0.809361 0.405849
Si Si2 0.350649 0.415335 0.540147
Si Si3 0.149204 0.613646 0.318558
Si Si4 0.437430 0.052584 0.309477
Si Si5 0.641302 0.643666 0.284257
Si Si6 0.417836 0.304716 0.716231
Si Si7 0.916954 0.573979 0.102442
Si Si8 0.744697 0.487667 0.366160
O O1 0.250000 0.750000 0.427839
O O2 0.183203 0.852933 0.456926
O O3 0.311266 0.840183 0.366117
O O4 0.122838 0.803264 0.354531
O O5 0.454228 0.420757 0.588163
O O6 0.375577 0.429626 0.469061
O O7 0.260889 0.455478 0.568240
O O8 0.131208 0.643676 0.252646
O O9 0.231028 0.562709 0.320199
O O10 0.033322 0.588532 0.339362
O O11 0.387809 0.090053 0.256043
O O12 0.500000 0.000000 0.283713
O O13 0.342191 0.029894 0.353971
O O14 0.750000 0.663299 0.250000
O O15 0.545782 0.686795 0.278027
O O16 0.632366 0.622893 0.356230
O O17 0.382387 0.250000 0.750000
O O18 0.866752 0.521382 0.136556
#
# Coordination Sequence:
#
# PCOD9326515 Si02
#       8
#    16  16  16  16  16  16  16  16
#     4  11  20  37  63  92 120 154 208 263 323 361
#     4  10  23  38  62  92 119 166 216 269 308 380
#     4   9  20  33  55  90 127 150 199 246 312 377
#     4   9  19  36  52  85 126 158 197 247 309 383
#     4  11  22  39  59  90 122 166 197 250 318 391
#     4  11  21  37  62  94 124 159 198 259 320 375
#     4  11  21  40  59  85 130 164 210 260 318 375
#     4  10  19  36  59  83 121 164 204 252 308 377
#
# _framework density 19.666283
#
# number of rings (size 3 to 8) (size 9 to 14) (size 15 to 20)
#    0.000    1.750    3.750    1.125    0.000    2.250 
#   13.500    0.000    2.750   26.250    0.000    0.000 
#    0.000    0.000    0.000    0.000    0.000    0.000 
#
# Total GULP energy -178303.900864 kJ/mol
# GULP energy per Si atom -5571.996902 kJ/mol
# Density = 1.962152 g / cm^3
# Si number density = 19.666283 Si / 1000 Ang^3
#
#
#
# Elastic Constant Matrix: (Units=GPa)
#
#
# Indices 1 2 3 4 5 6 
#
# 1 93.6512 38.0284 27.4869 0.0000 0.0000 0.0000
# 2 38.0284 107.5798 10.9354 0.0000 0.0000 0.0000
# 3 27.4869 10.9354 54.2209 0.0000 0.0000 0.0000
# 4 0.0000 0.0000 0.0000 11.5100 0.0000 0.0000
# 5 0.0000 0.0000 0.0000 0.0000 22.2745 0.0000
# 6 0.0000 0.0000 0.0000 0.0000 0.0000 30.7264
#
#
#
# Elastic Compliance Matrix: (Units=1/GPa)
#
#
# Indices 1 2 3 4 5 6 
#
# 1 0.014347 -0.004423 -0.006381 0.000000 0.000000 0.000000
# 2 -0.004423 0.010853 0.000053 0.000000 0.000000 0.000000
# 3 -0.006381 0.000053 0.021667 0.000000 0.000000 0.000000
# 4 0.000000 0.000000 0.000000 0.086881 0.000000 0.000000
# 5 0.000000 0.000000 0.000000 0.000000 0.044894 0.000000
# 6 0.000000 0.000000 0.000000 0.000000 0.000000 0.032545
#
#
# Mechanical properties :
#
#
# Convention : Reuss Voigt Hill
#
# Bulk Modulus (GPa) = 39.42274 45.37260 42.39767
# Shear Modulus (GPa) = 20.73443 24.83558 22.78500
#
# Velocity S-wave (km/s) = 3.25054 3.55752 3.40749
# Velocity P-wave (km/s) = 5.84614 6.32423 6.08988
#
# Compressibility (1/GPa) = 0.02536607
#
# Stress axis : x y z
#
# Youngs Moduli (GPa) = 69.70245 92.13672 46.15284
#
# Poissons Ratio (x) = 0.40750 0.29450
# Poissons Ratio (y) = 0.30828 -0.00245
# Poissons Ratio (z) = 0.44477 -0.00490
#
# Static dielectric constant tensor:
#      x y z
#    x 1.761700 0.000000 0.000000 
#    y 0.000000 1.708620 0.000000 
#    z 0.000000 0.000000 1.676620 
# 
# From -- ./inp_files/48403.got.cif
#   From: 2010.05.17/outbox.cif.g08.bks.cpg/sg22_25_cif.got.tgz:48403.got - 2010.06.03 23:40:54.
