data_PCOD9326197
_publ_section_title
;
Structure prediction by ZEFSAII (Michael W. Deem and Ramdas Pophale) SiO2 
 PCOD9326197
Probable space group: F 2 2 2
;
_chemical_formula_sum "Si O2"
_cell_formula_units_Z 120
_cell_length_a 28.822095
_cell_length_b 18.210194
_cell_length_c 12.894731
_cell_angle_alpha 90.000000
_cell_angle_beta 90.000000
_cell_angle_gamma 90.000000
_cell_volume 6767.876179
_symmetry_space_group_name_H-M "F 2 2 2"
_symmetry_group_IT_number 22
_symmetry_cell_setting 'orthorhombic'
loop_
_space_group_symop_operation_xyz
x,y,z
-x,-y,z
x,-y,-z
-x,y,-z
x,1/2+y,1/2+z
-x,1/2-y,1/2+z
x,1/2-y,1/2-z
-x,1/2+y,1/2-z
1/2+x,y,1/2+z
1/2-x,-y,1/2+z
1/2+x,-y,1/2-z
1/2-x,y,1/2-z
1/2+x,1/2+y,z
1/2-x,1/2-y,z
1/2+x,1/2-y,-z
1/2-x,1/2+y,-z
loop_
_atom_site_type_symbol
_atom_site_label
_atom_site_fract_x
_atom_site_fract_y
_atom_site_fract_z
Si Si1 0.846362 0.218881 0.499101
Si Si2 0.921829 0.713008 0.360597
Si Si3 0.796852 0.923178 0.557547
Si Si4 0.693107 0.132592 0.449498
Si Si5 0.426896 0.687704 0.335081
Si Si6 0.618743 0.944696 0.408997
Si Si7 0.500000 0.218750 0.000000
Si Si8 0.861701 0.073279 0.242408
O O1 0.876567 0.244425 0.596303
O O2 0.822945 0.140105 0.507288
O O3 0.808890 0.281869 0.477162
O O4 0.883042 0.215508 0.403710
O O5 0.932081 0.750000 0.250000
O O6 0.910795 0.626387 0.374170
O O7 0.964055 0.732073 0.436335
O O8 0.743999 0.897577 0.571517
O O9 0.825247 0.930558 0.664121
O O10 0.797524 0.000000 0.500000
O O11 0.666123 0.087544 0.539676
O O12 0.661652 0.121262 0.348092
O O13 0.438416 0.750000 0.250000
O O14 0.469078 0.675663 0.415241
O O15 0.408095 0.614333 0.280470
O O16 0.599544 0.000000 0.500000
O O17 0.628431 0.995269 0.310049
#
# Coordination Sequence:
#
# PCOD9326197 Si02
#       8
#    16  16  16  16  16  16   8  16
#     4   9  20  35  55  81 112 152 194 233 282 339
#     4  10  21  39  64  84 113 154 197 239 292 362
#     4  11  22  31  50  83 121 156 189 239 279 333
#     4  10  18  36  55  82 113 149 199 244 280 323
#     4  10  18  35  60  84 112 143 186 228 289 347
#     4   9  20  37  61  85 114 154 193 243 291 343
#     4  10  22  36  61  91 110 140 190 240 290 354
#     4  10  20  34  58  83 112 154 187 235 288 345
#
# _framework density 17.730820999999999
#
# number of rings (size 3 to 8) (size 9 to 14) (size 15 to 20)
#    0.000    2.133    1.333    2.400    3.733    0.000 
#    0.000    1.667    0.000    1.600    0.000    0.000 
#    0.000    0.000    0.000    0.000    0.000    0.000 
#
# Total GULP energy -167236.128742 kJ/mol
# GULP energy per Si atom -5574.537625 kJ/mol
# Density = 1.769046 g / cm^3
# Si number density = 17.730821 Si / 1000 Ang^3
#
#
#
# Elastic Constant Matrix: (Units=GPa)
#
#
# Indices 1 2 3 4 5 6 
#
# 1 97.9852 55.4051 43.5248 0.0000 0.0000 0.0000
# 2 55.4051 120.4901 41.0849 0.0000 0.0000 0.0000
# 3 43.5248 41.0849 73.0657 0.0000 0.0000 0.0000
# 4 0.0000 0.0000 0.0000 21.5702 0.0000 0.0000
# 5 0.0000 0.0000 0.0000 0.0000 14.3669 0.0000
# 6 0.0000 0.0000 0.0000 0.0000 0.0000 16.6484
#
#
#
# Elastic Compliance Matrix: (Units=1/GPa)
#
#
# Indices 1 2 3 4 5 6 
#
# 1 0.016068 -0.005103 -0.006702 0.000000 0.000000 0.000000
# 2 -0.005103 0.011889 -0.003645 0.000000 0.000000 0.000000
# 3 -0.006702 -0.003645 0.019728 0.000000 0.000000 0.000000
# 4 0.000000 0.000000 0.000000 0.046360 0.000000 0.000000
# 5 0.000000 0.000000 0.000000 0.000000 0.069604 0.000000
# 6 0.000000 0.000000 0.000000 0.000000 0.000000 0.060066
#
#
# Mechanical properties :
#
#
# Convention : Reuss Voigt Hill
#
# Bulk Modulus (GPa) = 59.57920 63.50783 61.54352
# Shear Modulus (GPa) = 19.21505 20.61886 19.91695
#
# Velocity S-wave (km/s) = 3.29554 3.41381 3.35520
# Velocity P-wave (km/s) = 6.93944 7.17177 7.05656
#
# Compressibility (1/GPa) = 0.01678438
#
# Stress axis : x y z
#
# Youngs Moduli (GPa) = 62.23387 84.11074 50.68825
#
# Poissons Ratio (x) = 0.42925 0.33972
# Poissons Ratio (y) = 0.31761 0.18477
# Poissons Ratio (z) = 0.41710 0.30660
#
# Static dielectric constant tensor:
#      x y z
#    x 1.591470 0.000000 0.000000 
#    y 0.000000 1.603930 0.000000 
#    z 0.000000 0.000000 1.616520 
# 
# From -- ./inp_files/24816.got.cif
#   From: 2010.05.17/outbox.cif.g08.bks.cpg/sg22_13_cif.got.tgz:24816.got - 2010.06.03 23:40:54.
