data_PCOD9326057
_publ_section_title
;
Structure prediction by ZEFSAII (Michael W. Deem and Ramdas Pophale) SiO2 
 PCOD9326057
Probable space group: F 2 2 2
;
_chemical_formula_sum "Si O2"
_cell_formula_units_Z 84
_cell_length_a 17.668801
_cell_length_b 8.268739
_cell_length_c 26.423834
_cell_angle_alpha 90.000000
_cell_angle_beta 90.000000
_cell_angle_gamma 90.000000
_cell_volume 3860.487900
_symmetry_space_group_name_H-M "F 2 2 2"
_symmetry_group_IT_number 22
_symmetry_cell_setting 'orthorhombic'
loop_
_space_group_symop_operation_xyz
x,y,z
-x,-y,z
x,-y,-z
-x,y,-z
x,1/2+y,1/2+z
-x,1/2-y,1/2+z
x,1/2-y,1/2-z
-x,1/2+y,1/2-z
1/2+x,y,1/2+z
1/2-x,-y,1/2+z
1/2+x,-y,1/2-z
1/2-x,y,1/2-z
1/2+x,1/2+y,z
1/2-x,1/2-y,z
1/2+x,1/2-y,-z
1/2-x,1/2+y,-z
loop_
_atom_site_type_symbol
_atom_site_label
_atom_site_fract_x
_atom_site_fract_y
_atom_site_fract_z
Si Si1 0.134322 0.373637 0.896488
Si Si2 0.750000 0.750000 0.250000
Si Si3 0.426261 0.422749 0.186621
Si Si4 0.610574 0.064464 0.797435
Si Si5 0.750000 0.750000 0.037202
Si Si6 0.310298 0.975981 0.393366
Si Si7 0.134193 0.000000 0.500000
O O1 0.103493 0.437158 0.842672
O O2 0.222864 0.424045 0.890642
O O3 0.139139 0.181683 0.906212
O O4 0.098291 0.467261 0.944907
O O5 0.694729 0.863511 0.216096
O O6 0.500000 0.500000 0.161852
O O7 0.433471 0.229575 0.189225
O O8 0.417607 0.494748 0.242971
O O9 0.349544 0.461088 0.157184
O O10 0.697705 0.627851 0.069238
O O11 0.808633 0.649526 0.004857
#
# Coordination Sequence:
#
# PCOD9326057 Si02
#       7
#    16   4  16  16   8  16   8
#     4  10  20  33  53  85 109 139 175 224 282 325
#     4   8  16  34  56  78 104 146 180 224 288 332
#     4  10  21  36  54  77 105 147 185 218 267 328
#     4  10  20  34  54  77 110 143 181 228 275 330
#     4  10  18  33  54  83 114 143 172 223 278 332
#     4  10  20  33  53  81 112 139 177 221 273 333
#     4  10  18  30  52  82 112 136 172 214 280 336
#
# _framework density 21.758907000000001
#
# number of rings (size 3 to 8) (size 9 to 14) (size 15 to 20)
#    0.000    2.286    0.000    6.857    0.000    5.333 
#    0.000    1.905    0.000    0.000    0.000   54.000 
#    0.000    0.000    0.000    0.000    0.000    0.000 
#
# Total GULP energy -117053.161010 kJ/mol
# GULP energy per Si atom -5573.960048 kJ/mol
# Density = 2.170938 g / cm^3
# Si number density = 21.758907 Si / 1000 Ang^3
#
#
#
# Elastic Constant Matrix: (Units=GPa)
#
#
# Indices 1 2 3 4 5 6 
#
# 1 65.4506 5.9497 14.4894 0.0000 0.0000 0.0000
# 2 5.9497 82.4147 35.3901 0.0000 0.0000 0.0000
# 3 14.4894 35.3901 129.3073 0.0000 0.0000 0.0000
# 4 0.0000 0.0000 0.0000 24.9649 0.0000 0.0000
# 5 0.0000 0.0000 0.0000 0.0000 -9.3744 0.0000
# 6 0.0000 0.0000 0.0000 0.0000 0.0000 21.0162
#
#
#
# Elastic Compliance Matrix: (Units=1/GPa)
#
#
# Indices 1 2 3 4 5 6 
#
# 1 0.015681 -0.000428 -0.001640 0.000000 0.000000 0.000000
# 2 -0.000428 0.013761 -0.003718 0.000000 0.000000 0.000000
# 3 -0.001640 -0.003718 0.008935 0.000000 0.000000 0.000000
# 4 0.000000 0.000000 0.000000 0.040056 0.000000 0.000000
# 5 0.000000 0.000000 0.000000 0.000000 -0.106673 0.000000
# 6 0.000000 0.000000 0.000000 0.000000 0.000000 0.047582
#
#
# Mechanical properties :
#
#
# Convention : Reuss Voigt Hill
#
# Bulk Modulus (GPa) = 37.30701 43.20345 40.25523
# Shear Modulus (GPa) = 125.47100 22.07754 73.77427
#
# Velocity S-wave (km/s) = 7.60193 3.18880 5.82914
# Velocity P-wave (km/s) = 9.70749 5.78417 7.99037
#
# Compressibility (1/GPa) = 0.02680461
#
# Stress axis : x y z
#
# Youngs Moduli (GPa) = 63.77285 72.66713 111.91970
#
# Poissons Ratio (x) = 0.03109 0.18355
# Poissons Ratio (y) = 0.02728 0.41616
# Poissons Ratio (z) = 0.10459 0.27021
#
# Static dielectric constant tensor:
#      x y z
#    x 1.775940 0.000000 0.000000 
#    y 0.000000 1.913660 0.000000 
#    z 0.000000 0.000000 1.855410 
# 
# From -- ./inp_files/53832.got.cif
#   From: 2010.05.17/outbox.cif.g08.bks.cpg/sg22_27_cif.got.tgz:53832.got - 2010.06.03 23:40:54.
