data_PCOD9326254
_publ_section_title
;
Structure prediction by ZEFSAII (Michael W. Deem and Ramdas Pophale) SiO2 
 PCOD9326254
Probable space group: F 2 2 2
;
_chemical_formula_sum "Si O2"
_cell_formula_units_Z 32
_cell_length_a 14.287517
_cell_length_b 24.287530
_cell_length_c 5.021343
_cell_angle_alpha 90.000000
_cell_angle_beta 90.000000
_cell_angle_gamma 90.000000
_cell_volume 1742.448691
_symmetry_space_group_name_H-M "F 2 2 2"
_symmetry_group_IT_number 22
_symmetry_cell_setting 'orthorhombic'
loop_
_space_group_symop_operation_xyz
x,y,z
-x,-y,z
x,-y,-z
-x,y,-z
x,1/2+y,1/2+z
-x,1/2-y,1/2+z
x,1/2-y,1/2-z
-x,1/2+y,1/2-z
1/2+x,y,1/2+z
1/2-x,-y,1/2+z
1/2+x,-y,1/2-z
1/2-x,y,1/2-z
1/2+x,1/2+y,z
1/2-x,1/2-y,z
1/2+x,1/2-y,-z
1/2-x,1/2+y,-z
loop_
_atom_site_type_symbol
_atom_site_label
_atom_site_fract_x
_atom_site_fract_y
_atom_site_fract_z
Si Si1 0.000000 0.710408 0.500000
Si Si2 0.312311 0.642141 0.984448
Si Si3 0.250000 0.036559 0.250000
O O1 0.908298 0.672983 0.532528
O O2 0.987537 0.750000 0.250000
O O3 0.250000 0.639448 0.250000
O O4 0.250000 0.669762 0.750000
O O5 0.325195 0.579940 0.870312
O O6 0.218211 0.000000 0.500000
#
# Coordination Sequence:
#
# PCOD9326254 Si02
#       3
#     8  16   8
#     4  12  26  40  63  92 125 162 204 248 300 360
#     4  10  22  40  63  88 127 155 207 245 297 366
#     4  10  18  38  67  86 119 162 194 250 308 350
#
# _framework density 18.36496
#
# number of rings (size 3 to 8) (size 9 to 14) (size 15 to 20)
#    1.500    0.000    2.500    3.000    0.000    6.000 
#    0.000    1.250   11.000    0.000    0.000    0.000 
#    0.000    0.000    0.000    0.000    0.000    0.000 
#
# Total GULP energy -44544.124600 kJ/mol
# GULP energy per Si atom -5568.015575 kJ/mol
# Density = 1.832316 g / cm^3
# Si number density = 18.364960 Si / 1000 Ang^3
#
#
#
# Elastic Constant Matrix: (Units=GPa)
#
#
# Indices 1 2 3 4 5 6 
#
# 1 103.9929 64.9090 40.8393 -0.0005 -0.0025 -0.0002
# 2 64.9090 121.7326 55.0911 0.0000 -0.0001 0.0000
# 3 40.8393 55.0911 152.7298 -0.0008 -0.0049 -0.0007
# 4 -0.0005 0.0000 -0.0008 14.4871 0.0004 0.0000
# 5 -0.0025 -0.0001 -0.0049 0.0004 22.6777 0.0002
# 6 -0.0002 0.0000 -0.0007 0.0000 0.0002 30.3794
#
#
#
# Elastic Compliance Matrix: (Units=1/GPa)
#
#
# Indices 1 2 3 4 5 6 
#
# 1 0.014630 -0.007207 -0.001312 0.000000 0.000001 0.000000
# 2 -0.007207 0.013367 -0.002895 0.000000 -0.000001 0.000000
# 3 -0.001312 -0.002895 0.007943 0.000000 0.000002 0.000000
# 4 0.000000 0.000000 0.000000 0.069027 -0.000001 0.000000
# 5 0.000001 -0.000001 0.000002 -0.000001 0.044096 0.000000
# 6 0.000000 0.000000 0.000000 0.000000 0.000000 0.032917
#
#
# Mechanical properties :
#
#
# Convention : Reuss Voigt Hill
#
# Bulk Modulus (GPa) = 76.26580 77.79266 77.02923
# Shear Modulus (GPa) = 23.90306 28.01657 25.95981
#
# Velocity S-wave (km/s) = 3.61162 3.91006 3.76380
# Velocity P-wave (km/s) = 7.68178 7.92692 7.80531
#
# Compressibility (1/GPa) = 0.01311204
#
# Stress axis : x y z
#
# Youngs Moduli (GPa) = 68.35437 74.80850 125.90365
#
# Poissons Ratio (x) = 0.53913 0.16523
# Poissons Ratio (y) = 0.49261 0.36446
# Poissons Ratio (z) = 0.08971 0.21655
#
# Static dielectric constant tensor:
#      x y z
#    x 1.598240 0.000000 0.000000 
#    y 0.000000 1.666920 0.000000 
#    z 0.000000 0.000000 1.633890 
# 
# From -- ./inp_files/32.got.cif
#   From: 2010.05.17/outbox.cif.g08.bks.cpg/sg22_1_cif.got.tgz:32.got - 2010.06.03 23:40:54.
