data_PCOD9326499
_publ_section_title
;
Structure prediction by ZEFSAII (Michael W. Deem and Ramdas Pophale) SiO2 
 PCOD9326499
Probable space group: F 2 2 2
;
_chemical_formula_sum "Si O2"
_cell_formula_units_Z 92
_cell_length_a 12.710813
_cell_length_b 22.608512
_cell_length_c 16.299522
_cell_angle_alpha 90.000000
_cell_angle_beta 90.000000
_cell_angle_gamma 90.000000
_cell_volume 4684.035498
_symmetry_space_group_name_H-M "F 2 2 2"
_symmetry_group_IT_number 22
_symmetry_cell_setting 'orthorhombic'
loop_
_space_group_symop_operation_xyz
x,y,z
-x,-y,z
x,-y,-z
-x,y,-z
x,1/2+y,1/2+z
-x,1/2-y,1/2+z
x,1/2-y,1/2-z
-x,1/2+y,1/2-z
1/2+x,y,1/2+z
1/2-x,-y,1/2+z
1/2+x,-y,1/2-z
1/2-x,y,1/2-z
1/2+x,1/2+y,z
1/2-x,1/2-y,z
1/2+x,1/2-y,-z
1/2-x,1/2+y,-z
loop_
_atom_site_type_symbol
_atom_site_label
_atom_site_fract_x
_atom_site_fract_y
_atom_site_fract_z
Si Si1 0.500000 0.273890 0.500000
Si Si2 0.750000 0.250000 0.750000
Si Si3 0.779942 0.814865 0.517979
Si Si4 0.387830 0.032261 0.614815
Si Si5 0.160038 0.155018 0.814901
Si Si6 0.163911 0.584409 0.562884
Si Si7 0.562496 0.810309 0.349441
O O1 0.403380 0.312066 0.533608
O O2 0.461239 0.232899 0.425477
O O3 0.666844 0.210507 0.698117
O O4 0.750000 0.750000 0.484405
O O5 0.706915 0.823292 0.597739
O O6 0.755000 0.869053 0.458158
O O7 0.358558 0.084289 0.676777
O O8 0.381504 0.062620 0.524708
O O9 0.500000 0.000000 0.627038
O O10 0.309624 0.975733 0.610608
O O11 0.250000 0.168729 0.750000
O O12 0.046532 0.184564 0.799260
O O13 0.082297 0.624864 0.612369
#
# Coordination Sequence:
#
# PCOD9326499 Si02
#       7
#     8   4  16  16  16  16  16
#     4  12  22  40  66  92 132 166 226 260 318 402
#     4  12  32  44  58 104 152 174 212 270 350 412
#     4  11  21  35  63  98 124 161 205 269 321 383
#     4  10  19  35  68  95 115 152 222 285 314 364
#     4  11  25  40  61  93 130 175 217 257 328 404
#     4  10  19  35  65  97 118 151 216 277 322 365
#     4  12  23  42  67  93 132 176 214 269 325 407
#
# _framework density 19.641183000000002
#
# number of rings (size 3 to 8) (size 9 to 14) (size 15 to 20)
#    0.000    1.043    5.217    3.130    4.870    0.348 
#    1.565    0.000    0.000    7.304    0.000    0.000 
#    0.000    0.000    0.000    0.000    0.000    0.000 
#
# Total GULP energy -128309.048925 kJ/mol
# GULP energy per Si atom -5578.654301 kJ/mol
# Density = 1.959648 g / cm^3
# Si number density = 19.641183 Si / 1000 Ang^3
#
#
#
# Elastic Constant Matrix: (Units=GPa)
#
#
# Indices 1 2 3 4 5 6 
#
# 1 150.9778 55.2004 37.8840 0.0000 0.0000 0.0000
# 2 55.2004 125.9458 26.2317 0.0000 0.0000 0.0000
# 3 37.8840 26.2317 42.3612 0.0000 0.0000 0.0000
# 4 0.0000 0.0000 0.0000 18.0791 0.0000 0.0000
# 5 0.0000 0.0000 0.0000 0.0000 37.6656 0.0000
# 6 0.0000 0.0000 0.0000 0.0000 0.0000 36.2443
#
#
#
# Elastic Compliance Matrix: (Units=1/GPa)
#
#
# Indices 1 2 3 4 5 6 
#
# 1 0.009267 -0.002681 -0.006627 0.000000 0.000000 0.000000
# 2 -0.002681 0.009891 -0.003727 0.000000 0.000000 0.000000
# 3 -0.006627 -0.003727 0.031841 0.000000 0.000000 0.000000
# 4 0.000000 0.000000 0.000000 0.055313 0.000000 0.000000
# 5 0.000000 0.000000 0.000000 0.000000 0.026549 0.000000
# 6 0.000000 0.000000 0.000000 0.000000 0.000000 0.027591
#
#
# Mechanical properties :
#
#
# Convention : Reuss Voigt Hill
#
# Bulk Modulus (GPa) = 40.11507 61.99076 51.05292
# Shear Modulus (GPa) = 25.66314 31.72905 28.69610
#
# Velocity S-wave (km/s) = 3.61861 4.02361 3.82647
# Velocity P-wave (km/s) = 6.15853 7.29493 6.75068
#
# Compressibility (1/GPa) = 0.02492829
#
# Stress axis : x y z
#
# Youngs Moduli (GPa) = 107.91379 101.09814 31.40590
#
# Poissons Ratio (x) = 0.27107 0.20812
# Poissons Ratio (y) = 0.28934 0.11706
# Poissons Ratio (z) = 0.71514 0.37682
#
# Static dielectric constant tensor:
#      x y z
#    x 1.741290 0.000000 0.000000 
#    y 0.000000 1.722080 0.000000 
#    z 0.000000 0.000000 1.728070 
# 
# From -- ./inp_files/36121.got.cif
#   From: 2010.05.17/outbox.cif.g08.bks.cpg/sg22_19_cif.got.tgz:36121.got - 2010.06.03 23:40:54.
