data_PCOD9326412
_publ_section_title
;
Structure prediction by ZEFSAII (Michael W. Deem and Ramdas Pophale) SiO2 
 PCOD9326412
Probable space group: F 2 2 2
;
_chemical_formula_sum "Si O2"
_cell_formula_units_Z 80
_cell_length_a 16.364911
_cell_length_b 18.088921
_cell_length_c 14.166400
_cell_angle_alpha 90.000000
_cell_angle_beta 90.000000
_cell_angle_gamma 90.000000
_cell_volume 4193.588476
_symmetry_space_group_name_H-M "F 2 2 2"
_symmetry_group_IT_number 22
_symmetry_cell_setting 'orthorhombic'
loop_
_space_group_symop_operation_xyz
x,y,z
-x,-y,z
x,-y,-z
-x,y,-z
x,1/2+y,1/2+z
-x,1/2-y,1/2+z
x,1/2-y,1/2-z
-x,1/2+y,1/2-z
1/2+x,y,1/2+z
1/2-x,-y,1/2+z
1/2+x,-y,1/2-z
1/2-x,y,1/2-z
1/2+x,1/2+y,z
1/2-x,1/2-y,z
1/2+x,1/2-y,-z
1/2-x,1/2+y,-z
loop_
_atom_site_type_symbol
_atom_site_label
_atom_site_fract_x
_atom_site_fract_y
_atom_site_fract_z
Si Si1 0.180524 0.559994 0.919282
Si Si2 0.458843 0.071448 0.228086
Si Si3 0.187337 0.355437 0.333978
Si Si4 0.040576 0.291266 0.848831
Si Si5 0.372595 0.273138 0.463438
O O1 0.106491 0.542377 0.848660
O O2 0.268684 0.570199 0.870804
O O3 0.162363 0.644474 0.950234
O O4 0.182252 0.500000 0.000000
O O5 0.401330 0.123766 0.292290
O O6 0.526995 0.122517 0.177653
O O7 0.500000 0.000000 0.274798
O O8 0.250000 0.330954 0.250000
O O9 0.175876 0.293921 0.414663
O O10 0.049905 0.250000 0.750000
O O11 0.956515 0.272705 0.903297
O O12 0.108633 0.268543 0.925259
#
# Coordination Sequence:
#
# PCOD9326412 Si02
#       5
#    16  16  16  16  16
#     4  10  21  36  56  84 118 150 205 255 304 365
#     4  10  20  36  61  86 116 157 198 253 316 362
#     4  10  21  38  62  87 117 161 211 256 304 375
#     4  10  19  34  56  87 120 147 198 253 301 364
#     4  10  20  34  60  88 115 156 201 257 301 352
#
# _framework density 19.076740999999998
#
# number of rings (size 3 to 8) (size 9 to 14) (size 15 to 20)
#    0.000    2.000    2.000    1.800    0.000    6.000 
#    3.600    0.000    0.000    1.200    0.000    0.000 
#    0.000    0.000    0.000    0.000    0.000    0.000 
#
# Total GULP energy -111416.074895 kJ/mol
# GULP energy per Si atom -5570.803745 kJ/mol
# Density = 1.903332 g / cm^3
# Si number density = 19.076741 Si / 1000 Ang^3
#
#
#
# Elastic Constant Matrix: (Units=GPa)
#
#
# Indices 1 2 3 4 5 6 
#
# 1 52.5051 42.9176 32.3228 0.0000 0.0000 0.0000
# 2 42.9176 97.0865 50.4044 0.0000 0.0000 0.0000
# 3 32.3228 50.4044 119.3034 0.0000 0.0000 0.0000
# 4 0.0000 0.0000 0.0000 40.7445 0.0000 0.0000
# 5 0.0000 0.0000 0.0000 0.0000 21.0333 0.0000
# 6 0.0000 0.0000 0.0000 0.0000 0.0000 9.3262
#
#
#
# Elastic Compliance Matrix: (Units=1/GPa)
#
#
# Indices 1 2 3 4 5 6 
#
# 1 0.030816 -0.011898 -0.003322 0.000000 0.000000 0.000000
# 2 -0.011898 0.017788 -0.004292 0.000000 0.000000 0.000000
# 3 -0.003322 -0.004292 0.011095 0.000000 0.000000 0.000000
# 4 0.000000 0.000000 0.000000 0.024543 0.000000 0.000000
# 5 0.000000 0.000000 0.000000 0.000000 0.047544 0.000000
# 6 0.000000 0.000000 0.000000 0.000000 0.000000 0.107225
#
#
# Mechanical properties :
#
#
# Convention : Reuss Voigt Hill
#
# Bulk Modulus (GPa) = 48.36579 57.79829 53.08204
# Shear Modulus (GPa) = 17.54840 23.77081 20.65960
#
# Velocity S-wave (km/s) = 3.03625 3.53379 3.29443
# Velocity P-wave (km/s) = 6.14004 6.85666 6.50822
#
# Compressibility (1/GPa) = 0.02067577
#
# Stress axis : x y z
#
# Youngs Moduli (GPa) = 32.45057 56.21908 90.12819
#
# Poissons Ratio (x) = 0.66887 0.29944
# Poissons Ratio (y) = 0.38608 0.38680
# Poissons Ratio (z) = 0.10781 0.24127
#
# Static dielectric constant tensor:
#      x y z
#    x 1.733530 0.000000 0.000000 
#    y 0.000000 1.649940 0.000000 
#    z 0.000000 0.000000 1.699080 
# 
# From -- ./inp_files/30492.got.cif
#   From: 2010.05.17/outbox.cif.g08.bks.cpg/sg22_16_cif.got.tgz:30492.got - 2010.06.03 23:40:54.
