data_PCOD9326073
_publ_section_title
;
Structure prediction by ZEFSAII (Michael W. Deem and Ramdas Pophale) SiO2 
 PCOD9326073
Probable space group: F 2 2 2
;
_chemical_formula_sum "Si O2"
_cell_formula_units_Z 120
_cell_length_a 21.421422
_cell_length_b 15.970138
_cell_length_c 18.329841
_cell_angle_alpha 90.000000
_cell_angle_beta 90.000000
_cell_angle_gamma 90.000000
_cell_volume 6270.694796
_symmetry_space_group_name_H-M "F 2 2 2"
_symmetry_group_IT_number 22
_symmetry_cell_setting 'orthorhombic'
loop_
_space_group_symop_operation_xyz
x,y,z
-x,-y,z
x,-y,-z
-x,y,-z
x,1/2+y,1/2+z
-x,1/2-y,1/2+z
x,1/2-y,1/2-z
-x,1/2+y,1/2-z
1/2+x,y,1/2+z
1/2-x,-y,1/2+z
1/2+x,-y,1/2-z
1/2-x,y,1/2-z
1/2+x,1/2+y,z
1/2-x,1/2-y,z
1/2+x,1/2-y,-z
1/2-x,1/2+y,-z
loop_
_atom_site_type_symbol
_atom_site_label
_atom_site_fract_x
_atom_site_fract_y
_atom_site_fract_z
Si Si1 0.295112 0.912724 0.098208
Si Si2 0.552058 0.431045 0.648356
Si Si3 0.678483 0.967918 0.234977
Si Si4 0.162295 0.937843 0.115252
Si Si5 0.108373 0.000000 0.500000
Si Si6 0.835845 0.252397 0.166058
Si Si7 0.526888 0.414845 0.080326
Si Si8 0.980417 0.760884 0.665174
O O1 0.227984 0.948345 0.075611
O O2 0.296753 0.815607 0.117518
O O3 0.309269 0.958727 0.175537
O O4 0.346414 0.932704 0.038171
O O5 0.500000 0.500000 0.675817
O O6 0.615943 0.425975 0.698096
O O7 0.570790 0.461835 0.567384
O O8 0.521003 0.339750 0.639855
O O9 0.750000 0.930466 0.250000
O O10 0.658936 0.003234 0.313777
O O11 0.164403 0.842871 0.143128
O O12 0.099350 0.937735 0.070805
O O13 0.817394 0.250000 0.250000
O O14 0.907317 0.284769 0.160854
O O15 0.500000 0.500000 0.115819
O O16 0.514456 0.329323 0.125060
O O17 0.500000 0.403300 0.000000
O O18 0.995777 0.750000 0.750000
#
# Coordination Sequence:
#
# PCOD9326073 Si02
#       8
#    16  16  16  16   8  16  16  16
#     4  10  19  34  54  83 121 156 196 237 309 382
#     4  11  23  36  62  92 126 164 208 251 313 371
#     4   9  19  34  55  89 121 156 196 249 305 363
#     4  10  20  32  58  86 113 155 196 251 305 367
#     4  10  23  38  54  84 127 168 198 244 299 376
#     4  10  18  31  53  87 123 142 185 252 318 359
#     4  10  24  42  60  86 123 161 205 259 314 361
#     4  10  23  37  60  91 119 161 206 252 307 360
#
# _framework density 19.136635999999999
#
# number of rings (size 3 to 8) (size 9 to 14) (size 15 to 20)
#    0.000    2.000    1.333    2.200    5.600    4.800 
#    0.000    0.000    0.000    0.400    0.000    0.000 
#    0.000    0.000    0.000    0.000    0.000    0.000 
#
# Total GULP energy -167073.825035 kJ/mol
# GULP energy per Si atom -5569.127501 kJ/mol
# Density = 1.909308 g / cm^3
# Si number density = 19.136636 Si / 1000 Ang^3
#
#
#
# Elastic Constant Matrix: (Units=GPa)
#
#
# Indices 1 2 3 4 5 6 
#
# 1 142.9215 48.1021 53.7382 0.0000 0.0000 0.0000
# 2 48.1021 94.8492 30.1261 0.0000 0.0000 0.0000
# 3 53.7382 30.1261 82.5588 0.0000 0.0000 0.0000
# 4 0.0000 0.0000 0.0000 -950.2395 0.0000 0.0000
# 5 0.0000 0.0000 0.0000 0.0000 62.7135 0.0000
# 6 0.0000 0.0000 0.0000 0.0000 0.0000 33.9662
#
#
#
# Elastic Compliance Matrix: (Units=1/GPa)
#
#
# Indices 1 2 3 4 5 6 
#
# 1 0.010177 -0.003458 -0.005362 0.000000 0.000000 0.000000
# 2 -0.003458 0.013100 -0.002529 0.000000 0.000000 0.000000
# 3 -0.005362 -0.002529 0.016526 0.000000 0.000000 0.000000
# 4 0.000000 0.000000 0.000000 -0.001052 0.000000 0.000000
# 5 0.000000 0.000000 0.000000 0.000000 0.015946 0.000000
# 6 0.000000 0.000000 0.000000 0.000000 0.000000 0.029441
#
#
# Mechanical properties :
#
#
# Convention : Reuss Voigt Hill
#
# Bulk Modulus (GPa) = 58.46793 64.91802 61.69297
# Shear Modulus (GPa) = 44.42940 -158.15440 -56.86250
#
# Velocity S-wave (km/s) = 4.82362 -9.10078 -5.45696
# Velocity P-wave (km/s) = 7.85126 8.74273 2.71965
#
# Compressibility (1/GPa) = 0.01710339
#
# Stress axis : x y z
#
# Youngs Moduli (GPa) = 98.26159 76.33507 60.51054
#
# Poissons Ratio (x) = 0.26396 0.32448
# Poissons Ratio (y) = 0.33978 0.15306
# Poissons Ratio (z) = 0.52692 0.19309
#
# Static dielectric constant tensor:
#      x y z
#    x 3.085170 0.000000 0.000000 
#    y 0.000000 1.582600 0.000000 
#    z 0.000000 0.000000 1.637170 
# 
# From -- ./inp_files/39091.got.cif
#   From: 2010.05.17/outbox.cif.g08.bks.cpg/sg22_20_cif.got.tgz:39091.got - 2010.06.03 23:40:54.
