data_PCOD9326404
_publ_section_title
;
Structure prediction by ZEFSAII (Michael W. Deem and Ramdas Pophale) SiO2 
 PCOD9326404
Probable space group: F 2 2 2
;
_chemical_formula_sum "Si O2"
_cell_formula_units_Z 104
_cell_length_a 25.152832
_cell_length_b 14.501988
_cell_length_c 15.742148
_cell_angle_alpha 90.000000
_cell_angle_beta 90.000000
_cell_angle_gamma 90.000000
_cell_volume 5742.201425
_symmetry_space_group_name_H-M "F 2 2 2"
_symmetry_group_IT_number 22
_symmetry_cell_setting 'orthorhombic'
loop_
_space_group_symop_operation_xyz
x,y,z
-x,-y,z
x,-y,-z
-x,y,-z
x,1/2+y,1/2+z
-x,1/2-y,1/2+z
x,1/2-y,1/2-z
-x,1/2+y,1/2-z
1/2+x,y,1/2+z
1/2-x,-y,1/2+z
1/2+x,-y,1/2-z
1/2-x,y,1/2-z
1/2+x,1/2+y,z
1/2-x,1/2-y,z
1/2+x,1/2-y,-z
1/2-x,1/2+y,-z
loop_
_atom_site_type_symbol
_atom_site_label
_atom_site_fract_x
_atom_site_fract_y
_atom_site_fract_z
Si Si1 0.785489 0.343242 0.547923
Si Si2 0.650343 0.291259 0.114214
Si Si3 0.191573 0.371811 0.779833
Si Si4 0.601496 0.000000 0.000000
Si Si5 0.938243 0.298579 0.005179
Si Si6 0.634074 0.256976 0.657230
Si Si7 0.308222 0.059709 0.130304
O O1 0.750000 0.250000 0.543327
O O2 0.815359 0.344595 0.457257
O O3 0.830434 0.326436 0.619765
O O4 0.745017 0.423280 0.575282
O O5 0.652168 0.347739 0.202083
O O6 0.676563 0.192332 0.139895
O O7 0.594169 0.262405 0.073656
O O8 0.250000 0.344951 0.750000
O O9 0.195406 0.478150 0.803116
O O10 0.568964 0.908158 0.976170
O O11 0.641849 0.030352 0.926690
O O12 0.908419 0.279564 0.915844
O O13 0.000000 0.275782 0.000000
O O14 0.609074 0.250000 0.750000
O O15 0.675693 0.341423 0.667115
#
# Coordination Sequence:
#
# PCOD9326404 Si02
#       7
#    16  16  16   8  16  16  16
#     4   9  18  32  52  72 111 156 182 216 283 345
#     4  10  20  38  52  79 119 149 192 244 279 338
#     4  11  22  32  55  84 120 155 192 231 287 367
#     4  10  19  34  54  84 116 136 187 246 292 346
#     4  10  20  38  61  79 106 151 198 248 303 344
#     4   9  20  36  52  78 113 144 186 245 279 339
#     4  10  21  32  53  81 115 153 182 227 285 355
#
# _framework density 18.111521
#
# number of rings (size 3 to 8) (size 9 to 14) (size 15 to 20)
#    0.000    2.154    1.538    3.000    4.308    2.154 
#    2.769    0.000    0.000    0.000    0.000    1.077 
#    0.000    0.000    0.000    0.000    0.000    0.000 
#
# Total GULP energy -144913.847147 kJ/mol
# GULP energy per Si atom -5573.609506 kJ/mol
# Density = 1.807030 g / cm^3
# Si number density = 18.111521 Si / 1000 Ang^3
#
#
#
# Elastic Constant Matrix: (Units=GPa)
#
#
# Indices 1 2 3 4 5 6 
#
# 1 115.5825 32.2335 36.9912 0.0000 0.0000 0.0000
# 2 32.2335 72.5288 31.1102 0.0000 0.0000 0.0000
# 3 36.9912 31.1102 92.6695 0.0000 0.0000 0.0000
# 4 0.0000 0.0000 0.0000 24.5166 0.0000 0.0000
# 5 0.0000 0.0000 0.0000 0.0000 12.3637 0.0000
# 6 0.0000 0.0000 0.0000 0.0000 0.0000 17.6423
#
#
#
# Elastic Compliance Matrix: (Units=1/GPa)
#
#
# Indices 1 2 3 4 5 6 
#
# 1 0.010583 -0.003378 -0.003090 0.000000 0.000000 0.000000
# 2 -0.003378 0.017185 -0.004421 0.000000 0.000000 0.000000
# 3 -0.003090 -0.004421 0.013509 0.000000 0.000000 0.000000
# 4 0.000000 0.000000 0.000000 0.040789 0.000000 0.000000
# 5 0.000000 0.000000 0.000000 0.000000 0.080882 0.000000
# 6 0.000000 0.000000 0.000000 0.000000 0.000000 0.056682
#
#
# Mechanical properties :
#
#
# Convention : Reuss Voigt Hill
#
# Bulk Modulus (GPa) = 51.28579 53.49452 52.39015
# Shear Modulus (GPa) = 20.16888 22.93426 21.55157
#
# Velocity S-wave (km/s) = 3.34068 3.56234 3.45329
# Velocity P-wave (km/s) = 6.57710 6.82061 6.69996
#
# Compressibility (1/GPa) = 0.01949858
#
# Stress axis : x y z
#
# Youngs Moduli (GPa) = 94.49234 58.19016 74.02562
#
# Poissons Ratio (x) = 0.19655 0.22878
# Poissons Ratio (y) = 0.31916 0.32726
# Poissons Ratio (z) = 0.29203 0.25726
#
# Static dielectric constant tensor:
#      x y z
#    x 1.603520 0.000000 0.000000 
#    y 0.000000 1.667920 0.000000 
#    z 0.000000 0.000000 1.650670 
# 
# From -- ./inp_files/32535.got.cif
#   From: 2010.05.17/outbox.cif.g08.bks.cpg/sg22_17_cif.got.tgz:32535.got - 2010.06.03 23:40:54.
