data_PCOD9326206
_publ_section_title
;
Structure prediction by ZEFSAII (Michael W. Deem and Ramdas Pophale) SiO2 
 PCOD9326206
Probable space group: F 2 2 2
;
_chemical_formula_sum "Si O2"
_cell_formula_units_Z 120
_cell_length_a 11.432853
_cell_length_b 25.069817
_cell_length_c 22.256846
_cell_angle_alpha 90.000000
_cell_angle_beta 90.000000
_cell_angle_gamma 90.000000
_cell_volume 6379.246795
_symmetry_space_group_name_H-M "F 2 2 2"
_symmetry_group_IT_number 22
_symmetry_cell_setting 'orthorhombic'
loop_
_space_group_symop_operation_xyz
x,y,z
-x,-y,z
x,-y,-z
-x,y,-z
x,1/2+y,1/2+z
-x,1/2-y,1/2+z
x,1/2-y,1/2-z
-x,1/2+y,1/2-z
1/2+x,y,1/2+z
1/2-x,-y,1/2+z
1/2+x,-y,1/2-z
1/2-x,y,1/2-z
1/2+x,1/2+y,z
1/2-x,1/2-y,z
1/2+x,1/2-y,-z
1/2-x,1/2+y,-z
loop_
_atom_site_type_symbol
_atom_site_label
_atom_site_fract_x
_atom_site_fract_y
_atom_site_fract_z
Si Si1 0.261926 0.584732 0.119772
Si Si2 0.322138 0.816404 0.687291
Si Si3 0.997369 0.750000 0.250000
Si Si4 0.230651 0.022102 0.183063
Si Si5 0.851869 0.879039 0.372494
Si Si6 0.141271 0.563040 0.998059
Si Si7 0.582854 0.638539 0.700655
Si Si8 0.001630 0.914425 0.818484
O O1 0.228702 0.524440 0.139345
O O2 0.208279 0.590695 0.053650
O O3 0.202625 0.625421 0.166804
O O4 0.400851 0.586530 0.131416
O O5 0.250000 0.822591 0.750000
O O6 0.406285 0.766173 0.696994
O O7 0.226814 0.826411 0.636229
O O8 0.414532 0.863381 0.677494
O O9 0.068802 0.697536 0.229910
O O10 0.250000 0.002639 0.250000
O O11 0.304389 0.075705 0.173421
O O12 0.094665 0.037716 0.176263
O O13 0.831777 0.906278 0.436440
O O14 0.982433 0.867584 0.350277
O O15 0.173295 0.500000 0.000000
O O16 0.000000 0.565350 0.000000
O O17 0.557862 0.594913 0.753113
#
# Coordination Sequence:
#
# PCOD9326206 Si02
#       8
#    16  16   8  16  16  16  16  16
#     4  12  24  36  56  85 127 172 213 247 311 379
#     4  10  18  35  62  92 121 148 196 261 326 380
#     4  10  21  36  67 102 122 151 199 270 338 388
#     4  11  20  35  57  86 127 165 202 262 309 380
#     4  11  19  35  61  88 120 157 217 260 302 366
#     4  11  23  40  57  82 123 176 223 253 291 371
#     4  11  21  37  59  97 124 154 201 269 331 380
#     4  10  20  36  54  88 126 159 199 251 316 384
#
# _framework density 18.810998000000001
#
# number of rings (size 3 to 8) (size 9 to 14) (size 15 to 20)
#    0.000    1.200    6.667    2.600    0.000    0.533 
#    0.000    8.000    0.000    0.000   20.800    0.000 
#    0.000    0.000    0.000    0.000    0.000    0.000 
#
# Total GULP energy -167209.996037 kJ/mol
# GULP energy per Si atom -5573.666535 kJ/mol
# Density = 1.876818 g / cm^3
# Si number density = 18.810998 Si / 1000 Ang^3
#
#
#
# Elastic Constant Matrix: (Units=GPa)
#
#
# Indices 1 2 3 4 5 6 
#
# 1 86.3037 16.6941 17.8652 0.0000 0.0000 0.0000
# 2 16.6941 75.5724 14.4713 0.0000 0.0000 0.0000
# 3 17.8652 14.4713 97.6941 0.0000 0.0000 0.0000
# 4 0.0000 0.0000 0.0000 17.0240 0.0000 0.0000
# 5 0.0000 0.0000 0.0000 0.0000 27.1698 0.0000
# 6 0.0000 0.0000 0.0000 0.0000 0.0000 18.2707
#
#
#
# Elastic Compliance Matrix: (Units=1/GPa)
#
#
# Indices 1 2 3 4 5 6 
#
# 1 0.012446 -0.002381 -0.001923 0.000000 0.000000 0.000000
# 2 -0.002381 0.014074 -0.001649 0.000000 0.000000 0.000000
# 3 -0.001923 -0.001649 0.010832 0.000000 0.000000 0.000000
# 4 0.000000 0.000000 0.000000 0.058741 0.000000 0.000000
# 5 0.000000 0.000000 0.000000 0.000000 0.036806 0.000000
# 6 0.000000 0.000000 0.000000 0.000000 0.000000 0.054732
#
#
# Mechanical properties :
#
#
# Convention : Reuss Voigt Hill
#
# Bulk Modulus (GPa) = 39.30096 39.73682 39.51889
# Shear Modulus (GPa) = 24.03624 26.52887 25.28255
#
# Velocity S-wave (km/s) = 3.57848 3.75945 3.67008
# Velocity P-wave (km/s) = 6.16538 6.32572 6.24606
#
# Compressibility (1/GPa) = 0.02544467
#
# Stress axis : x y z
#
# Youngs Moduli (GPa) = 80.34915 71.05220 92.31861
#
# Poissons Ratio (x) = 0.16918 0.17755
# Poissons Ratio (y) = 0.19131 0.15227
# Poissons Ratio (z) = 0.15453 0.11719
#
# Static dielectric constant tensor:
#      x y z
#    x 1.709770 0.000000 0.000000 
#    y 0.000000 1.687130 0.000000 
#    z 0.000000 0.000000 1.667150 
# 
# From -- ./inp_files/43038.got.cif
#   From: 2010.05.17/outbox.cif.g08.bks.cpg/sg22_22_cif.got.tgz:43038.got - 2010.06.03 23:40:54.
