data_PCOD9326825
_publ_section_title
;
Structure prediction by ZEFSAII (Michael W. Deem and Ramdas Pophale) SiO2 
 PCOD9326825
Probable space group: F 2 2 2
;
_chemical_formula_sum "Si O2"
_cell_formula_units_Z 112
_cell_length_a 16.482630
_cell_length_b 24.434989
_cell_length_c 14.059247
_cell_angle_alpha 90.000000
_cell_angle_beta 90.000000
_cell_angle_gamma 90.000000
_cell_volume 5662.402258
_symmetry_space_group_name_H-M "F 2 2 2"
_symmetry_group_IT_number 22
_symmetry_cell_setting 'orthorhombic'
loop_
_space_group_symop_operation_xyz
x,y,z
-x,-y,z
x,-y,-z
-x,y,-z
x,1/2+y,1/2+z
-x,1/2-y,1/2+z
x,1/2-y,1/2-z
-x,1/2+y,1/2-z
1/2+x,y,1/2+z
1/2-x,-y,1/2+z
1/2+x,-y,1/2-z
1/2-x,y,1/2-z
1/2+x,1/2+y,z
1/2-x,1/2-y,z
1/2+x,1/2-y,-z
1/2-x,1/2+y,-z
loop_
_atom_site_type_symbol
_atom_site_label
_atom_site_fract_x
_atom_site_fract_y
_atom_site_fract_z
Si Si1 0.661244 0.084184 0.788654
Si Si2 0.443361 0.309432 0.260932
Si Si3 0.091472 0.694603 0.107670
Si Si4 0.598148 0.583681 0.502309
Si Si5 0.659101 0.369321 0.225955
Si Si6 0.436851 0.315133 0.918726
Si Si7 0.409920 0.024665 0.809862
O O1 0.750000 0.094807 0.750000
O O2 0.608586 0.136054 0.756489
O O3 0.636779 0.023287 0.755313
O O4 0.642152 0.078788 0.901625
O O5 0.401006 0.250000 0.250000
O O6 0.498144 0.311179 0.356389
O O7 0.507083 0.310158 0.174737
O O8 0.112801 0.645145 0.038985
O O9 0.143727 0.682227 0.202881
O O10 0.098060 0.754395 0.063001
O O11 0.500000 0.576944 0.500000
O O12 0.623178 0.541720 0.585802
O O13 0.750000 0.388204 0.250000
O O14 0.637130 0.352581 0.118347
O O15 0.597178 0.417775 0.255204
O O16 0.500000 0.332860 0.000000
O O17 0.500000 0.000000 0.819988
#
# Coordination Sequence:
#
# PCOD9326825 Si02
#       7
#    16  16  16  16  16  16  16
#     4  12  24  37  58  92 131 158 190 262 337 375
#     4   9  19  37  59  84 118 165 206 254 311 380
#     4   9  18  34  62  89 115 158 214 262 296 361
#     4  11  19  35  65  95 114 146 214 265 298 360
#     4  10  21  38  58  89 130 165 203 265 335 378
#     4  10  20  35  60  87 117 163 219 258 298 373
#     4  11  21  38  67  92 117 162 220 266 304 379
#
# _framework density 19.779589999999999
#
# number of rings (size 3 to 8) (size 9 to 14) (size 15 to 20)
#    0.000    1.714    2.857    4.286    2.000    1.429 
#    5.143    0.000    0.000    3.000    0.000    0.000 
#    0.000    0.000    0.000    0.000    0.000    0.000 
#
# Total GULP energy -156007.837797 kJ/mol
# GULP energy per Si atom -5571.708493 kJ/mol
# Density = 1.973457 g / cm^3
# Si number density = 19.779590 Si / 1000 Ang^3
#
#
#
# Elastic Constant Matrix: (Units=GPa)
#
#
# Indices 1 2 3 4 5 6 
#
# 1 55.3869 21.6790 12.0671 0.0000 0.0000 0.0000
# 2 21.6790 114.2386 12.8333 0.0000 0.0000 0.0000
# 3 12.0671 12.8333 48.1068 0.0000 0.0000 0.0000
# 4 0.0000 0.0000 0.0000 23.8655 0.0000 0.0000
# 5 0.0000 0.0000 0.0000 0.0000 23.8787 0.0000
# 6 0.0000 0.0000 0.0000 0.0000 0.0000 18.3086
#
#
#
# Elastic Compliance Matrix: (Units=1/GPa)
#
#
# Indices 1 2 3 4 5 6 
#
# 1 0.020290 -0.003380 -0.004188 0.000000 0.000000 0.000000
# 2 -0.003380 0.009587 -0.001710 0.000000 0.000000 0.000000
# 3 -0.004188 -0.001710 0.022294 0.000000 0.000000 0.000000
# 4 0.000000 0.000000 0.000000 0.041902 0.000000 0.000000
# 5 0.000000 0.000000 0.000000 0.000000 0.041878 0.000000
# 6 0.000000 0.000000 0.000000 0.000000 0.000000 0.054619
#
#
# Mechanical properties :
#
#
# Convention : Reuss Voigt Hill
#
# Bulk Modulus (GPa) = 29.74795 34.54346 32.14571
# Shear Modulus (GPa) = 22.69318 24.62074 23.65696
#
# Velocity S-wave (km/s) = 3.39086 3.53194 3.46212
# Velocity P-wave (km/s) = 5.51389 5.84251 5.68057
#
# Compressibility (1/GPa) = 0.03361576
#
# Stress axis : x y z
#
# Youngs Moduli (GPa) = 49.28487 104.30694 44.85579
#
# Poissons Ratio (x) = 0.35256 0.18785
# Poissons Ratio (y) = 0.16658 0.07669
# Poissons Ratio (z) = 0.20640 0.17833
#
# Static dielectric constant tensor:
#      x y z
#    x 1.745100 0.000000 0.000000 
#    y 0.000000 1.757110 0.000000 
#    z 0.000000 0.000000 1.745200 
# 
# From -- ./inp_files/29610.got.cif
#   From: 2010.05.17/outbox.cif.g08.bks.cpg/sg22_15_cif.got.tgz:29610.got - 2010.06.03 23:40:54.
