data_PCOD9326622
_publ_section_title
;
Structure prediction by ZEFSAII (Michael W. Deem and Ramdas Pophale) SiO2 
 PCOD9326622
Probable space group: F 2 2 2
;
_chemical_formula_sum "Si O2"
_cell_formula_units_Z 88
_cell_length_a 10.790783
_cell_length_b 24.202288
_cell_length_c 17.344520
_cell_angle_alpha 90.000000
_cell_angle_beta 90.000000
_cell_angle_gamma 90.000000
_cell_volume 4529.723252
_symmetry_space_group_name_H-M "F 2 2 2"
_symmetry_group_IT_number 22
_symmetry_cell_setting 'orthorhombic'
loop_
_space_group_symop_operation_xyz
x,y,z
-x,-y,z
x,-y,-z
-x,y,-z
x,1/2+y,1/2+z
-x,1/2-y,1/2+z
x,1/2-y,1/2-z
-x,1/2+y,1/2-z
1/2+x,y,1/2+z
1/2-x,-y,1/2+z
1/2+x,-y,1/2-z
1/2-x,y,1/2-z
1/2+x,1/2+y,z
1/2-x,1/2-y,z
1/2+x,1/2-y,-z
1/2-x,1/2+y,-z
loop_
_atom_site_type_symbol
_atom_site_label
_atom_site_fract_x
_atom_site_fract_y
_atom_site_fract_z
Si Si1 0.750000 0.250000 0.566325
Si Si2 0.853860 0.134225 0.984347
Si Si3 0.117451 0.801414 0.707198
Si Si4 0.114092 0.462364 0.366984
Si Si5 0.747720 0.070916 0.368979
Si Si6 0.536880 0.408849 0.258286
O O1 0.807138 0.302859 0.523374
O O2 0.850292 0.220401 0.622404
O O3 0.850629 0.094515 0.908909
O O4 0.779699 0.102247 0.051531
O O5 0.000000 0.136184 0.000000
O O6 0.055401 0.750000 0.750000
O O7 0.250000 0.810884 0.750000
O O8 0.033277 0.853567 0.719088
O O9 0.223604 0.505610 0.372720
O O10 0.000000 0.500000 0.401982
O O11 0.067072 0.447846 0.281000
O O12 0.641279 0.093916 0.309779
O O13 0.882660 0.076362 0.332572
#
# Coordination Sequence:
#
# PCOD9326622 Si02
#       6
#     8  16  16  16  16  16
#     4  10  25  40  58  97 118 178 228 260 320 395
#     4  12  22  40  66  91 129 175 225 271 321 397
#     4   9  19  38  64  89 124 167 222 265 318 391
#     4  10  19  38  66  95 125 168 217 274 320 402
#     4  10  23  37  62 101 128 159 218 267 345 381
#     4  10  20  40  59  97 130 157 206 276 329 385
#
# _framework density 19.427237000000002
#
# number of rings (size 3 to 8) (size 9 to 14) (size 15 to 20)
#    0.000    2.000    3.636    2.727    0.000    1.455 
#   26.182    0.909    0.000    0.000    0.000    0.000 
#    0.000    0.000    0.000    0.000    0.000    0.000 
#
# Total GULP energy -122568.972813 kJ/mol
# GULP energy per Si atom -5571.316946 kJ/mol
# Density = 1.938302 g / cm^3
# Si number density = 19.427237 Si / 1000 Ang^3
#
#
#
# Elastic Constant Matrix: (Units=GPa)
#
#
# Indices 1 2 3 4 5 6 
#
# 1 42.0541 64.4741 28.3483 0.0000 0.0000 0.0000
# 2 64.4741 177.3949 50.0339 0.0000 0.0000 0.0000
# 3 28.3483 50.0339 76.0095 0.0000 0.0000 0.0000
# 4 0.0000 0.0000 0.0000 38.1846 0.0000 0.0000
# 5 0.0000 0.0000 0.0000 0.0000 15.2558 0.0000
# 6 0.0000 0.0000 0.0000 0.0000 0.0000 49.7355
#
#
#
# Elastic Compliance Matrix: (Units=1/GPa)
#
#
# Indices 1 2 3 4 5 6 
#
# 1 0.058990 -0.018708 -0.009686 0.000000 0.000000 0.000000
# 2 -0.018708 0.012855 -0.001485 0.000000 0.000000 0.000000
# 3 -0.009686 -0.001485 0.017746 0.000000 0.000000 0.000000
# 4 0.000000 0.000000 0.000000 0.026189 0.000000 0.000000
# 5 0.000000 0.000000 0.000000 0.000000 0.065549 0.000000
# 6 0.000000 0.000000 0.000000 0.000000 0.000000 0.020106
#
#
# Mechanical properties :
#
#
# Convention : Reuss Voigt Hill
#
# Bulk Modulus (GPa) = 33.51925 64.57458 49.04692
# Shear Modulus (GPa) = 18.44087 30.80865 24.62476
#
# Velocity S-wave (km/s) = 3.08430 3.98659 3.56411
# Velocity P-wave (km/s) = 5.47495 7.38254 6.49911
#
# Compressibility (1/GPa) = 0.02983360
#
# Stress axis : x y z
#
# Youngs Moduli (GPa) = 16.95216 77.78889 56.35028
#
# Poissons Ratio (x) = 1.45526 0.54581
# Poissons Ratio (y) = 0.31714 0.08368
# Poissons Ratio (z) = 0.16420 0.11551
#
# Static dielectric constant tensor:
#      x y z
#    x 1.657200 0.000000 0.000000 
#    y 0.000000 1.703010 0.000000 
#    z 0.000000 0.000000 1.749350 
# 
# From -- ./inp_files/28213.got.cif
#   From: 2010.05.17/outbox.cif.g08.bks.cpg/sg22_15_cif.got.tgz:28213.got - 2010.06.03 23:40:54.
