data_PCOD9326765
_publ_section_title
;
Structure prediction by ZEFSAII (Michael W. Deem and Ramdas Pophale) SiO2 
 PCOD9326765
Probable space group: F 2 2 2
;
_chemical_formula_sum "Si O2"
_cell_formula_units_Z 128
_cell_length_a 24.795936
_cell_length_b 18.965686
_cell_length_c 12.679781
_cell_angle_alpha 90.000000
_cell_angle_beta 90.000000
_cell_angle_gamma 90.000000
_cell_volume 5962.945162
_symmetry_space_group_name_H-M "F 2 2 2"
_symmetry_group_IT_number 22
_symmetry_cell_setting 'orthorhombic'
loop_
_space_group_symop_operation_xyz
x,y,z
-x,-y,z
x,-y,-z
-x,y,-z
x,1/2+y,1/2+z
-x,1/2-y,1/2+z
x,1/2-y,1/2-z
-x,1/2+y,1/2-z
1/2+x,y,1/2+z
1/2-x,-y,1/2+z
1/2+x,-y,1/2-z
1/2-x,y,1/2-z
1/2+x,1/2+y,z
1/2-x,1/2-y,z
1/2+x,1/2-y,-z
1/2-x,1/2+y,-z
loop_
_atom_site_type_symbol
_atom_site_label
_atom_site_fract_x
_atom_site_fract_y
_atom_site_fract_z
Si Si1 0.312386 0.534923 0.771438
Si Si2 0.807738 0.871283 0.788845
Si Si3 0.838050 0.606160 0.063400
Si Si4 0.062088 0.791176 0.011814
Si Si5 0.055537 0.621505 0.055058
Si Si6 0.080010 0.328051 0.736602
Si Si7 0.160189 0.265570 0.373245
Si Si8 0.783989 0.891680 0.031898
O O1 0.250000 0.555158 0.750000
O O2 0.316911 0.452022 0.753546
O O3 0.345252 0.576493 0.682418
O O4 0.317926 0.554372 0.894663
O O5 0.750000 0.845740 0.750000
O O6 0.856415 0.828141 0.738133
O O7 0.804672 0.875411 0.915300
O O8 0.834052 0.690752 0.069659
O O9 0.778487 0.583797 0.023919
O O10 0.890090 0.588144 0.992983
O O11 0.061723 0.706419 0.034769
O O12 0.079535 0.837625 0.111953
O O13 0.104108 0.799215 0.916463
O O14 0.000000 0.810058 0.000000
O O15 0.053332 0.618189 0.182147
O O16 0.000000 0.598518 0.000000
O O17 0.055506 0.250000 0.750000
O O18 0.158237 0.250000 0.250000
O O19 0.207670 0.319196 0.402911
#
# Coordination Sequence:
#
# PCOD9326765 Si02
#       8
#    16  16  16  16  16  16  16  16
#     4   9  20  36  56  80 113 153 197 242 284 347
#     4  11  22  37  56  82 114 157 196 231 291 359
#     4  10  20  34  55  84 117 152 192 239 299 351
#     4   9  19  34  53  82 116 151 192 235 292 354
#     4   9  19  35  56  83 112 150 191 244 294 351
#     4  10  20  37  55  80 116 144 187 242 294 350
#     4  11  20  32  55  87 122 152 192 241 303 352
#     4  11  20  35  55  86 119 153 191 242 296 355
#
# _framework density 21.465903000000001
#
# number of rings (size 3 to 8) (size 9 to 14) (size 15 to 20)
#    0.000    2.000    2.500    1.500    0.000    4.250 
#    2.250    1.875    0.000    1.500    0.000    0.875 
#    0.000    0.000    0.000    0.000    0.000    0.000 
#
# Total GULP energy -178441.007163 kJ/mol
# GULP energy per Si atom -5576.281474 kJ/mol
# Density = 2.141705 g / cm^3
# Si number density = 21.465903 Si / 1000 Ang^3
#
#
#
# Elastic Constant Matrix: (Units=GPa)
#
#
# Indices 1 2 3 4 5 6 
#
# 1 101.3430 8.9850 39.0674 0.0000 0.0000 0.0000
# 2 8.9850 43.0533 2.4438 0.0000 0.0000 0.0000
# 3 39.0674 2.4438 101.7808 0.0000 0.0000 0.0000
# 4 0.0000 0.0000 0.0000 12.5553 0.0000 0.0000
# 5 0.0000 0.0000 0.0000 0.0000 22.5789 0.0000
# 6 0.0000 0.0000 0.0000 0.0000 0.0000 -2.1809
#
#
#
# Elastic Compliance Matrix: (Units=1/GPa)
#
#
# Indices 1 2 3 4 5 6 
#
# 1 0.011787 -0.002206 -0.004471 0.000000 0.000000 0.000000
# 2 -0.002206 0.023672 0.000278 0.000000 0.000000 0.000000
# 3 -0.004471 0.000278 0.011535 0.000000 0.000000 0.000000
# 4 0.000000 0.000000 0.000000 0.079648 0.000000 0.000000
# 5 0.000000 0.000000 0.000000 0.000000 0.044289 0.000000
# 6 0.000000 0.000000 0.000000 0.000000 0.000000 -0.458535
#
#
# Mechanical properties :
#
#
# Convention : Reuss Voigt Hill
#
# Bulk Modulus (GPa) = 29.24388 38.57439 33.90913
# Shear Modulus (GPa) = -18.98189 19.63604 0.32707
#
# Velocity S-wave (km/s) = -2.97691 3.02777 0.39077
# Velocity P-wave (km/s) = 1.35535 5.49839 4.00433
#
# Compressibility (1/GPa) = 0.03419519
#
# Stress axis : x y z
#
# Youngs Moduli (GPa) = 84.84131 42.24469 86.69577
#
# Poissons Ratio (x) = 0.09319 0.38764
# Poissons Ratio (y) = 0.18716 -0.02413
# Poissons Ratio (z) = 0.37935 -0.01176
#
# Static dielectric constant tensor:
#      x y z
#    x 1.789170 0.000000 0.000000 
#    y 0.000000 1.796960 0.000000 
#    z 0.000000 0.000000 1.847870 
# 
# From -- ./inp_files/24084.got.cif
#   From: 2010.05.17/outbox.cif.g08.bks.cpg/sg22_13_cif.got.tgz:24084.got - 2010.06.03 23:40:54.
