data_PCOD9326088
_publ_section_title
;
Structure prediction by ZEFSAII (Michael W. Deem and Ramdas Pophale) SiO2 
 PCOD9326088
Probable space group: F 2 2 2
;
_chemical_formula_sum "Si O2"
_cell_formula_units_Z 56
_cell_length_a 32.439834
_cell_length_b 5.275761
_cell_length_c 13.945052
_cell_angle_alpha 90.000000
_cell_angle_beta 90.000000
_cell_angle_gamma 90.000000
_cell_volume 2386.623290
_symmetry_space_group_name_H-M "F 2 2 2"
_symmetry_group_IT_number 22
_symmetry_cell_setting 'orthorhombic'
loop_
_space_group_symop_operation_xyz
x,y,z
-x,-y,z
x,-y,-z
-x,y,-z
x,1/2+y,1/2+z
-x,1/2-y,1/2+z
x,1/2-y,1/2-z
-x,1/2+y,1/2-z
1/2+x,y,1/2+z
1/2-x,-y,1/2+z
1/2+x,-y,1/2-z
1/2-x,y,1/2-z
1/2+x,1/2+y,z
1/2-x,1/2-y,z
1/2+x,1/2-y,-z
1/2-x,1/2+y,-z
loop_
_atom_site_type_symbol
_atom_site_label
_atom_site_fract_x
_atom_site_fract_y
_atom_site_fract_z
Si Si1 0.500000 0.000000 0.310306
Si Si2 0.295767 0.247693 0.933452
Si Si3 0.089176 0.546558 0.636969
Si Si4 0.122258 0.556481 0.146234
O O1 0.513362 0.250000 0.250000
O O2 0.540668 0.900432 0.364169
O O3 0.250000 0.250000 0.888320
O O4 0.332781 0.182936 0.861130
O O5 0.301273 0.500000 0.000000
O O6 0.295582 0.000000 0.000000
O O7 0.104682 0.496504 0.747009
O O8 0.094712 0.268055 0.594381
O O9 0.117500 0.777023 0.602261
#
# Coordination Sequence:
#
# PCOD9326088 Si02
#       4
#     8  16  16  16
#     4  12  16  30  48  80 118 138 174 206 252 330
#     4  10  21  37  56  75  98 138 190 232 266 312
#     4  10  19  30  51  83 111 138 168 209 270 325
#     4  10  18  32  50  76 108 134 171 222 262 319
#
# _framework density 23.464112
#
# number of rings (size 3 to 8) (size 9 to 14) (size 15 to 20)
#    0.000    1.714    5.714    1.714    0.000    0.000 
#    0.000    2.857    0.000    6.857    0.000   24.000 
#    0.000    0.000    0.000    0.000    0.000    0.000 
#
# Total GULP energy -77967.380385 kJ/mol
# GULP energy per Si atom -5569.098599 kJ/mol
# Density = 2.341071 g / cm^3
# Si number density = 23.464112 Si / 1000 Ang^3
#
#
#
# Elastic Constant Matrix: (Units=GPa)
#
#
# Indices 1 2 3 4 5 6 
#
# 1 203.4157 29.2542 19.4753 0.0000 0.0000 0.0000
# 2 29.2542 215.5105 0.7802 0.0000 -0.0001 -0.0001
# 3 19.4753 0.7802 71.7384 0.0000 0.0000 0.0000
# 4 0.0000 0.0000 0.0000 4.3465 0.0000 0.0000
# 5 0.0000 -0.0001 0.0000 0.0000 10.3185 0.0000
# 6 0.0000 -0.0001 0.0000 0.0000 0.0000 36.3905
#
#
#
# Elastic Compliance Matrix: (Units=1/GPa)
#
#
# Indices 1 2 3 4 5 6 
#
# 1 0.005149 -0.000694 -0.001390 0.000000 0.000000 0.000000
# 2 -0.000694 0.004734 0.000137 0.000000 0.000000 0.000000
# 3 -0.001390 0.000137 0.014315 0.000000 0.000000 0.000000
# 4 0.000000 0.000000 0.000000 0.230071 0.000001 0.000000
# 5 0.000000 0.000000 0.000000 0.000001 0.096913 0.000000
# 6 0.000000 0.000000 0.000000 0.000000 0.000000 0.027480
#
#
# Mechanical properties :
#
#
# Convention : Reuss Voigt Hill
#
# Bulk Modulus (GPa) = 49.25211 65.52043 57.38627
# Shear Modulus (GPa) = 12.84276 39.62143 26.23210
#
# Velocity S-wave (km/s) = 2.34206 4.11371 3.34723
# Velocity P-wave (km/s) = 5.32444 7.10970 6.28082
#
# Compressibility (1/GPa) = 0.02030370
#
# Stress axis : x y z
#
# Youngs Moduli (GPa) = 194.21472 211.24485 69.85450
#
# Poissons Ratio (x) = 0.14658 0.09712
# Poissons Ratio (y) = 0.13477 -0.00956
# Poissons Ratio (z) = 0.27001 -0.02892
#
# Static dielectric constant tensor:
#      x y z
#    x 1.938310 0.000000 0.000000 
#    y 0.000000 2.208870 0.000000 
#    z 0.000000 0.000000 2.183700 
# 
# From -- ./inp_files/5237.got.cif
#   From: 2010.05.17/outbox.cif.g08.bks.cpg/sg22_3_cif.got.tgz:5237.got - 2010.06.03 23:40:54.
