data_PCOD9326749
_publ_section_title
;
Structure prediction by ZEFSAII (Michael W. Deem and Ramdas Pophale) SiO2 
 PCOD9326749
Probable space group: F 2 2 2
;
_chemical_formula_sum "Si O2"
_cell_formula_units_Z 116
_cell_length_a 25.218230
_cell_length_b 8.527764
_cell_length_c 24.061763
_cell_angle_alpha 90.000000
_cell_angle_beta 90.000000
_cell_angle_gamma 90.000000
_cell_volume 5174.605184
_symmetry_space_group_name_H-M "F 2 2 2"
_symmetry_group_IT_number 22
_symmetry_cell_setting 'orthorhombic'
loop_
_space_group_symop_operation_xyz
x,y,z
-x,-y,z
x,-y,-z
-x,y,-z
x,1/2+y,1/2+z
-x,1/2-y,1/2+z
x,1/2-y,1/2-z
-x,1/2+y,1/2-z
1/2+x,y,1/2+z
1/2-x,-y,1/2+z
1/2+x,-y,1/2-z
1/2-x,y,1/2-z
1/2+x,1/2+y,z
1/2-x,1/2-y,z
1/2+x,1/2-y,-z
1/2-x,1/2+y,-z
loop_
_atom_site_type_symbol
_atom_site_label
_atom_site_fract_x
_atom_site_fract_y
_atom_site_fract_z
Si Si1 0.992861 0.688943 0.414444
Si Si2 0.585720 0.311555 0.002621
Si Si3 0.250000 0.250000 0.750000
Si Si4 0.106367 0.608193 0.712354
Si Si5 0.055724 0.203779 0.812904
Si Si6 0.810710 0.775873 0.368744
Si Si7 0.195532 0.186125 0.498024
Si Si8 0.342724 0.915781 0.186514
O O1 0.039902 0.741278 0.455475
O O2 0.008577 0.748941 0.354179
O O3 0.000000 0.500000 0.416578
O O4 0.936838 0.735079 0.441476
O O5 0.589695 0.500000 0.000000
O O6 0.640780 0.243926 0.023292
O O7 0.288978 0.160032 0.791649
O O8 0.083733 0.750000 0.750000
O O9 0.066729 0.483145 0.685086
O O10 0.148014 0.672458 0.666896
O O11 0.136643 0.506724 0.758792
O O12 0.043862 0.250000 0.750000
O O13 0.110801 0.292933 0.828297
O O14 0.750000 0.750000 0.348060
O O15 0.808964 0.747574 0.434710
O O16 0.829192 0.954738 0.359188
O O17 0.250000 0.250000 0.523250
O O18 0.197895 0.000000 0.500000
#
# Coordination Sequence:
#
# PCOD9326749 Si02
#       8
#    16  16   4  16  16  16  16  16
#     4   9  20  39  69  97 125 169 225 275 327 389
#     4   9  20  42  72  98 122 169 226 274 329 390
#     4  12  16  32  54  84 128 164 226 256 310 372
#     4   9  18  35  55  85 125 172 212 266 324 388
#     4  10  20  37  62  94 132 171 218 270 339 394
#     4  10  22  36  55  87 123 170 222 263 333 391
#     4  11  25  45  65  97 137 170 209 270 336 401
#     4  10  20  33  55  88 126 173 216 269 317 390
#
# _framework density 22.417169999999999
#
# number of rings (size 3 to 8) (size 9 to 14) (size 15 to 20)
#    0.000    2.207    2.069    2.069    5.793    1.931 
#    1.241    2.069    3.034    1.655    0.000    0.000 
#    0.000    0.000    0.000    0.000    0.000    0.000 
#
# Total GULP energy -161980.265135 kJ/mol
# GULP energy per Si atom -5585.526384 kJ/mol
# Density = 2.236615 g / cm^3
# Si number density = 22.417170 Si / 1000 Ang^3
#
#
#
# Elastic Constant Matrix: (Units=GPa)
#
#
# Indices 1 2 3 4 5 6 
#
# 1 134.9113 33.1665 24.8966 0.0000 0.0000 0.0000
# 2 33.1665 71.5290 1.5828 0.0000 0.0000 0.0000
# 3 24.8966 1.5828 55.8657 0.0000 0.0000 0.0000
# 4 0.0000 0.0000 0.0000 17.0968 0.0000 0.0000
# 5 0.0000 0.0000 0.0000 0.0000 20.4046 0.0000
# 6 0.0000 0.0000 0.0000 0.0000 0.0000 3.7548
#
#
#
# Elastic Compliance Matrix: (Units=1/GPa)
#
#
# Indices 1 2 3 4 5 6 
#
# 1 0.009168 -0.004163 -0.003968 0.000000 0.000000 0.000000
# 2 -0.004163 0.015880 0.001405 0.000000 0.000000 0.000000
# 3 -0.003968 0.001405 0.019628 0.000000 0.000000 0.000000
# 4 0.000000 0.000000 0.000000 0.058491 0.000000 0.000000
# 5 0.000000 0.000000 0.000000 0.000000 0.049009 0.000000
# 6 0.000000 0.000000 0.000000 0.000000 0.000000 0.266323
#
#
# Mechanical properties :
#
#
# Convention : Reuss Voigt Hill
#
# Bulk Modulus (GPa) = 32.02558 42.39974 37.21266
# Shear Modulus (GPa) = 11.30308 21.76192 16.53250
#
# Velocity S-wave (km/s) = 2.24791 3.11910 2.71863
# Velocity P-wave (km/s) = 4.58854 5.65037 5.14691
#
# Compressibility (1/GPa) = 0.03122504
#
# Stress axis : x y z
#
# Youngs Moduli (GPa) = 109.07549 62.97376 50.94639
#
# Poissons Ratio (x) = 0.26217 0.20214
# Poissons Ratio (y) = 0.45410 -0.07160
# Poissons Ratio (z) = 0.43278 -0.08851
#
# Static dielectric constant tensor:
#      x y z
#    x 1.857410 0.000000 0.000000 
#    y 0.000000 1.821630 0.000000 
#    z 0.000000 0.000000 1.873780 
# 
# From -- ./inp_files/54199.got.cif
#   From: 2010.05.17/outbox.cif.g08.bks.cpg/sg22_28_cif.got.tgz:54199.got - 2010.06.03 23:40:54.
