data_PCOD9326795
_publ_section_title
;
Structure prediction by ZEFSAII (Michael W. Deem and Ramdas Pophale) SiO2 
 PCOD9326795
Probable space group: F 2 2 2
;
_chemical_formula_sum "Si O2"
_cell_formula_units_Z 96
_cell_length_a 25.977123
_cell_length_b 24.568718
_cell_length_c 7.650369
_cell_angle_alpha 90.000000
_cell_angle_beta 90.000000
_cell_angle_gamma 90.000000
_cell_volume 4882.653767
_symmetry_space_group_name_H-M "F 2 2 2"
_symmetry_group_IT_number 22
_symmetry_cell_setting 'orthorhombic'
loop_
_space_group_symop_operation_xyz
x,y,z
-x,-y,z
x,-y,-z
-x,y,-z
x,1/2+y,1/2+z
-x,1/2-y,1/2+z
x,1/2-y,1/2-z
-x,1/2+y,1/2-z
1/2+x,y,1/2+z
1/2-x,-y,1/2+z
1/2+x,-y,1/2-z
1/2-x,y,1/2-z
1/2+x,1/2+y,z
1/2-x,1/2-y,z
1/2+x,1/2-y,-z
1/2-x,1/2+y,-z
loop_
_atom_site_type_symbol
_atom_site_label
_atom_site_fract_x
_atom_site_fract_y
_atom_site_fract_z
Si Si1 0.168564 0.937484 0.000008
Si Si2 0.416968 0.310944 0.703040
Si Si3 0.804754 0.353076 0.796957
Si Si4 0.083030 0.689056 0.796957
Si Si5 0.195246 0.146920 0.703024
Si Si6 0.555542 0.895149 0.500002
O O1 0.188441 0.904475 0.168789
O O2 0.106354 0.931980 0.000003
O O3 0.188442 0.904469 0.831242
O O4 0.184193 0.000000 0.000000
O O5 0.433407 0.250000 0.750000
O O6 0.428037 0.322036 0.499999
O O7 0.355091 0.316192 0.730381
O O8 0.440373 0.355391 0.832298
O O9 0.750000 0.326721 0.750000
O O10 0.855093 0.316190 0.769609
O O11 0.804337 0.369114 0.999989
O O12 0.066589 0.750000 0.750000
O O13 0.059626 0.644609 0.667700
O O14 0.250000 0.173272 0.750000
O O15 0.500000 0.922990 0.500000
#
# Coordination Sequence:
#
# PCOD9326795 Si02
#       6
#    16  16  16  16  16  16
#     4  10  22  39  57  79 107 139 180 226 270 318
#     4  10  20  35  54  80 113 145 179 218 261 315
#     4  10  20  35  54  80 113 145 179 218 261 315
#     4  10  20  35  54  80 113 145 179 218 261 315
#     4  10  20  35  54  80 113 145 179 218 261 315
#     4  10  22  39  57  79 107 139 180 226 270 318
#
# _framework density 19.661439000000001
#
# number of rings (size 3 to 8) (size 9 to 14) (size 15 to 20)
#    0.000    2.000    3.333    0.000    0.000    3.667 
#    0.000    3.333    0.000    0.000    0.000    9.333 
#    0.000    0.000    0.000    0.000    0.000    0.000 
#
# Total GULP energy -134001.207690 kJ/mol
# GULP energy per Si atom -5583.383654 kJ/mol
# Density = 1.961669 g / cm^3
# Si number density = 19.661439 Si / 1000 Ang^3
#
#
#
# Elastic Constant Matrix: (Units=GPa)
#
#
# Indices 1 2 3 4 5 6 
#
# 1 102.1177 -23.0380 8.5888 -0.0007 0.0014 0.0004
# 2 -23.0380 50.8433 17.9186 -0.0018 0.0047 0.0007
# 3 8.5888 17.9186 113.9590 -0.0028 0.0044 0.0010
# 4 -0.0007 -0.0018 -0.0028 14.1778 0.0044 0.0004
# 5 0.0014 0.0047 0.0044 0.0044 -62.6798 -0.0027
# 6 0.0004 0.0007 0.0010 0.0004 -0.0027 -4.0519
#
#
#
# Elastic Compliance Matrix: (Units=1/GPa)
#
#
# Indices 1 2 3 4 5 6 
#
# 1 0.011225 0.005700 -0.001742 0.000001 0.000001 0.000002
# 2 0.005700 0.023717 -0.004159 0.000002 0.000002 0.000004
# 3 -0.001742 -0.004159 0.009560 0.000001 0.000000 0.000001
# 4 0.000001 0.000002 0.000001 0.070533 0.000005 0.000007
# 5 0.000001 0.000002 0.000000 0.000005 -0.015954 0.000011
# 6 0.000002 0.000004 0.000001 0.000007 0.000011 -0.246801
#
#
# Mechanical properties :
#
#
# Convention : Reuss Voigt Hill
#
# Bulk Modulus (GPa) = 22.67528 30.42875 26.55201
# Shear Modulus (GPa) = -37.70224 7.05262 -15.32481
#
# Velocity S-wave (km/s) = -4.38376 1.89600 -2.79486
# Velocity P-wave (km/s) = 3.75037 4.50589 1.76604
#
# Compressibility (1/GPa) = 0.04410090
#
# Stress axis : x y z
#
# Youngs Moduli (GPa) = 89.08542 42.16406 104.59909
#
# Poissons Ratio (x) = -0.24035 0.18225
# Poissons Ratio (y) = -0.50782 0.43501
# Poissons Ratio (z) = 0.15522 0.17535
#
# Static dielectric constant tensor:
#      x y z
#    x 1.745470 0.000000 0.000000 
#    y 0.000000 1.617720 0.000000 
#    z 0.000000 0.000000 1.669360 
# 
# From -- ./inp_files/14003.got.cif
#   From: 2010.05.17/outbox.cif.g08.bks.cpg/sg22_8_cif.got.tgz:14003.got - 2010.06.03 23:40:54.
