data_PCOD9326012
_publ_section_title
;
Structure prediction by ZEFSAII (Michael W. Deem and Ramdas Pophale) SiO2 
 PCOD9326012
Probable space group: F 2 2 2
;
_chemical_formula_sum "Si O2"
_cell_formula_units_Z 104
_cell_length_a 7.354786
_cell_length_b 18.158608
_cell_length_c 30.223961
_cell_angle_alpha 90.000000
_cell_angle_beta 90.000000
_cell_angle_gamma 90.000000
_cell_volume 4036.490868
_symmetry_space_group_name_H-M "F 2 2 2"
_symmetry_group_IT_number 22
_symmetry_cell_setting 'orthorhombic'
loop_
_space_group_symop_operation_xyz
x,y,z
-x,-y,z
x,-y,-z
-x,y,-z
x,1/2+y,1/2+z
-x,1/2-y,1/2+z
x,1/2-y,1/2-z
-x,1/2+y,1/2-z
1/2+x,y,1/2+z
1/2-x,-y,1/2+z
1/2+x,-y,1/2-z
1/2-x,y,1/2-z
1/2+x,1/2+y,z
1/2-x,1/2-y,z
1/2+x,1/2-y,-z
1/2-x,1/2+y,-z
loop_
_atom_site_type_symbol
_atom_site_label
_atom_site_fract_x
_atom_site_fract_y
_atom_site_fract_z
Si Si1 0.123288 0.355775 0.821401
Si Si2 0.510514 0.786778 0.297682
Si Si3 0.221060 0.927321 0.918369
Si Si4 0.699923 0.095839 0.413067
Si Si5 0.216629 0.334315 0.498751
Si Si6 0.250000 0.452154 0.750000
Si Si7 0.847445 0.442270 0.670661
O O1 0.308502 0.319310 0.801965
O O2 0.989327 0.286600 0.828309
O O3 0.195849 0.391141 0.866966
O O4 0.091918 0.407669 0.778004
O O5 0.547229 0.750000 0.250000
O O6 0.616459 0.860225 0.311515
O O7 0.298765 0.882746 0.959219
O O8 0.299104 0.930763 0.868457
O O9 0.019277 0.891794 0.908682
O O10 0.215930 0.012823 0.931312
O O11 0.776815 0.147755 0.451503
O O12 0.250000 0.250000 0.488442
O O13 0.000000 0.350744 0.500000
O O14 0.193937 0.506086 0.711312
O O15 0.000000 0.500000 0.649675
#
# Coordination Sequence:
#
# PCOD9326012 Si02
#       7
#    16  16  16  16  16   8  16
#     4  11  18  31  57  85 112 149 198 250 303 345
#     4  11  20  32  51  84 119 150 194 252 304 348
#     4  10  17  35  57  88 117 151 193 252 310 353
#     4  10  18  33  60  90 115 149 199 256 302 358
#     4  10  23  37  60  92 124 159 202 254 316 379
#     4  12  20  35  57  82 112 158 200 242 303 358
#     4  12  20  36  58  84 121 157 200 254 307 358
#
# _framework density 25.764953999999999
#
# number of rings (size 3 to 8) (size 9 to 14) (size 15 to 20)
#    0.000    1.231    7.692    0.923    2.154    1.846 
#    0.000    1.923    0.000    1.846    0.000    0.000 
#    0.000    0.000    0.000    0.000    0.000    0.000 
#
# Total GULP energy -144914.622359 kJ/mol
# GULP energy per Si atom -5573.639321 kJ/mol
# Density = 2.570631 g / cm^3
# Si number density = 25.764954 Si / 1000 Ang^3
#
#
#
# Elastic Constant Matrix: (Units=GPa)
#
#
# Indices 1 2 3 4 5 6 
#
# 1 55.1260 -2.7713 -10.1724 0.0000 0.0000 0.0000
# 2 -2.7713 149.0283 55.0526 0.0000 0.0000 0.0000
# 3 -10.1724 55.0526 185.2140 0.0000 0.0000 0.0000
# 4 0.0000 0.0000 0.0000 -23.7665 0.0000 0.0000
# 5 0.0000 0.0000 0.0000 0.0000 0.5607 0.0000
# 6 0.0000 0.0000 0.0000 0.0000 0.0000 28.2369
#
#
#
# Elastic Compliance Matrix: (Units=1/GPa)
#
#
# Indices 1 2 3 4 5 6 
#
# 1 0.018326 -0.000035 0.001017 0.000000 0.000000 0.000000
# 2 -0.000035 0.007538 -0.002242 0.000000 0.000000 0.000000
# 3 0.001017 -0.002242 0.006122 0.000000 0.000000 0.000000
# 4 0.000000 0.000000 0.000000 -0.042076 0.000000 0.000000
# 5 0.000000 0.000000 0.000000 0.000000 1.783399 0.000000
# 6 0.000000 0.000000 0.000000 0.000000 0.000000 0.035415
#
#
# Mechanical properties :
#
#
# Convention : Reuss Voigt Hill
#
# Bulk Modulus (GPa) = 33.93892 52.62068 43.27980
# Shear Modulus (GPa) = 2.74564 24.15685 13.45125
#
# Velocity S-wave (km/s) = 1.03342 3.06532 2.28738
# Velocity P-wave (km/s) = 3.82427 5.74421 4.87960
#
# Compressibility (1/GPa) = 0.02946470
#
# Stress axis : x y z
#
# Youngs Moduli (GPa) = 54.56687 132.66344 163.35726
#
# Poissons Ratio (x) = 0.00462 -0.16611
# Poissons Ratio (y) = 0.00190 0.36632
# Poissons Ratio (z) = -0.05549 0.29749
#
# Static dielectric constant tensor:
#      x y z
#    x 2.313640 0.000000 0.000000 
#    y 0.000000 2.118150 0.000000 
#    z 0.000000 0.000000 2.085300 
# 
# From -- ./inp_files/56162.got.cif
#   From: 2010.05.17/outbox.cif.g08.bks.cpg/sg22_29_cif.got.tgz:56162.got - 2010.06.03 23:40:54.
