data_PCOD9326444
_publ_section_title
;
Structure prediction by ZEFSAII (Michael W. Deem and Ramdas Pophale) SiO2 
 PCOD9326444
Probable space group: F 2 2 2
;
_chemical_formula_sum "Si O2"
_cell_formula_units_Z 112
_cell_length_a 14.933453
_cell_length_b 24.278756
_cell_length_c 14.448079
_cell_angle_alpha 90.000000
_cell_angle_beta 90.000000
_cell_angle_gamma 90.000000
_cell_volume 5238.377322
_symmetry_space_group_name_H-M "F 2 2 2"
_symmetry_group_IT_number 22
_symmetry_cell_setting 'orthorhombic'
loop_
_space_group_symop_operation_xyz
x,y,z
-x,-y,z
x,-y,-z
-x,y,-z
x,1/2+y,1/2+z
-x,1/2-y,1/2+z
x,1/2-y,1/2-z
-x,1/2+y,1/2-z
1/2+x,y,1/2+z
1/2-x,-y,1/2+z
1/2+x,-y,1/2-z
1/2-x,y,1/2-z
1/2+x,1/2+y,z
1/2-x,1/2-y,z
1/2+x,1/2-y,-z
1/2-x,1/2+y,-z
loop_
_atom_site_type_symbol
_atom_site_label
_atom_site_fract_x
_atom_site_fract_y
_atom_site_fract_z
Si Si1 0.094685 0.198788 0.954269
Si Si2 0.260196 0.876760 0.445758
Si Si3 0.651077 0.206255 0.165345
Si Si4 0.354542 0.421139 0.248906
Si Si5 0.530485 0.633288 0.773236
Si Si6 0.661326 0.961489 0.686372
Si Si7 0.400046 0.061202 0.037507
O O1 0.169200 0.160340 0.001968
O O2 0.137876 0.256067 0.923915
O O3 0.069168 0.164065 0.862500
O O4 0.000000 0.208440 0.000000
O O5 0.228304 0.837879 0.359158
O O6 0.309733 0.930950 0.407241
O O7 0.172026 0.895945 0.498118
O O8 0.662117 0.250000 0.250000
O O9 0.563561 0.170568 0.188660
O O10 0.250000 0.405542 0.250000
O O11 0.425382 0.375269 0.220282
O O12 0.363165 0.474577 0.182767
O O13 0.387554 0.438902 0.351809
O O14 0.581769 0.574706 0.769468
O O15 0.750000 0.959042 0.750000
O O16 0.500000 0.073840 0.000000
O O17 0.379101 0.000000 0.000000
#
# Coordination Sequence:
#
# PCOD9326444 Si02
#       7
#    16  16  16  16  16  16  16
#     4  10  24  40  62  87 127 161 208 276 325 390
#     4  11  22  40  65  94 127 167 208 277 329 385
#     4  10  21  39  66  98 116 154 217 279 333 381
#     4  11  24  38  61  91 129 179 213 253 310 406
#     4  10  21  37  65  86 120 161 210 258 320 384
#     4  10  19  34  62  91 123 157 205 262 311 382
#     4  11  25  39  61  95 137 173 216 272 325 392
#
# _framework density 21.380666000000002
#
# number of rings (size 3 to 8) (size 9 to 14) (size 15 to 20)
#    0.000    1.571    1.429    3.429    6.000    4.571 
#    0.000    0.000    0.000    3.000    0.000    0.000 
#    0.000    0.000    0.000    0.000    0.000    0.000 
#
# Total GULP energy -156385.352262 kJ/mol
# GULP energy per Si atom -5585.191152 kJ/mol
# Density = 2.133200 g / cm^3
# Si number density = 21.380666 Si / 1000 Ang^3
#
#
#
# Elastic Constant Matrix: (Units=GPa)
#
#
# Indices 1 2 3 4 5 6 
#
# 1 149.6895 55.6970 14.4474 0.0000 0.0000 0.0000
# 2 55.6970 75.8815 6.1279 0.0000 0.0000 0.0000
# 3 14.4474 6.1279 28.1255 0.0000 0.0000 0.0000
# 4 0.0000 0.0000 0.0000 12.8301 0.0000 0.0000
# 5 0.0000 0.0000 0.0000 0.0000 22.7740 0.0000
# 6 0.0000 0.0000 0.0000 0.0000 0.0000 32.8155
#
#
#
# Elastic Compliance Matrix: (Units=1/GPa)
#
#
# Indices 1 2 3 4 5 6 
#
# 1 0.009503 -0.006699 -0.003422 0.000000 0.000000 0.000000
# 2 -0.006699 0.018137 -0.000510 0.000000 0.000000 0.000000
# 3 -0.003422 -0.000510 0.037424 0.000000 0.000000 0.000000
# 4 0.000000 0.000000 0.000000 0.077942 0.000000 0.000000
# 5 0.000000 0.000000 0.000000 0.000000 0.043910 0.000000
# 6 0.000000 0.000000 0.000000 0.000000 0.000000 0.030473
#
#
# Mechanical properties :
#
#
# Convention : Reuss Voigt Hill
#
# Bulk Modulus (GPa) = 22.83060 45.13790 33.98425
# Shear Modulus (GPa) = 19.74314 25.51220 22.62767
#
# Velocity S-wave (km/s) = 3.04206 3.45807 3.25672
# Velocity P-wave (km/s) = 4.80002 6.09112 5.48370
#
# Compressibility (1/GPa) = 0.04380087
#
# Stress axis : x y z
#
# Youngs Moduli (GPa) = 105.22516 55.13635 26.72087
#
# Poissons Ratio (x) = 0.36937 0.09144
# Poissons Ratio (y) = 0.70492 0.01364
# Poissons Ratio (z) = 0.36009 0.02814
#
# Static dielectric constant tensor:
#      x y z
#    x 1.813170 0.000000 0.000000 
#    y 0.000000 1.778770 0.000000 
#    z 0.000000 0.000000 1.809630 
# 
# From -- ./inp_files/29636.got.cif
#   From: 2010.05.17/outbox.cif.g08.bks.cpg/sg22_15_cif.got.tgz:29636.got - 2010.06.03 23:40:54.
