data_PCOD9326255
_publ_section_title
;
Structure prediction by ZEFSAII (Michael W. Deem and Ramdas Pophale) SiO2 
 PCOD9326255
Probable space group: F 2 2 2
;
_chemical_formula_sum "Si O2"
_cell_formula_units_Z 72
_cell_length_a 14.412230
_cell_length_b 15.241007
_cell_length_c 13.807065
_cell_angle_alpha 90.000000
_cell_angle_beta 90.000000
_cell_angle_gamma 90.000000
_cell_volume 3032.817073
_symmetry_space_group_name_H-M "F 2 2 2"
_symmetry_group_IT_number 22
_symmetry_cell_setting 'orthorhombic'
loop_
_space_group_symop_operation_xyz
x,y,z
-x,-y,z
x,-y,-z
-x,y,-z
x,1/2+y,1/2+z
-x,1/2-y,1/2+z
x,1/2-y,1/2-z
-x,1/2+y,1/2-z
1/2+x,y,1/2+z
1/2-x,-y,1/2+z
1/2+x,-y,1/2-z
1/2-x,y,1/2-z
1/2+x,1/2+y,z
1/2-x,1/2-y,z
1/2+x,1/2-y,-z
1/2-x,1/2+y,-z
loop_
_atom_site_type_symbol
_atom_site_label
_atom_site_fract_x
_atom_site_fract_y
_atom_site_fract_z
Si Si1 0.147817 0.542443 0.238963
Si Si2 0.906896 0.750000 0.250000
Si Si3 0.888177 0.675372 0.908117
Si Si4 0.603943 0.384621 0.609509
Si Si5 0.042336 0.860904 0.105224
O O1 0.250000 0.505518 0.250000
O O2 0.156806 0.636731 0.187235
O O3 0.102325 0.477563 0.161115
O O4 0.092060 0.560246 0.337351
O O5 0.851220 0.686608 0.180007
O O6 0.969024 0.816348 0.181771
O O7 0.886886 0.779919 0.915721
O O8 0.997441 0.649059 0.899161
O O9 0.853588 0.625157 0.003503
O O10 0.000000 0.883056 0.000000
#
# Coordination Sequence:
#
# PCOD9326255 Si02
#       5
#    16   8  16  16  16
#     4  12  25  39  63 101 143 168 205 283 354 390
#     4  10  18  38  68  92 116 162 234 278 306 378
#     4  10  19  40  74  93 116 174 243 264 296 409
#     4  10  20  40  70  97 116 169 231 271 307 394
#     4  11  20  39  66 103 126 165 222 280 328 386
#
# _framework density 23.740306
#
# number of rings (size 3 to 8) (size 9 to 14) (size 15 to 20)
#    0.000    1.333    8.889    1.333    0.000    3.556 
#    0.000    7.222    4.889    0.000    0.000    0.000 
#    0.000    0.000    0.000    0.000    0.000    0.000 
#
# Total GULP energy -100504.781880 kJ/mol
# GULP energy per Si atom -5583.598993 kJ/mol
# Density = 2.368627 g / cm^3
# Si number density = 23.740306 Si / 1000 Ang^3
#
#
#
# Elastic Constant Matrix: (Units=GPa)
#
#
# Indices 1 2 3 4 5 6 
#
# 1 30.9485 7.3240 21.6023 0.0000 0.0000 0.0000
# 2 7.3240 75.0218 37.5744 0.0000 0.0000 0.0000
# 3 21.6023 37.5744 188.5730 0.0000 0.0000 0.0000
# 4 0.0000 0.0000 0.0000 46.9010 0.0000 0.0000
# 5 0.0000 0.0000 0.0000 0.0000 9.4448 0.0000
# 6 0.0000 0.0000 0.0000 0.0000 0.0000 9.4559
#
#
#
# Elastic Compliance Matrix: (Units=1/GPa)
#
#
# Indices 1 2 3 4 5 6 
#
# 1 0.035287 -0.001578 -0.003728 0.000000 0.000000 0.000000
# 2 -0.001578 0.014878 -0.002784 0.000000 0.000000 0.000000
# 3 -0.003728 -0.002784 0.006285 0.000000 0.000000 0.000000
# 4 0.000000 0.000000 0.000000 0.021322 0.000000 0.000000
# 5 0.000000 0.000000 0.000000 0.000000 0.105879 0.000000
# 6 0.000000 0.000000 0.000000 0.000000 0.000000 0.105754
#
#
# Mechanical properties :
#
#
# Convention : Reuss Voigt Hill
#
# Bulk Modulus (GPa) = 24.83194 47.50496 36.16845
# Shear Modulus (GPa) = 15.67367 28.36319 22.01843
#
# Velocity S-wave (km/s) = 2.57225 3.46023 3.04874
# Velocity P-wave (km/s) = 4.39369 6.00150 5.25939
#
# Compressibility (1/GPa) = 0.04027071
#
# Stress axis : x y z
#
# Youngs Moduli (GPa) = 28.33883 67.21470 159.11578
#
# Poissons Ratio (x) = 0.10605 0.59319
# Poissons Ratio (y) = 0.04471 0.44294
# Poissons Ratio (z) = 0.10565 0.18711
#
# Static dielectric constant tensor:
#      x y z
#    x 2.008070 0.000000 0.000000 
#    y 0.000000 1.968260 0.000000 
#    z 0.000000 0.000000 1.944720 
# 
# From -- ./inp_files/30387.got.cif
#   From: 2010.05.17/outbox.cif.g08.bks.cpg/sg22_16_cif.got.tgz:30387.got - 2010.06.03 23:40:54.
