data_PCOD9326941
_publ_section_title
;
Structure prediction by ZEFSAII (Michael W. Deem and Ramdas Pophale) SiO2 
 PCOD9326941
Probable space group: F 2 2 2
;
_chemical_formula_sum "Si O2"
_cell_formula_units_Z 72
_cell_length_a 20.001834
_cell_length_b 7.260653
_cell_length_c 21.481084
_cell_angle_alpha 90.000000
_cell_angle_beta 90.000000
_cell_angle_gamma 90.000000
_cell_volume 3119.619983
_symmetry_space_group_name_H-M "F 2 2 2"
_symmetry_group_IT_number 22
_symmetry_cell_setting 'orthorhombic'
loop_
_space_group_symop_operation_xyz
x,y,z
-x,-y,z
x,-y,-z
-x,y,-z
x,1/2+y,1/2+z
-x,1/2-y,1/2+z
x,1/2-y,1/2-z
-x,1/2+y,1/2-z
1/2+x,y,1/2+z
1/2-x,-y,1/2+z
1/2+x,-y,1/2-z
1/2-x,y,1/2-z
1/2+x,1/2+y,z
1/2-x,1/2-y,z
1/2+x,1/2-y,-z
1/2-x,1/2+y,-z
loop_
_atom_site_type_symbol
_atom_site_label
_atom_site_fract_x
_atom_site_fract_y
_atom_site_fract_z
Si Si1 0.669864 0.041424 0.856454
Si Si2 0.000000 0.000000 0.500000
Si Si3 0.463484 0.197096 0.180160
Si Si4 0.250000 0.250000 0.250000
Si Si5 0.422200 0.232113 0.597006
Si Si6 0.140219 0.500000 0.500000
Si Si7 0.250000 0.250000 0.454010
O O1 0.603759 0.170384 0.859200
O O2 0.706239 0.112453 0.793642
O O3 0.722058 0.087970 0.910443
O O4 0.638780 0.838666 0.867843
O O5 0.954717 0.128658 0.454802
O O6 0.446038 0.250000 0.250000
O O7 0.521164 0.310865 0.147165
O O8 0.500000 0.000000 0.184008
O O9 0.401692 0.050070 0.560346
O O10 0.188016 0.325308 0.491739
#
# Coordination Sequence:
#
# PCOD9326941 Si02
#       7
#    16   4  16   4  16   8   8
#     4  10  20  42  66  98 134 183 235 279 362 420
#     4  12  20  44  68 100 142 174 220 298 386 414
#     4  10  21  41  66  95 134 176 221 288 353 416
#     4  10  20  36  80  98 140 198 230 286 350 458
#     4  11  24  42  69 101 136 186 227 305 353 428
#     4  12  26  44  68 100 138 186 248 288 364 432
#     4  11  24  41  64  90 135 184 225 302 334 434
#
# _framework density 23.079733000000001
#
# number of rings (size 3 to 8) (size 9 to 14) (size 15 to 20)
#    0.000    1.333    4.444    2.667    0.000    2.222 
#    4.000    0.000    0.000    0.000    0.000    0.000 
#    0.000    0.000    0.000    0.000    0.000    0.000 
#
# Total GULP energy -100578.034072 kJ/mol
# GULP energy per Si atom -5587.668560 kJ/mol
# Density = 2.302720 g / cm^3
# Si number density = 23.079733 Si / 1000 Ang^3
#
#
#
# Elastic Constant Matrix: (Units=GPa)
#
#
# Indices 1 2 3 4 5 6 
#
# 1 78.0004 12.0948 15.8322 0.0000 0.0000 0.0000
# 2 12.0948 77.4902 20.3606 0.0000 0.0000 0.0000
# 3 15.8322 20.3606 75.4562 0.0000 0.0000 0.0000
# 4 0.0000 0.0000 0.0000 28.5651 0.0000 0.0000
# 5 0.0000 0.0000 0.0000 0.0000 60.2530 0.0000
# 6 0.0000 0.0000 0.0000 0.0000 0.0000 19.7983
#
#
#
# Elastic Compliance Matrix: (Units=1/GPa)
#
#
# Indices 1 2 3 4 5 6 
#
# 1 0.013545 -0.001472 -0.002445 0.000000 0.000000 0.000000
# 2 -0.001472 0.014050 -0.003482 0.000000 0.000000 0.000000
# 3 -0.002445 -0.003482 0.014705 0.000000 0.000000 0.000000
# 4 0.000000 0.000000 0.000000 0.035008 0.000000 0.000000
# 5 0.000000 0.000000 0.000000 0.000000 0.016597 0.000000
# 6 0.000000 0.000000 0.000000 0.000000 0.000000 0.050509
#
#
# Mechanical properties :
#
#
# Convention : Reuss Voigt Hill
#
# Bulk Modulus (GPa) = 36.36085 36.39133 36.37609
# Shear Modulus (GPa) = 29.69500 33.90056 31.79778
#
# Velocity S-wave (km/s) = 3.59085 3.83671 3.71581
# Velocity P-wave (km/s) = 5.74290 5.95223 5.84850
#
# Compressibility (1/GPa) = 0.02750211
#
# Stress axis : x y z
#
# Youngs Moduli (GPa) = 73.82854 71.17678 68.00263
#
# Poissons Ratio (x) = 0.10475 0.16626
# Poissons Ratio (y) = 0.10865 0.23680
# Poissons Ratio (z) = 0.18050 0.24785
#
# Static dielectric constant tensor:
#      x y z
#    x 1.833370 0.000000 0.000000 
#    y 0.000000 1.872690 0.000000 
#    z 0.000000 0.000000 1.858270 
# 
# From -- ./inp_files/11497.got.cif
#   From: 2010.05.17/outbox.cif.g08.bks.cpg/sg22_6_cif.got.tgz:11497.got - 2010.06.03 23:40:54.
