data_PCOD9326624
_publ_section_title
;
Structure prediction by ZEFSAII (Michael W. Deem and Ramdas Pophale) SiO2 
 PCOD9326624
Probable space group: F 2 2 2
;
_chemical_formula_sum "Si O2"
_cell_formula_units_Z 116
_cell_length_a 24.920874
_cell_length_b 7.849785
_cell_length_c 26.529225
_cell_angle_alpha 90.000000
_cell_angle_beta 90.000000
_cell_angle_gamma 90.000000
_cell_volume 5189.739924
_symmetry_space_group_name_H-M "F 2 2 2"
_symmetry_group_IT_number 22
_symmetry_cell_setting 'orthorhombic'
loop_
_space_group_symop_operation_xyz
x,y,z
-x,-y,z
x,-y,-z
-x,y,-z
x,1/2+y,1/2+z
-x,1/2-y,1/2+z
x,1/2-y,1/2-z
-x,1/2+y,1/2-z
1/2+x,y,1/2+z
1/2-x,-y,1/2+z
1/2+x,-y,1/2-z
1/2-x,y,1/2-z
1/2+x,1/2+y,z
1/2-x,1/2-y,z
1/2+x,1/2-y,-z
1/2-x,1/2+y,-z
loop_
_atom_site_type_symbol
_atom_site_label
_atom_site_fract_x
_atom_site_fract_y
_atom_site_fract_z
Si Si1 0.460532 0.267200 0.113347
Si Si2 0.820357 0.080193 0.163695
Si Si3 0.717138 0.424203 0.643022
Si Si4 0.126251 0.717247 0.807175
Si Si5 0.425109 0.337699 0.892454
Si Si6 0.250000 0.750000 0.250000
Si Si7 0.805881 0.655443 0.037453
Si Si8 0.084805 0.204308 0.494444
O O1 0.421066 0.178630 0.153371
O O2 0.442359 0.465452 0.114468
O O3 0.522501 0.240000 0.128309
O O4 0.453254 0.226366 0.053913
O O5 0.867481 0.183918 0.135218
O O6 0.791259 0.149892 0.213678
O O7 0.765569 0.053199 0.131766
O O8 0.847019 0.897201 0.175709
O O9 0.750000 0.250000 0.651210
O O10 0.673872 0.424353 0.687962
O O11 0.682078 0.411804 0.593117
O O12 0.108347 0.750000 0.750000
O O13 0.424570 0.290627 0.951732
O O14 0.750000 0.750000 0.039681
O O15 0.856251 0.768332 0.022144
O O16 0.800056 0.500000 0.000000
O O17 0.087888 0.000000 0.500000
#
# Coordination Sequence:
#
# PCOD9326624 Si02
#       8
#    16  16  16  16  16   4  16  16
#     4  10  21  42  65  93 121 160 223 257 309 373
#     4  10  23  39  61  89 123 167 204 256 316 372
#     4   9  18  36  58  85 117 152 202 250 297 363
#     4  10  19  38  67  93 116 156 208 266 309 362
#     4  10  23  41  65  89 124 170 210 260 308 378
#     4  12  24  40  58  88 128 164 204 254 308 392
#     4  10  22  34  54  89 125 162 198 247 303 372
#     4  11  23  39  61  92 130 168 206 258 318 377
#
# _framework density 22.351794999999999
#
# number of rings (size 3 to 8) (size 9 to 14) (size 15 to 20)
#    0.000    1.931    1.379    1.655    3.862    6.345 
#    3.724    0.000    0.000    0.000    0.000    0.000 
#    0.000    0.000    0.000    0.000    0.000    0.000 
#
# Total GULP energy -161592.374565 kJ/mol
# GULP energy per Si atom -5572.150847 kJ/mol
# Density = 2.230092 g / cm^3
# Si number density = 22.351795 Si / 1000 Ang^3
#
#
#
# Elastic Constant Matrix: (Units=GPa)
#
#
# Indices 1 2 3 4 5 6 
#
# 1 189.1453 25.8708 79.4128 0.0000 0.0001 0.0000
# 2 25.8708 23.3555 0.3681 0.0000 0.0001 0.0000
# 3 79.4128 0.3681 110.0622 0.0000 0.0000 0.0000
# 4 0.0000 0.0000 0.0000 19.3154 0.0000 0.0000
# 5 0.0001 0.0001 0.0000 0.0000 33.9075 -0.0001
# 6 0.0000 0.0000 0.0000 0.0000 -0.0001 13.5831
#
#
#
# Elastic Compliance Matrix: (Units=1/GPa)
#
#
# Indices 1 2 3 4 5 6 
#
# 1 0.009636 -0.010565 -0.006918 0.000000 0.000000 0.000000
# 2 -0.010565 0.054402 0.007441 0.000000 0.000000 0.000000
# 3 -0.006918 0.007441 0.014052 0.000000 0.000000 0.000000
# 4 0.000000 0.000000 0.000000 0.051772 0.000000 0.000000
# 5 0.000000 0.000000 0.000000 0.000000 0.029492 0.000000
# 6 0.000000 0.000000 0.000000 0.000000 0.000000 0.073621
#
#
# Mechanical properties :
#
#
# Convention : Reuss Voigt Hill
#
# Bulk Modulus (GPa) = 17.23918 59.31850 38.27884
# Shear Modulus (GPa) = 18.35571 27.82195 23.08883
#
# Velocity S-wave (km/s) = 2.86880 3.53190 3.21748
# Velocity P-wave (km/s) = 4.32467 6.57485 5.56468
#
# Compressibility (1/GPa) = 0.05800739
#
# Stress axis : x y z
#
# Youngs Moduli (GPa) = 103.77378 18.38162 71.16384
#
# Poissons Ratio (x) = 0.19420 0.49228
# Poissons Ratio (y) = 1.09638 -0.52953
# Poissons Ratio (z) = 0.71786 -0.13678
#
# Static dielectric constant tensor:
#      x y z
#    x 1.890050 0.000000 0.000000 
#    y 0.000000 1.960200 0.000000 
#    z 0.000000 0.000000 2.243650 
# 
# From -- ./inp_files/47539.got.cif
#   From: 2010.05.17/outbox.cif.g08.bks.cpg/sg22_24_cif.got.tgz:47539.got - 2010.06.03 23:40:54.
