data_PCOD9326844
_publ_section_title
;
Structure prediction by ZEFSAII (Michael W. Deem and Ramdas Pophale) SiO2 
 PCOD9326844
Probable space group: F 2 2 2
;
_chemical_formula_sum "Si O2"
_cell_formula_units_Z 104
_cell_length_a 8.813075
_cell_length_b 18.809431
_cell_length_c 29.438550
_cell_angle_alpha 90.000000
_cell_angle_beta 90.000000
_cell_angle_gamma 90.000000
_cell_volume 4879.996820
_symmetry_space_group_name_H-M "F 2 2 2"
_symmetry_group_IT_number 22
_symmetry_cell_setting 'orthorhombic'
loop_
_space_group_symop_operation_xyz
x,y,z
-x,-y,z
x,-y,-z
-x,y,-z
x,1/2+y,1/2+z
-x,1/2-y,1/2+z
x,1/2-y,1/2-z
-x,1/2+y,1/2-z
1/2+x,y,1/2+z
1/2-x,-y,1/2+z
1/2+x,-y,1/2-z
1/2-x,y,1/2-z
1/2+x,1/2+y,z
1/2-x,1/2-y,z
1/2+x,1/2-y,-z
1/2-x,1/2+y,-z
loop_
_atom_site_type_symbol
_atom_site_label
_atom_site_fract_x
_atom_site_fract_y
_atom_site_fract_z
Si Si1 0.961703 0.832309 0.100648
Si Si2 0.750000 0.489277 0.750000
Si Si3 0.934917 0.382801 0.815439
Si Si4 0.750000 0.250000 0.671386
Si Si5 0.793203 0.385812 0.122263
Si Si6 0.777406 0.049866 0.883909
Si Si7 0.500000 0.000000 0.689177
Si Si8 0.091402 0.787986 0.458432
O O1 0.860122 0.795509 0.139132
O O2 0.868478 0.900590 0.081540
O O3 0.125542 0.851634 0.121764
O O4 0.989285 0.775120 0.061799
O O5 0.864363 0.439153 0.779498
O O6 0.633490 0.533047 0.780645
O O7 0.858188 0.307187 0.803759
O O8 0.866316 0.410699 0.863385
O O9 0.111346 0.380493 0.830409
O O10 0.766175 0.468438 0.108783
O O11 0.876719 0.342660 0.082348
O O12 0.902643 0.049733 0.843137
O O13 0.250000 0.750000 0.471443
O O14 0.000000 0.821268 0.500000
#
# Coordination Sequence:
#
# PCOD9326844 Si02
#       8
#    16   8  16   8  16  16   8  16
#     4  10  20  37  61  94 120 162 209 253 316 381
#     4  10  24  35  54  90 120 173 204 268 322 380
#     4  10  22  36  58  86 123 162 213 255 317 372
#     4  10  20  37  60  84 118 162 198 252 310 388
#     4  11  20  38  64  94 118 162 216 266 302 388
#     4  10  20  36  61  90 120 161 213 260 310 375
#     4  10  20  36  54  86 129 158 209 258 324 376
#     4  10  23  38  62  95 128 163 209 262 316 383
#
# _framework density 21.311489000000002
#
# number of rings (size 3 to 8) (size 9 to 14) (size 15 to 20)
#    0.000    1.846    3.077    0.462    5.385    0.308 
#    0.000    0.000    0.000   16.615    4.000    0.000 
#    0.000    0.000    0.000    0.000    0.000    0.000 
#
# Total GULP energy -144839.138157 kJ/mol
# GULP energy per Si atom -5570.736083 kJ/mol
# Density = 2.126298 g / cm^3
# Si number density = 21.311489 Si / 1000 Ang^3
#
#
#
# Elastic Constant Matrix: (Units=GPa)
#
#
# Indices 1 2 3 4 5 6 
#
# 1 87.0696 39.1213 36.8118 0.0000 0.0000 0.0000
# 2 39.1213 106.4405 12.9216 0.0000 0.0000 0.0000
# 3 36.8118 12.9216 36.6323 0.0000 0.0000 0.0000
# 4 0.0000 0.0000 0.0000 5.7690 0.0000 0.0000
# 5 0.0000 0.0000 0.0000 0.0000 28.7217 0.0000
# 6 0.0000 0.0000 0.0000 0.0000 0.0000 36.7187
#
#
#
# Elastic Compliance Matrix: (Units=1/GPa)
#
#
# Indices 1 2 3 4 5 6 
#
# 1 0.023056 -0.005915 -0.021083 0.000000 0.000000 0.000000
# 2 -0.005915 0.011333 0.001946 0.000000 0.000000 0.000000
# 3 -0.021083 0.001946 0.047798 0.000000 0.000000 0.000000
# 4 0.000000 0.000000 0.000000 0.173339 0.000000 0.000000
# 5 0.000000 0.000000 0.000000 0.000000 0.034817 0.000000
# 6 0.000000 0.000000 0.000000 0.000000 0.000000 0.027234
#
#
# Mechanical properties :
#
#
# Convention : Reuss Voigt Hill
#
# Bulk Modulus (GPa) = 31.16805 45.31686 38.24246
# Shear Modulus (GPa) = 13.21445 23.66107 18.43776
#
# Velocity S-wave (km/s) = 2.49281 3.33566 2.94454
# Velocity P-wave (km/s) = 4.78980 6.01213 5.43543
#
# Compressibility (1/GPa) = 0.03208413
#
# Stress axis : x y z
#
# Youngs Moduli (GPa) = 43.37257 88.24143 20.92147
#
# Poissons Ratio (x) = 0.52192 0.44108
# Poissons Ratio (y) = 0.25653 -0.04072
# Poissons Ratio (z) = 0.91441 -0.17174
#
# Static dielectric constant tensor:
#      x y z
#    x 1.857910 0.000000 0.000000 
#    y 0.000000 1.805820 0.000000 
#    z 0.000000 0.000000 1.807080 
# 
# From -- ./inp_files/55662.got.cif
#   From: 2010.05.17/outbox.cif.g08.bks.cpg/sg22_28_cif.got.tgz:55662.got - 2010.06.03 23:40:54.
