data_PCOD9326109
_publ_section_title
;
Structure prediction by ZEFSAII (Michael W. Deem and Ramdas Pophale) SiO2 
 PCOD9326109
Probable space group: F 2 2 2
;
_chemical_formula_sum "Si O2"
_cell_formula_units_Z 112
_cell_length_a 17.276468
_cell_length_b 15.244817
_cell_length_c 22.213539
_cell_angle_alpha 90.000000
_cell_angle_beta 90.000000
_cell_angle_gamma 90.000000
_cell_volume 5850.526222
_symmetry_space_group_name_H-M "F 2 2 2"
_symmetry_group_IT_number 22
_symmetry_cell_setting 'orthorhombic'
loop_
_space_group_symop_operation_xyz
x,y,z
-x,-y,z
x,-y,-z
-x,y,-z
x,1/2+y,1/2+z
-x,1/2-y,1/2+z
x,1/2-y,1/2-z
-x,1/2+y,1/2-z
1/2+x,y,1/2+z
1/2-x,-y,1/2+z
1/2+x,-y,1/2-z
1/2-x,y,1/2-z
1/2+x,1/2+y,z
1/2-x,1/2-y,z
1/2+x,1/2-y,-z
1/2-x,1/2+y,-z
loop_
_atom_site_type_symbol
_atom_site_label
_atom_site_fract_x
_atom_site_fract_y
_atom_site_fract_z
Si Si1 0.600394 0.922467 0.045399
Si Si2 0.807090 0.514561 0.855292
Si Si3 0.027536 0.697060 0.103169
Si Si4 0.562775 0.075105 0.217517
Si Si5 0.216732 0.154505 0.182559
Si Si6 0.192333 0.830556 0.448879
Si Si7 0.464174 0.179144 0.304502
O O1 0.623900 0.969947 0.106652
O O2 0.534032 0.854797 0.062942
O O3 0.674068 0.878154 0.012294
O O4 0.578285 0.000000 0.000000
O O5 0.848847 0.543864 0.792844
O O6 0.747799 0.434715 0.847820
O O7 0.783809 0.597605 0.897425
O O8 0.989646 0.782439 0.131600
O O9 0.048975 0.642104 0.162952
O O10 0.107891 0.706289 0.069155
O O11 0.533368 0.117684 0.279700
O O12 0.500000 0.000000 0.208193
O O13 0.250000 0.152527 0.250000
O O14 0.250000 0.250000 0.158010
O O15 0.123922 0.148230 0.186806
O O16 0.250000 0.750000 0.452997
O O17 0.456693 0.250000 0.250000
#
# Coordination Sequence:
#
# PCOD9326109 Si02
#       7
#    16  16  16  16  16  16  16
#     4  10  20  35  63  93 109 140 197 263 317 342
#     4  10  21  37  59  88 119 152 196 252 300 352
#     4  10  20  35  60  83 115 151 194 246 295 358
#     4  10  18  32  57  82 117 147 190 237 286 342
#     4  11  20  33  56  88 126 155 190 249 303 357
#     4  10  23  40  56  82 121 157 196 250 298 358
#     4  10  20  35  53  83 119 160 194 232 295 360
#
# _framework density 19.143577000000001
#
# number of rings (size 3 to 8) (size 9 to 14) (size 15 to 20)
#    0.000    1.857    2.857    2.143    0.000    4.571 
#    5.143    0.000    0.000    0.000    0.000    0.000 
#    0.000    0.000    0.000    0.000    0.000    0.000 
#
# Total GULP energy -155997.062045 kJ/mol
# GULP energy per Si atom -5571.323644 kJ/mol
# Density = 1.910001 g / cm^3
# Si number density = 19.143577 Si / 1000 Ang^3
#
#
#
# Elastic Constant Matrix: (Units=GPa)
#
#
# Indices 1 2 3 4 5 6 
#
# 1 62.0813 61.0072 23.8256 0.0000 0.0000 0.0000
# 2 61.0072 93.6164 33.1004 0.0000 0.0000 0.0000
# 3 23.8256 33.1004 53.9096 0.0000 0.0000 0.0000
# 4 0.0000 0.0000 0.0000 19.4133 0.0000 0.0000
# 5 0.0000 0.0000 0.0000 0.0000 -61.1541 0.0000
# 6 0.0000 0.0000 0.0000 0.0000 0.0000 25.8928
#
#
#
# Elastic Compliance Matrix: (Units=1/GPa)
#
#
# Indices 1 2 3 4 5 6 
#
# 1 0.045037 -0.028498 -0.002406 0.000000 0.000000 0.000000
# 2 -0.028498 0.031677 -0.006855 0.000000 0.000000 0.000000
# 3 -0.002406 -0.006855 0.023822 0.000000 0.000000 0.000000
# 4 0.000000 0.000000 0.000000 0.051511 0.000000 0.000000
# 5 0.000000 0.000000 0.000000 0.000000 -0.016352 0.000000
# 6 0.000000 0.000000 0.000000 0.000000 0.000000 0.038621
#
#
# Mechanical properties :
#
#
# Convention : Reuss Voigt Hill
#
# Bulk Modulus (GPa) = 39.97280 49.49707 44.73493
# Shear Modulus (GPa) = 19.36687 2.94202 11.15445
#
# Velocity S-wave (km/s) = 3.18412 1.24103 2.41648
# Velocity P-wave (km/s) = 5.86890 5.28823 5.58612
#
# Compressibility (1/GPa) = 0.02501701
#
# Stress axis : x y z
#
# Youngs Moduli (GPa) = 22.20415 31.56848 41.97834
#
# Poissons Ratio (x) = 0.89965 0.10101
# Poissons Ratio (y) = 0.63278 0.28775
# Poissons Ratio (z) = 0.05343 0.21639
#
# Static dielectric constant tensor:
#      x y z
#    x 1.681750 0.000000 0.000000 
#    y 0.000000 1.744530 0.000000 
#    z 0.000000 0.000000 1.692590 
# 
# From -- ./inp_files/29616.got.cif
#   From: 2010.05.17/outbox.cif.g08.bks.cpg/sg22_15_cif.got.tgz:29616.got - 2010.06.03 23:40:54.
