data_PCOD9326974
_publ_section_title
;
Structure prediction by ZEFSAII (Michael W. Deem and Ramdas Pophale) SiO2 
 PCOD9326974
Probable space group: F 2 2 2
;
_chemical_formula_sum "Si O2"
_cell_formula_units_Z 96
_cell_length_a 25.640547
_cell_length_b 9.333611
_cell_length_c 22.128675
_cell_angle_alpha 90.000000
_cell_angle_beta 90.000000
_cell_angle_gamma 90.000000
_cell_volume 5295.809972
_symmetry_space_group_name_H-M "F 2 2 2"
_symmetry_group_IT_number 22
_symmetry_cell_setting 'orthorhombic'
loop_
_space_group_symop_operation_xyz
x,y,z
-x,-y,z
x,-y,-z
-x,y,-z
x,1/2+y,1/2+z
-x,1/2-y,1/2+z
x,1/2-y,1/2-z
-x,1/2+y,1/2-z
1/2+x,y,1/2+z
1/2-x,-y,1/2+z
1/2+x,-y,1/2-z
1/2-x,y,1/2-z
1/2+x,1/2+y,z
1/2-x,1/2-y,z
1/2+x,1/2-y,-z
1/2-x,1/2+y,-z
loop_
_atom_site_type_symbol
_atom_site_label
_atom_site_fract_x
_atom_site_fract_y
_atom_site_fract_z
Si Si1 0.392051 0.599249 0.940723
Si Si2 0.008871 0.792367 0.567654
Si Si3 0.801698 0.670443 0.065611
Si Si4 0.799698 0.154939 0.420076
Si Si5 0.599358 0.678995 0.874163
Si Si6 0.500000 0.000000 0.828482
Si Si7 0.055287 0.750000 0.250000
O O1 0.449255 0.667420 0.942596
O O2 0.351587 0.726758 0.929282
O O3 0.390119 0.485056 0.888052
O O4 0.380838 0.500000 0.000000
O O5 0.029588 0.901399 0.620151
O O6 0.000000 0.851555 0.500000
O O7 0.953770 0.732075 0.592548
O O8 0.750000 0.750000 0.087623
O O9 0.802585 0.513523 0.095263
O O10 0.796951 0.654971 0.992946
O O11 0.750000 0.250000 0.399018
O O12 0.852673 0.228730 0.398476
O O13 0.590222 0.692403 0.803730
O O14 0.475856 0.119649 0.783265
#
# Coordination Sequence:
#
# PCOD9326974 Si02
#       7
#    16  16  16  16  16   8   8
#     4  12  22  36  61  94 131 164 202 251 324 374
#     4  11  22  37  63  93 130 157 202 259 326 374
#     4  10  21  34  59  91 129 161 203 251 318 391
#     4  10  20  37  61  89 128 165 203 257 317 376
#     4  11  23  40  61  89 126 168 213 255 306 372
#     4  10  25  42  62  82 121 170 216 260 302 376
#     4  10  26  44  61  82 122 168 233 250 310 356
#
# _framework density 18.127538999999999
#
# number of rings (size 3 to 8) (size 9 to 14) (size 15 to 20)
#    0.000    1.333    3.333    1.750   11.667    0.000 
#    0.000    0.417    0.000    0.000    0.000    0.000 
#    0.000    0.000    0.000    0.000    0.000    0.000 
#
# Total GULP energy -133658.898918 kJ/mol
# GULP energy per Si atom -5569.120788 kJ/mol
# Density = 1.808628 g / cm^3
# Si number density = 18.127539 Si / 1000 Ang^3
#
#
#
# Elastic Constant Matrix: (Units=GPa)
#
#
# Indices 1 2 3 4 5 6 
#
# 1 128.2881 74.9216 26.9136 0.0000 0.0000 0.0000
# 2 74.9216 170.6172 42.8592 0.0000 0.0000 0.0000
# 3 26.9136 42.8592 83.0054 0.0000 0.0000 0.0000
# 4 0.0000 0.0000 0.0000 14.3151 0.0000 0.0000
# 5 0.0000 0.0000 0.0000 0.0000 10.3867 0.0000
# 6 0.0000 0.0000 0.0000 0.0000 0.0000 42.6602
#
#
#
# Elastic Compliance Matrix: (Units=1/GPa)
#
#
# Indices 1 2 3 4 5 6 
#
# 1 0.010584 -0.004350 -0.001186 0.000000 0.000000 0.000000
# 2 -0.004350 0.008522 -0.002990 0.000000 0.000000 0.000000
# 3 -0.001186 -0.002990 0.013976 0.000000 0.000000 0.000000
# 4 0.000000 0.000000 0.000000 0.069856 0.000000 0.000000
# 5 0.000000 0.000000 0.000000 0.000000 0.096277 0.000000
# 6 0.000000 0.000000 0.000000 0.000000 0.000000 0.023441
#
#
# Mechanical properties :
#
#
# Convention : Reuss Voigt Hill
#
# Bulk Modulus (GPa) = 62.37969 74.58881 68.48425
# Shear Modulus (GPa) = 20.40392 29.28683 24.84538
#
# Velocity S-wave (km/s) = 3.35860 4.02381 3.70616
# Velocity P-wave (km/s) = 7.03751 7.92617 7.49502
#
# Compressibility (1/GPa) = 0.01603086
#
# Stress axis : x y z
#
# Youngs Moduli (GPa) = 94.48173 117.33971 71.55247
#
# Poissons Ratio (x) = 0.51041 0.08485
# Poissons Ratio (y) = 0.41098 0.21394
# Poissons Ratio (z) = 0.11203 0.35085
#
# Static dielectric constant tensor:
#      x y z
#    x 1.659530 0.000000 0.000000 
#    y 0.000000 1.687290 0.000000 
#    z 0.000000 0.000000 1.605690 
# 
# From -- ./inp_files/50207.got.cif
#   From: 2010.05.17/outbox.cif.g08.bks.cpg/sg22_26_cif.got.tgz:50207.got - 2010.06.03 23:40:54.
