data_PCOD9326247
_publ_section_title
;
Structure prediction by ZEFSAII (Michael W. Deem and Ramdas Pophale) SiO2 
 PCOD9326247
Probable space group: F 2 2 2
;
_chemical_formula_sum "Si O2"
_cell_formula_units_Z 88
_cell_length_a 20.899378
_cell_length_b 9.274880
_cell_length_c 21.217115
_cell_angle_alpha 90.000000
_cell_angle_beta 90.000000
_cell_angle_gamma 90.000000
_cell_volume 4112.709086
_symmetry_space_group_name_H-M "F 2 2 2"
_symmetry_group_IT_number 22
_symmetry_cell_setting 'orthorhombic'
loop_
_space_group_symop_operation_xyz
x,y,z
-x,-y,z
x,-y,-z
-x,y,-z
x,1/2+y,1/2+z
-x,1/2-y,1/2+z
x,1/2-y,1/2-z
-x,1/2+y,1/2-z
1/2+x,y,1/2+z
1/2-x,-y,1/2+z
1/2+x,-y,1/2-z
1/2-x,y,1/2-z
1/2+x,1/2+y,z
1/2-x,1/2-y,z
1/2+x,1/2-y,-z
1/2-x,1/2+y,-z
loop_
_atom_site_type_symbol
_atom_site_label
_atom_site_fract_x
_atom_site_fract_y
_atom_site_fract_z
Si Si1 0.695840 0.629256 0.136784
Si Si2 0.168522 0.000000 0.000000
Si Si3 0.429909 0.251581 0.503919
Si Si4 0.069254 0.653406 0.138401
Si Si5 0.311162 0.321145 0.818369
Si Si6 0.077701 0.831994 0.639247
O O1 0.750000 0.750000 0.142640
O O2 0.700502 0.490502 0.180950
O O3 0.629362 0.709893 0.154801
O O4 0.700092 0.560187 0.065074
O O5 0.123333 0.866595 0.017764
O O6 0.500000 0.180385 0.500000
O O7 0.433029 0.357505 0.562674
O O8 0.418156 0.324490 0.437017
O O9 0.120630 0.774614 0.154186
O O10 0.090778 0.495429 0.162033
O O11 0.996666 0.693108 0.157896
O O12 0.312617 0.250000 0.750000
O O13 0.250000 0.250000 0.853405
#
# Coordination Sequence:
#
# PCOD9326247 Si02
#       6
#    16   8  16  16  16  16
#     4  11  23  42  63  96 134 172 221 277 338 405
#     4  10  19  34  54  98 128 173 212 256 336 394
#     4   9  16  29  55  88 129 170 208 253 315 390
#     4  10  18  38  60  89 129 170 218 267 315 389
#     4  11  25  45  67  89 121 174 227 276 335 392
#     4   9  20  34  60  95 129 167 209 263 330 389
#
# _framework density 21.397089000000001
#
# number of rings (size 3 to 8) (size 9 to 14) (size 15 to 20)
#    0.000    2.000    1.818    1.909    0.000    3.636 
#    6.545   10.000    0.000    0.000    0.000    0.000 
#    0.000    0.000    0.000    0.000    0.000    0.000 
#
# Total GULP energy -122574.621152 kJ/mol
# GULP energy per Si atom -5571.573689 kJ/mol
# Density = 2.134839 g / cm^3
# Si number density = 21.397089 Si / 1000 Ang^3
#
#
#
# Elastic Constant Matrix: (Units=GPa)
#
#
# Indices 1 2 3 4 5 6 
#
# 1 98.0271 76.0271 16.0882 0.0000 0.0000 0.0000
# 2 76.0271 169.2796 27.5417 0.0000 0.0000 0.0000
# 3 16.0882 27.5417 40.2349 0.0000 0.0000 0.0000
# 4 0.0000 0.0000 0.0000 24.5650 0.0000 0.0000
# 5 0.0000 0.0000 0.0000 0.0000 14.0668 0.0000
# 6 0.0000 0.0000 0.0000 0.0000 0.0000 39.0211
#
#
#
# Elastic Compliance Matrix: (Units=1/GPa)
#
#
# Indices 1 2 3 4 5 6 
#
# 1 0.015749 -0.006807 -0.001638 0.000000 0.000000 0.000000
# 2 -0.006807 0.009590 -0.003843 0.000000 0.000000 0.000000
# 3 -0.001638 -0.003843 0.028139 0.000000 0.000000 0.000000
# 4 0.000000 0.000000 0.000000 0.040708 0.000000 0.000000
# 5 0.000000 0.000000 0.000000 0.000000 0.071090 0.000000
# 6 0.000000 0.000000 0.000000 0.000000 0.000000 0.025627
#
#
# Mechanical properties :
#
#
# Convention : Reuss Voigt Hill
#
# Bulk Modulus (GPa) = 34.59800 60.76175 47.67987
# Shear Modulus (GPa) = 22.21109 28.05620 25.13365
#
# Velocity S-wave (km/s) = 3.22536 3.62500 3.43100
# Velocity P-wave (km/s) = 5.48409 6.78083 6.16664
#
# Compressibility (1/GPa) = 0.02890341
#
# Stress axis : x y z
#
# Youngs Moduli (GPa) = 63.49495 104.27885 35.53740
#
# Poissons Ratio (x) = 0.70981 0.05821
# Poissons Ratio (y) = 0.43220 0.13656
# Poissons Ratio (z) = 0.10401 0.40070
#
# Static dielectric constant tensor:
#      x y z
#    x 1.850960 0.000000 0.000000 
#    y 0.000000 1.760820 0.000000 
#    z 0.000000 0.000000 1.824850 
# 
# From -- ./inp_files/49812.got.cif
#   From: 2010.05.17/outbox.cif.g08.bks.cpg/sg22_25_cif.got.tgz:49812.got - 2010.06.03 23:40:54.
