data_PCOD9326275
_publ_section_title
;
Structure prediction by ZEFSAII (Michael W. Deem and Ramdas Pophale) SiO2 
 PCOD9326275
Probable space group: F 2 2 2
;
_chemical_formula_sum "Si O2"
_cell_formula_units_Z 68
_cell_length_a 23.644497
_cell_length_b 5.352454
_cell_length_c 22.853208
_cell_angle_alpha 90.000000
_cell_angle_beta 90.000000
_cell_angle_gamma 90.000000
_cell_volume 2892.212478
_symmetry_space_group_name_H-M "F 2 2 2"
_symmetry_group_IT_number 22
_symmetry_cell_setting 'orthorhombic'
loop_
_space_group_symop_operation_xyz
x,y,z
-x,-y,z
x,-y,-z
-x,y,-z
x,1/2+y,1/2+z
-x,1/2-y,1/2+z
x,1/2-y,1/2-z
-x,1/2+y,1/2-z
1/2+x,y,1/2+z
1/2-x,-y,1/2+z
1/2+x,-y,1/2-z
1/2-x,y,1/2-z
1/2+x,1/2+y,z
1/2-x,1/2-y,z
1/2+x,1/2-y,-z
1/2-x,1/2+y,-z
loop_
_atom_site_type_symbol
_atom_site_label
_atom_site_fract_x
_atom_site_fract_y
_atom_site_fract_z
Si Si1 0.353024 0.750000 0.250000
Si Si2 0.000000 0.000000 0.346419
Si Si3 0.933420 0.250000 0.750000
Si Si4 0.750000 0.750000 0.842750
Si Si5 0.500000 0.500000 0.000000
Si Si6 0.585443 0.340349 0.440940
Si Si7 0.333490 0.500000 0.000000
Si Si8 0.750000 0.250000 0.919845
O O1 0.392771 0.499336 0.248476
O O2 0.307818 0.742950 0.195995
O O3 0.977122 0.781806 0.304029
O O4 0.058354 0.964486 0.384265
O O5 0.754444 0.498408 0.881187
O O6 0.533702 0.331084 0.042541
O O7 0.592617 0.500000 0.500000
O O8 0.635934 0.144082 0.446225
O O9 0.300788 0.288430 0.035090
#
# Coordination Sequence:
#
# PCOD9326275 Si02
#       8
#     8   8   8   8   4  16   8   8
#     4  11  27  56  79 118 153 200 289 313 412 458
#     4  12  27  53  74 114 168 204 282 318 394 476
#     4  12  29  49  83 116 161 219 257 352 386 466
#     4  11  27  52  87 114 153 214 255 343 384 498
#     4  10  18  42  68 114 138 200 274 306 382 456
#     4  11  24  47  76 111 155 217 256 327 391 477
#     4  11  30  47  78 118 162 195 262 321 410 480
#     4  12  27  51  79 122 161 201 255 330 406 488
#
# _framework density 23.511413000000001
#
# number of rings (size 3 to 8) (size 9 to 14) (size 15 to 20)
#    0.000    0.706    2.353    2.824    8.235    6.588 
#    4.235    0.000    0.000    0.000    0.000    0.000 
#    0.000    0.000    0.000    0.000    0.000    0.000 
#
# Total GULP energy -94711.488966 kJ/mol
# GULP energy per Si atom -5571.264057 kJ/mol
# Density = 2.345790 g / cm^3
# Si number density = 23.511413 Si / 1000 Ang^3
#
#
#
# Elastic Constant Matrix: (Units=GPa)
#
#
# Indices 1 2 3 4 5 6 
#
# 1 122.0493 65.5339 59.0318 -0.0005 -0.0001 -0.0001
# 2 65.5339 158.3299 57.0652 -0.0026 0.0008 -0.0031
# 3 59.0318 57.0652 145.2803 0.0001 0.0006 -0.0001
# 4 -0.0005 -0.0026 0.0001 53.8585 0.0003 -0.0008
# 5 -0.0001 0.0008 0.0006 0.0003 56.1514 0.0003
# 6 -0.0001 -0.0031 -0.0001 -0.0008 0.0003 64.2215
#
#
#
# Elastic Compliance Matrix: (Units=1/GPa)
#
#
# Indices 1 2 3 4 5 6 
#
# 1 0.011783 -0.003671 -0.003346 0.000000 0.000000 0.000000
# 2 -0.003671 0.008501 -0.001848 0.000000 0.000000 0.000000
# 3 -0.003346 -0.001848 0.008968 0.000000 0.000000 0.000000
# 4 0.000000 0.000000 0.000000 0.018567 0.000000 0.000000
# 5 0.000000 0.000000 0.000000 0.000000 0.017809 0.000000
# 6 0.000000 0.000000 0.000000 0.000000 0.000000 0.015571
#
#
# Mechanical properties :
#
#
# Convention : Reuss Voigt Hill
#
# Bulk Modulus (GPa) = 86.77745 87.65792 87.21768
# Shear Modulus (GPa) = 48.65230 51.11484 49.88357
#
# Velocity S-wave (km/s) = 4.55390 4.66772 4.61116
# Velocity P-wave (km/s) = 8.03986 8.14949 8.09486
#
# Compressibility (1/GPa) = 0.01152373
#
# Stress axis : x y z
#
# Youngs Moduli (GPa) = 84.86905 117.62846 111.50217
#
# Poissons Ratio (x) = 0.43183 0.37306
# Poissons Ratio (y) = 0.31157 0.20601
# Poissons Ratio (z) = 0.28395 0.21733
#
# Static dielectric constant tensor:
#      x y z
#    x 1.992870 0.000000 0.000000 
#    y 0.000000 1.974660 0.000010 
#    z 0.000000 0.000010 -0.936910 
# 
# From -- ./inp_files/5448.got.cif
#   From: 2010.05.17/outbox.cif.g08.bks.cpg/sg22_3_cif.got.tgz:5448.got - 2010.06.03 23:40:54.
