data_PCOD9326754
_publ_section_title
;
Structure prediction by ZEFSAII (Michael W. Deem and Ramdas Pophale) SiO2 
 PCOD9326754
Probable space group: F 2 2 2
;
_chemical_formula_sum "Si O2"
_cell_formula_units_Z 72
_cell_length_a 18.875988
_cell_length_b 20.148330
_cell_length_c 9.522508
_cell_angle_alpha 90.000000
_cell_angle_beta 90.000000
_cell_angle_gamma 90.000000
_cell_volume 3621.596770
_symmetry_space_group_name_H-M "F 2 2 2"
_symmetry_group_IT_number 22
_symmetry_cell_setting 'orthorhombic'
loop_
_space_group_symop_operation_xyz
x,y,z
-x,-y,z
x,-y,-z
-x,y,-z
x,1/2+y,1/2+z
-x,1/2-y,1/2+z
x,1/2-y,1/2-z
-x,1/2+y,1/2-z
1/2+x,y,1/2+z
1/2-x,-y,1/2+z
1/2+x,-y,1/2-z
1/2-x,y,1/2-z
1/2+x,1/2+y,z
1/2-x,1/2-y,z
1/2+x,1/2-y,-z
1/2-x,1/2+y,-z
loop_
_atom_site_type_symbol
_atom_site_label
_atom_site_fract_x
_atom_site_fract_y
_atom_site_fract_z
Si Si1 0.278950 0.880591 0.599228
Si Si2 0.095282 0.465124 0.274624
Si Si3 0.179851 0.178251 0.821289
Si Si4 0.963289 0.600223 0.647175
Si Si5 0.821294 0.000000 0.500000
O O1 0.250000 0.856051 0.750000
O O2 0.346731 0.923467 0.643125
O O3 0.301133 0.825582 0.486467
O O4 0.226509 0.934204 0.524965
O O5 0.070815 0.527675 0.364492
O O6 0.129268 0.497529 0.136500
O O7 0.028978 0.415708 0.248463
O O8 0.175484 0.250000 0.750000
O O9 0.250000 0.145210 0.750000
O O10 0.102419 0.145359 0.806436
O O11 0.000000 0.621066 0.500000
#
# Coordination Sequence:
#
# PCOD9326754 Si02
#       5
#    16  16  16  16   8
#     4  10  20  37  64  98 138 174 221 274 345 412
#     4  10  20  34  62 103 136 171 206 274 355 420
#     4  11  24  43  68  92 125 181 244 291 331 395
#     4  11  21  36  65  95 135 175 214 267 349 420
#     4  10  20  33  60 105 142 168 206 278 339 426
#
# _framework density 19.880732999999999
#
# number of rings (size 3 to 8) (size 9 to 14) (size 15 to 20)
#    0.000    1.556    2.222    4.000    0.000    3.556 
#    0.000    2.222   24.444    0.000    0.000    0.000 
#    0.000    0.000    0.000    0.000    0.000    0.000 
#
# Total GULP energy -100261.718884 kJ/mol
# GULP energy per Si atom -5570.095494 kJ/mol
# Density = 1.983548 g / cm^3
# Si number density = 19.880733 Si / 1000 Ang^3
#
#
#
# Elastic Constant Matrix: (Units=GPa)
#
#
# Indices 1 2 3 4 5 6 
#
# 1 161.4709 45.5780 61.0535 0.0000 0.0000 0.0000
# 2 45.5780 69.4259 58.7051 0.0000 0.0000 0.0000
# 3 61.0535 58.7051 135.9798 0.0000 0.0000 0.0000
# 4 0.0000 0.0000 0.0000 35.4398 0.0000 0.0000
# 5 0.0000 0.0000 0.0000 0.0000 27.2347 0.0000
# 6 0.0000 0.0000 0.0000 0.0000 0.0000 28.8707
#
#
#
# Elastic Compliance Matrix: (Units=1/GPa)
#
#
# Indices 1 2 3 4 5 6 
#
# 1 0.007957 -0.003469 -0.002075 0.000000 0.000000 0.000000
# 2 -0.003469 0.024198 -0.008889 0.000000 0.000000 0.000000
# 3 -0.002075 -0.008889 0.012123 0.000000 0.000000 0.000000
# 4 0.000000 0.000000 0.000000 0.028217 0.000000 0.000000
# 5 0.000000 0.000000 0.000000 0.000000 0.036718 0.000000
# 6 0.000000 0.000000 0.000000 0.000000 0.000000 0.034637
#
#
# Mechanical properties :
#
#
# Convention : Reuss Voigt Hill
#
# Bulk Modulus (GPa) = 64.88589 77.50553 71.19571
# Shear Modulus (GPa) = 28.11313 31.74503 29.92908
#
# Velocity S-wave (km/s) = 3.76452 4.00030 3.88420
# Velocity P-wave (km/s) = 7.18358 7.77216 7.48366
#
# Compressibility (1/GPa) = 0.01541167
#
# Stress axis : x y z
#
# Youngs Moduli (GPa) = 125.67843 41.32620 82.48691
#
# Poissons Ratio (x) = 0.14337 0.17114
# Poissons Ratio (y) = 0.43601 0.73322
# Poissons Ratio (z) = 0.26076 0.36735
#
# Static dielectric constant tensor:
#      x y z
#    x 1.791050 0.000000 0.000000 
#    y 0.000000 1.713780 0.000000 
#    z 0.000000 0.000000 1.785720 
# 
# From -- ./inp_files/12468.got.cif
#   From: 2010.05.17/outbox.cif.g08.bks.cpg/sg22_7_cif.got.tgz:12468.got - 2010.06.03 23:40:54.
