data_PCOD9326210
_publ_section_title
;
Structure prediction by ZEFSAII (Michael W. Deem and Ramdas Pophale) SiO2 
 PCOD9326210
Probable space group: F 2 2 2
;
_chemical_formula_sum "Si O2"
_cell_formula_units_Z 68
_cell_length_a 18.145306
_cell_length_b 8.718751
_cell_length_c 20.873953
_cell_angle_alpha 90.000000
_cell_angle_beta 90.000000
_cell_angle_gamma 90.000000
_cell_volume 3302.351311
_symmetry_space_group_name_H-M "F 2 2 2"
_symmetry_group_IT_number 22
_symmetry_cell_setting 'orthorhombic'
loop_
_space_group_symop_operation_xyz
x,y,z
-x,-y,z
x,-y,-z
-x,y,-z
x,1/2+y,1/2+z
-x,1/2-y,1/2+z
x,1/2-y,1/2-z
-x,1/2+y,1/2-z
1/2+x,y,1/2+z
1/2-x,-y,1/2+z
1/2+x,-y,1/2-z
1/2-x,y,1/2-z
1/2+x,1/2+y,z
1/2-x,1/2-y,z
1/2+x,1/2-y,-z
1/2-x,1/2+y,-z
loop_
_atom_site_type_symbol
_atom_site_label
_atom_site_fract_x
_atom_site_fract_y
_atom_site_fract_z
Si Si1 0.353907 0.165624 0.855161
Si Si2 0.083466 0.250000 0.250000
Si Si3 0.500000 0.000000 0.167693
Si Si4 0.412916 0.989340 0.643874
Si Si5 0.638496 0.500000 0.000000
Si Si6 0.250000 0.250000 0.539058
Si Si7 0.750000 0.750000 0.750000
O O1 0.376370 0.344202 0.846376
O O2 0.299424 0.144990 0.914397
O O3 0.302911 0.142294 0.793081
O O4 0.427990 0.070092 0.865858
O O5 0.118501 0.140674 0.193300
O O6 0.032748 0.364999 0.210250
O O7 0.404418 0.971649 0.566657
O O8 0.500000 0.000000 0.657344
O O9 0.691962 0.646245 0.996536
#
# Coordination Sequence:
#
# PCOD9326210 Si02
#       7
#    16   8   8  16   8   8   4
#     4  10  21  37  63  88 128 173 221 270 358 404
#     4  12  21  32  60  94 131 158 220 276 351 388
#     4  12  20  36  58  96 130 168 218 298 334 410
#     4  11  21  40  62  97 127 177 214 287 342 410
#     4  10  23  42  68  87 134 178 232 272 350 415
#     4   9  22  43  64  89 122 181 226 282 330 431
#     4  10  18  36  56  86 122 172 204 252 338 426
#
# _framework density 20.591388999999999
#
# number of rings (size 3 to 8) (size 9 to 14) (size 15 to 20)
#    0.000    1.412    3.529    2.471    0.000    1.882 
#    0.000    2.353    0.000   24.706    0.000    0.000 
#    0.000    0.000    0.000    0.000    0.000    0.000 
#
# Total GULP energy -94651.635619 kJ/mol
# GULP energy per Si atom -5567.743272 kJ/mol
# Density = 2.054452 g / cm^3
# Si number density = 20.591389 Si / 1000 Ang^3
#
#
#
# Elastic Constant Matrix: (Units=GPa)
#
#
# Indices 1 2 3 4 5 6 
#
# 1 88.9947 10.5067 34.8747 0.0000 0.0000 0.0000
# 2 10.5067 65.6445 21.3184 0.0000 0.0000 0.0000
# 3 34.8747 21.3184 97.1670 0.0000 0.0000 0.0000
# 4 0.0000 0.0000 0.0000 17.4605 0.0000 0.0000
# 5 0.0000 0.0000 0.0000 0.0000 -53.9058 0.0000
# 6 0.0000 0.0000 0.0000 0.0000 0.0000 37.5921
#
#
#
# Elastic Compliance Matrix: (Units=1/GPa)
#
#
# Indices 1 2 3 4 5 6 
#
# 1 0.013099 -0.000613 -0.004567 0.000000 0.000000 0.000000
# 2 -0.000613 0.016431 -0.003385 0.000000 0.000000 0.000000
# 3 -0.004567 -0.003385 0.012673 0.000000 0.000000 0.000000
# 4 0.000000 0.000000 0.000000 0.057272 0.000000 0.000000
# 5 0.000000 0.000000 0.000000 0.000000 -0.018551 0.000000
# 6 0.000000 0.000000 0.000000 0.000000 0.000000 0.026601
#
#
# Mechanical properties :
#
#
# Convention : Reuss Voigt Hill
#
# Bulk Modulus (GPa) = 39.88354 42.80065 41.34210
# Shear Modulus (GPa) = 37.59035 12.56979 25.08007
#
# Velocity S-wave (km/s) = 4.27727 2.47339 3.49376
# Velocity P-wave (km/s) = 6.61849 5.38402 6.03291
#
# Compressibility (1/GPa) = 0.02507300
#
# Stress axis : x y z
#
# Youngs Moduli (GPa) = 76.34392 60.86064 78.90639
#
# Poissons Ratio (x) = 0.03733 0.36034
# Poissons Ratio (y) = 0.04683 0.26708
# Poissons Ratio (z) = 0.34864 0.20600
#
# Static dielectric constant tensor:
#      x y z
#    x 1.719820 0.000000 0.000000 
#    y 0.000000 1.719620 0.000000 
#    z 0.000000 0.000000 1.788060 
# 
# From -- ./inp_files/11316.got.cif
#   From: 2010.05.17/outbox.cif.g08.bks.cpg/sg22_6_cif.got.tgz:11316.got - 2010.06.03 23:40:54.
