data_PCOD9326142
_publ_section_title
;
Structure prediction by ZEFSAII (Michael W. Deem and Ramdas Pophale) SiO2 
 PCOD9326142
Probable space group: F 2 2 2
;
_chemical_formula_sum "Si O2"
_cell_formula_units_Z 100
_cell_length_a 14.884069
_cell_length_b 20.483231
_cell_length_c 15.460565
_cell_angle_alpha 90.000000
_cell_angle_beta 90.000000
_cell_angle_gamma 90.000000
_cell_volume 4713.521566
_symmetry_space_group_name_H-M "F 2 2 2"
_symmetry_group_IT_number 22
_symmetry_cell_setting 'orthorhombic'
loop_
_space_group_symop_operation_xyz
x,y,z
-x,-y,z
x,-y,-z
-x,y,-z
x,1/2+y,1/2+z
-x,1/2-y,1/2+z
x,1/2-y,1/2-z
-x,1/2+y,1/2-z
1/2+x,y,1/2+z
1/2-x,-y,1/2+z
1/2+x,-y,1/2-z
1/2-x,y,1/2-z
1/2+x,1/2+y,z
1/2-x,1/2-y,z
1/2+x,1/2-y,-z
1/2-x,1/2+y,-z
loop_
_atom_site_type_symbol
_atom_site_label
_atom_site_fract_x
_atom_site_fract_y
_atom_site_fract_z
Si Si1 0.154144 0.215497 0.495105
Si Si2 0.094657 0.184279 0.305363
Si Si3 0.898706 0.642947 0.512032
Si Si4 0.114746 0.347287 0.839519
Si Si5 0.250000 0.750000 0.250000
Si Si6 0.890022 0.081160 0.834248
Si Si7 0.108779 0.567684 0.320521
O O1 0.250000 0.250000 0.505250
O O2 0.139909 0.194158 0.397362
O O3 0.094751 0.279128 0.518503
O O4 0.132003 0.155356 0.558235
O O5 0.104361 0.250000 0.250000
O O6 0.132876 0.124692 0.248856
O O7 0.988305 0.172781 0.321944
O O8 0.857631 0.618541 0.421142
O O9 0.857929 0.613212 0.599943
O O10 0.000000 0.616984 0.500000
O O11 0.183783 0.292952 0.806799
O O12 0.132946 0.407649 0.775417
O O13 0.999841 0.074957 0.828065
O O14 0.860398 0.006221 0.834201
#
# Coordination Sequence:
#
# PCOD9326142 Si02
#       7
#    16  16  16  16   4  16  16
#     4  12  25  38  58  87 125 161 204 254 307 364
#     4  11  21  39  63  89 120 159 202 253 305 367
#     4  10  18  33  60  89 120 153 199 254 305 355
#     4  11  22  37  61  92 126 154 198 253 314 369
#     4  12  20  36  64  92 128 156 194 256 320 348
#     4   9  18  35  58  91 119 156 204 242 296 369
#     4   9  19  33  60  89 122 156 193 250 305 365
#
# _framework density 21.21556
#
# number of rings (size 3 to 8) (size 9 to 14) (size 15 to 20)
#    0.000    1.600    3.200    2.880    2.240    2.240 
#    0.000    0.800    3.520    3.840    0.000    0.000 
#    0.000    0.000    0.000    0.000    0.000    0.000 
#
# Total GULP energy -139513.401135 kJ/mol
# GULP energy per Si atom -5580.536045 kJ/mol
# Density = 2.116727 g / cm^3
# Si number density = 21.215560 Si / 1000 Ang^3
#
#
#
# Elastic Constant Matrix: (Units=GPa)
#
#
# Indices 1 2 3 4 5 6 
#
# 1 45.3570 3.8381 12.1782 0.0000 0.0000 0.0000
# 2 3.8381 65.2174 44.1333 0.0000 0.0000 0.0000
# 3 12.1782 44.1333 176.0289 0.0000 0.0000 0.0000
# 4 0.0000 0.0000 0.0000 29.5583 0.0000 0.0000
# 5 0.0000 0.0000 0.0000 0.0000 17.6038 0.0000
# 6 0.0000 0.0000 0.0000 0.0000 0.0000 -0.0122
#
#
#
# Elastic Compliance Matrix: (Units=1/GPa)
#
#
# Indices 1 2 3 4 5 6 
#
# 1 0.022470 -0.000326 -0.001473 0.000000 0.000000 0.000000
# 2 -0.000326 0.018471 -0.004608 0.000000 0.000000 0.000000
# 3 -0.001473 -0.004608 0.006938 0.000000 0.000000 0.000000
# 4 0.000000 0.000000 0.000000 0.033831 0.000000 0.000000
# 5 0.000000 0.000000 0.000000 0.000000 0.056806 0.000000
# 6 0.000000 0.000000 0.000000 0.000000 0.000000-82.132409
#
#
# Mechanical properties :
#
#
# Convention : Reuss Voigt Hill
#
# Bulk Modulus (GPa) = 28.51804 45.21139 36.86472
# Shear Modulus (GPa) = -0.06100 24.52689 12.23294
#
# Velocity S-wave (km/s) = -0.16975 3.40381 2.40386
# Velocity P-wave (km/s) = 3.66508 6.06668 5.01186
#
# Compressibility (1/GPa) = 0.03506552
#
# Stress axis : x y z
#
# Youngs Moduli (GPa) = 44.50311 54.13862 144.12948
#
# Poissons Ratio (x) = 0.01763 0.21229
# Poissons Ratio (y) = 0.01449 0.66422
# Poissons Ratio (z) = 0.06555 0.24950
#
# Static dielectric constant tensor:
#      x y z
#    x 1.985270 0.000000 0.000000 
#    y 0.000000 1.740950 0.000000 
#    z 0.000000 0.000000 1.812470 
# 
# From -- ./inp_files/30812.got.cif
#   From: 2010.05.17/outbox.cif.g08.bks.cpg/sg22_16_cif.got.tgz:30812.got - 2010.06.03 23:40:54.
