data_PCOD9326636
_publ_section_title
;
Structure prediction by ZEFSAII (Michael W. Deem and Ramdas Pophale) SiO2 
 PCOD9326636
Probable space group: F 2 2 2
;
_chemical_formula_sum "Si O2"
_cell_formula_units_Z 76
_cell_length_a 12.222624
_cell_length_b 22.673782
_cell_length_c 11.662159
_cell_angle_alpha 90.000000
_cell_angle_beta 90.000000
_cell_angle_gamma 90.000000
_cell_volume 3231.970417
_symmetry_space_group_name_H-M "F 2 2 2"
_symmetry_group_IT_number 22
_symmetry_cell_setting 'orthorhombic'
loop_
_space_group_symop_operation_xyz
x,y,z
-x,-y,z
x,-y,-z
-x,y,-z
x,1/2+y,1/2+z
-x,1/2-y,1/2+z
x,1/2-y,1/2-z
-x,1/2+y,1/2-z
1/2+x,y,1/2+z
1/2-x,-y,1/2+z
1/2+x,-y,1/2-z
1/2-x,y,1/2-z
1/2+x,1/2+y,z
1/2-x,1/2-y,z
1/2+x,1/2-y,-z
1/2-x,1/2+y,-z
loop_
_atom_site_type_symbol
_atom_site_label
_atom_site_fract_x
_atom_site_fract_y
_atom_site_fract_z
Si Si1 0.617285 0.292920 0.531531
Si Si2 0.839473 0.336710 0.446708
Si Si3 0.250000 0.250000 0.250000
Si Si4 0.750000 0.099477 0.250000
Si Si5 0.657053 0.552138 0.086065
Si Si6 0.121866 0.490724 0.160221
O O1 0.500000 0.319210 0.500000
O O2 0.710314 0.328283 0.466686
O O3 0.614548 0.227257 0.474943
O O4 0.667931 0.284451 0.661107
O O5 0.839286 0.362613 0.319256
O O6 0.879337 0.385530 0.536383
O O7 0.816073 0.053345 0.329067
O O8 0.789955 0.549806 0.095629
O O9 0.614464 0.537059 0.211995
O O10 0.625148 0.500000 0.000000
O O11 0.000000 0.500000 0.118582
#
# Coordination Sequence:
#
# PCOD9326636 Si02
#       6
#    16  16   4   8  16  16
#     4  10  24  41  66  95 122 176 218 260 324 374
#     4  10  21  40  61  87 128 166 207 264 312 382
#     4   8  20  44  66  88 144 146 220 280 308 378
#     4  10  20  39  57  84 124 158 198 258 308 368
#     4  10  19  39  59  79 125 158 187 254 315 355
#     4  10  22  35  57  91 118 159 207 245 309 379
#
# _framework density 23.515066999999998
#
# number of rings (size 3 to 8) (size 9 to 14) (size 15 to 20)
#    0.000    2.526    4.211    0.000    0.000   14.316 
#    0.000    0.000    0.000    0.000    0.000    0.000 
#    0.000    0.000    0.000    0.000    0.000    0.000 
#
# Total GULP energy -106049.318650 kJ/mol
# GULP energy per Si atom -5581.543087 kJ/mol
# Density = 2.346155 g / cm^3
# Si number density = 23.515067 Si / 1000 Ang^3
#
#
#
# Elastic Constant Matrix: (Units=GPa)
#
#
# Indices 1 2 3 4 5 6 
#
# 1 149.6254 -27.7334 -8.0194 0.0000 0.0000 0.0000
# 2 -27.7334 88.0284 9.4698 0.0000 0.0000 0.0000
# 3 -8.0194 9.4698 118.3352 0.0000 0.0000 0.0000
# 4 0.0000 0.0000 0.0000 51.3612 0.0000 0.0000
# 5 0.0000 0.0000 0.0000 0.0000 2.3931 0.0000
# 6 0.0000 0.0000 0.0000 0.0000 0.0000 -5.8566
#
#
#
# Elastic Compliance Matrix: (Units=1/GPa)
#
#
# Indices 1 2 3 4 5 6 
#
# 1 0.007109 0.002207 0.000305 0.000000 0.000000 0.000000
# 2 0.002207 0.012144 -0.000822 0.000000 0.000000 0.000000
# 3 0.000305 -0.000822 0.008537 0.000000 0.000000 0.000000
# 4 0.000000 0.000000 0.000000 0.019470 0.000000 0.000000
# 5 0.000000 0.000000 0.000000 0.000000 0.417862 0.000000
# 6 0.000000 0.000000 0.000000 0.000000 0.000000 -0.170748
#
#
# Mechanical properties :
#
#
# Convention : Reuss Voigt Hill
#
# Bulk Modulus (GPa) = 32.08332 33.71367 32.89850
# Shear Modulus (GPa) = 16.59015 35.06434 25.82724
#
# Velocity S-wave (km/s) = 2.65903 3.86572 3.31770
# Velocity P-wave (km/s) = 4.80631 5.85604 5.35695
#
# Compressibility (1/GPa) = 0.03116884
#
# Stress axis : x y z
#
# Youngs Moduli (GPa) = 140.67178 82.34738 117.13650
#
# Poissons Ratio (x) = -0.18172 -0.03574
# Poissons Ratio (y) = -0.31043 0.09632
# Poissons Ratio (z) = -0.04293 0.06771
#
# Static dielectric constant tensor:
#      x y z
#    x 1.774910 0.000000 0.000000 
#    y 0.000000 1.844920 0.000000 
#    z 0.000000 0.000000 2.045810 
# 
# From -- ./inp_files/19887.got.cif
#   From: 2010.05.17/outbox.cif.g08.bks.cpg/sg22_10_cif.got.tgz:19887.got - 2010.06.03 23:40:54.
