data_PCOD9326492
_publ_section_title
;
Structure prediction by ZEFSAII (Michael W. Deem and Ramdas Pophale) SiO2 
 PCOD9326492
Probable space group: F 2 2 2
;
_chemical_formula_sum "Si O2"
_cell_formula_units_Z 88
_cell_length_a 10.928336
_cell_length_b 30.448746
_cell_length_c 9.695508
_cell_angle_alpha 90.000000
_cell_angle_beta 90.000000
_cell_angle_gamma 90.000000
_cell_volume 3226.220301
_symmetry_space_group_name_H-M "F 2 2 2"
_symmetry_group_IT_number 22
_symmetry_cell_setting 'orthorhombic'
loop_
_space_group_symop_operation_xyz
x,y,z
-x,-y,z
x,-y,-z
-x,y,-z
x,1/2+y,1/2+z
-x,1/2-y,1/2+z
x,1/2-y,1/2-z
-x,1/2+y,1/2-z
1/2+x,y,1/2+z
1/2-x,-y,1/2+z
1/2+x,-y,1/2-z
1/2-x,y,1/2-z
1/2+x,1/2+y,z
1/2-x,1/2-y,z
1/2+x,1/2-y,-z
1/2-x,1/2+y,-z
loop_
_atom_site_type_symbol
_atom_site_label
_atom_site_fract_x
_atom_site_fract_y
_atom_site_fract_z
Si Si1 0.408963 0.133308 0.633830
Si Si2 0.747921 0.320833 0.559258
Si Si3 0.625182 0.087434 0.902646
Si Si4 0.543908 0.796077 0.218805
Si Si5 0.550846 0.457289 0.221787
Si Si6 0.326482 0.000000 0.000000
O O1 0.500000 0.131452 0.500000
O O2 0.304186 0.167150 0.586351
O O3 0.467321 0.159538 0.762762
O O4 0.369597 0.083117 0.663911
O O5 0.700165 0.368796 0.604502
O O6 0.624433 0.293304 0.579451
O O7 0.852397 0.302277 0.660309
O O8 0.566801 0.071684 0.760781
O O9 0.713734 0.046767 0.943645
O O10 0.500000 0.090466 0.000000
O O11 0.480076 0.750000 0.250000
O O12 0.500000 0.500000 0.143198
O O13 0.608994 0.479972 0.359430
#
# Coordination Sequence:
#
# PCOD9326492 Si02
#       6
#    16  16  16  16  16   8
#     4  10  21  36  61  97 130 167 227 290 345 419
#     4  10  19  35  62  91 120 160 227 274 335 418
#     4   9  16  32  57  87 120 174 222 266 327 403
#     4  10  21  41  65  87 124 178 224 278 359 428
#     4   9  16  33  59  85 129 179 226 275 336 411
#     4   8  17  32  60  84 123 186 239 258 332 422
#
# _framework density 27.276499000000001
#
# number of rings (size 3 to 8) (size 9 to 14) (size 15 to 20)
#    0.000    2.545    1.818    4.364    0.000    0.364 
#    0.000   11.818    0.000    0.000    0.000    0.000 
#    0.000    0.000    0.000    0.000    0.000    0.000 
#
# Total GULP energy -122498.270855 kJ/mol
# GULP energy per Si atom -5568.103221 kJ/mol
# Density = 2.721442 g / cm^3
# Si number density = 27.276499 Si / 1000 Ang^3
#
#
#
# Elastic Constant Matrix: (Units=GPa)
#
#
# Indices 1 2 3 4 5 6 
#
# 1 56.7333 15.9594 34.6541 0.0000 0.0000 0.0000
# 2 15.9594 202.3885 14.8014 0.0000 0.0000 0.0000
# 3 34.6541 14.8014 86.0895 0.0000 0.0000 0.0000
# 4 0.0000 0.0000 0.0000 33.5819 0.0000 0.0000
# 5 0.0000 0.0000 0.0000 0.0000 44.1443 0.0000
# 6 0.0000 0.0000 0.0000 0.0000 0.0000 24.4626
#
#
#
# Elastic Compliance Matrix: (Units=1/GPa)
#
#
# Indices 1 2 3 4 5 6 
#
# 1 0.023650 -0.001184 -0.009316 0.000000 0.000000 0.000000
# 2 -0.001184 0.005063 -0.000394 0.000000 0.000000 0.000000
# 3 -0.009316 -0.000394 0.015434 0.000000 0.000000 0.000000
# 4 0.000000 0.000000 0.000000 0.029778 0.000000 0.000000
# 5 0.000000 0.000000 0.000000 0.000000 0.022653 0.000000
# 6 0.000000 0.000000 0.000000 0.000000 0.000000 0.040879
#
#
# Mechanical properties :
#
#
# Convention : Reuss Voigt Hill
#
# Bulk Modulus (GPa) = 44.72535 52.89343 48.80939
# Shear Modulus (GPa) = 29.99440 39.09085 34.54262
#
# Velocity S-wave (km/s) = 3.31968 3.78978 3.56249
# Velocity P-wave (km/s) = 5.57910 6.21157 5.90381
#
# Compressibility (1/GPa) = 0.02235868
#
# Stress axis : x y z
#
# Youngs Moduli (GPa) = 42.28326 197.50577 64.79291
#
# Poissons Ratio (x) = 0.23376 0.60364
# Poissons Ratio (y) = 0.05005 0.02553
# Poissons Ratio (z) = 0.39393 0.07783
#
# Static dielectric constant tensor:
#      x y z
#    x 2.305500 0.000000 0.000000 
#    y 0.000000 2.089750 0.000000 
#    z 0.000000 0.000000 2.281690 
# 
# From -- ./inp_files/18405.got.cif
#   From: 2010.05.17/outbox.cif.g08.bks.cpg/sg22_10_cif.got.tgz:18405.got - 2010.06.03 23:40:54.
