data_PCOD9326054
_publ_section_title
;
Structure prediction by ZEFSAII (Michael W. Deem and Ramdas Pophale) SiO2 
 PCOD9326054
Probable space group: F 2 2 2
;
_chemical_formula_sum "Si O2"
_cell_formula_units_Z 116
_cell_length_a 16.473128
_cell_length_b 22.682105
_cell_length_c 14.954883
_cell_angle_alpha 90.000000
_cell_angle_beta 90.000000
_cell_angle_gamma 90.000000
_cell_volume 5587.820533
_symmetry_space_group_name_H-M "F 2 2 2"
_symmetry_group_IT_number 22
_symmetry_cell_setting 'orthorhombic'
loop_
_space_group_symop_operation_xyz
x,y,z
-x,-y,z
x,-y,-z
-x,y,-z
x,1/2+y,1/2+z
-x,1/2-y,1/2+z
x,1/2-y,1/2-z
-x,1/2+y,1/2-z
1/2+x,y,1/2+z
1/2-x,-y,1/2+z
1/2+x,-y,1/2-z
1/2-x,y,1/2-z
1/2+x,1/2+y,z
1/2-x,1/2-y,z
1/2+x,1/2-y,-z
1/2-x,1/2+y,-z
loop_
_atom_site_type_symbol
_atom_site_label
_atom_site_fract_x
_atom_site_fract_y
_atom_site_fract_z
Si Si1 0.101472 0.673826 0.768276
Si Si2 0.813274 0.804335 0.535657
Si Si3 0.394700 0.945145 0.674888
Si Si4 0.817600 0.605876 0.489928
Si Si5 0.750000 0.250000 0.750000
Si Si6 0.077430 0.218737 0.065162
Si Si7 0.082641 0.925619 0.162935
Si Si8 0.923652 0.685435 0.792957
O O1 0.119684 0.605764 0.747149
O O2 0.185973 0.705123 0.794229
O O3 0.073638 0.704115 0.671695
O O4 0.017833 0.678128 0.822760
O O5 0.750000 0.750000 0.552665
O O6 0.769305 0.864451 0.506173
O O7 0.873729 0.776841 0.462912
O O8 0.863419 0.817117 0.624598
O O9 0.331123 0.936441 0.594477
O O10 0.486644 0.931144 0.638476
O O11 0.396226 0.011984 0.708947
O O12 0.870350 0.663329 0.466748
O O13 0.859504 0.579442 0.577573
O O14 0.000000 0.218101 0.000000
O O15 0.092176 0.867467 0.223154
O O16 0.913217 0.750000 0.750000
#
# Coordination Sequence:
#
# PCOD9326054 Si02
#       8
#    16  16  16  16   4  16  16  16
#     4  10  22  36  59  83 115 159 199 252 313 368
#     4  10  22  34  52  84 121 154 192 249 302 365
#     4   9  19  35  55  81 114 150 204 258 299 371
#     4  10  18  30  51  82 112 149 191 246 303 356
#     4  12  24  36  60  88 118 156 200 260 316 368
#     4  10  19  34  55  79 112 152 197 242 299 367
#     4  10  19  32  56  83 114 158 199 248 316 365
#     4  11  20  36  54  84 123 159 201 249 316 376
#
# _framework density 20.759433999999999
#
# number of rings (size 3 to 8) (size 9 to 14) (size 15 to 20)
#    0.000    1.931    0.690    5.793    4.828    3.034 
#    0.000    1.379    0.000    0.000    0.000    0.000 
#    0.000    0.000    0.276    0.000    0.000    0.000 
#
# Total GULP energy -161752.211905 kJ/mol
# GULP energy per Si atom -5577.662479 kJ/mol
# Density = 2.071219 g / cm^3
# Si number density = 20.759434 Si / 1000 Ang^3
#
#
#
# Elastic Constant Matrix: (Units=GPa)
#
#
# Indices 1 2 3 4 5 6 
#
# 1 66.7364 10.9211 27.4234 0.0000 0.0000 0.0000
# 2 10.9211 128.9457 16.9483 0.0000 0.0000 0.0000
# 3 27.4234 16.9483 54.5465 0.0000 0.0000 0.0000
# 4 0.0000 0.0000 0.0000 15.4948 0.0000 0.0000
# 5 0.0000 0.0000 0.0000 0.0000 21.2407 0.0000
# 6 0.0000 0.0000 0.0000 0.0000 0.0000 32.9609
#
#
#
# Elastic Compliance Matrix: (Units=1/GPa)
#
#
# Indices 1 2 3 4 5 6 
#
# 1 0.018903 -0.000367 -0.009389 0.000000 0.000000 0.000000
# 2 -0.000367 0.008093 -0.002330 0.000000 0.000000 0.000000
# 3 -0.009389 -0.002330 0.023778 0.000000 0.000000 0.000000
# 4 0.000000 0.000000 0.000000 0.064538 0.000000 0.000000
# 5 0.000000 0.000000 0.000000 0.000000 0.047079 0.000000
# 6 0.000000 0.000000 0.000000 0.000000 0.000000 0.030339
#
#
# Mechanical properties :
#
#
# Convention : Reuss Voigt Hill
#
# Bulk Modulus (GPa) = 37.59374 40.09047 38.84210
# Shear Modulus (GPa) = 22.14660 26.93499 24.54079
#
# Velocity S-wave (km/s) = 3.26977 3.60597 3.44197
# Velocity P-wave (km/s) = 5.69242 6.05732 5.87771
#
# Compressibility (1/GPa) = 0.02660018
#
# Stress axis : x y z
#
# Youngs Moduli (GPa) = 52.90258 123.57089 42.05653
#
# Poissons Ratio (x) = 0.04533 0.39489
# Poissons Ratio (y) = 0.01941 0.09799
# Poissons Ratio (z) = 0.49672 0.28792
#
# Static dielectric constant tensor:
#      x y z
#    x 1.784460 0.000000 0.000000 
#    y 0.000000 1.798620 0.000000 
#    z 0.000000 0.000000 1.817640 
# 
# From -- ./inp_files/37393.got.cif
#   From: 2010.05.17/outbox.cif.g08.bks.cpg/sg22_19_cif.got.tgz:37393.got - 2010.06.03 23:40:54.
