data_PCOD9326828
_publ_section_title
;
Structure prediction by ZEFSAII (Michael W. Deem and Ramdas Pophale) SiO2 
 PCOD9326828
Probable space group: F 2 2 2
;
_chemical_formula_sum "Si O2"
_cell_formula_units_Z 96
_cell_length_a 24.975116
_cell_length_b 19.820652
_cell_length_c 9.059532
_cell_angle_alpha 90.000000
_cell_angle_beta 90.000000
_cell_angle_gamma 90.000000
_cell_volume 4484.677460
_symmetry_space_group_name_H-M "F 2 2 2"
_symmetry_group_IT_number 22
_symmetry_cell_setting 'orthorhombic'
loop_
_space_group_symop_operation_xyz
x,y,z
-x,-y,z
x,-y,-z
-x,y,-z
x,1/2+y,1/2+z
-x,1/2-y,1/2+z
x,1/2-y,1/2-z
-x,1/2+y,1/2-z
1/2+x,y,1/2+z
1/2-x,-y,1/2+z
1/2+x,-y,1/2-z
1/2-x,y,1/2-z
1/2+x,1/2+y,z
1/2-x,1/2-y,z
1/2+x,1/2-y,-z
1/2-x,1/2+y,-z
loop_
_atom_site_type_symbol
_atom_site_label
_atom_site_fract_x
_atom_site_fract_y
_atom_site_fract_z
Si Si1 0.631898 0.354621 0.753395
Si Si2 0.938193 0.782138 0.999999
Si Si3 0.795718 0.421194 0.500000
Si Si4 0.792481 0.689416 1.000000
Si Si5 0.560954 0.118113 1.000000
Si Si6 0.131898 0.145378 0.753394
O O1 0.670011 0.311770 0.643779
O O2 0.594507 0.398878 0.645641
O O3 0.593170 0.311196 0.858798
O O4 0.669982 0.397887 0.858598
O O5 0.906831 0.811197 0.858795
O O6 0.939626 0.700864 0.999998
O O7 0.000000 0.804997 0.000000
O O8 0.786133 0.500000 0.500000
O O9 0.741211 0.379123 0.499999
O O10 0.830019 0.397888 0.358597
O O11 0.750000 0.750000 0.999999
O O12 0.829989 0.688230 0.856221
O O13 0.500000 0.094519 0.000000
O O14 0.594507 0.101120 0.145640
#
# Coordination Sequence:
#
# PCOD9326828 Si02
#       6
#    16  16  16  16  16  16
#     4  10  23  38  61  93 129 164 212 269 312 395
#     4  10  20  35  61  94 133 171 203 254 327 398
#     4  11  26  46  65  88 125 180 226 261 316 391
#     4  11  26  40  63  99 133 169 206 271 331 377
#     4  10  20  35  61  94 129 167 208 263 332 392
#     4  10  23  38  61  93 129 164 212 269 312 395
#
# _framework density 21.406222
#
# number of rings (size 3 to 8) (size 9 to 14) (size 15 to 20)
#    0.000    1.667    0.000    3.000   14.000    6.667 
#    0.000    3.333    0.000   19.000    0.000    0.000 
#    0.000    0.000    0.000    0.000    0.000    0.000 
#
# Total GULP energy -134343.334518 kJ/mol
# GULP energy per Si atom -5597.638938 kJ/mol
# Density = 2.135750 g / cm^3
# Si number density = 21.406222 Si / 1000 Ang^3
#
#
#
# Elastic Constant Matrix: (Units=GPa)
#
#
# Indices 1 2 3 4 5 6 
#
# 1 187.4078 47.0987 83.5136 0.0000 0.0000 0.0000
# 2 47.0987 79.3289 33.2627 0.0000 0.0000 0.0000
# 3 83.5136 33.2627 172.5908 -0.0002 0.0002 0.0000
# 4 0.0000 0.0000 -0.0002 -2.4236 0.0001 0.0000
# 5 0.0000 0.0000 0.0002 0.0001 20.1620 0.0000
# 6 0.0000 0.0000 0.0000 0.0000 0.0000 12.9373
#
#
#
# Elastic Compliance Matrix: (Units=1/GPa)
#
#
# Indices 1 2 3 4 5 6 
#
# 1 0.007473 -0.003177 -0.003004 0.000000 0.000000 0.000000
# 2 -0.003177 0.015065 -0.001366 0.000000 0.000000 0.000000
# 3 -0.003004 -0.001366 0.007511 0.000000 0.000000 0.000000
# 4 0.000000 0.000000 0.000000 -0.412604 0.000001 0.000000
# 5 0.000000 0.000000 0.000000 0.000001 0.049598 0.000000
# 6 0.000000 0.000000 0.000000 0.000000 0.000000 0.077296
#
#
# Mechanical properties :
#
#
# Convention : Reuss Voigt Hill
#
# Bulk Modulus (GPa) = 66.86870 85.23086 76.04978
# Shear Modulus (GPa) = -21.22395 24.49863 1.63734
#
# Velocity S-wave (km/s) = -3.15220 3.38666 0.87553
# Velocity P-wave (km/s) = 4.24939 7.42933 6.05195
#
# Compressibility (1/GPa) = 0.01495468
#
# Stress axis : x y z
#
# Youngs Moduli (GPa) = 133.81497 66.37929 133.14276
#
# Poissons Ratio (x) = 0.21091 0.39992
# Poissons Ratio (y) = 0.42518 0.18186
# Poissons Ratio (z) = 0.40194 0.09067
#
# Static dielectric constant tensor:
#      x y z
#    x 1.769880 0.000000 0.000000 
#    y 0.000000 1.761940 0.000000 
#    z 0.000000 0.000000 1.823070 
# 
# From -- ./inp_files/13871.got.cif
#   From: 2010.05.17/outbox.cif.g08.bks.cpg/sg22_7_cif.got.tgz:13871.got - 2010.06.03 23:40:54.
