data_PCOD9326061
_publ_section_title
;
Structure prediction by ZEFSAII (Michael W. Deem and Ramdas Pophale) SiO2 
 PCOD9326061
Probable space group: F 2 2 2
;
_chemical_formula_sum "Si O2"
_cell_formula_units_Z 88
_cell_length_a 14.020376
_cell_length_b 21.634021
_cell_length_c 13.700566
_cell_angle_alpha 90.000000
_cell_angle_beta 90.000000
_cell_angle_gamma 90.000000
_cell_volume 4155.616068
_symmetry_space_group_name_H-M "F 2 2 2"
_symmetry_group_IT_number 22
_symmetry_cell_setting 'orthorhombic'
loop_
_space_group_symop_operation_xyz
x,y,z
-x,-y,z
x,-y,-z
-x,y,-z
x,1/2+y,1/2+z
-x,1/2-y,1/2+z
x,1/2-y,1/2-z
-x,1/2+y,1/2-z
1/2+x,y,1/2+z
1/2-x,-y,1/2+z
1/2+x,-y,1/2-z
1/2-x,y,1/2-z
1/2+x,1/2+y,z
1/2-x,1/2-y,z
1/2+x,1/2-y,-z
1/2-x,1/2+y,-z
loop_
_atom_site_type_symbol
_atom_site_label
_atom_site_fract_x
_atom_site_fract_y
_atom_site_fract_z
Si Si1 0.371163 0.000000 0.500000
Si Si2 0.088864 0.458991 0.193196
Si Si3 0.272938 0.430188 0.646577
Si Si4 0.364298 0.611917 0.881922
Si Si5 0.133952 0.248087 0.136762
Si Si6 0.146201 0.625240 0.959650
O O1 0.310873 0.960855 0.418813
O O2 0.415028 0.944009 0.561214
O O3 0.168944 0.509933 0.178977
O O4 0.119019 0.406488 0.269863
O O5 0.077614 0.425048 0.089699
O O6 0.000000 0.500000 0.225202
O O7 0.250000 0.398158 0.750000
O O8 0.333011 0.387499 0.572731
O O9 0.397371 0.681358 0.903149
O O10 0.251178 0.612853 0.909046
O O11 0.102474 0.250000 0.250000
O O12 0.250000 0.250000 0.138961
O O13 0.109787 0.307415 0.071675
#
# Coordination Sequence:
#
# PCOD9326061 Si02
#       6
#     8  16  16  16  16  16
#     4  10  18  30  60  76 104 144 182 228 278 338
#     4  12  21  30  50  86 116 147 186 235 285 334
#     4  11  19  33  54  79 114 153 180 231 290 341
#     4  10  18  33  54  86 110 136 184 234 284 333
#     4   9  16  27  55  86 107 129 176 240 285 321
#     4  10  19  33  55  86 113 146 183 236 287 338
#
# _framework density 21.176161
#
# number of rings (size 3 to 8) (size 9 to 14) (size 15 to 20)
#    0.000    1.636    7.273    0.545    0.000    1.455 
#    0.000    0.455    0.000   13.636   14.182    0.000 
#    0.000    0.000    0.000    0.000    0.000    0.000 
#
# Total GULP energy -122635.869980 kJ/mol
# GULP energy per Si atom -5574.357726 kJ/mol
# Density = 2.112796 g / cm^3
# Si number density = 21.176161 Si / 1000 Ang^3
#
#
#
# Elastic Constant Matrix: (Units=GPa)
#
#
# Indices 1 2 3 4 5 6 
#
# 1 20.1990 6.8751 16.8455 0.0000 0.0000 0.0000
# 2 6.8751 161.2082 56.1135 0.0000 0.0000 0.0000
# 3 16.8455 56.1135 151.8910 0.0000 0.0000 0.0000
# 4 0.0000 0.0000 0.0000 2.0079 0.0000 0.0000
# 5 0.0000 0.0000 0.0000 0.0000 3.1425 0.0000
# 6 0.0000 0.0000 0.0000 0.0000 0.0000 0.6511
#
#
#
# Elastic Compliance Matrix: (Units=1/GPa)
#
#
# Indices 1 2 3 4 5 6 
#
# 1 0.054562 -0.000253 -0.005958 0.000000 0.000000 0.000000
# 2 -0.000253 0.007120 -0.002602 0.000000 0.000000 0.000000
# 3 -0.005958 -0.002602 0.008206 0.000000 0.000000 0.000000
# 4 0.000000 0.000000 0.000000 0.498022 0.000000 0.000000
# 5 0.000000 0.000000 0.000000 0.000000 0.318223 0.000000
# 6 0.000000 0.000000 0.000000 0.000000 0.000000 1.535953
#
#
# Mechanical properties :
#
#
# Convention : Reuss Voigt Hill
#
# Bulk Modulus (GPa) = 19.13452 54.77406 36.95429
# Shear Modulus (GPa) = 2.03489 18.05790 10.04639
#
# Velocity S-wave (km/s) = 0.98134 2.92335 2.18048
# Velocity P-wave (km/s) = 3.21551 6.10874 4.88140
#
# Compressibility (1/GPa) = 0.05226156
#
# Stress axis : x y z
#
# Youngs Moduli (GPa) = 18.32770 140.45482 121.86586
#
# Poissons Ratio (x) = 0.03556 0.72604
# Poissons Ratio (y) = 0.00464 0.31712
# Poissons Ratio (z) = 0.10919 0.36549
#
# Static dielectric constant tensor:
#      x y z
#    x 1.985570 0.000000 0.000000 
#    y 0.000000 1.753260 0.000000 
#    z 0.000000 0.000000 1.851760 
# 
# From -- ./inp_files/29257.got.cif
#   From: 2010.05.17/outbox.cif.g08.bks.cpg/sg22_15_cif.got.tgz:29257.got - 2010.06.03 23:40:54.
