data_PCOD9326349
_publ_section_title
;
Structure prediction by ZEFSAII (Michael W. Deem and Ramdas Pophale) SiO2 
 PCOD9326349
Probable space group: F 2 2 2
;
_chemical_formula_sum "Si O2"
_cell_formula_units_Z 88
_cell_length_a 20.194821
_cell_length_b 7.530877
_cell_length_c 24.756328
_cell_angle_alpha 90.000000
_cell_angle_beta 90.000000
_cell_angle_gamma 90.000000
_cell_volume 3765.059039
_symmetry_space_group_name_H-M "F 2 2 2"
_symmetry_group_IT_number 22
_symmetry_cell_setting 'orthorhombic'
loop_
_space_group_symop_operation_xyz
x,y,z
-x,-y,z
x,-y,-z
-x,y,-z
x,1/2+y,1/2+z
-x,1/2-y,1/2+z
x,1/2-y,1/2-z
-x,1/2+y,1/2-z
1/2+x,y,1/2+z
1/2-x,-y,1/2+z
1/2+x,-y,1/2-z
1/2-x,y,1/2-z
1/2+x,1/2+y,z
1/2-x,1/2-y,z
1/2+x,1/2-y,-z
1/2-x,1/2+y,-z
loop_
_atom_site_type_symbol
_atom_site_label
_atom_site_fract_x
_atom_site_fract_y
_atom_site_fract_z
Si Si1 0.003198 0.699969 0.919854
Si Si2 0.642525 0.758012 0.449392
Si Si3 0.250000 0.250000 0.844446
Si Si4 0.307222 0.112011 0.335077
Si Si5 0.542273 0.323971 0.807931
Si Si6 0.355242 0.827712 0.065259
O O1 0.927475 0.756354 0.923940
O O2 0.000000 0.500000 0.941569
O O3 0.063674 0.802309 0.948082
O O4 0.025301 0.695776 0.857492
O O5 0.679078 0.860582 0.400584
O O6 0.669131 0.768147 0.510329
O O7 0.642809 0.543130 0.439864
O O8 0.278188 0.423735 0.816624
O O9 0.309647 0.198505 0.883802
O O10 0.250000 0.250000 0.321239
O O11 0.379154 0.142642 0.309811
O O12 0.500000 0.500000 0.819066
O O13 0.522858 0.250000 0.750000
#
# Coordination Sequence:
#
# PCOD9326349 Si02
#       6
#    16  16   8  16  16  16
#     4   9  18  36  61  91 127 169 213 276 335 387
#     4   9  19  34  58  88 132 180 222 272 321 388
#     4  12  24  36  62  95 128 182 219 268 320 410
#     4  11  24  45  67  95 141 182 220 274 343 401
#     4  11  24  45  72 100 128 166 223 284 349 410
#     4  10  19  32  57  94 132 174 228 266 320 392
#
# _framework density 23.372807999999999
#
# number of rings (size 3 to 8) (size 9 to 14) (size 15 to 20)
#    0.000    1.818    1.818    2.182    1.273    3.273 
#    3.273    0.000    0.000    3.273    0.000    0.000 
#    0.000    0.000    0.000    0.000    0.000    0.000 
#
# Total GULP energy -122900.379766 kJ/mol
# GULP energy per Si atom -5586.380898 kJ/mol
# Density = 2.331961 g / cm^3
# Si number density = 23.372808 Si / 1000 Ang^3
#
#
#
# Elastic Constant Matrix: (Units=GPa)
#
#
# Indices 1 2 3 4 5 6 
#
# 1 124.3803 23.5266 -5.1028 0.0000 0.0000 -0.0001
# 2 23.5266 80.2002 -1.8317 -0.0001 0.0000 -0.0001
# 3 -5.1028 -1.8317 72.7026 0.0000 0.0000 0.0000
# 4 0.0000 -0.0001 0.0000 -1.4273 0.0000 0.0000
# 5 0.0000 0.0000 0.0000 0.0000 -59.2888 0.0000
# 6 -0.0001 -0.0001 0.0000 0.0000 0.0000 20.1160
#
#
#
# Elastic Compliance Matrix: (Units=1/GPa)
#
#
# Indices 1 2 3 4 5 6 
#
# 1 0.008533 -0.002491 0.000536 0.000000 0.000000 0.000000
# 2 -0.002491 0.013203 0.000158 -0.000001 0.000000 0.000000
# 3 0.000536 0.000158 0.013796 0.000000 0.000000 0.000000
# 4 0.000000 -0.000001 0.000000 -0.700633 0.000000 0.000001
# 5 0.000000 0.000000 0.000000 0.000000 -0.016867 0.000000
# 6 0.000000 0.000000 0.000000 0.000001 0.000000 0.049712
#
#
# Mechanical properties :
#
#
# Convention : Reuss Voigt Hill
#
# Bulk Modulus (GPa) = 31.31016 34.49637 32.90327
# Shear Modulus (GPa) = -8.09041 9.25937 0.58448
#
# Velocity S-wave (km/s) = -1.86252 1.99254 0.50061
# Velocity P-wave (km/s) = 2.96644 4.48161 3.80030
#
# Compressibility (1/GPa) = 0.03193852
#
# Stress axis : x y z
#
# Youngs Moduli (GPa) = 117.19193 75.73977 72.48332
#
# Poissons Ratio (x) = 0.18866 -0.03886
# Poissons Ratio (y) = 0.29191 -0.01144
# Poissons Ratio (z) = -0.06283 -0.01195
#
# Static dielectric constant tensor:
#      x y z
#    x 1.881120 0.000000 0.000000 
#    y 0.000000 1.960490 0.000000 
#    z 0.000000 0.000000 1.872570 
# 
# From -- ./inp_files/45216.got.cif
#   From: 2010.05.17/outbox.cif.g08.bks.cpg/sg22_23_cif.got.tgz:45216.got - 2010.06.03 23:40:54.
