data_PCOD9326375
_publ_section_title
;
Structure prediction by ZEFSAII (Michael W. Deem and Ramdas Pophale) SiO2 
 PCOD9326375
Probable space group: F 2 2 2
;
_chemical_formula_sum "Si O2"
_cell_formula_units_Z 88
_cell_length_a 27.494819
_cell_length_b 27.049162
_cell_length_c 5.171553
_cell_angle_alpha 90.000000
_cell_angle_beta 90.000000
_cell_angle_gamma 90.000000
_cell_volume 3846.145059
_symmetry_space_group_name_H-M "F 2 2 2"
_symmetry_group_IT_number 22
_symmetry_cell_setting 'orthorhombic'
loop_
_space_group_symop_operation_xyz
x,y,z
-x,-y,z
x,-y,-z
-x,y,-z
x,1/2+y,1/2+z
-x,1/2-y,1/2+z
x,1/2-y,1/2-z
-x,1/2+y,1/2-z
1/2+x,y,1/2+z
1/2-x,-y,1/2+z
1/2+x,-y,1/2-z
1/2-x,y,1/2-z
1/2+x,1/2+y,z
1/2-x,1/2-y,z
1/2+x,1/2-y,-z
1/2-x,1/2+y,-z
loop_
_atom_site_type_symbol
_atom_site_label
_atom_site_fract_x
_atom_site_fract_y
_atom_site_fract_z
Si Si1 0.375789 0.218398 0.009178
Si Si2 0.196883 0.947361 0.150860
Si Si3 0.623371 0.371485 0.201504
Si Si4 0.874926 0.000000 0.500000
Si Si5 0.551542 0.928185 0.071342
Si Si6 0.953339 0.824976 0.161315
O O1 0.371579 0.250000 0.750000
O O2 0.356211 0.163721 0.931664
O O3 0.354686 0.250000 0.250000
O O4 0.431897 0.206579 0.099507
O O5 0.250000 0.933602 0.250000
O O6 0.165049 0.901454 0.046481
O O7 0.162480 0.960706 0.389743
O O8 0.200125 0.000000 0.000000
O O9 0.581900 0.406866 0.326606
O O10 0.593177 0.334504 0.020094
O O11 0.911778 0.030466 0.684294
O O12 0.537807 0.880394 0.237015
O O13 0.500000 0.949804 0.000000
O O14 0.000000 0.807699 0.000000
#
# Coordination Sequence:
#
# PCOD9326375 Si02
#       6
#    16  16  16   8  16  16
#     4  11  23  44  65  97 132 178 226 280 334 404
#     4  11  22  41  66  97 132 169 221 277 342 402
#     4  10  22  39  61  93 128 180 218 278 331 399
#     4  10  21  36  56  88 126 172 219 272 318 388
#     4  10  19  33  56  83 127 174 222 262 318 384
#     4  11  21  38  60  89 133 176 223 269 333 394
#
# _framework density 22.880051000000002
#
# number of rings (size 3 to 8) (size 9 to 14) (size 15 to 20)
#    0.000    1.455    4.545    1.364    0.000    0.000 
#    3.273    0.000    0.000    0.545    4.727    0.000 
#    0.000    0.000    0.000    0.000    0.000    0.000 
#
# Total GULP energy -122508.767100 kJ/mol
# GULP energy per Si atom -5568.580323 kJ/mol
# Density = 2.282798 g / cm^3
# Si number density = 22.880051 Si / 1000 Ang^3
#
#
#
# Elastic Constant Matrix: (Units=GPa)
#
#
# Indices 1 2 3 4 5 6 
#
# 1 114.6922 18.7839 19.9188 -0.0971 0.0324 0.0511
# 2 18.7839 71.1187 13.9345 -0.2210 0.1321 0.1066
# 3 19.9188 13.9345 74.3443 -0.2206 0.1892 -0.0179
# 4 -0.0971 -0.2210 -0.2206 -25.0686 0.1257 -0.0263
# 5 0.0324 0.1321 0.1892 0.1257 17.0126 -0.0388
# 6 0.0511 0.1066 -0.0179 -0.0263 -0.0388 10.2536
#
#
#
# Elastic Compliance Matrix: (Units=1/GPa)
#
#
# Indices 1 2 3 4 5 6 
#
# 1 0.009430 -0.002072 -0.002138 0.000001 0.000022 -0.000029
# 2 -0.002072 0.015052 -0.002266 -0.000105 -0.000087 -0.000151
# 3 -0.002138 -0.002266 0.014449 -0.000100 -0.000138 0.000059
# 4 0.000001 -0.000105 -0.000100 -0.039887 0.000296 -0.000100
# 5 0.000022 -0.000087 -0.000138 0.000296 0.058780 0.000224
# 6 -0.000029 -0.000151 0.000059 -0.000100 0.000224 0.097529
#
#
# Mechanical properties :
#
#
# Convention : Reuss Voigt Hill
#
# Bulk Modulus (GPa) = 38.49385 40.60331 39.54858
# Shear Modulus (GPa) = 28.25420 14.27406 21.26413
#
# Velocity S-wave (km/s) = 3.51790 2.50044 3.05187
# Velocity P-wave (km/s) = 5.77595 5.11087 5.45356
#
# Compressibility (1/GPa) = 0.02597817
#
# Stress axis : x y z
#
# Youngs Moduli (GPa) = 106.04882 66.43521 69.21052
#
# Poissons Ratio (x) = 0.13763 0.14799
# Poissons Ratio (y) = 0.21969 0.15686
# Poissons Ratio (z) = 0.22676 0.15057
#
# Static dielectric constant tensor:
#      x y z
#    x 1.833940 0.000190 -0.000190 
#    y 0.000190 2.105230 -0.000620 
#    z -0.000190 -0.000620 1.958720 
# 
# From -- ./inp_files/4886.got.cif
#   From: 2010.05.17/outbox.cif.g08.bks.cpg/sg22_3_cif.got.tgz:4886.got - 2010.06.03 23:40:54.
