data_PCOD9326403
_publ_section_title
;
Structure prediction by ZEFSAII (Michael W. Deem and Ramdas Pophale) SiO2 
 PCOD9326403
Probable space group: F 2 2 2
;
_chemical_formula_sum "Si O2"
_cell_formula_units_Z 120
_cell_length_a 29.337761
_cell_length_b 19.989636
_cell_length_c 11.814658
_cell_angle_alpha 90.000000
_cell_angle_beta 90.000000
_cell_angle_gamma 90.000000
_cell_volume 6928.719930
_symmetry_space_group_name_H-M "F 2 2 2"
_symmetry_group_IT_number 22
_symmetry_cell_setting 'orthorhombic'
loop_
_space_group_symop_operation_xyz
x,y,z
-x,-y,z
x,-y,-z
-x,y,-z
x,1/2+y,1/2+z
-x,1/2-y,1/2+z
x,1/2-y,1/2-z
-x,1/2+y,1/2-z
1/2+x,y,1/2+z
1/2-x,-y,1/2+z
1/2+x,-y,1/2-z
1/2-x,y,1/2-z
1/2+x,1/2+y,z
1/2-x,1/2-y,z
1/2+x,1/2-y,-z
1/2-x,1/2+y,-z
loop_
_atom_site_type_symbol
_atom_site_label
_atom_site_fract_x
_atom_site_fract_y
_atom_site_fract_z
Si Si1 0.315215 0.477255 0.849067
Si Si2 0.385220 0.628558 0.109754
Si Si3 0.857918 0.750000 0.750000
Si Si4 0.712217 0.961385 0.893491
Si Si5 0.710069 0.693471 0.557923
Si Si6 0.552043 0.497084 0.137457
Si Si7 0.375139 0.600477 0.860053
Si Si8 0.199951 0.826043 0.709036
O O1 0.335169 0.405019 0.878972
O O2 0.317903 0.479423 0.713701
O O3 0.263090 0.488833 0.877771
O O4 0.344489 0.537246 0.898678
O O5 0.386828 0.692546 0.188902
O O6 0.420205 0.571869 0.154582
O O7 0.389079 0.640437 0.974211
O O8 0.826820 0.720832 0.852231
O O9 0.720266 0.881869 0.900331
O O10 0.692245 0.000000 0.000000
O O11 0.750000 0.750000 0.556417
O O12 0.696561 0.679090 0.426908
O O13 0.500000 0.500000 0.176798
O O14 0.580063 0.561234 0.182652
O O15 0.551598 0.500000 0.000000
O O16 0.342586 0.638291 0.771501
O O17 0.199497 0.750000 0.750000
O O18 0.250000 0.854012 0.750000
#
# Coordination Sequence:
#
# PCOD9326403 Si02
#       8
#    16  16   8  16  16  16  16  16
#     4  10  20  32  45  72 100 135 185 232 276 330
#     4  10  19  34  54  83 112 145 181 235 295 347
#     4  12  23  36  54  78 118 150 202 240 285 356
#     4  11  22  32  46  68 103 142 192 238 279 319
#     4  12  24  37  51  73 108 161 202 246 281 339
#     4   8  16  34  62  93 115 137 186 241 306 365
#     4  10  20  34  58  80 110 146 183 241 295 342
#     4  11  23  37  50  73 108 155 206 233 276 338
#
# _framework density 17.319216000000001
#
# number of rings (size 3 to 8) (size 9 to 14) (size 15 to 20)
#    0.000    1.600    2.667    4.600    7.467    0.000 
#    0.000    0.000    1.467    0.000    0.000    0.933 
#    0.000    0.000    0.000    0.000    0.000    0.000 
#
# Total GULP energy -167101.670278 kJ/mol
# GULP energy per Si atom -5570.055676 kJ/mol
# Density = 1.727980 g / cm^3
# Si number density = 17.319216 Si / 1000 Ang^3
#
#
#
# Elastic Constant Matrix: (Units=GPa)
#
#
# Indices 1 2 3 4 5 6 
#
# 1 92.4278 34.3722 30.7590 0.0000 0.0000 0.0000
# 2 34.3722 94.1825 38.4882 0.0000 0.0000 0.0000
# 3 30.7590 38.4882 108.1917 0.0000 0.0000 0.0000
# 4 0.0000 0.0000 0.0000 33.4639 0.0000 0.0000
# 5 0.0000 0.0000 0.0000 0.0000 11.4803 0.0000
# 6 0.0000 0.0000 0.0000 0.0000 0.0000 15.9360
#
#
#
# Elastic Compliance Matrix: (Units=1/GPa)
#
#
# Indices 1 2 3 4 5 6 
#
# 1 0.013010 -0.003787 -0.002352 0.000000 0.000000 0.000000
# 2 -0.003787 0.013526 -0.003735 0.000000 0.000000 0.000000
# 3 -0.002352 -0.003735 0.011240 0.000000 0.000000 0.000000
# 4 0.000000 0.000000 0.000000 0.029883 0.000000 0.000000
# 5 0.000000 0.000000 0.000000 0.000000 0.087106 0.000000
# 6 0.000000 0.000000 0.000000 0.000000 0.000000 0.062751
#
#
# Mechanical properties :
#
#
# Convention : Reuss Voigt Hill
#
# Bulk Modulus (GPa) = 55.46661 55.78230 55.62446
# Shear Modulus (GPa) = 20.55298 24.92155 22.73727
#
# Velocity S-wave (km/s) = 3.44861 3.79747 3.62724
# Velocity P-wave (km/s) = 6.92480 7.17676 7.05191
#
# Compressibility (1/GPa) = 0.01802886
#
# Stress axis : x y z
#
# Youngs Moduli (GPa) = 76.86281 73.93069 88.96684
#
# Poissons Ratio (x) = 0.27998 0.20921
# Poissons Ratio (y) = 0.29109 0.33230
# Poissons Ratio (z) = 0.18075 0.27614
#
# Static dielectric constant tensor:
#      x y z
#    x 1.588550 0.000000 0.000000 
#    y 0.000000 1.629960 0.000000 
#    z 0.000000 0.000000 1.667260 
# 
# From -- ./inp_files/25533.got.cif
#   From: 2010.05.17/outbox.cif.g08.bks.cpg/sg22_13_cif.got.tgz:25533.got - 2010.06.03 23:40:54.
