data_PCOD9326117
_publ_section_title
;
Structure prediction by ZEFSAII (Michael W. Deem and Ramdas Pophale) SiO2 
 PCOD9326117
Probable space group: F 2 2 2
;
_chemical_formula_sum "Si O2"
_cell_formula_units_Z 80
_cell_length_a 21.782450
_cell_length_b 15.168328
_cell_length_c 11.552628
_cell_angle_alpha 90.000000
_cell_angle_beta 90.000000
_cell_angle_gamma 90.000000
_cell_volume 3817.026949
_symmetry_space_group_name_H-M "F 2 2 2"
_symmetry_group_IT_number 22
_symmetry_cell_setting 'orthorhombic'
loop_
_space_group_symop_operation_xyz
x,y,z
-x,-y,z
x,-y,-z
-x,y,-z
x,1/2+y,1/2+z
-x,1/2-y,1/2+z
x,1/2-y,1/2-z
-x,1/2+y,1/2-z
1/2+x,y,1/2+z
1/2-x,-y,1/2+z
1/2+x,-y,1/2-z
1/2-x,y,1/2-z
1/2+x,1/2+y,z
1/2-x,1/2-y,z
1/2+x,1/2-y,-z
1/2-x,1/2+y,-z
loop_
_atom_site_type_symbol
_atom_site_label
_atom_site_fract_x
_atom_site_fract_y
_atom_site_fract_z
Si Si1 0.142367 0.095474 0.543227
Si Si2 0.849772 0.270534 0.617822
Si Si3 0.604775 0.146773 0.282823
Si Si4 0.225924 0.345731 0.579665
Si Si5 0.015038 0.300094 0.374611
O O1 0.138368 0.179115 0.454970
O O2 0.101563 0.106710 0.656734
O O3 0.214197 0.094946 0.580488
O O4 0.126239 0.000000 0.500000
O O5 0.833754 0.250000 0.750000
O O6 0.798673 0.324751 0.549107
O O7 0.913685 0.324625 0.615848
O O8 0.612554 0.250000 0.250000
O O9 0.666936 0.122168 0.349731
O O10 0.542746 0.134890 0.356392
O O11 0.250000 0.250000 0.622740
O O12 0.014276 0.250000 0.250000
O O13 0.000000 0.255274 0.500000
#
# Coordination Sequence:
#
# PCOD9326117 Si02
#       5
#    16  16  16  16  16
#     4  11  24  39  59  98 133 166 206 267 335 385
#     4  10  20  37  61  89 127 165 220 269 318 379
#     4  11  18  35  65  92 122 163 224 265 308 381
#     4  10  19  34  60  90 123 166 218 261 304 388
#     4  10  18  32  62  96 121 157 218 277 310 364
#
# _framework density 20.958721000000001
#
# number of rings (size 3 to 8) (size 9 to 14) (size 15 to 20)
#    0.000    1.600    6.000    1.800    0.000    3.600 
#    7.200    0.000    0.000   29.400    0.000    9.800 
#    0.000    0.000    0.000    0.000    0.000    0.000 
#
# Total GULP energy -111357.926626 kJ/mol
# GULP energy per Si atom -5567.896331 kJ/mol
# Density = 2.091102 g / cm^3
# Si number density = 20.958721 Si / 1000 Ang^3
#
#
#
# Elastic Constant Matrix: (Units=GPa)
#
#
# Indices 1 2 3 4 5 6 
#
# 1 104.5007 -0.6036 29.4506 0.0000 0.0000 0.0000
# 2 -0.6036 34.0855 13.1283 0.0000 0.0000 0.0000
# 3 29.4506 13.1283 137.6542 0.0000 0.0000 0.0000
# 4 0.0000 0.0000 0.0000 9.3319 0.0000 0.0000
# 5 0.0000 0.0000 0.0000 0.0000 42.9758 0.0000
# 6 0.0000 0.0000 0.0000 0.0000 0.0000 18.5896
#
#
#
# Elastic Compliance Matrix: (Units=1/GPa)
#
#
# Indices 1 2 3 4 5 6 
#
# 1 0.010220 0.001062 -0.002288 0.000000 0.000000 0.000000
# 2 0.001062 0.030567 -0.003143 0.000000 0.000000 0.000000
# 3 -0.002288 -0.003143 0.008054 0.000000 0.000000 0.000000
# 4 0.000000 0.000000 0.000000 0.107160 0.000000 0.000000
# 5 0.000000 0.000000 0.000000 0.000000 0.023269 0.000000
# 6 0.000000 0.000000 0.000000 0.000000 0.000000 0.053793
#
#
# Mechanical properties :
#
#
# Convention : Reuss Voigt Hill
#
# Bulk Modulus (GPa) = 24.93467 40.02122 32.47795
# Shear Modulus (GPa) = 19.59493 29.79713 24.69603
#
# Velocity S-wave (km/s) = 3.06098 3.77464 3.43639
# Velocity P-wave (km/s) = 4.94122 6.17527 5.59239
#
# Compressibility (1/GPa) = 0.04010479
#
# Stress axis : x y z
#
# Youngs Moduli (GPa) = 97.84525 32.71480 124.16544
#
# Poissons Ratio (x) = -0.03475 0.28408
# Poissons Ratio (y) = -0.10393 0.39019
# Poissons Ratio (z) = 0.22386 0.10281
#
# Static dielectric constant tensor:
#      x y z
#    x 1.820830 0.000000 0.000000 
#    y 0.000000 1.602870 0.000000 
#    z 0.000000 0.000000 1.662930 
# 
# From -- ./inp_files/23564.got.cif
#   From: 2010.05.17/outbox.cif.g08.bks.cpg/sg22_12_cif.got.tgz:23564.got - 2010.06.03 23:40:54.
