data_PCOD9326263
_publ_section_title
;
Structure prediction by ZEFSAII (Michael W. Deem and Ramdas Pophale) SiO2 
 PCOD9326263
Probable space group: F 2 2 2
;
_chemical_formula_sum "Si O2"
_cell_formula_units_Z 84
_cell_length_a 5.674430
_cell_length_b 24.161641
_cell_length_c 30.821228
_cell_angle_alpha 90.000000
_cell_angle_beta 90.000000
_cell_angle_gamma 90.000000
_cell_volume 4225.699483
_symmetry_space_group_name_H-M "F 2 2 2"
_symmetry_group_IT_number 22
_symmetry_cell_setting 'orthorhombic'
loop_
_space_group_symop_operation_xyz
x,y,z
-x,-y,z
x,-y,-z
-x,y,-z
x,1/2+y,1/2+z
-x,1/2-y,1/2+z
x,1/2-y,1/2-z
-x,1/2+y,1/2-z
1/2+x,y,1/2+z
1/2-x,-y,1/2+z
1/2+x,-y,1/2-z
1/2-x,y,1/2-z
1/2+x,1/2+y,z
1/2-x,1/2-y,z
1/2+x,1/2-y,-z
1/2-x,1/2+y,-z
loop_
_atom_site_type_symbol
_atom_site_label
_atom_site_fract_x
_atom_site_fract_y
_atom_site_fract_z
Si Si1 0.500000 0.000000 0.366867
Si Si2 0.043552 0.339379 0.688901
Si Si3 0.750000 0.082019 0.750000
Si Si4 0.910074 0.069204 0.323078
Si Si5 0.250000 0.750000 0.250000
Si Si6 0.251123 0.814929 0.974387
Si Si7 0.793793 0.111843 0.889981
O O1 0.284735 0.976516 0.337064
O O2 0.557119 0.945032 0.394252
O O3 0.286656 0.372619 0.687752
O O4 0.087607 0.285022 0.716881
O O5 0.877460 0.379357 0.715798
O O6 0.931600 0.343817 0.640954
O O7 0.554289 0.054234 0.779898
O O8 0.071565 0.086522 0.363890
O O9 0.250000 0.750000 0.960788
O O10 0.257524 0.856939 0.934153
O O11 0.500000 0.822575 0.000000
O O12 0.000000 0.823492 0.000000
#
# Coordination Sequence:
#
# PCOD9326263 Si02
#       7
#     8  16   8  16   4  16  16
#     4  10  22  40  69  94 132 178 228 286 346 417
#     4  10  22  36  60  86 134 173 227 274 334 395
#     4  10  18  39  60  83 130 175 228 279 332 382
#     4  10  20  39  64  89 127 180 226 284 335 405
#     4  12  20  38  56  94 138 182 228 290 326 386
#     4  10  24  47  76 110 143 176 222 284 348 430
#     4  10  23  42  71  95 132 180 224 277 351 416
#
# _framework density 19.878364999999999
#
# number of rings (size 3 to 8) (size 9 to 14) (size 15 to 20)
#    0.000    1.905    1.905    0.571    5.333    1.905 
#    1.714    0.476  150.857    0.000    0.000    0.000 
#    0.000    0.000    0.000    0.000    0.000    0.000 
#
# Total GULP energy -116965.673035 kJ/mol
# GULP energy per Si atom -5569.793954 kJ/mol
# Density = 1.983312 g / cm^3
# Si number density = 19.878365 Si / 1000 Ang^3
#
#
#
# Elastic Constant Matrix: (Units=GPa)
#
#
# Indices 1 2 3 4 5 6 
#
# 1 107.6431 44.3239 53.5120 0.0000 0.0000 0.0000
# 2 44.3239 114.5372 72.4902 0.0000 0.0000 0.0000
# 3 53.5120 72.4902 118.3796 0.0000 0.0000 0.0000
# 4 0.0000 0.0000 0.0000 15.8663 0.0000 0.0000
# 5 0.0000 0.0000 0.0000 0.0000 18.8742 0.0000
# 6 0.0000 0.0000 0.0000 0.0000 0.0000 168.6098
#
#
#
# Elastic Compliance Matrix: (Units=1/GPa)
#
#
# Indices 1 2 3 4 5 6 
#
# 1 0.012262 -0.002020 -0.004306 0.000000 0.000000 0.000000
# 2 -0.002020 0.014588 -0.008020 0.000000 0.000000 0.000000
# 3 -0.004306 -0.008020 0.015305 0.000000 0.000000 0.000000
# 4 0.000000 0.000000 0.000000 0.063027 0.000000 0.000000
# 5 0.000000 0.000000 0.000000 0.000000 0.052982 0.000000
# 6 0.000000 0.000000 0.000000 0.000000 0.000000 0.005931
#
#
# Mechanical properties :
#
#
# Convention : Reuss Voigt Hill
#
# Bulk Modulus (GPa) = 74.27558 75.69024 74.98291
# Shear Modulus (GPa) = 25.34518 52.01898 38.68208
#
# Velocity S-wave (km/s) = 3.57461 5.12108 4.41607
# Velocity P-wave (km/s) = 7.38128 8.55141 7.98780
#
# Compressibility (1/GPa) = 0.01346338
#
# Stress axis : x y z
#
# Youngs Moduli (GPa) = 81.55009 68.54739 65.33767
#
# Poissons Ratio (x) = 0.13847 0.28135
# Poissons Ratio (y) = 0.16473 0.52402
# Poissons Ratio (z) = 0.35116 0.54976
#
# Static dielectric constant tensor:
#      x y z
#    x 1.856950 0.000000 0.000000 
#    y 0.000000 1.713300 0.000000 
#    z 0.000000 0.000000 1.599300 
# 
# From -- ./inp_files/55016.got.cif
#   From: 2010.05.17/outbox.cif.g08.bks.cpg/sg22_28_cif.got.tgz:55016.got - 2010.06.03 23:40:54.
