data_PCOD9326382
_publ_section_title
;
Structure prediction by ZEFSAII (Michael W. Deem and Ramdas Pophale) SiO2 
 PCOD9326382
Probable space group: F 2 2 2
;
_chemical_formula_sum "Si O2"
_cell_formula_units_Z 64
_cell_length_a 26.972142
_cell_length_b 5.040370
_cell_length_c 25.326681
_cell_angle_alpha 90.000000
_cell_angle_beta 90.000000
_cell_angle_gamma 90.000000
_cell_volume 3443.151528
_symmetry_space_group_name_H-M "F 2 2 2"
_symmetry_group_IT_number 22
_symmetry_cell_setting 'orthorhombic'
loop_
_space_group_symop_operation_xyz
x,y,z
-x,-y,z
x,-y,-z
-x,y,-z
x,1/2+y,1/2+z
-x,1/2-y,1/2+z
x,1/2-y,1/2-z
-x,1/2+y,1/2-z
1/2+x,y,1/2+z
1/2-x,-y,1/2+z
1/2+x,-y,1/2-z
1/2-x,y,1/2-z
1/2+x,1/2+y,z
1/2-x,1/2-y,z
1/2+x,1/2-y,-z
1/2-x,1/2+y,-z
loop_
_atom_site_type_symbol
_atom_site_label
_atom_site_fract_x
_atom_site_fract_y
_atom_site_fract_z
Si Si1 0.302360 0.881347 0.052549
Si Si2 0.000000 0.000000 0.711974
Si Si3 0.750000 0.250000 0.635658
Si Si4 0.891190 0.386972 0.808129
Si Si5 0.661754 0.596169 0.850975
O O1 0.250000 0.750000 0.035592
O O2 0.333130 0.678387 0.087828
O O3 0.286611 0.095511 0.096406
O O4 0.325680 0.000000 0.000000
O O5 0.006822 0.250000 0.750000
O O6 0.948134 0.033708 0.682403
O O7 0.784559 0.466028 0.665029
O O8 0.886692 0.250000 0.750000
O O9 0.856846 0.646665 0.817936
O O10 0.875826 0.144808 0.844954
#
# Coordination Sequence:
#
# PCOD9326382 Si02
#       5
#    16   8   8  16  16
#     4  10  19  33  59  82 116 154 196 246 291 321
#     4  10  20  38  64  90 107 140 195 256 302 338
#     4  10  20  38  55  84 122 150 199 234 282 330
#     4  11  22  39  61  85 118 152 192 245 298 345
#     4  11  22  36  58  86 122 154 191 241 281 354
#
# _framework density 18.587622
#
# number of rings (size 3 to 8) (size 9 to 14) (size 15 to 20)
#    0.000    1.500    3.750    3.750    0.000    0.000 
#    0.000    0.625   11.000    0.000    0.000    0.875 
#    7.500    0.000    0.000    0.000    0.000    0.000 
#
# Total GULP energy -89173.208141 kJ/mol
# GULP energy per Si atom -5573.325509 kJ/mol
# Density = 1.854532 g / cm^3
# Si number density = 18.587622 Si / 1000 Ang^3
#
#
#
# Elastic Constant Matrix: (Units=GPa)
#
#
# Indices 1 2 3 4 5 6 
#
# 1 105.2079 68.0067 60.7230 -0.0014 -0.0074 0.0009
# 2 68.0067 149.9947 39.1315 0.0015 -0.0213 0.0120
# 3 60.7230 39.1315 52.4839 0.0027 0.0032 0.0029
# 4 -0.0014 0.0015 0.0027 38.1966 0.0072 0.0028
# 5 -0.0074 -0.0213 0.0032 0.0072 -40.2733 -0.0024
# 6 0.0009 0.0120 0.0029 0.0028 -0.0024 38.0082
#
#
#
# Elastic Compliance Matrix: (Units=1/GPa)
#
#
# Indices 1 2 3 4 5 6 
#
# 1 0.032600 -0.006134 -0.033144 0.000004 -0.000005 0.000004
# 2 -0.006134 0.009431 0.000065 -0.000001 -0.000004 -0.000003
# 3 -0.033144 0.000065 0.057352 -0.000005 0.000011 -0.000004
# 4 0.000004 -0.000001 -0.000005 0.026180 0.000005 -0.000002
# 5 -0.000005 -0.000004 0.000011 0.000005 -0.024830 -0.000002
# 6 0.000004 -0.000003 -0.000004 -0.000002 -0.000002 0.026310
#
#
# Mechanical properties :
#
#
# Convention : Reuss Voigt Hill
#
# Bulk Modulus (GPa) = 47.71639 71.48987 59.60313
# Shear Modulus (GPa) = 23.53458 16.50800 20.02129
#
# Velocity S-wave (km/s) = 3.56215 2.98336 3.28553
# Velocity P-wave (km/s) = 6.53034 7.10013 6.82118
#
# Compressibility (1/GPa) = 0.02095716
#
# Stress axis : x y z
#
# Youngs Moduli (GPa) = 30.67531 106.03413 17.43621
#
# Poissons Ratio (x) = 0.65038 0.57790
# Poissons Ratio (y) = 0.18815 -0.00113
# Poissons Ratio (z) = 1.01670 -0.00689
#
# Static dielectric constant tensor:
#      x y z
#    x 1.692620 0.000000 0.000000 
#    y 0.000000 1.752300 -0.000010 
#    z 0.000000 -0.000010 1.664750 
# 
# From -- ./inp_files/54267.got.cif
#   From: 2010.05.17/outbox.cif.g08.bks.cpg/sg22_28_cif.got.tgz:54267.got - 2010.06.03 23:40:54.
