data_PCOD9326994
_publ_section_title
;
Structure prediction by ZEFSAII (Michael W. Deem and Ramdas Pophale) SiO2 
 PCOD9326994
Probable space group: F 2 2 2
;
_chemical_formula_sum "Si O2"
_cell_formula_units_Z 72
_cell_length_a 12.324129
_cell_length_b 10.745316
_cell_length_c 25.363672
_cell_angle_alpha 90.000000
_cell_angle_beta 90.000000
_cell_angle_gamma 90.000000
_cell_volume 3358.826382
_symmetry_space_group_name_H-M "F 2 2 2"
_symmetry_group_IT_number 22
_symmetry_cell_setting 'orthorhombic'
loop_
_space_group_symop_operation_xyz
x,y,z
-x,-y,z
x,-y,-z
-x,y,-z
x,1/2+y,1/2+z
-x,1/2-y,1/2+z
x,1/2-y,1/2-z
-x,1/2+y,1/2-z
1/2+x,y,1/2+z
1/2-x,-y,1/2+z
1/2+x,-y,1/2-z
1/2-x,y,1/2-z
1/2+x,1/2+y,z
1/2-x,1/2-y,z
1/2+x,1/2-y,-z
1/2-x,1/2+y,-z
loop_
_atom_site_type_symbol
_atom_site_label
_atom_site_fract_x
_atom_site_fract_y
_atom_site_fract_z
Si Si1 0.641021 0.693968 0.958566
Si Si2 0.500000 0.000000 0.858179
Si Si3 0.587545 0.281380 0.576376
Si Si4 0.374992 0.976215 0.611698
Si Si5 0.214090 0.105986 0.691690
O O1 0.750000 0.750000 0.936113
O O2 0.538353 0.743182 0.927259
O O3 0.638815 0.546722 0.945143
O O4 0.628611 0.755813 0.016618
O O5 0.577105 0.085750 0.896011
O O6 0.412317 0.077750 0.823149
O O7 0.644108 0.170593 0.607911
O O8 0.500000 0.000000 0.627735
O O9 0.290625 0.036041 0.650606
O O10 0.250000 0.062338 0.750000
O O11 0.250000 0.250000 0.689166
#
# Coordination Sequence:
#
# PCOD9326994 Si02
#       5
#    16   8  16  16  16
#     4  10  20  37  63  97 137 189 227 277 355 430
#     4  12  26  47  70 104 146 188 243 298 376 442
#     4  10  23  39  61  99 140 181 232 288 345 435
#     4  10  20  40  69  97 137 179 238 296 355 427
#     4  11  26  48  75 103 138 190 239 306 383 433
#
# _framework density 21.436060000000001
#
# number of rings (size 3 to 8) (size 9 to 14) (size 15 to 20)
#    0.000    1.556    0.000    5.333    4.667    4.444 
#    4.000    1.111    0.000    0.000    0.000    0.000 
#    0.000    0.000    0.000    0.000    0.000    0.000 
#
# Total GULP energy -100341.945497 kJ/mol
# GULP energy per Si atom -5574.552528 kJ/mol
# Density = 2.138727 g / cm^3
# Si number density = 21.436060 Si / 1000 Ang^3
#
#
#
# Elastic Constant Matrix: (Units=GPa)
#
#
# Indices 1 2 3 4 5 6 
#
# 1 127.1314 31.7653 38.3178 0.0000 0.0000 0.0000
# 2 31.7653 114.6562 43.0047 0.0000 0.0000 0.0000
# 3 38.3178 43.0047 121.1774 0.0000 0.0000 0.0000
# 4 0.0000 0.0000 0.0000 23.3038 0.0000 0.0000
# 5 0.0000 0.0000 0.0000 0.0000 55.6301 0.0000
# 6 0.0000 0.0000 0.0000 0.0000 0.0000 33.0405
#
#
#
# Elastic Compliance Matrix: (Units=1/GPa)
#
#
# Indices 1 2 3 4 5 6 
#
# 1 0.008953 -0.001636 -0.002250 0.000000 0.000000 0.000000
# 2 -0.001636 0.010360 -0.003159 0.000000 0.000000 0.000000
# 3 -0.002250 -0.003159 0.010085 0.000000 0.000000 0.000000
# 4 0.000000 0.000000 0.000000 0.042911 0.000000 0.000000
# 5 0.000000 0.000000 0.000000 0.000000 0.017976 0.000000
# 6 0.000000 0.000000 0.000000 0.000000 0.000000 0.030266
#
#
# Mechanical properties :
#
#
# Convention : Reuss Voigt Hill
#
# Bulk Modulus (GPa) = 65.33257 65.46008 65.39633
# Shear Modulus (GPa) = 35.77940 39.05338 37.41639
#
# Velocity S-wave (km/s) = 4.08992 4.27295 4.18244
# Velocity P-wave (km/s) = 7.26962 7.41268 7.34150
#
# Compressibility (1/GPa) = 0.01530630
#
# Stress axis : x y z
#
# Youngs Moduli (GPa) = 111.69447 96.52483 99.15595
#
# Poissons Ratio (x) = 0.15795 0.22313
# Poissons Ratio (y) = 0.18277 0.31326
# Poissons Ratio (z) = 0.25135 0.30494
#
# Static dielectric constant tensor:
#      x y z
#    x 1.864110 0.000000 0.000000 
#    y 0.000000 1.855450 0.000000 
#    z 0.000000 0.000000 1.817660 
# 
# From -- ./inp_files/52461.got.cif
#   From: 2010.05.17/outbox.cif.g08.bks.cpg/sg22_27_cif.got.tgz:52461.got - 2010.06.03 23:40:54.
