data_PCOD9326081
_publ_section_title
;
Structure prediction by ZEFSAII (Michael W. Deem and Ramdas Pophale) SiO2 
 PCOD9326081
Probable space group: F 2 2 2
;
_chemical_formula_sum "Si O2"
_cell_formula_units_Z 72
_cell_length_a 15.139540
_cell_length_b 23.827079
_cell_length_c 7.991138
_cell_angle_alpha 90.000000
_cell_angle_beta 90.000000
_cell_angle_gamma 90.000000
_cell_volume 2882.651327
_symmetry_space_group_name_H-M "F 2 2 2"
_symmetry_group_IT_number 22
_symmetry_cell_setting 'orthorhombic'
loop_
_space_group_symop_operation_xyz
x,y,z
-x,-y,z
x,-y,-z
-x,y,-z
x,1/2+y,1/2+z
-x,1/2-y,1/2+z
x,1/2-y,1/2-z
-x,1/2+y,1/2-z
1/2+x,y,1/2+z
1/2-x,-y,1/2+z
1/2+x,-y,1/2-z
1/2-x,y,1/2-z
1/2+x,1/2+y,z
1/2-x,1/2-y,z
1/2+x,1/2-y,-z
1/2-x,1/2+y,-z
loop_
_atom_site_type_symbol
_atom_site_label
_atom_site_fract_x
_atom_site_fract_y
_atom_site_fract_z
Si Si1 0.631047 0.913786 0.593603
Si Si2 0.302800 0.379875 0.425429
Si Si3 0.346467 0.260848 0.446444
Si Si4 0.500000 0.171883 0.500000
Si Si5 0.098507 0.978372 0.739569
O O1 0.723251 0.884166 0.555766
O O2 0.548717 0.872034 0.627835
O O3 0.605474 0.944393 0.416260
O O4 0.645872 0.962843 0.725166
O O5 0.250000 0.368201 0.250000
O O6 0.364420 0.327006 0.467148
O O7 0.356334 0.437007 0.392454
O O8 0.338529 0.250000 0.250000
O O9 0.250000 0.250000 0.524160
O O10 0.419892 0.215852 0.489681
O O11 0.000000 0.000000 0.704777
#
# Coordination Sequence:
#
# PCOD9326081 Si02
#       5
#    16  16  16   8  16
#     4  10  18  32  56  94 112 150 201 243 286 348
#     4  10  19  34  58  85 119 153 197 237 293 352
#     4  11  20  35  60  91 115 156 200 247 292 351
#     4  12  20  33  64  92 117 154 206 248 288 354
#     4  10  18  31  58  86 112 147 192 245 286 342
#
# _framework density 24.977005999999999
#
# number of rings (size 3 to 8) (size 9 to 14) (size 15 to 20)
#    0.000    1.556    6.667    2.000    0.000    0.000 
#    0.000    0.000   24.444    0.667    0.000    0.000 
#    0.000    0.000    0.000    0.000    0.000    0.000 
#
# Total GULP energy -100430.104997 kJ/mol
# GULP energy per Si atom -5579.450278 kJ/mol
# Density = 2.492016 g / cm^3
# Si number density = 24.977006 Si / 1000 Ang^3
#
#
#
# Elastic Constant Matrix: (Units=GPa)
#
#
# Indices 1 2 3 4 5 6 
#
# 1 125.0383 86.8551 10.0554 0.0000 0.0000 0.0000
# 2 86.8551 224.2254 24.9128 0.0000 0.0000 0.0000
# 3 10.0554 24.9128 52.9602 0.0000 0.0000 0.0000
# 4 0.0000 0.0000 0.0000 -3.8382 0.0000 0.0000
# 5 0.0000 0.0000 0.0000 0.0000 1.0333 0.0000
# 6 0.0000 0.0000 0.0000 0.0000 0.0000 76.7317
#
#
#
# Elastic Compliance Matrix: (Units=1/GPa)
#
#
# Indices 1 2 3 4 5 6 
#
# 1 0.010942 -0.004229 -0.000088 0.000000 0.000000 0.000000
# 2 -0.004229 0.006340 -0.002179 0.000000 0.000000 0.000000
# 3 -0.000088 -0.002179 0.019924 0.000000 0.000000 0.000000
# 4 0.000000 0.000000 0.000000 -0.260536 0.000000 0.000000
# 5 0.000000 0.000000 0.000000 0.000000 0.967759 0.000000
# 6 0.000000 0.000000 0.000000 0.000000 0.000000 0.013032
#
#
# Mechanical properties :
#
#
# Convention : Reuss Voigt Hill
#
# Bulk Modulus (GPa) = 41.29990 71.76340 56.53165
# Shear Modulus (GPa) = 6.42240 33.47873 19.95057
#
# Velocity S-wave (km/s) = 1.60527 3.66509 2.82930
# Velocity P-wave (km/s) = 4.47291 6.83409 5.77545
#
# Compressibility (1/GPa) = 0.02421313
#
# Stress axis : x y z
#
# Youngs Moduli (GPa) = 91.39119 157.73026 50.19043
#
# Poissons Ratio (x) = 0.66698 0.00443
# Poissons Ratio (y) = 0.38646 0.10939
# Poissons Ratio (z) = 0.00807 0.34377
#
# Static dielectric constant tensor:
#      x y z
#    x 2.067890 0.000000 0.000000 
#    y 0.000000 2.126800 0.000000 
#    z 0.000000 0.000000 2.037290 
# 
# From -- ./inp_files/19748.got.cif
#   From: 2010.05.17/outbox.cif.g08.bks.cpg/sg22_10_cif.got.tgz:19748.got - 2010.06.03 23:40:54.
