data_PCOD9326200
_publ_section_title
;
Structure prediction by ZEFSAII (Michael W. Deem and Ramdas Pophale) SiO2 
 PCOD9326200
Probable space group: F 2 2 2
;
_chemical_formula_sum "Si O2"
_cell_formula_units_Z 116
_cell_length_a 14.022575
_cell_length_b 22.552295
_cell_length_c 19.880378
_cell_angle_alpha 90.000000
_cell_angle_beta 90.000000
_cell_angle_gamma 90.000000
_cell_volume 6286.995551
_symmetry_space_group_name_H-M "F 2 2 2"
_symmetry_group_IT_number 22
_symmetry_cell_setting 'orthorhombic'
loop_
_space_group_symop_operation_xyz
x,y,z
-x,-y,z
x,-y,-z
-x,y,-z
x,1/2+y,1/2+z
-x,1/2-y,1/2+z
x,1/2-y,1/2-z
-x,1/2+y,1/2-z
1/2+x,y,1/2+z
1/2-x,-y,1/2+z
1/2+x,-y,1/2-z
1/2-x,y,1/2-z
1/2+x,1/2+y,z
1/2-x,1/2-y,z
1/2+x,1/2-y,-z
1/2-x,1/2+y,-z
loop_
_atom_site_type_symbol
_atom_site_label
_atom_site_fract_x
_atom_site_fract_y
_atom_site_fract_z
Si Si1 0.848927 0.523574 0.425711
Si Si2 0.254005 0.857671 0.602275
Si Si3 0.351222 0.302374 0.620604
Si Si4 0.942908 0.807224 0.348066
Si Si5 0.823930 0.179122 0.041643
Si Si6 0.250000 0.750000 0.250000
Si Si7 0.954855 0.586597 0.605597
Si Si8 0.928765 0.326846 0.690131
O O1 0.829323 0.500000 0.500000
O O2 0.768721 0.571393 0.406447
O O3 0.878280 0.465824 0.381807
O O4 0.949056 0.559108 0.425168
O O5 0.148285 0.833578 0.614323
O O6 0.295932 0.824887 0.536076
O O7 0.323356 0.842649 0.664309
O O8 0.456023 0.328832 0.623612
O O9 0.268473 0.340263 0.585589
O O10 0.351262 0.242912 0.573436
O O11 0.316772 0.285370 0.696607
O O12 0.950265 0.735582 0.346459
O O13 0.931356 0.821774 0.269627
O O14 0.907128 0.133477 0.056294
O O15 0.993857 0.624449 0.667997
#
# Coordination Sequence:
#
# PCOD9326200 Si02
#       8
#    16  16  16  16  16   4  16  16
#     4  10  20  34  60  91 113 149 198 266 315 345
#     4  11  23  36  56  88 127 157 199 247 307 371
#     4  10  22  35  57  85 126 161 202 237 302 371
#     4  11  22  39  56  86 128 172 194 230 305 391
#     4  10  21  35  53  91 120 150 191 254 305 350
#     4   8  16  36  60  80 118 160 206 248 280 348
#     4  10  18  35  60  90 114 142 201 266 306 334
#     4  10  22  35  61  87 120 164 202 243 298 379
#
# _framework density 18.450785
#
# number of rings (size 3 to 8) (size 9 to 14) (size 15 to 20)
#    0.000    1.931    2.759    2.483    7.724    1.655 
#    0.000    0.000    0.000   12.414    0.000    0.000 
#    0.000    0.000    0.000    0.000    0.000    0.000 
#
# Total GULP energy -161656.246875 kJ/mol
# GULP energy per Si atom -5574.353341 kJ/mol
# Density = 1.840879 g / cm^3
# Si number density = 18.450785 Si / 1000 Ang^3
#
#
#
# Elastic Constant Matrix: (Units=GPa)
#
#
# Indices 1 2 3 4 5 6 
#
# 1 99.2643 25.9128 38.8066 0.0000 0.0000 0.0000
# 2 25.9128 70.8452 25.4549 0.0000 0.0000 0.0000
# 3 38.8066 25.4549 55.4935 0.0000 0.0000 0.0000
# 4 0.0000 0.0000 0.0000 21.8951 0.0000 0.0000
# 5 0.0000 0.0000 0.0000 0.0000 22.8406 0.0000
# 6 0.0000 0.0000 0.0000 0.0000 0.0000 20.4880
#
#
#
# Elastic Compliance Matrix: (Units=1/GPa)
#
#
# Indices 1 2 3 4 5 6 
#
# 1 0.014082 -0.001931 -0.008962 0.000000 0.000000 0.000000
# 2 -0.001931 0.017165 -0.006524 0.000000 0.000000 0.000000
# 3 -0.008962 -0.006524 0.027280 0.000000 0.000000 0.000000
# 4 0.000000 0.000000 0.000000 0.045672 0.000000 0.000000
# 5 0.000000 0.000000 0.000000 0.000000 0.043782 0.000000
# 6 0.000000 0.000000 0.000000 0.000000 0.000000 0.048809
#
#
# Mechanical properties :
#
#
# Convention : Reuss Voigt Hill
#
# Bulk Modulus (GPa) = 42.20395 45.10573 43.65484
# Shear Modulus (GPa) = 20.87509 22.07332 21.47420
#
# Velocity S-wave (km/s) = 3.36727 3.46256 3.41525
# Velocity P-wave (km/s) = 6.16777 6.36281 6.26605
#
# Compressibility (1/GPa) = 0.02369447
#
# Stress axis : x y z
#
# Youngs Moduli (GPa) = 71.01465 58.25659 36.65752
#
# Poissons Ratio (x) = 0.11247 0.32851
# Poissons Ratio (y) = 0.13710 0.23914
# Poissons Ratio (z) = 0.63641 0.38005
#
# Static dielectric constant tensor:
#      x y z
#    x 1.659360 0.000000 0.000000 
#    y 0.000000 1.692630 0.000000 
#    z 0.000000 0.000000 1.633150 
# 
# From -- ./inp_files/37387.got.cif
#   From: 2010.05.17/outbox.cif.g08.bks.cpg/sg22_19_cif.got.tgz:37387.got - 2010.06.03 23:40:54.
