data_PCOD9326987
_publ_section_title
;
Structure prediction by ZEFSAII (Michael W. Deem and Ramdas Pophale) SiO2 
 PCOD9326987
Probable space group: F 2 2 2
;
_chemical_formula_sum "Si O2"
_cell_formula_units_Z 112
_cell_length_a 14.529856
_cell_length_b 27.498280
_cell_length_c 13.635081
_cell_angle_alpha 90.000000
_cell_angle_beta 90.000000
_cell_angle_gamma 90.000000
_cell_volume 5447.842737
_symmetry_space_group_name_H-M "F 2 2 2"
_symmetry_group_IT_number 22
_symmetry_cell_setting 'orthorhombic'
loop_
_space_group_symop_operation_xyz
x,y,z
-x,-y,z
x,-y,-z
-x,y,-z
x,1/2+y,1/2+z
-x,1/2-y,1/2+z
x,1/2-y,1/2-z
-x,1/2+y,1/2-z
1/2+x,y,1/2+z
1/2-x,-y,1/2+z
1/2+x,-y,1/2-z
1/2-x,y,1/2-z
1/2+x,1/2+y,z
1/2-x,1/2-y,z
1/2+x,1/2-y,-z
1/2-x,1/2+y,-z
loop_
_atom_site_type_symbol
_atom_site_label
_atom_site_fract_x
_atom_site_fract_y
_atom_site_fract_z
Si Si1 0.579062 0.825702 0.574184
Si Si2 0.406648 0.153963 0.057563
Si Si3 0.469953 0.555061 0.255441
Si Si4 0.069560 0.654409 0.715721
Si Si5 0.215341 0.700136 0.572716
Si Si6 0.874551 0.554325 0.961316
Si Si7 0.799612 0.087249 0.147983
O O1 0.500000 0.844436 0.500000
O O2 0.517619 0.816096 0.670010
O O3 0.639660 0.787793 0.512267
O O4 0.652785 0.866681 0.599168
O O5 0.416228 0.167083 0.171416
O O6 0.307242 0.175763 0.028387
O O7 0.500000 0.168783 0.000000
O O8 0.394244 0.096019 0.040269
O O9 0.500000 0.500000 0.261763
O O10 0.538665 0.597351 0.217994
O O11 0.433276 0.567602 0.364350
O O12 0.383538 0.554393 0.182593
O O13 0.159075 0.666764 0.650026
O O14 0.250000 0.750000 0.619907
O O15 0.770517 0.560412 0.923173
O O16 0.891864 0.500000 0.000000
O O17 0.750000 0.102010 0.250000
#
# Coordination Sequence:
#
# PCOD9326987 Si02
#       7
#    16  16  16  16  16  16  16
#     4   9  19  40  67  88 121 165 214 273 342 401
#     4  12  24  40  64  98 130 178 224 273 335 405
#     4  10  20  37  62  94 134 178 229 275 336 403
#     4  10  22  40  67  95 131 176 219 279 345 394
#     4  11  25  45  69  96 130 174 224 287 353 412
#     4  11  22  36  61  92 136 179 232 277 336 396
#     4   9  19  37  59  87 120 177 219 271 332 400
#
# _framework density 20.558596999999999
#
# number of rings (size 3 to 8) (size 9 to 14) (size 15 to 20)
#    0.000    1.714    2.857    1.286    0.000    4.000 
#    2.571    2.857    0.000    3.000    0.000    0.000 
#    0.000    0.000    0.000    0.000    0.000    0.000 
#
# Total GULP energy -156073.867175 kJ/mol
# GULP energy per Si atom -5574.066685 kJ/mol
# Density = 2.051180 g / cm^3
# Si number density = 20.558597 Si / 1000 Ang^3
#
#
#
# Elastic Constant Matrix: (Units=GPa)
#
#
# Indices 1 2 3 4 5 6 
#
# 1 116.4202 27.5511 28.7141 0.0000 0.0000 0.0000
# 2 27.5511 47.9262 6.8586 0.0000 0.0000 0.0000
# 3 28.7141 6.8586 75.1828 0.0000 0.0000 0.0000
# 4 0.0000 0.0000 0.0000 145.2754 0.0000 0.0000
# 5 0.0000 0.0000 0.0000 0.0000 36.8535 0.0000
# 6 0.0000 0.0000 0.0000 0.0000 0.0000 18.0224
#
#
#
# Elastic Compliance Matrix: (Units=1/GPa)
#
#
# Indices 1 2 3 4 5 6 
#
# 1 0.010833 -0.005710 -0.003616 0.000000 0.000000 0.000000
# 2 -0.005710 0.024151 -0.000022 0.000000 0.000000 0.000000
# 3 -0.003616 -0.000022 0.014684 0.000000 0.000000 0.000000
# 4 0.000000 0.000000 0.000000 0.006883 0.000000 0.000000
# 5 0.000000 0.000000 0.000000 0.000000 0.027134 0.000000
# 6 0.000000 0.000000 0.000000 0.000000 0.000000 0.055486
#
#
# Mechanical properties :
#
#
# Convention : Reuss Voigt Hill
#
# Bulk Modulus (GPa) = 32.28876 40.64184 36.46530
# Shear Modulus (GPa) = 29.72770 51.79063 40.75916
#
# Velocity S-wave (km/s) = 3.80675 5.02458 4.45745
# Velocity P-wave (km/s) = 5.92129 7.31256 6.65339
#
# Compressibility (1/GPa) = 0.03097053
#
# Stress axis : x y z
#
# Youngs Moduli (GPa) = 92.31235 41.40608 68.10061
#
# Poissons Ratio (x) = 0.23642 0.24628
# Poissons Ratio (y) = 0.52709 0.00153
# Poissons Ratio (z) = 0.33384 0.00093
#
# Static dielectric constant tensor:
#      x y z
#    x 1.758430 0.000000 0.000000 
#    y 0.000000 1.733280 0.000000 
#    z 0.000000 0.000000 1.796060 
# 
# From -- ./inp_files/29749.got.cif
#   From: 2010.05.17/outbox.cif.g08.bks.cpg/sg22_15_cif.got.tgz:29749.got - 2010.06.03 23:40:54.
