data_PCOD9326311
_publ_section_title
;
Structure prediction by ZEFSAII (Michael W. Deem and Ramdas Pophale) SiO2 
 PCOD9326311
Probable space group: F 2 2 2
;
_chemical_formula_sum "Si O2"
_cell_formula_units_Z 104
_cell_length_a 21.149624
_cell_length_b 14.142757
_cell_length_c 18.713391
_cell_angle_alpha 90.000000
_cell_angle_beta 90.000000
_cell_angle_gamma 90.000000
_cell_volume 5597.437102
_symmetry_space_group_name_H-M "F 2 2 2"
_symmetry_group_IT_number 22
_symmetry_cell_setting 'orthorhombic'
loop_
_space_group_symop_operation_xyz
x,y,z
-x,-y,z
x,-y,-z
-x,y,-z
x,1/2+y,1/2+z
-x,1/2-y,1/2+z
x,1/2-y,1/2-z
-x,1/2+y,1/2-z
1/2+x,y,1/2+z
1/2-x,-y,1/2+z
1/2+x,-y,1/2-z
1/2-x,y,1/2-z
1/2+x,1/2+y,z
1/2-x,1/2-y,z
1/2+x,1/2-y,-z
1/2-x,1/2+y,-z
loop_
_atom_site_type_symbol
_atom_site_label
_atom_site_fract_x
_atom_site_fract_y
_atom_site_fract_z
Si Si1 0.729924 0.354270 0.935556
Si Si2 0.638029 0.101379 0.977404
Si Si3 0.603645 0.928129 0.434291
Si Si4 0.680568 0.269007 0.082416
Si Si5 0.462416 0.231585 0.068497
Si Si6 0.000000 0.000000 0.825172
Si Si7 0.436908 0.309157 0.819119
O O1 0.750000 0.250000 0.908458
O O2 0.793213 0.413551 0.942242
O O3 0.671488 0.405457 0.899608
O O4 0.701073 0.334185 0.014948
O O5 0.593337 0.156391 0.921771
O O6 0.652152 0.173922 0.043843
O O7 0.612166 0.000000 0.000000
O O8 0.571035 0.829145 0.455962
O O9 0.556790 0.968715 0.376174
O O10 0.607726 0.000000 0.500000
O O11 0.750000 0.250000 0.117543
O O12 0.626132 0.314653 0.131277
O O13 0.509674 0.256679 0.132390
O O14 0.500000 0.194525 0.000000
O O15 0.970161 0.905892 0.791292
O O16 0.419431 0.250000 0.750000
#
# Coordination Sequence:
#
# PCOD9326311 Si02
#       7
#    16  16  16  16  16   8  16
#     4   9  16  30  51  81 121 147 172 229 290 327
#     4  10  19  31  50  84 114 147 189 222 276 339
#     4  11  17  28  54  85 113 137 175 237 287 331
#     4   9  18  35  57  81 116 148 184 230 290 335
#     4  11  19  34  53  78 111 141 184 230 278 325
#     4  10  23  34  58  86  99 150 196 226 286 344
#     4  11  23  41  56  80 116 148 186 238 285 339
#
# _framework density 18.579931999999999
#
# number of rings (size 3 to 8) (size 9 to 14) (size 15 to 20)
#    0.000    2.154    4.615    3.462    0.000    1.846 
#    2.769    0.000    0.000    0.000    0.000    7.538 
#    0.000    0.000    0.000    0.000    0.000    0.000 
#
# Total GULP energy -144755.305622 kJ/mol
# GULP energy per Si atom -5567.511755 kJ/mol
# Density = 1.853764 g / cm^3
# Si number density = 18.579932 Si / 1000 Ang^3
#
#
#
# Elastic Constant Matrix: (Units=GPa)
#
#
# Indices 1 2 3 4 5 6 
#
# 1 117.0513 15.7924 9.2765 0.0000 0.0000 0.0000
# 2 15.7924 61.0762 1.9128 0.0000 0.0000 0.0000
# 3 9.2765 1.9128 16.8639 0.0000 0.0000 0.0000
# 4 0.0000 0.0000 0.0000 11.8638 0.0000 0.0000
# 5 0.0000 0.0000 0.0000 0.0000 8.8105 0.0000
# 6 0.0000 0.0000 0.0000 0.0000 0.0000 27.8133
#
#
#
# Elastic Compliance Matrix: (Units=1/GPa)
#
#
# Indices 1 2 3 4 5 6 
#
# 1 0.009227 -0.002235 -0.004822 0.000000 0.000000 0.000000
# 2 -0.002235 0.016973 -0.000696 0.000000 0.000000 0.000000
# 3 -0.004822 -0.000696 0.062030 0.000000 0.000000 0.000000
# 4 0.000000 0.000000 0.000000 0.084290 0.000000 0.000000
# 5 0.000000 0.000000 0.000000 0.000000 0.113500 0.000000
# 6 0.000000 0.000000 0.000000 0.000000 0.000000 0.035954
#
#
# Mechanical properties :
#
#
# Convention : Reuss Voigt Hill
#
# Bulk Modulus (GPa) = 13.75059 27.66163 20.70611
# Shear Modulus (GPa) = 13.82281 20.89817 17.36049
#
# Velocity S-wave (km/s) = 2.73053 3.35740 3.06006
# Velocity P-wave (km/s) = 4.16628 5.47263 4.86352
#
# Compressibility (1/GPa) = 0.07272413
#
# Stress axis : x y z
#
# Youngs Moduli (GPa) = 108.37840 58.91840 16.12126
#
# Poissons Ratio (x) = 0.13167 0.07774
# Poissons Ratio (y) = 0.24220 0.01122
# Poissons Ratio (z) = 0.52261 0.04099
#
# Static dielectric constant tensor:
#      x y z
#    x 1.743000 0.000000 0.000000 
#    y 0.000000 1.719680 0.000000 
#    z 0.000000 0.000000 1.609570 
# 
# From -- ./inp_files/44870.got.cif
#   From: 2010.05.17/outbox.cif.g08.bks.cpg/sg22_23_cif.got.tgz:44870.got - 2010.06.03 23:40:54.
