data_PCOD9326001
_publ_section_title
;
Structure prediction by ZEFSAII (Michael W. Deem and Ramdas Pophale) SiO2 
 PCOD9326001
Probable space group: F 2 2 2
;
_chemical_formula_sum "Si O2"
_cell_formula_units_Z 96
_cell_length_a 24.357283
_cell_length_b 12.535892
_cell_length_c 15.845098
_cell_angle_alpha 90.000000
_cell_angle_beta 90.000000
_cell_angle_gamma 90.000000
_cell_volume 4838.146487
_symmetry_space_group_name_H-M "F 2 2 2"
_symmetry_group_IT_number 22
_symmetry_cell_setting 'orthorhombic'
loop_
_space_group_symop_operation_xyz
x,y,z
-x,-y,z
x,-y,-z
-x,y,-z
x,1/2+y,1/2+z
-x,1/2-y,1/2+z
x,1/2-y,1/2-z
-x,1/2+y,1/2-z
1/2+x,y,1/2+z
1/2-x,-y,1/2+z
1/2+x,-y,1/2-z
1/2-x,y,1/2-z
1/2+x,1/2+y,z
1/2-x,1/2-y,z
1/2+x,1/2-y,-z
1/2-x,1/2+y,-z
loop_
_atom_site_type_symbol
_atom_site_label
_atom_site_fract_x
_atom_site_fract_y
_atom_site_fract_z
Si Si1 0.578008 0.516123 0.698959
Si Si2 0.795684 0.466643 0.812764
Si Si3 0.188463 0.500000 0.000000
Si Si4 0.059130 0.178796 0.829488
Si Si5 0.443263 0.216833 0.135392
Si Si6 0.405968 0.164980 0.952409
Si Si7 0.153946 0.750000 0.750000
O O1 0.644292 0.518727 0.697022
O O2 0.560876 0.562504 0.789116
O O3 0.556566 0.397204 0.683648
O O4 0.563957 0.588071 0.616280
O O5 0.750000 0.511663 0.750000
O O6 0.809184 0.346774 0.782092
O O7 0.780971 0.475625 0.911986
O O8 0.148564 0.601286 0.019310
O O9 0.077891 0.250000 0.750000
O O10 0.097049 0.220619 0.905491
O O11 0.997106 0.213942 0.849919
O O12 0.388446 0.273094 0.172631
O O13 0.437568 0.186534 0.038309
#
# Coordination Sequence:
#
# PCOD9326001 Si02
#       7
#    16  16   8  16  16  16   8
#     4   9  20  37  56  86 122 153 194 254 295 350
#     4  10  20  38  66  89 116 155 203 255 314 357
#     4  10  18  38  61  90 118 148 203 268 290 346
#     4  10  21  31  50  87 122 156 193 238 295 354
#     4  11  18  35  55  85 118 161 197 239 294 352
#     4  10  17  34  56  85 115 152 204 250 281 335
#     4  10  19  34  58  94 122 146 193 258 290 352
#
# _framework density 19.842310000000001
#
# number of rings (size 3 to 8) (size 9 to 14) (size 15 to 20)
#    0.000    2.000    5.833    0.750    0.000    2.667 
#    6.000    1.667    0.000   14.500   17.333    0.000 
#    0.000    0.000    0.000    0.000    0.000    0.000 
#
# Total GULP energy -133734.370796 kJ/mol
# GULP energy per Si atom -5572.265450 kJ/mol
# Density = 1.979715 g / cm^3
# Si number density = 19.842310 Si / 1000 Ang^3
#
#
#
# Elastic Constant Matrix: (Units=GPa)
#
#
# Indices 1 2 3 4 5 6 
#
# 1 70.1228 3.2848 47.2012 0.0000 0.0000 0.0000
# 2 3.2848 48.6439 61.2344 0.0000 0.0000 0.0000
# 3 47.2012 61.2344 151.2161 0.0000 0.0000 0.0000
# 4 0.0000 0.0000 0.0000 41.4180 0.0000 0.0000
# 5 0.0000 0.0000 0.0000 0.0000 34.3878 0.0000
# 6 0.0000 0.0000 0.0000 0.0000 0.0000 9.1083
#
#
#
# Elastic Compliance Matrix: (Units=1/GPa)
#
#
# Indices 1 2 3 4 5 6 
#
# 1 0.022281 0.014789 -0.012944 0.000000 0.000000 0.000000
# 2 0.014789 0.051750 -0.025572 0.000000 0.000000 0.000000
# 3 -0.012944 -0.025572 0.021009 0.000000 0.000000 0.000000
# 4 0.000000 0.000000 0.000000 0.024144 0.000000 0.000000
# 5 0.000000 0.000000 0.000000 0.000000 0.029080 0.000000
# 6 0.000000 0.000000 0.000000 0.000000 0.000000 0.109790
#
#
# Mechanical properties :
#
#
# Convention : Reuss Voigt Hill
#
# Bulk Modulus (GPa) = 21.01458 54.82482 37.91970
# Shear Modulus (GPa) = 15.55841 27.53363 21.54602
#
# Velocity S-wave (km/s) = 2.80322 3.72912 3.29882
# Velocity P-wave (km/s) = 4.59251 6.79941 5.80186
#
# Compressibility (1/GPa) = 0.04758601
#
# Stress axis : x y z
#
# Youngs Moduli (GPa) = 44.88227 19.32355 47.59916
#
# Poissons Ratio (x) = -0.28578 0.61610
# Poissons Ratio (y) = -0.66377 1.21723
# Poissons Ratio (z) = 0.58094 0.49415
#
# Static dielectric constant tensor:
#      x y z
#    x 1.742530 0.000000 0.000000 
#    y 0.000000 1.778810 0.000000 
#    z 0.000000 0.000000 1.734560 
# 
# From -- ./inp_files/33126.got.cif
#   From: 2010.05.17/outbox.cif.g08.bks.cpg/sg22_17_cif.got.tgz:33126.got - 2010.06.03 23:40:54.
