data_PCOD9326303
_publ_section_title
;
Structure prediction by ZEFSAII (Michael W. Deem and Ramdas Pophale) SiO2 
 PCOD9326303
Probable space group: F 2 2 2
;
_chemical_formula_sum "Si O2"
_cell_formula_units_Z 80
_cell_length_a 5.553290
_cell_length_b 31.578453
_cell_length_c 18.470932
_cell_angle_alpha 90.000000
_cell_angle_beta 90.000000
_cell_angle_gamma 90.000000
_cell_volume 3239.142195
_symmetry_space_group_name_H-M "F 2 2 2"
_symmetry_group_IT_number 22
_symmetry_cell_setting 'orthorhombic'
loop_
_space_group_symop_operation_xyz
x,y,z
-x,-y,z
x,-y,-z
-x,y,-z
x,1/2+y,1/2+z
-x,1/2-y,1/2+z
x,1/2-y,1/2-z
-x,1/2+y,1/2-z
1/2+x,y,1/2+z
1/2-x,-y,1/2+z
1/2+x,-y,1/2-z
1/2-x,y,1/2-z
1/2+x,1/2+y,z
1/2-x,1/2-y,z
1/2+x,1/2-y,-z
1/2-x,1/2+y,-z
loop_
_atom_site_type_symbol
_atom_site_label
_atom_site_fract_x
_atom_site_fract_y
_atom_site_fract_z
Si Si1 0.757580 0.482584 0.418226
Si Si2 0.056423 0.860283 0.620302
Si Si3 0.506528 0.233097 0.832605
Si Si4 0.999631 0.572228 0.753455
Si Si5 0.570671 0.887527 0.599607
O O1 0.500000 0.500000 0.388198
O O2 0.752354 0.500000 0.500000
O O3 0.828090 0.433210 0.425710
O O4 0.000000 0.500000 0.381035
O O5 0.051959 0.817101 0.665586
O O6 0.021359 0.900169 0.674029
O O7 0.305434 0.870593 0.578324
O O8 0.796175 0.857838 0.581716
O O9 0.505646 0.250000 0.750000
O O10 0.750000 0.250000 0.869896
O O11 0.250000 0.250000 0.862746
O O12 0.250000 0.548838 0.750000
O O13 0.750000 0.547977 0.750000
O O14 0.973385 0.605157 0.686309
#
# Coordination Sequence:
#
# PCOD9326303 Si02
#       5
#    16  16  16  16  16
#     4  10  21  38  59  82 107 133 168 234 322 364
#     4  10  19  31  47  72 108 148 201 226 255 325
#     4  10  21  27  43  67 107 153 200 233 275 292
#     4   8  16  25  44  62  95 130 185 218 252 287
#     4  10  19  31  53  73  99 142 185 226 284 329
#
# _framework density 24.697897000000001
#
# number of rings (size 3 to 8) (size 9 to 14) (size 15 to 20)
#    0.000    2.400    0.000    2.400   16.800    0.000 
#    0.000    0.000    0.000   21.600    0.000    0.000 
#    0.000    0.000    0.000  201.600    0.000    0.000 
#
# Total GULP energy -111363.336104 kJ/mol
# GULP energy per Si atom -5568.166805 kJ/mol
# Density = 2.464168 g / cm^3
# Si number density = 24.697897 Si / 1000 Ang^3
#
#
#
# Elastic Constant Matrix: (Units=GPa)
#
#
# Indices 1 2 3 4 5 6 
#
# 1 358.5376 58.9892 24.3808 0.0000 0.0000 0.0000
# 2 58.9892 138.3028 11.8996 0.0000 0.0000 0.0000
# 3 24.3808 11.8996 64.8524 0.0000 0.0000 0.0000
# 4 0.0000 0.0000 0.0000 10.6249 0.0000 0.0000
# 5 0.0000 0.0000 0.0000 0.0000 0.4673 0.0000
# 6 0.0000 0.0000 0.0000 0.0000 0.0000 36.2811
#
#
#
# Elastic Compliance Matrix: (Units=1/GPa)
#
#
# Indices 1 2 3 4 5 6 
#
# 1 0.003053 -0.001223 -0.000923 0.000000 0.000000 0.000000
# 2 -0.001223 0.007836 -0.000978 0.000000 0.000000 0.000000
# 3 -0.000923 -0.000978 0.015946 0.000000 0.000000 0.000000
# 4 0.000000 0.000000 0.000000 0.094118 0.000000 0.000000
# 5 0.000000 0.000000 0.000000 0.000000 2.140128 0.000000
# 6 0.000000 0.000000 0.000000 0.000000 0.000000 0.027563
#
#
# Mechanical properties :
#
#
# Convention : Reuss Voigt Hill
#
# Bulk Modulus (GPa) = 48.57465 83.58134 66.07799
# Shear Modulus (GPa) = 2.17226 40.56955 21.37090
#
# Velocity S-wave (km/s) = 0.93885 4.05734 2.94478
# Velocity P-wave (km/s) = 4.57006 7.47424 6.19474
#
# Compressibility (1/GPa) = 0.02058687
#
# Stress axis : x y z
#
# Youngs Moduli (GPa) = 327.53838 127.61285 62.71064
#
# Poissons Ratio (x) = 0.15604 0.05791
# Poissons Ratio (y) = 0.40050 0.06134
# Poissons Ratio (z) = 0.30246 0.12483
#
# Static dielectric constant tensor:
#      x y z
#    x 2.164930 0.000000 0.000000 
#    y 0.000000 2.061080 0.000000 
#    z 0.000000 0.000000 1.971000 
# 
# From -- ./inp_files/5600.got.cif
#   From: 2010.05.17/outbox.cif.g08.bks.cpg/sg22_3_cif.got.tgz:5600.got - 2010.06.03 23:40:54.
