data_PCOD9326083
_publ_section_title
;
Structure prediction by ZEFSAII (Michael W. Deem and Ramdas Pophale) SiO2 
 PCOD9326083
Probable space group: F 2 2 2
;
_chemical_formula_sum "Si O2"
_cell_formula_units_Z 80
_cell_length_a 9.604869
_cell_length_b 23.265794
_cell_length_c 17.136738
_cell_angle_alpha 90.000000
_cell_angle_beta 90.000000
_cell_angle_gamma 90.000000
_cell_volume 3829.459504
_symmetry_space_group_name_H-M "F 2 2 2"
_symmetry_group_IT_number 22
_symmetry_cell_setting 'orthorhombic'
loop_
_space_group_symop_operation_xyz
x,y,z
-x,-y,z
x,-y,-z
-x,y,-z
x,1/2+y,1/2+z
-x,1/2-y,1/2+z
x,1/2-y,1/2-z
-x,1/2+y,1/2-z
1/2+x,y,1/2+z
1/2-x,-y,1/2+z
1/2+x,-y,1/2-z
1/2-x,y,1/2-z
1/2+x,1/2+y,z
1/2-x,1/2-y,z
1/2+x,1/2-y,-z
1/2-x,1/2+y,-z
loop_
_atom_site_type_symbol
_atom_site_label
_atom_site_fract_x
_atom_site_fract_y
_atom_site_fract_z
Si Si1 0.750000 0.645412 0.250000
Si Si2 0.426684 0.160690 0.394482
Si Si3 0.592691 0.549626 0.343060
Si Si4 0.636569 0.527229 0.085198
Si Si5 0.000000 0.884768 0.500000
Si Si6 0.719574 0.687502 0.953431
O O1 0.656396 0.676321 0.184436
O O2 0.637771 0.603445 0.291350
O O3 0.382920 0.095552 0.417240
O O4 0.594863 0.161254 0.399768
O O5 0.359312 0.197192 0.464021
O O6 0.500000 0.500000 0.307262
O O7 0.732009 0.515436 0.363603
O O8 0.537435 0.575593 0.425327
O O9 0.500000 0.500000 0.119873
O O10 0.654910 0.500000 0.000000
O O11 0.137655 0.847686 0.473069
O O12 0.750000 0.750000 0.919252
#
# Coordination Sequence:
#
# PCOD9326083 Si02
#       6
#     8  16  16  16   8  16
#     4  10  22  46  61  90 140 174 207 252 336 398
#     4  10  22  41  64  95 129 173 208 267 324 397
#     4  11  24  37  61  93 131 169 211 256 320 384
#     4  10  18  31  58  89 124 162 209 250 303 375
#     4  12  21  40  64  98 132 164 213 288 314 372
#     4  11  22  40  70  98 120 159 230 274 322 377
#
# _framework density 20.890675999999999
#
# number of rings (size 3 to 8) (size 9 to 14) (size 15 to 20)
#    0.000    1.400    4.000    5.100    2.800    3.200 
#    0.000    0.500    0.000    1.200    0.000    0.000 
#    0.000    0.000    0.000    0.000    0.000    0.000 
#
# Total GULP energy -111483.218417 kJ/mol
# GULP energy per Si atom -5574.160921 kJ/mol
# Density = 2.084313 g / cm^3
# Si number density = 20.890676 Si / 1000 Ang^3
#
#
#
# Elastic Constant Matrix: (Units=GPa)
#
#
# Indices 1 2 3 4 5 6 
#
# 1 142.8130 11.8629 22.3894 0.0000 0.0000 0.0000
# 2 11.8629 27.0792 -5.2295 0.0000 0.0000 0.0000
# 3 22.3894 -5.2295 83.4348 0.0000 0.0000 0.0000
# 4 0.0000 0.0000 0.0000 11.0509 0.0000 0.0000
# 5 0.0000 0.0000 0.0000 0.0000 17.4235 0.0000
# 6 0.0000 0.0000 0.0000 0.0000 0.0000 28.4314
#
#
#
# Elastic Compliance Matrix: (Units=1/GPa)
#
#
# Indices 1 2 3 4 5 6 
#
# 1 0.007679 -0.003808 -0.002299 0.000000 0.000000 0.000000
# 2 -0.003808 0.039270 0.003483 0.000000 0.000000 0.000000
# 3 -0.002299 0.003483 0.012821 0.000000 0.000000 0.000000
# 4 0.000000 0.000000 0.000000 0.090490 0.000000 0.000000
# 5 0.000000 0.000000 0.000000 0.000000 0.057394 0.000000
# 6 0.000000 0.000000 0.000000 0.000000 0.000000 0.035172
#
#
# Mechanical properties :
#
#
# Convention : Reuss Voigt Hill
#
# Bulk Modulus (GPa) = 18.34153 34.59694 26.46923
# Shear Modulus (GPa) = 18.77951 26.33479 22.55715
#
# Velocity S-wave (km/s) = 3.00149 3.55435 3.28955
# Velocity P-wave (km/s) = 4.56188 5.78285 5.20827
#
# Compressibility (1/GPa) = 0.05452108
#
# Stress axis : x y z
#
# Youngs Moduli (GPa) = 130.22609 25.46496 77.99869
#
# Poissons Ratio (x) = 0.09697 0.17934
# Poissons Ratio (y) = 0.49591 -0.27169
# Poissons Ratio (z) = 0.29943 -0.08870
#
# Static dielectric constant tensor:
#      x y z
#    x 1.818100 0.000000 0.000000 
#    y 0.000000 1.893470 0.000000 
#    z 0.000000 0.000000 1.790460 
# 
# From -- ./inp_files/35157.got.cif
#   From: 2010.05.17/outbox.cif.g08.bks.cpg/sg22_18_cif.got.tgz:35157.got - 2010.06.03 23:40:54.
