data_PCOD9326402
_publ_section_title
;
Structure prediction by ZEFSAII (Michael W. Deem and Ramdas Pophale) SiO2 
 PCOD9326402
Probable space group: F 2 2 2
;
_chemical_formula_sum "Si O2"
_cell_formula_units_Z 88
_cell_length_a 32.706428
_cell_length_b 5.064869
_cell_length_c 24.776702
_cell_angle_alpha 90.000000
_cell_angle_beta 90.000000
_cell_angle_gamma 90.000000
_cell_volume 4104.354176
_symmetry_space_group_name_H-M "F 2 2 2"
_symmetry_group_IT_number 22
_symmetry_cell_setting 'orthorhombic'
loop_
_space_group_symop_operation_xyz
x,y,z
-x,-y,z
x,-y,-z
-x,y,-z
x,1/2+y,1/2+z
-x,1/2-y,1/2+z
x,1/2-y,1/2-z
-x,1/2+y,1/2-z
1/2+x,y,1/2+z
1/2-x,-y,1/2+z
1/2+x,-y,1/2-z
1/2-x,y,1/2-z
1/2+x,1/2+y,z
1/2-x,1/2-y,z
1/2+x,1/2-y,-z
1/2-x,1/2+y,-z
loop_
_atom_site_type_symbol
_atom_site_label
_atom_site_fract_x
_atom_site_fract_y
_atom_site_fract_z
Si Si1 0.208456 0.876372 0.871267
Si Si2 0.600078 0.525408 0.647177
Si Si3 0.646896 0.131209 0.951761
Si Si4 0.547969 0.999497 0.380023
Si Si5 0.815215 0.615073 0.806158
Si Si6 0.921278 0.500000 0.500000
O O1 0.250000 0.750000 0.894719
O O2 0.173291 0.826560 0.915345
O O3 0.201485 0.673664 0.821065
O O4 0.202656 0.173714 0.849906
O O5 0.626570 0.559931 0.592188
O O6 0.574912 0.253669 0.638905
O O7 0.635722 0.564384 0.690891
O O8 0.567719 0.755157 0.650262
O O9 0.609604 0.270510 0.982310
O O10 0.672074 0.000000 0.000000
O O11 0.500000 0.000000 0.368553
O O12 0.553302 0.043126 0.445056
O O13 0.804362 0.750000 0.750000
#
# Coordination Sequence:
#
# PCOD9326402 Si02
#       6
#    16  16  16  16  16   8
#     4  11  25  41  60  95 128 155 205 264 314 377
#     4  10  21  38  57  87 118 156 204 247 288 372
#     4  10  20  37  59  81 122 168 203 240 292 352
#     4  11  21  34  56  87 126 158 193 248 306 344
#     4  11  23  43  69  90 115 160 209 261 322 373
#     4  10  19  34  54  82 118 162 214 240 274 358
#
# _framework density 21.440643999999999
#
# number of rings (size 3 to 8) (size 9 to 14) (size 15 to 20)
#    0.000    1.455    1.818    5.182    2.545    2.182 
#    1.636    1.818    0.000    2.182    0.000    0.000 
#    0.000    0.000    0.000    0.000    0.000    0.000 
#
# Total GULP energy -122652.666946 kJ/mol
# GULP energy per Si atom -5575.121225 kJ/mol
# Density = 2.139184 g / cm^3
# Si number density = 21.440644 Si / 1000 Ang^3
#
#
#
# Elastic Constant Matrix: (Units=GPa)
#
#
# Indices 1 2 3 4 5 6 
#
# 1 108.7977 22.4893 -10.0472 -0.0020 0.0015 -0.0014
# 2 22.4893 92.2127 0.3768 0.0044 0.0028 -0.0112
# 3 -10.0472 0.3768 31.7946 0.0006 -0.0012 -0.0028
# 4 -0.0020 0.0044 0.0006 19.1566 -0.0022 0.0004
# 5 0.0015 0.0028 -0.0012 -0.0022 6.7320 -0.0072
# 6 -0.0014 -0.0112 -0.0028 0.0004 -0.0072 23.6015
#
#
#
# Elastic Compliance Matrix: (Units=1/GPa)
#
#
# Indices 1 2 3 4 5 6 
#
# 1 0.009992 -0.002450 0.003187 0.000002 -0.000001 0.000000
# 2 -0.002450 0.011446 -0.000910 -0.000003 -0.000004 0.000005
# 3 0.003187 -0.000910 0.032470 0.000000 0.000005 0.000004
# 4 0.000002 -0.000003 0.000000 0.052201 0.000017 -0.000001
# 5 -0.000001 -0.000004 0.000005 0.000017 0.148544 0.000046
# 6 0.000000 0.000005 0.000004 -0.000001 0.000046 0.042370
#
#
# Mechanical properties :
#
#
# Convention : Reuss Voigt Hill
#
# Bulk Modulus (GPa) = 18.67032 28.71587 23.69310
# Shear Modulus (GPa) = 15.86178 24.56377 20.21277
#
# Velocity S-wave (km/s) = 2.72288 3.38844 3.07372
# Velocity P-wave (km/s) = 4.31419 5.36013 4.86535
#
# Compressibility (1/GPa) = 0.05356094
#
# Stress axis : x y z
#
# Youngs Moduli (GPa) = 100.07949 87.36895 30.79804
#
# Poissons Ratio (x) = 0.21405 -0.09814
# Poissons Ratio (y) = 0.24519 0.02802
# Poissons Ratio (z) = -0.31891 0.07949
#
# Static dielectric constant tensor:
#      x y z
#    x 1.846140 0.000020 -0.000010 
#    y 0.000020 1.784740 -0.000010 
#    z -0.000010 -0.000010 1.881150 
# 
# From -- ./inp_files/46672.got.cif
#   From: 2010.05.17/outbox.cif.g08.bks.cpg/sg22_24_cif.got.tgz:46672.got - 2010.06.03 23:40:54.
