data_PCOD9326633
_publ_section_title
;
Structure prediction by ZEFSAII (Michael W. Deem and Ramdas Pophale) SiO2 
 PCOD9326633
Probable space group: F 2 2 2
;
_chemical_formula_sum "Si O2"
_cell_formula_units_Z 120
_cell_length_a 24.346916
_cell_length_b 25.807826
_cell_length_c 9.131085
_cell_angle_alpha 90.000000
_cell_angle_beta 90.000000
_cell_angle_gamma 90.000000
_cell_volume 5737.434822
_symmetry_space_group_name_H-M "F 2 2 2"
_symmetry_group_IT_number 22
_symmetry_cell_setting 'orthorhombic'
loop_
_space_group_symop_operation_xyz
x,y,z
-x,-y,z
x,-y,-z
-x,y,-z
x,1/2+y,1/2+z
-x,1/2-y,1/2+z
x,1/2-y,1/2-z
-x,1/2+y,1/2-z
1/2+x,y,1/2+z
1/2-x,-y,1/2+z
1/2+x,-y,1/2-z
1/2-x,y,1/2-z
1/2+x,1/2+y,z
1/2-x,1/2-y,z
1/2+x,1/2-y,-z
1/2-x,1/2+y,-z
loop_
_atom_site_type_symbol
_atom_site_label
_atom_site_fract_x
_atom_site_fract_y
_atom_site_fract_z
Si Si1 0.000000 0.137402 0.500000
Si Si2 0.091970 0.795322 0.595770
Si Si3 0.360610 0.807213 0.227192
Si Si4 0.201336 0.908823 0.355890
Si Si5 0.935148 0.817613 0.015378
Si Si6 0.410178 0.558010 0.478550
Si Si7 0.224191 0.551296 0.596660
Si Si8 0.374361 0.884586 0.727787
O O1 0.966417 0.174723 0.609355
O O2 0.956534 0.098140 0.425686
O O3 0.106484 0.803969 0.424731
O O4 0.084768 0.733858 0.604286
O O5 0.135723 0.829612 0.686844
O O6 0.335547 0.750000 0.250000
O O7 0.317443 0.852987 0.203067
O O8 0.401585 0.817672 0.362877
O O9 0.250000 0.926503 0.250000
O O10 0.144204 0.940023 0.376696
O O11 0.230562 0.913947 0.512785
O O12 0.919181 0.867962 0.108004
O O13 0.000000 0.812824 0.000000
O O14 0.430027 0.500000 0.500000
O O15 0.393672 0.578863 0.639936
O O16 0.211794 0.500000 0.500000
O O17 0.250000 0.534883 0.750000
O O18 0.173408 0.587690 0.638058
#
# Coordination Sequence:
#
# PCOD9326633 Si02
#       8
#     8  16  16  16  16  16  16  16
#     4  10  19  38  70 102 128 170 223 280 324 410
#     4  10  20  40  71 100 133 181 224 275 333 425
#     4  10  22  41  63  96 136 177 225 277 347 421
#     4  12  24  42  69  95 132 181 235 294 344 412
#     4  11  24  37  66 107 144 178 220 280 353 412
#     4  11  24  42  68 101 133 175 235 282 347 405
#     4  12  25  44  70 100 130 179 239 294 349 411
#     4  11  24  43  66 101 137 173 227 289 346 405
#
# _framework density 20.91527
#
# number of rings (size 3 to 8) (size 9 to 14) (size 15 to 20)
#    0.000    1.067    4.667    2.200    5.600    1.333 
#    0.000    0.000    2.933    1.600    0.000    0.000 
#    0.000    0.000    0.000    0.000    0.000    0.000 
#
# Total GULP energy -167349.070182 kJ/mol
# GULP energy per Si atom -5578.302339 kJ/mol
# Density = 2.086767 g / cm^3
# Si number density = 20.915270 Si / 1000 Ang^3
#
#
#
# Elastic Constant Matrix: (Units=GPa)
#
#
# Indices 1 2 3 4 5 6 
#
# 1 91.2642 57.4926 34.3482 0.0019 -0.0017 -0.0014
# 2 57.4926 149.6526 36.1066 0.0017 -0.0012 -0.0005
# 3 34.3482 36.1066 97.0610 0.0064 -0.0051 -0.0030
# 4 0.0019 0.0017 0.0064 27.9915 -0.0038 -0.0022
# 5 -0.0017 -0.0012 -0.0051 -0.0038 19.0479 0.0022
# 6 -0.0014 -0.0005 -0.0030 -0.0022 0.0022 31.5399
#
#
#
# Elastic Compliance Matrix: (Units=1/GPa)
#
#
# Indices 1 2 3 4 5 6 
#
# 1 0.015520 -0.005095 -0.003597 0.000000 0.000000 0.000000
# 2 -0.005095 0.009013 -0.001550 0.000000 0.000000 0.000000
# 3 -0.003597 -0.001550 0.012152 -0.000002 0.000003 0.000001
# 4 0.000000 0.000000 -0.000002 0.035725 0.000007 0.000002
# 5 0.000000 0.000000 0.000003 0.000007 0.052499 -0.000004
# 6 0.000000 0.000000 0.000001 0.000002 -0.000004 0.031706
#
#
# Mechanical properties :
#
#
# Convention : Reuss Voigt Hill
#
# Bulk Modulus (GPa) = 61.71930 65.98584 63.85257
# Shear Modulus (GPa) = 27.39711 29.71790 28.55750
#
# Velocity S-wave (km/s) = 3.62319 3.77353 3.69913
# Velocity P-wave (km/s) = 6.86124 7.11363 6.98857
#
# Compressibility (1/GPa) = 0.01620239
#
# Stress axis : x y z
#
# Youngs Moduli (GPa) = 64.43110 110.94654 82.28819
#
# Poissons Ratio (x) = 0.56523 0.29601
# Poissons Ratio (y) = 0.32825 0.12755
# Poissons Ratio (z) = 0.23177 0.17197
#
# Static dielectric constant tensor:
#      x y z
#    x 1.778980 0.000000 0.000000 
#    y 0.000000 1.778940 0.000000 
#    z 0.000000 0.000000 1.799640 
# 
# From -- ./inp_files/15060.got.cif
#   From: 2010.05.17/outbox.cif.g08.bks.cpg/sg22_8_cif.got.tgz:15060.got - 2010.06.03 23:40:54.
