data_PCOD9326365
_publ_section_title
;
Structure prediction by ZEFSAII (Michael W. Deem and Ramdas Pophale) SiO2 
 PCOD9326365
Probable space group: F 2 2 2
;
_chemical_formula_sum "Si O2"
_cell_formula_units_Z 120
_cell_length_a 21.979774
_cell_length_b 16.025400
_cell_length_c 16.583216
_cell_angle_alpha 90.000000
_cell_angle_beta 90.000000
_cell_angle_gamma 90.000000
_cell_volume 5841.183620
_symmetry_space_group_name_H-M "F 2 2 2"
_symmetry_group_IT_number 22
_symmetry_cell_setting 'orthorhombic'
loop_
_space_group_symop_operation_xyz
x,y,z
-x,-y,z
x,-y,-z
-x,y,-z
x,1/2+y,1/2+z
-x,1/2-y,1/2+z
x,1/2-y,1/2-z
-x,1/2+y,1/2-z
1/2+x,y,1/2+z
1/2-x,-y,1/2+z
1/2+x,-y,1/2-z
1/2-x,y,1/2-z
1/2+x,1/2+y,z
1/2-x,1/2-y,z
1/2+x,1/2-y,-z
1/2-x,1/2+y,-z
loop_
_atom_site_type_symbol
_atom_site_label
_atom_site_fract_x
_atom_site_fract_y
_atom_site_fract_z
Si Si1 0.293255 0.918543 0.086191
Si Si2 0.552197 0.434401 0.664778
Si Si3 0.682619 0.962159 0.234349
Si Si4 0.165453 0.919081 0.110267
Si Si5 0.108524 0.000000 0.500000
Si Si6 0.854116 0.267825 0.156780
Si Si7 0.526521 0.416722 0.089262
Si Si8 0.985946 0.774270 0.596474
O O1 0.225041 0.930462 0.056613
O O2 0.303098 0.835188 0.137690
O O3 0.306970 0.990536 0.150422
O O4 0.344430 0.925036 0.018744
O O5 0.500000 0.500000 0.695139
O O6 0.614005 0.425605 0.719270
O O7 0.570664 0.475795 0.578375
O O8 0.525770 0.342521 0.644062
O O9 0.750000 0.918903 0.250000
O O10 0.675234 0.028327 0.307619
O O11 0.164410 0.820766 0.123692
O O12 0.097938 0.934980 0.080644
O O13 0.865860 0.250000 0.250000
O O14 0.916262 0.297779 0.115132
O O15 0.500000 0.500000 0.129537
O O16 0.511738 0.324137 0.124033
O O17 0.500000 0.411866 0.000000
O O18 0.000000 0.778666 0.500000
#
# Coordination Sequence:
#
# PCOD9326365 Si02
#       8
#    16  16  16  16   8  16  16  16
#     4  10  19  33  53  80 115 156 195 238 307 372
#     4  11  20  32  56  85 122 161 200 245 300 367
#     4   9  19  34  50  78 117 155 193 239 297 357
#     4  10  20  33  54  81 111 154 193 245 303 366
#     4  10  21  34  52  84 123 162 198 244 295 368
#     4  11  20  32  55  87 125 150 195 257 323 372
#     4   9  20  38  57  78 109 146 194 250 305 351
#     4  10  20  36  57  85 122 156 197 246 309 376
#
# _framework density 20.543783000000001
#
# number of rings (size 3 to 8) (size 9 to 14) (size 15 to 20)
#    0.000    2.000    1.333    3.800    0.000    2.133 
#    2.400    0.000    0.000    0.000    0.000   10.267 
#    0.000    0.000    0.000    0.000    0.000    0.000 
#
# Total GULP energy -167002.728283 kJ/mol
# GULP energy per Si atom -5566.757609 kJ/mol
# Density = 2.049702 g / cm^3
# Si number density = 20.543783 Si / 1000 Ang^3
#
#
#
# Elastic Constant Matrix: (Units=GPa)
#
#
# Indices 1 2 3 4 5 6 
#
# 1 188.8870 58.1230 38.8604 0.0000 0.0000 0.0000
# 2 58.1230 102.7435 4.3818 0.0000 0.0000 0.0000
# 3 38.8604 4.3818 50.0900 0.0000 0.0000 0.0000
# 4 0.0000 0.0000 0.0000 15.7123 0.0000 0.0000
# 5 0.0000 0.0000 0.0000 0.0000 85.2297 0.0000
# 6 0.0000 0.0000 0.0000 0.0000 0.0000 -4.2025
#
#
#
# Elastic Compliance Matrix: (Units=1/GPa)
#
#
# Indices 1 2 3 4 5 6 
#
# 1 0.007723 -0.004129 -0.005630 0.000000 0.000000 0.000000
# 2 -0.004129 0.011977 0.002156 0.000000 0.000000 0.000000
# 3 -0.005630 0.002156 0.024144 0.000000 0.000000 0.000000
# 4 0.000000 0.000000 0.000000 0.063645 0.000000 0.000000
# 5 0.000000 0.000000 0.000000 0.000000 0.011733 0.000000
# 6 0.000000 0.000000 0.000000 0.000000 0.000000 -0.237955
#
#
# Mechanical properties :
#
#
# Convention : Reuss Voigt Hill
#
# Bulk Modulus (GPa) = 34.92120 60.49455 47.70788
# Shear Modulus (GPa) = -53.20204 35.37158 -8.91523
#
# Velocity S-wave (km/s) = -5.09442 4.15392 -2.08544
# Velocity P-wave (km/s) = 4.19152 7.24688 4.18022
#
# Compressibility (1/GPa) = 0.02863590
#
# Stress axis : x y z
#
# Youngs Moduli (GPa) = 129.48256 83.49480 41.41873
#
# Poissons Ratio (x) = 0.34474 0.23321
# Poissons Ratio (y) = 0.53462 -0.08928
# Poissons Ratio (z) = 0.72904 -0.17997
#
# Static dielectric constant tensor:
#      x y z
#    x 1.797990 0.000000 0.000000 
#    y 0.000000 1.762340 0.000000 
#    z 0.000000 0.000000 1.758020 
# 
# From -- ./inp_files/39092.got.cif
#   From: 2010.05.17/outbox.cif.g08.bks.cpg/sg22_20_cif.got.tgz:39092.got - 2010.06.03 23:40:54.
