data_PCOD9326414
_publ_section_title
;
Structure prediction by ZEFSAII (Michael W. Deem and Ramdas Pophale) SiO2 
 PCOD9326414
Probable space group: F 2 2 2
;
_chemical_formula_sum "Si O2"
_cell_formula_units_Z 116
_cell_length_a 7.430709
_cell_length_b 23.988636
_cell_length_c 27.657928
_cell_angle_alpha 90.000000
_cell_angle_beta 90.000000
_cell_angle_gamma 90.000000
_cell_volume 4930.096842
_symmetry_space_group_name_H-M "F 2 2 2"
_symmetry_group_IT_number 22
_symmetry_cell_setting 'orthorhombic'
loop_
_space_group_symop_operation_xyz
x,y,z
-x,-y,z
x,-y,-z
-x,y,-z
x,1/2+y,1/2+z
-x,1/2-y,1/2+z
x,1/2-y,1/2-z
-x,1/2+y,1/2-z
1/2+x,y,1/2+z
1/2-x,-y,1/2+z
1/2+x,-y,1/2-z
1/2-x,y,1/2-z
1/2+x,1/2+y,z
1/2-x,1/2-y,z
1/2+x,1/2-y,-z
1/2-x,1/2+y,-z
loop_
_atom_site_type_symbol
_atom_site_label
_atom_site_fract_x
_atom_site_fract_y
_atom_site_fract_z
Si Si1 0.540672 0.734511 0.555317
Si Si2 0.093111 0.140727 0.631557
Si Si3 0.750000 0.250000 0.250000
Si Si4 0.420936 0.830741 0.718441
Si Si5 0.445950 0.934337 0.227695
Si Si6 0.532631 0.439139 0.056868
Si Si7 0.452257 0.435611 0.552511
Si Si8 0.974073 0.161962 0.887732
O O1 0.500000 0.715874 0.500000
O O2 0.750000 0.750000 0.553128
O O3 0.520666 0.695449 0.602857
O O4 0.445546 0.791500 0.571415
O O5 0.065023 0.111575 0.683757
O O6 0.984570 0.095893 0.598970
O O7 0.311509 0.153095 0.626962
O O8 0.602942 0.206829 0.273689
O O9 0.250000 0.811922 0.750000
O O10 0.449708 0.896328 0.732353
O O11 0.376055 0.826219 0.662005
O O12 0.250000 0.940902 0.250000
O O13 0.500000 0.000000 0.216781
O O14 0.500000 0.500000 0.076641
O O15 0.741711 0.427766 0.059328
O O16 0.422824 0.395057 0.086481
O O17 0.500000 0.438210 0.000000
O O18 0.500000 0.500000 0.552775
O O19 0.500000 0.412909 0.500000
#
# Coordination Sequence:
#
# PCOD9326414 Si02
#       8
#    16  16   4  16  16  16  16  16
#     4  10  22  42  70 103 146 197 246 317 402 471
#     4  10  21  41  67  98 135 198 243 300 408 454
#     4  12  26  52  88  98 172 188 254 346 384 466
#     4  12  27  50  77 119 147 211 265 322 402 480
#     4  12  25  48  75 108 159 203 266 343 408 474
#     4  10  20  37  60  91 135 190 235 296 391 440
#     4  10  19  34  56  89 129 167 235 306 355 457
#     4  10  22  41  69  99 145 189 251 311 382 472
#
# _framework density 23.528949000000001
#
# number of rings (size 3 to 8) (size 9 to 14) (size 15 to 20)
#    0.000    1.379    2.069    3.517    4.828    0.552 
#   12.414    0.000    0.000    0.000    0.000    0.000 
#    0.000    0.000    0.000    0.000    0.000    0.000 
#
# Total GULP energy -161449.900887 kJ/mol
# GULP energy per Si atom -5567.237962 kJ/mol
# Density = 2.347540 g / cm^3
# Si number density = 23.528949 Si / 1000 Ang^3
#
#
#
# Elastic Constant Matrix: (Units=GPa)
#
#
# Indices 1 2 3 4 5 6 
#
# 1 82.8836 11.4083 22.0172 0.0000 0.0000 0.0000
# 2 11.4083 136.3412 58.2663 0.0000 0.0000 0.0000
# 3 22.0172 58.2663 108.6907 0.0000 0.0000 0.0000
# 4 0.0000 0.0000 0.0000 2.1825 0.0000 0.0000
# 5 0.0000 0.0000 0.0000 0.0000 23.0051 0.0000
# 6 0.0000 0.0000 0.0000 0.0000 0.0000 29.1581
#
#
#
# Elastic Compliance Matrix: (Units=1/GPa)
#
#
# Indices 1 2 3 4 5 6 
#
# 1 0.012751 0.000048 -0.002609 0.000000 0.000000 0.000000
# 2 0.000048 0.009514 -0.005110 0.000000 0.000000 0.000000
# 3 -0.002609 -0.005110 0.012468 0.000000 0.000000 0.000000
# 4 0.000000 0.000000 0.000000 0.458194 0.000000 0.000000
# 5 0.000000 0.000000 0.000000 0.000000 0.043469 0.000000
# 6 0.000000 0.000000 0.000000 0.000000 0.000000 0.034296
#
#
# Mechanical properties :
#
#
# Convention : Reuss Voigt Hill
#
# Bulk Modulus (GPa) = 51.56703 56.81104 54.18903
# Shear Modulus (GPa) = 8.43885 26.61739 17.52812
#
# Velocity S-wave (km/s) = 1.89588 3.36707 2.73236
# Velocity P-wave (km/s) = 5.17267 6.27007 5.74762
#
# Compressibility (1/GPa) = 0.01939224
#
# Stress axis : x y z
#
# Youngs Moduli (GPa) = 78.42218 105.10408 80.20367
#
# Poissons Ratio (x) = -0.00503 0.20923
# Poissons Ratio (y) = -0.00375 0.40985
# Poissons Ratio (z) = 0.20458 0.53709
#
# Static dielectric constant tensor:
#      x y z
#    x 2.095600 0.000000 0.000000 
#    y 0.000000 1.950610 0.000000 
#    z 0.000000 0.000000 1.782880 
# 
# From -- ./inp_files/52127.got.cif
#   From: 2010.05.17/outbox.cif.g08.bks.cpg/sg22_27_cif.got.tgz:52127.got - 2010.06.03 23:40:54.
