data_PCOD9326383
_publ_section_title
;
Structure prediction by ZEFSAII (Michael W. Deem and Ramdas Pophale) SiO2 
 PCOD9326383
Probable space group: F 2 2 2
;
_chemical_formula_sum "Si O2"
_cell_formula_units_Z 116
_cell_length_a 21.471282
_cell_length_b 15.215705
_cell_length_c 17.642460
_cell_angle_alpha 90.000000
_cell_angle_beta 90.000000
_cell_angle_gamma 90.000000
_cell_volume 5763.803906
_symmetry_space_group_name_H-M "F 2 2 2"
_symmetry_group_IT_number 22
_symmetry_cell_setting 'orthorhombic'
loop_
_space_group_symop_operation_xyz
x,y,z
-x,-y,z
x,-y,-z
-x,y,-z
x,1/2+y,1/2+z
-x,1/2-y,1/2+z
x,1/2-y,1/2-z
-x,1/2+y,1/2-z
1/2+x,y,1/2+z
1/2-x,-y,1/2+z
1/2+x,-y,1/2-z
1/2-x,y,1/2-z
1/2+x,1/2+y,z
1/2-x,1/2-y,z
1/2+x,1/2-y,-z
1/2-x,1/2+y,-z
loop_
_atom_site_type_symbol
_atom_site_label
_atom_site_fract_x
_atom_site_fract_y
_atom_site_fract_z
Si Si1 0.680992 0.260925 0.926576
Si Si2 0.283319 0.053416 0.427655
Si Si3 0.299508 0.524703 0.316325
Si Si4 0.929250 0.297144 0.331599
Si Si5 0.891683 0.998544 0.810807
Si Si6 0.500000 0.500000 0.000000
Si Si7 0.184853 0.300413 0.912894
Si Si8 0.054418 0.851777 0.888336
O O1 0.750000 0.250000 0.886554
O O2 0.693582 0.356427 0.962901
O O3 0.614507 0.286222 0.889592
O O4 0.674494 0.194503 0.996357
O O5 0.264033 0.000000 0.500000
O O6 0.228233 0.053835 0.366517
O O7 0.339800 0.014022 0.377197
O O8 0.250000 0.549027 0.250000
O O9 0.359811 0.498316 0.270545
O O10 0.310125 0.606965 0.370675
O O11 0.934768 0.250000 0.250000
O O12 0.917414 0.401327 0.322164
O O13 0.871540 0.254019 0.375731
O O14 0.992807 0.294004 0.379511
O O15 0.936609 0.081745 0.818036
O O16 0.542047 0.571157 0.047260
O O17 0.250000 0.250000 0.900158
#
# Coordination Sequence:
#
# PCOD9326383 Si02
#       8
#    16  16  16  16  16   4  16  16
#     4  10  22  39  58  90 126 161 207 264 318 371
#     4  10  19  33  59  86 122 164 207 251 314 380
#     4  10  20  35  57  88 123 165 203 251 311 380
#     4  12  22  37  58  90 126 162 206 254 322 380
#     4  10  20  37  57  85 120 160 210 255 312 373
#     4  12  20  36  68  96 128 156 208 278 320 376
#     4  11  21  33  57  92 131 153 193 257 326 372
#     4  11  24  39  63  91 126 167 215 260 321 383
#
# _framework density 20.125596999999999
#
# number of rings (size 3 to 8) (size 9 to 14) (size 15 to 20)
#    0.000    1.379    2.759    4.966    3.862    0.000 
#    2.483    0.000    0.000    0.000    0.000    0.000 
#    0.000    0.000    0.000    0.000    0.000    0.000 
#
# Total GULP energy -161448.420680 kJ/mol
# GULP energy per Si atom -5567.186920 kJ/mol
# Density = 2.007979 g / cm^3
# Si number density = 20.125597 Si / 1000 Ang^3
#
#
#
# Elastic Constant Matrix: (Units=GPa)
#
#
# Indices 1 2 3 4 5 6 
#
# 1 118.5213 18.6913 12.7852 0.0000 0.0000 0.0000
# 2 18.6913 51.7996 20.4028 0.0000 0.0000 0.0000
# 3 12.7852 20.4028 44.3158 0.0000 0.0000 0.0000
# 4 0.0000 0.0000 0.0000 33.1688 0.0000 0.0000
# 5 0.0000 0.0000 0.0000 0.0000 24.3750 0.0000
# 6 0.0000 0.0000 0.0000 0.0000 0.0000 32.5550
#
#
#
# Elastic Compliance Matrix: (Units=1/GPa)
#
#
# Indices 1 2 3 4 5 6 
#
# 1 0.009012 -0.002721 -0.001347 0.000000 0.000000 0.000000
# 2 -0.002721 0.024403 -0.010450 0.000000 0.000000 0.000000
# 3 -0.001347 -0.010450 0.027765 0.000000 0.000000 0.000000
# 4 0.000000 0.000000 0.000000 0.030149 0.000000 0.000000
# 5 0.000000 0.000000 0.000000 0.000000 0.041026 0.000000
# 6 0.000000 0.000000 0.000000 0.000000 0.000000 0.030717
#
#
# Mechanical properties :
#
#
# Convention : Reuss Voigt Hill
#
# Bulk Modulus (GPa) = 31.11061 35.37725 33.24393
# Shear Modulus (GPa) = 24.65206 28.87026 26.76116
#
# Velocity S-wave (km/s) = 3.50367 3.79159 3.65047
# Velocity P-wave (km/s) = 5.64441 6.06503 5.85850
#
# Compressibility (1/GPa) = 0.03214338
#
# Stress axis : x y z
#
# Youngs Moduli (GPa) = 110.96615 40.97834 36.01639
#
# Poissons Ratio (x) = 0.11151 0.04852
# Poissons Ratio (y) = 0.30196 0.37637
# Poissons Ratio (z) = 0.14948 0.42823
#
# Static dielectric constant tensor:
#      x y z
#    x 1.832230 0.000000 0.000000 
#    y 0.000000 1.731380 0.000000 
#    z 0.000000 0.000000 1.743010 
# 
# From -- ./inp_files/39594.got.cif
#   From: 2010.05.17/outbox.cif.g08.bks.cpg/sg22_20_cif.got.tgz:39594.got - 2010.06.03 23:40:54.
