data_PCOD9326816
_publ_section_title
;
Structure prediction by ZEFSAII (Michael W. Deem and Ramdas Pophale) SiO2 
 PCOD9326816
Probable space group: F 2 2 2
;
_chemical_formula_sum "Si O2"
_cell_formula_units_Z 68
_cell_length_a 18.973633
_cell_length_b 20.756283
_cell_length_c 9.095762
_cell_angle_alpha 90.000000
_cell_angle_beta 90.000000
_cell_angle_gamma 90.000000
_cell_volume 3582.112056
_symmetry_space_group_name_H-M "F 2 2 2"
_symmetry_group_IT_number 22
_symmetry_cell_setting 'orthorhombic'
loop_
_space_group_symop_operation_xyz
x,y,z
-x,-y,z
x,-y,-z
-x,y,-z
x,1/2+y,1/2+z
-x,1/2-y,1/2+z
x,1/2-y,1/2-z
-x,1/2+y,1/2-z
1/2+x,y,1/2+z
1/2-x,-y,1/2+z
1/2+x,-y,1/2-z
1/2-x,y,1/2-z
1/2+x,1/2+y,z
1/2-x,1/2-y,z
1/2+x,1/2-y,-z
1/2-x,1/2+y,-z
loop_
_atom_site_type_symbol
_atom_site_label
_atom_site_fract_x
_atom_site_fract_y
_atom_site_fract_z
Si Si1 0.573399 0.827164 0.571351
Si Si2 0.250000 0.750000 0.250000
Si Si3 0.660415 0.066356 0.918393
Si Si4 0.881436 0.686364 0.899048
Si Si5 0.170297 0.932244 0.925944
O O1 0.500000 0.847044 0.500000
O O2 0.588022 0.752184 0.533908
O O3 0.577012 0.829916 0.748635
O O4 0.633626 0.873079 0.507476
O O5 0.197525 0.706101 0.154322
O O6 0.745085 0.074262 0.936645
O O7 0.648348 0.064842 0.744370
O O8 0.622312 0.126606 0.993143
O O9 0.640851 0.000000 0.000000
O O10 0.150717 0.000000 0.000000
#
# Coordination Sequence:
#
# PCOD9326816 Si02
#       5
#    16   4  16  16  16
#     4  10  22  38  56  78 110 152 187 223 272 329
#     4   8  16  32  56  82 108 140 180 230 284 328
#     4  10  20  35  58  86 112 141 181 233 287 333
#     4  10  20  35  58  82 110 146 186 231 277 330
#     4  10  21  36  57  84 114 145 181 230 283 334
#
# _framework density 18.983214
#
# number of rings (size 3 to 8) (size 9 to 14) (size 15 to 20)
#    0.000    2.353    0.000    4.235    0.000    8.941 
#    0.000    2.353    0.000    4.941    0.000    0.000 
#    0.000    0.000    0.000    0.000    0.000    0.000 
#
# Total GULP energy -94924.327605 kJ/mol
# GULP energy per Si atom -5583.783977 kJ/mol
# Density = 1.894001 g / cm^3
# Si number density = 18.983214 Si / 1000 Ang^3
#
#
#
# Elastic Constant Matrix: (Units=GPa)
#
#
# Indices 1 2 3 4 5 6 
#
# 1 34.5007 8.0125 17.4141 0.0000 0.0000 0.0000
# 2 8.0125 145.8702 86.0995 0.0000 0.0000 0.0000
# 3 17.4141 86.0995 102.3018 -0.0001 0.0000 0.0000
# 4 0.0000 0.0000 -0.0001 43.2947 0.0000 0.0000
# 5 0.0000 0.0000 0.0000 0.0000 4.2541 0.0000
# 6 0.0000 0.0000 0.0000 0.0000 0.0000 -11.5650
#
#
#
# Elastic Compliance Matrix: (Units=1/GPa)
#
#
# Indices 1 2 3 4 5 6 
#
# 1 0.032326 0.002926 -0.007965 0.000000 0.000000 0.000000
# 2 0.002926 0.013887 -0.012186 0.000000 0.000000 0.000000
# 3 -0.007965 -0.012186 0.021387 0.000000 0.000000 0.000000
# 4 0.000000 0.000000 0.000000 0.023098 0.000000 0.000000
# 5 0.000000 0.000000 0.000000 0.000000 0.235069 0.000000
# 6 0.000000 0.000000 0.000000 0.000000 0.000000 -0.086468
#
#
# Mechanical properties :
#
#
# Convention : Reuss Voigt Hill
#
# Bulk Modulus (GPa) = 30.16638 56.19166 43.17902
# Shear Modulus (GPa) = 17.55624 18.60653 18.08139
#
# Velocity S-wave (km/s) = 3.04440 3.13414 3.08960
# Velocity P-wave (km/s) = 5.31822 6.53927 5.96010
#
# Compressibility (1/GPa) = 0.03314949
#
# Stress axis : x y z
#
# Youngs Moduli (GPa) = 30.93515 72.00743 46.75782
#
# Poissons Ratio (x) = -0.21066 0.37242
# Poissons Ratio (y) = -0.09050 0.56979
# Poissons Ratio (z) = 0.24639 0.87748
#
# Static dielectric constant tensor:
#      x y z
#    x 1.657010 0.000000 0.000000 
#    y 0.000000 1.634950 0.000000 
#    z 0.000000 0.000000 1.641240 
# 
# From -- ./inp_files/11241.got.cif
#   From: 2010.05.17/outbox.cif.g08.bks.cpg/sg22_6_cif.got.tgz:11241.got - 2010.06.03 23:40:54.
