data_PCOD9326385
_publ_section_title
;
Structure prediction by ZEFSAII (Michael W. Deem and Ramdas Pophale) SiO2 
 PCOD9326385
Probable space group: F 2 2 2
;
_chemical_formula_sum "Si O2"
_cell_formula_units_Z 104
_cell_length_a 19.501599
_cell_length_b 26.898028
_cell_length_c 8.688893
_cell_angle_alpha 90.000000
_cell_angle_beta 90.000000
_cell_angle_gamma 90.000000
_cell_volume 4557.798409
_symmetry_space_group_name_H-M "F 2 2 2"
_symmetry_group_IT_number 22
_symmetry_cell_setting 'orthorhombic'
loop_
_space_group_symop_operation_xyz
x,y,z
-x,-y,z
x,-y,-z
-x,y,-z
x,1/2+y,1/2+z
-x,1/2-y,1/2+z
x,1/2-y,1/2-z
-x,1/2+y,1/2-z
1/2+x,y,1/2+z
1/2-x,-y,1/2+z
1/2+x,-y,1/2-z
1/2-x,y,1/2-z
1/2+x,1/2+y,z
1/2-x,1/2-y,z
1/2+x,1/2-y,-z
1/2-x,1/2+y,-z
loop_
_atom_site_type_symbol
_atom_site_label
_atom_site_fract_x
_atom_site_fract_y
_atom_site_fract_z
Si Si1 0.878254 0.249652 0.580312
Si Si2 0.374477 0.445796 0.550808
Si Si3 0.500000 0.818926 0.500000
Si Si4 0.593176 0.098237 0.358140
Si Si5 0.303500 0.838865 0.516146
Si Si6 0.641675 0.500000 0.000000
Si Si7 0.750000 0.980188 0.750000
Si Si8 0.150691 0.853962 0.637400
O O1 0.844424 0.250000 0.750000
O O2 0.826598 0.282333 0.477676
O O3 0.891471 0.191455 0.560380
O O4 0.947223 0.281788 0.581839
O O5 0.397144 0.500000 0.500000
O O6 0.417170 0.422016 0.688350
O O7 0.298076 0.452108 0.626130
O O8 0.373708 0.407706 0.411883
O O9 0.458509 0.857353 0.394407
O O10 0.667324 0.124214 0.388007
O O11 0.597036 0.048999 0.464879
O O12 0.225266 0.845090 0.560787
O O13 0.342865 0.851595 0.677746
O O14 0.692918 0.491924 0.853979
#
# Coordination Sequence:
#
# PCOD9326385 Si02
#       8
#    16  16   8  16  16   8   8  16
#     4   9  19  37  60  87 110 153 209 261 311 370
#     4  11  23  35  54  93 133 164 202 245 308 377
#     4  10  22  43  62  86 113 158 222 268 306 372
#     4  10  23  38  59  87 121 163 213 253 301 366
#     4   9  19  34  57  90 123 157 205 248 310 378
#     4  10  20  33  58  88 120 167 196 240 306 364
#     4  10  20  34  54  88 131 165 200 236 290 378
#     4  10  19  33  59  89 126 162 191 254 317 374
#
# _framework density 22.818034000000001
#
# number of rings (size 3 to 8) (size 9 to 14) (size 15 to 20)
#    0.000    2.154    0.769    2.308    4.308    3.385 
#    0.000    2.308    0.000    3.692   14.000    0.000 
#    0.000    0.000    0.000    0.000    0.000    0.000 
#
# Total GULP energy -145021.736879 kJ/mol
# GULP energy per Si atom -5577.759111 kJ/mol
# Density = 2.276610 g / cm^3
# Si number density = 22.818034 Si / 1000 Ang^3
#
#
#
# Elastic Constant Matrix: (Units=GPa)
#
#
# Indices 1 2 3 4 5 6 
#
# 1 47.5862 29.2038 10.1011 0.0001 -0.0002 0.0000
# 2 29.2038 173.4616 50.4806 0.0000 -0.0001 0.0000
# 3 10.1011 50.4806 62.4507 0.0001 -0.0005 0.0001
# 4 0.0001 0.0000 0.0001 33.9459 -0.0001 0.0000
# 5 -0.0002 -0.0001 -0.0005 -0.0001 8.3468 0.0000
# 6 0.0000 0.0000 0.0001 0.0000 0.0000 22.4734
#
#
#
# Elastic Compliance Matrix: (Units=1/GPa)
#
#
# Indices 1 2 3 4 5 6 
#
# 1 0.023466 -0.003722 -0.000787 0.000000 0.000000 0.000000
# 2 -0.003722 0.008128 -0.005969 0.000000 0.000000 0.000000
# 3 -0.000787 -0.005969 0.020964 0.000000 0.000001 0.000000
# 4 0.000000 0.000000 0.000000 0.029459 0.000000 0.000000
# 5 0.000000 0.000000 0.000001 0.000000 0.119807 0.000000
# 6 0.000000 0.000000 0.000000 0.000000 0.000000 0.044497
#
#
# Mechanical properties :
#
#
# Convention : Reuss Voigt Hill
#
# Bulk Modulus (GPa) = 31.64162 51.45217 41.54690
# Shear Modulus (GPa) = 17.99790 25.86742 21.93266
#
# Velocity S-wave (km/s) = 2.81153 3.37061 3.10368
# Velocity P-wave (km/s) = 4.94334 6.14377 5.57595
#
# Compressibility (1/GPa) = 0.03160394
#
# Stress axis : x y z
#
# Youngs Moduli (GPa) = 42.61570 123.02426 47.69973
#
# Poissons Ratio (x) = 0.45784 0.03755
# Poissons Ratio (y) = 0.15860 0.28470
# Poissons Ratio (z) = 0.03355 0.73427
#
# Static dielectric constant tensor:
#      x y z
#    x 1.878640 0.000000 0.000000 
#    y 0.000000 1.912070 0.000000 
#    z 0.000000 0.000000 1.870630 
# 
# From -- ./inp_files/12987.got.cif
#   From: 2010.05.17/outbox.cif.g08.bks.cpg/sg22_7_cif.got.tgz:12987.got - 2010.06.03 23:40:54.
