data_PCOD9326198
_publ_section_title
;
Structure prediction by ZEFSAII (Michael W. Deem and Ramdas Pophale) SiO2 
 PCOD9326198
Probable space group: F 2 2 2
;
_chemical_formula_sum "Si O2"
_cell_formula_units_Z 80
_cell_length_a 14.064466
_cell_length_b 21.278082
_cell_length_c 13.997501
_cell_angle_alpha 90.000000
_cell_angle_beta 90.000000
_cell_angle_gamma 90.000000
_cell_volume 4188.960189
_symmetry_space_group_name_H-M "F 2 2 2"
_symmetry_group_IT_number 22
_symmetry_cell_setting 'orthorhombic'
loop_
_space_group_symop_operation_xyz
x,y,z
-x,-y,z
x,-y,-z
-x,y,-z
x,1/2+y,1/2+z
-x,1/2-y,1/2+z
x,1/2-y,1/2-z
-x,1/2+y,1/2-z
1/2+x,y,1/2+z
1/2-x,-y,1/2+z
1/2+x,-y,1/2-z
1/2-x,y,1/2-z
1/2+x,1/2+y,z
1/2-x,1/2-y,z
1/2+x,1/2-y,-z
1/2-x,1/2+y,-z
loop_
_atom_site_type_symbol
_atom_site_label
_atom_site_fract_x
_atom_site_fract_y
_atom_site_fract_z
Si Si1 0.361706 0.868455 0.262452
Si Si2 0.102497 0.150287 0.546651
Si Si3 0.712252 0.906794 0.463957
Si Si4 0.393963 0.794855 0.460081
Si Si5 0.112753 0.989042 0.129931
O O1 0.250000 0.856591 0.250000
O O2 0.407784 0.856061 0.160525
O O3 0.391811 0.825405 0.353094
O O4 0.377264 0.942532 0.281385
O O5 0.179224 0.103238 0.497837
O O6 0.136570 0.222534 0.536564
O O7 0.000000 0.142480 0.500000
O O8 0.667962 0.837997 0.469889
O O9 0.676952 0.947831 0.373478
O O10 0.657192 0.944833 0.547419
O O11 0.500000 0.797990 0.500000
O O12 0.000000 0.000000 0.114191
#
# Coordination Sequence:
#
# PCOD9326198 Si02
#       5
#    16  16  16  16  16
#     4  11  21  40  64  95 125 165 219 260 313 380
#     4  11  23  38  56  96 134 167 197 260 334 380
#     4  10  18  35  60  84 119 158 208 255 305 362
#     4  10  20  35  66  93 124 161 216 268 309 368
#     4  10  20  37  61  84 116 157 218 260 299 360
#
# _framework density 19.097819000000001
#
# number of rings (size 3 to 8) (size 9 to 14) (size 15 to 20)
#    0.000    1.600    4.000    4.800    0.000    0.800 
#    3.600    2.000    0.000    0.000    0.000    5.600 
#    0.000    0.000    0.000    0.000    0.000    0.000 
#
# Total GULP energy -111363.301927 kJ/mol
# GULP energy per Si atom -5568.165096 kJ/mol
# Density = 1.905435 g / cm^3
# Si number density = 19.097819 Si / 1000 Ang^3
#
#
#
# Elastic Constant Matrix: (Units=GPa)
#
#
# Indices 1 2 3 4 5 6 
#
# 1 102.6786 51.7464 41.2149 0.0000 0.0000 0.0000
# 2 51.7464 101.1814 37.5120 0.0000 0.0000 0.0000
# 3 41.2149 37.5120 56.4149 0.0000 0.0000 0.0000
# 4 0.0000 0.0000 0.0000 30.1667 0.0000 0.0000
# 5 0.0000 0.0000 0.0000 0.0000 12.6005 0.0000
# 6 0.0000 0.0000 0.0000 0.0000 0.0000 36.4687
#
#
#
# Elastic Compliance Matrix: (Units=1/GPa)
#
#
# Indices 1 2 3 4 5 6 
#
# 1 0.015433 -0.004927 -0.007998 0.000000 0.000000 0.000000
# 2 -0.004927 0.014690 -0.006168 0.000000 0.000000 0.000000
# 3 -0.007998 -0.006168 0.027670 0.000000 0.000000 0.000000
# 4 0.000000 0.000000 0.000000 0.033149 0.000000 0.000000
# 5 0.000000 0.000000 0.000000 0.000000 0.079362 0.000000
# 6 0.000000 0.000000 0.000000 0.000000 0.000000 0.027421
#
#
# Mechanical properties :
#
#
# Convention : Reuss Voigt Hill
#
# Bulk Modulus (GPa) = 51.00552 57.91351 54.45951
# Shear Modulus (GPa) = 20.62297 24.50062 22.56179
#
# Velocity S-wave (km/s) = 3.28969 3.58565 3.44085
# Velocity P-wave (km/s) = 6.41832 6.89442 6.66063
#
# Compressibility (1/GPa) = 0.01960572
#
# Stress axis : x y z
#
# Youngs Moduli (GPa) = 64.79657 68.07377 36.13963
#
# Poissons Ratio (x) = 0.33543 0.28906
# Poissons Ratio (y) = 0.31928 0.22291
# Poissons Ratio (z) = 0.51827 0.41988
#
# Static dielectric constant tensor:
#      x y z
#    x 1.645580 0.000000 0.000000 
#    y 0.000000 1.750380 0.000000 
#    z 0.000000 0.000000 1.699030 
# 
# From -- ./inp_files/29161.got.cif
#   From: 2010.05.17/outbox.cif.g08.bks.cpg/sg22_15_cif.got.tgz:29161.got - 2010.06.03 23:40:54.
