data_PCOD9326823
_publ_section_title
;
Structure prediction by ZEFSAII (Michael W. Deem and Ramdas Pophale) SiO2 
 PCOD9326823
Probable space group: F 2 2 2
;
_chemical_formula_sum "Si O2"
_cell_formula_units_Z 64
_cell_length_a 29.461943
_cell_length_b 19.443721
_cell_length_c 5.363345
_cell_angle_alpha 90.000000
_cell_angle_beta 90.000000
_cell_angle_gamma 90.000000
_cell_volume 3072.391110
_symmetry_space_group_name_H-M "F 2 2 2"
_symmetry_group_IT_number 22
_symmetry_cell_setting 'orthorhombic'
loop_
_space_group_symop_operation_xyz
x,y,z
-x,-y,z
x,-y,-z
-x,y,-z
x,1/2+y,1/2+z
-x,1/2-y,1/2+z
x,1/2-y,1/2-z
-x,1/2+y,1/2-z
1/2+x,y,1/2+z
1/2-x,-y,1/2+z
1/2+x,-y,1/2-z
1/2-x,y,1/2-z
1/2+x,1/2+y,z
1/2-x,1/2-y,z
1/2+x,1/2-y,-z
1/2-x,1/2+y,-z
loop_
_atom_site_type_symbol
_atom_site_label
_atom_site_fract_x
_atom_site_fract_y
_atom_site_fract_z
Si Si1 0.695799 0.000000 0.000000
Si Si2 0.250000 0.117224 0.250000
Si Si3 0.152652 0.829300 0.785043
Si Si4 0.625934 0.590183 0.723070
Si Si5 0.019470 0.922724 0.252329
O O1 0.728529 0.935967 0.052261
O O2 0.660895 0.025694 0.214139
O O3 0.207003 0.162528 0.178128
O O4 0.140581 0.750000 0.750000
O O5 0.137114 0.869778 0.535439
O O6 0.133146 0.863363 0.034190
O O7 0.573386 0.570314 0.729948
O O8 0.000000 0.887511 0.500000
O O9 0.000000 0.000000 0.251107
O O10 0.000000 0.889628 0.000000
#
# Coordination Sequence:
#
# PCOD9326823 Si02
#       5
#     8   8  16  16  16
#     4  10  20  36  61  96 132 156 199 260 330 374
#     4  10  21  36  60  90 123 162 204 256 308 360
#     4  11  24  42  62  85 122 170 216 250 289 359
#     4  11  23  39  64  93 124 161 199 255 316 370
#     4  10  20  35  59  91 122 150 185 237 305 380
#
# _framework density 20.830680999999998
#
# number of rings (size 3 to 8) (size 9 to 14) (size 15 to 20)
#    0.000    1.500    0.000    5.625    0.000   12.000 
#    0.000    5.000    0.000   15.000    0.000    0.000 
#    0.000    0.000    0.000    0.000    0.000    0.000 
#
# Total GULP energy -89308.752378 kJ/mol
# GULP energy per Si atom -5581.797024 kJ/mol
# Density = 2.078327 g / cm^3
# Si number density = 20.830681 Si / 1000 Ang^3
#
#
#
# Elastic Constant Matrix: (Units=GPa)
#
#
# Indices 1 2 3 4 5 6 
#
# 1 164.5685 14.5901 52.2198 0.0000 0.0005 -0.0006
# 2 14.5901 77.2406 39.8261 0.0014 0.0000 0.0004
# 3 52.2198 39.8261 177.5238 0.0029 -0.0004 -0.0013
# 4 0.0000 0.0014 0.0029 24.6043 0.0003 0.0004
# 5 0.0005 0.0000 -0.0004 0.0003 30.7471 0.0016
# 6 -0.0006 0.0004 -0.0013 0.0004 0.0016 43.3531
#
#
#
# Elastic Compliance Matrix: (Units=1/GPa)
#
#
# Indices 1 2 3 4 5 6 
#
# 1 0.006708 -0.000282 -0.001910 0.000000 0.000000 0.000000
# 2 -0.000282 0.014652 -0.003204 0.000000 0.000000 0.000000
# 3 -0.001910 -0.003204 0.006914 -0.000001 0.000000 0.000000
# 4 0.000000 0.000000 -0.000001 0.040643 0.000000 0.000000
# 5 0.000000 0.000000 0.000000 0.000000 0.032523 -0.000001
# 6 0.000000 0.000000 0.000000 0.000000 -0.000001 0.023066
#
#
# Mechanical properties :
#
#
# Convention : Reuss Voigt Hill
#
# Bulk Modulus (GPa) = 57.20518 70.28942 63.74730
# Shear Modulus (GPa) = 35.42955 40.58736 38.00846
#
# Velocity S-wave (km/s) = 4.12859 4.41890 4.27621
# Velocity P-wave (km/s) = 7.08863 7.73641 7.41959
#
# Compressibility (1/GPa) = 0.01748093
#
# Stress axis : x y z
#
# Youngs Moduli (GPa) = 149.08669 68.25053 144.64257
#
# Poissons Ratio (x) = 0.01927 0.27623
# Poissons Ratio (y) = 0.04209 0.46343
# Poissons Ratio (z) = 0.28471 0.21867
#
# Static dielectric constant tensor:
#      x y z
#    x 1.740310 0.000000 -0.000010 
#    y 0.000000 1.712850 0.000000 
#    z -0.000010 0.000000 1.622140 
# 
# From -- ./inp_files/3708.got.cif
#   From: 2010.05.17/outbox.cif.g08.bks.cpg/sg22_2_cif.got.tgz:3708.got - 2010.06.03 23:40:54.
