data_PCOD9326332
_publ_section_title
;
Structure prediction by ZEFSAII (Michael W. Deem and Ramdas Pophale) SiO2 
 PCOD9326332
Probable space group: F 2 2 2
;
_chemical_formula_sum "Si O2"
_cell_formula_units_Z 112
_cell_length_a 24.457164
_cell_length_b 12.697981
_cell_length_c 20.880583
_cell_angle_alpha 90.000000
_cell_angle_beta 90.000000
_cell_angle_gamma 90.000000
_cell_volume 6484.602942
_symmetry_space_group_name_H-M "F 2 2 2"
_symmetry_group_IT_number 22
_symmetry_cell_setting 'orthorhombic'
loop_
_space_group_symop_operation_xyz
x,y,z
-x,-y,z
x,-y,-z
-x,y,-z
x,1/2+y,1/2+z
-x,1/2-y,1/2+z
x,1/2-y,1/2-z
-x,1/2+y,1/2-z
1/2+x,y,1/2+z
1/2-x,-y,1/2+z
1/2+x,-y,1/2-z
1/2-x,y,1/2-z
1/2+x,1/2+y,z
1/2-x,1/2-y,z
1/2+x,1/2-y,-z
1/2-x,1/2+y,-z
loop_
_atom_site_type_symbol
_atom_site_label
_atom_site_fract_x
_atom_site_fract_y
_atom_site_fract_z
Si Si1 0.594655 0.595579 0.917835
Si Si2 0.392467 0.135978 0.729694
Si Si3 0.007287 0.763249 0.928093
Si Si4 0.876855 0.146390 0.947219
Si Si5 0.872481 0.902294 0.267519
Si Si6 0.496446 0.879956 0.805194
Si Si7 0.813654 0.262408 0.659158
O O1 0.610963 0.625490 0.846467
O O2 0.531629 0.633131 0.926647
O O3 0.607635 0.473282 0.928714
O O4 0.625493 0.653257 0.976158
O O5 0.369738 0.250000 0.750000
O O6 0.455909 0.134478 0.752980
O O7 0.368374 0.028289 0.760068
O O8 0.070761 0.789657 0.922681
O O9 0.993165 0.693513 0.866451
O O10 0.000000 0.716654 0.000000
O O11 0.824935 0.190807 0.910587
O O12 0.936456 0.870832 0.273577
O O13 0.842329 0.849995 0.328056
O O14 0.843807 0.844125 0.207477
O O15 0.500000 0.000000 0.828589
O O16 0.750000 0.250000 0.673096
#
# Coordination Sequence:
#
# PCOD9326332 Si02
#       7
#    16  16  16  16  16  16  16
#     4  10  20  33  53  84 112 152 187 220 285 350
#     4  11  21  33  55  85 120 156 183 219 274 365
#     4  10  19  32  51  79 117 155 190 222 272 348
#     4  10  20  35  56  81 114 146 186 245 283 325
#     4  10  21  35  53  84 118 147 186 238 290 325
#     4  10  21  31  49  81 117 158 186 219 277 346
#     4  11  22  37  62  86 107 146 194 252 293 329
#
# _framework density 17.271682999999999
#
# number of rings (size 3 to 8) (size 9 to 14) (size 15 to 20)
#    0.000    1.714    4.286    1.286    4.000    3.143 
#    0.000    0.000    0.000    6.000    0.000    0.000 
#    0.000    0.000    0.000    0.000    0.000    0.000 
#
# Total GULP energy -156030.925697 kJ/mol
# GULP energy per Si atom -5572.533061 kJ/mol
# Density = 1.723237 g / cm^3
# Si number density = 17.271683 Si / 1000 Ang^3
#
#
#
# Elastic Constant Matrix: (Units=GPa)
#
#
# Indices 1 2 3 4 5 6 
#
# 1 74.6910 33.2149 23.9208 0.0000 0.0000 0.0000
# 2 33.2149 111.2788 46.0861 0.0000 0.0000 0.0000
# 3 23.9208 46.0861 120.8267 0.0000 0.0000 0.0000
# 4 0.0000 0.0000 0.0000 24.9551 0.0000 0.0000
# 5 0.0000 0.0000 0.0000 0.0000 11.2184 0.0000
# 6 0.0000 0.0000 0.0000 0.0000 0.0000 15.4913
#
#
#
# Elastic Compliance Matrix: (Units=1/GPa)
#
#
# Indices 1 2 3 4 5 6 
#
# 1 0.015683 -0.004032 -0.001567 0.000000 0.000000 0.000000
# 2 -0.004032 0.011709 -0.003668 0.000000 0.000000 0.000000
# 3 -0.001567 -0.003668 0.009986 0.000000 0.000000 0.000000
# 4 0.000000 0.000000 0.000000 0.040072 0.000000 0.000000
# 5 0.000000 0.000000 0.000000 0.000000 0.089139 0.000000
# 6 0.000000 0.000000 0.000000 0.000000 0.000000 0.064552
#
#
# Mechanical properties :
#
#
# Convention : Reuss Voigt Hill
#
# Bulk Modulus (GPa) = 53.06745 57.02668 55.04706
# Shear Modulus (GPa) = 19.53453 23.90461 21.71957
#
# Velocity S-wave (km/s) = 3.36670 3.72430 3.55001
# Velocity P-wave (km/s) = 6.77530 7.18213 6.98168
#
# Compressibility (1/GPa) = 0.01884394
#
# Stress axis : x y z
#
# Youngs Moduli (GPa) = 63.76128 85.40415 100.14508
#
# Poissons Ratio (x) = 0.34438 0.15692
# Poissons Ratio (y) = 0.25711 0.36731
# Poissons Ratio (z) = 0.09991 0.31324
#
# Static dielectric constant tensor:
#      x y z
#    x 1.569240 0.000000 0.000000 
#    y 0.000000 1.617760 0.000000 
#    z 0.000000 0.000000 1.616010 
# 
# From -- ./inp_files/45348.got.cif
#   From: 2010.05.17/outbox.cif.g08.bks.cpg/sg22_23_cif.got.tgz:45348.got - 2010.06.03 23:40:54.
