data_PCOD9326720
_publ_section_title
;
Structure prediction by ZEFSAII (Michael W. Deem and Ramdas Pophale) SiO2 
 PCOD9326720
Probable space group: F 2 2 2
;
_chemical_formula_sum "Si O2"
_cell_formula_units_Z 88
_cell_length_a 21.919663
_cell_length_b 18.870672
_cell_length_c 11.236751
_cell_angle_alpha 90.000000
_cell_angle_beta 90.000000
_cell_angle_gamma 90.000000
_cell_volume 4647.955872
_symmetry_space_group_name_H-M "F 2 2 2"
_symmetry_group_IT_number 22
_symmetry_cell_setting 'orthorhombic'
loop_
_space_group_symop_operation_xyz
x,y,z
-x,-y,z
x,-y,-z
-x,y,-z
x,1/2+y,1/2+z
-x,1/2-y,1/2+z
x,1/2-y,1/2-z
-x,1/2+y,1/2-z
1/2+x,y,1/2+z
1/2-x,-y,1/2+z
1/2+x,-y,1/2-z
1/2-x,y,1/2-z
1/2+x,1/2+y,z
1/2-x,1/2-y,z
1/2+x,1/2-y,-z
1/2-x,1/2+y,-z
loop_
_atom_site_type_symbol
_atom_site_label
_atom_site_fract_x
_atom_site_fract_y
_atom_site_fract_z
Si Si1 0.843051 0.445265 0.105665
Si Si2 0.250000 0.541818 0.750000
Si Si3 0.745042 0.169083 0.393133
Si Si4 0.519444 0.917188 0.869655
Si Si5 0.832193 0.079093 0.951963
Si Si6 0.027934 0.580531 0.620780
O O1 0.802780 0.490527 0.198290
O O2 0.800340 0.380946 0.064498
O O3 0.907796 0.416544 0.148956
O O4 0.856746 0.500000 0.000000
O O5 0.217402 0.588737 0.651121
O O6 0.750000 0.167626 0.250000
O O7 0.750000 0.250000 0.432445
O O8 0.683499 0.133341 0.442828
O O9 0.488531 0.887327 0.749538
O O10 0.500000 0.000000 0.873843
O O11 0.500000 0.887677 0.000000
O O12 0.899903 0.080204 0.900317
O O13 0.820807 0.000000 0.000000
O O14 0.000000 0.500000 0.624229
O O15 0.000000 0.613498 0.500000
#
# Coordination Sequence:
#
# PCOD9326720 Si02
#       6
#    16   8  16  16  16  16
#     4  12  20  35  61  90 121 151 198 255 299 359
#     4  12  20  32  58  92 114 148 194 252 312 348
#     4  11  24  40  58  86 120 165 206 247 304 361
#     4  10  20  33  52  88 119 153 189 242 305 358
#     4  12  21  36  59  88 121 153 198 254 299 360
#     4  10  20  32  51  87 121 148 185 246 304 351
#
# _framework density 18.933055
#
# number of rings (size 3 to 8) (size 9 to 14) (size 15 to 20)
#    0.000    0.909    8.182    2.182    2.545    0.000 
#    0.000    0.455    0.000    1.091    0.000    0.000 
#    0.000    0.000    0.000    0.000    0.000    0.000 
#
# Total GULP energy -122709.634731 kJ/mol
# GULP energy per Si atom -5577.710670 kJ/mol
# Density = 1.888996 g / cm^3
# Si number density = 18.933055 Si / 1000 Ang^3
#
#
#
# Elastic Constant Matrix: (Units=GPa)
#
#
# Indices 1 2 3 4 5 6 
#
# 1 128.9725 10.0356 45.2564 0.0000 0.0000 0.0000
# 2 10.0356 59.0046 9.5513 0.0000 0.0000 0.0000
# 3 45.2564 9.5513 139.9296 0.0000 0.0000 0.0000
# 4 0.0000 0.0000 0.0000 10.3007 0.0000 0.0000
# 5 0.0000 0.0000 0.0000 0.0000 67.7841 0.0000
# 6 0.0000 0.0000 0.0000 0.0000 0.0000 1.4955
#
#
#
# Elastic Compliance Matrix: (Units=1/GPa)
#
#
# Indices 1 2 3 4 5 6 
#
# 1 0.008810 -0.001049 -0.002778 0.000000 0.000000 0.000000
# 2 -0.001049 0.017262 -0.000839 0.000000 0.000000 0.000000
# 3 -0.002778 -0.000839 0.008102 0.000000 0.000000 0.000000
# 4 0.000000 0.000000 0.000000 0.097081 0.000000 0.000000
# 5 0.000000 0.000000 0.000000 0.000000 0.014753 0.000000
# 6 0.000000 0.000000 0.000000 0.000000 0.000000 0.668694
#
#
# Mechanical properties :
#
#
# Convention : Reuss Voigt Hill
#
# Bulk Modulus (GPa) = 40.25293 50.84367 45.54830
# Shear Modulus (GPa) = 6.00735 33.45361 19.73048
#
# Velocity S-wave (km/s) = 1.78321 4.20806 3.23169
# Velocity P-wave (km/s) = 5.05436 7.10796 6.16724
#
# Compressibility (1/GPa) = 0.02484291
#
# Stress axis : x y z
#
# Youngs Moduli (GPa) = 113.50864 57.93058 123.42469
#
# Poissons Ratio (x) = 0.06076 0.34284
# Poissons Ratio (y) = 0.11904 0.10356
# Poissons Ratio (z) = 0.31530 0.04861
#
# Static dielectric constant tensor:
#      x y z
#    x 1.683620 0.000000 0.000000 
#    y 0.000000 1.611930 0.000000 
#    z 0.000000 0.000000 1.765960 
# 
# From -- ./inp_files/22592.got.cif
#   From: 2010.05.17/outbox.cif.g08.bks.cpg/sg22_12_cif.got.tgz:22592.got - 2010.06.03 23:40:54.
