data_PCOD9326877
_publ_section_title
;
Structure prediction by ZEFSAII (Michael W. Deem and Ramdas Pophale) SiO2 
 PCOD9326877
Probable space group: F 2 2 2
;
_chemical_formula_sum "Si O2"
_cell_formula_units_Z 84
_cell_length_a 16.287546
_cell_length_b 18.449387
_cell_length_c 11.893234
_cell_angle_alpha 90.000000
_cell_angle_beta 90.000000
_cell_angle_gamma 90.000000
_cell_volume 3573.860198
_symmetry_space_group_name_H-M "F 2 2 2"
_symmetry_group_IT_number 22
_symmetry_cell_setting 'orthorhombic'
loop_
_space_group_symop_operation_xyz
x,y,z
-x,-y,z
x,-y,-z
-x,y,-z
x,1/2+y,1/2+z
-x,1/2-y,1/2+z
x,1/2-y,1/2-z
-x,1/2+y,1/2-z
1/2+x,y,1/2+z
1/2-x,-y,1/2+z
1/2+x,-y,1/2-z
1/2-x,y,1/2-z
1/2+x,1/2+y,z
1/2-x,1/2-y,z
1/2+x,1/2-y,-z
1/2-x,1/2+y,-z
loop_
_atom_site_type_symbol
_atom_site_label
_atom_site_fract_x
_atom_site_fract_y
_atom_site_fract_z
Si Si1 0.872625 0.974965 0.324925
Si Si2 0.208779 0.849477 0.075152
Si Si3 0.267505 0.000000 0.500000
Si Si4 0.000000 0.000000 0.500000
Si Si5 0.668326 0.842594 0.325380
Si Si6 0.878850 0.851995 0.697475
Si Si7 0.518271 0.250000 0.750000
O O1 0.860467 0.922837 0.219071
O O2 0.942575 0.954341 0.415931
O O3 0.791007 0.970019 0.401179
O O4 0.888649 0.060163 0.299211
O O5 0.155381 0.826003 0.180902
O O6 0.303728 0.841453 0.110916
O O7 0.186809 0.934327 0.056790
O O8 0.194409 0.822634 0.951232
O O9 0.750000 0.827656 0.250000
O O10 0.583201 0.799440 0.314704
O O11 0.959947 0.804869 0.680044
#
# Coordination Sequence:
#
# PCOD9326877 Si02
#       7
#    16  16   8   4  16  16   8
#     4  10  20  38  73 103 145 176 247 296 366 415
#     4  10  21  42  76 105 143 186 248 292 373 426
#     4   9  16  35  68 111 131 178 230 306 345 420
#     4  10  20  36  60 114 146 188 222 298 376 440
#     4  12  25  48  72 109 144 191 243 311 358 436
#     4  10  24  47  72 111 142 197 238 304 357 448
#     4  12  29  51  64 102 160 192 246 283 367 436
#
# _framework density 23.503996999999998
#
# number of rings (size 3 to 8) (size 9 to 14) (size 15 to 20)
#    0.000    1.524    1.905    2.571    2.667    2.286 
#   10.286    0.000    0.000    4.571    0.000    0.000 
#    0.000    0.000    0.000    0.000    0.000    0.000 
#
# Total GULP energy -117172.457611 kJ/mol
# GULP energy per Si atom -5579.640839 kJ/mol
# Density = 2.345050 g / cm^3
# Si number density = 23.503997 Si / 1000 Ang^3
#
#
#
# Elastic Constant Matrix: (Units=GPa)
#
#
# Indices 1 2 3 4 5 6 
#
# 1 135.7455 61.5759 64.1628 0.0000 0.0000 0.0000
# 2 61.5759 124.8618 44.2232 0.0000 0.0000 0.0000
# 3 64.1628 44.2232 140.7727 0.0000 0.0000 0.0000
# 4 0.0000 0.0000 0.0000 11.7337 0.0000 0.0000
# 5 0.0000 0.0000 0.0000 0.0000 26.3486 0.0000
# 6 0.0000 0.0000 0.0000 0.0000 0.0000 42.9901
#
#
#
# Elastic Compliance Matrix: (Units=1/GPa)
#
#
# Indices 1 2 3 4 5 6 
#
# 1 0.010984 -0.004100 -0.003718 0.000000 0.000000 0.000000
# 2 -0.004100 0.010542 -0.001443 0.000000 0.000000 0.000000
# 3 -0.003718 -0.001443 0.009252 0.000000 0.000000 0.000000
# 4 0.000000 0.000000 0.000000 0.085225 0.000000 0.000000
# 5 0.000000 0.000000 0.000000 0.000000 0.037953 0.000000
# 6 0.000000 0.000000 0.000000 0.000000 0.000000 0.023261
#
#
# Mechanical properties :
#
#
# Convention : Reuss Voigt Hill
#
# Bulk Modulus (GPa) = 81.59906 82.36708 81.98307
# Shear Modulus (GPa) = 25.02203 31.64233 28.33218
#
# Velocity S-wave (km/s) = 3.26634 3.67311 3.47568
# Velocity P-wave (km/s) = 7.00127 7.28759 7.14586
#
# Compressibility (1/GPa) = 0.01225504
#
# Stress axis : x y z
#
# Youngs Moduli (GPa) = 91.04089 94.86071 108.08691
#
# Poissons Ratio (x) = 0.38891 0.40192
# Poissons Ratio (y) = 0.37325 0.15597
# Poissons Ratio (z) = 0.33853 0.13688
#
# Static dielectric constant tensor:
#      x y z
#    x 1.874300 0.000000 0.000000 
#    y 0.000000 2.054050 0.000000 
#    z 0.000000 0.000000 1.877420 
# 
# From -- ./inp_files/21349.got.cif
#   From: 2010.05.17/outbox.cif.g08.bks.cpg/sg22_11_cif.got.tgz:21349.got - 2010.06.03 23:40:54.
