data_PCOD9326507
_publ_section_title
;
Structure prediction by ZEFSAII (Michael W. Deem and Ramdas Pophale) SiO2 
 PCOD9326507
Probable space group: F 2 2 2
;
_chemical_formula_sum "Si O2"
_cell_formula_units_Z 96
_cell_length_a 26.740694
_cell_length_b 13.742732
_cell_length_c 13.590150
_cell_angle_alpha 90.000000
_cell_angle_beta 90.000000
_cell_angle_gamma 90.000000
_cell_volume 4994.246821
_symmetry_space_group_name_H-M "F 2 2 2"
_symmetry_group_IT_number 22
_symmetry_cell_setting 'orthorhombic'
loop_
_space_group_symop_operation_xyz
x,y,z
-x,-y,z
x,-y,-z
-x,y,-z
x,1/2+y,1/2+z
-x,1/2-y,1/2+z
x,1/2-y,1/2-z
-x,1/2+y,1/2-z
1/2+x,y,1/2+z
1/2-x,-y,1/2+z
1/2+x,-y,1/2-z
1/2-x,y,1/2-z
1/2+x,1/2+y,z
1/2-x,1/2-y,z
1/2+x,1/2-y,-z
1/2-x,1/2+y,-z
loop_
_atom_site_type_symbol
_atom_site_label
_atom_site_fract_x
_atom_site_fract_y
_atom_site_fract_z
Si Si1 0.577858 0.188726 0.345525
Si Si2 0.925117 0.909959 0.431460
Si Si3 0.842740 0.343802 0.079086
Si Si4 0.750000 0.750000 0.488771
Si Si5 0.876804 0.992738 0.743927
Si Si6 0.801321 0.846750 0.192762
Si Si7 0.000000 0.249620 0.000000
O O1 0.560195 0.250000 0.250000
O O2 0.625610 0.250702 0.383820
O O3 0.535035 0.190191 0.426912
O O4 0.595295 0.082681 0.313853
O O5 0.872368 0.879103 0.481688
O O6 0.915683 0.946632 0.322202
O O7 0.963249 0.821743 0.440341
O O8 0.942402 0.000000 0.500000
O O9 0.847880 0.425904 0.162889
O O10 0.786683 0.315666 0.053133
O O11 0.784853 0.686082 0.415895
O O12 0.840124 0.066393 0.798746
O O13 0.820646 0.750000 0.250000
O O14 0.750000 0.873077 0.250000
#
# Coordination Sequence:
#
# PCOD9326507 Si02
#       7
#    16  16  16   8  16  16   8
#     4   9  20  38  59  87 121 151 186 238 291 345
#     4   9  17  31  57  86 109 146 198 240 277 334
#     4   9  19  35  56  84 117 152 191 232 278 338
#     4  10  19  36  57  80 116 154 190 234 280 330
#     4  10  19  36  59  84 114 147 189 240 288 336
#     4   9  19  34  53  81 114 149 193 235 274 331
#     4  10  19  36  62  86 113 152 194 238 290 346
#
# _framework density 19.222117999999998
#
# number of rings (size 3 to 8) (size 9 to 14) (size 15 to 20)
#    0.000    2.833    0.000    3.250    0.000    1.333 
#    0.000   11.250    0.000    4.000    0.000    1.167 
#    0.000    0.000    0.000    0.000    0.000    0.000 
#
# Total GULP energy -133973.226417 kJ/mol
# GULP energy per Si atom -5582.217767 kJ/mol
# Density = 1.917837 g / cm^3
# Si number density = 19.222118 Si / 1000 Ang^3
#
#
#
# Elastic Constant Matrix: (Units=GPa)
#
#
# Indices 1 2 3 4 5 6 
#
# 1 87.2805 72.4278 45.7818 0.0000 0.0000 0.0000
# 2 72.4278 117.6126 60.1129 0.0000 0.0000 0.0000
# 3 45.7818 60.1129 80.5757 0.0000 0.0000 0.0000
# 4 0.0000 0.0000 0.0000 24.7407 0.0000 0.0000
# 5 0.0000 0.0000 0.0000 0.0000 2.6356 0.0000
# 6 0.0000 0.0000 0.0000 0.0000 0.0000 9.4720
#
#
#
# Elastic Compliance Matrix: (Units=1/GPa)
#
#
# Indices 1 2 3 4 5 6 
#
# 1 0.024309 -0.012786 -0.004273 0.000000 0.000000 0.000000
# 2 -0.012786 0.020468 -0.008005 0.000000 0.000000 0.000000
# 3 -0.004273 -0.008005 0.020811 0.000000 0.000000 0.000000
# 4 0.000000 0.000000 0.000000 0.040419 0.000000 0.000000
# 5 0.000000 0.000000 0.000000 0.000000 0.379425 0.000000
# 6 0.000000 0.000000 0.000000 0.000000 0.000000 0.105575
#
#
# Mechanical properties :
#
#
# Convention : Reuss Voigt Hill
#
# Bulk Modulus (GPa) = 64.68628 71.34596 68.01612
# Shear Modulus (GPa) = 7.73651 14.51274 11.12462
#
# Velocity S-wave (km/s) = 2.00837 2.75071 2.40831
# Velocity P-wave (km/s) = 6.25325 6.87646 6.57225
#
# Compressibility (1/GPa) = 0.01545923
#
# Stress axis : x y z
#
# Youngs Moduli (GPa) = 41.13780 48.85787 48.05201
#
# Poissons Ratio (x) = 0.62467 0.20533
# Poissons Ratio (y) = 0.52597 0.38466
# Poissons Ratio (z) = 0.17579 0.39111
#
# Static dielectric constant tensor:
#      x y z
#    x 1.656020 0.000000 0.000000 
#    y 0.000000 1.663780 0.000000 
#    z 0.000000 0.000000 1.678580 
# 
# From -- ./inp_files/33489.got.cif
#   From: 2010.05.17/outbox.cif.g08.bks.cpg/sg22_17_cif.got.tgz:33489.got - 2010.06.03 23:40:54.
