data_PCOD9326435
_publ_section_title
;
Structure prediction by ZEFSAII (Michael W. Deem and Ramdas Pophale) SiO2 
 PCOD9326435
Probable space group: F 2 2 2
;
_chemical_formula_sum "Si O2"
_cell_formula_units_Z 48
_cell_length_a 16.876126
_cell_length_b 7.879214
_cell_length_c 14.544252
_cell_angle_alpha 90.000000
_cell_angle_beta 90.000000
_cell_angle_gamma 90.000000
_cell_volume 1933.958035
_symmetry_space_group_name_H-M "F 2 2 2"
_symmetry_group_IT_number 22
_symmetry_cell_setting 'orthorhombic'
loop_
_space_group_symop_operation_xyz
x,y,z
-x,-y,z
x,-y,-z
-x,y,-z
x,1/2+y,1/2+z
-x,1/2-y,1/2+z
x,1/2-y,1/2-z
-x,1/2+y,1/2-z
1/2+x,y,1/2+z
1/2-x,-y,1/2+z
1/2+x,-y,1/2-z
1/2-x,y,1/2-z
1/2+x,1/2+y,z
1/2-x,1/2-y,z
1/2+x,1/2-y,-z
1/2-x,1/2+y,-z
loop_
_atom_site_type_symbol
_atom_site_label
_atom_site_fract_x
_atom_site_fract_y
_atom_site_fract_z
Si Si1 0.091033 0.999496 0.728192
Si Si2 0.341613 0.186981 0.619165
Si Si3 0.164092 0.322933 0.062299
O O1 0.145598 0.022898 0.818012
O O2 0.107196 0.168114 0.668118
O O3 0.114322 0.857269 0.653798
O O4 0.000000 0.000000 0.755722
O O5 0.250000 0.250000 0.624490
O O6 0.367256 0.191133 0.513643
O O7 0.250000 0.250000 0.086813
O O8 0.171386 0.500000 0.000000
#
# Coordination Sequence:
#
# PCOD9326435 Si02
#       3
#    16  16  16
#     4  10  19  34  60  90 122 161 203 256 318 369
#     4   9  19  39  62  82 120 171 206 248 313 375
#     4   9  19  37  64  90 120 165 211 254 308 372
#
# _framework density 24.819566999999999
#
# number of rings (size 3 to 8) (size 9 to 14) (size 15 to 20)
#    0.000    2.667    0.000    2.000    0.000    7.333 
#    0.000   26.667    0.000   24.000    0.000    0.000 
#    0.000    0.000    0.000    0.000    0.000    0.000 
#
# Total GULP energy -67022.291152 kJ/mol
# GULP energy per Si atom -5585.190929 kJ/mol
# Density = 2.476308 g / cm^3
# Si number density = 24.819567 Si / 1000 Ang^3
#
#
#
# Elastic Constant Matrix: (Units=GPa)
#
#
# Indices 1 2 3 4 5 6 
#
# 1 87.8498 18.2408 56.1283 0.0000 0.0000 0.0000
# 2 18.2408 103.7818 44.1120 0.0000 0.0000 0.0000
# 3 56.1283 44.1120 224.1131 0.0000 0.0000 0.0000
# 4 0.0000 0.0000 0.0000 32.5920 0.0000 0.0000
# 5 0.0000 0.0000 0.0000 0.0000 168.8912 0.0000
# 6 0.0000 0.0000 0.0000 0.0000 0.0000 35.9864
#
#
#
# Elastic Compliance Matrix: (Units=1/GPa)
#
#
# Indices 1 2 3 4 5 6 
#
# 1 0.013652 -0.001033 -0.003216 0.000000 0.000000 0.000000
# 2 -0.001033 0.010593 -0.001826 0.000000 0.000000 0.000000
# 3 -0.003216 -0.001826 0.005627 0.000000 0.000000 0.000000
# 4 0.000000 0.000000 0.000000 0.030682 0.000000 0.000000
# 5 0.000000 0.000000 0.000000 0.000000 0.005921 0.000000
# 6 0.000000 0.000000 0.000000 0.000000 0.000000 0.027788
#
#
# Mechanical properties :
#
#
# Convention : Reuss Voigt Hill
#
# Bulk Modulus (GPa) = 56.42527 72.52298 64.47413
# Shear Modulus (GPa) = 44.51501 67.31149 55.91325
#
# Velocity S-wave (km/s) = 4.23962 5.21337 4.75150
# Velocity P-wave (km/s) = 6.83735 8.09459 7.49239
#
# Compressibility (1/GPa) = 0.01772256
#
# Stress axis : x y z
#
# Youngs Moduli (GPa) = 73.24862 94.39805 177.71649
#
# Poissons Ratio (x) = 0.09748 0.57151
# Poissons Ratio (y) = 0.07564 0.32460
# Poissons Ratio (z) = 0.23556 0.17242
#
# Static dielectric constant tensor:
#      x y z
#    x 1.914800 0.000000 0.000000 
#    y 0.000000 1.131540 0.000000 
#    z 0.000000 0.000000 2.014250 
# 
# From -- ./inp_files/9076.got.cif
#   From: 2010.05.17/outbox.cif.g08.bks.cpg/sg22_5_cif.got.tgz:9076.got - 2010.06.03 23:40:54.
