data_PCOD9326318
_publ_section_title
;
Structure prediction by ZEFSAII (Michael W. Deem and Ramdas Pophale) SiO2 
 PCOD9326318
Probable space group: F 2 2 2
;
_chemical_formula_sum "Si O2"
_cell_formula_units_Z 76
_cell_length_a 19.935159
_cell_length_b 13.537950
_cell_length_c 14.310641
_cell_angle_alpha 90.000000
_cell_angle_beta 90.000000
_cell_angle_gamma 90.000000
_cell_volume 3862.172762
_symmetry_space_group_name_H-M "F 2 2 2"
_symmetry_group_IT_number 22
_symmetry_cell_setting 'orthorhombic'
loop_
_space_group_symop_operation_xyz
x,y,z
-x,-y,z
x,-y,-z
-x,y,-z
x,1/2+y,1/2+z
-x,1/2-y,1/2+z
x,1/2-y,1/2-z
-x,1/2+y,1/2-z
1/2+x,y,1/2+z
1/2-x,-y,1/2+z
1/2+x,-y,1/2-z
1/2-x,y,1/2-z
1/2+x,1/2+y,z
1/2-x,1/2-y,z
1/2+x,1/2-y,-z
1/2-x,1/2+y,-z
loop_
_atom_site_type_symbol
_atom_site_label
_atom_site_fract_x
_atom_site_fract_y
_atom_site_fract_z
Si Si1 0.735016 0.500000 0.000000
Si Si2 0.056407 0.864886 0.660015
Si Si3 0.882597 0.359202 0.474814
Si Si4 0.000000 0.000000 0.500000
Si Si5 0.312540 0.816746 0.916990
Si Si6 0.485449 0.142107 0.361404
O O1 0.681293 0.573365 0.950610
O O2 0.782642 0.421320 0.949306
O O3 0.134622 0.839216 0.663584
O O4 0.030418 0.899669 0.759771
O O5 0.020970 0.760746 0.641315
O O6 0.043276 0.934078 0.571268
O O7 0.852665 0.250583 0.504731
O O8 0.927369 0.390590 0.565866
O O9 0.938860 0.370746 0.395877
O O10 0.250000 0.750000 0.887953
#
# Coordination Sequence:
#
# PCOD9326318 Si02
#       6
#     8  16  16   4  16  16
#     4  10  19  31  54  81 113 158 186 228 298 354
#     4  10  20  35  56  82 113 154 192 242 302 346
#     4   9  18  34  56  82 109 145 194 243 288 343
#     4  12  22  32  56  90 122 146 192 254 296 346
#     4   9  18  34  54  80 112 150 193 233 287 357
#     4   9  19  36  57  80 112 150 197 247 295 345
#
# _framework density 19.678042000000001
#
# number of rings (size 3 to 8) (size 9 to 14) (size 15 to 20)
#    0.000    2.526    0.000    3.158    0.000    3.368 
#    0.000   17.895    0.000    7.579    0.000   58.947 
#    0.000    0.000    0.000    0.000    0.000    0.000 
#
# Total GULP energy -105775.357253 kJ/mol
# GULP energy per Si atom -5567.124066 kJ/mol
# Density = 1.963325 g / cm^3
# Si number density = 19.678042 Si / 1000 Ang^3
#
#
#
# Elastic Constant Matrix: (Units=GPa)
#
#
# Indices 1 2 3 4 5 6 
#
# 1 128.2180 45.4578 58.8017 0.0000 0.0000 0.0000
# 2 45.4578 110.6107 33.5406 0.0000 0.0000 0.0000
# 3 58.8017 33.5406 114.0157 0.0000 0.0000 0.0000
# 4 0.0000 0.0000 0.0000 15.9395 0.0000 0.0000
# 5 0.0000 0.0000 0.0000 0.0000 9.4533 0.0000
# 6 0.0000 0.0000 0.0000 0.0000 0.0000 35.0325
#
#
#
# Elastic Compliance Matrix: (Units=1/GPa)
#
#
# Indices 1 2 3 4 5 6 
#
# 1 0.011109 -0.003105 -0.004816 0.000000 0.000000 0.000000
# 2 -0.003105 0.010794 -0.001574 0.000000 0.000000 0.000000
# 3 -0.004816 -0.001574 0.011717 0.000000 0.000000 0.000000
# 4 0.000000 0.000000 0.000000 0.062737 0.000000 0.000000
# 5 0.000000 0.000000 0.000000 0.000000 0.105783 0.000000
# 6 0.000000 0.000000 0.000000 0.000000 0.000000 0.028545
#
#
# Mechanical properties :
#
#
# Convention : Reuss Voigt Hill
#
# Bulk Modulus (GPa) = 68.34960 69.82718 69.08839
# Shear Modulus (GPa) = 19.64238 26.42133 23.03186
#
# Velocity S-wave (km/s) = 3.16284 3.66824 3.42487
# Velocity P-wave (km/s) = 6.93883 7.31458 7.12918
#
# Compressibility (1/GPa) = 0.01463066
#
# Stress axis : x y z
#
# Youngs Moduli (GPa) = 90.02075 92.64334 85.34370
#
# Poissons Ratio (x) = 0.28766 0.41098
# Poissons Ratio (y) = 0.27952 0.13433
# Poissons Ratio (z) = 0.43351 0.14582
#
# Static dielectric constant tensor:
#      x y z
#    x 1.696850 0.000000 0.000000 
#    y 0.000000 1.778660 0.000000 
#    z 0.000000 0.000000 1.681800 
# 
# From -- ./inp_files/31389.got.cif
#   From: 2010.05.17/outbox.cif.g08.bks.cpg/sg22_16_cif.got.tgz:31389.got - 2010.06.03 23:40:54.
