data_PCOD9326524
_publ_section_title
;
Structure prediction by ZEFSAII (Michael W. Deem and Ramdas Pophale) SiO2 
 PCOD9326524
Probable space group: F 2 2 2
;
_chemical_formula_sum "Si O2"
_cell_formula_units_Z 104
_cell_length_a 24.085262
_cell_length_b 14.272521
_cell_length_c 15.952189
_cell_angle_alpha 90.000000
_cell_angle_beta 90.000000
_cell_angle_gamma 90.000000
_cell_volume 5483.683138
_symmetry_space_group_name_H-M "F 2 2 2"
_symmetry_group_IT_number 22
_symmetry_cell_setting 'orthorhombic'
loop_
_space_group_symop_operation_xyz
x,y,z
-x,-y,z
x,-y,-z
-x,y,-z
x,1/2+y,1/2+z
-x,1/2-y,1/2+z
x,1/2-y,1/2-z
-x,1/2+y,1/2-z
1/2+x,y,1/2+z
1/2-x,-y,1/2+z
1/2+x,-y,1/2-z
1/2-x,y,1/2-z
1/2+x,1/2+y,z
1/2-x,1/2-y,z
1/2+x,1/2-y,-z
1/2-x,1/2+y,-z
loop_
_atom_site_type_symbol
_atom_site_label
_atom_site_fract_x
_atom_site_fract_y
_atom_site_fract_z
Si Si1 0.500049 0.386889 0.270335
Si Si2 0.311217 0.293124 0.065943
Si Si3 0.600179 0.750000 0.750000
Si Si4 0.983664 0.892019 0.913331
Si Si5 0.646313 0.633964 0.889126
Si Si6 0.310482 0.047012 0.291607
Si Si7 0.385088 0.170434 0.178688
O O1 0.500000 0.500000 0.273676
O O2 0.558875 0.333876 0.281328
O O3 0.488081 0.358513 0.172641
O O4 0.450022 0.353183 0.328509
O O5 0.250000 0.250000 0.063558
O O6 0.311494 0.373944 0.136280
O O7 0.354542 0.213524 0.097790
O O8 0.326254 0.337455 0.976359
O O9 0.639173 0.719780 0.825700
O O10 0.917754 0.891541 0.906394
O O11 0.000000 0.000000 0.917861
O O12 0.000000 0.843368 0.000000
O O13 0.673538 0.548895 0.838097
O O14 0.250000 0.042387 0.250000
O O15 0.353494 0.080869 0.219431
O O16 0.379839 0.250000 0.250000
#
# Coordination Sequence:
#
# PCOD9326524 Si02
#       7
#    16  16   8  16  16  16  16
#     4  10  19  36  60  89 125 169 217 256 315 398
#     4  11  24  41  61  96 126 160 216 276 320 379
#     4  10  22  42  57  94 129 172 212 260 318 406
#     4   9  19  30  52  89 127 154 199 257 308 382
#     4  11  25  39  65  89 133 168 209 266 333 379
#     4  11  22  40  66  95 120 164 215 267 322 393
#     4  10  20  34  63  87 123 168 206 257 327 376
#
# _framework density 18.965354999999999
#
# number of rings (size 3 to 8) (size 9 to 14) (size 15 to 20)
#    0.000    1.692    2.308    3.231    8.615    1.231 
#    0.000    0.000    0.000    0.923    0.000    0.000 
#    0.000    0.000    0.000    0.000    0.000    0.000 
#
# Total GULP energy -144987.117892 kJ/mol
# GULP energy per Si atom -5576.427611 kJ/mol
# Density = 1.892219 g / cm^3
# Si number density = 18.965355 Si / 1000 Ang^3
#
#
#
# Elastic Constant Matrix: (Units=GPa)
#
#
# Indices 1 2 3 4 5 6 
#
# 1 65.3720 28.5424 41.0505 0.0000 0.0000 0.0000
# 2 28.5424 92.7161 48.4912 0.0000 0.0000 0.0000
# 3 41.0505 48.4912 98.0797 0.0000 0.0000 0.0000
# 4 0.0000 0.0000 0.0000 30.3510 0.0000 0.0000
# 5 0.0000 0.0000 0.0000 0.0000 30.2186 0.0000
# 6 0.0000 0.0000 0.0000 0.0000 0.0000 61.6602
#
#
#
# Elastic Compliance Matrix: (Units=1/GPa)
#
#
# Indices 1 2 3 4 5 6 
#
# 1 0.021186 -0.002542 -0.007611 0.000000 0.000000 0.000000
# 2 -0.002542 0.014852 -0.006279 0.000000 0.000000 0.000000
# 3 -0.007611 -0.006279 0.016486 0.000000 0.000000 0.000000
# 4 0.000000 0.000000 0.000000 0.032948 0.000000 0.000000
# 5 0.000000 0.000000 0.000000 0.000000 0.033092 0.000000
# 6 0.000000 0.000000 0.000000 0.000000 0.000000 0.016218
#
#
# Mechanical properties :
#
#
# Convention : Reuss Voigt Hill
#
# Bulk Modulus (GPa) = 50.86268 54.70400 52.78334
# Shear Modulus (GPa) = 28.70299 33.65154 31.17726
#
# Velocity S-wave (km/s) = 3.89452 4.21690 4.05891
# Velocity P-wave (km/s) = 6.86294 7.25372 7.06103
#
# Compressibility (1/GPa) = 0.01966078
#
# Stress axis : x y z
#
# Youngs Moduli (GPa) = 47.20131 67.33049 60.65900
#
# Poissons Ratio (x) = 0.17113 0.46165
# Poissons Ratio (y) = 0.11997 0.38089
# Poissons Ratio (z) = 0.35923 0.42278
#
# Static dielectric constant tensor:
#      x y z
#    x 1.662820 0.000000 0.000000 
#    y 0.000000 1.680920 0.000000 
#    z 0.000000 0.000000 1.589210 
# 
# From -- ./inp_files/38930.got.cif
#   From: 2010.05.17/outbox.cif.g08.bks.cpg/sg22_20_cif.got.tgz:38930.got - 2010.06.03 23:40:54.
