data_PCOD9326330
_publ_section_title
;
Structure prediction by ZEFSAII (Michael W. Deem and Ramdas Pophale) SiO2 
 PCOD9326330
Probable space group: F 2 2 2
;
_chemical_formula_sum "Si O2"
_cell_formula_units_Z 80
_cell_length_a 18.801371
_cell_length_b 8.076016
_cell_length_c 26.710773
_cell_angle_alpha 90.000000
_cell_angle_beta 90.000000
_cell_angle_gamma 90.000000
_cell_volume 4055.768394
_symmetry_space_group_name_H-M "F 2 2 2"
_symmetry_group_IT_number 22
_symmetry_cell_setting 'orthorhombic'
loop_
_space_group_symop_operation_xyz
x,y,z
-x,-y,z
x,-y,-z
-x,y,-z
x,1/2+y,1/2+z
-x,1/2-y,1/2+z
x,1/2-y,1/2-z
-x,1/2+y,1/2-z
1/2+x,y,1/2+z
1/2-x,-y,1/2+z
1/2+x,-y,1/2-z
1/2-x,y,1/2-z
1/2+x,1/2+y,z
1/2-x,1/2-y,z
1/2+x,1/2-y,-z
1/2-x,1/2+y,-z
loop_
_atom_site_type_symbol
_atom_site_label
_atom_site_fract_x
_atom_site_fract_y
_atom_site_fract_z
Si Si1 0.417959 0.550253 0.250000
Si Si2 0.581891 0.552701 0.944445
Si Si3 0.418109 0.947299 0.055555
Si Si4 0.168015 0.452887 0.848025
Si Si5 0.668015 0.452887 0.151975
O O1 0.500000 0.500000 0.250000
O O2 0.414943 0.750000 0.250000
O O3 0.377214 0.492696 0.299891
O O4 0.377214 0.492696 0.200109
O O5 0.500000 0.500000 0.937345
O O6 0.583568 0.750000 0.943029
O O7 0.630674 0.489863 0.899232
O O8 0.604899 0.500000 0.000000
O O9 0.369326 0.010137 0.100768
O O10 0.500000 0.000000 0.062655
O O11 0.395100 0.000000 0.000000
O O12 0.250000 0.504541 0.844732
O O13 0.167511 0.250000 0.848166
#
# Coordination Sequence:
#
# PCOD9326330 Si02
#       5
#    16  16  16  16  16
#     4  10  19  33  55  77  99 128 162 202 244 290
#     4  10  19  32  51  73  99 130 165 204 242 287
#     4  10  19  32  51  73  99 130 165 204 242 287
#     4   9  18  32  51  75 100 128 164 203 243 289
#     4   9  18  32  51  75 100 128 164 203 243 289
#
# _framework density 19.724993999999999
#
# number of rings (size 3 to 8) (size 9 to 14) (size 15 to 20)
#    0.000    2.400    0.000    4.200    0.000    3.200 
#    0.000    2.000    0.000   10.800    0.000    0.000 
#    0.000    0.000    0.000    0.000    0.000    0.000 
#
# Total GULP energy -111668.825554 kJ/mol
# GULP energy per Si atom -5583.441278 kJ/mol
# Density = 1.968010 g / cm^3
# Si number density = 19.724994 Si / 1000 Ang^3
#
#
#
# Elastic Constant Matrix: (Units=GPa)
#
#
# Indices 1 2 3 4 5 6 
#
# 1 175.6863 7.5478 151.6798 0.0000 0.0000 -0.0001
# 2 7.5478 20.1544 16.2846 0.0000 0.0000 -0.0002
# 3 151.6798 16.2846 232.4822 0.0000 0.0000 0.0000
# 4 0.0000 0.0000 0.0000 12.4816 0.0000 0.0000
# 5 0.0000 0.0000 0.0000 0.0000 16.2575 0.0000
# 6 -0.0001 -0.0002 0.0000 0.0000 0.0000 20.7373
#
#
#
# Elastic Compliance Matrix: (Units=1/GPa)
#
#
# Indices 1 2 3 4 5 6 
#
# 1 0.013119 0.002123 -0.008708 0.000000 0.000000 0.000000
# 2 0.002123 0.052937 -0.005093 0.000000 0.000000 0.000000
# 3 -0.008708 -0.005093 0.010339 0.000000 0.000000 0.000000
# 4 0.000000 0.000000 0.000000 0.080118 0.000000 0.000000
# 5 0.000000 0.000000 0.000000 0.000000 0.061510 0.000000
# 6 0.000000 0.000000 0.000000 0.000000 0.000000 0.048222
#
#
# Mechanical properties :
#
#
# Convention : Reuss Voigt Hill
#
# Bulk Modulus (GPa) = 18.85395 86.59415 52.72405
# Shear Modulus (GPa) = 16.27173 26.74933 21.51053
#
# Velocity S-wave (km/s) = 2.87527 3.68654 3.30589
# Velocity P-wave (km/s) = 4.53895 7.88142 6.43113
#
# Compressibility (1/GPa) = 0.05303928
#
# Stress axis : x y z
#
# Youngs Moduli (GPa) = 76.22703 18.89030 96.71688
#
# Poissons Ratio (x) = -0.04010 0.84219
# Poissons Ratio (y) = -0.16182 0.49259
# Poissons Ratio (z) = 0.66377 0.09621
#
# Static dielectric constant tensor:
#      x y z
#    x 1.654230 0.000000 0.000000 
#    y 0.000000 1.715830 0.000000 
#    z 0.000000 0.000000 1.696400 
# 
# From -- ./inp_files/11618.got.cif
#   From: 2010.05.17/outbox.cif.g08.bks.cpg/sg22_6_cif.got.tgz:11618.got - 2010.06.03 23:40:54.
