data_PCOD9326046
_publ_section_title
;
Structure prediction by ZEFSAII (Michael W. Deem and Ramdas Pophale) SiO2 
 PCOD9326046
Probable space group: F 2 2 2
;
_chemical_formula_sum "Si O2"
_cell_formula_units_Z 88
_cell_length_a 37.255707
_cell_length_b 5.527100
_cell_length_c 18.754726
_cell_angle_alpha 90.000000
_cell_angle_beta 90.000000
_cell_angle_gamma 90.000000
_cell_volume 3861.898500
_symmetry_space_group_name_H-M "F 2 2 2"
_symmetry_group_IT_number 22
_symmetry_cell_setting 'orthorhombic'
loop_
_space_group_symop_operation_xyz
x,y,z
-x,-y,z
x,-y,-z
-x,y,-z
x,1/2+y,1/2+z
-x,1/2-y,1/2+z
x,1/2-y,1/2-z
-x,1/2+y,1/2-z
1/2+x,y,1/2+z
1/2-x,-y,1/2+z
1/2+x,-y,1/2-z
1/2-x,y,1/2-z
1/2+x,1/2+y,z
1/2-x,1/2-y,z
1/2+x,1/2-y,-z
1/2-x,1/2+y,-z
loop_
_atom_site_type_symbol
_atom_site_label
_atom_site_fract_x
_atom_site_fract_y
_atom_site_fract_z
Si Si1 0.643533 0.784760 0.576952
Si Si2 0.460850 0.021616 0.122676
Si Si3 0.828733 0.777667 0.414039
Si Si4 0.435871 0.534076 0.098343
Si Si5 0.750000 0.250000 0.544725
Si Si6 0.402465 0.000243 0.752732
O O1 0.660382 0.751586 0.498078
O O2 0.649831 0.518010 0.610288
O O3 0.602772 0.876505 0.569923
O O4 0.661544 0.013577 0.616079
O O5 0.451879 0.270364 0.080980
O O6 0.500000 0.000000 0.158236
O O7 0.459959 0.765946 0.081610
O O8 0.428702 0.004186 0.179667
O O9 0.786108 0.808546 0.412010
O O10 0.428486 0.508516 0.183534
O O11 0.756910 0.500000 0.500000
O O12 0.381502 0.250000 0.750000
O O13 0.381761 0.750000 0.750000
#
# Coordination Sequence:
#
# PCOD9326046 Si02
#       6
#    16  16  16  16   8  16
#     4  10  18  30  43  66  94 122 157 180 223 276
#     4  10  19  31  46  66  90 118 151 194 249 293
#     4  10  19  30  48  69  93 128 151 183 222 272
#     4  10  19  29  44  65  90 120 151 192 227 286
#     4  12  16  30  48  74  98 120 158 178 224 278
#     4   8  16  27  41  61  86 115 143 179 231 282
#
# _framework density 22.786719000000002
#
# number of rings (size 3 to 8) (size 9 to 14) (size 15 to 20)
#    0.000    2.182    3.636    1.636    0.000    6.545 
#    0.000    0.000    0.000    0.000    0.000   38.182 
#    0.000    0.000    0.000  176.727    0.000    1.636 
#
# Total GULP energy -122487.647820 kJ/mol
# GULP energy per Si atom -5567.620355 kJ/mol
# Density = 2.273486 g / cm^3
# Si number density = 22.786719 Si / 1000 Ang^3
#
#
#
# Elastic Constant Matrix: (Units=GPa)
#
#
# Indices 1 2 3 4 5 6 
#
# 1 112.5330 31.4579 0.1577 0.0003 0.0003 0.0011
# 2 31.4579 293.7117 21.4943 0.0006 0.0012 0.0019
# 3 0.1577 21.4943 51.0962 -0.0002 0.0008 0.0013
# 4 0.0003 0.0006 -0.0002 3.2923 0.0009 0.0007
# 5 0.0003 0.0012 0.0008 0.0009 11.6884 0.0015
# 6 0.0011 0.0019 0.0013 0.0007 0.0015 11.8421
#
#
#
# Elastic Compliance Matrix: (Units=1/GPa)
#
#
# Indices 1 2 3 4 5 6 
#
# 1 0.009168 -0.001011 0.000397 -0.000001 0.000000 -0.000001
# 2 -0.001011 0.003624 -0.001522 -0.000001 0.000000 0.000000
# 3 0.000397 -0.001522 0.020210 0.000002 -0.000001 -0.000002
# 4 -0.000001 -0.000001 0.000002 0.303738 -0.000023 -0.000018
# 5 0.000000 0.000000 -0.000001 -0.000023 0.085555 -0.000011
# 6 -0.000001 0.000000 -0.000002 -0.000018 -0.000011 0.084445
#
#
# Mechanical properties :
#
#
# Convention : Reuss Voigt Hill
#
# Bulk Modulus (GPa) = 34.80513 62.61784 48.71149
# Shear Modulus (GPa) = 9.60451 32.31329 20.95890
#
# Velocity S-wave (km/s) = 2.05526 3.76982 3.03609
# Velocity P-wave (km/s) = 4.57598 6.81824 5.80637
#
# Compressibility (1/GPa) = 0.02873140
#
# Stress axis : x y z
#
# Youngs Moduli (GPa) = 109.07084 275.91303 49.48108
#
# Poissons Ratio (x) = 0.27896 -0.01964
# Poissons Ratio (y) = 0.11027 0.07529
# Poissons Ratio (z) = -0.04330 0.41980
#
# Static dielectric constant tensor:
#      x y z
#    x 1.868830 0.000000 0.000000 
#    y 0.000000 2.050180 0.000000 
#    z 0.000000 0.000000 1.936150 
# 
# From -- ./inp_files/54442.got.cif
#   From: 2010.05.17/outbox.cif.g08.bks.cpg/sg22_28_cif.got.tgz:54442.got - 2010.06.03 23:40:54.
