data_PCOD9326999
_publ_section_title
;
Structure prediction by ZEFSAII (Michael W. Deem and Ramdas Pophale) SiO2 
 PCOD9326999
Probable space group: F 2 2 2
;
_chemical_formula_sum "Si O2"
_cell_formula_units_Z 112
_cell_length_a 30.511302
_cell_length_b 15.050820
_cell_length_c 12.216386
_cell_angle_alpha 90.000000
_cell_angle_beta 90.000000
_cell_angle_gamma 90.000000
_cell_volume 5610.010176
_symmetry_space_group_name_H-M "F 2 2 2"
_symmetry_group_IT_number 22
_symmetry_cell_setting 'orthorhombic'
loop_
_space_group_symop_operation_xyz
x,y,z
-x,-y,z
x,-y,-z
-x,y,-z
x,1/2+y,1/2+z
-x,1/2-y,1/2+z
x,1/2-y,1/2-z
-x,1/2+y,1/2-z
1/2+x,y,1/2+z
1/2-x,-y,1/2+z
1/2+x,-y,1/2-z
1/2-x,y,1/2-z
1/2+x,1/2+y,z
1/2-x,1/2-y,z
1/2+x,1/2-y,-z
1/2-x,1/2+y,-z
loop_
_atom_site_type_symbol
_atom_site_label
_atom_site_fract_x
_atom_site_fract_y
_atom_site_fract_z
Si Si1 0.282094 0.436535 0.099983
Si Si2 0.528399 0.409597 0.797930
Si Si3 0.062878 0.843727 0.217608
Si Si4 0.100210 0.102652 0.015668
Si Si5 0.085834 0.996014 0.624943
Si Si6 0.827002 0.734761 0.382336
Si Si7 0.683083 0.434148 0.655127
O O1 0.286332 0.329332 0.084582
O O2 0.311319 0.441290 0.211505
O O3 0.231787 0.463119 0.121292
O O4 0.295734 0.500000 0.000000
O O5 0.500000 0.500000 0.808543
O O6 0.489732 0.339153 0.793123
O O7 0.559795 0.399699 0.900641
O O8 0.559900 0.419541 0.692327
O O9 0.081828 0.750000 0.250000
O O10 0.073784 0.915206 0.310224
O O11 0.083512 0.870907 0.103150
O O12 0.133731 0.176500 0.064440
O O13 0.115200 0.000000 0.000000
O O14 0.071221 0.000000 0.500000
O O15 0.138115 0.983729 0.629816
O O16 0.830966 0.750000 0.250000
O O17 0.822993 0.839012 0.407985
#
# Coordination Sequence:
#
# PCOD9326999 Si02
#       7
#    16  16  16  16  16  16  16
#     4  10  20  37  64  93 130 169 217 265 328 383
#     4  10  21  41  65  90 123 165 222 267 324 382
#     4  11  27  43  62  96 129 171 217 274 330 390
#     4  12  22  41  70  95 127 169 220 278 331 388
#     4  11  24  42  67  89 133 175 216 260 337 397
#     4  10  22  35  62  98 132 163 214 272 324 381
#     4  10  22  40  60  97 131 173 215 268 323 399
#
# _framework density 19.964314000000002
#
# number of rings (size 3 to 8) (size 9 to 14) (size 15 to 20)
#    0.000    1.429    2.857    3.429    4.000    6.000 
#    2.571    0.000    0.000    0.000    0.000    3.000 
#    0.000    0.000    0.000    0.000    0.000    0.000 
#
# Total GULP energy -155898.365691 kJ/mol
# GULP energy per Si atom -5567.798775 kJ/mol
# Density = 1.991887 g / cm^3
# Si number density = 19.964314 Si / 1000 Ang^3
#
#
#
# Elastic Constant Matrix: (Units=GPa)
#
#
# Indices 1 2 3 4 5 6 
#
# 1 101.3913 18.9948 47.6596 0.0000 0.0000 0.0000
# 2 18.9948 77.1433 60.6923 0.0000 0.0000 0.0000
# 3 47.6596 60.6923 160.4452 0.0000 0.0000 0.0000
# 4 0.0000 0.0000 0.0000 34.3835 0.0000 0.0000
# 5 0.0000 0.0000 0.0000 0.0000 -0.3592 0.0000
# 6 0.0000 0.0000 0.0000 0.0000 0.0000 24.7233
#
#
#
# Elastic Compliance Matrix: (Units=1/GPa)
#
#
# Indices 1 2 3 4 5 6 
#
# 1 0.011466 -0.000204 -0.003328 0.000000 0.000000 0.000000
# 2 -0.000204 0.018459 -0.006922 0.000000 0.000000 0.000000
# 3 -0.003328 -0.006922 0.009840 0.000000 0.000000 0.000000
# 4 0.000000 0.000000 0.000000 0.029084 0.000000 0.000000
# 5 0.000000 0.000000 0.000000 0.000000 -2.784292 0.000000
# 6 0.000000 0.000000 0.000000 0.000000 0.000000 0.040448
#
#
# Mechanical properties :
#
#
# Convention : Reuss Voigt Hill
#
# Bulk Modulus (GPa) = 53.03696 65.96369 59.50032
# Shear Modulus (GPa) = -1.88836 25.85840 11.98502
#
# Velocity S-wave (km/s) = -0.97361 3.60284 2.45281
# Velocity P-wave (km/s) = 5.03584 7.10069 6.15546
#
# Compressibility (1/GPa) = 0.01885478
#
# Stress axis : x y z
#
# Youngs Moduli (GPa) = 87.21696 54.17431 101.62904
#
# Poissons Ratio (x) = 0.01108 0.33827
# Poissons Ratio (y) = 0.01783 0.70346
# Poissons Ratio (z) = 0.29030 0.37498
#
# Static dielectric constant tensor:
#      x y z
#    x 1.744170 0.000000 0.000000 
#    y 0.000000 1.791900 0.000000 
#    z 0.000000 0.000000 1.718870 
# 
# From -- ./inp_files/25417.got.cif
#   From: 2010.05.17/outbox.cif.g08.bks.cpg/sg22_13_cif.got.tgz:25417.got - 2010.06.03 23:40:54.
