data_PCOD9326297
_publ_section_title
;
Structure prediction by ZEFSAII (Michael W. Deem and Ramdas Pophale) SiO2 
 PCOD9326297
Probable space group: F 2 2 2
;
_chemical_formula_sum "Si O2"
_cell_formula_units_Z 116
_cell_length_a 8.375577
_cell_length_b 23.270968
_cell_length_c 29.521978
_cell_angle_alpha 90.000000
_cell_angle_beta 90.000000
_cell_angle_gamma 90.000000
_cell_volume 5754.063322
_symmetry_space_group_name_H-M "F 2 2 2"
_symmetry_group_IT_number 22
_symmetry_cell_setting 'orthorhombic'
loop_
_space_group_symop_operation_xyz
x,y,z
-x,-y,z
x,-y,-z
-x,y,-z
x,1/2+y,1/2+z
-x,1/2-y,1/2+z
x,1/2-y,1/2-z
-x,1/2+y,1/2-z
1/2+x,y,1/2+z
1/2-x,-y,1/2+z
1/2+x,-y,1/2-z
1/2-x,y,1/2-z
1/2+x,1/2+y,z
1/2-x,1/2-y,z
1/2+x,1/2-y,-z
1/2-x,1/2+y,-z
loop_
_atom_site_type_symbol
_atom_site_label
_atom_site_fract_x
_atom_site_fract_y
_atom_site_fract_z
Si Si1 0.431342 0.232550 0.545625
Si Si2 0.018219 0.672656 0.634064
Si Si3 0.920886 0.062358 0.814143
Si Si4 0.572337 0.059366 0.859074
Si Si5 0.521600 0.780873 0.811439
Si Si6 0.750000 0.750000 0.250000
Si Si7 0.115930 0.325907 0.098951
Si Si8 0.409859 0.892292 0.228895
O O1 0.500000 0.205033 0.500000
O O2 0.250000 0.250000 0.537549
O O3 0.426856 0.190775 0.589003
O O4 0.551592 0.286291 0.558138
O O5 0.002041 0.607899 0.650605
O O6 0.963576 0.713807 0.675968
O O7 0.203580 0.684591 0.618139
O O8 0.740685 0.055748 0.832247
O O9 0.952161 0.092631 0.765384
O O10 0.000000 0.000000 0.813349
O O11 0.594610 0.105599 0.899475
O O12 0.454655 0.080851 0.819219
O O13 0.500000 0.000000 0.875846
O O14 0.358541 0.786375 0.783201
O O15 0.500729 0.805818 0.860973
O O16 0.624687 0.825038 0.782767
O O17 0.250000 0.918171 0.250000
#
# Coordination Sequence:
#
# PCOD9326297 Si02
#       8
#    16  16  16  16  16   4  16  16
#     4  11  22  37  62  91 118 148 176 227 287 352
#     4  10  20  39  57  83 113 148 187 230 286 345
#     4  11  23  37  57  81 108 151 198 240 286 334
#     4  10  21  37  58  77 108 156 197 240 286 331
#     4  10  19  30  55  75 108 147 189 229 277 339
#     4  12  16  28  50  76 108 148 190 212 280 330
#     4   9  19  37  56  82 110 146 188 228 279 343
#     4  11  23  35  51  77 112 149 199 247 286 334
#
# _framework density 20.159666000000001
#
# number of rings (size 3 to 8) (size 9 to 14) (size 15 to 20)
#    0.000    1.655    1.379    4.552    3.862    4.414 
#    0.000    2.414    0.000    0.828    0.000    5.793 
#    0.000    0.000    0.000    0.000    0.000    0.000 
#
# Total GULP energy -161573.010961 kJ/mol
# GULP energy per Si atom -5571.483137 kJ/mol
# Density = 2.011378 g / cm^3
# Si number density = 20.159666 Si / 1000 Ang^3
#
#
#
# Elastic Constant Matrix: (Units=GPa)
#
#
# Indices 1 2 3 4 5 6 
#
# 1 41.5967 19.5875 -0.1710 0.0000 0.0000 0.0000
# 2 19.5875 118.5978 22.1648 0.0000 0.0000 0.0000
# 3 -0.1710 22.1648 62.1579 0.0000 0.0000 0.0000
# 4 0.0000 0.0000 0.0000 9.3719 0.0000 0.0000
# 5 0.0000 0.0000 0.0000 0.0000 29.7373 0.0000
# 6 0.0000 0.0000 0.0000 0.0000 0.0000 22.2327
#
#
#
# Elastic Compliance Matrix: (Units=1/GPa)
#
#
# Indices 1 2 3 4 5 6 
#
# 1 0.026241 -0.004658 0.001733 0.000000 0.000000 0.000000
# 2 -0.004658 0.009861 -0.003529 0.000000 0.000000 0.000000
# 3 0.001733 -0.003529 0.017351 0.000000 0.000000 0.000000
# 4 0.000000 0.000000 0.000000 0.106702 0.000000 0.000000
# 5 0.000000 0.000000 0.000000 0.000000 0.033628 0.000000
# 6 0.000000 0.000000 0.000000 0.000000 0.000000 0.044979
#
#
# Mechanical properties :
#
#
# Convention : Reuss Voigt Hill
#
# Bulk Modulus (GPa) = 24.66378 33.94612 29.30495
# Shear Modulus (GPa) = 18.85487 24.31978 21.58733
#
# Velocity S-wave (km/s) = 3.06155 3.47704 3.27589
# Velocity P-wave (km/s) = 4.97576 5.74412 5.37369
#
# Compressibility (1/GPa) = 0.04054529
#
# Stress axis : x y z
#
# Youngs Moduli (GPa) = 38.10856 101.41290 57.63275
#
# Poissons Ratio (x) = 0.47236 -0.09988
# Poissons Ratio (y) = 0.17750 0.20339
# Poissons Ratio (z) = -0.06605 0.35789
#
# Static dielectric constant tensor:
#      x y z
#    x 1.787610 0.000000 0.000000 
#    y 0.000000 1.731970 0.000000 
#    z 0.000000 0.000000 1.600380 
# 
# From -- ./inp_files/55672.got.cif
#   From: 2010.05.17/outbox.cif.g08.bks.cpg/sg22_28_cif.got.tgz:55672.got - 2010.06.03 23:40:54.
