data_PCOD9326089
_publ_section_title
;
Structure prediction by ZEFSAII (Michael W. Deem and Ramdas Pophale) SiO2 
 PCOD9326089
Probable space group: F 2 2 2
;
_chemical_formula_sum "Si O2"
_cell_formula_units_Z 104
_cell_length_a 14.437163
_cell_length_b 26.529063
_cell_length_c 11.720215
_cell_angle_alpha 90.000000
_cell_angle_beta 90.000000
_cell_angle_gamma 90.000000
_cell_volume 4488.893993
_symmetry_space_group_name_H-M "F 2 2 2"
_symmetry_group_IT_number 22
_symmetry_cell_setting 'orthorhombic'
loop_
_space_group_symop_operation_xyz
x,y,z
-x,-y,z
x,-y,-z
-x,y,-z
x,1/2+y,1/2+z
-x,1/2-y,1/2+z
x,1/2-y,1/2-z
-x,1/2+y,1/2-z
1/2+x,y,1/2+z
1/2-x,-y,1/2+z
1/2+x,-y,1/2-z
1/2-x,y,1/2-z
1/2+x,1/2+y,z
1/2-x,1/2-y,z
1/2+x,1/2-y,-z
1/2-x,1/2+y,-z
loop_
_atom_site_type_symbol
_atom_site_label
_atom_site_fract_x
_atom_site_fract_y
_atom_site_fract_z
Si Si1 0.666805 0.611404 0.840135
Si Si2 0.102365 0.557426 0.539179
Si Si3 0.012074 0.081805 0.261783
Si Si4 0.500000 0.602764 0.500000
Si Si5 0.441001 0.695271 0.765267
Si Si6 0.636385 0.299328 0.017123
Si Si7 0.146984 0.690140 0.970597
O O1 0.750000 0.616903 0.750000
O O2 0.590886 0.573535 0.786198
O O3 0.620270 0.664979 0.874808
O O4 0.679474 0.587589 0.967650
O O5 0.107956 0.500000 0.500000
O O6 0.091097 0.563217 0.675138
O O7 0.000000 0.577403 0.500000
O O8 0.017500 0.067225 0.391954
O O9 0.016747 0.142411 0.271682
O O10 0.588813 0.641177 0.507982
O O11 0.487800 0.750000 0.750000
O O12 0.361754 0.699110 0.665939
O O13 0.410159 0.687077 0.896161
O O14 0.745741 0.308105 0.000510
O O15 0.610337 0.240947 0.031671
#
# Coordination Sequence:
#
# PCOD9326089 Si02
#       7
#    16  16  16   8  16  16  16
#     4  11  22  35  59  84 120 151 195 255 308 361
#     4   9  19  39  67  88 109 147 207 256 305 376
#     4  10  20  36  58  90 113 160 200 244 303 366
#     4  10  20  36  54  81 130 158 201 246 302 352
#     4   9  17  30  53  80 112 157 205 251 278 347
#     4  10  18  32  50  77 113 156 209 238 295 341
#     4   9  19  31  48  76 120 162 193 244 287 350
#
# _framework density 23.168289999999999
#
# number of rings (size 3 to 8) (size 9 to 14) (size 15 to 20)
#    0.000    2.308    1.538    1.385    0.000    5.538 
#    0.000    4.615   10.154    6.462    0.000    0.000 
#    0.000    0.000    0.000    0.000    0.000    0.000 
#
# Total GULP energy -144799.397117 kJ/mol
# GULP energy per Si atom -5569.207581 kJ/mol
# Density = 2.311556 g / cm^3
# Si number density = 23.168290 Si / 1000 Ang^3
#
#
#
# Elastic Constant Matrix: (Units=GPa)
#
#
# Indices 1 2 3 4 5 6 
#
# 1 54.6620 5.2364 30.9152 0.0000 0.0000 0.0000
# 2 5.2364 75.8016 40.7988 0.0000 0.0000 0.0000
# 3 30.9152 40.7988 179.1233 0.0000 0.0000 0.0000
# 4 0.0000 0.0000 0.0000 18.0857 0.0000 0.0000
# 5 0.0000 0.0000 0.0000 0.0000 47.3035 0.0000
# 6 0.0000 0.0000 0.0000 0.0000 0.0000 13.4756
#
#
#
# Elastic Compliance Matrix: (Units=1/GPa)
#
#
# Indices 1 2 3 4 5 6 
#
# 1 0.020293 0.000551 -0.003628 0.000000 0.000000 0.000000
# 2 0.000551 0.015051 -0.003523 0.000000 0.000000 0.000000
# 3 -0.003628 -0.003523 0.007011 0.000000 0.000000 0.000000
# 4 0.000000 0.000000 0.000000 0.055292 0.000000 0.000000
# 5 0.000000 0.000000 0.000000 0.000000 0.021140 0.000000
# 6 0.000000 0.000000 0.000000 0.000000 0.000000 0.074208
#
#
# Mechanical properties :
#
#
# Convention : Reuss Voigt Hill
#
# Bulk Modulus (GPa) = 34.29974 51.49862 42.89918
# Shear Modulus (GPa) = 23.15732 31.28206 27.21969
#
# Velocity S-wave (km/s) = 3.16496 3.67851 3.43135
# Velocity P-wave (km/s) = 5.30968 6.34966 5.85282
#
# Compressibility (1/GPa) = 0.02915474
#
# Stress axis : x y z
#
# Youngs Moduli (GPa) = 49.27732 66.44276 142.62587
#
# Poissons Ratio (x) = -0.03660 0.51743
# Poissons Ratio (y) = -0.02714 0.50249
# Poissons Ratio (z) = 0.17877 0.23409
#
# Static dielectric constant tensor:
#      x y z
#    x 1.888650 0.000000 0.000000 
#    y 0.000000 1.939060 0.000000 
#    z 0.000000 0.000000 2.027910 
# 
# From -- ./inp_files/21777.got.cif
#   From: 2010.05.17/outbox.cif.g08.bks.cpg/sg22_11_cif.got.tgz:21777.got - 2010.06.03 23:40:54.
