data_PCOD9326370
_publ_section_title
;
Structure prediction by ZEFSAII (Michael W. Deem and Ramdas Pophale) SiO2 
 PCOD9326370
Probable space group: F 2 2 2
;
_chemical_formula_sum "Si O2"
_cell_formula_units_Z 104
_cell_length_a 31.044275
_cell_length_b 7.329606
_cell_length_c 20.974574
_cell_angle_alpha 90.000000
_cell_angle_beta 90.000000
_cell_angle_gamma 90.000000
_cell_volume 4772.602900
_symmetry_space_group_name_H-M "F 2 2 2"
_symmetry_group_IT_number 22
_symmetry_cell_setting 'orthorhombic'
loop_
_space_group_symop_operation_xyz
x,y,z
-x,-y,z
x,-y,-z
-x,y,-z
x,1/2+y,1/2+z
-x,1/2-y,1/2+z
x,1/2-y,1/2-z
-x,1/2+y,1/2-z
1/2+x,y,1/2+z
1/2-x,-y,1/2+z
1/2+x,-y,1/2-z
1/2-x,y,1/2-z
1/2+x,1/2+y,z
1/2-x,1/2-y,z
1/2+x,1/2-y,-z
1/2-x,1/2+y,-z
loop_
_atom_site_type_symbol
_atom_site_label
_atom_site_fract_x
_atom_site_fract_y
_atom_site_fract_z
Si Si1 0.161578 0.750000 0.250000
Si Si2 0.116540 0.298778 0.000972
Si Si3 0.400942 0.349288 0.636537
Si Si4 0.826894 0.611339 0.309038
Si Si5 0.993671 0.215989 0.324971
Si Si6 0.796996 0.827843 0.047543
Si Si7 0.415243 0.210786 0.372644
O O1 0.130674 0.674125 0.195148
O O2 0.186388 0.584063 0.281550
O O3 0.164526 0.308339 0.028850
O O4 0.092258 0.173664 0.052243
O O5 0.095374 0.500000 0.000000
O O6 0.118468 0.257299 0.926671
O O7 0.446600 0.250571 0.646914
O O8 0.407073 0.568963 0.632231
O O9 0.820162 0.750000 0.250000
O O10 0.803188 0.641112 0.376583
O O11 0.878110 0.620129 0.328995
O O12 0.992093 0.250000 0.250000
O O13 0.035693 0.318057 0.351595
O O14 0.000000 0.000000 0.335977
O O15 0.750000 0.750000 0.035409
O O16 0.803722 0.000000 0.000000
#
# Coordination Sequence:
#
# PCOD9326370 Si02
#       7
#     8  16  16  16  16  16  16
#     4  12  22  36  62  97 126 170 218 262 319 388
#     4   9  19  37  62  87 119 165 212 260 321 391
#     4  10  19  33  54  90 124 163 221 269 318 382
#     4  11  23  42  69  96 134 175 217 268 327 394
#     4  10  20  30  48  79 122 167 215 265 319 373
#     4  11  24  45  70  99 129 167 211 267 329 402
#     4   9  19  35  56  83 124 174 216 267 323 376
#
# _framework density 21.791045
#
# number of rings (size 3 to 8) (size 9 to 14) (size 15 to 20)
#    0.000    1.846    2.308    1.846    2.154    0.923 
#    2.769    3.077    0.000    0.000    0.000    4.308 
#    0.000    0.000    0.000    0.000    0.000    0.000 
#
# Total GULP energy -145127.047129 kJ/mol
# GULP energy per Si atom -5581.809505 kJ/mol
# Density = 2.174145 g / cm^3
# Si number density = 21.791045 Si / 1000 Ang^3
#
#
#
# Elastic Constant Matrix: (Units=GPa)
#
#
# Indices 1 2 3 4 5 6 
#
# 1 53.7427 -12.9526 13.9336 0.0000 0.0000 0.0001
# 2 -12.9526 58.1049 7.9832 0.0000 0.0000 0.0001
# 3 13.9336 7.9832 159.1694 0.0000 0.0000 0.0000
# 4 0.0000 0.0000 0.0000 22.7243 0.0000 0.0000
# 5 0.0000 0.0000 0.0000 0.0000 14.6925 -0.0001
# 6 0.0001 0.0001 0.0000 0.0000 -0.0001 17.1061
#
#
#
# Elastic Compliance Matrix: (Units=1/GPa)
#
#
# Indices 1 2 3 4 5 6 
#
# 1 0.020287 0.004799 -0.002017 0.000000 0.000000 0.000000
# 2 0.004799 0.018465 -0.001346 0.000000 0.000000 0.000000
# 3 -0.002017 -0.001346 0.006527 0.000000 0.000000 0.000000
# 4 0.000000 0.000000 0.000000 0.044006 0.000000 0.000000
# 5 0.000000 0.000000 0.000000 0.000000 0.068062 0.000000
# 6 0.000000 0.000000 0.000000 0.000000 0.000000 0.058459
#
#
# Mechanical properties :
#
#
# Convention : Reuss Voigt Hill
#
# Bulk Modulus (GPa) = 20.76785 32.10505 26.43645
# Shear Modulus (GPa) = 21.83574 28.37476 25.10525
#
# Velocity S-wave (km/s) = 3.16895 3.61242 3.39793
# Velocity P-wave (km/s) = 4.78966 5.67138 5.24907
#
# Compressibility (1/GPa) = 0.04815136
#
# Stress axis : x y z
#
# Youngs Moduli (GPa) = 49.29341 54.15634 153.21761
#
# Poissons Ratio (x) = -0.25991 0.30898
# Poissons Ratio (y) = -0.23657 0.20627
# Poissons Ratio (z) = 0.09940 0.07291
#
# Static dielectric constant tensor:
#      x y z
#    x 1.752610 0.000000 0.000000 
#    y 0.000000 1.887960 0.000000 
#    z 0.000000 0.000000 1.806530 
# 
# From -- ./inp_files/45805.got.cif
#   From: 2010.05.17/outbox.cif.g08.bks.cpg/sg22_23_cif.got.tgz:45805.got - 2010.06.03 23:40:54.
