data_PCOD9326098
_publ_section_title
;
Structure prediction by ZEFSAII (Michael W. Deem and Ramdas Pophale) SiO2 
 PCOD9326098
Probable space group: F 2 2 2
;
_chemical_formula_sum "Si O2"
_cell_formula_units_Z 92
_cell_length_a 19.554399
_cell_length_b 11.934595
_cell_length_c 22.218314
_cell_angle_alpha 90.000000
_cell_angle_beta 90.000000
_cell_angle_gamma 90.000000
_cell_volume 5185.173091
_symmetry_space_group_name_H-M "F 2 2 2"
_symmetry_group_IT_number 22
_symmetry_cell_setting 'orthorhombic'
loop_
_space_group_symop_operation_xyz
x,y,z
-x,-y,z
x,-y,-z
-x,y,-z
x,1/2+y,1/2+z
-x,1/2-y,1/2+z
x,1/2-y,1/2-z
-x,1/2+y,1/2-z
1/2+x,y,1/2+z
1/2-x,-y,1/2+z
1/2+x,-y,1/2-z
1/2-x,y,1/2-z
1/2+x,1/2+y,z
1/2-x,1/2-y,z
1/2+x,1/2-y,-z
1/2-x,1/2+y,-z
loop_
_atom_site_type_symbol
_atom_site_label
_atom_site_fract_x
_atom_site_fract_y
_atom_site_fract_z
Si Si1 0.192354 0.026483 0.602638
Si Si2 0.546915 0.610143 0.641729
Si Si3 0.500000 0.000000 0.500000
Si Si4 0.693241 0.152206 0.343194
Si Si5 0.684121 0.674922 0.481217
Si Si6 0.081984 0.299037 0.554858
Si Si7 0.091846 0.750000 0.250000
O O1 0.125499 0.069369 0.636630
O O2 0.260290 0.044126 0.642324
O O3 0.197587 0.102692 0.542123
O O4 0.178279 0.904845 0.575955
O O5 0.500000 0.500000 0.638260
O O6 0.538391 0.700965 0.587671
O O7 0.545768 0.680417 0.703390
O O8 0.543889 0.913740 0.540066
O O9 0.750000 0.250000 0.338552
O O10 0.644501 0.174000 0.400151
O O11 0.642556 0.166345 0.286783
O O12 0.750000 0.750000 0.472876
O O13 0.616723 0.746569 0.495588
#
# Coordination Sequence:
#
# PCOD9326098 Si02
#       7
#    16  16   4  16  16  16   8
#     4  10  19  30  57  87 111 147 186 239 290 336
#     4  10  22  41  59  85 113 153 198 242 289 361
#     4  12  28  36  54  84 128 180 186 226 284 346
#     4  11  17  36  59  90 107 135 194 256 291 338
#     4  10  18  32  53  82 117 150 184 231 285 338
#     4  10  22  39  54  85 122 156 202 230 279 353
#     4  10  21  36  66  84 112 143 198 258 302 341
#
# _framework density 17.742898
#
# number of rings (size 3 to 8) (size 9 to 14) (size 15 to 20)
#    0.000    1.739    6.957    0.261    4.870    0.000 
#    6.261    0.000    0.000    0.000    0.000    0.000 
#    0.000    0.000    0.000    0.000    0.000    0.000 
#
# Total GULP energy -128173.462712 kJ/mol
# GULP energy per Si atom -5572.759248 kJ/mol
# Density = 1.770251 g / cm^3
# Si number density = 17.742898 Si / 1000 Ang^3
#
#
#
# Elastic Constant Matrix: (Units=GPa)
#
#
# Indices 1 2 3 4 5 6 
#
# 1 56.3774 51.1706 18.0234 0.0000 0.0000 0.0000
# 2 51.1706 125.2355 43.7777 0.0000 0.0000 0.0000
# 3 18.0234 43.7777 46.3106 0.0000 0.0000 0.0000
# 4 0.0000 0.0000 0.0000 30.6658 0.0000 0.0000
# 5 0.0000 0.0000 0.0000 0.0000 14.5609 0.0000
# 6 0.0000 0.0000 0.0000 0.0000 0.0000 43.7544
#
#
#
# Elastic Compliance Matrix: (Units=1/GPa)
#
#
# Indices 1 2 3 4 5 6 
#
# 1 0.028194 -0.011477 -0.000124 0.000000 0.000000 0.000000
# 2 -0.011477 0.016597 -0.011223 0.000000 0.000000 0.000000
# 3 -0.000124 -0.011223 0.032251 0.000000 0.000000 0.000000
# 4 0.000000 0.000000 0.000000 0.032610 0.000000 0.000000
# 5 0.000000 0.000000 0.000000 0.000000 0.068677 0.000000
# 6 0.000000 0.000000 0.000000 0.000000 0.000000 0.022855
#
#
# Mechanical properties :
#
#
# Convention : Reuss Voigt Hill
#
# Bulk Modulus (GPa) = 31.85210 50.42967 41.14088
# Shear Modulus (GPa) = 19.43290 25.45966 22.44628
#
# Velocity S-wave (km/s) = 3.31305 3.79215 3.56066
# Velocity P-wave (km/s) = 5.71192 6.90348 6.33577
#
# Compressibility (1/GPa) = 0.03139511
#
# Stress axis : x y z
#
# Youngs Moduli (GPa) = 35.46871 60.25033 31.00706
#
# Poissons Ratio (x) = 0.69147 0.00384
# Poissons Ratio (y) = 0.40706 0.34800
# Poissons Ratio (z) = 0.00439 0.67620
#
# Static dielectric constant tensor:
#      x y z
#    x 1.608350 0.000000 0.000000 
#    y 0.000000 1.638390 0.000000 
#    z 0.000000 0.000000 1.620570 
# 
# From -- ./inp_files/23822.got.cif
#   From: 2010.05.17/outbox.cif.g08.bks.cpg/sg22_12_cif.got.tgz:23822.got - 2010.06.03 23:40:54.
