data_PCOD9326770
_publ_section_title
;
Structure prediction by ZEFSAII (Michael W. Deem and Ramdas Pophale) SiO2 
 PCOD9326770
Probable space group: F 2 2 2
;
_chemical_formula_sum "Si O2"
_cell_formula_units_Z 80
_cell_length_a 18.423777
_cell_length_b 7.125911
_cell_length_c 27.051068
_cell_angle_alpha 90.000000
_cell_angle_beta 90.000000
_cell_angle_gamma 90.000000
_cell_volume 3551.431793
_symmetry_space_group_name_H-M "F 2 2 2"
_symmetry_group_IT_number 22
_symmetry_cell_setting 'orthorhombic'
loop_
_space_group_symop_operation_xyz
x,y,z
-x,-y,z
x,-y,-z
-x,y,-z
x,1/2+y,1/2+z
-x,1/2-y,1/2+z
x,1/2-y,1/2-z
-x,1/2+y,1/2-z
1/2+x,y,1/2+z
1/2-x,-y,1/2+z
1/2+x,-y,1/2-z
1/2-x,y,1/2-z
1/2+x,1/2+y,z
1/2-x,1/2-y,z
1/2+x,1/2-y,-z
1/2-x,1/2+y,-z
loop_
_atom_site_type_symbol
_atom_site_label
_atom_site_fract_x
_atom_site_fract_y
_atom_site_fract_z
Si Si1 0.416637 0.528312 0.254824
Si Si2 0.584346 0.559002 0.945844
Si Si3 0.318971 0.895826 0.051762
Si Si4 0.182269 0.486266 0.843077
Si Si5 0.654383 0.466567 0.156339
O O1 0.500000 0.500000 0.266904
O O2 0.401264 0.750000 0.250000
O O3 0.368664 0.445950 0.299046
O O4 0.398756 0.465304 0.199294
O O5 0.500000 0.500000 0.942343
O O6 0.605984 0.778182 0.946298
O O7 0.625564 0.479778 0.897769
O O8 0.611708 0.500000 0.000000
O O9 0.250000 0.750000 0.057761
O O10 0.322900 0.034098 0.098872
O O11 0.310765 0.000000 0.000000
O O12 0.265041 0.529714 0.830268
O O13 0.164578 0.261038 0.844634
#
# Coordination Sequence:
#
# PCOD9326770 Si02
#       5
#    16  16  16  16  16
#     4  10  20  34  56  81 114 154 195 245 304 361
#     4  10  20  36  58  90 128 159 203 251 303 371
#     4  11  21  38  64  91 123 157 210 259 310 367
#     4   9  17  33  57  88 113 143 201 256 296 359
#     4   9  16  32  58  87 109 151 200 248 294 361
#
# _framework density 22.526125
#
# number of rings (size 3 to 8) (size 9 to 14) (size 15 to 20)
#    0.000    2.200    4.000    1.800    0.000    2.400 
#    0.000   16.000    0.000    1.200    0.000    0.000 
#    0.000    0.000    0.000    0.000    0.000    0.000 
#
# Total GULP energy -111511.991150 kJ/mol
# GULP energy per Si atom -5575.599558 kJ/mol
# Density = 2.247485 g / cm^3
# Si number density = 22.526125 Si / 1000 Ang^3
#
#
#
# Elastic Constant Matrix: (Units=GPa)
#
#
# Indices 1 2 3 4 5 6 
#
# 1 123.0041 -7.9040 78.1866 -0.0001 0.0001 -0.0004
# 2 -7.9040 58.2897 -4.5498 -0.0001 0.0001 -0.0007
# 3 78.1866 -4.5498 219.4479 0.0000 0.0000 0.0001
# 4 -0.0001 -0.0001 0.0000 8.8118 0.0000 0.0001
# 5 0.0001 0.0001 0.0000 0.0000 74.3242 -0.0001
# 6 -0.0004 -0.0007 0.0001 0.0001 -0.0001 16.4831
#
#
#
# Elastic Compliance Matrix: (Units=1/GPa)
#
#
# Indices 1 2 3 4 5 6 
#
# 1 0.010586 0.001143 -0.003748 0.000000 0.000000 0.000000
# 2 0.001143 0.017307 -0.000048 0.000000 0.000000 0.000001
# 3 -0.003748 -0.000048 0.005891 0.000000 0.000000 0.000000
# 4 0.000000 0.000000 0.000000 0.113485 0.000000 0.000000
# 5 0.000000 0.000000 0.000000 0.000000 0.013455 0.000000
# 6 0.000000 0.000001 0.000000 0.000000 0.000000 0.060668
#
#
# Mechanical properties :
#
#
# Convention : Reuss Voigt Hill
#
# Bulk Modulus (GPa) = 35.11614 59.13417 47.12515
# Shear Modulus (GPa) = 21.16941 42.25774 31.71357
#
# Velocity S-wave (km/s) = 3.06889 4.33592 3.75621
# Velocity P-wave (km/s) = 5.30852 7.16765 6.30697
#
# Compressibility (1/GPa) = 0.02847694
#
# Stress axis : x y z
#
# Youngs Moduli (GPa) = 94.46882 57.78050 169.74528
#
# Poissons Ratio (x) = -0.06603 0.63617
# Poissons Ratio (y) = -0.10796 0.00821
# Poissons Ratio (z) = 0.35405 0.00279
#
# Static dielectric constant tensor:
#      x y z
#    x 1.817450 0.000000 0.000000 
#    y 0.000000 1.938970 0.000000 
#    z 0.000000 0.000000 1.868970 
# 
# From -- ./inp_files/11651.got.cif
#   From: 2010.05.17/outbox.cif.g08.bks.cpg/sg22_6_cif.got.tgz:11651.got - 2010.06.03 23:40:54.
