data_PCOD9326513
_publ_section_title
;
Structure prediction by ZEFSAII (Michael W. Deem and Ramdas Pophale) SiO2 
 PCOD9326513
Probable space group: F 2 2 2
;
_chemical_formula_sum "Si O2"
_cell_formula_units_Z 80
_cell_length_a 18.100366
_cell_length_b 16.853027
_cell_length_c 12.370107
_cell_angle_alpha 90.000000
_cell_angle_beta 90.000000
_cell_angle_gamma 90.000000
_cell_volume 3773.451127
_symmetry_space_group_name_H-M "F 2 2 2"
_symmetry_group_IT_number 22
_symmetry_cell_setting 'orthorhombic'
loop_
_space_group_symop_operation_xyz
x,y,z
-x,-y,z
x,-y,-z
-x,y,-z
x,1/2+y,1/2+z
-x,1/2-y,1/2+z
x,1/2-y,1/2-z
-x,1/2+y,1/2-z
1/2+x,y,1/2+z
1/2-x,-y,1/2+z
1/2+x,-y,1/2-z
1/2-x,y,1/2-z
1/2+x,1/2+y,z
1/2-x,1/2-y,z
1/2+x,1/2-y,-z
1/2-x,1/2+y,-z
loop_
_atom_site_type_symbol
_atom_site_label
_atom_site_fract_x
_atom_site_fract_y
_atom_site_fract_z
Si Si1 0.395103 0.336964 0.922449
Si Si2 0.750000 0.250000 0.471302
Si Si3 0.856457 0.500000 0.500000
Si Si4 0.500000 0.117933 0.000000
Si Si5 0.621424 0.000000 0.000000
Si Si6 0.735411 0.898878 0.124358
Si Si7 0.043949 0.237901 0.137332
O O1 0.395330 0.432578 0.926912
O O2 0.463304 0.303558 0.852689
O O3 0.316651 0.292043 0.903660
O O4 0.414289 0.310260 0.045436
O O5 0.722926 0.320686 0.550824
O O6 0.805801 0.445939 0.576986
O O7 0.433850 0.065780 0.954035
O O8 0.530907 0.175236 0.909229
O O9 0.669665 0.040515 0.906651
O O10 0.750000 0.882588 0.250000
O O11 0.083623 0.250000 0.250000
#
# Coordination Sequence:
#
# PCOD9326513 Si02
#       7
#    16   8   8   8   8  16  16
#     4   9  20  37  56  78 110 142 178 222 266 317
#     4  10  19  36  59  80 108 144 179 220 263 314
#     4   9  20  34  50  80 110 143 176 214 272 314
#     4   9  20  36  56  77 104 144 178 215 266 316
#     4  10  20  37  54  77 112 140 174 220 266 316
#     4  10  20  33  54  81 110 140 176 220 264 314
#     4  10  21  37  57  80 106 141 183 222 265 319
#
# _framework density 21.200751
#
# number of rings (size 3 to 8) (size 9 to 14) (size 15 to 20)
#    0.000    2.600    0.000    2.700    0.000    9.600 
#    0.000    2.500    0.000    0.000    0.000    0.000 
#    0.000    0.000    0.000    0.000    0.000    0.000 
#
# Total GULP energy -111490.916363 kJ/mol
# GULP energy per Si atom -5574.545818 kJ/mol
# Density = 2.115250 g / cm^3
# Si number density = 21.200751 Si / 1000 Ang^3
#
#
#
# Elastic Constant Matrix: (Units=GPa)
#
#
# Indices 1 2 3 4 5 6 
#
# 1 73.9254 27.4343 -23.9316 0.0000 0.0000 0.0000
# 2 27.4343 136.0905 -13.5214 0.0000 0.0000 0.0000
# 3 -23.9316 -13.5214 27.1849 0.0000 0.0000 0.0000
# 4 0.0000 0.0000 0.0000 -7.0172 0.0000 0.0000
# 5 0.0000 0.0000 0.0000 0.0000 -14.3689 0.0000
# 6 0.0000 0.0000 0.0000 0.0000 0.0000 21.1938
#
#
#
# Elastic Compliance Matrix: (Units=1/GPa)
#
#
# Indices 1 2 3 4 5 6 
#
# 1 0.019610 -0.002354 0.016093 0.000000 0.000000 0.000000
# 2 -0.002354 0.008013 0.001913 0.000000 0.000000 0.000000
# 3 0.016093 0.001913 0.051903 0.000000 0.000000 0.000000
# 4 0.000000 0.000000 0.000000 -0.142506 0.000000 0.000000
# 5 0.000000 0.000000 0.000000 0.000000 -0.069595 0.000000
# 6 0.000000 0.000000 0.000000 0.000000 0.000000 0.047184
#
#
# Mechanical properties :
#
#
# Convention : Reuss Voigt Hill
#
# Bulk Modulus (GPa) = 9.02294 24.12926 16.57610
# Shear Modulus (GPa) = -62.69584 16.44282 -23.12651
#
# Velocity S-wave (km/s) = -5.44396 2.78794 -3.30636
# Velocity P-wave (km/s) = 5.93720 4.66578 2.59623
#
# Compressibility (1/GPa) = 0.11082867
#
# Stress axis : x y z
#
# Youngs Moduli (GPa) = 50.99313 124.80169 19.26659
#
# Poissons Ratio (x) = 0.29383 -0.31005
# Poissons Ratio (y) = 0.12006 -0.03685
# Poissons Ratio (z) = -0.82061 -0.23872
#
# Static dielectric constant tensor:
#      x y z
#    x 1.851550 0.000000 0.000000 
#    y 0.000000 1.801450 0.000000 
#    z 0.000000 0.000000 1.672900 
# 
# From -- ./inp_files/22569.got.cif
#   From: 2010.05.17/outbox.cif.g08.bks.cpg/sg22_12_cif.got.tgz:22569.got - 2010.06.03 23:40:54.
