data_PCOD9326932
_publ_section_title
;
Structure prediction by ZEFSAII (Michael W. Deem and Ramdas Pophale) SiO2 
 PCOD9326932
Probable space group: F 2 2 2
;
_chemical_formula_sum "Si O2"
_cell_formula_units_Z 112
_cell_length_a 15.578951
_cell_length_b 30.260741
_cell_length_c 11.666098
_cell_angle_alpha 90.000000
_cell_angle_beta 90.000000
_cell_angle_gamma 90.000000
_cell_volume 5499.755595
_symmetry_space_group_name_H-M "F 2 2 2"
_symmetry_group_IT_number 22
_symmetry_cell_setting 'orthorhombic'
loop_
_space_group_symop_operation_xyz
x,y,z
-x,-y,z
x,-y,-z
-x,y,-z
x,1/2+y,1/2+z
-x,1/2-y,1/2+z
x,1/2-y,1/2-z
-x,1/2+y,1/2-z
1/2+x,y,1/2+z
1/2-x,-y,1/2+z
1/2+x,-y,1/2-z
1/2-x,y,1/2-z
1/2+x,1/2+y,z
1/2-x,1/2-y,z
1/2+x,1/2-y,-z
1/2-x,1/2+y,-z
loop_
_atom_site_type_symbol
_atom_site_label
_atom_site_fract_x
_atom_site_fract_y
_atom_site_fract_z
Si Si1 0.266534 0.832893 0.129861
Si Si2 0.813690 0.998170 0.360952
Si Si3 0.404579 0.177926 0.497258
Si Si4 0.400370 0.408348 0.633183
Si Si5 0.405844 0.220962 0.012843
Si Si6 0.092371 0.404878 0.139232
Si Si7 0.847039 0.815018 0.261338
O O1 0.250000 0.808728 0.250000
O O2 0.323795 0.875380 0.166108
O O3 0.176470 0.842553 0.065142
O O4 0.328101 0.804334 0.047927
O O5 0.750000 0.000534 0.250000
O O6 0.865884 0.952760 0.342067
O O7 0.784448 0.000000 0.500000
O O8 0.873398 0.041154 0.349563
O O9 0.500000 0.157560 0.500000
O O10 0.409473 0.229414 0.535973
O O11 0.384486 0.181145 0.363847
O O12 0.494743 0.400421 0.684684
O O13 0.409035 0.400806 0.497499
O O14 0.390374 0.217519 0.148152
O O15 0.500000 0.199846 0.000000
O O16 0.147094 0.364364 0.186396
O O17 0.750000 0.801149 0.250000
#
# Coordination Sequence:
#
# PCOD9326932 Si02
#       7
#    16  16  16  16  16  16  16
#     4  12  25  41  65  91 130 169 218 269 334 393
#     4  10  21  38  63  95 133 170 215 266 329 392
#     4  11  27  43  60  93 131 171 215 272 338 389
#     4  10  20  39  62  97 127 166 217 268 318 388
#     4  11  24  43  65  88 122 172 224 268 325 395
#     4  10  20  36  67  94 124 165 218 269 319 387
#     4  12  22  40  66  92 124 163 219 276 325 383
#
# _framework density 20.364543000000001
#
# number of rings (size 3 to 8) (size 9 to 14) (size 15 to 20)
#    0.000    1.143    2.857    3.000    4.000    4.571 
#    0.000    0.000    0.000    0.857    0.000    0.000 
#    0.000    0.000    0.000    0.000    0.000    0.000 
#
# Total GULP energy -156172.378189 kJ/mol
# GULP energy per Si atom -5577.584935 kJ/mol
# Density = 2.031819 g / cm^3
# Si number density = 20.364543 Si / 1000 Ang^3
#
#
#
# Elastic Constant Matrix: (Units=GPa)
#
#
# Indices 1 2 3 4 5 6 
#
# 1 141.8664 9.5692 47.2376 0.0000 0.0000 0.0000
# 2 9.5692 85.0231 -8.2680 0.0000 0.0000 0.0000
# 3 47.2376 -8.2680 97.3753 0.0000 0.0000 0.0000
# 4 0.0000 0.0000 0.0000 22.7180 0.0000 0.0000
# 5 0.0000 0.0000 0.0000 0.0000 29.8417 0.0000
# 6 0.0000 0.0000 0.0000 0.0000 0.0000 31.9265
#
#
#
# Elastic Compliance Matrix: (Units=1/GPa)
#
#
# Indices 1 2 3 4 5 6 
#
# 1 0.008564 -0.001379 -0.004272 0.000000 0.000000 0.000000
# 2 -0.001379 0.012082 0.001695 0.000000 0.000000 0.000000
# 3 -0.004272 0.001695 0.012486 0.000000 0.000000 0.000000
# 4 0.000000 0.000000 0.000000 0.044018 0.000000 0.000000
# 5 0.000000 0.000000 0.000000 0.000000 0.033510 0.000000
# 6 0.000000 0.000000 0.000000 0.000000 0.000000 0.031322
#
#
# Mechanical properties :
#
#
# Convention : Reuss Voigt Hill
#
# Bulk Modulus (GPa) = 39.65201 46.81583 43.23392
# Shear Modulus (GPa) = 31.58554 35.27897 33.43225
#
# Velocity S-wave (km/s) = 3.94255 4.16669 4.05617
# Velocity P-wave (km/s) = 6.34337 6.79612 6.57364
#
# Compressibility (1/GPa) = 0.02521940
#
# Stress axis : x y z
#
# Youngs Moduli (GPa) = 116.76399 82.77070 80.09159
#
# Poissons Ratio (x) = 0.11417 0.34213
# Poissons Ratio (y) = 0.16105 -0.13575
# Poissons Ratio (z) = 0.49878 -0.14029
#
# Static dielectric constant tensor:
#      x y z
#    x 1.762730 0.000000 0.000000 
#    y 0.000000 1.746260 0.000000 
#    z 0.000000 0.000000 1.723370 
# 
# From -- ./inp_files/20302.got.cif
#   From: 2010.05.17/outbox.cif.g08.bks.cpg/sg22_11_cif.got.tgz:20302.got - 2010.06.03 23:40:54.
