data_PCOD9326865
_publ_section_title
;
Structure prediction by ZEFSAII (Michael W. Deem and Ramdas Pophale) SiO2 
 PCOD9326865
Probable space group: F 2 2 2
;
_chemical_formula_sum "Si O2"
_cell_formula_units_Z 112
_cell_length_a 11.606255
_cell_length_b 16.238630
_cell_length_c 30.570924
_cell_angle_alpha 90.000000
_cell_angle_beta 90.000000
_cell_angle_gamma 90.000000
_cell_volume 5761.692283
_symmetry_space_group_name_H-M "F 2 2 2"
_symmetry_group_IT_number 22
_symmetry_cell_setting 'orthorhombic'
loop_
_space_group_symop_operation_xyz
x,y,z
-x,-y,z
x,-y,-z
-x,y,-z
x,1/2+y,1/2+z
-x,1/2-y,1/2+z
x,1/2-y,1/2-z
-x,1/2+y,1/2-z
1/2+x,y,1/2+z
1/2-x,-y,1/2+z
1/2+x,-y,1/2-z
1/2-x,y,1/2-z
1/2+x,1/2+y,z
1/2-x,1/2-y,z
1/2+x,1/2-y,-z
1/2-x,1/2+y,-z
loop_
_atom_site_type_symbol
_atom_site_label
_atom_site_fract_x
_atom_site_fract_y
_atom_site_fract_z
Si Si1 0.849510 0.922980 0.070241
Si Si2 0.836770 0.556262 0.686492
Si Si3 0.407055 0.216746 0.200882
Si Si4 0.635319 0.301623 0.007702
Si Si5 0.189213 0.869833 0.839951
Si Si6 0.921993 0.920849 0.719013
Si Si7 0.383174 0.602616 0.091417
O O1 0.779765 0.877125 0.108715
O O2 0.980698 0.911997 0.086551
O O3 0.822969 0.019441 0.072913
O O4 0.850292 0.882522 0.022846
O O5 0.855362 0.459289 0.675305
O O6 0.910037 0.583828 0.728306
O O7 0.704183 0.564895 0.700245
O O8 0.856195 0.606965 0.642375
O O9 0.391230 0.250000 0.250000
O O10 0.301087 0.157219 0.187624
O O11 0.398954 0.295483 0.169254
O O12 0.520416 0.161449 0.200581
O O13 0.750000 0.250000 0.995904
O O14 0.645234 0.324179 0.058711
O O15 0.500000 0.272861 0.000000
O O16 0.000000 0.000000 0.708750
#
# Coordination Sequence:
#
# PCOD9326865 Si02
#       7
#    16  16  16  16  16  16  16
#     4   9  19  35  65  91 114 150 207 256 298 363
#     4  10  22  38  61  85 116 161 210 249 304 379
#     4  11  23  35  54  83 121 157 195 254 311 351
#     4  10  21  40  63  93 126 160 198 253 323 381
#     4  10  20  36  58  89 112 149 202 255 302 355
#     4  11  22  38  58  83 120 162 204 253 304 370
#     4   9  19  38  61  89 115 156 206 255 299 362
#
# _framework density 19.438732999999999
#
# number of rings (size 3 to 8) (size 9 to 14) (size 15 to 20)
#    0.000    2.000    1.429    2.143   10.000    1.714 
#    5.143    1.429    0.000    0.857    0.000    0.000 
#    0.000    0.000    0.000    0.000    0.000    0.000 
#
# Total GULP energy -156175.265816 kJ/mol
# GULP energy per Si atom -5577.688065 kJ/mol
# Density = 1.939449 g / cm^3
# Si number density = 19.438733 Si / 1000 Ang^3
#
#
#
# Elastic Constant Matrix: (Units=GPa)
#
#
# Indices 1 2 3 4 5 6 
#
# 1 64.9631 28.1570 10.1366 0.0000 0.0000 0.0000
# 2 28.1570 54.8700 22.1270 0.0000 0.0000 0.0000
# 3 10.1366 22.1270 78.6140 0.0000 0.0000 0.0000
# 4 0.0000 0.0000 0.0000 28.0631 0.0000 0.0000
# 5 0.0000 0.0000 0.0000 0.0000 15.7335 0.0000
# 6 0.0000 0.0000 0.0000 0.0000 0.0000 28.7218
#
#
#
# Elastic Compliance Matrix: (Units=1/GPa)
#
#
# Indices 1 2 3 4 5 6 
#
# 1 0.019805 -0.010303 0.000346 0.000000 0.000000 0.000000
# 2 -0.010303 0.025918 -0.005967 0.000000 0.000000 0.000000
# 3 0.000346 -0.005967 0.014355 0.000000 0.000000 0.000000
# 4 0.000000 0.000000 0.000000 0.035634 0.000000 0.000000
# 5 0.000000 0.000000 0.000000 0.000000 0.063559 0.000000
# 6 0.000000 0.000000 0.000000 0.000000 0.000000 0.034817
#
#
# Mechanical properties :
#
#
# Convention : Reuss Voigt Hill
#
# Bulk Modulus (GPa) = 35.42102 35.47650 35.44876
# Shear Modulus (GPa) = 21.24553 23.70546 22.47549
#
# Velocity S-wave (km/s) = 3.30956 3.49592 3.40402
# Velocity P-wave (km/s) = 5.73286 5.88093 5.80737
#
# Compressibility (1/GPa) = 0.02823182
#
# Stress axis : x y z
#
# Youngs Moduli (GPa) = 50.49281 38.58346 69.66161
#
# Poissons Ratio (x) = 0.39751 -0.02411
# Poissons Ratio (y) = 0.52021 0.41564
# Poissons Ratio (z) = -0.01748 0.23021
#
# Static dielectric constant tensor:
#      x y z
#    x 1.698770 0.000000 0.000000 
#    y 0.000000 1.699070 0.000000 
#    z 0.000000 0.000000 1.698160 
# 
# From -- ./inp_files/25400.got.cif
#   From: 2010.05.17/outbox.cif.g08.bks.cpg/sg22_13_cif.got.tgz:25400.got - 2010.06.03 23:40:54.
