data_PCOD9326867
_publ_section_title
;
Structure prediction by ZEFSAII (Michael W. Deem and Ramdas Pophale) SiO2 
 PCOD9326867
Probable space group: F 2 2 2
;
_chemical_formula_sum "Si O2"
_cell_formula_units_Z 112
_cell_length_a 14.259584
_cell_length_b 13.407452
_cell_length_c 26.160657
_cell_angle_alpha 90.000000
_cell_angle_beta 90.000000
_cell_angle_gamma 90.000000
_cell_volume 5001.517047
_symmetry_space_group_name_H-M "F 2 2 2"
_symmetry_group_IT_number 22
_symmetry_cell_setting 'orthorhombic'
loop_
_space_group_symop_operation_xyz
x,y,z
-x,-y,z
x,-y,-z
-x,y,-z
x,1/2+y,1/2+z
-x,1/2-y,1/2+z
x,1/2-y,1/2-z
-x,1/2+y,1/2-z
1/2+x,y,1/2+z
1/2-x,-y,1/2+z
1/2+x,-y,1/2-z
1/2-x,y,1/2-z
1/2+x,1/2+y,z
1/2-x,1/2-y,z
1/2+x,1/2-y,-z
1/2-x,1/2+y,-z
loop_
_atom_site_type_symbol
_atom_site_label
_atom_site_fract_x
_atom_site_fract_y
_atom_site_fract_z
Si Si1 0.654698 0.201583 0.807217
Si Si2 0.321769 0.036185 0.056928
Si Si3 0.171606 0.338921 0.488598
Si Si4 0.442366 0.235568 0.810230
Si Si5 0.611455 0.480855 0.341631
Si Si6 0.472250 0.695754 0.554391
Si Si7 0.851402 0.202282 0.099379
O O1 0.654465 0.250000 0.750000
O O2 0.750000 0.250000 0.831338
O O3 0.552043 0.232970 0.828220
O O4 0.651673 0.079636 0.811894
O O5 0.220312 0.080383 0.046403
O O6 0.330113 0.967408 0.105877
O O7 0.393347 0.122728 0.074939
O O8 0.348669 0.000000 0.000000
O O9 0.250000 0.250000 0.491920
O O10 0.080794 0.296742 0.461033
O O11 0.151963 0.365068 0.547926
O O12 0.443871 0.250000 0.750000
O O13 0.388467 0.319517 0.843655
O O14 0.391978 0.127683 0.816014
O O15 0.500000 0.500000 0.351581
O O16 0.500000 0.649516 0.500000
O O17 0.567539 0.718017 0.583021
O O18 0.750000 0.250000 0.104055
#
# Coordination Sequence:
#
# PCOD9326867 Si02
#       7
#    16  16  16  16  16  16  16
#     4   9  19  40  69 100 133 176 226 288 357 412
#     4  11  23  32  58  97 131 160 201 268 345 401
#     4   8  18  35  54  86 122 163 207 255 322 416
#     4  10  22  40  64  98 133 182 234 287 356 415
#     4  10  22  36  60  98 139 170 220 284 338 408
#     4   9  18  33  55  85 121 168 208 259 325 399
#     4  10  20  36  59  81 122 170 227 272 321 394
#
# _framework density 22.393205999999999
#
# number of rings (size 3 to 8) (size 9 to 14) (size 15 to 20)
#    0.000    2.429    0.000    2.571   10.000    3.143 
#    0.000    2.857    0.000    3.857   11.143    0.000 
#    0.000    0.000    0.000    0.000    0.000    0.000 
#
# Total GULP energy -155925.615847 kJ/mol
# GULP energy per Si atom -5568.771995 kJ/mol
# Density = 2.234224 g / cm^3
# Si number density = 22.393206 Si / 1000 Ang^3
#
#
#
# Elastic Constant Matrix: (Units=GPa)
#
#
# Indices 1 2 3 4 5 6 
#
# 1 138.3365 47.5145 35.6004 0.0000 0.0000 0.0000
# 2 47.5145 94.2863 34.8830 0.0000 0.0000 0.0000
# 3 35.6004 34.8830 99.6834 0.0000 0.0000 0.0000
# 4 0.0000 0.0000 0.0000 34.9426 0.0000 0.0000
# 5 0.0000 0.0000 0.0000 0.0000 40.8267 0.0000
# 6 0.0000 0.0000 0.0000 0.0000 0.0000 32.9973
#
#
#
# Elastic Compliance Matrix: (Units=1/GPa)
#
#
# Indices 1 2 3 4 5 6 
#
# 1 0.009038 -0.003860 -0.001877 0.000000 0.000000 0.000000
# 2 -0.003860 0.013832 -0.003462 0.000000 0.000000 0.000000
# 3 -0.001877 -0.003462 0.011913 0.000000 0.000000 0.000000
# 4 0.000000 0.000000 0.000000 0.028618 0.000000 0.000000
# 5 0.000000 0.000000 0.000000 0.000000 0.024494 0.000000
# 6 0.000000 0.000000 0.000000 0.000000 0.000000 0.030305
#
#
# Mechanical properties :
#
#
# Convention : Reuss Voigt Hill
#
# Bulk Modulus (GPa) = 61.02891 63.14468 62.08679
# Shear Modulus (GPa) = 35.19644 36.04053 35.61848
#
# Velocity S-wave (km/s) = 3.96883 4.01614 3.99255
# Velocity P-wave (km/s) = 6.95087 7.05444 7.00285
#
# Compressibility (1/GPa) = 0.01638568
#
# Stress axis : x y z
#
# Youngs Moduli (GPa) = 110.64951 72.29634 83.93857
#
# Poissons Ratio (x) = 0.27906 0.15754
# Poissons Ratio (y) = 0.42711 0.29058
# Poissons Ratio (z) = 0.20767 0.25028
#
# Static dielectric constant tensor:
#      x y z
#    x 1.837550 0.000000 0.000000 
#    y 0.000000 1.904470 0.000000 
#    z 0.000000 0.000000 2.169770 
# 
# From -- ./inp_files/53208.got.cif
#   From: 2010.05.17/outbox.cif.g08.bks.cpg/sg22_27_cif.got.tgz:53208.got - 2010.06.03 23:40:54.
