data_PCOD9326038
_publ_section_title
;
Structure prediction by ZEFSAII (Michael W. Deem and Ramdas Pophale) SiO2 
 PCOD9326038
Probable space group: F 2 2 2
;
_chemical_formula_sum "Si O2"
_cell_formula_units_Z 120
_cell_length_a 22.954553
_cell_length_b 26.937522
_cell_length_c 12.455828
_cell_angle_alpha 90.000000
_cell_angle_beta 90.000000
_cell_angle_gamma 90.000000
_cell_volume 7701.921445
_symmetry_space_group_name_H-M "F 2 2 2"
_symmetry_group_IT_number 22
_symmetry_cell_setting 'orthorhombic'
loop_
_space_group_symop_operation_xyz
x,y,z
-x,-y,z
x,-y,-z
-x,y,-z
x,1/2+y,1/2+z
-x,1/2-y,1/2+z
x,1/2-y,1/2-z
-x,1/2+y,1/2-z
1/2+x,y,1/2+z
1/2-x,-y,1/2+z
1/2+x,-y,1/2-z
1/2-x,y,1/2-z
1/2+x,1/2+y,z
1/2-x,1/2-y,z
1/2+x,1/2-y,-z
1/2-x,1/2+y,-z
loop_
_atom_site_type_symbol
_atom_site_label
_atom_site_fract_x
_atom_site_fract_y
_atom_site_fract_z
Si Si1 0.567952 0.505567 0.735438
Si Si2 0.637670 0.447773 0.448149
Si Si3 0.367831 0.093615 0.172672
Si Si4 0.332082 0.526300 0.111764
Si Si5 0.254598 0.614409 0.373286
Si Si6 0.655492 0.694117 0.247139
Si Si7 0.252285 0.193908 0.436661
Si Si8 0.250000 0.453357 0.250000
O O1 0.500000 0.500000 0.754107
O O2 0.584419 0.535207 0.626430
O O3 0.595520 0.450840 0.723602
O O4 0.607262 0.530964 0.825914
O O5 0.660138 0.500000 0.500000
O O6 0.621789 0.411632 0.545797
O O7 0.688484 0.421042 0.382138
O O8 0.382549 0.146131 0.225391
O O9 0.299046 0.080370 0.192466
O O10 0.299802 0.578551 0.102572
O O11 0.287412 0.489558 0.174331
O O12 0.342974 0.500000 0.000000
O O13 0.250000 0.632756 0.250000
O O14 0.256459 0.655389 0.467074
O O15 0.630330 0.750000 0.250000
O O16 0.689108 0.686298 0.134199
O O17 0.702471 0.692763 0.344763
O O18 0.250000 0.250000 0.480262
#
# Coordination Sequence:
#
# PCOD9326038 Si02
#       8
#    16  16  16  16  16  16  16   8
#     4  10  22  37  48  69 103 130 175 218 256 303
#     4  10  19  32  48  73 102 130 166 201 253 305
#     4  10  18  28  53  75  99 135 159 199 261 300
#     4  11  21  30  47  71  98 136 166 204 245 302
#     4  12  19  30  48  72 105 132 166 198 245 315
#     4   9  17  31  48  73 104 131 166 206 251 303
#     4   9  19  30  46  72 105 137 163 203 251 304
#     4  10  18  30  43  74 107 124 158 192 242 312
#
# _framework density 15.580527
#
# number of rings (size 3 to 8) (size 9 to 14) (size 15 to 20)
#    0.000    1.867    3.333    4.400    3.733    2.933 
#    0.000    0.000    0.000    0.000    0.000    1.867 
#    0.000    0.000    0.000    0.000    0.000    0.000 
#
# Total GULP energy -167190.206626 kJ/mol
# GULP energy per Si atom -5573.006888 kJ/mol
# Density = 1.554507 g / cm^3
# Si number density = 15.580527 Si / 1000 Ang^3
#
#
#
# Elastic Constant Matrix: (Units=GPa)
#
#
# Indices 1 2 3 4 5 6 
#
# 1 72.7578 21.1754 12.4029 0.0000 0.0000 0.0000
# 2 21.1754 91.5644 33.8996 0.0000 0.0000 0.0000
# 3 12.4029 33.8996 77.4928 0.0000 0.0000 0.0000
# 4 0.0000 0.0000 0.0000 24.5047 0.0000 0.0000
# 5 0.0000 0.0000 0.0000 0.0000 6.2781 0.0000
# 6 0.0000 0.0000 0.0000 0.0000 0.0000 8.2804
#
#
#
# Elastic Compliance Matrix: (Units=1/GPa)
#
#
# Indices 1 2 3 4 5 6 
#
# 1 0.014806 -0.003039 -0.001040 0.000000 0.000000 0.000000
# 2 -0.003039 0.013656 -0.005487 0.000000 0.000000 0.000000
# 3 -0.001040 -0.005487 0.015471 0.000000 0.000000 0.000000
# 4 0.000000 0.000000 0.000000 0.040808 0.000000 0.000000
# 5 0.000000 0.000000 0.000000 0.000000 0.159284 0.000000
# 6 0.000000 0.000000 0.000000 0.000000 0.000000 0.120767
#
#
# Mechanical properties :
#
#
# Convention : Reuss Voigt Hill
#
# Bulk Modulus (GPa) = 40.32283 41.86344 41.09313
# Shear Modulus (GPa) = 12.74886 19.43512 16.09199
#
# Velocity S-wave (km/s) = 2.86362 3.53568 3.21725
# Velocity P-wave (km/s) = 6.07209 6.60269 6.34294
#
# Compressibility (1/GPa) = 0.02479985
#
# Stress axis : x y z
#
# Youngs Moduli (GPa) = 67.54011 73.22989 64.63535
#
# Poissons Ratio (x) = 0.22254 0.06724
# Poissons Ratio (y) = 0.20525 0.35468
# Poissons Ratio (z) = 0.07026 0.40184
#
# Static dielectric constant tensor:
#      x y z
#    x 1.502460 0.000000 0.000000 
#    y 0.000000 1.550730 0.000000 
#    z 0.000000 0.000000 1.528080 
# 
# From -- ./inp_files/23111.got.cif
#   From: 2010.05.17/outbox.cif.g08.bks.cpg/sg22_12_cif.got.tgz:23111.got - 2010.06.03 23:40:54.
