data_PCOD9326121
_publ_section_title
;
Structure prediction by ZEFSAII (Michael W. Deem and Ramdas Pophale) SiO2 
 PCOD9326121
Probable space group: F 2 2 2
;
_chemical_formula_sum "Si O2"
_cell_formula_units_Z 112
_cell_length_a 14.441443
_cell_length_b 22.581295
_cell_length_c 20.554615
_cell_angle_alpha 90.000000
_cell_angle_beta 90.000000
_cell_angle_gamma 90.000000
_cell_volume 6702.993240
_symmetry_space_group_name_H-M "F 2 2 2"
_symmetry_group_IT_number 22
_symmetry_cell_setting 'orthorhombic'
loop_
_space_group_symop_operation_xyz
x,y,z
-x,-y,z
x,-y,-z
-x,y,-z
x,1/2+y,1/2+z
-x,1/2-y,1/2+z
x,1/2-y,1/2-z
-x,1/2+y,1/2-z
1/2+x,y,1/2+z
1/2-x,-y,1/2+z
1/2+x,-y,1/2-z
1/2-x,y,1/2-z
1/2+x,1/2+y,z
1/2-x,1/2-y,z
1/2+x,1/2-y,-z
1/2-x,1/2+y,-z
loop_
_atom_site_type_symbol
_atom_site_label
_atom_site_fract_x
_atom_site_fract_y
_atom_site_fract_z
Si Si1 0.782362 0.929709 0.867120
Si Si2 0.141237 0.264424 0.588298
Si Si3 0.243578 0.955938 0.937383
Si Si4 0.848600 0.336189 0.278827
Si Si5 0.892448 0.376996 0.490055
Si Si6 0.588271 0.356231 0.358311
Si Si7 0.041626 0.933879 0.568224
O O1 0.831017 0.903371 0.803350
O O2 0.845893 0.907071 0.926672
O O3 0.682203 0.895984 0.869752
O O4 0.773531 0.999782 0.876897
O O5 0.250000 0.250000 0.584027
O O6 0.126555 0.298981 0.657192
O O7 0.114477 0.307498 0.528888
O O8 0.092995 0.201203 0.595803
O O9 0.348277 0.933360 0.934168
O O10 0.169528 0.904130 0.951435
O O11 0.240995 0.000000 0.000000
O O12 0.750000 0.315178 0.250000
O O13 0.913142 0.335568 0.216457
O O14 0.000000 0.392500 0.500000
O O15 0.500685 0.395095 0.375160
O O16 0.000000 0.911355 0.500000
O O17 0.000000 0.000000 0.574928
#
# Coordination Sequence:
#
# PCOD9326121 Si02
#       7
#    16  16  16  16  16  16  16
#     4   9  17  30  53  76  99 134 180 216 266 319
#     4  11  19  32  52  77 103 137 177 224 276 326
#     4  10  18  33  53  73 102 143 179 215 258 329
#     4   9  17  29  51  77 106 134 167 222 283 319
#     4  10  21  35  50  72 105 143 180 221 262 325
#     4  11  19  30  52  81 109 132 167 224 282 322
#     4  11  19  31  50  77 111 141 170 209 265 332
#
# _framework density 16.708953000000001
#
# number of rings (size 3 to 8) (size 9 to 14) (size 15 to 20)
#    0.000    1.857    7.143    1.286    0.000    3.143 
#    0.000    0.000    6.286    0.000    0.000    0.000 
#    0.000    4.571    0.000    0.000    0.000    0.000 
#
# Total GULP energy -155888.408440 kJ/mol
# GULP energy per Si atom -5567.443159 kJ/mol
# Density = 1.667092 g / cm^3
# Si number density = 16.708953 Si / 1000 Ang^3
#
#
#
# Elastic Constant Matrix: (Units=GPa)
#
#
# Indices 1 2 3 4 5 6 
#
# 1 79.1465 34.4036 12.9577 0.0000 0.0000 0.0000
# 2 34.4036 83.5280 33.3577 0.0000 0.0000 0.0000
# 3 12.9577 33.3577 24.2499 0.0000 0.0000 0.0000
# 4 0.0000 0.0000 0.0000 15.7171 0.0000 0.0000
# 5 0.0000 0.0000 0.0000 0.0000 12.0036 0.0000
# 6 0.0000 0.0000 0.0000 0.0000 0.0000 11.0809
#
#
#
# Elastic Compliance Matrix: (Units=1/GPa)
#
#
# Indices 1 2 3 4 5 6 
#
# 1 0.015403 -0.006784 0.001102 0.000000 0.000000 0.000000
# 2 -0.006784 0.029554 -0.037029 0.000000 0.000000 0.000000
# 3 0.001102 -0.037029 0.091585 0.000000 0.000000 0.000000
# 4 0.000000 0.000000 0.000000 0.063625 0.000000 0.000000
# 5 0.000000 0.000000 0.000000 0.000000 0.083308 0.000000
# 6 0.000000 0.000000 0.000000 0.000000 0.000000 0.090245
#
#
# Mechanical properties :
#
#
# Convention : Reuss Voigt Hill
#
# Bulk Modulus (GPa) = 19.56207 38.70694 29.13451
# Shear Modulus (GPa) = 10.50013 14.84069 12.67041
#
# Velocity S-wave (km/s) = 2.50954 2.98348 2.75671
# Velocity P-wave (km/s) = 4.48665 5.92317 5.25423
#
# Compressibility (1/GPa) = 0.05111933
#
# Stress axis : x y z
#
# Youngs Moduli (GPa) = 64.92043 33.83603 10.91881
#
# Poissons Ratio (x) = 0.22956 -0.01203
# Poissons Ratio (y) = 0.44044 0.40431
# Poissons Ratio (z) = -0.07153 1.25292
#
# Static dielectric constant tensor:
#      x y z
#    x 1.554250 0.000000 0.000000 
#    y 0.000000 1.625330 0.000000 
#    z 0.000000 0.000000 1.602880 
# 
# From -- ./inp_files/48368.got.cif
#   From: 2010.05.17/outbox.cif.g08.bks.cpg/sg22_25_cif.got.tgz:48368.got - 2010.06.03 23:40:54.
