data_PCOD9326879
_publ_section_title
;
Structure prediction by ZEFSAII (Michael W. Deem and Ramdas Pophale) SiO2 
 PCOD9326879
Probable space group: F 2 2 2
;
_chemical_formula_sum "Si O2"
_cell_formula_units_Z 116
_cell_length_a 21.196639
_cell_length_b 29.940086
_cell_length_c 8.861018
_cell_angle_alpha 90.000000
_cell_angle_beta 90.000000
_cell_angle_gamma 90.000000
_cell_volume 5623.460716
_symmetry_space_group_name_H-M "F 2 2 2"
_symmetry_group_IT_number 22
_symmetry_cell_setting 'orthorhombic'
loop_
_space_group_symop_operation_xyz
x,y,z
-x,-y,z
x,-y,-z
-x,y,-z
x,1/2+y,1/2+z
-x,1/2-y,1/2+z
x,1/2-y,1/2-z
-x,1/2+y,1/2-z
1/2+x,y,1/2+z
1/2-x,-y,1/2+z
1/2+x,-y,1/2-z
1/2-x,y,1/2-z
1/2+x,1/2+y,z
1/2-x,1/2-y,z
1/2+x,1/2-y,-z
1/2-x,1/2+y,-z
loop_
_atom_site_type_symbol
_atom_site_label
_atom_site_fract_x
_atom_site_fract_y
_atom_site_fract_z
Si Si1 0.346181 0.115938 0.734274
Si Si2 0.853951 0.394493 0.771502
Si Si3 0.924082 0.334704 0.011391
Si Si4 0.681136 0.676107 0.039554
Si Si5 0.720271 0.948130 0.981908
Si Si6 0.373325 0.949385 0.506175
Si Si7 0.250000 0.750000 0.750000
Si Si8 0.932222 0.738033 0.427633
O O1 0.391636 0.143893 0.843253
O O2 0.308692 0.151410 0.623519
O O3 0.306450 0.080842 0.839720
O O4 0.389196 0.084754 0.626803
O O5 0.815552 0.363947 0.656868
O O6 0.891791 0.428158 0.665088
O O7 0.896554 0.362193 0.871297
O O8 0.808849 0.422586 0.877299
O O9 0.903905 0.283044 0.000462
O O10 0.000000 0.335780 0.000000
O O11 0.716990 0.716307 0.128147
O O12 0.610738 0.695888 0.037107
O O13 0.796169 0.949619 0.990645
O O14 0.699500 0.000000 0.000000
O O15 0.395312 0.000000 0.500000
O O16 0.936675 0.750000 0.250000
O O17 0.000000 0.730926 0.500000
#
# Coordination Sequence:
#
# PCOD9326879 Si02
#       8
#    16  16  16  16  16  16   4  16
#     4  10  23  37  60  95 127 155 209 267 297 381
#     4  10  20  36  61  85 120 160 198 250 300 388
#     4  10  22  41  64  87 117 157 204 267 324 362
#     4  11  24  40  61  92 127 177 214 243 330 383
#     4  10  20  37  61  91 124 160 206 253 310 360
#     4  10  20  36  60  90 119 157 205 254 304 357
#     4  12  24  44  64  82 144 196 202 246 316 468
#     4  11  23  42  67  93 119 161 226 282 318 359
#
# _framework density 20.627866000000001
#
# number of rings (size 3 to 8) (size 9 to 14) (size 15 to 20)
#    0.000    1.655    2.069    1.655    7.724    2.207 
#    2.483    2.069    0.000   17.379    0.000    0.000 
#    0.000    0.000    0.000    0.000    0.000    0.000 
#
# Total GULP energy -161708.082874 kJ/mol
# GULP energy per Si atom -5576.140789 kJ/mol
# Density = 2.058092 g / cm^3
# Si number density = 20.627866 Si / 1000 Ang^3
#
#
#
# Elastic Constant Matrix: (Units=GPa)
#
#
# Indices 1 2 3 4 5 6 
#
# 1 31.1989 32.0047 24.0794 0.0000 0.0001 -0.0001
# 2 32.0047 153.4140 61.8839 -0.0001 0.0001 0.0000
# 3 24.0794 61.8839 139.1693 -0.0001 0.0002 -0.0002
# 4 0.0000 -0.0001 -0.0001 22.4756 0.0001 -0.0002
# 5 0.0001 0.0001 0.0002 0.0001 19.6843 0.0002
# 6 -0.0001 0.0000 -0.0002 -0.0002 0.0002 28.4270
#
#
#
# Elastic Compliance Matrix: (Units=1/GPa)
#
#
# Indices 1 2 3 4 5 6 
#
# 1 0.042681 -0.007220 -0.004174 0.000000 0.000000 0.000000
# 2 -0.007220 0.009164 -0.002826 0.000000 0.000000 0.000000
# 3 -0.004174 -0.002826 0.009164 0.000000 0.000000 0.000000
# 4 0.000000 0.000000 0.000000 0.044493 0.000000 0.000000
# 5 0.000000 0.000000 0.000000 0.000000 0.050802 0.000000
# 6 0.000000 0.000000 0.000000 0.000000 0.000000 0.035178
#
#
# Mechanical properties :
#
#
# Convention : Reuss Voigt Hill
#
# Bulk Modulus (GPa) = 30.70398 62.19093 46.44746
# Shear Modulus (GPa) = 21.66578 27.83831 24.75205
#
# Velocity S-wave (km/s) = 3.24437 3.67761 3.46776
# Velocity P-wave (km/s) = 5.38067 6.94604 6.21285
#
# Compressibility (1/GPa) = 0.03256906
#
# Stress axis : x y z
#
# Youngs Moduli (GPa) = 23.42980 109.11728 109.11916
#
# Poissons Ratio (x) = 0.78784 0.45548
# Poissons Ratio (y) = 0.16917 0.30836
# Poissons Ratio (z) = 0.09780 0.30835
#
# Static dielectric constant tensor:
#      x y z
#    x 1.761510 0.000000 0.000000 
#    y 0.000000 1.749340 0.000000 
#    z 0.000000 0.000000 1.687800 
# 
# From -- ./inp_files/14095.got.cif
#   From: 2010.05.17/outbox.cif.g08.bks.cpg/sg22_8_cif.got.tgz:14095.got - 2010.06.03 23:40:54.
