data_PCOD9326625
_publ_section_title
;
Structure prediction by ZEFSAII (Michael W. Deem and Ramdas Pophale) SiO2 
 PCOD9326625
Probable space group: F 2 2 2
;
_chemical_formula_sum "Si O2"
_cell_formula_units_Z 56
_cell_length_a 26.605759
_cell_length_b 12.610972
_cell_length_c 7.116853
_cell_angle_alpha 90.000000
_cell_angle_beta 90.000000
_cell_angle_gamma 90.000000
_cell_volume 2387.878415
_symmetry_space_group_name_H-M "F 2 2 2"
_symmetry_group_IT_number 22
_symmetry_cell_setting 'orthorhombic'
loop_
_space_group_symop_operation_xyz
x,y,z
-x,-y,z
x,-y,-z
-x,y,-z
x,1/2+y,1/2+z
-x,1/2-y,1/2+z
x,1/2-y,1/2-z
-x,1/2+y,1/2-z
1/2+x,y,1/2+z
1/2-x,-y,1/2+z
1/2+x,-y,1/2-z
1/2-x,y,1/2-z
1/2+x,1/2+y,z
1/2-x,1/2-y,z
1/2+x,1/2-y,-z
1/2-x,1/2+y,-z
loop_
_atom_site_type_symbol
_atom_site_label
_atom_site_fract_x
_atom_site_fract_y
_atom_site_fract_z
Si Si1 0.344552 0.627264 0.689597
Si Si2 0.613857 0.250000 0.250000
Si Si3 0.049754 0.838222 0.594585
Si Si4 0.192315 0.411424 0.762027
O O1 0.338975 0.750000 0.750000
O O2 0.404259 0.596897 0.689099
O O3 0.324146 0.611582 0.477812
O O4 0.314392 0.534322 0.792982
O O5 0.578917 0.287198 0.418796
O O6 0.651000 0.338620 0.162796
O O7 0.035231 0.750000 0.750000
O O8 0.000000 0.885624 0.500000
O O9 0.250000 0.380168 0.750000
#
# Coordination Sequence:
#
# PCOD9326625 Si02
#       4
#    16   8  16  16
#     4   9  21  43  64  96 129 168 222 273 327 399
#     4  10  21  40  64  92 134 164 217 274 316 404
#     4  10  19  38  67  94 125 170 211 269 336 391
#     4  10  21  43  63  94 130 175 218 267 336 388
#
# _framework density 23.451779999999999
#
# number of rings (size 3 to 8) (size 9 to 14) (size 15 to 20)
#    0.000    2.286    1.429    0.429    0.000    0.571 
#   46.286   11.429    0.000    6.857    0.000    0.000 
#    0.000    0.000    0.000    0.000    0.000    0.000 
#
# Total GULP energy -78089.851191 kJ/mol
# GULP energy per Si atom -5577.846514 kJ/mol
# Density = 2.339840 g / cm^3
# Si number density = 23.451780 Si / 1000 Ang^3
#
#
#
# Elastic Constant Matrix: (Units=GPa)
#
#
# Indices 1 2 3 4 5 6 
#
# 1 187.5039 53.6099 20.6630 0.0000 0.0000 0.0000
# 2 53.6099 142.5952 26.9512 0.0000 0.0000 0.0000
# 3 20.6630 26.9512 61.4970 0.0000 0.0000 0.0000
# 4 0.0000 0.0000 0.0000 23.6732 0.0000 0.0000
# 5 0.0000 0.0000 0.0000 0.0000 25.7784 0.0000
# 6 0.0000 0.0000 0.0000 0.0000 0.0000 18.0707
#
#
#
# Elastic Compliance Matrix: (Units=1/GPa)
#
#
# Indices 1 2 3 4 5 6 
#
# 1 0.006047 -0.002060 -0.001129 0.000000 0.000000 0.000000
# 2 -0.002060 0.008348 -0.002966 0.000000 0.000000 0.000000
# 3 -0.001129 -0.002966 0.017940 0.000000 0.000000 0.000000
# 4 0.000000 0.000000 0.000000 0.042242 0.000000 0.000000
# 5 0.000000 0.000000 0.000000 0.000000 0.038792 0.000000
# 6 0.000000 0.000000 0.000000 0.000000 0.000000 0.055338
#
#
# Mechanical properties :
#
#
# Convention : Reuss Voigt Hill
#
# Bulk Modulus (GPa) = 49.93892 66.00494 57.97193
# Shear Modulus (GPa) = 26.63936 32.86259 29.75097
#
# Velocity S-wave (km/s) = 3.37400 3.74743 3.56561
# Velocity P-wave (km/s) = 6.04310 6.85058 6.45947
#
# Compressibility (1/GPa) = 0.02002446
#
# Stress axis : x y z
#
# Youngs Moduli (GPa) = 165.38278 119.78983 55.74048
#
# Poissons Ratio (x) = 0.24675 0.06293
# Poissons Ratio (y) = 0.34067 0.16535
# Poissons Ratio (z) = 0.18670 0.35534
#
# Static dielectric constant tensor:
#      x y z
#    x 1.871440 0.000000 0.000000 
#    y 0.000000 1.990630 0.000000 
#    z 0.000000 0.000000 2.033260 
# 
# From -- ./inp_files/14309.got.cif
#   From: 2010.05.17/outbox.cif.g08.bks.cpg/sg22_8_cif.got.tgz:14309.got - 2010.06.03 23:40:54.
