data_PCOD9326489
_publ_section_title
;
Structure prediction by ZEFSAII (Michael W. Deem and Ramdas Pophale) SiO2 
 PCOD9326489
Probable space group: F 2 2 2
;
_chemical_formula_sum "Si O2"
_cell_formula_units_Z 60
_cell_length_a 12.119128
_cell_length_b 30.188288
_cell_length_c 7.783921
_cell_angle_alpha 90.000000
_cell_angle_beta 90.000000
_cell_angle_gamma 90.000000
_cell_volume 2847.792071
_symmetry_space_group_name_H-M "F 2 2 2"
_symmetry_group_IT_number 22
_symmetry_cell_setting 'orthorhombic'
loop_
_space_group_symop_operation_xyz
x,y,z
-x,-y,z
x,-y,-z
-x,y,-z
x,1/2+y,1/2+z
-x,1/2-y,1/2+z
x,1/2-y,1/2-z
-x,1/2+y,1/2-z
1/2+x,y,1/2+z
1/2-x,-y,1/2+z
1/2+x,-y,1/2-z
1/2-x,y,1/2-z
1/2+x,1/2+y,z
1/2-x,1/2-y,z
1/2+x,1/2-y,-z
1/2-x,1/2+y,-z
loop_
_atom_site_type_symbol
_atom_site_label
_atom_site_fract_x
_atom_site_fract_y
_atom_site_fract_z
Si Si1 0.916597 0.197489 0.737015
Si Si2 0.342887 0.168002 0.896393
Si Si3 0.000000 0.000000 0.500000
Si Si4 0.500000 0.370060 0.000000
Si Si5 0.126069 0.425946 0.792339
O O1 0.907557 0.250000 0.750000
O O2 0.830016 0.186176 0.586994
O O3 0.917405 0.163573 0.898604
O O4 0.042945 0.188599 0.672822
O O5 0.250000 0.174666 0.750000
O O6 0.362312 0.115638 0.920474
O O7 0.066666 0.967081 0.376731
O O8 0.436046 0.402277 0.867727
O O9 0.250000 0.439503 0.750000
#
# Coordination Sequence:
#
# PCOD9326489 Si02
#       5
#    16  16   4   8  16
#     4  10  19  35  61  93 128 166 212 268 315 365
#     4   9  19  39  62  85 123 172 212 252 318 394
#     4  12  24  42  66  94 124 158 210 264 316 392
#     4  10  20  39  65  92 130 170 207 263 326 378
#     4  10  23  42  64  90 122 163 205 256 320 384
#
# _framework density 21.068954999999999
#
# number of rings (size 3 to 8) (size 9 to 14) (size 15 to 20)
#    0.000    2.133    0.000    4.800    0.000    3.200 
#    0.000   26.667    0.000   33.600    0.000    0.000 
#    0.000    0.000    0.000    0.000    0.000    0.000 
#
# Total GULP energy -83675.506063 kJ/mol
# GULP energy per Si atom -5578.367071 kJ/mol
# Density = 2.102100 g / cm^3
# Si number density = 21.068955 Si / 1000 Ang^3
#
#
#
# Elastic Constant Matrix: (Units=GPa)
#
#
# Indices 1 2 3 4 5 6 
#
# 1 116.4184 90.6046 60.6220 0.0000 0.0000 0.0000
# 2 90.6046 209.2806 106.6724 0.0000 0.0000 0.0000
# 3 60.6220 106.6724 132.0268 0.0000 0.0000 0.0000
# 4 0.0000 0.0000 0.0000 88.5537 0.0000 0.0000
# 5 0.0000 0.0000 0.0000 0.0000 21.4195 0.0000
# 6 0.0000 0.0000 0.0000 0.0000 0.0000 122.5297
#
#
#
# Elastic Compliance Matrix: (Units=1/GPa)
#
#
# Indices 1 2 3 4 5 6 
#
# 1 0.013421 -0.004539 -0.002496 0.000000 0.000000 0.000000
# 2 -0.004539 0.009659 -0.005720 0.000000 0.000000 0.000000
# 3 -0.002496 -0.005720 0.013342 0.000000 0.000000 0.000000
# 4 0.000000 0.000000 0.000000 0.011293 0.000000 0.000000
# 5 0.000000 0.000000 0.000000 0.000000 0.046686 0.000000
# 6 0.000000 0.000000 0.000000 0.000000 0.000000 0.008161
#
#
# Mechanical properties :
#
#
# Convention : Reuss Voigt Hill
#
# Bulk Modulus (GPa) = 91.62974 108.16931 99.89952
# Shear Modulus (GPa) = 37.96279 59.82236 48.89258
#
# Velocity S-wave (km/s) = 4.24941 5.33435 4.82248
# Velocity P-wave (km/s) = 8.22566 9.45476 8.86154
#
# Compressibility (1/GPa) = 0.01091349
#
# Stress axis : x y z
#
# Youngs Moduli (GPa) = 74.50752 103.53462 74.95364
#
# Poissons Ratio (x) = 0.46989 0.18706
# Poissons Ratio (y) = 0.33815 0.42872
# Poissons Ratio (z) = 0.18595 0.59220
#
# Static dielectric constant tensor:
#      x y z
#    x 1.623950 0.000000 0.000000 
#    y 0.000000 1.712890 0.000000 
#    z 0.000000 0.000000 1.784800 
# 
# From -- ./inp_files/8398.got.cif
#   From: 2010.05.17/outbox.cif.g08.bks.cpg/sg22_5_cif.got.tgz:8398.got - 2010.06.03 23:40:54.
