data_PCOD9326352
_publ_section_title
;
Structure prediction by ZEFSAII (Michael W. Deem and Ramdas Pophale) SiO2 
 PCOD9326352
Probable space group: F 2 2 2
;
_chemical_formula_sum "Si O2"
_cell_formula_units_Z 108
_cell_length_a 15.773687
_cell_length_b 12.889512
_cell_length_c 23.453251
_cell_angle_alpha 90.000000
_cell_angle_beta 90.000000
_cell_angle_gamma 90.000000
_cell_volume 4768.400726
_symmetry_space_group_name_H-M "F 2 2 2"
_symmetry_group_IT_number 22
_symmetry_cell_setting 'orthorhombic'
loop_
_space_group_symop_operation_xyz
x,y,z
-x,-y,z
x,-y,-z
-x,y,-z
x,1/2+y,1/2+z
-x,1/2-y,1/2+z
x,1/2-y,1/2-z
-x,1/2+y,1/2-z
1/2+x,y,1/2+z
1/2-x,-y,1/2+z
1/2+x,-y,1/2-z
1/2-x,y,1/2-z
1/2+x,1/2+y,z
1/2-x,1/2-y,z
1/2+x,1/2-y,-z
1/2-x,1/2+y,-z
loop_
_atom_site_type_symbol
_atom_site_label
_atom_site_fract_x
_atom_site_fract_y
_atom_site_fract_z
Si Si1 0.392559 0.185428 0.948404
Si Si2 0.675207 0.675734 0.429298
Si Si3 0.901194 0.513466 0.349297
Si Si4 0.000000 0.500000 0.000000
Si Si5 0.529835 0.227304 0.628082
Si Si6 0.657346 0.559217 0.269935
Si Si7 0.223107 0.539169 0.113038
Si Si8 0.533515 0.750000 0.250000
O O1 0.445118 0.079459 0.962296
O O2 0.455936 0.267088 0.918943
O O3 0.318233 0.144810 0.907963
O O4 0.354601 0.217287 0.009158
O O5 0.750000 0.750000 0.408057
O O6 0.591674 0.679446 0.390190
O O7 0.706291 0.557482 0.429675
O O8 0.900629 0.635322 0.365992
O O9 0.882137 0.494001 0.282500
O O10 0.824483 0.456306 0.380049
O O11 0.000000 0.500000 0.362618
O O12 0.487030 0.227611 0.690658
O O13 0.750000 0.597560 0.250000
O O14 0.677882 0.496941 0.327568
O O15 0.593676 0.655536 0.269258
#
# Coordination Sequence:
#
# PCOD9326352 Si02
#       8
#    16  16  16   4  16  16  16   8
#     4  12  24  40  63  95 132 166 219 274 339 399
#     4  12  22  39  64  91 126 166 219 271 334 391
#     4  10  23  41  61  89 132 173 220 269 330 406
#     4  12  20  36  60  92 128 156 192 272 330 392
#     4  11  22  39  62  92 129 169 206 275 331 400
#     4   9  19  33  58  89 122 164 208 264 327 388
#     4  11  21  39  65  93 127 171 217 276 332 396
#     4  10  19  32  58  94 127 158 208 262 333 396
#
# _framework density 22.649103
#
# number of rings (size 3 to 8) (size 9 to 14) (size 15 to 20)
#    0.000    1.185    5.926    0.222    0.000    3.556 
#    0.000    0.000    0.000    0.000    0.000    7.259 
#    0.000    0.000    0.000    0.000    0.000    0.000 
#
# Total GULP energy -150483.231824 kJ/mol
# GULP energy per Si atom -5573.453031 kJ/mol
# Density = 2.259755 g / cm^3
# Si number density = 22.649103 Si / 1000 Ang^3
#
#
#
# Elastic Constant Matrix: (Units=GPa)
#
#
# Indices 1 2 3 4 5 6 
#
# 1 111.2475 14.5994 44.2968 0.0000 0.0000 0.0000
# 2 14.5994 21.0303 2.6738 0.0000 0.0000 0.0000
# 3 44.2968 2.6738 113.5452 0.0000 0.0000 0.0000
# 4 0.0000 0.0000 0.0000 14.3251 0.0000 0.0000
# 5 0.0000 0.0000 0.0000 0.0000 33.6664 0.0000
# 6 0.0000 0.0000 0.0000 0.0000 0.0000 42.8759
#
#
#
# Elastic Compliance Matrix: (Units=1/GPa)
#
#
# Indices 1 2 3 4 5 6 
#
# 1 0.011737 -0.007588 -0.004400 0.000000 0.000000 0.000000
# 2 -0.007588 0.052599 0.001722 0.000000 0.000000 0.000000
# 3 -0.004400 0.001722 0.010483 0.000000 0.000000 0.000000
# 4 0.000000 0.000000 0.000000 0.069808 0.000000 0.000000
# 5 0.000000 0.000000 0.000000 0.000000 0.029703 0.000000
# 6 0.000000 0.000000 0.000000 0.000000 0.000000 0.023323
#
#
# Mechanical properties :
#
#
# Convention : Reuss Voigt Hill
#
# Bulk Modulus (GPa) = 18.42098 40.99588 29.70843
# Shear Modulus (GPa) = 21.16114 30.45700 25.80907
#
# Velocity S-wave (km/s) = 3.05995 3.67104 3.37934
# Velocity P-wave (km/s) = 4.54261 6.00903 5.32652
#
# Compressibility (1/GPa) = 0.05428592
#
# Stress axis : x y z
#
# Youngs Moduli (GPa) = 85.20156 19.01161 95.39137
#
# Poissons Ratio (x) = 0.14427 0.41974
# Poissons Ratio (y) = 0.64654 -0.16424
# Poissons Ratio (z) = 0.37490 -0.03273
#
# Static dielectric constant tensor:
#      x y z
#    x 1.864540 0.000000 0.000000 
#    y 0.000000 1.975860 0.000000 
#    z 0.000000 0.000000 1.907210 
# 
# From -- ./inp_files/29688.got.cif
#   From: 2010.05.17/outbox.cif.g08.bks.cpg/sg22_15_cif.got.tgz:29688.got - 2010.06.03 23:40:54.
