data_PCOD9326925
_publ_section_title
;
Structure prediction by ZEFSAII (Michael W. Deem and Ramdas Pophale) SiO2 
 PCOD9326925
Probable space group: F 2 2 2
;
_chemical_formula_sum "Si O2"
_cell_formula_units_Z 112
_cell_length_a 14.306898
_cell_length_b 11.054024
_cell_length_c 32.740227
_cell_angle_alpha 90.000000
_cell_angle_beta 90.000000
_cell_angle_gamma 90.000000
_cell_volume 5177.827411
_symmetry_space_group_name_H-M "F 2 2 2"
_symmetry_group_IT_number 22
_symmetry_cell_setting 'orthorhombic'
loop_
_space_group_symop_operation_xyz
x,y,z
-x,-y,z
x,-y,-z
-x,y,-z
x,1/2+y,1/2+z
-x,1/2-y,1/2+z
x,1/2-y,1/2-z
-x,1/2+y,1/2-z
1/2+x,y,1/2+z
1/2-x,-y,1/2+z
1/2+x,-y,1/2-z
1/2-x,y,1/2-z
1/2+x,1/2+y,z
1/2-x,1/2-y,z
1/2+x,1/2-y,-z
1/2-x,1/2+y,-z
loop_
_atom_site_type_symbol
_atom_site_label
_atom_site_fract_x
_atom_site_fract_y
_atom_site_fract_z
Si Si1 0.141376 0.276182 0.527297
Si Si2 0.118845 0.343850 0.657635
Si Si3 0.553459 0.756156 0.060865
Si Si4 0.193199 0.626747 0.878313
Si Si5 0.368038 0.499093 0.079193
Si Si6 0.831984 0.093830 0.322459
Si Si7 0.052767 0.617505 0.254600
O O1 0.250000 0.250000 0.536786
O O2 0.113932 0.240506 0.481236
O O3 0.133744 0.417479 0.539211
O O4 0.055350 0.216046 0.552512
O O5 0.101789 0.416084 0.616734
O O6 0.107519 0.198741 0.654985
O O7 0.225919 0.370967 0.668918
O O8 0.066619 0.392449 0.697238
O O9 0.604726 0.835076 0.094740
O O10 0.567664 0.616607 0.073337
O O11 0.250000 0.750000 0.866016
O O12 0.266241 0.552682 0.907054
O O13 0.160703 0.540123 0.841280
O O14 0.856940 0.114888 0.274954
O O15 0.007447 0.750000 0.250000
O O16 0.000000 0.500000 0.239299
#
# Coordination Sequence:
#
# PCOD9326925 Si02
#       7
#    16  16  16  16  16  16  16
#     4  11  23  38  64  92 123 165 220 259 313 391
#     4   9  19  36  66  89 120 156 215 261 315 382
#     4  10  22  42  60  92 129 164 202 270 332 377
#     4   9  19  38  62  92 132 163 205 268 337 381
#     4  10  20  36  65  93 121 160 215 266 319 380
#     4   9  18  37  64  89 118 166 209 256 316 391
#     4  10  21  40  57  88 127 170 212 267 323 381
#
# _framework density 21.630694999999999
#
# number of rings (size 3 to 8) (size 9 to 14) (size 15 to 20)
#    0.000    2.286    0.000    2.571    4.000    4.000 
#   12.857    0.714    0.000    1.714    0.000    0.000 
#    0.000    0.000    0.000    0.000    0.000    0.000 
#
# Total GULP energy -156122.099955 kJ/mol
# GULP energy per Si atom -5575.789284 kJ/mol
# Density = 2.158146 g / cm^3
# Si number density = 21.630695 Si / 1000 Ang^3
#
#
#
# Elastic Constant Matrix: (Units=GPa)
#
#
# Indices 1 2 3 4 5 6 
#
# 1 107.3065 35.0327 13.9195 0.0000 0.0000 0.0000
# 2 35.0327 109.7133 46.9121 0.0000 0.0000 0.0000
# 3 13.9195 46.9121 60.2654 0.0000 0.0000 0.0000
# 4 0.0000 0.0000 0.0000 22.2936 0.0000 0.0000
# 5 0.0000 0.0000 0.0000 0.0000 -40.6685 0.0000
# 6 0.0000 0.0000 0.0000 0.0000 0.0000 12.2857
#
#
#
# Elastic Compliance Matrix: (Units=1/GPa)
#
#
# Indices 1 2 3 4 5 6 
#
# 1 0.010407 -0.003440 0.000274 0.000000 0.000000 0.000000
# 2 -0.003440 0.014799 -0.010726 0.000000 0.000000 0.000000
# 3 0.000274 -0.010726 0.024879 0.000000 0.000000 0.000000
# 4 0.000000 0.000000 0.000000 0.044856 0.000000 0.000000
# 5 0.000000 0.000000 0.000000 0.000000 -0.024589 0.000000
# 6 0.000000 0.000000 0.000000 0.000000 0.000000 0.081396
#
#
# Mechanical properties :
#
#
# Convention : Reuss Voigt Hill
#
# Bulk Modulus (GPa) = 44.83905 52.11266 48.47586
# Shear Modulus (GPa) = 26.74305 10.87687 18.80996
#
# Velocity S-wave (km/s) = 3.51999 2.24485 2.95209
# Velocity P-wave (km/s) = 6.10695 5.55549 5.83773
#
# Compressibility (1/GPa) = 0.02230199
#
# Stress axis : x y z
#
# Youngs Moduli (GPa) = 96.09216 67.57072 40.19462
#
# Poissons Ratio (x) = 0.23246 -0.01103
# Poissons Ratio (y) = 0.33058 0.43111
# Poissons Ratio (z) = -0.02637 0.72473
#
# Static dielectric constant tensor:
#      x y z
#    x 1.830440 0.000000 0.000000 
#    y 0.000000 1.916750 0.000000 
#    z 0.000000 0.000000 1.774830 
# 
# From -- ./inp_files/56461.got.cif
#   From: 2010.05.17/outbox.cif.g08.bks.cpg/sg22_29_cif.got.tgz:56461.got - 2010.06.03 23:40:54.
