data_PCOD9326336
_publ_section_title
;
Structure prediction by ZEFSAII (Michael W. Deem and Ramdas Pophale) SiO2 
 PCOD9326336
Probable space group: F 2 2 2
;
_chemical_formula_sum "Si O2"
_cell_formula_units_Z 68
_cell_length_a 21.718041
_cell_length_b 5.165609
_cell_length_c 25.780317
_cell_angle_alpha 90.000000
_cell_angle_beta 90.000000
_cell_angle_gamma 90.000000
_cell_volume 2892.214053
_symmetry_space_group_name_H-M "F 2 2 2"
_symmetry_group_IT_number 22
_symmetry_cell_setting 'orthorhombic'
loop_
_space_group_symop_operation_xyz
x,y,z
-x,-y,z
x,-y,-z
-x,y,-z
x,1/2+y,1/2+z
-x,1/2-y,1/2+z
x,1/2-y,1/2-z
-x,1/2+y,1/2-z
1/2+x,y,1/2+z
1/2-x,-y,1/2+z
1/2+x,-y,1/2-z
1/2-x,y,1/2-z
1/2+x,1/2+y,z
1/2-x,1/2-y,z
1/2+x,1/2-y,-z
1/2-x,1/2+y,-z
loop_
_atom_site_type_symbol
_atom_site_label
_atom_site_fract_x
_atom_site_fract_y
_atom_site_fract_z
Si Si1 0.900360 0.716974 0.073292
Si Si2 0.606676 0.824040 0.196314
Si Si3 0.183537 0.835135 0.184291
Si Si4 0.818463 0.793480 0.937592
Si Si5 0.500000 0.000000 0.000000
O O1 0.915700 0.723225 0.135962
O O2 0.857723 0.468013 0.061550
O O3 0.861105 0.958193 0.052227
O O4 0.960024 0.676215 0.038526
O O5 0.569750 0.750000 0.250000
O O6 0.662083 0.617484 0.200610
O O7 0.632435 0.116323 0.196830
O O8 0.250000 0.750000 0.202083
O O9 0.191007 0.847459 0.123045
O O10 0.750000 0.750000 0.961174
#
# Coordination Sequence:
#
# PCOD9326336 Si02
#       5
#    16  16  16  16   4
#     4  10  23  40  65  95 127 175 222 273 331 392
#     4  10  19  32  52  82 122 162 209 265 320 384
#     4   9  17  28  48  83 126 168 203 245 313 397
#     4   9  18  38  65  96 132 167 213 272 337 401
#     4  12  28  50  72  94 132 182 244 290 332 402
#
# _framework density 23.511399999999998
#
# number of rings (size 3 to 8) (size 9 to 14) (size 15 to 20)
#    0.000    2.353    0.000    2.118    0.000   11.294 
#    0.000    2.353    0.000    8.471    0.000    0.000 
#    0.000    0.000    0.000    0.235    0.000    0.000 
#
# Total GULP energy -94763.742028 kJ/mol
# GULP energy per Si atom -5574.337766 kJ/mol
# Density = 2.345789 g / cm^3
# Si number density = 23.511400 Si / 1000 Ang^3
#
#
#
# Elastic Constant Matrix: (Units=GPa)
#
#
# Indices 1 2 3 4 5 6 
#
# 1 95.5138 51.4123 45.2989 0.0027 -0.0051 -0.0067
# 2 51.4123 172.4293 3.0487 -0.0035 0.0027 -0.0181
# 3 45.2989 3.0487 228.5533 0.0012 -0.0034 0.0051
# 4 0.0027 -0.0035 0.0012 48.9620 0.0014 0.0004
# 5 -0.0051 0.0027 -0.0034 0.0014 -45.1205 -0.0007
# 6 -0.0067 -0.0181 0.0051 0.0004 -0.0007 50.8114
#
#
#
# Elastic Compliance Matrix: (Units=1/GPa)
#
#
# Indices 1 2 3 4 5 6 
#
# 1 0.013974 -0.004119 -0.002715 -0.000001 -0.000002 0.000001
# 2 -0.004119 0.007015 0.000723 0.000001 0.000001 0.000002
# 3 -0.002715 0.000723 0.004904 0.000000 0.000000 -0.000001
# 4 -0.000001 0.000001 0.000000 0.020424 0.000001 0.000000
# 5 -0.000002 0.000001 0.000000 0.000001 -0.022163 0.000000
# 6 0.000001 0.000002 -0.000001 0.000000 0.000000 0.019681
#
#
# Mechanical properties :
#
#
# Convention : Reuss Voigt Hill
#
# Bulk Modulus (GPa) = 73.14514 77.33513 75.24013
# Shear Modulus (GPa) = 82.49107 37.37967 59.93537
#
# Velocity S-wave (km/s) = 5.92973 3.99162 5.05444
# Velocity P-wave (km/s) = 8.83518 7.36261 8.13229
#
# Compressibility (1/GPa) = 0.01367145
#
# Stress axis : x y z
#
# Youngs Moduli (GPa) = 71.56094 142.55741 203.92523
#
# Poissons Ratio (x) = 0.58713 0.55360
# Poissons Ratio (y) = 0.29473 -0.14738
# Poissons Ratio (z) = 0.19427 -0.10303
#
# Static dielectric constant tensor:
#      x y z
#    x 1.918100 0.000000 0.000000 
#    y 0.000000 1.887820 0.000000 
#    z 0.000000 0.000000 2.024000 
# 
# From -- ./inp_files/53766.got.cif
#   From: 2010.05.17/outbox.cif.g08.bks.cpg/sg22_27_cif.got.tgz:53766.got - 2010.06.03 23:40:54.
