data_PCOD9326699
_publ_section_title
;
Structure prediction by ZEFSAII (Michael W. Deem and Ramdas Pophale) SiO2 
 PCOD9326699
Probable space group: F 2 2 2
;
_chemical_formula_sum "Si O2"
_cell_formula_units_Z 116
_cell_length_a 12.560002
_cell_length_b 23.358141
_cell_length_c 21.237284
_cell_angle_alpha 90.000000
_cell_angle_beta 90.000000
_cell_angle_gamma 90.000000
_cell_volume 6230.558227
_symmetry_space_group_name_H-M "F 2 2 2"
_symmetry_group_IT_number 22
_symmetry_cell_setting 'orthorhombic'
loop_
_space_group_symop_operation_xyz
x,y,z
-x,-y,z
x,-y,-z
-x,y,-z
x,1/2+y,1/2+z
-x,1/2-y,1/2+z
x,1/2-y,1/2-z
-x,1/2+y,1/2-z
1/2+x,y,1/2+z
1/2-x,-y,1/2+z
1/2+x,-y,1/2-z
1/2-x,y,1/2-z
1/2+x,1/2+y,z
1/2-x,1/2-y,z
1/2+x,1/2-y,-z
1/2-x,1/2+y,-z
loop_
_atom_site_type_symbol
_atom_site_label
_atom_site_fract_x
_atom_site_fract_y
_atom_site_fract_z
Si Si1 0.040185 0.669299 0.614791
Si Si2 0.231446 0.496176 0.143944
Si Si3 0.750793 0.888362 0.441970
Si Si4 0.000000 0.000000 0.000000
Si Si5 0.635794 0.282100 0.615859
Si Si6 0.599301 0.031212 0.748323
Si Si7 0.649372 0.410270 0.072046
Si Si8 0.379383 0.339617 0.255473
O O1 0.136670 0.630497 0.587722
O O2 0.057620 0.733610 0.588429
O O3 0.065105 0.673911 0.689256
O O4 0.929178 0.638909 0.598041
O O5 0.219507 0.450212 0.087691
O O6 0.312658 0.467642 0.193875
O O7 0.130433 0.503670 0.189086
O O8 0.280232 0.555914 0.122420
O O9 0.835688 0.839780 0.422186
O O10 0.726704 0.890318 0.515891
O O11 0.073141 0.040948 0.957974
O O12 0.750000 0.250000 0.622802
O O13 0.596315 0.300633 0.684824
O O14 0.585501 0.095862 0.769901
O O15 0.500000 0.000000 0.718090
O O16 0.250000 0.338028 0.250000
#
# Coordination Sequence:
#
# PCOD9326699 Si02
#       8
#    16  16  16   4  16  16  16  16
#     4  11  20  30  49  86 114 144 186 238 295 355
#     4  11  20  35  53  86 117 156 188 237 308 356
#     4  11  18  33  52  81 113 149 187 234 295 349
#     4  12  20  28  52  88 110 144 172 236 292 352
#     4  10  20  30  54  80 112 145 185 240 297 345
#     4  11  21  33  55  82 123 152 191 240 292 368
#     4  12  22  33  53  82 123 148 192 236 302 359
#     4  12  17  32  52  82 116 148 182 239 304 347
#
# _framework density 18.617913999999999
#
# number of rings (size 3 to 8) (size 9 to 14) (size 15 to 20)
#    0.000    0.828    9.655    1.241    0.966    0.000 
#    0.000    0.000    0.000    9.931    0.000    0.000 
#    0.000    0.000    0.000    0.000    0.000    0.000 
#
# Total GULP energy -161748.694033 kJ/mol
# GULP energy per Si atom -5577.541174 kJ/mol
# Density = 1.857554 g / cm^3
# Si number density = 18.617914 Si / 1000 Ang^3
#
#
#
# Elastic Constant Matrix: (Units=GPa)
#
#
# Indices 1 2 3 4 5 6 
#
# 1 27.2423 25.6122 14.3911 0.0000 0.0000 0.0000
# 2 25.6122 93.1236 34.0785 0.0000 0.0000 0.0000
# 3 14.3911 34.0785 71.5861 0.0000 0.0000 0.0000
# 4 0.0000 0.0000 0.0000 -350.1107 0.0000 0.0000
# 5 0.0000 0.0000 0.0000 0.0000 18.1361 0.0000
# 6 0.0000 0.0000 0.0000 0.0000 0.0000 16.9871
#
#
#
# Elastic Compliance Matrix: (Units=1/GPa)
#
#
# Indices 1 2 3 4 5 6 
#
# 1 0.050576 -0.012339 -0.004293 0.000000 0.000000 0.000000
# 2 -0.012339 0.016014 -0.005143 0.000000 0.000000 0.000000
# 3 -0.004293 -0.005143 0.017281 0.000000 0.000000 0.000000
# 4 0.000000 0.000000 0.000000 -0.002856 0.000000 0.000000
# 5 0.000000 0.000000 0.000000 0.000000 0.055139 0.000000
# 6 0.000000 0.000000 0.000000 0.000000 0.000000 0.058868
#
#
# Mechanical properties :
#
#
# Convention : Reuss Voigt Hill
#
# Bulk Modulus (GPa) = 24.80148 37.79062 31.29605
# Shear Modulus (GPa) = 19.84025 -55.13950 -17.64962
#
# Velocity S-wave (km/s) = 3.26798 -5.44800 -3.08229
# Velocity P-wave (km/s) = 5.25260 4.38545 2.04421
#
# Compressibility (1/GPa) = 0.04032018
#
# Stress axis : x y z
#
# Youngs Moduli (GPa) = 19.77204 62.44472 57.86828
#
# Poissons Ratio (x) = 0.77051 0.24846
# Poissons Ratio (y) = 0.24397 0.29762
# Poissons Ratio (z) = 0.08489 0.32115
#
# Static dielectric constant tensor:
#      x y z
#    x 1.686580 0.000000 0.000000 
#    y 0.000000 1.680380 0.000000 
#    z 0.000000 0.000000 1.681820 
# 
# From -- ./inp_files/37395.got.cif
#   From: 2010.05.17/outbox.cif.g08.bks.cpg/sg22_19_cif.got.tgz:37395.got - 2010.06.03 23:40:54.
