data_PCOD9326490
_publ_section_title
;
Structure prediction by ZEFSAII (Michael W. Deem and Ramdas Pophale) SiO2 
 PCOD9326490
Probable space group: F 2 2 2
;
_chemical_formula_sum "Si O2"
_cell_formula_units_Z 64
_cell_length_a 16.425245
_cell_length_b 10.368776
_cell_length_c 15.994562
_cell_angle_alpha 90.000000
_cell_angle_beta 90.000000
_cell_angle_gamma 90.000000
_cell_volume 2724.028834
_symmetry_space_group_name_H-M "F 2 2 2"
_symmetry_group_IT_number 22
_symmetry_cell_setting 'orthorhombic'
loop_
_space_group_symop_operation_xyz
x,y,z
-x,-y,z
x,-y,-z
-x,y,-z
x,1/2+y,1/2+z
-x,1/2-y,1/2+z
x,1/2-y,1/2-z
-x,1/2+y,1/2-z
1/2+x,y,1/2+z
1/2-x,-y,1/2+z
1/2+x,-y,1/2-z
1/2-x,y,1/2-z
1/2+x,1/2+y,z
1/2-x,1/2-y,z
1/2+x,1/2-y,-z
1/2-x,1/2+y,-z
loop_
_atom_site_type_symbol
_atom_site_label
_atom_site_fract_x
_atom_site_fract_y
_atom_site_fract_z
Si Si1 0.988876 0.634649 0.842356
Si Si2 0.942935 0.388195 0.653854
Si Si3 0.299329 0.628395 0.336149
Si Si4 0.271944 0.097931 0.424132
O O1 0.893833 0.662992 0.826761
O O2 0.000000 0.500000 0.887669
O O3 0.034945 0.619235 0.752610
O O4 0.029876 0.754386 0.886445
O O5 0.848799 0.406678 0.637876
O O6 0.000000 0.500000 0.619226
O O7 0.250000 0.612253 0.250000
O O8 0.250000 0.750000 0.376948
O O9 0.297553 0.490156 0.381742
O O10 0.250000 0.250000 0.437671
O O11 0.295120 0.000000 0.500000
#
# Coordination Sequence:
#
# PCOD9326490 Si02
#       4
#    16  16  16  16
#     4  10  19  35  61  96 130 157 204 263 318 378
#     4  10  20  38  62  94 128 162 207 260 320 381
#     4  11  21  39  68 100 136 171 210 264 325 391
#     4  12  27  45  65  92 132 178 223 269 322 387
#
# _framework density 23.494612
#
# number of rings (size 3 to 8) (size 9 to 14) (size 15 to 20)
#    0.000    1.250    0.000    9.750    0.000    3.000 
#    0.000    0.000    0.000    5.250    0.000    0.000 
#    0.000    0.000    0.000    0.000    0.000    0.000 
#
# Total GULP energy -89259.160545 kJ/mol
# GULP energy per Si atom -5578.697534 kJ/mol
# Density = 2.344114 g / cm^3
# Si number density = 23.494612 Si / 1000 Ang^3
#
#
#
# Elastic Constant Matrix: (Units=GPa)
#
#
# Indices 1 2 3 4 5 6 
#
# 1 129.2816 7.6284 17.0109 0.0000 0.0000 0.0000
# 2 7.6284 221.8074 11.9488 0.0000 0.0000 0.0000
# 3 17.0109 11.9488 37.3383 0.0000 0.0000 0.0000
# 4 0.0000 0.0000 0.0000 23.8200 0.0000 0.0000
# 5 0.0000 0.0000 0.0000 0.0000 -39.5534 0.0000
# 6 0.0000 0.0000 0.0000 0.0000 0.0000 46.7000
#
#
#
# Elastic Compliance Matrix: (Units=1/GPa)
#
#
# Indices 1 2 3 4 5 6 
#
# 1 0.008230 -0.000082 -0.003723 0.000000 0.000000 0.000000
# 2 -0.000082 0.004588 -0.001431 0.000000 0.000000 0.000000
# 3 -0.003723 -0.001431 0.028936 0.000000 0.000000 0.000000
# 4 0.000000 0.000000 0.000000 0.041982 0.000000 0.000000
# 5 0.000000 0.000000 0.000000 0.000000 -0.025282 0.000000
# 6 0.000000 0.000000 0.000000 0.000000 0.000000 0.021413
#
#
# Mechanical properties :
#
#
# Convention : Reuss Voigt Hill
#
# Bulk Modulus (GPa) = 31.96743 51.28927 41.62835
# Shear Modulus (GPa) = 49.61961 29.64927 39.63444
#
# Velocity S-wave (km/s) = 4.60059 3.55626 4.11172
# Velocity P-wave (km/s) = 6.46965 6.22417 6.34810
#
# Compressibility (1/GPa) = 0.03128184
#
# Stress axis : x y z
#
# Youngs Moduli (GPa) = 121.50969 217.94436 34.55879
#
# Poissons Ratio (x) = 0.01798 0.12866
# Poissons Ratio (y) = 0.01002 0.04945
# Poissons Ratio (z) = 0.45238 0.31182
#
# Static dielectric constant tensor:
#      x y z
#    x 1.804630 0.000000 0.000000 
#    y 0.000000 1.998550 0.000000 
#    z 0.000000 0.000000 1.998510 
# 
# From -- ./inp_files/36826.got.cif
#   From: 2010.05.17/outbox.cif.g08.bks.cpg/sg22_19_cif.got.tgz:36826.got - 2010.06.03 23:40:54.
