data_PCOD9326333
_publ_section_title
;
Structure prediction by ZEFSAII (Michael W. Deem and Ramdas Pophale) SiO2 
 PCOD9326333
Probable space group: F 2 2 2
;
_chemical_formula_sum "Si O2"
_cell_formula_units_Z 80
_cell_length_a 23.548649
_cell_length_b 26.239752
_cell_length_c 5.240399
_cell_angle_alpha 90.000000
_cell_angle_beta 90.000000
_cell_angle_gamma 90.000000
_cell_volume 3238.098665
_symmetry_space_group_name_H-M "F 2 2 2"
_symmetry_group_IT_number 22
_symmetry_cell_setting 'orthorhombic'
loop_
_space_group_symop_operation_xyz
x,y,z
-x,-y,z
x,-y,-z
-x,y,-z
x,1/2+y,1/2+z
-x,1/2-y,1/2+z
x,1/2-y,1/2-z
-x,1/2+y,1/2-z
1/2+x,y,1/2+z
1/2-x,-y,1/2+z
1/2+x,-y,1/2-z
1/2-x,y,1/2-z
1/2+x,1/2+y,z
1/2-x,1/2-y,z
1/2+x,1/2-y,-z
1/2-x,1/2+y,-z
loop_
_atom_site_type_symbol
_atom_site_label
_atom_site_fract_x
_atom_site_fract_y
_atom_site_fract_z
Si Si1 0.978653 0.408393 0.753506
Si Si2 0.383961 0.333691 0.273253
Si Si3 0.783394 0.874096 0.000851
Si Si4 0.680501 0.471473 0.244348
Si Si5 0.444381 0.195078 0.729180
O O1 0.015694 0.354588 0.753692
O O2 0.000000 0.434503 0.500000
O O3 0.913879 0.389962 0.772535
O O4 0.000000 0.436893 0.000000
O O5 0.320307 0.336306 0.172335
O O6 0.397752 0.310907 0.547704
O O7 0.416149 0.305913 0.045610
O O8 0.750000 0.900641 0.250000
O O9 0.750000 0.853149 0.750000
O O10 0.825068 0.912464 0.840516
O O11 0.660806 0.500000 0.500000
O O12 0.750000 0.474556 0.250000
O O13 0.657178 0.500000 0.000000
O O14 0.473090 0.250000 0.750000
#
# Coordination Sequence:
#
# PCOD9326333 Si02
#       5
#    16  16  16  16  16
#     4   8  16  28  45  70  99 126 158 209 271 324
#     4  10  20  32  48  73 102 135 173 214 266 324
#     4  11  21  34  52  73 104 145 178 209 255 314
#     4   9  16  28  47  71  95 122 159 202 250 300
#     4  10  19  32  52  76 101 131 173 229 287 327
#
# _framework density 24.705857000000002
#
# number of rings (size 3 to 8) (size 9 to 14) (size 15 to 20)
#    0.000    2.400    0.000    4.800    0.000    7.200 
#    0.000    0.000    0.000    9.000    0.000    0.000 
#    0.000    7.200    0.000  226.800    0.000    0.000 
#
# Total GULP energy -111348.661464 kJ/mol
# GULP energy per Si atom -5567.433073 kJ/mol
# Density = 2.464963 g / cm^3
# Si number density = 24.705857 Si / 1000 Ang^3
#
#
#
# Elastic Constant Matrix: (Units=GPa)
#
#
# Indices 1 2 3 4 5 6 
#
# 1 44.2690 9.3288 26.0607 -0.1611 0.1003 0.0986
# 2 9.3288 43.9503 14.8309 -0.2453 0.1395 0.2538
# 3 26.0607 14.8309 241.2605 -0.2884 0.1666 0.4845
# 4 -0.1611 -0.2453 -0.2884 15.8985 0.2280 0.6914
# 5 0.1003 0.1395 0.1666 0.2280 45.4089 -0.1683
# 6 0.0986 0.2538 0.4845 0.6914 -0.1683 23.1858
#
#
#
# Elastic Compliance Matrix: (Units=1/GPa)
#
#
# Indices 1 2 3 4 5 6 
#
# 1 0.024959 -0.004480 -0.002420 0.000141 -0.000033 -0.000011
# 2 -0.004480 0.024042 -0.000993 0.000319 -0.000063 -0.000233
# 3 -0.002420 -0.000993 0.004468 0.000045 -0.000008 -0.000074
# 4 0.000141 0.000319 0.000045 0.062993 -0.000325 -0.001886
# 5 -0.000033 -0.000063 -0.000008 -0.000325 0.022025 0.000171
# 6 -0.000011 -0.000233 -0.000074 -0.001886 0.000171 0.043191
#
#
# Mechanical properties :
#
#
# Convention : Reuss Voigt Hill
#
# Bulk Modulus (GPa) = 26.53812 47.76895 37.15353
# Shear Modulus (GPa) = 23.80668 35.51594 29.66131
#
# Velocity S-wave (km/s) = 3.10757 3.79562 3.46869
# Velocity P-wave (km/s) = 4.86219 6.21176 5.57794
#
# Compressibility (1/GPa) = 0.03768165
#
# Stress axis : x y z
#
# Youngs Moduli (GPa) = 40.06617 41.59326 223.83367
#
# Poissons Ratio (x) = 0.18634 0.54177
# Poissons Ratio (y) = 0.17950 0.22229
# Poissons Ratio (z) = 0.09698 0.04131
#
# Static dielectric constant tensor:
#      x y z
#    x 2.135940 -0.000170 -0.000720 
#    y -0.000170 2.045860 0.000080 
#    z -0.000720 0.000080 2.057890 
# 
# From -- ./inp_files/4791.got.cif
#   From: 2010.05.17/outbox.cif.g08.bks.cpg/sg22_3_cif.got.tgz:4791.got - 2010.06.03 23:40:54.
