data_PCOD9326914
_publ_section_title
;
Structure prediction by ZEFSAII (Michael W. Deem and Ramdas Pophale) SiO2 
 PCOD9326914
Probable space group: F 2 2 2
;
_chemical_formula_sum "Si O2"
_cell_formula_units_Z 116
_cell_length_a 20.198726
_cell_length_b 12.391634
_cell_length_c 23.915458
_cell_angle_alpha 90.000000
_cell_angle_beta 90.000000
_cell_angle_gamma 90.000000
_cell_volume 5985.924818
_symmetry_space_group_name_H-M "F 2 2 2"
_symmetry_group_IT_number 22
_symmetry_cell_setting 'orthorhombic'
loop_
_space_group_symop_operation_xyz
x,y,z
-x,-y,z
x,-y,-z
-x,y,-z
x,1/2+y,1/2+z
-x,1/2-y,1/2+z
x,1/2-y,1/2-z
-x,1/2+y,1/2-z
1/2+x,y,1/2+z
1/2-x,-y,1/2+z
1/2+x,-y,1/2-z
1/2-x,y,1/2-z
1/2+x,1/2+y,z
1/2-x,1/2-y,z
1/2+x,1/2-y,-z
1/2-x,1/2+y,-z
loop_
_atom_site_type_symbol
_atom_site_label
_atom_site_fract_x
_atom_site_fract_y
_atom_site_fract_z
Si Si1 0.191615 0.596224 0.657650
Si Si2 0.368676 0.231469 0.081469
Si Si3 0.068907 0.436455 0.667809
Si Si4 0.750000 0.750000 0.250000
Si Si5 0.611479 0.611806 0.529401
Si Si6 0.669240 0.002164 0.867909
Si Si7 0.554941 0.406452 0.292323
Si Si8 0.519655 0.255020 0.392167
O O1 0.179066 0.675868 0.604998
O O2 0.128343 0.520664 0.664927
O O3 0.205421 0.674250 0.710400
O O4 0.255970 0.522208 0.650132
O O5 0.357800 0.121495 0.116682
O O6 0.444194 0.268961 0.091995
O O7 0.361092 0.192750 0.017579
O O8 0.070876 0.378806 0.728382
O O9 0.064749 0.349844 0.618089
O O10 0.000000 0.500000 0.665105
O O11 0.590140 0.500000 0.500000
O O12 0.662378 0.572953 0.577245
O O13 0.551038 0.667892 0.561269
O O14 0.621510 0.950653 0.821635
O O15 0.500000 0.500000 0.290681
O O16 0.523869 0.317688 0.333262
#
# Coordination Sequence:
#
# PCOD9326914 Si02
#       8
#    16  16  16   4  16  16  16  16
#     4  12  24  40  64  94 135 166 221 261 319 389
#     4  11  20  38  63  94 125 162 212 270 316 378
#     4  11  24  39  57  89 134 175 204 259 329 399
#     4  12  24  40  72  96 126 180 220 282 318 364
#     4   9  22  39  68  94 123 161 215 271 322 372
#     4  10  20  40  61  99 122 160 210 273 324 366
#     4  10  20  36  63  92 126 162 214 266 318 381
#     4  11  21  39  63  95 129 163 214 265 328 388
#
# _framework density 19.378792000000001
#
# number of rings (size 3 to 8) (size 9 to 14) (size 15 to 20)
#    0.000    1.379    4.138    1.655    0.000    1.655 
#    0.000   10.345    0.000    3.310    0.000    0.000 
#    0.000    0.000    0.000    0.000    0.000    0.000 
#
# Total GULP energy -161932.051903 kJ/mol
# GULP energy per Si atom -5583.863859 kJ/mol
# Density = 1.933468 g / cm^3
# Si number density = 19.378792 Si / 1000 Ang^3
#
#
#
# Elastic Constant Matrix: (Units=GPa)
#
#
# Indices 1 2 3 4 5 6 
#
# 1 122.4560 35.4893 37.9557 0.0000 0.0000 0.0000
# 2 35.4893 58.4628 36.6728 0.0000 0.0000 0.0000
# 3 37.9557 36.6728 93.9733 0.0000 0.0000 0.0000
# 4 0.0000 0.0000 0.0000 20.2480 0.0000 0.0000
# 5 0.0000 0.0000 0.0000 0.0000 8.2978 0.0000
# 6 0.0000 0.0000 0.0000 0.0000 0.0000 36.1582
#
#
#
# Elastic Compliance Matrix: (Units=1/GPa)
#
#
# Indices 1 2 3 4 5 6 
#
# 1 0.010263 -0.004806 -0.002269 0.000000 0.000000 0.000000
# 2 -0.004806 0.024900 -0.007776 0.000000 0.000000 0.000000
# 3 -0.002269 -0.007776 0.014593 0.000000 0.000000 0.000000
# 4 0.000000 0.000000 0.000000 0.049387 0.000000 0.000000
# 5 0.000000 0.000000 0.000000 0.000000 0.120514 0.000000
# 6 0.000000 0.000000 0.000000 0.000000 0.000000 0.027656
#
#
# Mechanical properties :
#
#
# Convention : Reuss Voigt Hill
#
# Bulk Modulus (GPa) = 49.87037 55.01417 52.44227
# Shear Modulus (GPa) = 17.62425 23.92577 20.77501
#
# Velocity S-wave (km/s) = 3.01900 3.51755 3.27777
# Velocity P-wave (km/s) = 6.15978 6.70433 6.43781
#
# Compressibility (1/GPa) = 0.02005199
#
# Stress axis : x y z
#
# Youngs Moduli (GPa) = 97.44206 40.16029 68.52830
#
# Poissons Ratio (x) = 0.19302 0.15552
# Poissons Ratio (y) = 0.46832 0.53288
# Poissons Ratio (z) = 0.22114 0.31229
#
# Static dielectric constant tensor:
#      x y z
#    x 1.650320 0.000000 0.000000 
#    y 0.000000 1.693950 0.000000 
#    z 0.000000 0.000000 1.696430 
# 
# From -- ./inp_files/53640.got.cif
#   From: 2010.05.17/outbox.cif.g08.bks.cpg/sg22_27_cif.got.tgz:53640.got - 2010.06.03 23:40:54.
