data_PCOD9326294
_publ_section_title
;
Structure prediction by ZEFSAII (Michael W. Deem and Ramdas Pophale) SiO2 
 PCOD9326294
Probable space group: F 2 2 2
;
_chemical_formula_sum "Si O2"
_cell_formula_units_Z 60
_cell_length_a 14.222101
_cell_length_b 10.452320
_cell_length_c 14.808607
_cell_angle_alpha 90.000000
_cell_angle_beta 90.000000
_cell_angle_gamma 90.000000
_cell_volume 2201.357935
_symmetry_space_group_name_H-M "F 2 2 2"
_symmetry_group_IT_number 22
_symmetry_cell_setting 'orthorhombic'
loop_
_space_group_symop_operation_xyz
x,y,z
-x,-y,z
x,-y,-z
-x,y,-z
x,1/2+y,1/2+z
-x,1/2-y,1/2+z
x,1/2-y,1/2-z
-x,1/2+y,1/2-z
1/2+x,y,1/2+z
1/2-x,-y,1/2+z
1/2+x,-y,1/2-z
1/2-x,y,1/2-z
1/2+x,1/2+y,z
1/2-x,1/2-y,z
1/2+x,1/2-y,-z
1/2-x,1/2+y,-z
loop_
_atom_site_type_symbol
_atom_site_label
_atom_site_fract_x
_atom_site_fract_y
_atom_site_fract_z
Si Si1 0.947181 0.783971 0.914498
Si Si2 0.500000 0.000000 0.131703
Si Si3 0.239896 0.061298 0.904002
Si Si4 0.250000 0.750000 0.250000
Si Si5 0.609027 0.119771 0.713219
O O1 0.843260 0.837894 0.928212
O O2 0.963511 0.630467 0.914352
O O3 0.006805 0.844046 0.831617
O O4 0.000000 0.837439 0.000000
O O5 0.583360 0.954140 0.196111
O O6 0.290053 0.145760 0.822710
O O7 0.180323 0.950855 0.852813
O O8 0.278216 0.000000 0.000000
O O9 0.650055 0.250000 0.750000
#
# Coordination Sequence:
#
# PCOD9326294 Si02
#       5
#    16   8  16   4  16
#     4  11  20  35  65 104 137 167 221 296 369 428
#     4  10  19  30  53 102 150 172 200 272 380 438
#     4  12  24  48  72  98 140 193 246 289 355 438
#     4  12  32  52  70  98 144 208 244 300 332 430
#     4  10  20  35  64 104 134 172 220 293 373 422
#
# _framework density 27.255904999999998
#
# number of rings (size 3 to 8) (size 9 to 14) (size 15 to 20)
#    0.000    1.067    5.333    2.000    1.867    0.000 
#    4.800    2.667    0.000    0.000    0.000    0.000 
#    0.000    0.000    0.000    0.000    0.000    0.000 
#
# Total GULP energy -83598.113248 kJ/mol
# GULP energy per Si atom -5573.207550 kJ/mol
# Density = 2.719387 g / cm^3
# Si number density = 27.255905 Si / 1000 Ang^3
#
#
#
# Elastic Constant Matrix: (Units=GPa)
#
#
# Indices 1 2 3 4 5 6 
#
# 1 58.1697 20.9678 2.4618 0.0000 0.0000 0.0000
# 2 20.9678 183.0056 58.1584 0.0000 0.0000 0.0000
# 3 2.4618 58.1584 151.1597 0.0000 0.0000 0.0000
# 4 0.0000 0.0000 0.0000 49.4131 0.0000 0.0000
# 5 0.0000 0.0000 0.0000 0.0000 143.1912 0.0000
# 6 0.0000 0.0000 0.0000 0.0000 0.0000 42.7401
#
#
#
# Elastic Compliance Matrix: (Units=1/GPa)
#
#
# Indices 1 2 3 4 5 6 
#
# 1 0.017975 -0.002240 0.000569 0.000000 0.000000 0.000000
# 2 -0.002240 0.006505 -0.002466 0.000000 0.000000 0.000000
# 3 0.000569 -0.002466 0.007555 0.000000 0.000000 0.000000
# 4 0.000000 0.000000 0.000000 0.020238 0.000000 0.000000
# 5 0.000000 0.000000 0.000000 0.000000 0.006984 0.000000
# 6 0.000000 0.000000 0.000000 0.000000 0.000000 0.023397
#
#
# Mechanical properties :
#
#
# Convention : Reuss Voigt Hill
#
# Bulk Modulus (GPa) = 42.08792 61.72345 51.90569
# Shear Modulus (GPa) = 50.58304 67.78534 59.18419
#
# Velocity S-wave (km/s) = 4.31264 4.99239 4.66491
# Velocity P-wave (km/s) = 6.34616 7.47844 6.93544
#
# Compressibility (1/GPa) = 0.02375979
#
# Stress axis : x y z
#
# Youngs Moduli (GPa) = 55.63431 153.73391 132.36061
#
# Poissons Ratio (x) = 0.34441 -0.07534
# Poissons Ratio (y) = 0.12464 0.32643
# Poissons Ratio (z) = -0.03167 0.37914
#
# Static dielectric constant tensor:
#      x y z
#    x 2.257240 0.000000 0.000000 
#    y 0.000000 2.038750 0.000000 
#    z 0.000000 0.000000 2.147410 
# 
# From -- ./inp_files/19311.got.cif
#   From: 2010.05.17/outbox.cif.g08.bks.cpg/sg22_10_cif.got.tgz:19311.got - 2010.06.03 23:40:54.
