data_PCOD9326360
_publ_section_title
;
Structure prediction by ZEFSAII (Michael W. Deem and Ramdas Pophale) SiO2 
 PCOD9326360
Probable space group: F 2 2 2
;
_chemical_formula_sum "Si O2"
_cell_formula_units_Z 88
_cell_length_a 21.163281
_cell_length_b 25.023411
_cell_length_c 8.592496
_cell_angle_alpha 90.000000
_cell_angle_beta 90.000000
_cell_angle_gamma 90.000000
_cell_volume 4550.392366
_symmetry_space_group_name_H-M "F 2 2 2"
_symmetry_group_IT_number 22
_symmetry_cell_setting 'orthorhombic'
loop_
_space_group_symop_operation_xyz
x,y,z
-x,-y,z
x,-y,-z
-x,y,-z
x,1/2+y,1/2+z
-x,1/2-y,1/2+z
x,1/2-y,1/2-z
-x,1/2+y,1/2-z
1/2+x,y,1/2+z
1/2-x,-y,1/2+z
1/2+x,-y,1/2-z
1/2-x,y,1/2-z
1/2+x,1/2+y,z
1/2-x,1/2-y,z
1/2+x,1/2-y,-z
1/2-x,1/2+y,-z
loop_
_atom_site_type_symbol
_atom_site_label
_atom_site_fract_x
_atom_site_fract_y
_atom_site_fract_z
Si Si1 0.500000 0.669626 0.000000
Si Si2 0.751009 0.188534 0.059287
Si Si3 0.882250 0.655732 0.910146
Si Si4 0.000000 0.500000 0.250880
Si Si5 0.000000 0.408149 0.000000
Si Si6 0.950833 0.250000 0.250000
Si Si7 0.390125 0.000000 0.500000
Si Si8 0.131449 0.883434 0.059303
O O1 0.490875 0.708288 0.148754
O O2 0.436915 0.633944 0.992460
O O3 0.750000 0.188444 0.250000
O O4 0.750000 0.250000 0.009088
O O5 0.685790 0.160266 0.011452
O O6 0.813354 0.156968 0.009390
O O7 0.906141 0.714921 0.861893
O O8 0.874748 0.624288 0.746189
O O9 0.937792 0.628068 0.005257
O O10 0.937593 0.502563 0.354410
O O11 0.996759 0.447285 0.146496
O O12 0.353620 0.055692 0.515559
#
# Coordination Sequence:
#
# PCOD9326360 Si02
#       8
#     8  16  16   8   8   8   8  16
#     4  10  19  33  51  86 115 143 195 240 292 344
#     4   9  17  33  57  84 116 151 190 236 288 348
#     4  10  19  34  55  85 116 146 189 241 288 342
#     4  10  22  36  58  84 116 148 190 240 298 340
#     4  11  21  36  57  88 111 148 191 245 292 338
#     4  10  20  32  53  88 115 148 188 246 290 342
#     4  11  20  38  58  84 112 155 192 244 282 363
#     4  10  20  33  58  84 112 151 196 237 287 343
#
# _framework density 19.338992000000001
#
# number of rings (size 3 to 8) (size 9 to 14) (size 15 to 20)
#    0.000    2.000    1.818    4.909    2.545    0.000 
#    0.000    1.818    0.000    0.000    0.000    0.000 
#    0.000    0.000    0.000    0.000    0.000    0.000 
#
# Total GULP energy -122864.037810 kJ/mol
# GULP energy per Si atom -5584.728991 kJ/mol
# Density = 1.929498 g / cm^3
# Si number density = 19.338992 Si / 1000 Ang^3
#
#
#
# Elastic Constant Matrix: (Units=GPa)
#
#
# Indices 1 2 3 4 5 6 
#
# 1 151.5406 68.8782 12.8870 0.0004 0.0001 0.0001
# 2 68.8782 149.4308 13.5924 0.0004 0.0001 0.0000
# 3 12.8870 13.5924 22.8708 0.0017 0.0002 0.0002
# 4 0.0004 0.0004 0.0017 -95.0095 -0.0011 -0.0002
# 5 0.0001 0.0001 0.0002 -0.0011 22.7478 -0.0001
# 6 0.0001 0.0000 0.0002 -0.0002 -0.0001 22.8929
#
#
#
# Elastic Compliance Matrix: (Units=1/GPa)
#
#
# Indices 1 2 3 4 5 6 
#
# 1 0.008491 -0.003678 -0.002599 0.000000 0.000000 0.000000
# 2 -0.003678 0.008667 -0.003079 0.000000 0.000000 0.000000
# 3 -0.002599 -0.003079 0.047018 0.000001 0.000000 0.000000
# 4 0.000000 0.000000 0.000001 -0.010525 0.000000 0.000000
# 5 0.000000 0.000000 0.000000 0.000000 0.043960 0.000000
# 6 0.000000 0.000000 0.000000 0.000000 0.000000 0.043682
#
#
# Mechanical properties :
#
#
# Convention : Reuss Voigt Hill
#
# Bulk Modulus (GPa) = 21.99452 57.17304 39.58378
# Shear Modulus (GPa) = 28.54537 5.35855 16.95196
#
# Velocity S-wave (km/s) = 3.84611 1.66639 2.96390
# Velocity P-wave (km/s) = 5.57864 5.77324 5.67677
#
# Compressibility (1/GPa) = 0.04546588
#
# Stress axis : x y z
#
# Youngs Moduli (GPa) = 117.76533 115.37672 21.26840
#
# Poissons Ratio (x) = 0.42431 0.05528
# Poissons Ratio (y) = 0.43310 0.06548
# Poissons Ratio (z) = 0.30608 0.35522
#
# Static dielectric constant tensor:
#      x y z
#    x 1.684690 0.000000 0.000000 
#    y 0.000000 1.673670 0.000000 
#    z 0.000000 0.000000 1.695790 
# 
# From -- ./inp_files/12735.got.cif
#   From: 2010.05.17/outbox.cif.g08.bks.cpg/sg22_7_cif.got.tgz:12735.got - 2010.06.03 23:40:54.
