data_PCOD9326528
_publ_section_title
;
Structure prediction by ZEFSAII (Michael W. Deem and Ramdas Pophale) SiO2 
 PCOD9326528
Probable space group: F 2 2 2
;
_chemical_formula_sum "Si O2"
_cell_formula_units_Z 96
_cell_length_a 14.197491
_cell_length_b 14.073347
_cell_length_c 22.821971
_cell_angle_alpha 90.000000
_cell_angle_beta 90.000000
_cell_angle_gamma 90.000000
_cell_volume 4559.971698
_symmetry_space_group_name_H-M "F 2 2 2"
_symmetry_group_IT_number 22
_symmetry_cell_setting 'orthorhombic'
loop_
_space_group_symop_operation_xyz
x,y,z
-x,-y,z
x,-y,-z
-x,y,-z
x,1/2+y,1/2+z
-x,1/2-y,1/2+z
x,1/2-y,1/2-z
-x,1/2+y,1/2-z
1/2+x,y,1/2+z
1/2-x,-y,1/2+z
1/2+x,-y,1/2-z
1/2-x,y,1/2-z
1/2+x,1/2+y,z
1/2-x,1/2-y,z
1/2+x,1/2-y,-z
1/2-x,1/2+y,-z
loop_
_atom_site_type_symbol
_atom_site_label
_atom_site_fract_x
_atom_site_fract_y
_atom_site_fract_z
Si Si1 0.084715 0.562318 0.354764
Si Si2 0.158147 0.306853 0.101408
Si Si3 0.066921 0.587346 0.219777
Si Si4 0.269483 0.040154 0.186751
Si Si5 0.556626 0.768288 0.879050
Si Si6 0.111468 0.892580 0.485096
O O1 0.052299 0.593156 0.289134
O O2 0.175022 0.495185 0.345149
O O3 0.101016 0.663808 0.385034
O O4 0.000000 0.500000 0.381195
O O5 0.250000 0.250000 0.120363
O O6 0.166704 0.399522 0.142430
O O7 0.055312 0.260339 0.107307
O O8 0.165400 0.331182 0.033039
O O9 0.171398 0.551091 0.206538
O O10 0.055479 0.683846 0.184777
O O11 0.000000 0.500000 0.199398
O O12 0.250000 0.090608 0.250000
O O13 0.609688 0.844491 0.921259
O O14 0.000000 0.891480 0.500000
O O15 0.142470 0.000000 0.500000
#
# Coordination Sequence:
#
# PCOD9326528 Si02
#       6
#    16  16  16  16  16  16
#     4  10  22  38  57  91 136 169 203 253 322 400
#     4  11  22  39  60  89 125 157 218 272 317 383
#     4  10  19  36  61  90 126 161 211 267 321 379
#     4  10  21  38  60  90 126 169 205 259 323 385
#     4  11  21  38  66  89 122 173 215 261 328 384
#     4   9  20  38  62  84 112 153 211 268 314 361
#
# _framework density 21.052762999999999
#
# number of rings (size 3 to 8) (size 9 to 14) (size 15 to 20)
#    0.000    1.833    1.667    2.500    2.333    1.000 
#    9.000    2.500    0.000    3.500    0.000    0.000 
#    0.000    0.000    0.000    0.000    0.000    0.000 
#
# Total GULP energy -133758.210389 kJ/mol
# GULP energy per Si atom -5573.258766 kJ/mol
# Density = 2.100485 g / cm^3
# Si number density = 21.052763 Si / 1000 Ang^3
#
#
#
# Elastic Constant Matrix: (Units=GPa)
#
#
# Indices 1 2 3 4 5 6 
#
# 1 62.5151 2.1274 -7.7666 0.0000 0.0000 0.0000
# 2 2.1274 67.8993 10.4623 0.0000 0.0000 0.0000
# 3 -7.7666 10.4623 56.7756 0.0000 0.0000 0.0000
# 4 0.0000 0.0000 0.0000 18.5768 0.0000 0.0000
# 5 0.0000 0.0000 0.0000 0.0000 21.4793 0.0000
# 6 0.0000 0.0000 0.0000 0.0000 0.0000 15.6860
#
#
#
# Elastic Compliance Matrix: (Units=1/GPa)
#
#
# Indices 1 2 3 4 5 6 
#
# 1 0.016324 -0.000881 0.002395 0.000000 0.000000 0.000000
# 2 -0.000881 0.015206 -0.002922 0.000000 0.000000 0.000000
# 3 0.002395 -0.002922 0.018479 0.000000 0.000000 0.000000
# 4 0.000000 0.000000 0.000000 0.053830 0.000000 0.000000
# 5 0.000000 0.000000 0.000000 0.000000 0.046557 0.000000
# 6 0.000000 0.000000 0.000000 0.000000 0.000000 0.063751
#
#
# Mechanical properties :
#
#
# Convention : Reuss Voigt Hill
#
# Bulk Modulus (GPa) = 21.18951 21.87071 21.53011
# Shear Modulus (GPa) = 21.48753 23.30622 22.39687
#
# Velocity S-wave (km/s) = 3.19823 3.33083 3.26520
# Velocity P-wave (km/s) = 4.87083 5.02032 4.94614
#
# Compressibility (1/GPa) = 0.04719317
#
# Stress axis : x y z
#
# Youngs Moduli (GPa) = 61.26070 65.76531 54.11430
#
# Poissons Ratio (x) = 0.05791 -0.12962
# Poissons Ratio (y) = 0.05394 0.15815
# Poissons Ratio (z) = -0.14673 0.19220
#
# Static dielectric constant tensor:
#      x y z
#    x 1.780220 0.000000 0.000000 
#    y 0.000000 1.822370 0.000000 
#    z 0.000000 0.000000 1.808940 
# 
# From -- ./inp_files/43488.got.cif
#   From: 2010.05.17/outbox.cif.g08.bks.cpg/sg22_22_cif.got.tgz:43488.got - 2010.06.03 23:40:54.
