data_PCOD9326388
_publ_section_title
;
Structure prediction by ZEFSAII (Michael W. Deem and Ramdas Pophale) SiO2 
 PCOD9326388
Probable space group: F 2 2 2
;
_chemical_formula_sum "Si O2"
_cell_formula_units_Z 108
_cell_length_a 12.261733
_cell_length_b 29.054117
_cell_length_c 14.772480
_cell_angle_alpha 90.000000
_cell_angle_beta 90.000000
_cell_angle_gamma 90.000000
_cell_volume 5262.752508
_symmetry_space_group_name_H-M "F 2 2 2"
_symmetry_group_IT_number 22
_symmetry_cell_setting 'orthorhombic'
loop_
_space_group_symop_operation_xyz
x,y,z
-x,-y,z
x,-y,-z
-x,y,-z
x,1/2+y,1/2+z
-x,1/2-y,1/2+z
x,1/2-y,1/2-z
-x,1/2+y,1/2-z
1/2+x,y,1/2+z
1/2-x,-y,1/2+z
1/2+x,-y,1/2-z
1/2-x,y,1/2-z
1/2+x,1/2+y,z
1/2-x,1/2-y,z
1/2+x,1/2-y,-z
1/2-x,1/2+y,-z
loop_
_atom_site_type_symbol
_atom_site_label
_atom_site_fract_x
_atom_site_fract_y
_atom_site_fract_z
Si Si1 0.698060 0.352996 0.588712
Si Si2 0.000000 0.000000 0.500000
Si Si3 0.463415 0.800843 0.776416
Si Si4 0.473255 0.447562 0.815829
Si Si5 0.467935 0.922078 0.876911
Si Si6 0.636111 0.839637 0.890479
Si Si7 0.543191 0.357263 0.903234
Si Si8 0.750000 0.402946 0.250000
O O1 0.634093 0.326055 0.668335
O O2 0.648814 0.405231 0.586343
O O3 0.672523 0.329823 0.491797
O O4 0.826381 0.354712 0.600614
O O5 0.035841 0.962110 0.426530
O O6 0.428418 0.750000 0.750000
O O7 0.573704 0.799301 0.837471
O O8 0.493891 0.829502 0.686219
O O9 0.500000 0.500000 0.841258
O O10 0.544668 0.435634 0.726774
O O11 0.502887 0.409630 0.890050
O O12 0.351270 0.434998 0.780130
O O13 0.539574 0.877258 0.892889
O O14 0.724156 0.867796 0.832243
O O15 0.500000 0.339711 0.000000
#
# Coordination Sequence:
#
# PCOD9326388 Si02
#       8
#    16   4  16  16  16  16  16   8
#     4  11  22  40  70  95 131 177 221 274 347 405
#     4  12  16  32  56 100 128 144 232 292 312 380
#     4  11  24  45  72 100 131 170 223 290 344 407
#     4  11  23  40  61  95 134 183 232 276 332 400
#     4  10  19  33  59  92 125 165 220 282 320 381
#     4  10  20  41  68  93 130 177 221 268 338 402
#     4  12  26  44  64  95 141 179 224 279 343 413
#     4  10  20  40  67  92 134 186 221 276 340 404
#
# _framework density 20.52158
#
# number of rings (size 3 to 8) (size 9 to 14) (size 15 to 20)
#    0.000    1.185    6.667    2.667    0.000    3.852 
#    0.000    0.370    0.000    0.000    0.000    0.000 
#    0.000    0.000    0.000    0.000    0.000    0.000 
#
# Total GULP energy -150366.607926 kJ/mol
# GULP energy per Si atom -5569.133627 kJ/mol
# Density = 2.047487 g / cm^3
# Si number density = 20.521580 Si / 1000 Ang^3
#
#
#
# Elastic Constant Matrix: (Units=GPa)
#
#
# Indices 1 2 3 4 5 6 
#
# 1 82.3859 22.6383 25.8838 0.0000 0.0000 0.0000
# 2 22.6383 84.0692 21.9212 0.0000 0.0000 0.0000
# 3 25.8838 21.9212 120.5218 0.0000 0.0000 0.0000
# 4 0.0000 0.0000 0.0000 16.1706 0.0000 0.0000
# 5 0.0000 0.0000 0.0000 0.0000 26.0200 0.0000
# 6 0.0000 0.0000 0.0000 0.0000 0.0000 14.2544
#
#
#
# Elastic Compliance Matrix: (Units=1/GPa)
#
#
# Indices 1 2 3 4 5 6 
#
# 1 0.013734 -0.003075 -0.002390 0.000000 0.000000 0.000000
# 2 -0.003075 0.013176 -0.001736 0.000000 0.000000 0.000000
# 3 -0.002390 -0.001736 0.009126 0.000000 0.000000 0.000000
# 4 0.000000 0.000000 0.000000 0.061841 0.000000 0.000000
# 5 0.000000 0.000000 0.000000 0.000000 0.038432 0.000000
# 6 0.000000 0.000000 0.000000 0.000000 0.000000 0.070154
#
#
# Mechanical properties :
#
#
# Convention : Reuss Voigt Hill
#
# Bulk Modulus (GPa) = 46.22505 47.54037 46.88271
# Shear Modulus (GPa) = 21.92251 25.72458 23.82355
#
# Velocity S-wave (km/s) = 3.27198 3.54438 3.41090
# Velocity P-wave (km/s) = 6.07029 6.32190 6.19738
#
# Compressibility (1/GPa) = 0.02163329
#
# Stress axis : x y z
#
# Youngs Moduli (GPa) = 72.81235 75.89732 109.57271
#
# Poissons Ratio (x) = 0.23339 0.26191
# Poissons Ratio (y) = 0.22390 0.19023
# Poissons Ratio (z) = 0.17404 0.13176
#
# Static dielectric constant tensor:
#      x y z
#    x 1.798430 0.000000 0.000000 
#    y 0.000000 1.732190 0.000000 
#    z 0.000000 0.000000 1.375500 
# 
# From -- ./inp_files/28479.got.cif
#   From: 2010.05.17/outbox.cif.g08.bks.cpg/sg22_15_cif.got.tgz:28479.got - 2010.06.03 23:40:54.
