data_PCOD9326260
_publ_section_title
;
Structure prediction by ZEFSAII (Michael W. Deem and Ramdas Pophale) SiO2 
 PCOD9326260
Probable space group: F 2 2 2
;
_chemical_formula_sum "Si O2"
_cell_formula_units_Z 72
_cell_length_a 11.617580
_cell_length_b 10.198166
_cell_length_c 30.654021
_cell_angle_alpha 90.000000
_cell_angle_beta 90.000000
_cell_angle_gamma 90.000000
_cell_volume 3631.827387
_symmetry_space_group_name_H-M "F 2 2 2"
_symmetry_group_IT_number 22
_symmetry_cell_setting 'orthorhombic'
loop_
_space_group_symop_operation_xyz
x,y,z
-x,-y,z
x,-y,-z
-x,y,-z
x,1/2+y,1/2+z
-x,1/2-y,1/2+z
x,1/2-y,1/2-z
-x,1/2+y,1/2-z
1/2+x,y,1/2+z
1/2-x,-y,1/2+z
1/2+x,-y,1/2-z
1/2-x,y,1/2-z
1/2+x,1/2+y,z
1/2-x,1/2-y,z
1/2+x,1/2-y,-z
1/2-x,1/2+y,-z
loop_
_atom_site_type_symbol
_atom_site_label
_atom_site_fract_x
_atom_site_fract_y
_atom_site_fract_z
Si Si1 0.518032 0.155844 0.951201
Si Si2 0.737014 0.569003 0.330976
Si Si3 0.250000 0.250000 0.409536
Si Si4 0.624803 0.803859 0.863245
Si Si5 0.439378 0.791631 0.701876
O O1 0.644156 0.201306 0.937478
O O2 0.439349 0.190455 0.909530
O O3 0.500000 0.000000 0.954065
O O4 0.500000 0.210219 0.000000
O O5 0.778350 0.627819 0.377548
O O6 0.659248 0.441353 0.339712
O O7 0.646553 0.674250 0.312410
O O8 0.854151 0.580998 0.301837
O O9 0.750000 0.750000 0.871950
O O10 0.546056 0.716421 0.831159
O O11 0.477514 0.750000 0.750000
#
# Coordination Sequence:
#
# PCOD9326260 Si02
#       5
#    16  16   8  16  16
#     4  11  22  40  66  94 122 166 214 259 317 385
#     4  10  19  40  67  84 117 162 209 248 308 369
#     4  10  18  38  71  86 114 160 217 248 306 376
#     4  12  24  40  58  93 134 161 203 265 320 376
#     4  10  21  42  65  88 117 165 215 254 310 377
#
# _framework density 19.824729999999999
#
# number of rings (size 3 to 8) (size 9 to 14) (size 15 to 20)
#    0.000    1.556    6.667    2.000    1.556    1.333 
#   12.000    0.000    0.000    1.333    0.000    0.000 
#    0.000    0.000    0.000    0.000    0.000    0.000 
#
# Total GULP energy -100228.998747 kJ/mol
# GULP energy per Si atom -5568.277708 kJ/mol
# Density = 1.977961 g / cm^3
# Si number density = 19.824730 Si / 1000 Ang^3
#
#
#
# Elastic Constant Matrix: (Units=GPa)
#
#
# Indices 1 2 3 4 5 6 
#
# 1 142.9441 14.2652 58.9466 0.0000 0.0000 0.0000
# 2 14.2652 35.1168 -4.0924 0.0000 0.0000 0.0000
# 3 58.9466 -4.0924 144.7663 0.0000 0.0000 0.0000
# 4 0.0000 0.0000 0.0000 1.2703 0.0000 0.0000
# 5 0.0000 0.0000 0.0000 0.0000 5.1812 0.0000
# 6 0.0000 0.0000 0.0000 0.0000 0.0000 23.9664
#
#
#
# Elastic Compliance Matrix: (Units=1/GPa)
#
#
# Indices 1 2 3 4 5 6 
#
# 1 0.008953 -0.004075 -0.003761 0.000000 0.000000 0.000000
# 2 -0.004075 0.030426 0.002520 0.000000 0.000000 0.000000
# 3 -0.003761 0.002520 0.008510 0.000000 0.000000 0.000000
# 4 0.000000 0.000000 0.000000 0.787214 0.000000 0.000000
# 5 0.000000 0.000000 0.000000 0.000000 0.193004 0.000000
# 6 0.000000 0.000000 0.000000 0.000000 0.000000 0.041725
#
#
# Mechanical properties :
#
#
# Convention : Reuss Voigt Hill
#
# Bulk Modulus (GPa) = 26.84147 51.22954 39.03550
# Shear Modulus (GPa) = 4.57505 22.99744 13.78624
#
# Velocity S-wave (km/s) = 1.52078 3.40963 2.63992
# Velocity P-wave (km/s) = 4.08074 6.43413 5.38751
#
# Compressibility (1/GPa) = 0.03725579
#
# Stress axis : x y z
#
# Youngs Moduli (GPa) = 111.69035 32.86715 117.50499
#
# Poissons Ratio (x) = 0.13394 0.44192
# Poissons Ratio (y) = 0.45517 -0.29606
# Poissons Ratio (z) = 0.42005 -0.08281
#
# Static dielectric constant tensor:
#      x y z
#    x 1.693280 0.000000 0.000000 
#    y 0.000000 1.840170 0.000000 
#    z 0.000000 0.000000 1.762780 
# 
# From -- ./inp_files/18225.got.cif
#   From: 2010.05.17/outbox.cif.g08.bks.cpg/sg22_10_cif.got.tgz:18225.got - 2010.06.03 23:40:54.
