data_PCOD9326792
_publ_section_title
;
Structure prediction by ZEFSAII (Michael W. Deem and Ramdas Pophale) SiO2 
 PCOD9326792
Probable space group: F 2 2 2
;
_chemical_formula_sum "Si O2"
_cell_formula_units_Z 92
_cell_length_a 19.667645
_cell_length_b 27.158134
_cell_length_c 9.204287
_cell_angle_alpha 90.000000
_cell_angle_beta 90.000000
_cell_angle_gamma 90.000000
_cell_volume 4916.345996
_symmetry_space_group_name_H-M "F 2 2 2"
_symmetry_group_IT_number 22
_symmetry_cell_setting 'orthorhombic'
loop_
_space_group_symop_operation_xyz
x,y,z
-x,-y,z
x,-y,-z
-x,y,-z
x,1/2+y,1/2+z
-x,1/2-y,1/2+z
x,1/2-y,1/2-z
-x,1/2+y,1/2-z
1/2+x,y,1/2+z
1/2-x,-y,1/2+z
1/2+x,-y,1/2-z
1/2-x,y,1/2-z
1/2+x,1/2+y,z
1/2-x,1/2-y,z
1/2+x,1/2-y,-z
1/2-x,1/2+y,-z
loop_
_atom_site_type_symbol
_atom_site_label
_atom_site_fract_x
_atom_site_fract_y
_atom_site_fract_z
Si Si1 0.078966 0.595100 0.523493
Si Si2 0.250000 0.087225 0.250000
Si Si3 0.612876 0.031502 0.796609
Si Si4 0.187184 0.831160 0.951700
Si Si5 0.000000 0.581387 0.000000
Si Si6 0.250000 0.250000 0.250000
Si Si7 0.378766 0.084040 0.804779
Si Si8 0.250000 0.145785 0.750000
O O1 0.094013 0.550515 0.634372
O O2 0.110956 0.647853 0.567509
O O3 0.111016 0.585547 0.367510
O O4 0.000000 0.598887 0.500000
O O5 0.312952 0.056064 0.187818
O O6 0.226658 0.122813 0.120634
O O7 0.550188 0.051899 0.891992
O O8 0.621235 0.974334 0.832798
O O9 0.204748 0.784338 0.854376
O O10 0.212259 0.825471 0.118370
O O11 0.943116 0.606257 0.894310
O O12 0.308204 0.112364 0.826327
#
# Coordination Sequence:
#
# PCOD9326792 Si02
#       8
#    16   8  16  16   8   4  16   8
#     4  10  20  35  54  77 111 151 194 228 271 332
#     4   9  19  35  52  78 112 150 198 231 283 335
#     4  11  20  32  50  76 113 162 203 238 270 315
#     4   9  20  36  61  85 106 141 176 233 291 352
#     4  12  23  30  46  76 112 152 206 248 276 304
#     4  10  20  42  66  88 104 130 174 226 300 384
#     4  11  21  33  50  78 115 160 198 237 272 317
#     4  10  21  37  55  84 118 144 189 235 287 336
#
# _framework density 18.713085
#
# number of rings (size 3 to 8) (size 9 to 14) (size 15 to 20)
#    0.000    1.739    1.739    3.652    0.000    1.043 
#    0.000    5.217    0.000    4.174    4.522    0.000 
#    0.000    0.000    0.000    0.000    0.000    0.000 
#
# Total GULP energy -128086.376281 kJ/mol
# GULP energy per Si atom -5568.972882 kJ/mol
# Density = 1.867049 g / cm^3
# Si number density = 18.713085 Si / 1000 Ang^3
#
#
#
# Elastic Constant Matrix: (Units=GPa)
#
#
# Indices 1 2 3 4 5 6 
#
# 1 96.5252 20.9096 -4.2157 0.0000 0.0000 0.0000
# 2 20.9096 50.3491 7.8683 0.0000 0.0000 0.0000
# 3 -4.2157 7.8683 75.2064 0.0000 0.0000 0.0000
# 4 0.0000 0.0000 0.0000 19.6457 0.0000 0.0000
# 5 0.0000 0.0000 0.0000 0.0000 35.7835 0.0000
# 6 0.0000 0.0000 0.0000 0.0000 0.0000 10.9769
#
#
#
# Elastic Compliance Matrix: (Units=1/GPa)
#
#
# Indices 1 2 3 4 5 6 
#
# 1 0.011483 -0.004950 0.001162 0.000000 0.000000 0.000000
# 2 -0.004950 0.022326 -0.002613 0.000000 0.000000 0.000000
# 3 0.001162 -0.002613 0.013635 0.000000 0.000000 0.000000
# 4 0.000000 0.000000 0.000000 0.050902 0.000000 0.000000
# 5 0.000000 0.000000 0.000000 0.000000 0.027946 0.000000
# 6 0.000000 0.000000 0.000000 0.000000 0.000000 0.091100
#
#
# Mechanical properties :
#
#
# Convention : Reuss Voigt Hill
#
# Bulk Modulus (GPa) = 28.86844 30.13388 29.50116
# Shear Modulus (GPa) = 20.68318 26.44913 23.56615
#
# Velocity S-wave (km/s) = 3.32818 3.76360 3.55257
# Velocity P-wave (km/s) = 5.49813 5.91814 5.71199
#
# Compressibility (1/GPa) = 0.03463990
#
# Stress axis : x y z
#
# Youngs Moduli (GPa) = 87.08462 44.79170 73.33928
#
# Poissons Ratio (x) = 0.22174 -0.08519
# Poissons Ratio (y) = 0.43110 0.19165
# Poissons Ratio (z) = -0.10116 0.11705
#
# Static dielectric constant tensor:
#      x y z
#    x 1.661370 0.000000 0.000000 
#    y 0.000000 1.636770 0.000000 
#    z 0.000000 0.000000 1.659760 
# 
# From -- ./inp_files/12734.got.cif
#   From: 2010.05.17/outbox.cif.g08.bks.cpg/sg22_7_cif.got.tgz:12734.got - 2010.06.03 23:40:54.
