data_PCOD9326752
_publ_section_title
;
Structure prediction by ZEFSAII (Michael W. Deem and Ramdas Pophale) SiO2 
 PCOD9326752
Probable space group: F 2 2 2
;
_chemical_formula_sum "Si O2"
_cell_formula_units_Z 116
_cell_length_a 25.879358
_cell_length_b 15.307843
_cell_length_c 15.411881
_cell_angle_alpha 90.000000
_cell_angle_beta 90.000000
_cell_angle_gamma 90.000000
_cell_volume 6105.526841
_symmetry_space_group_name_H-M "F 2 2 2"
_symmetry_group_IT_number 22
_symmetry_cell_setting 'orthorhombic'
loop_
_space_group_symop_operation_xyz
x,y,z
-x,-y,z
x,-y,-z
-x,y,-z
x,1/2+y,1/2+z
-x,1/2-y,1/2+z
x,1/2-y,1/2-z
-x,1/2+y,1/2-z
1/2+x,y,1/2+z
1/2-x,-y,1/2+z
1/2+x,-y,1/2-z
1/2-x,y,1/2-z
1/2+x,1/2+y,z
1/2-x,1/2-y,z
1/2+x,1/2-y,-z
1/2-x,1/2+y,-z
loop_
_atom_site_type_symbol
_atom_site_label
_atom_site_fract_x
_atom_site_fract_y
_atom_site_fract_z
Si Si1 0.002171 0.602352 0.605582
Si Si2 0.673892 0.672512 0.611001
Si Si3 0.681428 0.984887 0.658384
Si Si4 0.298271 0.990123 0.860958
Si Si5 0.384875 0.351937 0.093707
Si Si6 0.250000 0.750000 0.250000
Si Si7 0.892812 0.828751 0.886010
Si Si8 0.804223 0.291232 0.914979
O O1 0.057458 0.641887 0.631558
O O2 0.000000 0.500000 0.627981
O O3 0.000000 0.607369 0.500000
O O4 0.950731 0.647694 0.641519
O O5 0.667669 0.569025 0.601313
O O6 0.715011 0.691262 0.686986
O O7 0.623700 0.729740 0.632762
O O8 0.693843 0.710613 0.519808
O O9 0.691680 0.007333 0.758286
O O10 0.738594 0.985410 0.616971
O O11 0.646337 0.060093 0.615995
O O12 0.650603 0.894090 0.651580
O O13 0.308406 0.892097 0.890330
O O14 0.350493 0.268933 0.120252
O O15 0.390400 0.345445 0.989612
O O16 0.750000 0.250000 0.885403
#
# Coordination Sequence:
#
# PCOD9326752 Si02
#       8
#    16  16  16  16  16   4  16  16
#     4   9  16  31  56  87 113 140 180 244 300 339
#     4  11  22  36  55  83 114 153 186 230 283 343
#     4  11  21  34  53  83 112 153 181 235 282 337
#     4  11  24  36  52  76 117 156 191 220 275 342
#     4  10  20  34  57  87 116 144 190 239 290 342
#     4  12  20  36  60  84 126 142 184 236 298 352
#     4  10  20  33  59  87 115 144 187 238 298 344
#     4  11  22  38  55  80 111 154 195 231 273 340
#
# _framework density 18.999179999999999
#
# number of rings (size 3 to 8) (size 9 to 14) (size 15 to 20)
#    0.000    1.517    3.448    3.310    1.931    1.655 
#    0.000    0.000    0.000    7.448    0.000    4.828 
#    0.000    0.000    0.000    0.000    0.000    0.000 
#
# Total GULP energy -161950.295017 kJ/mol
# GULP energy per Si atom -5584.492932 kJ/mol
# Density = 1.895594 g / cm^3
# Si number density = 18.999180 Si / 1000 Ang^3
#
#
#
# Elastic Constant Matrix: (Units=GPa)
#
#
# Indices 1 2 3 4 5 6 
#
# 1 155.0098 89.2384 15.3081 0.0000 0.0000 0.0000
# 2 89.2384 158.1417 5.6940 0.0000 0.0000 0.0000
# 3 15.3081 5.6940 20.3515 0.0000 0.0000 0.0000
# 4 0.0000 0.0000 0.0000 16.0123 0.0000 0.0000
# 5 0.0000 0.0000 0.0000 0.0000 9.4690 0.0000
# 6 0.0000 0.0000 0.0000 0.0000 0.0000 27.1722
#
#
#
# Elastic Compliance Matrix: (Units=1/GPa)
#
#
# Indices 1 2 3 4 5 6 
#
# 1 0.010268 -0.005572 -0.006164 0.000000 0.000000 0.000000
# 2 -0.005572 0.009412 0.001558 0.000000 0.000000 0.000000
# 3 -0.006164 0.001558 0.053337 0.000000 0.000000 0.000000
# 4 0.000000 0.000000 0.000000 0.062452 0.000000 0.000000
# 5 0.000000 0.000000 0.000000 0.000000 0.105608 0.000000
# 6 0.000000 0.000000 0.000000 0.000000 0.000000 0.036802
#
#
# Mechanical properties :
#
#
# Convention : Reuss Voigt Hill
#
# Bulk Modulus (GPa) = 18.98977 61.55378 40.27177
# Shear Modulus (GPa) = 15.83336 25.41486 20.62411
#
# Velocity S-wave (km/s) = 2.88995 3.66140 3.29831
# Velocity P-wave (km/s) = 4.59918 7.09528 5.97894
#
# Compressibility (1/GPa) = 0.05265993
#
# Stress axis : x y z
#
# Youngs Moduli (GPa) = 97.39179 106.25125 18.74863
#
# Poissons Ratio (x) = 0.59204 0.11557
# Poissons Ratio (y) = 0.54268 -0.02921
# Poissons Ratio (z) = 0.60035 -0.16554
#
# Static dielectric constant tensor:
#      x y z
#    x 1.671760 0.000000 0.000000 
#    y 0.000000 1.672060 0.000000 
#    z 0.000000 0.000000 1.676550 
# 
# From -- ./inp_files/39613.got.cif
#   From: 2010.05.17/outbox.cif.g08.bks.cpg/sg22_20_cif.got.tgz:39613.got - 2010.06.03 23:40:54.
