data_PCOD9326704
_publ_section_title
;
Structure prediction by ZEFSAII (Michael W. Deem and Ramdas Pophale) SiO2 
 PCOD9326704
Probable space group: F 2 2 2
;
_chemical_formula_sum "Si O2"
_cell_formula_units_Z 76
_cell_length_a 5.434800
_cell_length_b 20.047872
_cell_length_c 37.921787
_cell_angle_alpha 90.000000
_cell_angle_beta 90.000000
_cell_angle_gamma 90.000000
_cell_volume 4131.812851
_symmetry_space_group_name_H-M "F 2 2 2"
_symmetry_group_IT_number 22
_symmetry_cell_setting 'orthorhombic'
loop_
_space_group_symop_operation_xyz
x,y,z
-x,-y,z
x,-y,-z
-x,y,-z
x,1/2+y,1/2+z
-x,1/2-y,1/2+z
x,1/2-y,1/2-z
-x,1/2+y,1/2-z
1/2+x,y,1/2+z
1/2-x,-y,1/2+z
1/2+x,-y,1/2-z
1/2-x,y,1/2-z
1/2+x,1/2+y,z
1/2-x,1/2-y,z
1/2+x,1/2-y,-z
1/2-x,1/2+y,-z
loop_
_atom_site_type_symbol
_atom_site_label
_atom_site_fract_x
_atom_site_fract_y
_atom_site_fract_z
Si Si1 0.993409 0.418404 0.351591
Si Si2 0.845799 0.105515 0.464039
Si Si3 0.008839 0.078923 0.387961
Si Si4 0.500283 0.581224 0.769501
Si Si5 0.000000 0.500000 0.500000
Si Si6 0.750000 0.750000 0.522852
O O1 0.240790 0.394465 0.370956
O O2 0.996184 0.399654 0.310518
O O3 0.000000 0.500000 0.353114
O O4 0.744415 0.394903 0.370800
O O5 0.002391 0.087331 0.429938
O O6 0.741306 0.179492 0.457194
O O7 0.000000 0.109197 0.500000
O O8 0.651183 0.048473 0.473924
O O9 0.000000 0.000000 0.380515
O O10 0.500000 0.500000 0.768514
O O11 0.250000 0.603006 0.750000
O O12 0.750000 0.603107 0.750000
O O13 0.500000 0.750077 0.500000
#
# Coordination Sequence:
#
# PCOD9326704 Si02
#       6
#    16  16  16  16   4   8
#     4   9  18  29  42  66  97 131 172 215 268 310
#     4  11  24  37  57  81 108 144 191 237 286 333
#     4  10  20  31  47  69 100 134 170 227 267 320
#     4   9  15  24  40  59  87 128 172 209 243 310
#     4  12  22  36  60  86 104 138 198 252 274 332
#     4  10  22  42  58  78 108 142 181 234 295 340
#
# _framework density 18.393861999999999
#
# number of rings (size 3 to 8) (size 9 to 14) (size 15 to 20)
#    0.000    2.105    1.053    2.842    7.368    5.053 
#    0.000    0.000    0.000    0.000    0.000    0.000 
#    0.000    0.000    0.000   14.211    0.000    7.368 
#
# Total GULP energy -105899.050514 kJ/mol
# GULP energy per Si atom -5573.634238 kJ/mol
# Density = 1.835200 g / cm^3
# Si number density = 18.393862 Si / 1000 Ang^3
#
#
#
# Elastic Constant Matrix: (Units=GPa)
#
#
# Indices 1 2 3 4 5 6 
#
# 1 163.7806 19.8328 93.4968 0.0000 0.0000 0.0000
# 2 19.8328 54.3799 -4.1664 0.0000 0.0000 0.0000
# 3 93.4968 -4.1664 145.7959 0.0000 0.0000 0.0000
# 4 0.0000 0.0000 0.0000 -16.5144 0.0000 0.0000
# 5 0.0000 0.0000 0.0000 0.0000 38.3531 0.0000
# 6 0.0000 0.0000 0.0000 0.0000 0.0000 6.9862
#
#
#
# Elastic Compliance Matrix: (Units=1/GPa)
#
#
# Indices 1 2 3 4 5 6 
#
# 1 0.010583 -0.004389 -0.006912 0.000000 0.000000 0.000000
# 2 -0.004389 0.020250 0.003394 0.000000 0.000000 0.000000
# 3 -0.006912 0.003394 0.011389 0.000000 0.000000 0.000000
# 4 0.000000 0.000000 0.000000 -0.060553 0.000000 0.000000
# 5 0.000000 0.000000 0.000000 0.000000 0.026074 0.000000
# 6 0.000000 0.000000 0.000000 0.000000 0.000000 0.143140
#
#
# Mechanical properties :
#
#
# Convention : Reuss Voigt Hill
#
# Bulk Modulus (GPa) = 37.87086 64.69809 51.28447
# Shear Modulus (GPa) = 28.49000 22.75119 25.62059
#
# Velocity S-wave (km/s) = 3.93986 3.52076 3.73619
# Velocity P-wave (km/s) = 6.42886 7.19568 6.82305
#
# Compressibility (1/GPa) = 0.02640553
#
# Stress axis : x y z
#
# Youngs Moduli (GPa) = 94.48864 49.38275 87.80658
#
# Poissons Ratio (x) = 0.21676 0.60695
# Poissons Ratio (y) = 0.41475 -0.29797
# Poissons Ratio (z) = 0.65314 -0.16758
#
# Static dielectric constant tensor:
#      x y z
#    x 1.692390 0.000000 0.000000 
#    y 0.000000 1.641660 0.000000 
#    z 0.000000 0.000000 1.630240 
# 
# From -- ./inp_files/54969.got.cif
#   From: 2010.05.17/outbox.cif.g08.bks.cpg/sg22_28_cif.got.tgz:54969.got - 2010.06.03 23:40:54.
