data_PCOD9326918
_publ_section_title
;
Structure prediction by ZEFSAII (Michael W. Deem and Ramdas Pophale) SiO2 
 PCOD9326918
Probable space group: F 2 2 2
;
_chemical_formula_sum "Si O2"
_cell_formula_units_Z 100
_cell_length_a 23.676024
_cell_length_b 15.178000
_cell_length_c 14.873788
_cell_angle_alpha 90.000000
_cell_angle_beta 90.000000
_cell_angle_gamma 90.000000
_cell_volume 5344.965510
_symmetry_space_group_name_H-M "F 2 2 2"
_symmetry_group_IT_number 22
_symmetry_cell_setting 'orthorhombic'
loop_
_space_group_symop_operation_xyz
x,y,z
-x,-y,z
x,-y,-z
-x,y,-z
x,1/2+y,1/2+z
-x,1/2-y,1/2+z
x,1/2-y,1/2-z
-x,1/2+y,1/2-z
1/2+x,y,1/2+z
1/2-x,-y,1/2+z
1/2+x,-y,1/2-z
1/2-x,y,1/2-z
1/2+x,1/2+y,z
1/2-x,1/2-y,z
1/2+x,1/2-y,-z
1/2-x,1/2+y,-z
loop_
_atom_site_type_symbol
_atom_site_label
_atom_site_fract_x
_atom_site_fract_y
_atom_site_fract_z
Si Si1 0.510319 0.147822 0.904722
Si Si2 0.161643 0.137548 0.140769
Si Si3 0.691065 0.556770 0.801903
Si Si4 0.188796 0.292287 0.552451
Si Si5 0.750000 0.250000 0.750000
Si Si6 0.120461 0.130688 0.637696
Si Si7 0.589818 0.500000 0.500000
Si Si8 0.074392 0.250000 0.250000
O O1 0.448019 0.130183 0.864508
O O2 0.549655 0.065147 0.939333
O O3 0.540999 0.202519 0.829174
O O4 0.500000 0.196644 0.000000
O O5 0.214098 0.187058 0.186417
O O6 0.110510 0.175482 0.199561
O O7 0.168659 0.033753 0.155427
O O8 0.160254 0.170037 0.037915
O O9 0.750000 0.540862 0.750000
O O10 0.700140 0.628460 0.879047
O O11 0.647255 0.598806 0.730446
O O12 0.250000 0.250000 0.531167
O O13 0.148767 0.220580 0.602213
O O14 0.130429 0.057166 0.562110
#
# Coordination Sequence:
#
# PCOD9326918 Si02
#       8
#    16  16  16  16   4  16   8   8
#     4  10  21  41  67 101 130 166 219 272 323 388
#     4  11  23  42  61  95 127 165 207 273 321 391
#     4  12  25  41  62  93 130 170 221 262 327 392
#     4  12  25  42  63  90 130 174 221 261 323 399
#     4  10  20  36  64  84 116 152 202 248 330 364
#     4  11  23  39  69  92 131 168 214 269 328 381
#     4  10  21  42  68 104 124 156 222 280 327 384
#     4  11  24  41  68 100 135 166 217 268 340 382
#
# _framework density 18.709195000000001
#
# number of rings (size 3 to 8) (size 9 to 14) (size 15 to 20)
#    0.000    0.960    3.200    6.000    2.240    2.560 
#    0.000    0.000    0.000    0.000    4.160    0.000 
#    0.000    0.000    0.000    0.000    0.000    0.000 
#
# Total GULP energy -139483.351703 kJ/mol
# GULP energy per Si atom -5579.334068 kJ/mol
# Density = 1.866661 g / cm^3
# Si number density = 18.709195 Si / 1000 Ang^3
#
#
#
# Elastic Constant Matrix: (Units=GPa)
#
#
# Indices 1 2 3 4 5 6 
#
# 1 59.5198 29.1143 39.7139 0.0000 0.0000 0.0000
# 2 29.1143 120.3094 77.3823 0.0000 0.0000 0.0000
# 3 39.7139 77.3823 121.4285 0.0000 0.0000 0.0000
# 4 0.0000 0.0000 0.0000 30.1431 0.0000 0.0000
# 5 0.0000 0.0000 0.0000 0.0000 26.8819 0.0000
# 6 0.0000 0.0000 0.0000 0.0000 0.0000 14.3521
#
#
#
# Elastic Compliance Matrix: (Units=1/GPa)
#
#
# Indices 1 2 3 4 5 6 
#
# 1 0.021586 -0.001157 -0.006322 0.000000 0.000000 0.000000
# 2 -0.001157 0.014147 -0.008637 0.000000 0.000000 0.000000
# 3 -0.006322 -0.008637 0.015807 0.000000 0.000000 0.000000
# 4 0.000000 0.000000 0.000000 0.033175 0.000000 0.000000
# 5 0.000000 0.000000 0.000000 0.000000 0.037200 0.000000
# 6 0.000000 0.000000 0.000000 0.000000 0.000000 0.069676
#
#
# Mechanical properties :
#
#
# Convention : Reuss Voigt Hill
#
# Bulk Modulus (GPa) = 51.79480 65.96431 58.87956
# Shear Modulus (GPa) = 21.71455 24.61187 23.16321
#
# Velocity S-wave (km/s) = 3.41051 3.63091 3.52243
# Velocity P-wave (km/s) = 6.57670 7.27408 6.93416
#
# Compressibility (1/GPa) = 0.01930696
#
# Stress axis : x y z
#
# Youngs Moduli (GPa) = 46.32704 70.68503 63.26235
#
# Poissons Ratio (x) = 0.08179 0.39996
# Poissons Ratio (y) = 0.05361 0.54640
# Poissons Ratio (z) = 0.29289 0.61051
#
# Static dielectric constant tensor:
#      x y z
#    x 1.661700 0.000000 0.000000 
#    y 0.000000 1.667630 0.000000 
#    z 0.000000 0.000000 1.651180 
# 
# From -- ./inp_files/32490.got.cif
#   From: 2010.05.17/outbox.cif.g08.bks.cpg/sg22_17_cif.got.tgz:32490.got - 2010.06.03 23:40:54.
