data_PCOD9326952
_publ_section_title
;
Structure prediction by ZEFSAII (Michael W. Deem and Ramdas Pophale) SiO2 
 PCOD9326952
Probable space group: F 2 2 2
;
_chemical_formula_sum "Si O2"
_cell_formula_units_Z 88
_cell_length_a 6.710114
_cell_length_b 25.890674
_cell_length_c 25.406117
_cell_angle_alpha 90.000000
_cell_angle_beta 90.000000
_cell_angle_gamma 90.000000
_cell_volume 4413.788804
_symmetry_space_group_name_H-M "F 2 2 2"
_symmetry_group_IT_number 22
_symmetry_cell_setting 'orthorhombic'
loop_
_space_group_symop_operation_xyz
x,y,z
-x,-y,z
x,-y,-z
-x,y,-z
x,1/2+y,1/2+z
-x,1/2-y,1/2+z
x,1/2-y,1/2-z
-x,1/2+y,1/2-z
1/2+x,y,1/2+z
1/2-x,-y,1/2+z
1/2+x,-y,1/2-z
1/2-x,y,1/2-z
1/2+x,1/2+y,z
1/2-x,1/2-y,z
1/2+x,1/2-y,-z
1/2-x,1/2+y,-z
loop_
_atom_site_type_symbol
_atom_site_label
_atom_site_fract_x
_atom_site_fract_y
_atom_site_fract_z
Si Si1 0.250000 0.250000 0.622984
Si Si2 0.671307 0.127979 0.626756
Si Si3 0.899080 0.290660 0.549784
Si Si4 0.059157 0.558370 0.131626
Si Si5 0.588504 0.053673 0.440924
Si Si6 0.197005 0.646724 0.310651
O O1 0.435583 0.236402 0.585799
O O2 0.274131 0.302409 0.657725
O O3 0.728653 0.176254 0.590912
O O4 0.508139 0.100432 0.590018
O O5 0.541411 0.142985 0.677692
O O6 0.855739 0.090449 0.631815
O O7 0.750000 0.250000 0.524680
O O8 0.000000 0.318764 0.500000
O O9 0.177865 0.554635 0.075230
O O10 0.202164 0.593229 0.168753
O O11 0.000000 0.500000 0.147584
O O12 0.500000 0.055555 0.500000
O O13 0.500000 0.000000 0.418494
O O14 0.250000 0.652943 0.250000
#
# Coordination Sequence:
#
# PCOD9326952 Si02
#       6
#     8  16  16  16  16  16
#     4  10  21  42  66  90 132 164 213 278 320 386
#     4  10  22  39  60  89 127 161 213 268 319 388
#     4  11  21  37  60  92 127 170 211 256 320 395
#     4  11  22  41  62  89 132 171 210 275 334 390
#     4  10  20  37  58  85 123 164 213 256 309 380
#     4  10  23  42  66  95 122 169 221 273 338 390
#
# _framework density 19.937519000000002
#
# number of rings (size 3 to 8) (size 9 to 14) (size 15 to 20)
#    0.000    1.636    2.727    1.909    0.000    1.455 
#    6.545    0.000    0.000    3.273    0.000    0.000 
#    0.000    0.000    0.000    0.000    0.000    0.000 
#
# Total GULP energy -122482.523100 kJ/mol
# GULP energy per Si atom -5567.387414 kJ/mol
# Density = 1.989214 g / cm^3
# Si number density = 19.937519 Si / 1000 Ang^3
#
#
#
# Elastic Constant Matrix: (Units=GPa)
#
#
# Indices 1 2 3 4 5 6 
#
# 1 71.9658 29.3686 38.7276 0.0000 0.0000 0.0000
# 2 29.3686 89.0626 33.8136 0.0000 0.0000 0.0000
# 3 38.7276 33.8136 117.4766 0.0000 0.0000 0.0000
# 4 0.0000 0.0000 0.0000 14.4225 0.0000 0.0000
# 5 0.0000 0.0000 0.0000 0.0000 22.0072 0.0000
# 6 0.0000 0.0000 0.0000 0.0000 0.0000 39.7262
#
#
#
# Elastic Compliance Matrix: (Units=1/GPa)
#
#
# Indices 1 2 3 4 5 6 
#
# 1 0.018177 -0.004175 -0.004791 0.000000 0.000000 0.000000
# 2 -0.004175 0.013565 -0.002528 0.000000 0.000000 0.000000
# 3 -0.004791 -0.002528 0.010819 0.000000 0.000000 0.000000
# 4 0.000000 0.000000 0.000000 0.069336 0.000000 0.000000
# 5 0.000000 0.000000 0.000000 0.000000 0.045440 0.000000
# 6 0.000000 0.000000 0.000000 0.000000 0.000000 0.025172
#
#
# Mechanical properties :
#
#
# Convention : Reuss Voigt Hill
#
# Bulk Modulus (GPa) = 51.08903 53.59164 52.34034
# Shear Modulus (GPa) = 23.58253 27.00420 25.29336
#
# Velocity S-wave (km/s) = 3.44295 3.68427 3.56565
# Velocity P-wave (km/s) = 6.44092 6.71093 6.57731
#
# Compressibility (1/GPa) = 0.01957367
#
# Stress axis : x y z
#
# Youngs Moduli (GPa) = 55.01340 73.72134 92.42786
#
# Poissons Ratio (x) = 0.30780 0.44279
# Poissons Ratio (y) = 0.22969 0.23365
# Poissons Ratio (z) = 0.26355 0.18636
#
# Static dielectric constant tensor:
#      x y z
#    x 1.726540 0.000000 0.000000 
#    y 0.000000 1.782370 0.000000 
#    z 0.000000 0.000000 1.705650 
# 
# From -- ./inp_files/46674.got.cif
#   From: 2010.05.17/outbox.cif.g08.bks.cpg/sg22_24_cif.got.tgz:46674.got - 2010.06.03 23:40:54.
