data_PCOD9326573
_publ_section_title
;
Structure prediction by ZEFSAII (Michael W. Deem and Ramdas Pophale) SiO2 
 PCOD9326573
Probable space group: F 2 2 2
;
_chemical_formula_sum "Si O2"
_cell_formula_units_Z 68
_cell_length_a 27.949399
_cell_length_b 6.278451
_cell_length_c 19.832103
_cell_angle_alpha 90.000000
_cell_angle_beta 90.000000
_cell_angle_gamma 90.000000
_cell_volume 3480.116256
_symmetry_space_group_name_H-M "F 2 2 2"
_symmetry_group_IT_number 22
_symmetry_cell_setting 'orthorhombic'
loop_
_space_group_symop_operation_xyz
x,y,z
-x,-y,z
x,-y,-z
-x,y,-z
x,1/2+y,1/2+z
-x,1/2-y,1/2+z
x,1/2-y,1/2-z
-x,1/2+y,1/2-z
1/2+x,y,1/2+z
1/2-x,-y,1/2+z
1/2+x,-y,1/2-z
1/2-x,y,1/2-z
1/2+x,1/2+y,z
1/2-x,1/2-y,z
1/2+x,1/2-y,-z
1/2-x,1/2+y,-z
loop_
_atom_site_type_symbol
_atom_site_label
_atom_site_fract_x
_atom_site_fract_y
_atom_site_fract_z
Si Si1 0.000000 0.500000 0.500000
Si Si2 0.620039 0.625536 0.687228
Si Si3 0.792816 0.077931 0.139630
Si Si4 0.681267 0.750000 0.250000
Si Si5 0.422330 0.808337 0.048057
Si Si6 0.338399 0.500000 0.000000
O O1 0.964719 0.639031 0.545668
O O2 0.596599 0.750000 0.750000
O O3 0.661847 0.785183 0.663481
O O4 0.646368 0.409664 0.709055
O O5 0.587114 0.604489 0.622452
O O6 0.750000 0.250000 0.136558
O O7 0.805532 0.978217 0.066631
O O8 0.789755 0.896071 0.196731
O O9 0.374386 0.695649 0.017060
O O10 0.435615 0.000000 0.000000
#
# Coordination Sequence:
#
# PCOD9326573 Si02
#       6
#     4  16  16   8  16   8
#     4  10  22  36  64  90 120 144 184 236 284 352
#     4   9  20  36  59  86 113 153 198 235 289 350
#     4  10  21  37  55  83 118 152 205 246 289 344
#     4  10  20  37  58  80 112 162 196 244 296 334
#     4  10  19  37  63  88 115 150 193 234 294 351
#     4   9  20  39  56  84 118 154 192 251 290 343
#
# _framework density 19.539577999999999
#
# number of rings (size 3 to 8) (size 9 to 14) (size 15 to 20)
#    0.000    2.353    0.000    1.765    0.000    8.000 
#   12.706    0.000    5.176    0.000    0.000    0.000 
#    0.000    0.000    0.000    0.000    0.000    0.000 
#
# Total GULP energy -94847.811479 kJ/mol
# GULP energy per Si atom -5579.283028 kJ/mol
# Density = 1.949510 g / cm^3
# Si number density = 19.539578 Si / 1000 Ang^3
#
#
#
# Elastic Constant Matrix: (Units=GPa)
#
#
# Indices 1 2 3 4 5 6 
#
# 1 69.9203 33.2157 59.6264 0.0000 0.0000 -0.0001
# 2 33.2157 98.3985 69.1671 0.0002 0.0000 -0.0003
# 3 59.6264 69.1671 180.2740 0.0000 0.0000 0.0000
# 4 0.0000 0.0002 0.0000 26.5992 -0.0001 0.0001
# 5 0.0000 0.0000 0.0000 -0.0001 -4.4238 0.0001
# 6 -0.0001 -0.0003 0.0000 0.0001 0.0001 33.7504
#
#
#
# Elastic Compliance Matrix: (Units=1/GPa)
#
#
# Indices 1 2 3 4 5 6 
#
# 1 0.020529 -0.002953 -0.005657 0.000000 0.000000 0.000000
# 2 -0.002953 0.014341 -0.004525 0.000000 0.000000 0.000000
# 3 -0.005657 -0.004525 0.009154 0.000000 0.000000 0.000000
# 4 0.000000 0.000000 0.000000 0.037595 0.000000 0.000000
# 5 0.000000 0.000000 0.000000 0.000000 -0.226048 0.000001
# 6 0.000000 0.000000 0.000000 0.000000 0.000001 0.029629
#
#
# Mechanical properties :
#
#
# Convention : Reuss Voigt Hill
#
# Bulk Modulus (GPa) = 56.32902 74.73459 65.53180
# Shear Modulus (GPa) = -60.52555 23.62406 -18.45075
#
# Velocity S-wave (km/s) = -5.57164 3.48089 -3.07624
# Velocity P-wave (km/s) = 3.53554 7.38148 4.58182
#
# Compressibility (1/GPa) = 0.01775284
#
# Stress axis : x y z
#
# Youngs Moduli (GPa) = 48.71126 69.73142 109.23663
#
# Poissons Ratio (x) = 0.20595 0.61794
# Poissons Ratio (y) = 0.14387 0.49433
# Poissons Ratio (z) = 0.27556 0.31556
#
# Static dielectric constant tensor:
#      x y z
#    x 1.671300 0.000000 0.000000 
#    y 0.000000 1.696210 0.000000 
#    z 0.000000 0.000000 1.713380 
# 
# From -- ./inp_files/4015.got.cif
#   From: 2010.05.17/outbox.cif.g08.bks.cpg/sg22_3_cif.got.tgz:4015.got - 2010.06.03 23:40:54.
