data_PCOD9326807
_publ_section_title
;
Structure prediction by ZEFSAII (Michael W. Deem and Ramdas Pophale) SiO2 
 PCOD9326807
Probable space group: F 2 2 2
;
_chemical_formula_sum "Si O2"
_cell_formula_units_Z 88
_cell_length_a 20.039492
_cell_length_b 8.713707
_cell_length_c 25.063939
_cell_angle_alpha 90.000000
_cell_angle_beta 90.000000
_cell_angle_gamma 90.000000
_cell_volume 4376.621460
_symmetry_space_group_name_H-M "F 2 2 2"
_symmetry_group_IT_number 22
_symmetry_cell_setting 'orthorhombic'
loop_
_space_group_symop_operation_xyz
x,y,z
-x,-y,z
x,-y,-z
-x,y,-z
x,1/2+y,1/2+z
-x,1/2-y,1/2+z
x,1/2-y,1/2-z
-x,1/2+y,1/2-z
1/2+x,y,1/2+z
1/2-x,-y,1/2+z
1/2+x,-y,1/2-z
1/2-x,y,1/2-z
1/2+x,1/2+y,z
1/2-x,1/2-y,z
1/2+x,1/2-y,-z
1/2-x,1/2+y,-z
loop_
_atom_site_type_symbol
_atom_site_label
_atom_site_fract_x
_atom_site_fract_y
_atom_site_fract_z
Si Si1 0.170980 0.270422 0.812918
Si Si2 0.250000 0.250000 0.389482
Si Si3 0.605308 0.791544 0.538978
Si Si4 0.637819 0.517676 0.123136
Si Si5 0.543525 0.257155 0.922411
Si Si6 0.142529 0.998430 0.594788
O O1 0.160506 0.250000 0.750000
O O2 0.250000 0.250000 0.823085
O O3 0.151409 0.422185 0.846875
O O4 0.134153 0.125630 0.838478
O O5 0.300952 0.129995 0.362041
O O6 0.198270 0.131469 0.416648
O O7 0.579763 0.799465 0.478678
O O8 0.534797 0.774912 0.570544
O O9 0.644629 0.636224 0.552471
O O10 0.644746 0.933378 0.565145
O O11 0.573134 0.623530 0.119655
O O12 0.572139 0.089791 0.909186
#
# Coordination Sequence:
#
# PCOD9326807 Si02
#       6
#    16   8  16  16  16  16
#     4  10  20  38  62  81 106 148 191 231 288 351
#     4  10  20  36  51  80 116 142 176 234 277 340
#     4  10  20  35  60  82 111 158 199 218 263 330
#     4  10  20  35  57  80 119 143 182 237 284 324
#     4  10  20  36  57  87 112 148 199 233 258 322
#     4  10  20  35  57  80 119 143 182 237 284 324
#
# _framework density 20.106833000000002
#
# number of rings (size 3 to 8) (size 9 to 14) (size 15 to 20)
#    0.000    2.000    1.818    2.182    0.000    2.909 
#    0.000   19.091    4.000   17.455    0.000    0.000 
#    0.000    0.000    0.000    0.000    0.000    0.000 
#
# Total GULP energy -122559.687020 kJ/mol
# GULP energy per Si atom -5570.894865 kJ/mol
# Density = 2.006107 g / cm^3
# Si number density = 20.106833 Si / 1000 Ang^3
#
#
#
# Elastic Constant Matrix: (Units=GPa)
#
#
# Indices 1 2 3 4 5 6 
#
# 1 58.4141 19.8742 18.6606 0.0000 0.0000 0.0000
# 2 19.8742 108.9743 13.0363 0.0000 0.0000 0.0000
# 3 18.6606 13.0363 67.8042 0.0000 0.0000 0.0000
# 4 0.0000 0.0000 0.0000 7.0247 0.0000 0.0000
# 5 0.0000 0.0000 0.0000 0.0000 20.4404 0.0000
# 6 0.0000 0.0000 0.0000 0.0000 0.0000 31.3815
#
#
#
# Elastic Compliance Matrix: (Units=1/GPa)
#
#
# Indices 1 2 3 4 5 6 
#
# 1 0.019690 -0.003012 -0.004840 0.000000 0.000000 0.000000
# 2 -0.003012 0.009853 -0.001065 0.000000 0.000000 0.000000
# 3 -0.004840 -0.001065 0.016285 0.000000 0.000000 0.000000
# 4 0.000000 0.000000 0.000000 0.142354 0.000000 0.000000
# 5 0.000000 0.000000 0.000000 0.000000 0.048923 0.000000
# 6 0.000000 0.000000 0.000000 0.000000 0.000000 0.031866
#
#
# Mechanical properties :
#
#
# Convention : Reuss Voigt Hill
#
# Bulk Modulus (GPa) = 35.72218 37.59276 36.65747
# Shear Modulus (GPa) = 16.88405 24.01075 20.44740
#
# Velocity S-wave (km/s) = 2.90093 3.45941 3.19241
# Velocity P-wave (km/s) = 5.38751 5.89014 5.64443
#
# Compressibility (1/GPa) = 0.02799381
#
# Stress axis : x y z
#
# Youngs Moduli (GPa) = 50.78709 101.48941 61.40549
#
# Poissons Ratio (x) = 0.30569 0.29719
# Poissons Ratio (y) = 0.15297 0.06543
# Poissons Ratio (z) = 0.24580 0.10814
#
# Static dielectric constant tensor:
#      x y z
#    x 1.730160 0.000000 0.000000 
#    y 0.000000 1.756160 0.000000 
#    z 0.000000 0.000000 1.730720 
# 
# From -- ./inp_files/13021.got.cif
#   From: 2010.05.17/outbox.cif.g08.bks.cpg/sg22_7_cif.got.tgz:13021.got - 2010.06.03 23:40:54.
