data_PCOD9326355
_publ_section_title
;
Structure prediction by ZEFSAII (Michael W. Deem and Ramdas Pophale) SiO2 
 PCOD9326355
Probable space group: F 2 2 2
;
_chemical_formula_sum "Si O2"
_cell_formula_units_Z 116
_cell_length_a 17.362558
_cell_length_b 12.419528
_cell_length_c 27.101817
_cell_angle_alpha 90.000000
_cell_angle_beta 90.000000
_cell_angle_gamma 90.000000
_cell_volume 5844.094217
_symmetry_space_group_name_H-M "F 2 2 2"
_symmetry_group_IT_number 22
_symmetry_cell_setting 'orthorhombic'
loop_
_space_group_symop_operation_xyz
x,y,z
-x,-y,z
x,-y,-z
-x,y,-z
x,1/2+y,1/2+z
-x,1/2-y,1/2+z
x,1/2-y,1/2-z
-x,1/2+y,1/2-z
1/2+x,y,1/2+z
1/2-x,-y,1/2+z
1/2+x,-y,1/2-z
1/2-x,y,1/2-z
1/2+x,1/2+y,z
1/2-x,1/2-y,z
1/2+x,1/2-y,-z
1/2-x,1/2+y,-z
loop_
_atom_site_type_symbol
_atom_site_label
_atom_site_fract_x
_atom_site_fract_y
_atom_site_fract_z
Si Si1 0.708434 0.048391 0.867651
Si Si2 0.910679 0.470488 0.943150
Si Si3 0.950631 0.733027 0.450672
Si Si4 0.940047 0.596610 0.608698
Si Si5 0.340676 0.562419 0.199396
Si Si6 0.750000 0.250000 0.250000
Si Si7 0.325938 0.954742 0.550774
Si Si8 0.661297 0.863429 0.232100
O O1 0.645782 0.984464 0.900770
O O2 0.764962 0.093279 0.910432
O O3 0.664733 0.122021 0.827127
O O4 0.769406 0.984701 0.833243
O O5 0.906236 0.341455 0.938119
O O6 0.000000 0.500000 0.934996
O O7 0.892299 0.500000 0.000000
O O8 0.891218 0.635070 0.458459
O O9 0.000000 0.751437 0.500000
O O10 0.013697 0.699740 0.409800
O O11 0.909668 0.594666 0.663784
O O12 0.868464 0.558483 0.575025
O O13 0.000000 0.500000 0.603168
O O14 0.305844 0.669412 0.221748
O O15 0.365831 0.471140 0.239076
O O16 0.291727 0.000000 0.500000
O O17 0.625295 0.750000 0.250000
O O18 0.750000 0.858103 0.250000
#
# Coordination Sequence:
#
# PCOD9326355 Si02
#       8
#    16  16  16  16  16   4  16  16
#     4  10  21  39  60  93 113 147 210 250 297 356
#     4  11  24  41  58  76 122 173 200 237 289 363
#     4  11  20  37  57  82 120 161 193 231 305 352
#     4   9  20  35  62  88 118 150 196 244 303 361
#     4  10  21  39  61  91 119 155 198 252 303 361
#     4  12  20  40  62  80 120 164 192 240 324 352
#     4  10  19  32  60  90 120 147 187 254 295 346
#     4   9  18  36  63  84 120 151 191 258 320 347
#
# _framework density 19.849098000000001
#
# number of rings (size 3 to 8) (size 9 to 14) (size 15 to 20)
#    0.000    1.931    4.828    0.414    0.000    8.276 
#    0.000    0.690    1.517    0.000    1.793    0.000 
#    0.000    0.000    0.000    0.000    0.000    0.000 
#
# Total GULP energy -161497.796378 kJ/mol
# GULP energy per Si atom -5568.889530 kJ/mol
# Density = 1.980392 g / cm^3
# Si number density = 19.849098 Si / 1000 Ang^3
#
#
#
# Elastic Constant Matrix: (Units=GPa)
#
#
# Indices 1 2 3 4 5 6 
#
# 1 54.7755 1.6712 33.7943 0.0000 0.0000 0.0000
# 2 1.6712 84.2019 35.8830 0.0000 0.0000 0.0000
# 3 33.7943 35.8830 135.9788 0.0000 0.0000 0.0000
# 4 0.0000 0.0000 0.0000 -3.5187 0.0000 0.0000
# 5 0.0000 0.0000 0.0000 0.0000 32.5420 0.0000
# 6 0.0000 0.0000 0.0000 0.0000 0.0000 8.9252
#
#
#
# Elastic Compliance Matrix: (Units=1/GPa)
#
#
# Indices 1 2 3 4 5 6 
#
# 1 0.021894 0.002123 -0.006002 0.000000 0.000000 0.000000
# 2 0.002123 0.013587 -0.004113 0.000000 0.000000 0.000000
# 3 -0.006002 -0.004113 0.009931 0.000000 0.000000 0.000000
# 4 0.000000 0.000000 0.000000 -0.284199 0.000000 0.000000
# 5 0.000000 0.000000 0.000000 0.000000 0.030729 0.000000
# 6 0.000000 0.000000 0.000000 0.000000 0.000000 0.112042
#
#
# Mechanical properties :
#
#
# Convention : Reuss Voigt Hill
#
# Bulk Modulus (GPa) = 33.97999 46.40589 40.19294
# Shear Modulus (GPa) = -71.20212 21.16358 -25.01927
#
# Velocity S-wave (km/s) = -5.99580 3.26885 -3.55417
# Velocity P-wave (km/s) = 5.54765 6.13818 1.85753
#
# Compressibility (1/GPa) = 0.02942909
#
# Stress axis : x y z
#
# Youngs Moduli (GPa) = 45.67405 73.60056 100.69481
#
# Poissons Ratio (x) = -0.15626 0.60432
# Poissons Ratio (y) = -0.09697 0.41416
# Poissons Ratio (z) = 0.27411 0.30272
#
# Static dielectric constant tensor:
#      x y z
#    x 1.759960 0.000000 0.000000 
#    y 0.000000 1.771250 0.000000 
#    z 0.000000 0.000000 1.717430 
# 
# From -- ./inp_files/53655.got.cif
#   From: 2010.05.17/outbox.cif.g08.bks.cpg/sg22_27_cif.got.tgz:53655.got - 2010.06.03 23:40:54.
