data_PCOD9326050
_publ_section_title
;
Structure prediction by ZEFSAII (Michael W. Deem and Ramdas Pophale) SiO2 
 PCOD9326050
Probable space group: F 2 2 2
;
_chemical_formula_sum "Si O2"
_cell_formula_units_Z 84
_cell_length_a 19.879917
_cell_length_b 13.181387
_cell_length_c 13.922854
_cell_angle_alpha 90.000000
_cell_angle_beta 90.000000
_cell_angle_gamma 90.000000
_cell_volume 3648.412599
_symmetry_space_group_name_H-M "F 2 2 2"
_symmetry_group_IT_number 22
_symmetry_cell_setting 'orthorhombic'
loop_
_space_group_symop_operation_xyz
x,y,z
-x,-y,z
x,-y,-z
-x,y,-z
x,1/2+y,1/2+z
-x,1/2-y,1/2+z
x,1/2-y,1/2-z
-x,1/2+y,1/2-z
1/2+x,y,1/2+z
1/2-x,-y,1/2+z
1/2+x,-y,1/2-z
1/2-x,y,1/2-z
1/2+x,1/2+y,z
1/2-x,1/2-y,z
1/2+x,1/2-y,-z
1/2-x,1/2+y,-z
loop_
_atom_site_type_symbol
_atom_site_label
_atom_site_fract_x
_atom_site_fract_y
_atom_site_fract_z
Si Si1 0.826333 0.795521 0.382708
Si Si2 0.844253 0.689846 0.888609
Si Si3 0.577374 0.887479 0.617341
Si Si4 0.078141 0.007266 0.383034
Si Si5 0.076544 0.885316 0.883003
Si Si6 0.250000 0.250000 0.750000
O O1 0.750000 0.750000 0.359865
O O2 0.828379 0.806098 0.498893
O O3 0.869785 0.899992 0.355753
O O4 0.874208 0.702969 0.352439
O O5 0.873727 0.797584 0.855136
O O6 0.893621 0.602074 0.858173
O O7 0.779310 0.672013 0.827254
O O8 0.577303 0.886452 0.500009
O O9 0.500436 0.865977 0.646065
O O10 0.595706 0.001110 0.648102
O O11 0.076656 0.000000 0.500000
O O12 0.000000 0.000000 0.350961
#
# Coordination Sequence:
#
# PCOD9326050 Si02
#       6
#    16  16  16  16  16   4
#     4  10  18  30  48  82 112 133 161 213 278 329
#     4  10  20  34  49  72 102 144 181 211 252 313
#     4   8  14  27  47  73 103 132 167 208 256 314
#     4   9  18  33  56  82 106 132 169 225 281 324
#     4   8  14  25  47  78 105 130 155 207 276 317
#     4  12  24  36  48  68 106 156 182 206 240 306
#
# _framework density 23.023712
#
# number of rings (size 3 to 8) (size 9 to 14) (size 15 to 20)
#    0.000    2.857    0.952    2.286    0.000    6.095 
#   10.286    0.000    4.190    0.000    0.000    1.333 
#    0.000    0.000    0.000    0.000    0.000    0.000 
#
# Total GULP energy -116914.088279 kJ/mol
# GULP energy per Si atom -5567.337537 kJ/mol
# Density = 2.297131 g / cm^3
# Si number density = 23.023712 Si / 1000 Ang^3
#
#
#
# Elastic Constant Matrix: (Units=GPa)
#
#
# Indices 1 2 3 4 5 6 
#
# 1 119.2754 88.6772 13.5256 0.0000 0.0000 0.0000
# 2 88.6772 141.6511 11.5526 0.0000 0.0000 0.0000
# 3 13.5256 11.5526 78.3834 0.0000 0.0000 0.0000
# 4 0.0000 0.0000 0.0000 12.1499 0.0000 0.0000
# 5 0.0000 0.0000 0.0000 0.0000 -2.8847 0.0000
# 6 0.0000 0.0000 0.0000 0.0000 0.0000 39.2656
#
#
#
# Elastic Compliance Matrix: (Units=1/GPa)
#
#
# Indices 1 2 3 4 5 6 
#
# 1 0.015810 -0.009793 -0.001285 0.000000 0.000000 0.000000
# 2 -0.009793 0.013211 -0.000257 0.000000 0.000000 0.000000
# 3 -0.001285 -0.000257 0.013017 0.000000 0.000000 0.000000
# 4 0.000000 0.000000 0.000000 0.082305 0.000000 0.000000
# 5 0.000000 0.000000 0.000000 0.000000 -0.346661 0.000000
# 6 0.000000 0.000000 0.000000 0.000000 0.000000 0.025468
#
#
# Mechanical properties :
#
#
# Convention : Reuss Voigt Hill
#
# Bulk Modulus (GPa) = 51.62926 62.98007 57.30467
# Shear Modulus (GPa) = -29.81114 24.74313 -2.53400
#
# Velocity S-wave (km/s) = -3.60224 3.28179 -1.05024
# Velocity P-wave (km/s) = 2.27411 6.46328 4.84487
#
# Compressibility (1/GPa) = 0.01936886
#
# Stress axis : x y z
#
# Youngs Moduli (GPa) = 63.24972 75.69341 76.82009
#
# Poissons Ratio (x) = 0.74126 0.09870
# Poissons Ratio (y) = 0.61940 0.01977
# Poissons Ratio (z) = 0.08127 0.01948
#
# Static dielectric constant tensor:
#      x y z
#    x 2.053370 0.000000 0.000000 
#    y 0.000000 1.660090 0.000000 
#    z 0.000000 0.000000 1.923670 
# 
# From -- ./inp_files/36040.got.cif
#   From: 2010.05.17/outbox.cif.g08.bks.cpg/sg22_19_cif.got.tgz:36040.got - 2010.06.03 23:40:54.
