data_PCOD9326520
_publ_section_title
;
Structure prediction by ZEFSAII (Michael W. Deem and Ramdas Pophale) SiO2 
 PCOD9326520
Probable space group: F 2 2 2
;
_chemical_formula_sum "Si O2"
_cell_formula_units_Z 116
_cell_length_a 8.823652
_cell_length_b 23.556209
_cell_length_c 31.005076
_cell_angle_alpha 90.000000
_cell_angle_beta 90.000000
_cell_angle_gamma 90.000000
_cell_volume 6444.460566
_symmetry_space_group_name_H-M "F 2 2 2"
_symmetry_group_IT_number 22
_symmetry_cell_setting 'orthorhombic'
loop_
_space_group_symop_operation_xyz
x,y,z
-x,-y,z
x,-y,-z
-x,y,-z
x,1/2+y,1/2+z
-x,1/2-y,1/2+z
x,1/2-y,1/2-z
-x,1/2+y,1/2-z
1/2+x,y,1/2+z
1/2-x,-y,1/2+z
1/2+x,-y,1/2-z
1/2-x,y,1/2-z
1/2+x,1/2+y,z
1/2-x,1/2-y,z
1/2+x,1/2-y,-z
1/2-x,1/2+y,-z
loop_
_atom_site_type_symbol
_atom_site_label
_atom_site_fract_x
_atom_site_fract_y
_atom_site_fract_z
Si Si1 0.833286 0.977361 0.866250
Si Si2 0.089585 0.578472 0.858990
Si Si3 0.167470 0.588018 0.206174
Si Si4 0.889169 0.791017 0.375298
Si Si5 0.500000 0.000000 0.000000
Si Si6 0.597126 0.221075 0.204410
Si Si7 0.165359 0.920597 0.434409
Si Si8 0.890317 0.706372 0.957983
O O1 0.784010 0.931266 0.830710
O O2 0.813533 0.945948 0.911929
O O3 0.715774 0.030294 0.863894
O O4 0.000000 0.000000 0.858870
O O5 0.151214 0.642659 0.865698
O O6 0.996562 0.569478 0.813999
O O7 0.962858 0.575262 0.896674
O O8 0.250000 0.567587 0.250000
O O9 0.139144 0.655200 0.210410
O O10 0.750000 0.750000 0.384564
O O11 0.969715 0.771986 0.331187
O O12 0.006541 0.786153 0.415073
O O13 0.605917 0.960719 0.971469
O O14 0.558886 0.250000 0.250000
O O15 0.750000 0.250000 0.187789
O O16 0.175575 0.857136 0.452043
O O17 0.750000 0.750000 0.960501
O O18 0.000000 0.709664 0.000000
#
# Coordination Sequence:
#
# PCOD9326520 Si02
#       8
#    16  16  16  16   4  16  16  16
#     4  11  23  38  58  89 128 159 198 260 314 363
#     4   9  20  39  58  83 121 155 200 248 300 364
#     4  10  19  36  60  85 110 157 203 244 299 367
#     4  10  22  37  61  87 119 165 201 248 311 367
#     4  12  16  36  74  84 104 160 230 246 292 376
#     4  10  19  36  60  85 116 151 207 261 297 356
#     4  10  20  38  65  88 113 165 210 250 301 372
#     4  11  23  40  61  94 126 162 206 256 318 379
#
# _framework density 17.999955
#
# number of rings (size 3 to 8) (size 9 to 14) (size 15 to 20)
#    0.000    1.793    3.448    2.897    0.000    3.586 
#    0.000    1.724    0.000    0.000    0.000    0.000 
#    0.000    0.000    0.000    0.000    0.000    0.000 
#
# Total GULP energy -161608.255252 kJ/mol
# GULP energy per Si atom -5572.698457 kJ/mol
# Density = 1.795899 g / cm^3
# Si number density = 17.999955 Si / 1000 Ang^3
#
#
#
# Elastic Constant Matrix: (Units=GPa)
#
#
# Indices 1 2 3 4 5 6 
#
# 1 70.9697 53.4040 38.0693 0.0000 0.0000 0.0000
# 2 53.4040 126.6964 60.0097 0.0000 0.0000 0.0000
# 3 38.0693 60.0097 99.1339 0.0000 0.0000 0.0000
# 4 0.0000 0.0000 0.0000 31.0037 0.0000 0.0000
# 5 0.0000 0.0000 0.0000 0.0000 16.4921 0.0000
# 6 0.0000 0.0000 0.0000 0.0000 0.0000 -8.2280
#
#
#
# Elastic Compliance Matrix: (Units=1/GPa)
#
#
# Indices 1 2 3 4 5 6 
#
# 1 0.021668 -0.007279 -0.003915 0.000000 0.000000 0.000000
# 2 -0.007279 0.013511 -0.005383 0.000000 0.000000 0.000000
# 3 -0.003915 -0.005383 0.014849 0.000000 0.000000 0.000000
# 4 0.000000 0.000000 0.000000 0.032254 0.000000 0.000000
# 5 0.000000 0.000000 0.000000 0.000000 0.060635 0.000000
# 6 0.000000 0.000000 0.000000 0.000000 0.000000 -0.121536
#
#
# Mechanical properties :
#
#
# Convention : Reuss Voigt Hill
#
# Bulk Modulus (GPa) = 59.26240 66.64066 62.95153
# Shear Modulus (GPa) = 83.11110 17.54136 50.32623
#
# Velocity S-wave (km/s) = 6.80244 3.12512 5.29337
# Velocity P-wave (km/s) = 9.73102 7.07989 8.50934
#
# Compressibility (1/GPa) = 0.01687410
#
# Stress axis : x y z
#
# Youngs Moduli (GPa) = 46.15141 74.01396 67.34283
#
# Poissons Ratio (x) = 0.53876 0.26361
# Poissons Ratio (y) = 0.33594 0.36253
# Poissons Ratio (z) = 0.18066 0.39845
#
# Static dielectric constant tensor:
#      x y z
#    x 1.599620 0.000000 0.000000 
#    y 0.000000 1.647740 0.000000 
#    z 0.000000 0.000000 1.683410 
# 
# From -- ./inp_files/14972.got.cif
#   From: 2010.05.17/outbox.cif.g08.bks.cpg/sg22_8_cif.got.tgz:14972.got - 2010.06.03 23:40:54.
