data_PCOD9326532
_publ_section_title
;
Structure prediction by ZEFSAII (Michael W. Deem and Ramdas Pophale) SiO2 
 PCOD9326532
Probable space group: F 2 2 2
;
_chemical_formula_sum "Si O2"
_cell_formula_units_Z 104
_cell_length_a 20.316166
_cell_length_b 8.624988
_cell_length_c 29.929982
_cell_angle_alpha 90.000000
_cell_angle_beta 90.000000
_cell_angle_gamma 90.000000
_cell_volume 5244.531616
_symmetry_space_group_name_H-M "F 2 2 2"
_symmetry_group_IT_number 22
_symmetry_cell_setting 'orthorhombic'
loop_
_space_group_symop_operation_xyz
x,y,z
-x,-y,z
x,-y,-z
-x,y,-z
x,1/2+y,1/2+z
-x,1/2-y,1/2+z
x,1/2-y,1/2-z
-x,1/2+y,1/2-z
1/2+x,y,1/2+z
1/2-x,-y,1/2+z
1/2+x,-y,1/2-z
1/2-x,y,1/2-z
1/2+x,1/2+y,z
1/2-x,1/2-y,z
1/2+x,1/2-y,-z
1/2-x,1/2+y,-z
loop_
_atom_site_type_symbol
_atom_site_label
_atom_site_fract_x
_atom_site_fract_y
_atom_site_fract_z
Si Si1 0.714056 0.905295 0.078257
Si Si2 0.341011 0.575532 0.110738
Si Si3 0.170639 0.770973 0.300774
Si Si4 0.114104 0.000000 0.500000
Si Si5 0.063180 0.684834 0.074456
Si Si6 0.891497 0.556878 0.148415
Si Si7 0.543280 0.644516 0.129804
O O1 0.750000 0.750000 0.063945
O O2 0.663101 0.948682 0.039566
O O3 0.672039 0.877356 0.122811
O O4 0.769269 0.030207 0.092960
O O5 0.346352 0.645244 0.160958
O O6 0.372491 0.708712 0.080629
O O7 0.390592 0.431171 0.110565
O O8 0.147595 0.750000 0.250000
O O9 0.250000 0.750000 0.299994
O O10 0.138587 0.934085 0.316620
O O11 0.067502 0.877756 0.475218
O O12 0.071220 0.547612 0.111115
O O13 0.000881 0.784206 0.090009
O O14 0.936158 0.706794 0.160159
O O15 0.500000 0.500000 0.149107
#
# Coordination Sequence:
#
# PCOD9326532 Si02
#       7
#    16  16  16   8  16  16  16
#     4  11  21  35  58  89 124 162 212 260 335 383
#     4  10  20  37  64  89 126 167 208 258 320 401
#     4  10  20  36  63 103 136 163 202 260 327 401
#     4  10  24  36  59  88 123 160 210 286 322 370
#     4   9  21  38  61  85 115 168 217 262 320 375
#     4  10  19  36  62  87 124 166 204 258 313 395
#     4  10  20  38  63  87 115 168 226 254 308 387
#
# _framework density 19.830178
#
# number of rings (size 3 to 8) (size 9 to 14) (size 15 to 20)
#    0.000    2.000    3.077    0.462    2.154    0.000 
#    0.000    6.923    0.000   34.154    0.000    0.000 
#    0.000    0.000    0.000    0.000    0.000    0.000 
#
# Total GULP energy -144813.904396 kJ/mol
# GULP energy per Si atom -5569.765554 kJ/mol
# Density = 1.978504 g / cm^3
# Si number density = 19.830178 Si / 1000 Ang^3
#
#
#
# Elastic Constant Matrix: (Units=GPa)
#
#
# Indices 1 2 3 4 5 6 
#
# 1 89.5342 50.8084 35.8541 0.0000 0.0000 0.0000
# 2 50.8084 130.3504 45.4607 0.0000 0.0000 -0.0001
# 3 35.8541 45.4607 107.0854 0.0000 0.0000 0.0000
# 4 0.0000 0.0000 0.0000 16.5862 0.0000 0.0000
# 5 0.0000 0.0000 0.0000 0.0000 14.4968 0.0000
# 6 0.0000 -0.0001 0.0000 0.0000 0.0000 44.0868
#
#
#
# Elastic Compliance Matrix: (Units=1/GPa)
#
#
# Indices 1 2 3 4 5 6 
#
# 1 0.015123 -0.004846 -0.003006 0.000000 0.000000 0.000000
# 2 -0.004846 0.010558 -0.002860 0.000000 0.000000 0.000000
# 3 -0.003006 -0.002860 0.011559 0.000000 0.000000 0.000000
# 4 0.000000 0.000000 0.000000 0.060291 0.000000 0.000000
# 5 0.000000 0.000000 0.000000 0.000000 0.068981 0.000000
# 6 0.000000 0.000000 0.000000 0.000000 0.000000 0.022683
#
#
# Mechanical properties :
#
#
# Convention : Reuss Voigt Hill
#
# Bulk Modulus (GPa) = 63.22749 65.69070 64.45909
# Shear Modulus (GPa) = 23.16003 28.02376 25.59190
#
# Velocity S-wave (km/s) = 3.42119 3.76332 3.59632
# Velocity P-wave (km/s) = 6.89636 7.21678 7.05839
#
# Compressibility (1/GPa) = 0.01581590
#
# Stress axis : x y z
#
# Youngs Moduli (GPa) = 66.12534 94.71591 86.51453
#
# Poissons Ratio (x) = 0.45902 0.26006
# Poissons Ratio (y) = 0.32046 0.24739
# Poissons Ratio (z) = 0.19877 0.27084
#
# Static dielectric constant tensor:
#      x y z
#    x 1.743650 0.000000 0.000000 
#    y 0.000000 1.783670 0.000000 
#    z 0.000000 0.000000 1.659720 
# 
# From -- ./inp_files/56965.got.cif
#   From: 2010.05.17/outbox.cif.g08.bks.cpg/sg22_29_cif.got.tgz:56965.got - 2010.06.03 23:40:54.
