data_PCOD9326832
_publ_section_title
;
Structure prediction by ZEFSAII (Michael W. Deem and Ramdas Pophale) SiO2 
 PCOD9326832
Probable space group: F 2 2 2
;
_chemical_formula_sum "Si O2"
_cell_formula_units_Z 60
_cell_length_a 23.341710
_cell_length_b 14.266004
_cell_length_c 7.849467
_cell_angle_alpha 90.000000
_cell_angle_beta 90.000000
_cell_angle_gamma 90.000000
_cell_volume 2613.817001
_symmetry_space_group_name_H-M "F 2 2 2"
_symmetry_group_IT_number 22
_symmetry_cell_setting 'orthorhombic'
loop_
_space_group_symop_operation_xyz
x,y,z
-x,-y,z
x,-y,-z
-x,y,-z
x,1/2+y,1/2+z
-x,1/2-y,1/2+z
x,1/2-y,1/2-z
-x,1/2+y,1/2-z
1/2+x,y,1/2+z
1/2-x,-y,1/2+z
1/2+x,-y,1/2-z
1/2-x,y,1/2-z
1/2+x,1/2+y,z
1/2-x,1/2-y,z
1/2+x,1/2-y,-z
1/2-x,1/2+y,-z
loop_
_atom_site_type_symbol
_atom_site_label
_atom_site_fract_x
_atom_site_fract_y
_atom_site_fract_z
Si Si1 0.937967 0.143803 0.561940
Si Si2 0.750000 0.750000 0.750000
Si Si3 0.564178 0.360790 0.969198
Si Si4 0.658319 0.500000 0.500000
Si Si5 0.819839 0.926871 0.860557
O O1 0.934955 0.249705 0.494200
O O2 0.930003 0.135308 0.765111
O O3 0.884092 0.088244 0.496212
O O4 0.000000 0.108051 0.500000
O O5 0.789204 0.824765 0.853856
O O6 0.500000 0.396015 0.000000
O O7 0.614014 0.407571 0.080705
O O8 0.687456 0.518888 0.681222
O O9 0.797615 0.000000 0.000000
#
# Coordination Sequence:
#
# PCOD9326832 Si02
#       5
#    16   4  16   8  16
#     4  10  20  35  62 106 154 208 251 308 395 479
#     4  12  32  56  86 114 164 218 276 362 398 478
#     4  10  21  41  68 107 161 204 251 326 404 478
#     4  12  23  42  72 106 148 198 271 328 392 480
#     4  12  27  52  78 115 155 212 276 337 410 481
#
# _framework density 22.954937000000001
#
# number of rings (size 3 to 8) (size 9 to 14) (size 15 to 20)
#    0.000    1.067    2.667    3.600    1.867    4.800 
#    0.000    1.333    0.000    0.000    0.000    0.000 
#    0.000    0.000    0.000    0.000    0.000    0.000 
#
# Total GULP energy -83772.475615 kJ/mol
# GULP energy per Si atom -5584.831708 kJ/mol
# Density = 2.290269 g / cm^3
# Si number density = 22.954937 Si / 1000 Ang^3
#
#
#
# Elastic Constant Matrix: (Units=GPa)
#
#
# Indices 1 2 3 4 5 6 
#
# 1 143.0758 53.6674 69.4384 0.0000 0.0000 0.0000
# 2 53.6674 144.9872 68.8846 0.0000 0.0000 0.0000
# 3 69.4384 68.8846 148.0071 0.0000 0.0000 0.0000
# 4 0.0000 0.0000 0.0000 40.5095 0.0000 0.0000
# 5 0.0000 0.0000 0.0000 0.0000 42.3911 0.0000
# 6 0.0000 0.0000 0.0000 0.0000 0.0000 32.0587
#
#
#
# Elastic Compliance Matrix: (Units=1/GPa)
#
#
# Indices 1 2 3 4 5 6 
#
# 1 0.009393 -0.001776 -0.003580 0.000000 0.000000 0.000000
# 2 -0.001776 0.009191 -0.003444 0.000000 0.000000 0.000000
# 3 -0.003580 -0.003444 0.010039 0.000000 0.000000 0.000000
# 4 0.000000 0.000000 0.000000 0.024686 0.000000 0.000000
# 5 0.000000 0.000000 0.000000 0.000000 0.023590 0.000000
# 6 0.000000 0.000000 0.000000 0.000000 0.000000 0.031193
#
#
# Mechanical properties :
#
#
# Convention : Reuss Voigt Hill
#
# Bulk Modulus (GPa) = 90.72705 91.11676 90.92191
# Shear Modulus (GPa) = 38.64983 39.26384 38.95684
#
# Velocity S-wave (km/s) = 4.10777 4.14028 4.12406
# Velocity P-wave (km/s) = 7.88088 7.91428 7.89759
#
# Compressibility (1/GPa) = 0.01102207
#
# Stress axis : x y z
#
# Youngs Moduli (GPa) = 106.46203 108.80225 99.60889
#
# Poissons Ratio (x) = 0.19321 0.35663
# Poissons Ratio (y) = 0.18906 0.34310
# Poissons Ratio (z) = 0.38117 0.37477
#
# Static dielectric constant tensor:
#      x y z
#    x 1.983780 0.000000 0.000000 
#    y 0.000000 1.868860 0.000000 
#    z 0.000000 0.000000 1.951160 
# 
# From -- ./inp_files/13365.got.cif
#   From: 2010.05.17/outbox.cif.g08.bks.cpg/sg22_7_cif.got.tgz:13365.got - 2010.06.03 23:40:54.
