data_PCOD9326698
_publ_section_title
;
Structure prediction by ZEFSAII (Michael W. Deem and Ramdas Pophale) SiO2 
 PCOD9326698
Probable space group: F 2 2 2
;
_chemical_formula_sum "Si O2"
_cell_formula_units_Z 72
_cell_length_a 5.018324
_cell_length_b 27.806801
_cell_length_c 26.661612
_cell_angle_alpha 90.000000
_cell_angle_beta 90.000000
_cell_angle_gamma 90.000000
_cell_volume 3720.455636
_symmetry_space_group_name_H-M "F 2 2 2"
_symmetry_group_IT_number 22
_symmetry_cell_setting 'orthorhombic'
loop_
_space_group_symop_operation_xyz
x,y,z
-x,-y,z
x,-y,-z
-x,y,-z
x,1/2+y,1/2+z
-x,1/2-y,1/2+z
x,1/2-y,1/2-z
-x,1/2+y,1/2-z
1/2+x,y,1/2+z
1/2-x,-y,1/2+z
1/2+x,-y,1/2-z
1/2-x,y,1/2-z
1/2+x,1/2+y,z
1/2-x,1/2-y,z
1/2+x,1/2-y,-z
1/2-x,1/2+y,-z
loop_
_atom_site_type_symbol
_atom_site_label
_atom_site_fract_x
_atom_site_fract_y
_atom_site_fract_z
Si Si1 0.076022 0.612523 0.398047
Si Si2 0.485344 0.601638 0.217354
Si Si3 0.892773 0.453106 0.906533
Si Si4 0.504542 0.718821 0.939568
Si Si5 0.000000 0.500000 0.324793
O O1 0.994752 0.619945 0.339605
O O2 0.359152 0.583667 0.398082
O O3 0.854791 0.578830 0.425009
O O4 0.054188 0.664528 0.422344
O O5 0.250000 0.624058 0.250000
O O6 0.420112 0.545483 0.207579
O O7 0.750000 0.605378 0.250000
O O8 0.742185 0.479611 0.859138
O O9 0.000000 0.500000 0.935749
O O10 0.250000 0.750000 0.923083
O O11 0.750000 0.750000 0.921578
O O12 0.500000 0.717770 0.000000
#
# Coordination Sequence:
#
# PCOD9326698 Si02
#       5
#    16  16  16  16   8
#     4  11  22  35  59  84 119 159 190 245 298 344
#     4  11  21  30  47  77 118 160 200 234 269 325
#     4  11  18  33  53  82 121 165 194 228 278 342
#     4  10  22  43  70  95 111 133 189 262 319 361
#     4  10  20  30  48  74 119 162 207 246 266 300
#
# _framework density 19.352467000000001
#
# number of rings (size 3 to 8) (size 9 to 14) (size 15 to 20)
#    0.000    1.333    4.444    4.667    0.000    0.000 
#    0.000    0.000    0.000    8.000    0.000    0.000 
#    0.000    0.000    0.000    0.000    0.000    0.000 
#
# Total GULP energy -100214.685831 kJ/mol
# GULP energy per Si atom -5567.482546 kJ/mol
# Density = 1.930842 g / cm^3
# Si number density = 19.352467 Si / 1000 Ang^3
#
#
#
# Elastic Constant Matrix: (Units=GPa)
#
#
# Indices 1 2 3 4 5 6 
#
# 1 165.9043 85.6548 16.4583 0.0000 0.0000 0.0000
# 2 85.6548 120.9976 20.4495 0.0000 0.0000 0.0000
# 3 16.4583 20.4495 12.9204 0.0000 0.0000 0.0000
# 4 0.0000 0.0000 0.0000 24.6501 0.0000 0.0000
# 5 0.0000 0.0000 0.0000 0.0000 29.3386 0.0000
# 6 0.0000 0.0000 0.0000 0.0000 0.0000 28.0253
#
#
#
# Elastic Compliance Matrix: (Units=1/GPa)
#
#
# Indices 1 2 3 4 5 6 
#
# 1 0.009537 -0.006414 -0.001997 0.000000 0.000000 0.000000
# 2 -0.006414 0.015596 -0.016514 0.000000 0.000000 0.000000
# 3 -0.001997 -0.016514 0.106079 0.000000 0.000000 0.000000
# 4 0.000000 0.000000 0.000000 0.040568 0.000000 0.000000
# 5 0.000000 0.000000 0.000000 0.000000 0.034085 0.000000
# 6 0.000000 0.000000 0.000000 0.000000 0.000000 0.035682
#
#
# Mechanical properties :
#
#
# Convention : Reuss Voigt Hill
#
# Bulk Modulus (GPa) = 12.29082 60.54971 36.42027
# Shear Modulus (GPa) = 15.69770 28.22011 21.95891
#
# Velocity S-wave (km/s) = 2.85115 3.82280 3.37216
# Velocity P-wave (km/s) = 4.14772 7.13028 5.83286
#
# Compressibility (1/GPa) = 0.08136152
#
# Stress axis : x y z
#
# Youngs Moduli (GPa) = 104.85366 64.11890 9.42693
#
# Poissons Ratio (x) = 0.41125 0.01883
# Poissons Ratio (y) = 0.67251 0.15568
# Poissons Ratio (z) = 0.20942 1.05888
#
# Static dielectric constant tensor:
#      x y z
#    x 1.745790 0.000000 0.000000 
#    y 0.000000 1.636430 0.000000 
#    z 0.000000 0.000000 1.705940 
# 
# From -- ./inp_files/54921.got.cif
#   From: 2010.05.17/outbox.cif.g08.bks.cpg/sg22_28_cif.got.tgz:54921.got - 2010.06.03 23:40:54.
