data_PCOD9326161
_publ_section_title
;
Structure prediction by ZEFSAII (Michael W. Deem and Ramdas Pophale) SiO2 
 PCOD9326161
Probable space group: F 2 2 2
;
_chemical_formula_sum "Si O2"
_cell_formula_units_Z 104
_cell_length_a 31.366529
_cell_length_b 15.031723
_cell_length_c 12.000904
_cell_angle_alpha 90.000000
_cell_angle_beta 90.000000
_cell_angle_gamma 90.000000
_cell_volume 5658.341934
_symmetry_space_group_name_H-M "F 2 2 2"
_symmetry_group_IT_number 22
_symmetry_cell_setting 'orthorhombic'
loop_
_space_group_symop_operation_xyz
x,y,z
-x,-y,z
x,-y,-z
-x,y,-z
x,1/2+y,1/2+z
-x,1/2-y,1/2+z
x,1/2-y,1/2-z
-x,1/2+y,1/2-z
1/2+x,y,1/2+z
1/2-x,-y,1/2+z
1/2+x,-y,1/2-z
1/2-x,y,1/2-z
1/2+x,1/2+y,z
1/2-x,1/2-y,z
1/2+x,1/2-y,-z
1/2-x,1/2+y,-z
loop_
_atom_site_type_symbol
_atom_site_label
_atom_site_fract_x
_atom_site_fract_y
_atom_site_fract_z
Si Si1 0.883891 0.899051 0.278134
Si Si2 0.834464 0.073802 0.325079
Si Si3 0.104960 0.328107 0.668524
Si Si4 0.856117 0.286467 0.985156
Si Si5 0.550476 0.999593 0.633443
Si Si6 0.250000 0.475151 0.250000
Si Si7 0.197334 0.324757 0.343460
O O1 0.880695 0.826418 0.377206
O O2 0.925701 0.924248 0.206755
O O3 0.847483 0.869438 0.191406
O O4 0.866172 0.989844 0.332417
O O5 0.851358 0.131310 0.219929
O O6 0.841350 0.134950 0.432631
O O7 0.787743 0.034130 0.301588
O O8 0.090682 0.250000 0.750000
O O9 0.114188 0.282227 0.551196
O O10 0.071359 0.406706 0.669192
O O11 0.813601 0.232600 0.950766
O O12 0.500000 0.000000 0.651644
O O13 0.558591 0.000000 0.500000
O O14 0.230594 0.405286 0.340422
O O15 0.206418 0.250000 0.250000
#
# Coordination Sequence:
#
# PCOD9326161 Si02
#       7
#    16  16  16  16  16   8  16
#     4   9  18  34  56  79 106 142 183 222 267 326
#     4   9  19  35  55  76 107 145 182 224 275 330
#     4   9  19  37  57  78 108 144 180 222 272 326
#     4  10  18  34  58  80 100 141 189 226 269 322
#     4  10  20  36  58  85 113 142 174 216 272 336
#     4  10  19  36  51  74 112 144 180 226 275 326
#     4   9  18  32  51  74 102 136 177 226 268 310
#
# _framework density 18.379943000000001
#
# number of rings (size 3 to 8) (size 9 to 14) (size 15 to 20)
#    0.000    2.615    0.000    1.615    0.000    0.000 
#    0.000   22.692    0.000   17.538    0.000    0.000 
#    0.000    0.000    0.000    0.000    0.000    0.000 
#
# Total GULP energy -144824.410526 kJ/mol
# GULP energy per Si atom -5570.169636 kJ/mol
# Density = 1.833811 g / cm^3
# Si number density = 18.379943 Si / 1000 Ang^3
#
#
#
# Elastic Constant Matrix: (Units=GPa)
#
#
# Indices 1 2 3 4 5 6 
#
# 1 112.0488 49.1145 46.3603 0.0000 0.0000 0.0000
# 2 49.1145 98.7207 37.7476 0.0000 0.0000 0.0000
# 3 46.3603 37.7476 77.9756 0.0000 0.0000 0.0000
# 4 0.0000 0.0000 0.0000 27.5689 0.0000 0.0000
# 5 0.0000 0.0000 0.0000 0.0000 -195.4673 0.0000
# 6 0.0000 0.0000 0.0000 0.0000 0.0000 16.3008
#
#
#
# Elastic Compliance Matrix: (Units=1/GPa)
#
#
# Indices 1 2 3 4 5 6 
#
# 1 0.013220 -0.004383 -0.005738 0.000000 0.000000 0.000000
# 2 -0.004383 0.013884 -0.004115 0.000000 0.000000 0.000000
# 3 -0.005738 -0.004115 0.018228 0.000000 0.000000 0.000000
# 4 0.000000 0.000000 0.000000 0.036273 0.000000 0.000000
# 5 0.000000 0.000000 0.000000 0.000000 -0.005116 0.000000
# 6 0.000000 0.000000 0.000000 0.000000 0.000000 0.061347
#
#
# Mechanical properties :
#
#
# Convention : Reuss Voigt Hill
#
# Bulk Modulus (GPa) = 59.31409 61.68777 60.50093
# Shear Modulus (GPa) = 29.08200 -19.95132 4.56534
#
# Velocity S-wave (km/s) = 3.98209 -3.29826 1.57774
# Velocity P-wave (km/s) = 7.31327 4.37387 6.02555
#
# Compressibility (1/GPa) = 0.01685940
#
# Stress axis : x y z
#
# Youngs Moduli (GPa) = 75.64258 72.02713 54.85992
#
# Poissons Ratio (x) = 0.31570 0.31480
# Poissons Ratio (y) = 0.33154 0.22575
# Poissons Ratio (z) = 0.43405 0.29640
#
# Static dielectric constant tensor:
#      x y z
#    x 1.625240 0.000000 0.000000 
#    y 0.000000 1.669740 0.000000 
#    z 0.000000 0.000000 1.679960 
# 
# From -- ./inp_files/25411.got.cif
#   From: 2010.05.17/outbox.cif.g08.bks.cpg/sg22_13_cif.got.tgz:25411.got - 2010.06.03 23:40:54.
