data_PCOD9326106
_publ_section_title
;
Structure prediction by ZEFSAII (Michael W. Deem and Ramdas Pophale) SiO2 
 PCOD9326106
Probable space group: F 2 2 2
;
_chemical_formula_sum "Si O2"
_cell_formula_units_Z 116
_cell_length_a 14.451637
_cell_length_b 18.089081
_cell_length_c 23.685329
_cell_angle_alpha 90.000000
_cell_angle_beta 90.000000
_cell_angle_gamma 90.000000
_cell_volume 6191.743679
_symmetry_space_group_name_H-M "F 2 2 2"
_symmetry_group_IT_number 22
_symmetry_cell_setting 'orthorhombic'
loop_
_space_group_symop_operation_xyz
x,y,z
-x,-y,z
x,-y,-z
-x,y,-z
x,1/2+y,1/2+z
-x,1/2-y,1/2+z
x,1/2-y,1/2-z
-x,1/2+y,1/2-z
1/2+x,y,1/2+z
1/2-x,-y,1/2+z
1/2+x,-y,1/2-z
1/2-x,y,1/2-z
1/2+x,1/2+y,z
1/2-x,1/2-y,z
1/2+x,1/2-y,-z
1/2-x,1/2+y,-z
loop_
_atom_site_type_symbol
_atom_site_label
_atom_site_fract_x
_atom_site_fract_y
_atom_site_fract_z
Si Si1 0.500000 0.000000 0.500000
Si Si2 0.348919 0.892697 0.462585
Si Si3 0.538716 0.855677 0.864199
Si Si4 0.642710 0.159566 0.248921
Si Si5 0.355673 0.167495 0.411539
Si Si6 0.448305 0.176983 0.635501
Si Si7 0.137595 0.079051 0.524888
Si Si8 0.847230 0.655687 0.093578
O O1 0.429615 0.953098 0.462507
O O2 0.361030 0.850850 0.522106
O O3 0.370560 0.840054 0.410865
O O4 0.246538 0.925394 0.460055
O O5 0.592136 0.872656 0.806304
O O6 0.543431 0.766056 0.865312
O O7 0.584783 0.891290 0.920049
O O8 0.429693 0.875004 0.867791
O O9 0.642999 0.250000 0.250000
O O10 0.750000 0.136498 0.250000
O O11 0.586234 0.143565 0.305759
O O12 0.451067 0.145741 0.381831
O O13 0.257932 0.132372 0.392165
O O14 0.348726 0.255598 0.403785
O O15 0.131134 0.133843 0.471270
O O16 0.107401 0.000000 0.500000
#
# Coordination Sequence:
#
# PCOD9326106 Si02
#       8
#     4  16  16  16  16  16  16  16
#     4  12  20  32  48  76 110 132 162 212 258 320
#     4  11  20  32  51  77 107 135 169 216 266 320
#     4  10  20  34  51  77 108 136 175 219 259 310
#     4   9  18  32  51  77 104 132 172 219 262 305
#     4   9  17  32  51  77 102 132 170 216 264 313
#     4  10  18  32  56  78 104 139 171 216 269 309
#     4  11  22  33  49  76 106 144 175 210 264 322
#     4   9  19  32  50  73 103 135 174 215 258 314
#
# _framework density 18.734625000000001
#
# number of rings (size 3 to 8) (size 9 to 14) (size 15 to 20)
#    0.000    2.069    2.069    2.069    0.000    6.069 
#    0.000    0.690    0.000    5.793    0.000    1.931 
#    0.000    0.000    0.000    0.000    0.000    0.000 
#
# Total GULP energy -161623.301404 kJ/mol
# GULP energy per Si atom -5573.217290 kJ/mol
# Density = 1.869198 g / cm^3
# Si number density = 18.734625 Si / 1000 Ang^3
#
#
#
# Elastic Constant Matrix: (Units=GPa)
#
#
# Indices 1 2 3 4 5 6 
#
# 1 166.4682 19.3560 88.3361 0.0000 0.0000 0.0000
# 2 19.3560 10.1329 10.7423 0.0000 0.0000 0.0000
# 3 88.3361 10.7423 115.0714 0.0000 0.0000 0.0000
# 4 0.0000 0.0000 0.0000 14.9519 0.0000 0.0000
# 5 0.0000 0.0000 0.0000 0.0000 20.2252 0.0000
# 6 0.0000 0.0000 0.0000 0.0000 0.0000 -21.9069
#
#
#
# Elastic Compliance Matrix: (Units=1/GPa)
#
#
# Indices 1 2 3 4 5 6 
#
# 1 0.011746 -0.014292 -0.007683 0.000000 0.000000 0.000000
# 2 -0.014292 0.126919 -0.000877 0.000000 0.000000 0.000000
# 3 -0.007683 -0.000877 0.014670 0.000000 0.000000 0.000000
# 4 0.000000 0.000000 0.000000 0.066881 0.000000 0.000000
# 5 0.000000 0.000000 0.000000 0.000000 0.049443 0.000000
# 6 0.000000 0.000000 0.000000 0.000000 0.000000 -0.045648
#
#
# Mechanical properties :
#
#
# Convention : Reuss Voigt Hill
#
# Bulk Modulus (GPa) = 9.29092 58.72679 34.00886
# Shear Modulus (GPa) = 16.36170 14.20325 15.28247
#
# Velocity S-wave (km/s) = 2.95844 2.75640 2.85920
# Velocity P-wave (km/s) = 4.07919 6.44554 5.39374
#
# Compressibility (1/GPa) = 0.10763192
#
# Stress axis : x y z
#
# Youngs Moduli (GPa) = 85.13754 7.87902 68.16774
#
# Poissons Ratio (x) = 0.11261 0.52370
# Poissons Ratio (y) = 1.21681 0.05976
# Poissons Ratio (z) = 0.65407 0.00691
#
# Static dielectric constant tensor:
#      x y z
#    x 1.690330 0.000000 0.000000 
#    y 0.000000 1.666610 0.000000 
#    z 0.000000 0.000000 1.628570 
# 
# From -- ./inp_files/30923.got.cif
#   From: 2010.05.17/outbox.cif.g08.bks.cpg/sg22_16_cif.got.tgz:30923.got - 2010.06.03 23:40:54.
