data_PCOD9326037
_publ_section_title
;
Structure prediction by ZEFSAII (Michael W. Deem and Ramdas Pophale) SiO2 
 PCOD9326037
Probable space group: F 2 2 2
;
_chemical_formula_sum "Si O2"
_cell_formula_units_Z 112
_cell_length_a 23.955451
_cell_length_b 12.348084
_cell_length_c 16.839822
_cell_angle_alpha 90.000000
_cell_angle_beta 90.000000
_cell_angle_gamma 90.000000
_cell_volume 4981.285380
_symmetry_space_group_name_H-M "F 2 2 2"
_symmetry_group_IT_number 22
_symmetry_cell_setting 'orthorhombic'
loop_
_space_group_symop_operation_xyz
x,y,z
-x,-y,z
x,-y,-z
-x,y,-z
x,1/2+y,1/2+z
-x,1/2-y,1/2+z
x,1/2-y,1/2-z
-x,1/2+y,1/2-z
1/2+x,y,1/2+z
1/2-x,-y,1/2+z
1/2+x,-y,1/2-z
1/2-x,y,1/2-z
1/2+x,1/2+y,z
1/2-x,1/2-y,z
1/2+x,1/2-y,-z
1/2-x,1/2+y,-z
loop_
_atom_site_type_symbol
_atom_site_label
_atom_site_fract_x
_atom_site_fract_y
_atom_site_fract_z
Si Si1 0.690289 0.029412 0.767375
Si Si2 0.217476 0.640907 0.095200
Si Si3 0.923480 0.091253 0.935498
Si Si4 0.540710 0.655978 0.691501
Si Si5 0.105718 0.238356 0.546064
Si Si6 0.929230 0.918012 0.249537
Si Si7 0.671260 0.054844 0.403461
O O1 0.750000 0.085266 0.750000
O O2 0.694987 0.945476 0.840457
O O3 0.682703 0.955615 0.689559
O O4 0.635596 0.104781 0.768360
O O5 0.250000 0.750000 0.127445
O O6 0.270850 0.584972 0.055805
O O7 0.164425 0.673765 0.041370
O O8 0.925083 0.212154 0.969757
O O9 0.944049 0.086601 0.844747
O O10 0.858227 0.056670 0.927585
O O11 0.944024 0.000000 0.000000
O O12 0.561233 0.750000 0.750000
O O13 0.563964 0.677537 0.604347
O O14 0.473871 0.649493 0.700524
O O15 0.562582 0.541959 0.723730
O O16 0.126254 0.350357 0.586908
#
# Coordination Sequence:
#
# PCOD9326037 Si02
#       7
#    16  16  16  16  16  16  16
#     4   9  15  27  47  80 123 156 196 258 325 384
#     4   9  16  24  43  84 121 162 203 258 316 379
#     4   9  17  33  51  82 121 170 204 260 317 393
#     4  11  21  35  56  87 123 166 209 279 326 369
#     4  10  18  28  51  81 124 164 215 259 315 380
#     4  10  21  36  55  89 129 160 214 271 337 377
#     4   8  16  26  45  81 124 160 199 257 321 375
#
# _framework density 22.484155999999999
#
# number of rings (size 3 to 8) (size 9 to 14) (size 15 to 20)
#    0.000    2.571    1.429    2.571    0.000    6.000 
#    0.000    5.000    0.000    0.429   66.857    8.000 
#    0.000    0.000    0.000    0.000    0.000    0.000 
#
# Total GULP energy -155986.409932 kJ/mol
# GULP energy per Si atom -5570.943212 kJ/mol
# Density = 2.243298 g / cm^3
# Si number density = 22.484156 Si / 1000 Ang^3
#
#
#
# Elastic Constant Matrix: (Units=GPa)
#
#
# Indices 1 2 3 4 5 6 
#
# 1 145.5864 22.1065 37.0214 0.0000 0.0000 0.0000
# 2 22.1065 61.9843 40.0652 0.0000 0.0000 0.0000
# 3 37.0214 40.0652 83.5929 0.0000 0.0000 0.0000
# 4 0.0000 0.0000 0.0000 32.2656 0.0000 0.0000
# 5 0.0000 0.0000 0.0000 0.0000 5.5505 0.0000
# 6 0.0000 0.0000 0.0000 0.0000 0.0000 -0.0490
#
#
#
# Elastic Compliance Matrix: (Units=1/GPa)
#
#
# Indices 1 2 3 4 5 6 
#
# 1 0.007767 -0.000792 -0.003060 0.000000 0.000000 0.000000
# 2 -0.000792 0.023455 -0.010891 0.000000 0.000000 0.000000
# 3 -0.003060 -0.010891 0.018538 0.000000 0.000000 0.000000
# 4 0.000000 0.000000 0.000000 0.030993 0.000000 0.000000
# 5 0.000000 0.000000 0.000000 0.000000 0.180163 0.000000
# 6 0.000000 0.000000 0.000000 0.000000 0.000000-20.409276
#
#
# Mechanical properties :
#
#
# Convention : Reuss Voigt Hill
#
# Bulk Modulus (GPa) = 49.32498 54.39444 51.85971
# Shear Modulus (GPa) = -0.24861 20.35146 10.05143
#
# Velocity S-wave (km/s) = -0.33288 3.01183 2.11664
# Velocity P-wave (km/s) = 4.67307 6.02824 5.39339
#
# Compressibility (1/GPa) = 0.02027370
#
# Stress axis : x y z
#
# Youngs Moduli (GPa) = 128.74557 42.63417 53.94300
#
# Poissons Ratio (x) = 0.03377 0.16508
# Poissons Ratio (y) = 0.10197 0.58750
# Poissons Ratio (z) = 0.39400 0.46433
#
# Static dielectric constant tensor:
#      x y z
#    x 1.942660 0.000000 0.000000 
#    y 0.000000 1.874420 0.000000 
#    z 0.000000 0.000000 1.899890 
# 
# From -- ./inp_files/33188.got.cif
#   From: 2010.05.17/outbox.cif.g08.bks.cpg/sg22_17_cif.got.tgz:33188.got - 2010.06.03 23:40:54.
