data_PCOD9326992
_publ_section_title
;
Structure prediction by ZEFSAII (Michael W. Deem and Ramdas Pophale) SiO2 
 PCOD9326992
Probable space group: F 2 2 2
;
_chemical_formula_sum "Si O2"
_cell_formula_units_Z 84
_cell_length_a 9.757765
_cell_length_b 17.602127
_cell_length_c 21.536735
_cell_angle_alpha 90.000000
_cell_angle_beta 90.000000
_cell_angle_gamma 90.000000
_cell_volume 3699.094012
_symmetry_space_group_name_H-M "F 2 2 2"
_symmetry_group_IT_number 22
_symmetry_cell_setting 'orthorhombic'
loop_
_space_group_symop_operation_xyz
x,y,z
-x,-y,z
x,-y,-z
-x,y,-z
x,1/2+y,1/2+z
-x,1/2-y,1/2+z
x,1/2-y,1/2-z
-x,1/2+y,1/2-z
1/2+x,y,1/2+z
1/2-x,-y,1/2+z
1/2+x,-y,1/2-z
1/2-x,y,1/2-z
1/2+x,1/2+y,z
1/2-x,1/2-y,z
1/2+x,1/2-y,-z
1/2-x,1/2+y,-z
loop_
_atom_site_type_symbol
_atom_site_label
_atom_site_fract_x
_atom_site_fract_y
_atom_site_fract_z
Si Si1 0.250000 0.250000 0.086413
Si Si2 0.850610 0.862657 0.690449
Si Si3 0.000000 0.240307 0.000000
Si Si4 0.000000 0.000000 0.000000
Si Si5 0.523280 0.750000 0.250000
Si Si6 0.127597 0.121722 0.173044
Si Si7 0.000000 0.000000 0.245727
Si Si8 0.864577 0.880123 0.912513
O O1 0.219155 0.172298 0.125923
O O2 0.114790 0.273154 0.046584
O O3 0.750000 0.855700 0.750000
O O4 0.932900 0.783277 0.693702
O O5 0.775634 0.874889 0.625298
O O6 0.943446 0.933772 0.710230
O O7 0.099169 0.189959 0.956385
O O8 0.100708 0.048518 0.956288
O O9 0.610761 0.820577 0.270705
O O10 0.123800 0.036948 0.203287
O O11 0.981290 0.118024 0.139412
#
# Coordination Sequence:
#
# PCOD9326992 Si02
#       8
#     8  16   8   4   8  16   8  16
#     4  10  22  43  66  98 133 180 234 290 350 396
#     4  11  21  37  65  96 131 179 220 291 344 421
#     4   9  22  41  66  94 128 174 236 286 336 403
#     4  10  22  40  60  90 120 176 232 268 316 420
#     4  10  21  37  60 102 134 170 226 266 360 416
#     4  10  21  40  63  95 138 173 217 284 342 427
#     4  10  21  40  60 102 140 175 228 264 364 430
#     4  10  20  37  63  89 126 176 228 274 333 407
#
# _framework density 22.708264
#
# number of rings (size 3 to 8) (size 9 to 14) (size 15 to 20)
#    0.000    1.905    3.810    0.857    0.000    3.429 
#    6.857    0.000    0.000    2.857    0.000    0.000 
#    0.000    6.857    0.000    0.000    0.000    0.000 
#
# Total GULP energy -117029.605552 kJ/mol
# GULP energy per Si atom -5572.838360 kJ/mol
# Density = 2.265658 g / cm^3
# Si number density = 22.708264 Si / 1000 Ang^3
#
#
#
# Elastic Constant Matrix: (Units=GPa)
#
#
# Indices 1 2 3 4 5 6 
#
# 1 100.2789 56.5860 62.4358 0.0000 0.0000 0.0000
# 2 56.5860 123.9049 47.6453 0.0000 0.0000 0.0000
# 3 62.4358 47.6453 110.7923 0.0000 0.0000 0.0000
# 4 0.0000 0.0000 0.0000 25.3934 0.0000 0.0000
# 5 0.0000 0.0000 0.0000 0.0000 59.3665 0.0000
# 6 0.0000 0.0000 0.0000 0.0000 0.0000 -10.8007
#
#
#
# Elastic Compliance Matrix: (Units=1/GPa)
#
#
# Indices 1 2 3 4 5 6 
#
# 1 0.017685 -0.005085 -0.007780 0.000000 0.000000 0.000000
# 2 -0.005085 0.011132 -0.001921 0.000000 0.000000 0.000000
# 3 -0.007780 -0.001921 0.014236 0.000000 0.000000 0.000000
# 4 0.000000 0.000000 0.000000 0.039380 0.000000 0.000000
# 5 0.000000 0.000000 0.000000 0.000000 0.016845 0.000000
# 6 0.000000 0.000000 0.000000 0.000000 0.000000 -0.092587
#
#
# Mechanical properties :
#
#
# Convention : Reuss Voigt Hill
#
# Bulk Modulus (GPa) = 74.17781 74.25670 74.21726
# Shear Modulus (GPa) = 122.67487 26.01244 74.34365
#
# Velocity S-wave (km/s) = 7.35795 3.38820 5.72797
# Velocity P-wave (km/s) = 10.24316 6.93382 8.74643
#
# Compressibility (1/GPa) = 0.01348112
#
# Stress axis : x y z
#
# Youngs Moduli (GPa) = 56.54366 89.83154 70.24303
#
# Poissons Ratio (x) = 0.45682 0.54646
# Poissons Ratio (y) = 0.28754 0.13497
# Poissons Ratio (z) = 0.43988 0.17261
#
# Static dielectric constant tensor:
#      x y z
#    x 1.913500 0.000000 0.000000 
#    y 0.000000 1.887390 0.000000 
#    z 0.000000 0.000000 2.142110 
# 
# From -- ./inp_files/36209.got.cif
#   From: 2010.05.17/outbox.cif.g08.bks.cpg/sg22_19_cif.got.tgz:36209.got - 2010.06.03 23:40:54.
