data_PCOD9326669
_publ_section_title
;
Structure prediction by ZEFSAII (Michael W. Deem and Ramdas Pophale) SiO2 
 PCOD9326669
Probable space group: F 2 2 2
;
_chemical_formula_sum "Si O2"
_cell_formula_units_Z 100
_cell_length_a 14.360768
_cell_length_b 19.671886
_cell_length_c 18.511667
_cell_angle_alpha 90.000000
_cell_angle_beta 90.000000
_cell_angle_gamma 90.000000
_cell_volume 5229.608700
_symmetry_space_group_name_H-M "F 2 2 2"
_symmetry_group_IT_number 22
_symmetry_cell_setting 'orthorhombic'
loop_
_space_group_symop_operation_xyz
x,y,z
-x,-y,z
x,-y,-z
-x,y,-z
x,1/2+y,1/2+z
-x,1/2-y,1/2+z
x,1/2-y,1/2-z
-x,1/2+y,1/2-z
1/2+x,y,1/2+z
1/2-x,-y,1/2+z
1/2+x,-y,1/2-z
1/2-x,y,1/2-z
1/2+x,1/2+y,z
1/2-x,1/2-y,z
1/2+x,1/2-y,-z
1/2-x,1/2+y,-z
loop_
_atom_site_type_symbol
_atom_site_label
_atom_site_fract_x
_atom_site_fract_y
_atom_site_fract_z
Si Si1 0.438748 0.154896 0.925385
Si Si2 0.000000 0.000000 0.000000
Si Si3 0.621210 0.894605 0.414013
Si Si4 0.148370 0.976988 0.776272
Si Si5 0.229423 0.830073 0.042811
Si Si6 0.476882 0.603111 0.270539
Si Si7 0.053745 0.691805 0.360468
O O1 0.330410 0.139420 0.941176
O O2 0.462250 0.108735 0.856009
O O3 0.447202 0.231184 0.890801
O O4 0.500000 0.150232 0.000000
O O5 0.064353 0.951982 0.954521
O O6 0.667000 0.937757 0.350828
O O7 0.690523 0.857690 0.467780
O O8 0.541462 0.842440 0.388546
O O9 0.250000 0.995526 0.750000
O O10 0.083876 0.920331 0.737403
O O11 0.084947 0.044641 0.769084
O O12 0.250000 0.750000 0.037781
O O13 0.147348 0.839563 0.102405
O O14 0.450465 0.671016 0.224489
#
# Coordination Sequence:
#
# PCOD9326669 Si02
#       7
#    16   4  16  16  16  16  16
#     4  11  24  38  62  92 132 171 200 256 321 394
#     4  12  20  32  64  96 122 156 206 270 324 368
#     4  11  21  37  63  93 126 161 211 270 324 372
#     4  10  24  42  63  84 120 165 211 269 307 378
#     4  10  21  36  61  95 128 164 203 258 321 386
#     4  10  23  42  64  89 123 164 215 259 320 374
#     4  10  19  40  63  94 123 160 211 267 312 373
#
# _framework density 19.121891000000002
#
# number of rings (size 3 to 8) (size 9 to 14) (size 15 to 20)
#    0.000    1.600    1.600    4.320    4.480    0.000 
#    0.000    4.000    0.000    0.000    0.000    0.000 
#    0.000    0.000    0.000    0.000    0.000    0.000 
#
# Total GULP energy -139177.827384 kJ/mol
# GULP energy per Si atom -5567.113095 kJ/mol
# Density = 1.907837 g / cm^3
# Si number density = 19.121891 Si / 1000 Ang^3
#
#
#
# Elastic Constant Matrix: (Units=GPa)
#
#
# Indices 1 2 3 4 5 6 
#
# 1 72.4174 6.7545 24.6064 0.0000 0.0000 0.0000
# 2 6.7545 37.2854 14.5105 0.0000 0.0000 0.0000
# 3 24.6064 14.5105 105.2147 0.0000 0.0000 0.0000
# 4 0.0000 0.0000 0.0000 30.0310 0.0000 0.0000
# 5 0.0000 0.0000 0.0000 0.0000 8.5416 0.0000
# 6 0.0000 0.0000 0.0000 0.0000 0.0000 17.1616
#
#
#
# Elastic Compliance Matrix: (Units=1/GPa)
#
#
# Indices 1 2 3 4 5 6 
#
# 1 0.015073 -0.001436 -0.003327 0.000000 0.000000 0.000000
# 2 -0.001436 0.028478 -0.003592 0.000000 0.000000 0.000000
# 3 -0.003327 -0.003592 0.010778 0.000000 0.000000 0.000000
# 4 0.000000 0.000000 0.000000 0.033299 0.000000 0.000000
# 5 0.000000 0.000000 0.000000 0.000000 0.117074 0.000000
# 6 0.000000 0.000000 0.000000 0.000000 0.000000 0.058270
#
#
# Mechanical properties :
#
#
# Convention : Reuss Voigt Hill
#
# Bulk Modulus (GPa) = 26.58170 34.07336 30.32753
# Shear Modulus (GPa) = 17.11034 22.41657 19.76346
#
# Velocity S-wave (km/s) = 2.99457 3.42760 3.21838
# Velocity P-wave (km/s) = 5.08802 5.78985 5.45024
#
# Compressibility (1/GPa) = 0.03761987
#
# Stress axis : x y z
#
# Youngs Moduli (GPa) = 66.34261 35.11477 92.78302
#
# Poissons Ratio (x) = 0.05042 0.30870
# Poissons Ratio (y) = 0.09525 0.33325
# Poissons Ratio (z) = 0.22073 0.12612
#
# Static dielectric constant tensor:
#      x y z
#    x 1.636910 0.000000 0.000000 
#    y 0.000000 1.689370 0.000000 
#    z 0.000000 0.000000 1.661160 
# 
# From -- ./inp_files/37251.got.cif
#   From: 2010.05.17/outbox.cif.g08.bks.cpg/sg22_19_cif.got.tgz:37251.got - 2010.06.03 23:40:54.
