data_PCOD9326047
_publ_section_title
;
Structure prediction by ZEFSAII (Michael W. Deem and Ramdas Pophale) SiO2 
 PCOD9326047
Probable space group: F 2 2 2
;
_chemical_formula_sum "Si O2"
_cell_formula_units_Z 112
_cell_length_a 20.663627
_cell_length_b 20.141147
_cell_length_c 16.434092
_cell_angle_alpha 90.000000
_cell_angle_beta 90.000000
_cell_angle_gamma 90.000000
_cell_volume 6839.690763
_symmetry_space_group_name_H-M "F 2 2 2"
_symmetry_group_IT_number 22
_symmetry_cell_setting 'orthorhombic'
loop_
_space_group_symop_operation_xyz
x,y,z
-x,-y,z
x,-y,-z
-x,y,-z
x,1/2+y,1/2+z
-x,1/2-y,1/2+z
x,1/2-y,1/2-z
-x,1/2+y,1/2-z
1/2+x,y,1/2+z
1/2-x,-y,1/2+z
1/2+x,-y,1/2-z
1/2-x,y,1/2-z
1/2+x,1/2+y,z
1/2-x,1/2-y,z
1/2+x,1/2-y,-z
1/2-x,1/2+y,-z
loop_
_atom_site_type_symbol
_atom_site_label
_atom_site_fract_x
_atom_site_fract_y
_atom_site_fract_z
Si Si1 0.929714 0.014375 0.214312
Si Si2 0.586022 0.907313 0.425712
Si Si3 0.949739 0.133478 0.104957
Si Si4 0.351433 0.266653 0.843349
Si Si5 0.302843 0.000272 0.182910
Si Si6 0.769579 0.143603 0.386159
Si Si7 0.227604 0.930506 0.955556
O O1 0.926591 0.971301 0.130910
O O2 0.927513 0.089702 0.182222
O O3 0.872621 0.995463 0.275255
O O4 0.000000 0.000000 0.251176
O O5 0.572121 0.905697 0.522819
O O6 0.527501 0.859798 0.395591
O O7 0.663051 0.898433 0.416802
O O8 0.911807 0.201967 0.110212
O O9 0.366110 0.250000 0.750000
O O10 0.293813 0.321567 0.847430
O O11 0.323840 0.199920 0.883185
O O12 0.250000 0.018346 0.250000
O O13 0.290386 0.923527 0.159005
O O14 0.283571 0.045989 0.106178
O O15 0.752563 0.119664 0.476532
O O16 0.206404 0.000000 0.000000
#
# Coordination Sequence:
#
# PCOD9326047 Si02
#       7
#    16  16  16  16  16  16  16
#     4  10  19  30  48  78 110 137 168 218 274 315
#     4  10  18  30  47  76 104 138 168 210 263 321
#     4  10  19  30  50  73 108 138 169 211 269 322
#     4  11  20  32  51  78 104 136 172 216 270 314
#     4  11  19  30  52  79 107 137 170 211 266 325
#     4  10  20  32  49  75 107 133 171 215 262 316
#     4  10  19  31  51  78 109 133 172 214 264 319
#
# _framework density 16.37501
#
# number of rings (size 3 to 8) (size 9 to 14) (size 15 to 20)
#    0.000    1.714    2.857    4.714    0.000    2.857 
#    0.000    0.000    0.000   14.143    0.000    2.000 
#    0.000    0.000    0.000    0.000    0.000    0.000 
#
# Total GULP energy -155926.879064 kJ/mol
# GULP energy per Si atom -5568.817109 kJ/mol
# Density = 1.633774 g / cm^3
# Si number density = 16.375010 Si / 1000 Ang^3
#
#
#
# Elastic Constant Matrix: (Units=GPa)
#
#
# Indices 1 2 3 4 5 6 
#
# 1 106.7449 18.3494 43.7159 0.0000 0.0000 0.0000
# 2 18.3494 36.6559 20.8357 0.0000 0.0000 0.0000
# 3 43.7159 20.8357 63.2988 0.0000 0.0000 0.0000
# 4 0.0000 0.0000 0.0000 19.5889 0.0000 0.0000
# 5 0.0000 0.0000 0.0000 0.0000 20.2113 0.0000
# 6 0.0000 0.0000 0.0000 0.0000 0.0000 24.9721
#
#
#
# Elastic Compliance Matrix: (Units=1/GPa)
#
#
# Indices 1 2 3 4 5 6 
#
# 1 0.013153 -0.001748 -0.008509 0.000000 0.000000 0.000000
# 2 -0.001748 0.033792 -0.009916 0.000000 0.000000 0.000000
# 3 -0.008509 -0.009916 0.024938 0.000000 0.000000 0.000000
# 4 0.000000 0.000000 0.000000 0.051049 0.000000 0.000000
# 5 0.000000 0.000000 0.000000 0.000000 0.049477 0.000000
# 6 0.000000 0.000000 0.000000 0.000000 0.000000 0.040045
#
#
# Mechanical properties :
#
#
# Convention : Reuss Voigt Hill
#
# Bulk Modulus (GPa) = 31.70716 41.38908 36.54812
# Shear Modulus (GPa) = 18.98883 21.20770 20.09827
#
# Velocity S-wave (km/s) = 3.40902 3.60269 3.50719
# Velocity P-wave (km/s) = 5.90765 6.52966 6.22643
#
# Compressibility (1/GPa) = 0.03153861
#
# Stress axis : x y z
#
# Youngs Moduli (GPa) = 76.02733 29.59278 40.09895
#
# Poissons Ratio (x) = 0.05173 0.34119
# Poissons Ratio (y) = 0.13289 0.39762
# Poissons Ratio (z) = 0.64689 0.29344
#
# Static dielectric constant tensor:
#      x y z
#    x 1.585600 0.000000 0.000000 
#    y 0.000000 1.537200 0.000000 
#    z 0.000000 0.000000 1.565030 
# 
# From -- ./inp_files/39041.got.cif
#   From: 2010.05.17/outbox.cif.g08.bks.cpg/sg22_20_cif.got.tgz:39041.got - 2010.06.03 23:40:54.
