data_PCOD9326204
_publ_section_title
;
Structure prediction by ZEFSAII (Michael W. Deem and Ramdas Pophale) SiO2 
 PCOD9326204
Probable space group: F 2 2 2
;
_chemical_formula_sum "Si O2"
_cell_formula_units_Z 108
_cell_length_a 26.785482
_cell_length_b 11.912783
_cell_length_c 15.271694
_cell_angle_alpha 90.000000
_cell_angle_beta 90.000000
_cell_angle_gamma 90.000000
_cell_volume 4873.039258
_symmetry_space_group_name_H-M "F 2 2 2"
_symmetry_group_IT_number 22
_symmetry_cell_setting 'orthorhombic'
loop_
_space_group_symop_operation_xyz
x,y,z
-x,-y,z
x,-y,-z
-x,y,-z
x,1/2+y,1/2+z
-x,1/2-y,1/2+z
x,1/2-y,1/2-z
-x,1/2+y,1/2-z
1/2+x,y,1/2+z
1/2-x,-y,1/2+z
1/2+x,-y,1/2-z
1/2-x,y,1/2-z
1/2+x,1/2+y,z
1/2-x,1/2-y,z
1/2+x,1/2-y,-z
1/2-x,1/2+y,-z
loop_
_atom_site_type_symbol
_atom_site_label
_atom_site_fract_x
_atom_site_fract_y
_atom_site_fract_z
Si Si1 0.170049 0.295445 0.632087
Si Si2 0.922003 0.750000 0.750000
Si Si3 0.448218 0.322932 0.460557
Si Si4 0.250000 0.250000 0.750000
Si Si5 0.324819 0.467416 0.402578
Si Si6 0.572850 0.953309 0.861095
Si Si7 0.280483 0.469050 0.161716
Si Si8 0.152265 0.783323 0.926689
O O1 0.115067 0.281748 0.670539
O O2 0.208662 0.208764 0.677885
O O3 0.191645 0.413151 0.665368
O O4 0.169581 0.290472 0.527909
O O5 0.946891 0.865686 0.713235
O O6 0.500000 0.276560 0.500000
O O7 0.451378 0.424396 0.387486
O O8 0.429102 0.385839 0.547680
O O9 0.408033 0.230970 0.429335
O O10 0.340825 0.500000 0.500000
O O11 0.368378 0.521211 0.342798
O O12 0.266462 0.489208 0.400437
O O13 0.329831 0.334853 0.389181
O O14 0.250000 0.439168 0.250000
O O15 0.320438 0.379777 0.127486
#
# Coordination Sequence:
#
# PCOD9326204 Si02
#       8
#    16   8  16   4  16  16  16  16
#     4  11  22  38  56  91 127 171 224 283 334 411
#     4  11  20  35  62  90 136 170 214 292 369 395
#     4  10  20  40  70  99 125 172 249 301 346 417
#     4  10  24  32  64  88 120 160 224 280 332 396
#     4  11  20  36  58  86 125 169 220 273 331 409
#     4  10  18  35  61  99 128 163 212 296 355 410
#     4  12  26  38  54  88 136 189 225 266 340 435
#     4  11  23  39  63  91 128 175 234 291 347 411
#
# _framework density 22.162761
#
# number of rings (size 3 to 8) (size 9 to 14) (size 15 to 20)
#    0.000    1.185    5.185    3.556    6.222    1.185 
#    0.000    0.000    0.000   10.667    0.000    0.000 
#    0.000    0.000    0.000    0.000    0.000    0.000 
#
# Total GULP energy -150340.489172 kJ/mol
# GULP energy per Si atom -5568.166266 kJ/mol
# Density = 2.211232 g / cm^3
# Si number density = 22.162761 Si / 1000 Ang^3
#
#
#
# Elastic Constant Matrix: (Units=GPa)
#
#
# Indices 1 2 3 4 5 6 
#
# 1 108.9906 45.3341 21.2717 0.0000 0.0000 0.0000
# 2 45.3341 111.5901 29.2996 0.0000 0.0000 0.0000
# 3 21.2717 29.2996 85.7443 0.0000 0.0000 0.0000
# 4 0.0000 0.0000 0.0000 34.0677 0.0000 0.0000
# 5 0.0000 0.0000 0.0000 0.0000 55.4948 0.0000
# 6 0.0000 0.0000 0.0000 0.0000 0.0000 45.1117
#
#
#
# Elastic Compliance Matrix: (Units=1/GPa)
#
#
# Indices 1 2 3 4 5 6 
#
# 1 0.011180 -0.004189 -0.001342 0.000000 0.000000 0.000000
# 2 -0.004189 0.011415 -0.002861 0.000000 0.000000 0.000000
# 3 -0.001342 -0.002861 0.012973 0.000000 0.000000 0.000000
# 4 0.000000 0.000000 0.000000 0.029353 0.000000 0.000000
# 5 0.000000 0.000000 0.000000 0.000000 0.018020 0.000000
# 6 0.000000 0.000000 0.000000 0.000000 0.000000 0.022167
#
#
# Mechanical properties :
#
#
# Convention : Reuss Voigt Hill
#
# Bulk Modulus (GPa) = 53.24138 55.34843 54.29490
# Shear Modulus (GPa) = 39.01577 40.96281 39.98929
#
# Velocity S-wave (km/s) = 4.20029 4.30382 4.25237
# Velocity P-wave (km/s) = 6.89915 7.05159 6.97579
#
# Compressibility (1/GPa) = 0.01878238
#
# Stress axis : x y z
#
# Youngs Moduli (GPa) = 89.44882 87.60720 77.08216
#
# Poissons Ratio (x) = 0.36702 0.10344
# Poissons Ratio (y) = 0.37474 0.22054
# Poissons Ratio (z) = 0.12003 0.25066
#
# Static dielectric constant tensor:
#      x y z
#    x 1.929290 0.000000 0.000000 
#    y 0.000000 0.315700 0.000000 
#    z 0.000000 0.000000 1.828200 
# 
# From -- ./inp_files/33555.got.cif
#   From: 2010.05.17/outbox.cif.g08.bks.cpg/sg22_17_cif.got.tgz:33555.got - 2010.06.03 23:40:54.
