data_PCOD9326461
_publ_section_title
;
Structure prediction by ZEFSAII (Michael W. Deem and Ramdas Pophale) SiO2 
 PCOD9326461
Probable space group: F 2 2 2
;
_chemical_formula_sum "Si O2"
_cell_formula_units_Z 112
_cell_length_a 21.502423
_cell_length_b 22.981591
_cell_length_c 12.513324
_cell_angle_alpha 90.000000
_cell_angle_beta 90.000000
_cell_angle_gamma 90.000000
_cell_volume 6183.582823
_symmetry_space_group_name_H-M "F 2 2 2"
_symmetry_group_IT_number 22
_symmetry_cell_setting 'orthorhombic'
loop_
_space_group_symop_operation_xyz
x,y,z
-x,-y,z
x,-y,-z
-x,y,-z
x,1/2+y,1/2+z
-x,1/2-y,1/2+z
x,1/2-y,1/2-z
-x,1/2+y,1/2-z
1/2+x,y,1/2+z
1/2-x,-y,1/2+z
1/2+x,-y,1/2-z
1/2-x,y,1/2-z
1/2+x,1/2+y,z
1/2-x,1/2-y,z
1/2+x,1/2-y,-z
1/2-x,1/2+y,-z
loop_
_atom_site_type_symbol
_atom_site_label
_atom_site_fract_x
_atom_site_fract_y
_atom_site_fract_z
Si Si1 0.598858 0.911994 0.943940
Si Si2 0.162405 0.696976 0.541280
Si Si3 0.070985 0.478745 0.165173
Si Si4 0.120298 0.364792 0.243430
Si Si5 0.455452 0.304577 0.903069
Si Si6 0.008862 0.674655 0.168960
Si Si7 0.302739 0.167072 0.052866
O O1 0.543372 0.872027 0.902515
O O2 0.609679 0.962541 0.856709
O O3 0.577732 0.943748 0.053091
O O4 0.657261 0.871283 0.970586
O O5 0.131641 0.668249 0.646259
O O6 0.114615 0.690037 0.444121
O O7 0.229940 0.668251 0.527443
O O8 0.174423 0.765936 0.555325
O O9 0.096956 0.431750 0.249530
O O10 0.000000 0.500000 0.182854
O O11 0.180982 0.359305 0.169164
O O12 0.065032 0.332218 0.178389
O O13 0.467605 0.334910 0.790297
O O14 0.472980 0.237588 0.876061
O O15 0.500000 0.323942 0.000000
#
# Coordination Sequence:
#
# PCOD9326461 Si02
#       7
#    16  16  16  16  16  16  16
#     4  10  19  35  55  87 116 147 192 250 294 339
#     4  11  21  39  55  84 122 163 195 230 300 365
#     4  10  20  31  57  92 118 145 187 257 308 334
#     4  11  21  33  56  91 120 149 192 248 298 354
#     4  11  22  35  53  84 120 154 187 229 296 360
#     4  11  22  32  57  87 117 146 187 243 296 348
#     4  10  22  34  59  83 122 159 194 240 293 361
#
# _framework density 18.112476999999998
#
# number of rings (size 3 to 8) (size 9 to 14) (size 15 to 20)
#    0.000    1.429    4.286    2.571    6.000    1.143 
#    0.000    0.714    0.000   12.857    0.000    0.000 
#    0.000    0.000    0.000    0.000    0.000    0.000 
#
# Total GULP energy -156260.929441 kJ/mol
# GULP energy per Si atom -5580.747480 kJ/mol
# Density = 1.807125 g / cm^3
# Si number density = 18.112477 Si / 1000 Ang^3
#
#
#
# Elastic Constant Matrix: (Units=GPa)
#
#
# Indices 1 2 3 4 5 6 
#
# 1 127.3980 44.5297 33.9638 0.0000 0.0000 0.0000
# 2 44.5297 89.8982 18.3461 0.0000 0.0000 0.0000
# 3 33.9638 18.3461 59.1859 0.0000 0.0000 0.0000
# 4 0.0000 0.0000 0.0000 14.2454 0.0000 0.0000
# 5 0.0000 0.0000 0.0000 0.0000 28.5370 0.0000
# 6 0.0000 0.0000 0.0000 0.0000 0.0000 30.5388
#
#
#
# Elastic Compliance Matrix: (Units=1/GPa)
#
#
# Indices 1 2 3 4 5 6 
#
# 1 0.010618 -0.004287 -0.004764 0.000000 0.000000 0.000000
# 2 -0.004287 0.013606 -0.001757 0.000000 0.000000 0.000000
# 3 -0.004764 -0.001757 0.020175 0.000000 0.000000 0.000000
# 4 0.000000 0.000000 0.000000 0.070198 0.000000 0.000000
# 5 0.000000 0.000000 0.000000 0.000000 0.035042 0.000000
# 6 0.000000 0.000000 0.000000 0.000000 0.000000 0.032745
#
#
# Mechanical properties :
#
#
# Convention : Reuss Voigt Hill
#
# Bulk Modulus (GPa) = 43.89604 52.24014 48.06809
# Shear Modulus (GPa) = 23.63003 26.64041 25.13522
#
# Velocity S-wave (km/s) = 3.61588 3.83930 3.72927
# Velocity P-wave (km/s) = 6.45915 6.96838 6.71859
#
# Compressibility (1/GPa) = 0.02278110
#
# Stress axis : x y z
#
# Youngs Moduli (GPa) = 94.17915 73.49744 49.56732
#
# Poissons Ratio (x) = 0.31510 0.23615
# Poissons Ratio (y) = 0.40377 0.08710
# Poissons Ratio (z) = 0.44869 0.12916
#
# Static dielectric constant tensor:
#      x y z
#    x 1.624490 0.000000 0.000000 
#    y 0.000000 1.659740 0.000000 
#    z 0.000000 0.000000 1.630350 
# 
# From -- ./inp_files/22953.got.cif
#   From: 2010.05.17/outbox.cif.g08.bks.cpg/sg22_12_cif.got.tgz:22953.got - 2010.06.03 23:40:54.
