data_PCOD9326942
_publ_section_title
;
Structure prediction by ZEFSAII (Michael W. Deem and Ramdas Pophale) SiO2 
 PCOD9326942
Probable space group: F 2 2 2
;
_chemical_formula_sum "Si O2"
_cell_formula_units_Z 120
_cell_length_a 8.931691
_cell_length_b 26.434183
_cell_length_c 25.489608
_cell_angle_alpha 90.000000
_cell_angle_beta 90.000000
_cell_angle_gamma 90.000000
_cell_volume 6018.146266
_symmetry_space_group_name_H-M "F 2 2 2"
_symmetry_group_IT_number 22
_symmetry_cell_setting 'orthorhombic'
loop_
_space_group_symop_operation_xyz
x,y,z
-x,-y,z
x,-y,-z
-x,y,-z
x,1/2+y,1/2+z
-x,1/2-y,1/2+z
x,1/2-y,1/2-z
-x,1/2+y,1/2-z
1/2+x,y,1/2+z
1/2-x,-y,1/2+z
1/2+x,-y,1/2-z
1/2-x,y,1/2-z
1/2+x,1/2+y,z
1/2-x,1/2-y,z
1/2+x,1/2-y,-z
1/2-x,1/2+y,-z
loop_
_atom_site_type_symbol
_atom_site_label
_atom_site_fract_x
_atom_site_fract_y
_atom_site_fract_z
Si Si1 0.594950 0.125424 0.954530
Si Si2 0.520769 0.641663 0.771924
Si Si3 0.750000 0.567637 0.250000
Si Si4 0.069208 0.052698 0.356312
Si Si5 0.864582 0.706237 0.906728
Si Si6 0.908744 0.775404 0.150962
Si Si7 0.350484 0.301194 0.035202
Si Si8 0.191661 0.872258 0.326677
O O1 0.625592 0.089631 0.903916
O O2 0.486587 0.173735 0.939644
O O3 0.745241 0.151065 0.977297
O O4 0.500000 0.097962 0.000000
O O5 0.385172 0.603784 0.766069
O O6 0.465414 0.689837 0.803053
O O7 0.651568 0.612511 0.802649
O O8 0.598577 0.657755 0.717782
O O9 0.818708 0.544322 0.194480
O O10 0.921444 0.082880 0.337828
O O11 0.000000 0.000000 0.375788
O O12 0.750000 0.750000 0.926855
O O13 0.775399 0.662874 0.876310
O O14 0.968303 0.734711 0.865045
O O15 0.750000 0.750000 0.163408
O O16 0.889270 0.806418 0.096677
O O17 0.250000 0.250000 0.033379
O O18 0.500000 0.297237 0.000000
#
# Coordination Sequence:
#
# PCOD9326942 Si02
#       8
#    16  16   8  16  16  16  16  16
#     4  11  24  40  62  92 130 169 218 267 322 385
#     4  10  20  37  54  84 122 163 200 255 307 390
#     4  10  22  38  67  90 124 152 205 258 332 390
#     4  10  23  44  69  96 123 159 209 273 335 401
#     4  11  21  37  55  83 122 166 216 259 302 368
#     4  11  22  34  52  80 121 165 211 255 304 364
#     4  11  23  36  57  86 124 169 215 260 309 371
#     4   9  21  38  56  83 120 159 208 255 318 379
#
# _framework density 19.939693999999999
#
# number of rings (size 3 to 8) (size 9 to 14) (size 15 to 20)
#    0.000    1.600    4.000    1.200    5.600    2.933 
#    0.000    0.000    0.000    0.000    0.000    0.933 
#    0.000    0.000    0.000    0.000    0.000    0.000 
#
# Total GULP energy -167124.135329 kJ/mol
# GULP energy per Si atom -5570.804511 kJ/mol
# Density = 1.989431 g / cm^3
# Si number density = 19.939694 Si / 1000 Ang^3
#
#
#
# Elastic Constant Matrix: (Units=GPa)
#
#
# Indices 1 2 3 4 5 6 
#
# 1 105.4835 18.2489 26.9710 0.0000 0.0000 0.0000
# 2 18.2489 49.3878 32.9146 0.0000 0.0000 0.0000
# 3 26.9710 32.9146 66.5483 0.0000 0.0000 0.0000
# 4 0.0000 0.0000 0.0000 8.1909 0.0000 0.0000
# 5 0.0000 0.0000 0.0000 0.0000 32.7983 0.0000
# 6 0.0000 0.0000 0.0000 0.0000 0.0000 4.0963
#
#
#
# Elastic Compliance Matrix: (Units=1/GPa)
#
#
# Indices 1 2 3 4 5 6 
#
# 1 0.010658 -0.001580 -0.003538 0.000000 0.000000 0.000000
# 2 -0.001580 0.030438 -0.014414 0.000000 0.000000 0.000000
# 3 -0.003538 -0.014414 0.023590 0.000000 0.000000 0.000000
# 4 0.000000 0.000000 0.000000 0.122086 0.000000 0.000000
# 5 0.000000 0.000000 0.000000 0.000000 0.030489 0.000000
# 6 0.000000 0.000000 0.000000 0.000000 0.000000 0.244121
#
#
# Mechanical properties :
#
#
# Convention : Reuss Voigt Hill
#
# Bulk Modulus (GPa) = 39.03018 41.96542 40.49780
# Shear Modulus (GPa) = 9.82341 18.56944 14.19643
#
# Velocity S-wave (km/s) = 2.22199 3.05500 2.67117
# Velocity P-wave (km/s) = 5.11856 5.79102 5.46514
#
# Compressibility (1/GPa) = 0.02562120
#
# Stress axis : x y z
#
# Youngs Moduli (GPa) = 93.82460 32.85342 42.39118
#
# Poissons Ratio (x) = 0.05192 0.14998
# Poissons Ratio (y) = 0.14828 0.61104
# Poissons Ratio (z) = 0.33195 0.47356
#
# Static dielectric constant tensor:
#      x y z
#    x 1.719480 0.000000 0.000000 
#    y 0.000000 1.685780 0.000000 
#    z 0.000000 0.000000 1.805790 
# 
# From -- ./inp_files/52188.got.cif
#   From: 2010.05.17/outbox.cif.g08.bks.cpg/sg22_27_cif.got.tgz:52188.got - 2010.06.03 23:40:54.
