data_PCOD9326231
_publ_section_title
;
Structure prediction by ZEFSAII (Michael W. Deem and Ramdas Pophale) SiO2 
 PCOD9326231
Probable space group: F 2 2 2
;
_chemical_formula_sum "Si O2"
_cell_formula_units_Z 104
_cell_length_a 18.888020
_cell_length_b 24.584573
_cell_length_c 11.447230
_cell_angle_alpha 90.000000
_cell_angle_beta 90.000000
_cell_angle_gamma 90.000000
_cell_volume 5315.565969
_symmetry_space_group_name_H-M "F 2 2 2"
_symmetry_group_IT_number 22
_symmetry_cell_setting 'orthorhombic'
loop_
_space_group_symop_operation_xyz
x,y,z
-x,-y,z
x,-y,-z
-x,y,-z
x,1/2+y,1/2+z
-x,1/2-y,1/2+z
x,1/2-y,1/2-z
-x,1/2+y,1/2-z
1/2+x,y,1/2+z
1/2-x,-y,1/2+z
1/2+x,-y,1/2-z
1/2-x,y,1/2-z
1/2+x,1/2+y,z
1/2-x,1/2-y,z
1/2+x,1/2-y,-z
1/2-x,1/2+y,-z
loop_
_atom_site_type_symbol
_atom_site_label
_atom_site_fract_x
_atom_site_fract_y
_atom_site_fract_z
Si Si1 0.000000 0.678618 0.000000
Si Si2 0.388696 0.525576 0.661762
Si Si3 0.022677 0.634165 0.616229
Si Si4 0.040325 0.586348 0.166650
Si Si5 0.141514 0.054368 0.071975
Si Si6 0.386394 0.196998 0.184562
Si Si7 0.277633 0.892127 0.883252
O O1 0.052217 0.709018 0.910767
O O2 0.954309 0.637357 0.919089
O O3 0.462727 0.558355 0.647164
O O4 0.405518 0.462447 0.644583
O O5 0.362921 0.534423 0.794012
O O6 0.328588 0.556770 0.590767
O O7 0.068291 0.585866 0.558972
O O8 0.074819 0.663119 0.710778
O O9 0.000000 0.666948 0.500000
O O10 0.962455 0.609193 0.701022
O O11 0.205329 0.096707 0.047866
O O12 0.149014 0.000000 0.000000
O O13 0.357715 0.250000 0.250000
O O14 0.326856 0.161284 0.119256
O O15 0.250000 0.893063 0.750000
#
# Coordination Sequence:
#
# PCOD9326231 Si02
#       7
#     8  16  16  16  16  16  16
#     4  10  20  37  52  82 114 136 193 234 288 350
#     4   9  16  29  48  74 111 148 177 214 269 338
#     4  10  19  35  54  81 114 146 192 237 275 346
#     4   9  17  30  50  77 111 147 177 223 277 342
#     4  10  19  31  51  81 116 153 181 224 277 334
#     4  11  23  39  58  79 109 150 189 251 293 326
#     4  10  18  37  50  75 117 140 188 233 272 341
#
# _framework density 19.565179000000001
#
# number of rings (size 3 to 8) (size 9 to 14) (size 15 to 20)
#    0.000    2.154    6.154    0.923    1.077    4.308 
#    0.000    0.000    0.000    0.000    0.000    0.000 
#    0.000    1.231    0.000    0.000    0.000    0.000 
#
# Total GULP energy -144778.839753 kJ/mol
# GULP energy per Si atom -5568.416914 kJ/mol
# Density = 1.952065 g / cm^3
# Si number density = 19.565179 Si / 1000 Ang^3
#
#
#
# Elastic Constant Matrix: (Units=GPa)
#
#
# Indices 1 2 3 4 5 6 
#
# 1 70.5767 27.6654 23.4331 0.0000 0.0000 0.0000
# 2 27.6654 70.7004 13.5750 0.0000 0.0000 0.0000
# 3 23.4331 13.5750 79.2340 0.0000 0.0000 0.0000
# 4 0.0000 0.0000 0.0000 21.8164 0.0000 0.0000
# 5 0.0000 0.0000 0.0000 0.0000 21.0031 0.0000
# 6 0.0000 0.0000 0.0000 0.0000 0.0000 14.0619
#
#
#
# Elastic Compliance Matrix: (Units=1/GPa)
#
#
# Indices 1 2 3 4 5 6 
#
# 1 0.018029 -0.006236 -0.004264 0.000000 0.000000 0.000000
# 2 -0.006236 0.016782 -0.001031 0.000000 0.000000 0.000000
# 3 -0.004264 -0.001031 0.014058 0.000000 0.000000 0.000000
# 4 0.000000 0.000000 0.000000 0.045837 0.000000 0.000000
# 5 0.000000 0.000000 0.000000 0.000000 0.047612 0.000000
# 6 0.000000 0.000000 0.000000 0.000000 0.000000 0.071114
#
#
# Mechanical properties :
#
#
# Convention : Reuss Voigt Hill
#
# Bulk Modulus (GPa) = 38.74712 38.87313 38.81012
# Shear Modulus (GPa) = 20.40003 21.76545 21.08274
#
# Velocity S-wave (km/s) = 3.23254 3.33897 3.28619
# Velocity P-wave (km/s) = 5.81202 5.89717 5.85475
#
# Compressibility (1/GPa) = 0.02580837
#
# Stress axis : x y z
#
# Youngs Moduli (GPa) = 55.46571 59.58618 71.13175
#
# Poissons Ratio (x) = 0.37159 0.30328
# Poissons Ratio (y) = 0.34590 0.07333
# Poissons Ratio (z) = 0.23648 0.06143
#
# Static dielectric constant tensor:
#      x y z
#    x 1.740250 0.000000 0.000000 
#    y 0.000000 1.722790 0.000000 
#    z 0.000000 0.000000 1.773120 
# 
# From -- ./inp_files/21778.got.cif
#   From: 2010.05.17/outbox.cif.g08.bks.cpg/sg22_11_cif.got.tgz:21778.got - 2010.06.03 23:40:54.
