data_PCOD9326283
_publ_section_title
;
Structure prediction by ZEFSAII (Michael W. Deem and Ramdas Pophale) SiO2 
 PCOD9326283
Probable space group: F 2 2 2
;
_chemical_formula_sum "Si O2"
_cell_formula_units_Z 128
_cell_length_a 12.325511
_cell_length_b 27.004829
_cell_length_c 23.059650
_cell_angle_alpha 90.000000
_cell_angle_beta 90.000000
_cell_angle_gamma 90.000000
_cell_volume 7675.365691
_symmetry_space_group_name_H-M "F 2 2 2"
_symmetry_group_IT_number 22
_symmetry_cell_setting 'orthorhombic'
loop_
_space_group_symop_operation_xyz
x,y,z
-x,-y,z
x,-y,-z
-x,y,-z
x,1/2+y,1/2+z
-x,1/2-y,1/2+z
x,1/2-y,1/2-z
-x,1/2+y,1/2-z
1/2+x,y,1/2+z
1/2-x,-y,1/2+z
1/2+x,-y,1/2-z
1/2-x,y,1/2-z
1/2+x,1/2+y,z
1/2-x,1/2-y,z
1/2+x,1/2-y,-z
1/2-x,1/2+y,-z
loop_
_atom_site_type_symbol
_atom_site_label
_atom_site_fract_x
_atom_site_fract_y
_atom_site_fract_z
Si Si1 0.303155 0.381678 0.549933
Si Si2 0.185488 0.331927 0.333599
Si Si3 0.704042 0.592771 0.413247
Si Si4 0.659849 0.209044 0.445628
Si Si5 0.486802 0.661843 0.607000
Si Si6 0.084114 0.694489 0.775248
Si Si7 0.375279 0.509528 0.430538
Si Si8 0.416154 0.235793 0.426730
O O1 0.291172 0.392141 0.481121
O O2 0.203378 0.346053 0.566677
O O3 0.407860 0.349619 0.569123
O O4 0.327188 0.435560 0.577955
O O5 0.208449 0.378956 0.374225
O O6 0.098398 0.339064 0.282207
O O7 0.299526 0.314248 0.306272
O O8 0.146251 0.287763 0.373948
O O9 0.587489 0.613425 0.392593
O O10 0.701074 0.533926 0.406683
O O11 0.750000 0.250000 0.428677
O O12 0.541791 0.219997 0.419939
O O13 0.636726 0.216353 0.514307
O O14 0.499939 0.680312 0.673679
O O15 0.418864 0.705028 0.575113
O O16 0.071616 0.750000 0.750000
O O17 0.500000 0.500000 0.410795
O O18 0.378714 0.500000 0.500000
#
# Coordination Sequence:
#
# PCOD9326283 Si02
#       8
#    16  16  16  16  16  16  16  16
#     4  11  19  33  50  75 112 139 177 209 265 331
#     4  10  19  32  49  73 105 136 172 222 263 309
#     4  10  19  29  50  78 105 138 173 212 279 319
#     4  11  22  32  45  75 107 143 175 202 251 324
#     4  11  20  28  49  75 109 141 166 219 264 317
#     4  10  20  30  47  76 108 136 178 215 267 309
#     4   9  17  30  48  74 106 136 171 217 262 318
#     4  11  22  31  47  72 109 142 170 208 256 313
#
# _framework density 16.676731
#
# number of rings (size 3 to 8) (size 9 to 14) (size 15 to 20)
#    0.000    1.625    5.000    1.875    5.250    0.000 
#    0.000    0.000    0.000    1.500    0.000   12.250 
#    0.000    0.000    0.000    0.000    0.000    0.000 
#
# Total GULP energy -178261.142008 kJ/mol
# GULP energy per Si atom -5570.660688 kJ/mol
# Density = 1.663877 g / cm^3
# Si number density = 16.676731 Si / 1000 Ang^3
#
#
#
# Elastic Constant Matrix: (Units=GPa)
#
#
# Indices 1 2 3 4 5 6 
#
# 1 41.7851 25.9759 7.7993 0.0000 0.0000 0.0000
# 2 25.9759 123.0029 20.0285 0.0000 0.0000 0.0000
# 3 7.7993 20.0285 57.6411 0.0000 0.0000 0.0000
# 4 0.0000 0.0000 0.0000 17.1382 0.0000 0.0000
# 5 0.0000 0.0000 0.0000 0.0000 6.4363 0.0000
# 6 0.0000 0.0000 0.0000 0.0000 0.0000 22.3350
#
#
#
# Elastic Compliance Matrix: (Units=1/GPa)
#
#
# Indices 1 2 3 4 5 6 
#
# 1 0.027728 -0.005559 -0.001820 0.000000 0.000000 0.000000
# 2 -0.005559 0.009732 -0.002629 0.000000 0.000000 0.000000
# 3 -0.001820 -0.002629 0.018509 0.000000 0.000000 0.000000
# 4 0.000000 0.000000 0.000000 0.058349 0.000000 0.000000
# 5 0.000000 0.000000 0.000000 0.000000 0.155368 0.000000
# 6 0.000000 0.000000 0.000000 0.000000 0.000000 0.044773
#
#
# Mechanical properties :
#
#
# Convention : Reuss Voigt Hill
#
# Bulk Modulus (GPa) = 27.81571 36.67072 32.24321
# Shear Modulus (GPa) = 14.43173 20.42362 17.42768
#
# Velocity S-wave (km/s) = 2.94493 3.50334 3.23620
# Velocity P-wave (km/s) = 5.31780 6.19688 5.77410
#
# Compressibility (1/GPa) = 0.03595091
#
# Stress axis : x y z
#
# Youngs Moduli (GPa) = 36.06520 102.75358 54.02886
#
# Poissons Ratio (x) = 0.57122 0.09834
# Poissons Ratio (y) = 0.20049 0.14206
# Poissons Ratio (z) = 0.06564 0.27018
#
# Static dielectric constant tensor:
#      x y z
#    x 1.577890 0.000000 0.000000 
#    y 0.000000 1.582180 0.000000 
#    z 0.000000 0.000000 1.600680 
# 
# From -- ./inp_files/48447.got.cif
#   From: 2010.05.17/outbox.cif.g08.bks.cpg/sg22_25_cif.got.tgz:48447.got - 2010.06.03 23:40:54.
