data_PCOD9326922
_publ_section_title
;
Structure prediction by ZEFSAII (Michael W. Deem and Ramdas Pophale) SiO2 
 PCOD9326922
Probable space group: F 2 2 2
;
_chemical_formula_sum "Si O2"
_cell_formula_units_Z 64
_cell_length_a 16.975368
_cell_length_b 30.798823
_cell_length_c 5.582872
_cell_angle_alpha 90.000000
_cell_angle_beta 90.000000
_cell_angle_gamma 90.000000
_cell_volume 2918.844700
_symmetry_space_group_name_H-M "F 2 2 2"
_symmetry_group_IT_number 22
_symmetry_cell_setting 'orthorhombic'
loop_
_space_group_symop_operation_xyz
x,y,z
-x,-y,z
x,-y,-z
-x,y,-z
x,1/2+y,1/2+z
-x,1/2-y,1/2+z
x,1/2-y,1/2-z
-x,1/2+y,1/2-z
1/2+x,y,1/2+z
1/2-x,-y,1/2+z
1/2+x,-y,1/2-z
1/2-x,y,1/2-z
1/2+x,1/2+y,z
1/2-x,1/2-y,z
1/2+x,1/2-y,-z
1/2-x,1/2+y,-z
loop_
_atom_site_type_symbol
_atom_site_label
_atom_site_fract_x
_atom_site_fract_y
_atom_site_fract_z
Si Si1 0.547291 0.563629 0.250345
Si Si2 0.330740 0.367839 0.401210
Si Si3 0.750000 0.571274 0.750000
Si Si4 0.158467 0.767248 0.500321
Si Si5 0.150821 0.500000 0.500000
O O1 0.500000 0.562274 0.500000
O O2 0.601314 0.606865 0.261040
O O3 0.598390 0.519572 0.214083
O O4 0.500000 0.565638 0.000000
O O5 0.250000 0.366644 0.250000
O O6 0.313503 0.398329 0.626628
O O7 0.346037 0.319073 0.485360
O O8 0.794204 0.539777 0.569775
O O9 0.124191 0.750000 0.250000
O O10 0.250000 0.750000 0.500377
O O11 0.123344 0.750000 0.750000
#
# Coordination Sequence:
#
# PCOD9326922 Si02
#       5
#    16  16   8  16   8
#     4  12  29  49  68 100 145 198 240 288 356 428
#     4  12  24  44  72 105 140 182 234 301 352 417
#     4  12  24  42  69 110 138 174 245 318 360 388
#     4  10  20  36  65 107 135 166 214 286 343 416
#     4  12  25  44  72  98 143 188 250 298 357 412
#
# _framework density 21.926485
#
# number of rings (size 3 to 8) (size 9 to 14) (size 15 to 20)
#    0.000    0.500    5.000    4.875    0.000    6.000 
#    0.000    0.000    0.000    3.000    0.000    0.000 
#    0.000    0.000    0.000    0.000    0.000    0.000 
#
# Total GULP energy -89486.904157 kJ/mol
# GULP energy per Si atom -5592.931510 kJ/mol
# Density = 2.187658 g / cm^3
# Si number density = 21.926485 Si / 1000 Ang^3
#
#
#
# Elastic Constant Matrix: (Units=GPa)
#
#
# Indices 1 2 3 4 5 6 
#
# 1 47.4220 33.5108 34.2775 -0.0006 -0.0059 -0.0035
# 2 33.5108 204.5599 64.6250 -0.0001 -0.0003 -0.0001
# 3 34.2775 64.6250 161.5365 -0.0021 -0.0038 -0.0243
# 4 -0.0006 -0.0001 -0.0021 76.2598 0.0005 -0.0020
# 5 -0.0059 -0.0003 -0.0038 0.0005 23.9591 -0.0009
# 6 -0.0035 -0.0001 -0.0243 -0.0020 -0.0009 -56.5158
#
#
#
# Elastic Compliance Matrix: (Units=1/GPa)
#
#
# Indices 1 2 3 4 5 6 
#
# 1 0.026347 -0.002919 -0.004423 0.000000 0.000006 0.000000
# 2 -0.002919 0.005919 -0.001749 0.000000 -0.000001 0.000001
# 3 -0.004423 -0.001749 0.007829 0.000000 0.000000 -0.000003
# 4 0.000000 0.000000 0.000000 0.013113 0.000000 0.000000
# 5 0.000006 -0.000001 0.000000 0.000000 0.041738 -0.000001
# 6 0.000000 0.000001 -0.000003 0.000000 -0.000001 -0.017694
#
#
# Mechanical properties :
#
#
# Convention : Reuss Voigt Hill
#
# Bulk Modulus (GPa) = 45.63351 75.37167 60.50259
# Shear Modulus (GPa) = 48.66803 27.48097 38.07450
#
# Velocity S-wave (km/s) = 4.71637 3.54407 4.17161
# Velocity P-wave (km/s) = 7.10747 7.15518 7.13137
#
# Compressibility (1/GPa) = 0.02191372
#
# Stress axis : x y z
#
# Youngs Moduli (GPa) = 37.95520 168.94337 127.73537
#
# Poissons Ratio (x) = 0.49311 0.56498
# Poissons Ratio (y) = 0.11078 0.22337
# Poissons Ratio (z) = 0.16788 0.29543
#
# Static dielectric constant tensor:
#      x y z
#    x 1.832980 0.000000 0.000000 
#    y 0.000000 1.744920 0.000000 
#    z 0.000000 0.000000 1.867970 
# 
# From -- ./inp_files/2905.got.cif
#   From: 2010.05.17/outbox.cif.g08.bks.cpg/sg22_2_cif.got.tgz:2905.got - 2010.06.03 23:40:54.
