data_PCOD9326034
_publ_section_title
;
Structure prediction by ZEFSAII (Michael W. Deem and Ramdas Pophale) SiO2 
 PCOD9326034
Probable space group: F 2 2 2
;
_chemical_formula_sum "Si O2"
_cell_formula_units_Z 112
_cell_length_a 14.393270
_cell_length_b 25.205501
_cell_length_c 15.161978
_cell_angle_alpha 90.000000
_cell_angle_beta 90.000000
_cell_angle_gamma 90.000000
_cell_volume 5500.607651
_symmetry_space_group_name_H-M "F 2 2 2"
_symmetry_group_IT_number 22
_symmetry_cell_setting 'orthorhombic'
loop_
_space_group_symop_operation_xyz
x,y,z
-x,-y,z
x,-y,-z
-x,y,-z
x,1/2+y,1/2+z
-x,1/2-y,1/2+z
x,1/2-y,1/2-z
-x,1/2+y,1/2-z
1/2+x,y,1/2+z
1/2-x,-y,1/2+z
1/2+x,-y,1/2-z
1/2-x,y,1/2-z
1/2+x,1/2+y,z
1/2-x,1/2-y,z
1/2+x,1/2-y,-z
1/2-x,1/2+y,-z
loop_
_atom_site_type_symbol
_atom_site_label
_atom_site_fract_x
_atom_site_fract_y
_atom_site_fract_z
Si Si1 0.669276 0.639170 0.096121
Si Si2 0.138993 0.860769 0.099924
Si Si3 0.989216 0.809496 0.217709
Si Si4 0.021964 0.441922 0.381223
Si Si5 0.705757 0.057040 0.113659
Si Si6 0.812232 0.938472 0.402222
Si Si7 0.002255 0.086395 0.679957
O O1 0.600130 0.673341 0.157276
O O2 0.619854 0.581423 0.091882
O O3 0.767885 0.617666 0.130990
O O4 0.671189 0.660682 0.995785
O O5 0.085311 0.819029 0.162304
O O6 0.219144 0.898219 0.141271
O O7 0.055643 0.902141 0.084018
O O8 0.980659 0.750000 0.250000
O O9 0.993875 0.851022 0.298484
O O10 0.015845 0.439018 0.275619
O O11 0.000000 0.500000 0.409654
O O12 0.604595 0.072260 0.148525
O O13 0.723347 0.994997 0.136809
O O14 0.703777 0.059948 0.007197
O O15 0.921857 0.934480 0.383307
#
# Coordination Sequence:
#
# PCOD9326034 Si02
#       7
#    16  16  16  16  16  16  16
#     4   9  19  35  55  80 107 138 181 226 269 327
#     4   9  19  35  55  80 107 138 181 226 269 327
#     4  10  22  40  59  78 104 142 183 237 297 333
#     4  10  18  27  46  76 109 142 173 217 274 328
#     4  10  19  33  55  82 116 154 184 218 270 334
#     4  10  19  33  55  82 116 154 184 218 270 334
#     4  10  21  35  50  78 115 150 192 232 271 328
#
# _framework density 20.361387000000001
#
# number of rings (size 3 to 8) (size 9 to 14) (size 15 to 20)
#    0.000    2.571    0.000    4.286    0.000    8.000 
#    0.000   12.857    0.000    3.429    0.000    0.000 
#    0.000    0.000    0.000    0.000    0.000    0.000 
#
# Total GULP energy -156056.401925 kJ/mol
# GULP energy per Si atom -5573.442926 kJ/mol
# Density = 2.031504 g / cm^3
# Si number density = 20.361387 Si / 1000 Ang^3
#
#
#
# Elastic Constant Matrix: (Units=GPa)
#
#
# Indices 1 2 3 4 5 6 
#
# 1 89.9966 4.1112 21.9321 0.0000 0.0000 0.0000
# 2 4.1112 114.7841 27.5360 0.0000 0.0000 0.0000
# 3 21.9321 27.5360 52.4448 0.0000 0.0000 0.0000
# 4 0.0000 0.0000 0.0000 12.8008 0.0000 0.0000
# 5 0.0000 0.0000 0.0000 0.0000 8.2044 0.0000
# 6 0.0000 0.0000 0.0000 0.0000 0.0000 12.0285
#
#
#
# Elastic Compliance Matrix: (Units=1/GPa)
#
#
# Indices 1 2 3 4 5 6 
#
# 1 0.012457 0.000919 -0.005692 0.000000 0.000000 0.000000
# 2 0.000919 0.010035 -0.005653 0.000000 0.000000 0.000000
# 3 -0.005692 -0.005653 0.024416 0.000000 0.000000 0.000000
# 4 0.000000 0.000000 0.000000 0.078120 0.000000 0.000000
# 5 0.000000 0.000000 0.000000 0.000000 0.121886 0.000000
# 6 0.000000 0.000000 0.000000 0.000000 0.000000 0.083136
#
#
# Mechanical properties :
#
#
# Convention : Reuss Voigt Hill
#
# Bulk Modulus (GPa) = 38.37880 40.48714 39.43297
# Shear Modulus (GPa) = 13.90481 20.18316 17.04399
#
# Velocity S-wave (km/s) = 2.61607 3.15182 2.89636
# Velocity P-wave (km/s) = 5.29291 5.75958 5.53117
#
# Compressibility (1/GPa) = 0.02605605
#
# Stress axis : x y z
#
# Youngs Moduli (GPa) = 80.27832 99.64819 40.95618
#
# Poissons Ratio (x) = -0.09161 0.23312
# Poissons Ratio (y) = -0.07380 0.23154
# Poissons Ratio (z) = 0.45694 0.56336
#
# Static dielectric constant tensor:
#      x y z
#    x 1.792910 0.000000 0.000000 
#    y 0.000000 1.767290 0.000000 
#    z 0.000000 0.000000 1.775980 
# 
# From -- ./inp_files/29738.got.cif
#   From: 2010.05.17/outbox.cif.g08.bks.cpg/sg22_15_cif.got.tgz:29738.got - 2010.06.03 23:40:54.
