data_PCOD9326758
_publ_section_title
;
Structure prediction by ZEFSAII (Michael W. Deem and Ramdas Pophale) SiO2 
 PCOD9326758
Probable space group: F 2 2 2
;
_chemical_formula_sum "Si O2"
_cell_formula_units_Z 120
_cell_length_a 12.275893
_cell_length_b 25.089861
_cell_length_c 21.415045
_cell_angle_alpha 90.000000
_cell_angle_beta 90.000000
_cell_angle_gamma 90.000000
_cell_volume 6595.843476
_symmetry_space_group_name_H-M "F 2 2 2"
_symmetry_group_IT_number 22
_symmetry_cell_setting 'orthorhombic'
loop_
_space_group_symop_operation_xyz
x,y,z
-x,-y,z
x,-y,-z
-x,y,-z
x,1/2+y,1/2+z
-x,1/2-y,1/2+z
x,1/2-y,1/2-z
-x,1/2+y,1/2-z
1/2+x,y,1/2+z
1/2-x,-y,1/2+z
1/2+x,-y,1/2-z
1/2-x,y,1/2-z
1/2+x,1/2+y,z
1/2-x,1/2-y,z
1/2+x,1/2-y,-z
1/2-x,1/2+y,-z
loop_
_atom_site_type_symbol
_atom_site_label
_atom_site_fract_x
_atom_site_fract_y
_atom_site_fract_z
Si Si1 0.273895 0.190766 0.112257
Si Si2 0.500000 0.866108 0.500000
Si Si3 0.524890 0.359895 0.667461
Si Si4 0.582345 0.785417 0.606265
Si Si5 0.261298 0.897465 0.508642
Si Si6 0.439718 0.943745 0.939442
Si Si7 0.408201 0.804113 0.712806
Si Si8 0.179903 0.673389 0.103283
O O1 0.250000 0.250000 0.090651
O O2 0.397898 0.182874 0.132247
O O3 0.249131 0.150430 0.057868
O O4 0.195070 0.180013 0.170904
O O5 0.524837 0.825050 0.556886
O O6 0.391360 0.902522 0.502879
O O7 0.549998 0.412197 0.625763
O O8 0.558157 0.350811 0.739112
O O9 0.398544 0.347871 0.657249
O O10 0.506651 0.787882 0.666985
O O11 0.701026 0.808170 0.623737
O O12 0.613895 0.726436 0.579791
O O13 0.186239 0.943689 0.538221
O O14 0.205689 0.873113 0.446514
O O15 0.500000 0.000000 0.932652
O O16 0.500000 0.917026 0.000000
O O17 0.380795 0.750000 0.750000
#
# Coordination Sequence:
#
# PCOD9326758 Si02
#       8
#    16   8  16  16  16  16  16  16
#     4  11  21  31  49  81 120 167 201 234 280 346
#     4  10  20  34  52  81 118 158 195 232 300 366
#     4  11  22  34  55  81 116 150 199 248 288 355
#     4  10  21  33  50  76 121 169 201 233 274 351
#     4  10  21  34  57  85 119 157 196 253 308 355
#     4  10  21  40  64  89 108 138 193 265 321 358
#     4  12  21  35  50  80 121 170 205 237 280 357
#     4  10  20  34  48  82 116 156 205 241 283 345
#
# _framework density 18.193276000000001
#
# number of rings (size 3 to 8) (size 9 to 14) (size 15 to 20)
#    0.000    1.467    5.333    0.400    3.733    1.600 
#    0.000    0.000    0.000    1.600   13.867    0.000 
#    0.000    0.000    0.000    0.000    0.000    0.000 
#
# Total GULP energy -167087.933295 kJ/mol
# GULP energy per Si atom -5569.597777 kJ/mol
# Density = 1.815187 g / cm^3
# Si number density = 18.193276 Si / 1000 Ang^3
#
#
#
# Elastic Constant Matrix: (Units=GPa)
#
#
# Indices 1 2 3 4 5 6 
#
# 1 122.0913 22.2629 16.6168 0.0000 0.0000 0.0000
# 2 22.2629 60.1054 9.1536 0.0000 0.0000 0.0000
# 3 16.6168 9.1536 57.2186 0.0000 0.0000 0.0000
# 4 0.0000 0.0000 0.0000 23.5326 0.0000 0.0000
# 5 0.0000 0.0000 0.0000 0.0000 26.6658 0.0000
# 6 0.0000 0.0000 0.0000 0.0000 0.0000 25.0379
#
#
#
# Elastic Compliance Matrix: (Units=1/GPa)
#
#
# Indices 1 2 3 4 5 6 
#
# 1 0.009032 -0.003020 -0.002140 0.000000 0.000000 0.000000
# 2 -0.003020 0.018062 -0.002013 0.000000 0.000000 0.000000
# 3 -0.002140 -0.002013 0.018420 0.000000 0.000000 0.000000
# 4 0.000000 0.000000 0.000000 0.042494 0.000000 0.000000
# 5 0.000000 0.000000 0.000000 0.000000 0.037501 0.000000
# 6 0.000000 0.000000 0.000000 0.000000 0.000000 0.039939
#
#
# Mechanical properties :
#
#
# Convention : Reuss Voigt Hill
#
# Bulk Modulus (GPa) = 32.08158 37.27577 34.67868
# Shear Modulus (GPa) = 26.29020 27.80607 27.04814
#
# Velocity S-wave (km/s) = 3.80551 3.91368 3.85997
# Velocity P-wave (km/s) = 6.08122 6.39967 6.24247
#
# Compressibility (1/GPa) = 0.03117053
#
# Stress axis : x y z
#
# Youngs Moduli (GPa) = 110.71154 55.36355 54.28798
#
# Poissons Ratio (x) = 0.16718 0.11618
# Poissons Ratio (y) = 0.33432 0.10926
# Poissons Ratio (z) = 0.23693 0.11142
#
# Static dielectric constant tensor:
#      x y z
#    x 1.669700 0.000000 0.000000 
#    y 0.000000 1.645940 0.000000 
#    z 0.000000 0.000000 1.649310 
# 
# From -- ./inp_files/43045.got.cif
#   From: 2010.05.17/outbox.cif.g08.bks.cpg/sg22_22_cif.got.tgz:43045.got - 2010.06.03 23:40:54.
