data_PCOD9326797
_publ_section_title
;
Structure prediction by ZEFSAII (Michael W. Deem and Ramdas Pophale) SiO2 
 PCOD9326797
Probable space group: F 2 2 2
;
_chemical_formula_sum "Si O2"
_cell_formula_units_Z 80
_cell_length_a 16.009943
_cell_length_b 7.468844
_cell_length_c 30.239089
_cell_angle_alpha 90.000000
_cell_angle_beta 90.000000
_cell_angle_gamma 90.000000
_cell_volume 3615.862252
_symmetry_space_group_name_H-M "F 2 2 2"
_symmetry_group_IT_number 22
_symmetry_cell_setting 'orthorhombic'
loop_
_space_group_symop_operation_xyz
x,y,z
-x,-y,z
x,-y,-z
-x,y,-z
x,1/2+y,1/2+z
-x,1/2-y,1/2+z
x,1/2-y,1/2-z
-x,1/2+y,1/2-z
1/2+x,y,1/2+z
1/2-x,-y,1/2+z
1/2+x,-y,1/2-z
1/2-x,y,1/2-z
1/2+x,1/2+y,z
1/2-x,1/2-y,z
1/2+x,1/2-y,-z
1/2-x,1/2+y,-z
loop_
_atom_site_type_symbol
_atom_site_label
_atom_site_fract_x
_atom_site_fract_y
_atom_site_fract_z
Si Si1 0.750000 0.035359 0.448113
Si Si2 0.151442 0.967433 0.201615
Si Si3 0.348558 0.532567 0.298385
Si Si4 0.907154 0.035887 0.392259
Si Si5 0.407154 0.964113 0.392259
O O1 0.750000 0.250000 0.443001
O O2 0.833049 0.967389 0.423444
O O3 0.666951 0.967389 0.423444
O O4 0.750000 0.000000 0.500000
O O5 0.250000 0.011314 0.197230
O O6 0.146807 0.750000 0.202138
O O7 0.122132 0.030313 0.250000
O O8 0.104544 0.032758 0.157996
O O9 0.395456 0.467242 0.342004
O O10 0.897699 0.250000 0.389952
O O11 0.000000 0.000000 0.408794
O O12 0.500000 0.000000 0.408794
#
# Coordination Sequence:
#
# PCOD9326797 Si02
#       5
#    16  16  16  16  16
#     4  10  22  40  59  77 103 137 176 220 267 316
#     4   8  13  25  49  77 104 138 177 211 247 300
#     4   8  13  25  49  77 104 138 177 211 247 300
#     4  10  20  35  55  81 109 138 174 216 260 311
#     4  10  20  35  55  81 109 138 174 216 260 311
#
# _framework density 22.124737
#
# number of rings (size 3 to 8) (size 9 to 14) (size 15 to 20)
#    0.000    2.800    2.000    1.200    0.000    3.200 
#    0.000    4.000    0.000    0.000    0.000    2.800 
#    0.000    0.000    0.000    0.000    0.000    0.000 
#
# Total GULP energy -111664.545002 kJ/mol
# GULP energy per Si atom -5583.227250 kJ/mol
# Density = 2.207438 g / cm^3
# Si number density = 22.124737 Si / 1000 Ang^3
#
#
#
# Elastic Constant Matrix: (Units=GPa)
#
#
# Indices 1 2 3 4 5 6 
#
# 1 168.6569 1.7912 106.6668 0.0000 0.0000 0.0000
# 2 1.7912 65.0551 6.5529 0.0000 0.0000 0.0000
# 3 106.6668 6.5529 172.2016 0.0000 0.0000 0.0000
# 4 0.0000 0.0000 0.0000 10.3756 0.0000 0.0000
# 5 0.0000 0.0000 0.0000 0.0000 0.9418 0.0000
# 6 0.0000 0.0000 0.0000 0.0000 0.0000 9.7531
#
#
#
# Elastic Compliance Matrix: (Units=1/GPa)
#
#
# Indices 1 2 3 4 5 6 
#
# 1 0.009756 0.000341 -0.006056 0.000000 0.000000 0.000000
# 2 0.000341 0.015443 -0.000799 0.000000 0.000000 0.000000
# 3 -0.006056 -0.000799 0.009589 0.000000 0.000000 0.000000
# 4 0.000000 0.000000 0.000000 0.096380 0.000000 0.000000
# 5 0.000000 0.000000 0.000000 0.000000 1.061844 0.000000
# 6 0.000000 0.000000 0.000000 0.000000 0.000000 0.102531
#
#
# Mechanical properties :
#
#
# Convention : Reuss Voigt Hill
#
# Bulk Modulus (GPa) = 45.95632 70.65950 58.30791
# Shear Modulus (GPa) = 3.79990 23.60761 13.70376
#
# Velocity S-wave (km/s) = 1.31195 3.27008 2.49145
# Velocity P-wave (km/s) = 4.80744 6.80177 5.88963
#
# Compressibility (1/GPa) = 0.02175979
#
# Stress axis : x y z
#
# Youngs Moduli (GPa) = 102.50493 64.75559 104.28858
#
# Poissons Ratio (x) = -0.02211 0.63156
# Poissons Ratio (y) = -0.03499 0.08334
# Poissons Ratio (z) = 0.62076 0.05175
#
# Static dielectric constant tensor:
#      x y z
#    x 1.792950 0.000000 0.000000 
#    y 0.000000 1.886730 0.000000 
#    z 0.000000 0.000000 1.801090 
# 
# From -- ./inp_files/55890.got.cif
#   From: 2010.05.17/outbox.cif.g08.bks.cpg/sg22_28_cif.got.tgz:55890.got - 2010.06.03 23:40:54.
