data_PCOD9326491
_publ_section_title
;
Structure prediction by ZEFSAII (Michael W. Deem and Ramdas Pophale) SiO2 
 PCOD9326491
Probable space group: F 2 2 2
;
_chemical_formula_sum "Si O2"
_cell_formula_units_Z 84
_cell_length_a 6.464460
_cell_length_b 29.254270
_cell_length_c 22.982976
_cell_angle_alpha 90.000000
_cell_angle_beta 90.000000
_cell_angle_gamma 90.000000
_cell_volume 4346.380879
_symmetry_space_group_name_H-M "F 2 2 2"
_symmetry_group_IT_number 22
_symmetry_cell_setting 'orthorhombic'
loop_
_space_group_symop_operation_xyz
x,y,z
-x,-y,z
x,-y,-z
-x,y,-z
x,1/2+y,1/2+z
-x,1/2-y,1/2+z
x,1/2-y,1/2-z
-x,1/2+y,1/2-z
1/2+x,y,1/2+z
1/2-x,-y,1/2+z
1/2+x,-y,1/2-z
1/2-x,y,1/2-z
1/2+x,1/2+y,z
1/2-x,1/2-y,z
1/2+x,1/2-y,-z
1/2-x,1/2+y,-z
loop_
_atom_site_type_symbol
_atom_site_label
_atom_site_fract_x
_atom_site_fract_y
_atom_site_fract_z
Si Si1 0.250000 0.133440 0.250000
Si Si2 0.986912 0.866717 0.357635
Si Si3 0.131984 0.922207 0.195971
Si Si4 0.855845 0.206176 0.448614
Si Si5 0.857998 0.930393 0.090705
Si Si6 0.000000 0.355707 0.500000
Si Si7 0.000000 0.500000 0.500000
O O1 0.349909 0.156283 0.193549
O O2 0.440042 0.103607 0.274155
O O3 0.199518 0.887267 0.331370
O O4 0.030677 0.828492 0.405394
O O5 0.854157 0.910081 0.382362
O O6 0.250000 0.947136 0.250000
O O7 0.018644 0.945409 0.141256
O O8 0.750000 0.250000 0.418859
O O9 0.689650 0.175188 0.481540
O O10 0.000000 0.224781 0.500000
O O11 0.855343 0.969489 0.041910
O O12 0.949642 0.887387 0.055228
#
# Coordination Sequence:
#
# PCOD9326491 Si02
#       7
#     8  16  16  16  16   8   4
#     4   8  18  34  60  91 106 152 218 256 302 382
#     4  10  19  35  62  87 115 162 210 253 316 376
#     4   9  17  33  61  87 114 156 212 256 302 379
#     4  12  23  35  56  91 122 157 204 255 309 378
#     4  10  20  37  60  84 121 162 203 252 312 375
#     4  11  20  35  56  82 118 160 198 241 308 381
#     4  10  24  40  58  92 136 158 204 266 314 378
#
# _framework density 19.326422000000001
#
# number of rings (size 3 to 8) (size 9 to 14) (size 15 to 20)
#    0.000    1.905    4.762    0.000    0.000    0.000 
#    0.000    1.905   12.571    6.286    0.000    0.000 
#    0.000    0.000    0.000    0.000    0.000    0.000 
#
# Total GULP energy -116905.224800 kJ/mol
# GULP energy per Si atom -5566.915467 kJ/mol
# Density = 1.928243 g / cm^3
# Si number density = 19.326422 Si / 1000 Ang^3
#
#
#
# Elastic Constant Matrix: (Units=GPa)
#
#
# Indices 1 2 3 4 5 6 
#
# 1 101.9263 27.8322 51.2838 0.0000 0.0000 0.0000
# 2 27.8322 72.4107 39.7192 0.0000 0.0000 0.0000
# 3 51.2838 39.7192 131.3096 0.0000 0.0000 0.0000
# 4 0.0000 0.0000 0.0000 0.2958 0.0000 0.0000
# 5 0.0000 0.0000 0.0000 0.0000 44.8146 0.0000
# 6 0.0000 0.0000 0.0000 0.0000 0.0000 7.2046
#
#
#
# Elastic Compliance Matrix: (Units=1/GPa)
#
#
# Indices 1 2 3 4 5 6 
#
# 1 0.012597 -0.002570 -0.004143 0.000000 0.000000 0.000000
# 2 -0.002570 0.017081 -0.004163 0.000000 0.000000 0.000000
# 3 -0.004143 -0.004163 0.010493 0.000000 0.000000 0.000000
# 4 0.000000 0.000000 0.000000 3.380401 0.000000 0.000000
# 5 0.000000 0.000000 0.000000 0.000000 0.022314 0.000000
# 6 0.000000 0.000000 0.000000 0.000000 0.000000 0.138801
#
#
# Mechanical properties :
#
#
# Convention : Reuss Voigt Hill
#
# Bulk Modulus (GPa) = 54.28771 60.36856 57.32814
# Shear Modulus (GPa) = 1.38520 22.91709 12.15114
#
# Velocity S-wave (km/s) = 0.84752 3.44727 2.51017
# Velocity P-wave (km/s) = 5.39524 6.86651 6.17485
#
# Compressibility (1/GPa) = 0.01842037
#
# Stress axis : x y z
#
# Youngs Moduli (GPa) = 79.38412 58.54305 95.30296
#
# Poissons Ratio (x) = 0.15043 0.39480
# Poissons Ratio (y) = 0.20398 0.39678
# Poissons Ratio (z) = 0.32886 0.24373
#
# Static dielectric constant tensor:
#      x y z
#    x 1.707310 0.000000 0.000000 
#    y 0.000000 1.634100 0.000000 
#    z 0.000000 0.000000 1.749370 
# 
# From -- ./inp_files/4905.got.cif
#   From: 2010.05.17/outbox.cif.g08.bks.cpg/sg22_3_cif.got.tgz:4905.got - 2010.06.03 23:40:54.
