data_PCOD9326716
_publ_section_title
;
Structure prediction by ZEFSAII (Michael W. Deem and Ramdas Pophale) SiO2 
 PCOD9326716
Probable space group: F 2 2 2
;
_chemical_formula_sum "Si O2"
_cell_formula_units_Z 100
_cell_length_a 10.437633
_cell_length_b 27.066876
_cell_length_c 19.018597
_cell_angle_alpha 90.000000
_cell_angle_beta 90.000000
_cell_angle_gamma 90.000000
_cell_volume 5373.022160
_symmetry_space_group_name_H-M "F 2 2 2"
_symmetry_group_IT_number 22
_symmetry_cell_setting 'orthorhombic'
loop_
_space_group_symop_operation_xyz
x,y,z
-x,-y,z
x,-y,-z
-x,y,-z
x,1/2+y,1/2+z
-x,1/2-y,1/2+z
x,1/2-y,1/2-z
-x,1/2+y,1/2-z
1/2+x,y,1/2+z
1/2-x,-y,1/2+z
1/2+x,-y,1/2-z
1/2-x,y,1/2-z
1/2+x,1/2+y,z
1/2-x,1/2-y,z
1/2+x,1/2-y,-z
1/2-x,1/2+y,-z
loop_
_atom_site_type_symbol
_atom_site_label
_atom_site_fract_x
_atom_site_fract_y
_atom_site_fract_z
Si Si1 0.250000 0.608067 0.750000
Si Si2 0.513446 0.151690 0.084194
Si Si3 0.750000 0.750000 0.750000
Si Si4 0.207285 0.329703 0.641464
Si Si5 0.005643 0.943807 0.676846
Si Si6 0.250000 0.086211 0.750000
Si Si7 0.251075 0.807277 0.858781
Si Si8 0.864136 0.787168 0.993769
O O1 0.367142 0.574680 0.719854
O O2 0.205214 0.648291 0.691193
O O3 0.645711 0.173555 0.114394
O O4 0.506717 0.095914 0.114276
O O5 0.396774 0.180662 0.119913
O O6 0.500000 0.151489 0.000000
O O7 0.824790 0.713813 0.696879
O O8 0.202066 0.379160 0.686172
O O9 0.127189 0.325199 0.570435
O O10 0.877198 0.940731 0.724197
O O11 0.000000 0.000000 0.651052
O O12 0.250000 0.750000 0.833225
O O13 0.172678 0.808952 0.931292
O O14 0.750000 0.750000 0.976292
O O15 0.000000 0.760846 0.000000
#
# Coordination Sequence:
#
# PCOD9326716 Si02
#       8
#     8  16   4  16  16   8  16  16
#     4  10  22  40  57  89 119 151 193 243 294 358
#     4  10  20  38  57  84 118 152 191 246 287 346
#     4  10  20  32  50  80 106 156 192 232 260 328
#     4  10  20  36  54  80 115 149 197 233 280 327
#     4  10  21  39  64  86 111 147 193 249 309 354
#     4   9  21  37  58  87 109 144 187 245 285 344
#     4  10  22  35  56  83 121 160 195 228 286 341
#     4  11  24  35  55  79 112 159 200 230 276 330
#
# _framework density 18.611499999999999
#
# number of rings (size 3 to 8) (size 9 to 14) (size 15 to 20)
#    0.000    1.920    2.400    0.720    6.720    0.320 
#    8.640    0.000    0.000    0.000    0.000    1.120 
#    0.000    0.000    0.000    0.000    0.000    0.000 
#
# Total GULP energy -139348.054361 kJ/mol
# GULP energy per Si atom -5573.922174 kJ/mol
# Density = 1.856914 g / cm^3
# Si number density = 18.611500 Si / 1000 Ang^3
#
#
#
# Elastic Constant Matrix: (Units=GPa)
#
#
# Indices 1 2 3 4 5 6 
#
# 1 79.4918 34.9572 6.7014 0.0000 0.0000 0.0000
# 2 34.9572 107.3627 32.5905 0.0000 0.0000 0.0000
# 3 6.7014 32.5905 94.9591 0.0000 0.0000 0.0000
# 4 0.0000 0.0000 0.0000 5.0259 0.0000 0.0000
# 5 0.0000 0.0000 0.0000 0.0000 16.8818 0.0000
# 6 0.0000 0.0000 0.0000 0.0000 0.0000 18.1888
#
#
#
# Elastic Compliance Matrix: (Units=1/GPa)
#
#
# Indices 1 2 3 4 5 6 
#
# 1 0.014721 -0.004999 0.000677 0.000000 0.000000 0.000000
# 2 -0.004999 0.012095 -0.003798 0.000000 0.000000 0.000000
# 3 0.000677 -0.003798 0.011787 0.000000 0.000000 0.000000
# 4 0.000000 0.000000 0.000000 0.198971 0.000000 0.000000
# 5 0.000000 0.000000 0.000000 0.000000 0.059235 0.000000
# 6 0.000000 0.000000 0.000000 0.000000 0.000000 0.054979
#
#
# Mechanical properties :
#
#
# Convention : Reuss Voigt Hill
#
# Bulk Modulus (GPa) = 44.71839 47.81241 46.26540
# Shear Modulus (GPa) = 13.31622 21.85691 17.58656
#
# Velocity S-wave (km/s) = 2.67775 3.43064 3.07731
# Velocity P-wave (km/s) = 5.79999 6.43722 6.12690
#
# Compressibility (1/GPa) = 0.02236216
#
# Stress axis : x y z
#
# Youngs Moduli (GPa) = 67.93007 82.68080 84.84160
#
# Poissons Ratio (x) = 0.41328 -0.05741
# Poissons Ratio (y) = 0.33955 0.32225
# Poissons Ratio (z) = -0.04596 0.31404
#
# Static dielectric constant tensor:
#      x y z
#    x 1.684490 0.000000 0.000000 
#    y 0.000000 1.650260 0.000000 
#    z 0.000000 0.000000 1.680460 
# 
# From -- ./inp_files/42130.got.cif
#   From: 2010.05.17/outbox.cif.g08.bks.cpg/sg22_22_cif.got.tgz:42130.got - 2010.06.03 23:40:54.
