data_PCOD9326310
_publ_section_title
;
Structure prediction by ZEFSAII (Michael W. Deem and Ramdas Pophale) SiO2 
 PCOD9326310
Probable space group: F 2 2 2
;
_chemical_formula_sum "Si O2"
_cell_formula_units_Z 120
_cell_length_a 19.440112
_cell_length_b 20.585970
_cell_length_c 16.087235
_cell_angle_alpha 90.000000
_cell_angle_beta 90.000000
_cell_angle_gamma 90.000000
_cell_volume 6438.007884
_symmetry_space_group_name_H-M "F 2 2 2"
_symmetry_group_IT_number 22
_symmetry_cell_setting 'orthorhombic'
loop_
_space_group_symop_operation_xyz
x,y,z
-x,-y,z
x,-y,-z
-x,y,-z
x,1/2+y,1/2+z
-x,1/2-y,1/2+z
x,1/2-y,1/2-z
-x,1/2+y,1/2-z
1/2+x,y,1/2+z
1/2-x,-y,1/2+z
1/2+x,-y,1/2-z
1/2-x,y,1/2-z
1/2+x,1/2+y,z
1/2-x,1/2-y,z
1/2+x,1/2-y,-z
1/2-x,1/2+y,-z
loop_
_atom_site_type_symbol
_atom_site_label
_atom_site_fract_x
_atom_site_fract_y
_atom_site_fract_z
Si Si1 0.900021 0.490405 0.408336
Si Si2 0.077339 0.364201 0.354428
Si Si3 0.126174 0.764681 0.094618
Si Si4 0.295202 0.312046 0.069790
Si Si5 0.813042 0.358145 0.183609
Si Si6 0.938609 0.377347 0.293247
Si Si7 0.000000 0.786137 0.000000
Si Si8 0.752799 0.933050 0.967820
O O1 0.929272 0.500000 0.500000
O O2 0.899509 0.561400 0.367744
O O3 0.940459 0.440927 0.350641
O O4 0.826296 0.456210 0.428269
O O5 0.148054 0.324352 0.359092
O O6 0.037794 0.334239 0.435153
O O7 0.018986 0.358519 0.282931
O O8 0.166844 0.712274 0.147630
O O9 0.100029 0.821141 0.154967
O O10 0.171162 0.792181 0.019295
O O11 0.055728 0.743200 0.048843
O O12 0.250000 0.250000 0.092785
O O13 0.261396 0.380903 0.042662
O O14 0.750000 0.355779 0.250000
O O15 0.884448 0.387099 0.219602
O O16 0.787911 0.399687 0.105892
O O17 0.720723 0.000000 0.000000
#
# Coordination Sequence:
#
# PCOD9326310 Si02
#       8
#    16  16  16  16  16  16   8  16
#     4  11  17  31  52  80 117 154 188 247 302 349
#     4  10  19  31  50  79 119 146 196 243 295 360
#     4  10  19  32  53  80 123 151 186 243 296 360
#     4  11  18  31  54  86 119 148 192 249 302 353
#     4  12  23  36  55  86 126 159 194 246 312 373
#     4  11  22  32  49  87 123 163 189 243 312 376
#     4   8  18  34  51  86 111 150 200 240 298 358
#     4  11  21  35  54  85 120 156 200 247 306 359
#
# _framework density 18.639306000000001
#
# number of rings (size 3 to 8) (size 9 to 14) (size 15 to 20)
#    0.000    1.333    6.667    2.400    0.000    2.133 
#    0.000    0.000    0.000    3.200   10.400    0.000 
#    0.000    0.000    0.000    0.000    0.000    0.000 
#
# Total GULP energy -167165.573345 kJ/mol
# GULP energy per Si atom -5572.185778 kJ/mol
# Density = 1.859688 g / cm^3
# Si number density = 18.639306 Si / 1000 Ang^3
#
#
#
# Elastic Constant Matrix: (Units=GPa)
#
#
# Indices 1 2 3 4 5 6 
#
# 1 104.7950 55.7594 31.6986 0.0000 0.0000 0.0000
# 2 55.7594 110.4322 16.2409 0.0000 0.0000 0.0000
# 3 31.6986 16.2409 32.6412 0.0000 0.0000 0.0000
# 4 0.0000 0.0000 0.0000 4.1533 0.0000 0.0000
# 5 0.0000 0.0000 0.0000 0.0000 14.6846 0.0000
# 6 0.0000 0.0000 0.0000 0.0000 0.0000 16.2349
#
#
#
# Elastic Compliance Matrix: (Units=1/GPa)
#
#
# Indices 1 2 3 4 5 6 
#
# 1 0.017126 -0.006691 -0.013303 0.000000 0.000000 0.000000
# 2 -0.006691 0.012384 0.000336 0.000000 0.000000 0.000000
# 3 -0.013303 0.000336 0.043388 0.000000 0.000000 0.000000
# 4 0.000000 0.000000 0.000000 0.240775 0.000000 0.000000
# 5 0.000000 0.000000 0.000000 0.000000 0.068099 0.000000
# 6 0.000000 0.000000 0.000000 0.000000 0.000000 0.061596
#
#
# Mechanical properties :
#
#
# Convention : Reuss Voigt Hill
#
# Bulk Modulus (GPa) = 29.77730 50.58515 40.18122
# Shear Modulus (GPa) = 10.12396 16.62583 13.37490
#
# Velocity S-wave (km/s) = 2.33309 2.98984 2.68164
# Velocity P-wave (km/s) = 4.82369 6.25434 5.58501
#
# Compressibility (1/GPa) = 0.03358263
#
# Stress axis : x y z
#
# Youngs Moduli (GPa) = 58.38908 80.74672 23.04810
#
# Poissons Ratio (x) = 0.54029 0.30660
# Poissons Ratio (y) = 0.39069 -0.00774
# Poissons Ratio (z) = 0.77673 -0.02712
#
# Static dielectric constant tensor:
#      x y z
#    x 1.752240 0.000000 0.000000 
#    y 0.000000 1.662710 0.000000 
#    z 0.000000 0.000000 1.666160 
# 
# From -- ./inp_files/39105.got.cif
#   From: 2010.05.17/outbox.cif.g08.bks.cpg/sg22_20_cif.got.tgz:39105.got - 2010.06.03 23:40:54.
