data_PCOD9326103
_publ_section_title
;
Structure prediction by ZEFSAII (Michael W. Deem and Ramdas Pophale) SiO2 
 PCOD9326103
Probable space group: F 2 2 2
;
_chemical_formula_sum "Si O2"
_cell_formula_units_Z 116
_cell_length_a 10.416900
_cell_length_b 26.494484
_cell_length_c 22.328630
_cell_angle_alpha 90.000000
_cell_angle_beta 90.000000
_cell_angle_gamma 90.000000
_cell_volume 6162.487310
_symmetry_space_group_name_H-M "F 2 2 2"
_symmetry_group_IT_number 22
_symmetry_cell_setting 'orthorhombic'
loop_
_space_group_symop_operation_xyz
x,y,z
-x,-y,z
x,-y,-z
-x,y,-z
x,1/2+y,1/2+z
-x,1/2-y,1/2+z
x,1/2-y,1/2-z
-x,1/2+y,1/2-z
1/2+x,y,1/2+z
1/2-x,-y,1/2+z
1/2+x,-y,1/2-z
1/2-x,y,1/2-z
1/2+x,1/2+y,z
1/2-x,1/2-y,z
1/2+x,1/2-y,-z
1/2-x,1/2+y,-z
loop_
_atom_site_type_symbol
_atom_site_label
_atom_site_fract_x
_atom_site_fract_y
_atom_site_fract_z
Si Si1 0.396620 0.770459 0.314425
Si Si2 0.500000 0.500000 0.500000
Si Si3 0.856200 0.112758 0.007474
Si Si4 0.383765 0.886807 0.286664
Si Si5 0.998239 0.558183 0.816224
Si Si6 0.699199 0.440603 0.584832
Si Si7 0.606130 0.228416 0.451532
Si Si8 0.771570 0.952462 0.884782
O O1 0.451593 0.750000 0.250000
O O2 0.250000 0.750000 0.314388
O O3 0.401426 0.830821 0.310427
O O4 0.440637 0.759525 0.383196
O O5 0.592101 0.465340 0.540657
O O6 0.873345 0.168742 0.034259
O O7 0.782606 0.078277 0.054554
O O8 0.777480 0.104246 0.946221
O O9 0.000000 0.092404 0.000000
O O10 0.250000 0.886831 0.250000
O O11 0.486938 0.904397 0.238819
O O12 0.370619 0.927794 0.338708
O O13 0.869310 0.557971 0.856793
O O14 0.000000 0.500000 0.794830
O O15 0.119038 0.572488 0.856364
O O16 0.787481 0.488494 0.602349
O O17 0.500000 0.246355 0.500000
O O18 0.750000 0.250000 0.458717
#
# Coordination Sequence:
#
# PCOD9326103 Si02
#       8
#    16   4  16  16  16  16  16  16
#     4  10  18  34  61  92 119 148 205 262 305 367
#     4  12  16  32  54  76 124 144 188 266 286 344
#     4  11  22  37  58  84 119 158 198 249 311 374
#     4  10  18  32  54  82 117 152 193 259 310 352
#     4   9  19  34  52  80 118 154 200 254 301 350
#     4  11  19  35  55  84 117 159 203 250 297 371
#     4  10  23  44  62  90 128 157 199 262 328 380
#     4  10  18  33  55  80 114 155 198 247 302 350
#
# _framework density 18.823568999999999
#
# number of rings (size 3 to 8) (size 9 to 14) (size 15 to 20)
#    0.000    1.793    6.207    0.000    0.000    1.103 
#    8.690    0.000    0.000    0.414    0.000    0.000 
#    0.000    0.000    0.000    0.000    0.000    0.000 
#
# Total GULP energy -161552.781962 kJ/mol
# GULP energy per Si atom -5570.785585 kJ/mol
# Density = 1.878073 g / cm^3
# Si number density = 18.823569 Si / 1000 Ang^3
#
#
#
# Elastic Constant Matrix: (Units=GPa)
#
#
# Indices 1 2 3 4 5 6 
#
# 1 37.7175 22.9973 27.8413 0.0000 0.0000 0.0000
# 2 22.9973 42.3923 35.2477 0.0000 0.0000 0.0000
# 3 27.8413 35.2477 121.4923 0.0000 0.0000 0.0000
# 4 0.0000 0.0000 0.0000 43.4201 0.0000 0.0000
# 5 0.0000 0.0000 0.0000 0.0000 18.5860 0.0000
# 6 0.0000 0.0000 0.0000 0.0000 0.0000 15.1902
#
#
#
# Elastic Compliance Matrix: (Units=1/GPa)
#
#
# Indices 1 2 3 4 5 6 
#
# 1 0.040955 -0.018997 -0.003874 0.000000 0.000000 0.000000
# 2 -0.018997 0.039900 -0.007223 0.000000 0.000000 0.000000
# 3 -0.003874 -0.007223 0.011214 0.000000 0.000000 0.000000
# 4 0.000000 0.000000 0.000000 0.023031 0.000000 0.000000
# 5 0.000000 0.000000 0.000000 0.000000 0.053804 0.000000
# 6 0.000000 0.000000 0.000000 0.000000 0.000000 0.065832
#
#
# Mechanical properties :
#
#
# Convention : Reuss Voigt Hill
#
# Bulk Modulus (GPa) = 31.36473 41.53050 36.44762
# Shear Modulus (GPa) = 16.36396 23.14033 19.75215
#
# Velocity S-wave (km/s) = 2.95164 3.50998 3.24285
# Velocity P-wave (km/s) = 5.32118 6.20786 5.78154
#
# Compressibility (1/GPa) = 0.03188295
#
# Stress axis : x y z
#
# Youngs Moduli (GPa) = 24.41701 25.06273 89.17287
#
# Poissons Ratio (x) = 0.47610 0.34545
# Poissons Ratio (y) = 0.46384 0.64406
# Poissons Ratio (z) = 0.09459 0.18102
#
# Static dielectric constant tensor:
#      x y z
#    x 1.648380 0.000000 0.000000 
#    y 0.000000 1.654640 0.000000 
#    z 0.000000 0.000000 1.723630 
# 
# From -- ./inp_files/47540.got.cif
#   From: 2010.05.17/outbox.cif.g08.bks.cpg/sg22_24_cif.got.tgz:47540.got - 2010.06.03 23:40:54.
