data_PCOD9326927
_publ_section_title
;
Structure prediction by ZEFSAII (Michael W. Deem and Ramdas Pophale) SiO2 
 PCOD9326927
Probable space group: F 2 2 2
;
_chemical_formula_sum "Si O2"
_cell_formula_units_Z 96
_cell_length_a 22.890518
_cell_length_b 16.831740
_cell_length_c 11.638164
_cell_angle_alpha 90.000000
_cell_angle_beta 90.000000
_cell_angle_gamma 90.000000
_cell_volume 4484.036173
_symmetry_space_group_name_H-M "F 2 2 2"
_symmetry_group_IT_number 22
_symmetry_cell_setting 'orthorhombic'
loop_
_space_group_symop_operation_xyz
x,y,z
-x,-y,z
x,-y,-z
-x,y,-z
x,1/2+y,1/2+z
-x,1/2-y,1/2+z
x,1/2-y,1/2-z
-x,1/2+y,1/2-z
1/2+x,y,1/2+z
1/2-x,-y,1/2+z
1/2+x,-y,1/2-z
1/2-x,y,1/2-z
1/2+x,1/2+y,z
1/2-x,1/2-y,z
1/2+x,1/2-y,-z
1/2-x,1/2+y,-z
loop_
_atom_site_type_symbol
_atom_site_label
_atom_site_fract_x
_atom_site_fract_y
_atom_site_fract_z
Si Si1 0.004847 0.594464 0.185001
Si Si2 0.687286 0.913195 0.036452
Si Si3 0.577895 0.671652 0.490014
Si Si4 0.824272 0.092742 0.009618
Si Si5 0.180186 0.338021 0.265941
Si Si6 0.416304 0.812250 0.352099
O O1 0.050863 0.610778 0.082543
O O2 0.031590 0.635087 0.298404
O O3 0.000000 0.500000 0.199315
O O4 0.949013 0.642759 0.131761
O O5 0.753182 0.902028 0.990826
O O6 0.674884 0.907518 0.172539
O O7 0.647022 0.840394 0.998640
O O8 0.667401 0.000000 0.000000
O O9 0.564358 0.758518 0.539129
O O10 0.839477 0.133419 0.889187
O O11 0.861064 0.134822 0.109341
O O12 0.838659 0.000000 0.000000
O O13 0.154249 0.250000 0.250000
O O14 0.250000 0.327003 0.250000
O O15 0.401145 0.750000 0.250000
#
# Coordination Sequence:
#
# PCOD9326927 Si02
#       6
#    16  16  16  16  16  16
#     4  10  21  41  65  87 118 162 216 269 319 381
#     4  10  20  36  65  97 125 163 214 266 316 382
#     4  10  20  39  66  91 119 159 217 272 314 375
#     4  10  22  40  60  92 135 169 206 258 322 395
#     4   9  18  34  56  82 115 158 204 245 294 363
#     4  10  23  43  63  92 132 169 211 267 333 396
#
# _framework density 21.409282999999999
#
# number of rings (size 3 to 8) (size 9 to 14) (size 15 to 20)
#    0.000    2.167    0.000    3.000    0.000    6.000 
#    0.000   31.667    0.000    0.000    0.000    0.000 
#    0.000    0.000    0.000    0.000    0.000    0.000 
#
# Total GULP energy -133654.619127 kJ/mol
# GULP energy per Si atom -5568.942464 kJ/mol
# Density = 2.136055 g / cm^3
# Si number density = 21.409283 Si / 1000 Ang^3
#
#
#
# Elastic Constant Matrix: (Units=GPa)
#
#
# Indices 1 2 3 4 5 6 
#
# 1 80.8507 49.0382 31.6133 0.0000 0.0000 0.0000
# 2 49.0382 144.7213 62.1069 0.0000 0.0000 0.0000
# 3 31.6133 62.1069 65.2981 0.0000 0.0000 0.0000
# 4 0.0000 0.0000 0.0000 56.1058 0.0000 0.0000
# 5 0.0000 0.0000 0.0000 0.0000 28.0178 0.0000
# 6 0.0000 0.0000 0.0000 0.0000 0.0000 19.9209
#
#
#
# Elastic Compliance Matrix: (Units=1/GPa)
#
#
# Indices 1 2 3 4 5 6 
#
# 1 0.016302 -0.003610 -0.004458 0.000000 0.000000 0.000000
# 2 -0.003610 0.012475 -0.010117 0.000000 0.000000 0.000000
# 3 -0.004458 -0.010117 0.027096 0.000000 0.000000 0.000000
# 4 0.000000 0.000000 0.000000 0.017823 0.000000 0.000000
# 5 0.000000 0.000000 0.000000 0.000000 0.035692 0.000000
# 6 0.000000 0.000000 0.000000 0.000000 0.000000 0.050199
#
#
# Mechanical properties :
#
#
# Convention : Reuss Voigt Hill
#
# Bulk Modulus (GPa) = 51.28154 64.04297 57.66225
# Shear Modulus (GPa) = 24.69643 30.68301 27.68972
#
# Velocity S-wave (km/s) = 3.40006 3.78982 3.60022
# Velocity P-wave (km/s) = 6.27844 7.00920 6.65386
#
# Compressibility (1/GPa) = 0.01950020
#
# Stress axis : x y z
#
# Youngs Moduli (GPa) = 61.34400 80.15943 36.90612
#
# Poissons Ratio (x) = 0.28942 0.16453
# Poissons Ratio (y) = 0.22148 0.37340
# Poissons Ratio (z) = 0.27348 0.81101
#
# Static dielectric constant tensor:
#      x y z
#    x 1.860550 0.000000 0.000000 
#    y 0.000000 1.690620 0.000000 
#    z 0.000000 0.000000 1.820560 
# 
# From -- ./inp_files/23771.got.cif
#   From: 2010.05.17/outbox.cif.g08.bks.cpg/sg22_12_cif.got.tgz:23771.got - 2010.06.03 23:40:54.
