data_PCOD9326873
_publ_section_title
;
Structure prediction by ZEFSAII (Michael W. Deem and Ramdas Pophale) SiO2 
 PCOD9326873
Probable space group: F 2 2 2
;
_chemical_formula_sum "Si O2"
_cell_formula_units_Z 80
_cell_length_a 11.241791
_cell_length_b 22.294603
_cell_length_c 15.289075
_cell_angle_alpha 90.000000
_cell_angle_beta 90.000000
_cell_angle_gamma 90.000000
_cell_volume 3831.920244
_symmetry_space_group_name_H-M "F 2 2 2"
_symmetry_group_IT_number 22
_symmetry_cell_setting 'orthorhombic'
loop_
_space_group_symop_operation_xyz
x,y,z
-x,-y,z
x,-y,-z
-x,y,-z
x,1/2+y,1/2+z
-x,1/2-y,1/2+z
x,1/2-y,1/2-z
-x,1/2+y,1/2-z
1/2+x,y,1/2+z
1/2-x,-y,1/2+z
1/2+x,-y,1/2-z
1/2-x,y,1/2-z
1/2+x,1/2+y,z
1/2-x,1/2-y,z
1/2+x,1/2-y,-z
1/2-x,1/2+y,-z
loop_
_atom_site_type_symbol
_atom_site_label
_atom_site_fract_x
_atom_site_fract_y
_atom_site_fract_z
Si Si1 0.750000 0.750000 0.404786
Si Si2 0.500000 0.000000 0.247708
Si Si3 0.708239 0.068828 0.157044
Si Si4 0.040742 0.415204 0.601458
Si Si5 0.877517 0.324795 0.039128
Si Si6 0.485176 0.722932 0.155574
O O1 0.783358 0.806977 0.465407
O O2 0.627557 0.765765 0.355625
O O3 0.390544 0.979969 0.185279
O O4 0.529083 0.946703 0.317213
O O5 0.750000 0.093374 0.250000
O O6 0.830149 0.052147 0.107998
O O7 0.660342 0.124347 0.104163
O O8 0.000000 0.419485 0.500000
O O9 0.044188 0.345544 0.631051
O O10 0.913642 0.263428 0.086857
O O11 0.000000 0.348057 0.000000
O O12 0.452341 0.750000 0.250000
#
# Coordination Sequence:
#
# PCOD9326873 Si02
#       6
#     8   8  16  16  16  16
#     4  10  21  36  55  92 134 164 196 244 311 382
#     4  10  23  42  59  86 122 158 218 280 327 372
#     4  10  21  41  63  87 122 160 206 263 320 380
#     4  11  22  41  67  93 124 170 219 263 314 384
#     4  10  20  36  59  90 123 156 197 248 306 379
#     4  11  21  36  61  94 130 163 202 248 307 378
#
# _framework density 20.877258999999999
#
# number of rings (size 3 to 8) (size 9 to 14) (size 15 to 20)
#    0.000    1.600    0.000    7.200    0.000    0.000 
#    0.000   32.500    0.000    0.000    0.000    0.000 
#    0.000    0.000    0.000    0.000    0.000    0.000 
#
# Total GULP energy -111485.172108 kJ/mol
# GULP energy per Si atom -5574.258605 kJ/mol
# Density = 2.082974 g / cm^3
# Si number density = 20.877259 Si / 1000 Ang^3
#
#
#
# Elastic Constant Matrix: (Units=GPa)
#
#
# Indices 1 2 3 4 5 6 
#
# 1 88.9659 38.3870 44.8028 0.0000 0.0000 0.0000
# 2 38.3870 89.7679 20.1739 0.0000 0.0000 0.0000
# 3 44.8028 20.1739 90.5632 0.0000 0.0000 0.0000
# 4 0.0000 0.0000 0.0000 46.8192 0.0000 0.0000
# 5 0.0000 0.0000 0.0000 0.0000 -3.8019 0.0000
# 6 0.0000 0.0000 0.0000 0.0000 0.0000 -41.1804
#
#
#
# Elastic Compliance Matrix: (Units=1/GPa)
#
#
# Indices 1 2 3 4 5 6 
#
# 1 0.017440 -0.005810 -0.007334 0.000000 0.000000 0.000000
# 2 -0.005810 0.013662 -0.000169 0.000000 0.000000 0.000000
# 3 -0.007334 -0.000169 0.014708 0.000000 0.000000 0.000000
# 4 0.000000 0.000000 0.000000 0.021359 0.000000 0.000000
# 5 0.000000 0.000000 0.000000 0.000000 -0.263028 0.000000
# 6 0.000000 0.000000 0.000000 0.000000 0.000000 -0.024283
#
#
# Mechanical properties :
#
#
# Convention : Reuss Voigt Hill
#
# Bulk Modulus (GPa) = 52.12447 52.89162 52.50804
# Shear Modulus (GPa) = -26.72053 11.42959 -7.64547
#
# Velocity S-wave (km/s) = -3.58143 2.34234 -1.91574
# Velocity P-wave (km/s) = 2.81409 5.71882 4.50689
#
# Compressibility (1/GPa) = 0.01918485
#
# Stress axis : x y z
#
# Youngs Moduli (GPa) = 57.33842 73.19420 67.99098
#
# Poissons Ratio (x) = 0.42524 0.49863
# Poissons Ratio (y) = 0.33312 0.01151
# Poissons Ratio (z) = 0.42051 0.01239
#
# Static dielectric constant tensor:
#      x y z
#    x 1.843640 0.000000 0.000000 
#    y 0.000000 1.772810 0.000000 
#    z 0.000000 0.000000 1.784720 
# 
# From -- ./inp_files/28142.got.cif
#   From: 2010.05.17/outbox.cif.g08.bks.cpg/sg22_15_cif.got.tgz:28142.got - 2010.06.03 23:40:54.
