data_PCOD9326230
_publ_section_title
;
Structure prediction by ZEFSAII (Michael W. Deem and Ramdas Pophale) SiO2 
 PCOD9326230
Probable space group: F 2 2 2
;
_chemical_formula_sum "Si O2"
_cell_formula_units_Z 72
_cell_length_a 9.429555
_cell_length_b 23.726169
_cell_length_c 14.027726
_cell_angle_alpha 90.000000
_cell_angle_beta 90.000000
_cell_angle_gamma 90.000000
_cell_volume 3138.384078
_symmetry_space_group_name_H-M "F 2 2 2"
_symmetry_group_IT_number 22
_symmetry_cell_setting 'orthorhombic'
loop_
_space_group_symop_operation_xyz
x,y,z
-x,-y,z
x,-y,-z
-x,y,-z
x,1/2+y,1/2+z
-x,1/2-y,1/2+z
x,1/2-y,1/2-z
-x,1/2+y,1/2-z
1/2+x,y,1/2+z
1/2-x,-y,1/2+z
1/2+x,-y,1/2-z
1/2-x,y,1/2-z
1/2+x,1/2+y,z
1/2-x,1/2-y,z
1/2+x,1/2-y,-z
1/2-x,1/2+y,-z
loop_
_atom_site_type_symbol
_atom_site_label
_atom_site_fract_x
_atom_site_fract_y
_atom_site_fract_z
Si Si1 0.655689 0.517787 0.375521
Si Si2 0.861630 0.799612 0.438560
Si Si3 0.250000 0.418213 0.750000
Si Si4 0.153351 0.110644 0.047392
Si Si5 0.556174 0.625412 0.257990
O O1 0.500000 0.500000 0.409089
O O2 0.731321 0.462184 0.336572
O O3 0.762401 0.552342 0.441563
O O4 0.611787 0.564345 0.294977
O O5 0.750000 0.750000 0.421014
O O6 0.768718 0.846493 0.495810
O O7 0.913009 0.829153 0.340233
O O8 0.000000 0.783024 0.500000
O O9 0.389545 0.381563 0.757345
O O10 0.124585 0.134342 0.154795
O O11 0.000000 0.106164 0.000000
#
# Coordination Sequence:
#
# PCOD9326230 Si02
#       5
#    16  16   8  16  16
#     4   9  17  36  65  93 141 200 241 280 344 408
#     4  11  25  48  74 101 136 181 233 303 370 432
#     4  10  18  36  70  99 141 196 242 280 336 422
#     4  11  23  41  71 106 145 185 241 298 348 421
#     4  10  22  39  71 100 140 192 232 286 357 415
#
# _framework density 22.941744
#
# number of rings (size 3 to 8) (size 9 to 14) (size 15 to 20)
#    0.000    1.778    2.222    2.667    3.111    1.778 
#    0.000    2.222    9.778    0.000    0.000    0.000 
#    0.000    0.000    0.000    0.000    0.000    0.000 
#
# Total GULP energy -100617.971598 kJ/mol
# GULP energy per Si atom -5589.887311 kJ/mol
# Density = 2.288953 g / cm^3
# Si number density = 22.941744 Si / 1000 Ang^3
#
#
#
# Elastic Constant Matrix: (Units=GPa)
#
#
# Indices 1 2 3 4 5 6 
#
# 1 230.9230 76.6207 54.9707 0.0000 0.0000 0.0000
# 2 76.6207 95.1090 24.4944 0.0000 0.0000 0.0000
# 3 54.9707 24.4944 96.1307 0.0000 0.0000 0.0000
# 4 0.0000 0.0000 0.0000 -35.5004 0.0000 0.0000
# 5 0.0000 0.0000 0.0000 0.0000 11.6865 0.0000
# 6 0.0000 0.0000 0.0000 0.0000 0.0000 51.5346
#
#
#
# Elastic Compliance Matrix: (Units=1/GPa)
#
#
# Indices 1 2 3 4 5 6 
#
# 1 0.006436 -0.004535 -0.002525 0.000000 0.000000 0.000000
# 2 -0.004535 0.014448 -0.001088 0.000000 0.000000 0.000000
# 3 -0.002525 -0.001088 0.012124 0.000000 0.000000 0.000000
# 4 0.000000 0.000000 0.000000 -0.028169 0.000000 0.000000
# 5 0.000000 0.000000 0.000000 0.000000 0.085569 0.000000
# 6 0.000000 0.000000 0.000000 0.000000 0.000000 0.019404
#
#
# Mechanical properties :
#
#
# Convention : Reuss Voigt Hill
#
# Bulk Modulus (GPa) = 59.83819 81.59271 70.71545
# Shear Modulus (GPa) = 37.97136 23.28261 30.62698
#
# Velocity S-wave (km/s) = 4.07273 3.18914 3.65771
# Velocity P-wave (km/s) = 6.94662 7.01450 6.98064
#
# Compressibility (1/GPa) = 0.01671173
#
# Stress axis : x y z
#
# Youngs Moduli (GPa) = 155.37265 69.21496 82.48359
#
# Poissons Ratio (x) = 0.31387 0.20827
# Poissons Ratio (y) = 0.70458 0.08976
# Poissons Ratio (z) = 0.39231 0.07532
#
# Static dielectric constant tensor:
#      x y z
#    x 1.882910 0.000000 0.000000 
#    y 0.000000 1.849240 0.000000 
#    z 0.000000 0.000000 1.977840 
# 
# From -- ./inp_files/27048.got.cif
#   From: 2010.05.17/outbox.cif.g08.bks.cpg/sg22_14_cif.got.tgz:27048.got - 2010.06.03 23:40:54.
