data_PCOD9326092
_publ_section_title
;
Structure prediction by ZEFSAII (Michael W. Deem and Ramdas Pophale) SiO2 
 PCOD9326092
Probable space group: F 2 2 2
;
_chemical_formula_sum "Si O2"
_cell_formula_units_Z 88
_cell_length_a 5.568938
_cell_length_b 30.378048
_cell_length_c 30.605931
_cell_angle_alpha 90.000000
_cell_angle_beta 90.000000
_cell_angle_gamma 90.000000
_cell_volume 5177.711424
_symmetry_space_group_name_H-M "F 2 2 2"
_symmetry_group_IT_number 22
_symmetry_cell_setting 'orthorhombic'
loop_
_space_group_symop_operation_xyz
x,y,z
-x,-y,z
x,-y,-z
-x,y,-z
x,1/2+y,1/2+z
-x,1/2-y,1/2+z
x,1/2-y,1/2-z
-x,1/2+y,1/2-z
1/2+x,y,1/2+z
1/2-x,-y,1/2+z
1/2+x,-y,1/2-z
1/2-x,y,1/2-z
1/2+x,1/2+y,z
1/2-x,1/2-y,z
1/2+x,1/2-y,-z
1/2-x,1/2+y,-z
loop_
_atom_site_type_symbol
_atom_site_label
_atom_site_fract_x
_atom_site_fract_y
_atom_site_fract_z
Si Si1 0.485541 0.297128 0.586295
Si Si2 0.008227 0.302952 0.448204
Si Si3 0.250000 0.161384 0.750000
Si Si4 0.749103 0.523455 0.196624
Si Si5 0.398537 0.706233 0.684344
Si Si6 0.363706 0.620265 0.798670
O O1 0.739548 0.318764 0.572436
O O2 0.497229 0.249392 0.562779
O O3 0.472826 0.288277 0.637965
O O4 0.241211 0.320790 0.571693
O O5 0.000000 0.308962 0.500000
O O6 0.432559 0.192947 0.775487
O O7 0.359279 0.129116 0.712996
O O8 0.500000 0.500000 0.183503
O O9 0.750000 0.523577 0.250000
O O10 0.718830 0.574177 0.181924
O O11 0.000000 0.500000 0.183456
O O12 0.250000 0.750000 0.693494
O O13 0.227385 0.663937 0.678062
O O14 0.250000 0.620999 0.750000
#
# Coordination Sequence:
#
# PCOD9326092 Si02
#       6
#    16  16   8  16  16  16
#     4  10  19  31  50  70  92 122 166 209 250 308
#     4  10  18  32  51  73  94 116 159 216 256 313
#     4  10  24  37  54  60 104 138 196 232 277 288
#     4   9  18  30  53  74  92 114 152 211 277 325
#     4  11  23  37  49  69  96 141 186 232 257 297
#     4   9  21  34  49  71  93 126 173 223 269 312
#
# _framework density 16.995925
#
# number of rings (size 3 to 8) (size 9 to 14) (size 15 to 20)
#    0.000    2.182    1.818    2.727   11.455    4.727 
#    0.000    0.000    0.000    0.000    0.000    0.000 
#    0.000    0.000    0.000    0.000    0.000   21.818 
#
# Total GULP energy -122515.396784 kJ/mol
# GULP energy per Si atom -5568.881672 kJ/mol
# Density = 1.695724 g / cm^3
# Si number density = 16.995925 Si / 1000 Ang^3
#
#
#
# Elastic Constant Matrix: (Units=GPa)
#
#
# Indices 1 2 3 4 5 6 
#
# 1 143.2180 48.6328 28.0357 0.0000 0.0000 0.0000
# 2 48.6328 106.0004 12.8282 0.0000 0.0000 0.0000
# 3 28.0357 12.8282 55.3954 0.0000 0.0000 0.0000
# 4 0.0000 0.0000 0.0000 -3.3682 0.0000 0.0000
# 5 0.0000 0.0000 0.0000 0.0000 86.8039 0.0000
# 6 0.0000 0.0000 0.0000 0.0000 0.0000 14.2472
#
#
#
# Elastic Compliance Matrix: (Units=1/GPa)
#
#
# Indices 1 2 3 4 5 6 
#
# 1 0.008945 -0.003659 -0.003680 0.000000 0.000000 0.000000
# 2 -0.003659 0.011202 -0.000743 0.000000 0.000000 0.000000
# 3 -0.003680 -0.000743 0.020086 0.000000 0.000000 0.000000
# 4 0.000000 0.000000 0.000000 -0.296894 0.000000 0.000000
# 5 0.000000 0.000000 0.000000 0.000000 0.011520 0.000000
# 6 0.000000 0.000000 0.000000 0.000000 0.000000 0.070189
#
#
# Mechanical properties :
#
#
# Convention : Reuss Voigt Hill
#
# Bulk Modulus (GPa) = 41.54253 53.73412 47.63833
# Shear Modulus (GPa) = -33.16426 33.87771 0.35672
#
# Velocity S-wave (km/s) = -4.42215 4.46946 0.45863
# Velocity P-wave (km/s) = 1.25626 7.63671 5.32640
#
# Compressibility (1/GPa) = 0.02407172
#
# Stress axis : x y z
#
# Youngs Moduli (GPa) = 111.79311 89.26685 49.78501
#
# Poissons Ratio (x) = 0.32660 0.18320
# Poissons Ratio (y) = 0.40901 0.03697
# Poissons Ratio (z) = 0.41138 0.06628
#
# Static dielectric constant tensor:
#      x y z
#    x 1.767460 0.000000 0.000000 
#    y 0.000000 1.555050 0.000000 
#    z 0.000000 0.000000 1.565370 
# 
# From -- ./inp_files/55107.got.cif
#   From: 2010.05.17/outbox.cif.g08.bks.cpg/sg22_28_cif.got.tgz:55107.got - 2010.06.03 23:40:54.
