data_PCOD9326000
_publ_section_title
;
Structure prediction by ZEFSAII (Michael W. Deem and Ramdas Pophale) SiO2 
 PCOD9326000
Probable space group: F 2 2 2
;
_chemical_formula_sum "Si O2"
_cell_formula_units_Z 68
_cell_length_a 18.470976
_cell_length_b 12.114661
_cell_length_c 16.394125
_cell_angle_alpha 90.000000
_cell_angle_beta 90.000000
_cell_angle_gamma 90.000000
_cell_volume 3668.507000
_symmetry_space_group_name_H-M "F 2 2 2"
_symmetry_group_IT_number 22
_symmetry_cell_setting 'orthorhombic'
loop_
_space_group_symop_operation_xyz
x,y,z
-x,-y,z
x,-y,-z
-x,y,-z
x,1/2+y,1/2+z
-x,1/2-y,1/2+z
x,1/2-y,1/2-z
-x,1/2+y,1/2-z
1/2+x,y,1/2+z
1/2-x,-y,1/2+z
1/2+x,-y,1/2-z
1/2-x,y,1/2-z
1/2+x,1/2+y,z
1/2-x,1/2-y,z
1/2+x,1/2-y,-z
1/2-x,1/2+y,-z
loop_
_atom_site_type_symbol
_atom_site_label
_atom_site_fract_x
_atom_site_fract_y
_atom_site_fract_z
Si Si1 0.328192 0.854994 0.207653
Si Si2 0.075672 0.936041 0.742970
Si Si3 0.500000 0.500000 0.500000
Si Si4 0.409459 0.700738 0.440827
Si Si5 0.439613 0.267466 0.119258
O O1 0.367045 0.750000 0.250000
O O2 0.250000 0.860527 0.250000
O O3 0.338704 0.821047 0.113047
O O4 0.365598 0.970946 0.224503
O O5 0.074300 0.840636 0.674502
O O6 0.084881 0.872660 0.828895
O O7 0.000000 0.000000 0.743304
O O8 0.448722 0.581506 0.449907
O O9 0.401798 0.749093 0.531643
O O10 0.473636 0.771612 0.398099
#
# Coordination Sequence:
#
# PCOD9326000 Si02
#       5
#    16  16   4  16  16
#     4  11  23  38  59  80 119 163 203 243 302 369
#     4  11  19  35  61  93 120 154 201 252 305 357
#     4   8  16  28  64  92 110 148 200 252 292 342
#     4  10  17  34  55  89 123 153 196 254 295 364
#     4   9  20  32  60  94 118 150 198 254 307 346
#
# _framework density 18.536152000000001
#
# number of rings (size 3 to 8) (size 9 to 14) (size 15 to 20)
#    0.000    2.118    2.353    4.235    1.647    0.000 
#    0.000   10.588   31.059    0.000    0.000    0.000 
#    0.000    0.000    0.000    0.000    0.000    0.000 
#
# Total GULP energy -94705.391469 kJ/mol
# GULP energy per Si atom -5570.905381 kJ/mol
# Density = 1.849396 g / cm^3
# Si number density = 18.536152 Si / 1000 Ang^3
#
#
#
# Elastic Constant Matrix: (Units=GPa)
#
#
# Indices 1 2 3 4 5 6 
#
# 1 65.8358 14.6829 56.1398 0.0000 0.0000 0.0000
# 2 14.6829 86.0494 46.7553 0.0000 0.0000 0.0000
# 3 56.1398 46.7553 162.6945 0.0000 0.0000 0.0000
# 4 0.0000 0.0000 0.0000 29.2709 0.0000 0.0000
# 5 0.0000 0.0000 0.0000 0.0000 29.9896 0.0000
# 6 0.0000 0.0000 0.0000 0.0000 0.0000 4.3140
#
#
#
# Elastic Compliance Matrix: (Units=1/GPa)
#
#
# Indices 1 2 3 4 5 6 
#
# 1 0.021535 0.000430 -0.007555 0.000000 0.000000 0.000000
# 2 0.000430 0.013780 -0.004109 0.000000 0.000000 0.000000
# 3 -0.007555 -0.004109 0.009934 0.000000 0.000000 0.000000
# 4 0.000000 0.000000 0.000000 0.034164 0.000000 0.000000
# 5 0.000000 0.000000 0.000000 0.000000 0.033345 0.000000
# 6 0.000000 0.000000 0.000000 0.000000 0.000000 0.231801
#
#
# Mechanical properties :
#
#
# Convention : Reuss Voigt Hill
#
# Bulk Modulus (GPa) = 43.89136 61.08175 52.48656
# Shear Modulus (GPa) = 13.34684 25.84833 19.59758
#
# Velocity S-wave (km/s) = 2.68627 3.73833 3.25509
# Velocity P-wave (km/s) = 5.77509 7.18733 6.51956
#
# Compressibility (1/GPa) = 0.02278353
#
# Stress axis : x y z
#
# Youngs Moduli (GPa) = 46.43502 72.56749 100.66345
#
# Poissons Ratio (x) = -0.03122 0.76049
# Poissons Ratio (y) = -0.01998 0.41359
# Poissons Ratio (z) = 0.35080 0.29815
#
# Static dielectric constant tensor:
#      x y z
#    x 1.652490 0.000000 0.000000 
#    y 0.000000 1.653430 0.000000 
#    z 0.000000 0.000000 1.715400 
# 
# From -- ./inp_files/19638.got.cif
#   From: 2010.05.17/outbox.cif.g08.bks.cpg/sg22_10_cif.got.tgz:19638.got - 2010.06.03 23:40:54.
