data_PCOD9326353
_publ_section_title
;
Structure prediction by ZEFSAII (Michael W. Deem and Ramdas Pophale) SiO2 
 PCOD9326353
Probable space group: F 2 2 2
;
_chemical_formula_sum "Si O2"
_cell_formula_units_Z 128
_cell_length_a 16.778820
_cell_length_b 22.981818
_cell_length_c 18.874999
_cell_angle_alpha 90.000000
_cell_angle_beta 90.000000
_cell_angle_gamma 90.000000
_cell_volume 7278.346603
_symmetry_space_group_name_H-M "F 2 2 2"
_symmetry_group_IT_number 22
_symmetry_cell_setting 'orthorhombic'
loop_
_space_group_symop_operation_xyz
x,y,z
-x,-y,z
x,-y,-z
-x,y,-z
x,1/2+y,1/2+z
-x,1/2-y,1/2+z
x,1/2-y,1/2-z
-x,1/2+y,1/2-z
1/2+x,y,1/2+z
1/2-x,-y,1/2+z
1/2+x,-y,1/2-z
1/2-x,y,1/2-z
1/2+x,1/2+y,z
1/2-x,1/2-y,z
1/2+x,1/2-y,-z
1/2-x,1/2+y,-z
loop_
_atom_site_type_symbol
_atom_site_label
_atom_site_fract_x
_atom_site_fract_y
_atom_site_fract_z
Si Si1 0.015520 0.747869 0.834123
Si Si2 0.648533 0.384549 0.004624
Si Si3 0.587900 0.263789 0.036726
Si Si4 0.803796 0.469551 0.683667
Si Si5 0.802947 0.445163 0.953513
Si Si6 0.940005 0.050935 0.129554
Si Si7 0.581398 0.127034 0.651168
Si Si8 0.924887 0.157004 0.552359
O O1 0.001051 0.750000 0.750000
O O2 0.073917 0.803652 0.844760
O O3 0.051269 0.690349 0.874111
O O4 0.936083 0.757238 0.881361
O O5 0.736032 0.410429 0.997896
O O6 0.603539 0.388998 0.929613
O O7 0.645240 0.317286 0.025042
O O8 0.599652 0.419583 0.062458
O O9 0.500000 0.276256 0.000000
O O10 0.617629 0.206705 0.995821
O O11 0.750000 0.482493 0.750000
O O12 0.746304 0.465702 0.615419
O O13 0.871121 0.518543 0.672961
O O14 0.850382 0.407760 0.693179
O O15 0.872343 0.399682 0.935214
O O16 0.830694 0.500000 0.000000
O O17 0.995452 0.098682 0.168117
O O18 0.000000 0.000000 0.107317
O O19 0.000000 0.143025 0.500000
#
# Coordination Sequence:
#
# PCOD9326353 Si02
#       8
#    16  16  16  16  16  16  16  16
#     4  10  19  33  57  87 116 143 189 236 287 340
#     4  11  17  32  57  88 117 134 175 246 291 337
#     4   9  16  34  55  81 111 143 179 235 285 326
#     4  10  23  38  52  80 127 153 181 233 287 345
#     4  11  23  37  58  83 111 155 199 232 288 338
#     4  10  19  32  59  90 111 144 184 225 291 344
#     4  10  19  32  59  88 112 147 184 230 291 346
#     4   9  21  40  59  80 109 152 200 243 279 334
#
# _framework density 17.586411999999999
#
# number of rings (size 3 to 8) (size 9 to 14) (size 15 to 20)
#    0.000    2.250    5.000    0.375    1.750    3.250 
#    0.000    2.500    2.750    0.000    0.000    3.500 
#    0.000    0.000    0.000    0.000    0.000    0.000 
#
# Total GULP energy -178202.670425 kJ/mol
# GULP energy per Si atom -5568.833451 kJ/mol
# Density = 1.754638 g / cm^3
# Si number density = 17.586412 Si / 1000 Ang^3
#
#
#
# Elastic Constant Matrix: (Units=GPa)
#
#
# Indices 1 2 3 4 5 6 
#
# 1 53.7604 35.8935 21.8829 0.0000 0.0000 0.0000
# 2 35.8935 84.3070 20.2791 0.0000 0.0000 0.0000
# 3 21.8829 20.2791 79.9588 0.0000 0.0000 0.0000
# 4 0.0000 0.0000 0.0000 -1.4837 0.0000 0.0000
# 5 0.0000 0.0000 0.0000 0.0000 14.5864 0.0000
# 6 0.0000 0.0000 0.0000 0.0000 0.0000 19.5617
#
#
#
# Elastic Compliance Matrix: (Units=1/GPa)
#
#
# Indices 1 2 3 4 5 6 
#
# 1 0.027669 -0.010606 -0.004883 0.000000 0.000000 0.000000
# 2 -0.010606 0.016697 -0.001332 0.000000 0.000000 0.000000
# 3 -0.004883 -0.001332 0.014181 0.000000 0.000000 0.000000
# 4 0.000000 0.000000 0.000000 -0.673968 0.000000 0.000000
# 5 0.000000 0.000000 0.000000 0.000000 0.068557 0.000000
# 6 0.000000 0.000000 0.000000 0.000000 0.000000 0.051120
#
#
# Mechanical properties :
#
#
# Convention : Reuss Voigt Hill
#
# Bulk Modulus (GPa) = 40.15084 41.57079 40.86082
# Shear Modulus (GPa) = -11.01805 15.86426 2.42311
#
# Velocity S-wave (km/s) = -2.50573 3.00671 1.17508
# Velocity P-wave (km/s) = 3.80901 5.97855 5.01257
#
# Compressibility (1/GPa) = 0.02490608
#
# Stress axis : x y z
#
# Youngs Moduli (GPa) = 36.14093 59.89019 70.51899
#
# Poissons Ratio (x) = 0.63518 0.34432
# Poissons Ratio (y) = 0.38330 0.09395
# Poissons Ratio (z) = 0.17646 0.07979
#
# Static dielectric constant tensor:
#      x y z
#    x 1.601410 0.000000 0.000000 
#    y 0.000000 1.644060 0.000000 
#    z 0.000000 0.000000 1.611710 
# 
# From -- ./inp_files/38369.got.cif
#   From: 2010.05.17/outbox.cif.g08.bks.cpg/sg22_20_cif.got.tgz:38369.got - 2010.06.03 23:40:54.
