data_PCOD9326068
_publ_section_title
;
Structure prediction by ZEFSAII (Michael W. Deem and Ramdas Pophale) SiO2 
 PCOD9326068
Probable space group: F 2 2 2
;
_chemical_formula_sum "Si O2"
_cell_formula_units_Z 64
_cell_length_a 33.602257
_cell_length_b 14.344439
_cell_length_c 5.273198
_cell_angle_alpha 90.000000
_cell_angle_beta 90.000000
_cell_angle_gamma 90.000000
_cell_volume 2541.710575
_symmetry_space_group_name_H-M "F 2 2 2"
_symmetry_group_IT_number 22
_symmetry_cell_setting 'orthorhombic'
loop_
_space_group_symop_operation_xyz
x,y,z
-x,-y,z
x,-y,-z
-x,y,-z
x,1/2+y,1/2+z
-x,1/2-y,1/2+z
x,1/2-y,1/2-z
-x,1/2+y,1/2-z
1/2+x,y,1/2+z
1/2-x,-y,1/2+z
1/2+x,-y,1/2-z
1/2-x,y,1/2-z
1/2+x,1/2+y,z
1/2-x,1/2-y,z
1/2+x,1/2-y,-z
1/2-x,1/2+y,-z
loop_
_atom_site_type_symbol
_atom_site_label
_atom_site_fract_x
_atom_site_fract_y
_atom_site_fract_z
Si Si1 0.297453 0.893479 0.756272
Si Si2 0.577192 0.637009 0.767894
Si Si3 0.034419 0.638414 0.787757
Si Si4 0.167901 0.603705 0.266713
O O1 0.250000 0.895248 0.750000
O O2 0.310808 0.847097 0.498130
O O3 0.313960 0.999649 0.745780
O O4 0.319638 0.854049 0.999839
O O5 0.575269 0.750000 0.750000
O O6 0.570204 0.609758 0.473393
O O7 0.621314 0.604433 0.827403
O O8 0.545933 0.608473 0.996075
O O9 0.029615 0.750000 0.750000
O O10 0.000000 0.612972 0.000000
#
# Coordination Sequence:
#
# PCOD9326068 Si02
#       4
#    16  16  16  16
#     4  10  19  33  55  75  93 127 177 222 246 277
#     4  10  20  31  48  75 106 132 157 198 256 309
#     4  10  18  31  49  71  99 133 169 203 237 287
#     4  10  18  31  50  75 101 126 161 213 258 292
#
# _framework density 25.179891000000001
#
# number of rings (size 3 to 8) (size 9 to 14) (size 15 to 20)
#    0.000    2.000    0.000    8.250    0.000    0.000 
#    0.000    0.000    0.000    8.250    0.000   52.500 
#    0.000    0.000    0.000    0.000    0.000    0.000 
#
# Total GULP energy -89122.459653 kJ/mol
# GULP energy per Si atom -5570.153728 kJ/mol
# Density = 2.512258 g / cm^3
# Si number density = 25.179891 Si / 1000 Ang^3
#
#
#
# Elastic Constant Matrix: (Units=GPa)
#
#
# Indices 1 2 3 4 5 6 
#
# 1 151.6248 -3.7498 39.9899 0.0001 0.0000 0.0002
# 2 -3.7498 100.1007 -0.1209 0.0002 0.0000 0.0001
# 3 39.9899 -0.1209 251.5771 0.0005 0.0001 0.0004
# 4 0.0001 0.0002 0.0005 -30.9165 0.0001 0.0003
# 5 0.0000 0.0000 0.0001 0.0001 54.7337 -0.0002
# 6 0.0002 0.0001 0.0004 0.0003 -0.0002 51.0781
#
#
#
# Elastic Compliance Matrix: (Units=1/GPa)
#
#
# Indices 1 2 3 4 5 6 
#
# 1 0.006890 0.000257 -0.001095 0.000000 0.000000 0.000000
# 2 0.000257 0.010000 -0.000036 0.000000 0.000000 0.000000
# 3 -0.001095 -0.000036 0.004149 0.000000 0.000000 0.000000
# 4 0.000000 0.000000 0.000000 -0.032345 0.000000 0.000000
# 5 0.000000 0.000000 0.000000 0.000000 0.018270 0.000000
# 6 0.000000 0.000000 0.000000 0.000000 0.000000 0.019578
#
#
# Mechanical properties :
#
#
# Convention : Reuss Voigt Hill
#
# Bulk Modulus (GPa) = 51.83987 63.94899 57.89443
# Shear Modulus (GPa) = 144.00624 46.12461 95.06542
#
# Velocity S-wave (km/s) = 7.57068 4.28460 6.15114
# Velocity P-wave (km/s) = 9.85153 7.06605 8.57268
#
# Compressibility (1/GPa) = 0.01929017
#
# Stress axis : x y z
#
# Youngs Moduli (GPa) = 145.12916 100.00485 241.02257
#
# Poissons Ratio (x) = -0.02568 0.26396
# Poissons Ratio (y) = -0.03727 0.00868
# Poissons Ratio (z) = 0.15894 0.00360
#
# Static dielectric constant tensor:
#      x y z
#    x 2.041130 0.000000 0.000000 
#    y 0.000000 1.911380 0.000000 
#    z 0.000000 0.000000 1.506680 
# 
# From -- ./inp_files/6140.got.cif
#   From: 2010.05.17/outbox.cif.g08.bks.cpg/sg22_4_cif.got.tgz:6140.got - 2010.06.03 23:40:54.
