data_PCOD9326261
_publ_section_title
;
Structure prediction by ZEFSAII (Michael W. Deem and Ramdas Pophale) SiO2 
 PCOD9326261
Probable space group: F 2 2 2
;
_chemical_formula_sum "Si O2"
_cell_formula_units_Z 88
_cell_length_a 21.623742
_cell_length_b 21.888437
_cell_length_c 9.056488
_cell_angle_alpha 90.000000
_cell_angle_beta 90.000000
_cell_angle_gamma 90.000000
_cell_volume 4286.525561
_symmetry_space_group_name_H-M "F 2 2 2"
_symmetry_group_IT_number 22
_symmetry_cell_setting 'orthorhombic'
loop_
_space_group_symop_operation_xyz
x,y,z
-x,-y,z
x,-y,-z
-x,y,-z
x,1/2+y,1/2+z
-x,1/2-y,1/2+z
x,1/2-y,1/2-z
-x,1/2+y,1/2-z
1/2+x,y,1/2+z
1/2-x,-y,1/2+z
1/2+x,-y,1/2-z
1/2-x,y,1/2-z
1/2+x,1/2+y,z
1/2-x,1/2-y,z
1/2+x,1/2-y,-z
1/2-x,1/2+y,-z
loop_
_atom_site_type_symbol
_atom_site_label
_atom_site_fract_x
_atom_site_fract_y
_atom_site_fract_z
Si Si1 0.000000 0.500000 0.500000
Si Si2 0.810122 0.166622 0.648778
Si Si3 0.311349 0.521905 0.667476
Si Si4 0.919272 0.559413 0.746844
Si Si5 0.917867 0.750000 0.250000
Si Si6 0.124170 0.188787 0.651457
Si Si7 0.500000 0.000000 0.000000
Si Si8 0.000000 0.766734 0.500000
O O1 0.961034 0.545093 0.605892
O O2 0.750000 0.184428 0.750000
O O3 0.813476 0.094403 0.660940
O O4 0.871303 0.195486 0.718497
O O5 0.821714 0.183974 0.474594
O O6 0.312648 0.500000 0.500000
O O7 0.250000 0.501488 0.750000
O O8 0.367851 0.493026 0.753257
O O9 0.885409 0.625137 0.760504
O O10 0.959236 0.543487 0.893924
O O11 0.963929 0.770728 0.122205
O O12 0.133398 0.250000 0.750000
O O13 0.056587 0.196452 0.573369
#
# Coordination Sequence:
#
# PCOD9326261 Si02
#       8
#     4  16  16  16   8  16   4   8
#     4  10  28  40  64 106 144 188 216 286 336 406
#     4  10  22  44  72 100 128 177 229 281 347 398
#     4  11  23  44  73  95 127 172 227 288 334 401
#     4  11  22  45  64 101 137 177 231 277 341 402
#     4  10  21  40  70  94 139 172 216 278 330 412
#     4  11  22  40  70 101 139 183 222 280 340 407
#     4  10  18  38  76  90 128 184 224 290 332 388
#     4  10  21  41  64 103 131 180 224 266 330 401
#
# _framework density 20.529447999999999
#
# number of rings (size 3 to 8) (size 9 to 14) (size 15 to 20)
#    0.000    1.455    3.636    0.818    1.273    5.091 
#    6.545    1.818    2.000    0.000    0.000    0.000 
#    0.000    0.000    0.000    0.000    0.000    0.000 
#
# Total GULP energy -122632.183386 kJ/mol
# GULP energy per Si atom -5574.190154 kJ/mol
# Density = 2.048272 g / cm^3
# Si number density = 20.529448 Si / 1000 Ang^3
#
#
#
# Elastic Constant Matrix: (Units=GPa)
#
#
# Indices 1 2 3 4 5 6 
#
# 1 121.1228 33.8720 74.5388 0.0000 0.0000 0.0000
# 2 33.8720 115.2658 55.7827 0.0000 0.0000 0.0000
# 3 74.5388 55.7827 127.9251 0.0000 0.0001 -0.0001
# 4 0.0000 0.0000 0.0000 20.5187 0.0001 -0.0001
# 5 0.0000 0.0000 0.0001 0.0001 32.8937 0.0000
# 6 0.0000 0.0000 -0.0001 -0.0001 0.0000 3.3054
#
#
#
# Elastic Compliance Matrix: (Units=1/GPa)
#
#
# Indices 1 2 3 4 5 6 
#
# 1 0.012875 -0.000194 -0.007417 0.000000 0.000000 0.000000
# 2 -0.000194 0.010999 -0.004683 0.000000 0.000000 0.000000
# 3 -0.007417 -0.004683 0.014181 0.000000 0.000000 0.000000
# 4 0.000000 0.000000 0.000000 0.048736 0.000000 0.000001
# 5 0.000000 0.000000 0.000000 0.000000 0.030401 0.000000
# 6 0.000000 0.000000 0.000000 0.000001 0.000000 0.302537
#
#
# Mechanical properties :
#
#
# Convention : Reuss Voigt Hill
#
# Bulk Modulus (GPa) = 74.26006 76.96673 75.61339
# Shear Modulus (GPa) = 11.14066 24.68491 17.91278
#
# Velocity S-wave (km/s) = 2.33205 3.47135 2.95708
# Velocity P-wave (km/s) = 6.59562 7.32388 6.96927
#
# Compressibility (1/GPa) = 0.01346619
#
# Stress axis : x y z
#
# Youngs Moduli (GPa) = 77.67021 90.91724 70.51587
#
# Poissons Ratio (x) = 0.01762 0.52305
# Poissons Ratio (y) = 0.01505 0.33025
# Poissons Ratio (z) = 0.57611 0.42579
#
# Static dielectric constant tensor:
#      x y z
#    x 1.740070 0.000000 0.000000 
#    y 0.000000 1.681910 0.000000 
#    z 0.000000 0.000000 1.841950 
# 
# From -- ./inp_files/12743.got.cif
#   From: 2010.05.17/outbox.cif.g08.bks.cpg/sg22_7_cif.got.tgz:12743.got - 2010.06.03 23:40:54.
