data_PCOD9326483
_publ_section_title
;
Structure prediction by ZEFSAII (Michael W. Deem and Ramdas Pophale) SiO2 
 PCOD9326483
Probable space group: F 2 2 2
;
_chemical_formula_sum "Si O2"
_cell_formula_units_Z 96
_cell_length_a 12.238181
_cell_length_b 17.274748
_cell_length_c 19.609095
_cell_angle_alpha 90.000000
_cell_angle_beta 90.000000
_cell_angle_gamma 90.000000
_cell_volume 4145.588045
_symmetry_space_group_name_H-M "F 2 2 2"
_symmetry_group_IT_number 22
_symmetry_cell_setting 'orthorhombic'
loop_
_space_group_symop_operation_xyz
x,y,z
-x,-y,z
x,-y,-z
-x,y,-z
x,1/2+y,1/2+z
-x,1/2-y,1/2+z
x,1/2-y,1/2-z
-x,1/2+y,1/2-z
1/2+x,y,1/2+z
1/2-x,-y,1/2+z
1/2+x,-y,1/2-z
1/2-x,y,1/2-z
1/2+x,1/2+y,z
1/2-x,1/2-y,z
1/2+x,1/2-y,-z
1/2-x,1/2+y,-z
loop_
_atom_site_type_symbol
_atom_site_label
_atom_site_fract_x
_atom_site_fract_y
_atom_site_fract_z
Si Si1 0.597219 0.764497 0.601638
Si Si2 0.916956 0.398120 0.295843
Si Si3 0.136503 0.233477 0.453696
Si Si4 0.143434 0.427498 0.090279
Si Si5 0.098082 0.407112 0.862301
Si Si6 0.334040 0.562167 0.813540
O O1 0.620694 0.823291 0.662382
O O2 0.636786 0.780493 0.524710
O O3 0.466433 0.758632 0.590536
O O4 0.635860 0.677849 0.617168
O O5 0.622235 0.411420 0.281781
O O6 0.870315 0.474616 0.331478
O O7 0.049783 0.398157 0.297781
O O8 0.250000 0.250000 0.418094
O O9 0.127090 0.140112 0.465897
O O10 0.138302 0.521692 0.089766
O O11 0.259055 0.409564 0.124741
O O12 0.034271 0.411819 0.134621
O O13 0.250000 0.565076 0.750000
#
# Coordination Sequence:
#
# PCOD9326483 Si02
#       6
#    16  16  16  16  16  16
#     4  10  23  39  59  86 126 167 206 262 315 371
#     4  11  21  36  60  92 130 159 195 262 329 384
#     4  10  22  42  61  83 118 169 220 261 307 366
#     4  10  19  36  62  88 120 159 209 262 305 377
#     4  10  19  35  60  91 122 160 204 256 326 378
#     4  11  19  35  61  92 122 157 200 254 318 380
#
# _framework density 23.157150000000001
#
# number of rings (size 3 to 8) (size 9 to 14) (size 15 to 20)
#    0.000    1.667    3.333    2.500    0.000    2.000 
#    0.000    3.333    0.000   16.000    0.000    0.000 
#    0.000    0.000    0.000    0.000    0.000    0.000 
#
# Total GULP energy -133765.733150 kJ/mol
# GULP energy per Si atom -5573.572215 kJ/mol
# Density = 2.310444 g / cm^3
# Si number density = 23.157150 Si / 1000 Ang^3
#
#
#
# Elastic Constant Matrix: (Units=GPa)
#
#
# Indices 1 2 3 4 5 6 
#
# 1 122.8401 -13.0090 1.5432 0.0000 0.0000 0.0000
# 2 -13.0090 119.9763 30.2211 0.0000 0.0000 0.0000
# 3 1.5432 30.2211 27.7539 0.0000 0.0000 0.0000
# 4 0.0000 0.0000 0.0000 30.7798 0.0000 0.0000
# 5 0.0000 0.0000 0.0000 0.0000 12.3697 0.0000
# 6 0.0000 0.0000 0.0000 0.0000 0.0000 8.3177
#
#
#
# Elastic Compliance Matrix: (Units=1/GPa)
#
#
# Indices 1 2 3 4 5 6 
#
# 1 0.008314 0.001403 -0.001990 0.000000 0.000000 0.000000
# 2 0.001403 0.011722 -0.012842 0.000000 0.000000 0.000000
# 3 -0.001990 -0.012842 0.050125 0.000000 0.000000 0.000000
# 4 0.000000 0.000000 0.000000 0.032489 0.000000 0.000000
# 5 0.000000 0.000000 0.000000 0.000000 0.080843 0.000000
# 6 0.000000 0.000000 0.000000 0.000000 0.000000 0.120226
#
#
# Mechanical properties :
#
#
# Convention : Reuss Voigt Hill
#
# Bulk Modulus (GPa) = 23.09289 34.23123 28.66206
# Shear Modulus (GPa) = 14.49229 27.08110 20.78669
#
# Velocity S-wave (km/s) = 2.50436 3.42343 2.99931
# Velocity P-wave (km/s) = 4.28443 5.51731 4.93949
#
# Compressibility (1/GPa) = 0.04330338
#
# Stress axis : x y z
#
# Youngs Moduli (GPa) = 120.27607 85.31087 19.95012
#
# Poissons Ratio (x) = -0.11966 0.03969
# Poissons Ratio (y) = -0.16871 0.25620
# Poissons Ratio (z) = 0.23931 1.09555
#
# Static dielectric constant tensor:
#      x y z
#    x 1.897300 0.000000 0.000000 
#    y 0.000000 1.915480 0.000000 
#    z 0.000000 0.000000 1.883270 
# 
# From -- ./inp_files/48148.got.cif
#   From: 2010.05.17/outbox.cif.g08.bks.cpg/sg22_25_cif.got.tgz:48148.got - 2010.06.03 23:40:54.
