data_PCOD9326712
_publ_section_title
;
Structure prediction by ZEFSAII (Michael W. Deem and Ramdas Pophale) SiO2 
 PCOD9326712
Probable space group: F 2 2 2
;
_chemical_formula_sum "Si O2"
_cell_formula_units_Z 68
_cell_length_a 5.479054
_cell_length_b 37.693730
_cell_length_c 14.153305
_cell_angle_alpha 90.000000
_cell_angle_beta 90.000000
_cell_angle_gamma 90.000000
_cell_volume 2923.025216
_symmetry_space_group_name_H-M "F 2 2 2"
_symmetry_group_IT_number 22
_symmetry_cell_setting 'orthorhombic'
loop_
_space_group_symop_operation_xyz
x,y,z
-x,-y,z
x,-y,-z
-x,y,-z
x,1/2+y,1/2+z
-x,1/2-y,1/2+z
x,1/2-y,1/2-z
-x,1/2+y,1/2-z
1/2+x,y,1/2+z
1/2-x,-y,1/2+z
1/2+x,-y,1/2-z
1/2-x,y,1/2-z
1/2+x,1/2+y,z
1/2-x,1/2-y,z
1/2+x,1/2-y,-z
1/2-x,1/2+y,-z
loop_
_atom_site_type_symbol
_atom_site_label
_atom_site_fract_x
_atom_site_fract_y
_atom_site_fract_z
Si Si1 0.000000 0.500000 0.500000
Si Si2 0.001241 0.264821 0.356059
Si Si3 0.107107 0.464479 0.892874
Si Si4 0.001389 0.613115 0.884482
Si Si5 0.502392 0.152303 0.385860
O O1 0.118494 0.527203 0.423714
O O2 0.001093 0.250000 0.250000
O O3 0.250000 0.250000 0.400056
O O4 0.008423 0.307138 0.353733
O O5 0.750000 0.250000 0.398424
O O6 0.000000 0.500000 0.845464
O O7 0.039035 0.427137 0.848983
O O8 0.000000 0.464049 0.000000
O O9 0.259561 0.630553 0.857173
O O10 0.760917 0.635244 0.857358
O O11 0.000000 0.611880 0.000000
O O12 0.500000 0.152794 0.500000
#
# Coordination Sequence:
#
# PCOD9326712 Si02
#       5
#     4  16  16  16  16
#     4   8  14  20  36  54  84 128 194 208 234 280
#     4  10  21  37  56  74  95 126 161 206 256 308
#     4   8  15  22  35  57  86 133 181 208 234 283
#     4   9  18  28  43  64 100 134 169 211 246 287
#     4  10  20  32  48  73  99 131 166 205 257 301
#
# _framework density 23.263569
#
# number of rings (size 3 to 8) (size 9 to 14) (size 15 to 20)
#    0.000    3.059    0.000    1.412   11.529    0.941 
#    0.000    0.000    0.000    0.000    0.000    0.000 
#    0.000    0.000    0.000   84.706    0.000   37.647 
#
# Total GULP energy -94788.072647 kJ/mol
# GULP energy per Si atom -5575.768979 kJ/mol
# Density = 2.321062 g / cm^3
# Si number density = 23.263569 Si / 1000 Ang^3
#
#
#
# Elastic Constant Matrix: (Units=GPa)
#
#
# Indices 1 2 3 4 5 6 
#
# 1 197.1107 115.7268 6.6195 0.0000 0.0000 0.0000
# 2 115.7268 262.5842 12.4685 0.0000 0.0000 0.0000
# 3 6.6195 12.4685 88.2807 0.0000 0.0000 0.0000
# 4 0.0000 0.0000 0.0000 48.8175 0.0000 0.0000
# 5 0.0000 0.0000 0.0000 0.0000 -26.2234 0.0000
# 6 0.0000 0.0000 0.0000 0.0000 0.0000 65.3500
#
#
#
# Elastic Compliance Matrix: (Units=1/GPa)
#
#
# Indices 1 2 3 4 5 6 
#
# 1 0.006845 -0.003013 -0.000088 0.000000 0.000000 0.000000
# 2 -0.003013 0.005160 -0.000503 0.000000 0.000000 0.000000
# 3 -0.000088 -0.000503 0.011405 0.000000 0.000000 0.000000
# 4 0.000000 0.000000 0.000000 0.020484 0.000000 0.000000
# 5 0.000000 0.000000 0.000000 0.000000 -0.038134 0.000000
# 6 0.000000 0.000000 0.000000 0.000000 0.000000 0.015302
#
#
# Mechanical properties :
#
#
# Convention : Reuss Voigt Hill
#
# Bulk Modulus (GPa) = 61.71488 90.84502 76.27995
# Shear Modulus (GPa) = 148.49900 45.13290 96.81595
#
# Velocity S-wave (km/s) = 7.99824 4.40940 6.45812
# Velocity P-wave (km/s) = 10.57743 8.06591 9.40587
#
# Compressibility (1/GPa) = 0.01620355
#
# Stress axis : x y z
#
# Youngs Moduli (GPa) = 146.09286 193.80280 87.68000
#
# Poissons Ratio (x) = 0.58384 0.00770
# Poissons Ratio (y) = 0.44011 0.04409
# Poissons Ratio (z) = 0.01282 0.09746
#
# Static dielectric constant tensor:
#      x y z
#    x 1.045240 0.000000 0.000000 
#    y 0.000000 1.870930 0.000000 
#    z 0.000000 0.000000 1.828100 
# 
# From -- ./inp_files/3969.got.cif
#   From: 2010.05.17/outbox.cif.g08.bks.cpg/sg22_2_cif.got.tgz:3969.got - 2010.06.03 23:40:54.
