data_PCOD9326219
_publ_section_title
;
Structure prediction by ZEFSAII (Michael W. Deem and Ramdas Pophale) SiO2 
 PCOD9326219
Probable space group: F 2 2 2
;
_chemical_formula_sum "Si O2"
_cell_formula_units_Z 80
_cell_length_a 22.951796
_cell_length_b 11.866112
_cell_length_c 14.557019
_cell_angle_alpha 90.000000
_cell_angle_beta 90.000000
_cell_angle_gamma 90.000000
_cell_volume 3964.583482
_symmetry_space_group_name_H-M "F 2 2 2"
_symmetry_group_IT_number 22
_symmetry_cell_setting 'orthorhombic'
loop_
_space_group_symop_operation_xyz
x,y,z
-x,-y,z
x,-y,-z
-x,y,-z
x,1/2+y,1/2+z
-x,1/2-y,1/2+z
x,1/2-y,1/2-z
-x,1/2+y,1/2-z
1/2+x,y,1/2+z
1/2-x,-y,1/2+z
1/2+x,-y,1/2-z
1/2-x,y,1/2-z
1/2+x,1/2+y,z
1/2-x,1/2-y,z
1/2+x,1/2-y,-z
1/2-x,1/2+y,-z
loop_
_atom_site_type_symbol
_atom_site_label
_atom_site_fract_x
_atom_site_fract_y
_atom_site_fract_z
Si Si1 0.624828 0.819040 0.497660
Si Si2 0.000000 0.000000 0.717565
Si Si3 0.431915 0.105480 0.068175
Si Si4 0.250000 0.750000 0.921373
Si Si5 0.674742 0.626090 0.294924
Si Si6 0.387099 0.988962 0.344691
O O1 0.578235 0.718901 0.488553
O O2 0.691285 0.778664 0.476276
O O3 0.623428 0.878612 0.595686
O O4 0.608048 0.909690 0.418962
O O5 0.981954 0.099112 0.645950
O O6 0.055283 0.021272 0.782390
O O7 0.373334 0.099228 0.128288
O O8 0.436026 0.000000 0.000000
O O9 0.266628 0.851824 0.851919
O O10 0.660780 0.750000 0.250000
O O11 0.665088 0.528233 0.221772
#
# Coordination Sequence:
#
# PCOD9326219 Si02
#       6
#    16   8  16   8  16  16
#     4  10  22  40  64  95 135 160 216 266 314 389
#     4  10  23  41  62  92 122 168 218 251 335 360
#     4  10  21  42  59  95 127 164 210 262 313 385
#     4  10  19  36  64 100 125 176 208 257 326 370
#     4  10  18  36  64  95 127 161 219 254 303 381
#     4  10  21  41  63  99 123 166 216 268 308 377
#
# _framework density 20.178664000000001
#
# number of rings (size 3 to 8) (size 9 to 14) (size 15 to 20)
#    0.000    2.000    4.000    0.600    0.000    1.600 
#   25.200    3.000    0.000    0.000    0.000    0.000 
#    0.000    0.000    0.000    0.000    0.000    0.000 
#
# Total GULP energy -111464.445406 kJ/mol
# GULP energy per Si atom -5573.222270 kJ/mol
# Density = 2.013274 g / cm^3
# Si number density = 20.178664 Si / 1000 Ang^3
#
#
#
# Elastic Constant Matrix: (Units=GPa)
#
#
# Indices 1 2 3 4 5 6 
#
# 1 133.1910 47.2247 62.7263 0.0000 0.0000 0.0000
# 2 47.2247 95.3416 64.6305 0.0000 0.0000 0.0000
# 3 62.7263 64.6305 122.6679 0.0000 0.0000 0.0000
# 4 0.0000 0.0000 0.0000 42.8237 0.0000 0.0000
# 5 0.0000 0.0000 0.0000 0.0000 134.2100 0.0000
# 6 0.0000 0.0000 0.0000 0.0000 0.0000 25.3939
#
#
#
# Elastic Compliance Matrix: (Units=1/GPa)
#
#
# Indices 1 2 3 4 5 6 
#
# 1 0.010221 -0.002364 -0.003981 0.000000 0.000000 0.000000
# 2 -0.002364 0.016863 -0.007676 0.000000 0.000000 0.000000
# 3 -0.003981 -0.007676 0.014232 0.000000 0.000000 0.000000
# 4 0.000000 0.000000 0.000000 0.023352 0.000000 0.000000
# 5 0.000000 0.000000 0.000000 0.000000 0.007451 0.000000
# 6 0.000000 0.000000 0.000000 0.000000 0.000000 0.039380
#
#
# Mechanical properties :
#
#
# Convention : Reuss Voigt Hill
#
# Bulk Modulus (GPa) = 75.33375 77.81818 76.57596
# Shear Modulus (GPa) = 34.73085 52.26012 43.49548
#
# Velocity S-wave (km/s) = 4.15320 5.09460 4.64779
# Velocity P-wave (km/s) = 7.77259 8.55891 8.17521
#
# Compressibility (1/GPa) = 0.01327426
#
# Stress axis : x y z
#
# Youngs Moduli (GPa) = 97.83712 59.30205 70.26465
#
# Poissons Ratio (x) = 0.14019 0.27972
# Poissons Ratio (y) = 0.23129 0.53933
# Poissons Ratio (z) = 0.38949 0.45519
#
# Static dielectric constant tensor:
#      x y z
#    x 1.746250 0.000000 0.000000 
#    y 0.000000 1.670660 0.000000 
#    z 0.000000 0.000000 1.743280 
# 
# From -- ./inp_files/32293.got.cif
#   From: 2010.05.17/outbox.cif.g08.bks.cpg/sg22_17_cif.got.tgz:32293.got - 2010.06.03 23:40:54.
