data_PCOD9326138
_publ_section_title
;
Structure prediction by ZEFSAII (Michael W. Deem and Ramdas Pophale) SiO2 
 PCOD9326138
Probable space group: F 2 2 2
;
_chemical_formula_sum "Si O2"
_cell_formula_units_Z 120
_cell_length_a 14.760518
_cell_length_b 27.709159
_cell_length_c 11.985287
_cell_angle_alpha 90.000000
_cell_angle_beta 90.000000
_cell_angle_gamma 90.000000
_cell_volume 4902.000843
_symmetry_space_group_name_H-M "F 2 2 2"
_symmetry_group_IT_number 22
_symmetry_cell_setting 'orthorhombic'
loop_
_space_group_symop_operation_xyz
x,y,z
-x,-y,z
x,-y,-z
-x,y,-z
x,1/2+y,1/2+z
-x,1/2-y,1/2+z
x,1/2-y,1/2-z
-x,1/2+y,1/2-z
1/2+x,y,1/2+z
1/2-x,-y,1/2+z
1/2+x,-y,1/2-z
1/2-x,y,1/2-z
1/2+x,1/2+y,z
1/2-x,1/2-y,z
1/2+x,1/2-y,-z
1/2-x,1/2+y,-z
loop_
_atom_site_type_symbol
_atom_site_label
_atom_site_fract_x
_atom_site_fract_y
_atom_site_fract_z
Si Si1 0.250000 0.072382 0.250000
Si Si2 0.393381 0.679147 0.479389
Si Si3 0.348025 0.558380 0.279028
Si Si4 0.307978 0.575412 0.508392
Si Si5 0.395549 0.334346 0.769538
Si Si6 0.409762 0.129969 0.355650
Si Si7 0.606176 0.053433 0.453195
Si Si8 0.610987 0.282923 0.002106
O O1 0.213584 0.052203 0.370593
O O2 0.336825 0.104416 0.280040
O O3 0.500000 0.670315 0.500000
O O4 0.341547 0.630795 0.515461
O O5 0.389942 0.692355 0.347550
O O6 0.359452 0.729329 0.531267
O O7 0.250000 0.535580 0.250000
O O8 0.369821 0.551704 0.410247
O O9 0.345054 0.616151 0.260175
O O10 0.416608 0.546016 0.178356
O O11 0.209457 0.572917 0.451407
O O12 0.498322 0.351548 0.798192
O O13 0.362412 0.304445 0.876482
O O14 0.429173 0.089923 0.450918
O O15 0.365238 0.176047 0.414387
O O16 0.601349 0.000000 0.500000
O O17 0.500000 0.281167 0.000000
#
# Coordination Sequence:
#
# PCOD9326138 Si02
#       8
#     8  16  16  16  16  16  16  16
#     4  10  20  38  57  80 120 166 204 250 319 376
#     4  10  19  33  57  86 117 163 208 242 307 390
#     4   9  18  35  59  83 117 154 195 250 317 365
#     4   9  20  37  56  82 116 154 205 252 309 374
#     4  10  18  33  60  85 122 157 198 255 304 371
#     4  10  20  36  58  87 125 162 202 263 319 370
#     4  10  20  38  61  87 116 160 206 255 319 383
#     4   9  18  32  55  85 117 156 205 248 310 374
#
# _framework density 24.479800000000001
#
# number of rings (size 3 to 8) (size 9 to 14) (size 15 to 20)
#    0.000    2.400    1.333    1.200    0.000    0.000 
#   14.400    6.667    0.000    1.200    0.000    0.000 
#    0.000    0.000    0.000    0.000    0.000    0.000 
#
# Total GULP energy -167128.399086 kJ/mol
# GULP energy per Si atom -5570.946636 kJ/mol
# Density = 2.442408 g / cm^3
# Si number density = 24.479800 Si / 1000 Ang^3
#
#
#
# Elastic Constant Matrix: (Units=GPa)
#
#
# Indices 1 2 3 4 5 6 
#
# 1 55.8815 1.6386 9.9476 0.0000 0.0000 0.0000
# 2 1.6386 122.2719 29.7613 0.0000 0.0000 0.0000
# 3 9.9476 29.7613 166.4728 0.0000 0.0000 0.0000
# 4 0.0000 0.0000 0.0000 -1.3807 0.0000 0.0000
# 5 0.0000 0.0000 0.0000 0.0000 31.2590 0.0000
# 6 0.0000 0.0000 0.0000 0.0000 0.0000 -14.0299
#
#
#
# Elastic Compliance Matrix: (Units=1/GPa)
#
#
# Indices 1 2 3 4 5 6 
#
# 1 0.018087 0.000022 -0.001085 0.000000 0.000000 0.000000
# 2 0.000022 0.008551 -0.001530 0.000000 0.000000 0.000000
# 3 -0.001085 -0.001530 0.006345 0.000000 0.000000 0.000000
# 4 0.000000 0.000000 0.000000 -0.724273 0.000000 0.000000
# 5 0.000000 0.000000 0.000000 0.000000 0.031991 0.000000
# 6 0.000000 0.000000 0.000000 0.000000 0.000000 -0.071276
#
#
# Mechanical properties :
#
#
# Convention : Reuss Voigt Hill
#
# Bulk Modulus (GPa) = 35.97458 47.48012 41.72735
# Shear Modulus (GPa) = -6.98204 23.38824 8.20310
#
# Velocity S-wave (km/s) = -1.69067 3.09432 1.83255
# Velocity P-wave (km/s) = 3.30399 5.67487 4.64331
#
# Compressibility (1/GPa) = 0.02779740
#
# Stress axis : x y z
#
# Youngs Moduli (GPa) = 55.28687 116.95092 157.59655
#
# Poissons Ratio (x) = -0.00253 0.17094
# Poissons Ratio (y) = -0.00120 0.24111
# Poissons Ratio (z) = 0.05997 0.17893
#
# Static dielectric constant tensor:
#      x y z
#    x 7.026720 0.000000 0.000000 
#    y 0.000000 1.952220 0.000000 
#    z 0.000000 0.000000 2.271580 
# 
# From -- ./inp_files/23113.got.cif
#   From: 2010.05.17/outbox.cif.g08.bks.cpg/sg22_12_cif.got.tgz:23113.got - 2010.06.03 23:40:54.
