data_PCOD9326265
_publ_section_title
;
Structure prediction by ZEFSAII (Michael W. Deem and Ramdas Pophale) SiO2 
 PCOD9326265
Probable space group: F 2 2 2
;
_chemical_formula_sum "Si O2"
_cell_formula_units_Z 88
_cell_length_a 11.699735
_cell_length_b 20.367089
_cell_length_c 18.438242
_cell_angle_alpha 90.000000
_cell_angle_beta 90.000000
_cell_angle_gamma 90.000000
_cell_volume 4393.640279
_symmetry_space_group_name_H-M "F 2 2 2"
_symmetry_group_IT_number 22
_symmetry_cell_setting 'orthorhombic'
loop_
_space_group_symop_operation_xyz
x,y,z
-x,-y,z
x,-y,-z
-x,y,-z
x,1/2+y,1/2+z
-x,1/2-y,1/2+z
x,1/2-y,1/2-z
-x,1/2+y,1/2-z
1/2+x,y,1/2+z
1/2-x,-y,1/2+z
1/2+x,-y,1/2-z
1/2-x,y,1/2-z
1/2+x,1/2+y,z
1/2-x,1/2-y,z
1/2+x,1/2-y,-z
1/2-x,1/2+y,-z
loop_
_atom_site_type_symbol
_atom_site_label
_atom_site_fract_x
_atom_site_fract_y
_atom_site_fract_z
Si Si1 0.256202 0.576417 0.860592
Si Si2 0.340306 0.435428 0.814271
Si Si3 0.935443 0.889173 0.259774
Si Si4 0.166004 0.805998 0.941674
Si Si5 0.945774 0.750000 0.750000
Si Si6 0.901732 0.192893 0.104296
O O1 0.300740 0.501791 0.854769
O O2 0.126985 0.583124 0.831195
O O3 0.337696 0.610541 0.800980
O O4 0.279032 0.621739 0.930114
O O5 0.250000 0.422033 0.750000
O O6 0.460882 0.432693 0.771412
O O7 0.355605 0.378332 0.872775
O O8 0.981926 0.815526 0.266414
O O9 0.250000 0.750000 0.910206
O O10 0.039496 0.806291 0.906806
O O11 0.147560 0.790148 0.026295
O O12 0.878889 0.763720 0.824516
#
# Coordination Sequence:
#
# PCOD9326265 Si02
#       6
#    16  16  16  16   8  16
#     4  11  21  34  63  91 130 168 205 276 318 388
#     4  11  22  39  62  95 134 169 220 267 328 387
#     4  10  21  34  60  98 125 164 215 273 323 374
#     4  11  23  41  61  91 127 166 213 270 336 382
#     4  10  18  39  63  90 126 162 217 265 322 384
#     4  10  24  40  62  90 129 167 212 272 321 406
#
# _framework density 20.028949000000001
#
# number of rings (size 3 to 8) (size 9 to 14) (size 15 to 20)
#    0.000    1.455    5.455    1.636    0.000    4.364 
#    0.000    5.909    0.000    0.000    0.000    2.545 
#    0.000    0.000    0.000    0.000    0.000    0.000 
#
# Total GULP energy -122602.940441 kJ/mol
# GULP energy per Si atom -5572.860929 kJ/mol
# Density = 1.998336 g / cm^3
# Si number density = 20.028949 Si / 1000 Ang^3
#
#
#
# Elastic Constant Matrix: (Units=GPa)
#
#
# Indices 1 2 3 4 5 6 
#
# 1 84.8402 30.4904 9.3326 0.0000 0.0000 0.0000
# 2 30.4904 129.3688 7.4412 0.0000 0.0000 0.0000
# 3 9.3326 7.4412 75.0751 0.0000 0.0000 0.0000
# 4 0.0000 0.0000 0.0000 248.1492 0.0000 0.0000
# 5 0.0000 0.0000 0.0000 0.0000 27.3615 0.0000
# 6 0.0000 0.0000 0.0000 0.0000 0.0000 39.6094
#
#
#
# Elastic Compliance Matrix: (Units=1/GPa)
#
#
# Indices 1 2 3 4 5 6 
#
# 1 0.013007 -0.002989 -0.001321 0.000000 0.000000 0.000000
# 2 -0.002989 0.008461 -0.000467 0.000000 0.000000 0.000000
# 3 -0.001321 -0.000467 0.013530 0.000000 0.000000 0.000000
# 4 0.000000 0.000000 0.000000 0.004030 0.000000 0.000000
# 5 0.000000 0.000000 0.000000 0.000000 0.036548 0.000000
# 6 0.000000 0.000000 0.000000 0.000000 0.000000 0.025247
#
#
# Mechanical properties :
#
#
# Convention : Reuss Voigt Hill
#
# Bulk Modulus (GPa) = 39.30183 42.64585 40.97384
# Shear Modulus (GPa) = 42.06710 79.15870 60.61290
#
# Velocity S-wave (km/s) = 4.58789 6.29348 5.50712
# Velocity P-wave (km/s) = 6.90870 8.61098 7.80638
#
# Compressibility (1/GPa) = 0.02544411
#
# Stress axis : x y z
#
# Youngs Moduli (GPa) = 76.88459 118.18540 73.90746
#
# Poissons Ratio (x) = 0.35331 0.09760
# Poissons Ratio (y) = 0.22985 0.03452
# Poissons Ratio (z) = 0.10153 0.05520
#
# Static dielectric constant tensor:
#      x y z
#    x 1.345520 0.000000 0.000000 
#    y 0.000000 1.822260 0.000000 
#    z 0.000000 0.000000 1.720910 
# 
# From -- ./inp_files/36097.got.cif
#   From: 2010.05.17/outbox.cif.g08.bks.cpg/sg22_19_cif.got.tgz:36097.got - 2010.06.03 23:40:54.
