data_PCOD9326676
_publ_section_title
;
Structure prediction by ZEFSAII (Michael W. Deem and Ramdas Pophale) SiO2 
 PCOD9326676
Probable space group: F 2 2 2
;
_chemical_formula_sum "Si O2"
_cell_formula_units_Z 96
_cell_length_a 24.554375
_cell_length_b 16.338023
_cell_length_c 12.112627
_cell_angle_alpha 90.000000
_cell_angle_beta 90.000000
_cell_angle_gamma 90.000000
_cell_volume 4859.221889
_symmetry_space_group_name_H-M "F 2 2 2"
_symmetry_group_IT_number 22
_symmetry_cell_setting 'orthorhombic'
loop_
_space_group_symop_operation_xyz
x,y,z
-x,-y,z
x,-y,-z
-x,y,-z
x,1/2+y,1/2+z
-x,1/2-y,1/2+z
x,1/2-y,1/2-z
-x,1/2+y,1/2-z
1/2+x,y,1/2+z
1/2-x,-y,1/2+z
1/2+x,-y,1/2-z
1/2-x,y,1/2-z
1/2+x,1/2+y,z
1/2-x,1/2-y,z
1/2+x,1/2-y,-z
1/2-x,1/2+y,-z
loop_
_atom_site_type_symbol
_atom_site_label
_atom_site_fract_x
_atom_site_fract_y
_atom_site_fract_z
Si Si1 0.092517 0.379962 0.505889
Si Si2 0.561011 0.010662 0.691541
Si Si3 0.250000 0.990193 0.750000
Si Si4 0.855334 0.960066 0.622210
Si Si5 0.750000 0.250000 0.059749
Si Si6 0.627428 0.770966 0.872749
Si Si7 0.283361 0.087283 0.456195
O O1 0.069969 0.435352 0.605472
O O2 0.067515 0.410268 0.389706
O O3 0.094318 0.285042 0.540474
O O4 0.156186 0.402496 0.499710
O O5 0.500000 0.000000 0.734868
O O6 0.604201 0.004974 0.790951
O O7 0.283265 0.929093 0.672364
O O8 0.203753 0.041156 0.685292
O O9 0.875494 0.867273 0.608505
O O10 0.853735 0.000000 0.500000
O O11 0.750681 0.333571 0.988913
O O12 0.692205 0.252010 0.121596
O O13 0.608065 0.750000 0.750000
O O14 0.263344 0.000000 0.500000
#
# Coordination Sequence:
#
# PCOD9326676 Si02
#       7
#    16  16   8  16   8  16  16
#     4  10  19  40  66  98 122 162 223 281 326 381
#     4  11  22  42  73  96 123 169 231 280 333 405
#     4  12  22  37  65  90 136 186 222 249 332 411
#     4  12  26  43  66 100 139 183 216 278 344 405
#     4  10  23  33  54  96 128 172 219 265 326 376
#     4  11  22  36  62  96 137 167 220 273 326 392
#     4  11  20  36  55  87 129 169 213 270 316 396
#
# _framework density 19.756250000000001
#
# number of rings (size 3 to 8) (size 9 to 14) (size 15 to 20)
#    0.000    1.000    5.000    3.750    4.667    0.667 
#    0.000    0.833   11.000    0.000    0.000    0.000 
#    0.000    0.000    0.000    0.000    0.000    0.000 
#
# Total GULP energy -133804.690037 kJ/mol
# GULP energy per Si atom -5575.195418 kJ/mol
# Density = 1.971128 g / cm^3
# Si number density = 19.756250 Si / 1000 Ang^3
#
#
#
# Elastic Constant Matrix: (Units=GPa)
#
#
# Indices 1 2 3 4 5 6 
#
# 1 84.7150 13.3973 29.3817 0.0000 0.0000 0.0000
# 2 13.3973 139.1937 59.1293 0.0000 0.0000 0.0000
# 3 29.3817 59.1293 101.9078 0.0000 0.0000 0.0000
# 4 0.0000 0.0000 0.0000 26.0952 0.0000 0.0000
# 5 0.0000 0.0000 0.0000 0.0000 9.9455 0.0000
# 6 0.0000 0.0000 0.0000 0.0000 0.0000 20.8404
#
#
#
# Elastic Compliance Matrix: (Units=1/GPa)
#
#
# Indices 1 2 3 4 5 6 
#
# 1 0.013138 0.000457 -0.004053 0.000000 0.000000 0.000000
# 2 0.000457 0.009550 -0.005673 0.000000 0.000000 0.000000
# 3 -0.004053 -0.005673 0.014273 0.000000 0.000000 0.000000
# 4 0.000000 0.000000 0.000000 0.038321 0.000000 0.000000
# 5 0.000000 0.000000 0.000000 0.000000 0.100548 0.000000
# 6 0.000000 0.000000 0.000000 0.000000 0.000000 0.047984
#
#
# Mechanical properties :
#
#
# Convention : Reuss Voigt Hill
#
# Bulk Modulus (GPa) = 54.27989 58.84812 56.56400
# Shear Modulus (GPa) = 20.12132 26.30343 23.21238
#
# Velocity S-wave (km/s) = 3.19482 3.65279 3.43146
# Velocity P-wave (km/s) = 6.41433 6.90234 6.66280
#
# Compressibility (1/GPa) = 0.01842303
#
# Stress axis : x y z
#
# Youngs Moduli (GPa) = 76.11665 104.71071 70.06230
#
# Poissons Ratio (x) = -0.04788 0.28397
# Poissons Ratio (y) = -0.03481 0.39747
# Poissons Ratio (z) = 0.30851 0.59403
#
# Static dielectric constant tensor:
#      x y z
#    x 1.711670 0.000000 0.000000 
#    y 0.000000 1.745200 0.000000 
#    z 0.000000 0.000000 1.729190 
# 
# From -- ./inp_files/23843.got.cif
#   From: 2010.05.17/outbox.cif.g08.bks.cpg/sg22_12_cif.got.tgz:23843.got - 2010.06.03 23:40:54.
