data_PCOD9326631
_publ_section_title
;
Structure prediction by ZEFSAII (Michael W. Deem and Ramdas Pophale) SiO2 
 PCOD9326631
Probable space group: F 2 2 2
;
_chemical_formula_sum "Si O2"
_cell_formula_units_Z 80
_cell_length_a 12.784158
_cell_length_b 16.831741
_cell_length_c 17.152852
_cell_angle_alpha 90.000000
_cell_angle_beta 90.000000
_cell_angle_gamma 90.000000
_cell_volume 3690.944456
_symmetry_space_group_name_H-M "F 2 2 2"
_symmetry_group_IT_number 22
_symmetry_cell_setting 'orthorhombic'
loop_
_space_group_symop_operation_xyz
x,y,z
-x,-y,z
x,-y,-z
-x,y,-z
x,1/2+y,1/2+z
-x,1/2-y,1/2+z
x,1/2-y,1/2-z
-x,1/2+y,1/2-z
1/2+x,y,1/2+z
1/2-x,-y,1/2+z
1/2+x,-y,1/2-z
1/2-x,y,1/2-z
1/2+x,1/2+y,z
1/2-x,1/2-y,z
1/2+x,1/2-y,-z
1/2-x,1/2+y,-z
loop_
_atom_site_type_symbol
_atom_site_label
_atom_site_fract_x
_atom_site_fract_y
_atom_site_fract_z
Si Si1 0.068823 0.164884 0.105218
Si Si2 0.000000 0.500000 0.331430
Si Si3 0.865792 0.105734 0.282128
Si Si4 0.856713 0.758492 0.958887
Si Si5 0.616173 0.577745 0.534738
Si Si6 0.524373 0.250000 0.750000
O O1 0.047511 0.072254 0.118508
O O2 0.956980 0.207703 0.085251
O O3 0.096070 0.209411 0.184589
O O4 0.144839 0.184902 0.034371
O O5 0.912961 0.460834 0.275615
O O6 0.750000 0.124962 0.250000
O O7 0.869655 0.076579 0.371747
O O8 0.946521 0.179491 0.277574
O O9 0.750000 0.750000 0.909953
O O10 0.863208 0.668638 0.988568
O O11 0.673762 0.500000 0.500000
O O12 0.500000 0.571971 0.500000
#
# Coordination Sequence:
#
# PCOD9326631 Si02
#       6
#    16   8  16  16  16   8
#     4  10  22  42  61  90 126 167 208 261 321 391
#     4  10  24  39  61  94 132 174 206 264 334 381
#     4  11  23  38  65  97 130 168 223 268 321 388
#     4  11  23  40  63  91 124 165 216 255 318 382
#     4  11  22  40  66  93 129 164 213 274 323 374
#     4  10  19  38  69  88 126 166 211 268 321 366
#
# _framework density 21.674669999999999
#
# number of rings (size 3 to 8) (size 9 to 14) (size 15 to 20)
#    0.000    1.400    4.000    1.500    5.600    4.800 
#    0.000    0.500    0.000    0.000    0.000    0.000 
#    0.000    0.000    0.000    0.000    0.000    0.000 
#
# Total GULP energy -111420.165851 kJ/mol
# GULP energy per Si atom -5571.008293 kJ/mol
# Density = 2.162534 g / cm^3
# Si number density = 21.674670 Si / 1000 Ang^3
#
#
#
# Elastic Constant Matrix: (Units=GPa)
#
#
# Indices 1 2 3 4 5 6 
#
# 1 50.9572 -4.2260 -2.7871 0.0000 0.0000 0.0000
# 2 -4.2260 163.1260 47.6076 0.0000 0.0000 0.0000
# 3 -2.7871 47.6076 107.5246 0.0000 0.0000 0.0000
# 4 0.0000 0.0000 0.0000 40.0439 0.0000 0.0000
# 5 0.0000 0.0000 0.0000 0.0000 9.4179 0.0000
# 6 0.0000 0.0000 0.0000 0.0000 0.0000 -2.6225
#
#
#
# Elastic Compliance Matrix: (Units=1/GPa)
#
#
# Indices 1 2 3 4 5 6 
#
# 1 0.019677 0.000414 0.000327 0.000000 0.000000 0.000000
# 2 0.000414 0.007049 -0.003110 0.000000 0.000000 0.000000
# 3 0.000327 -0.003110 0.010686 0.000000 0.000000 0.000000
# 4 0.000000 0.000000 0.000000 0.024973 0.000000 0.000000
# 5 0.000000 0.000000 0.000000 0.000000 0.106181 0.000000
# 6 0.000000 0.000000 0.000000 0.000000 0.000000 -0.381308
#
#
# Mechanical properties :
#
#
# Convention : Reuss Voigt Hill
#
# Bulk Modulus (GPa) = 30.60670 44.75521 37.68095
# Shear Modulus (GPa) = -25.36593 28.10207 1.36807
#
# Velocity S-wave (km/s) = -3.42468 3.60466 0.79533
# Velocity P-wave (km/s) = 1.21914 6.16589 4.27387
#
# Compressibility (1/GPa) = 0.03267259
#
# Stress axis : x y z
#
# Youngs Moduli (GPa) = 50.82195 141.87127 93.58305
#
# Poissons Ratio (x) = -0.05880 -0.03056
# Poissons Ratio (y) = -0.02106 0.29105
# Poissons Ratio (z) = -0.01659 0.44124
#
# Static dielectric constant tensor:
#      x y z
#    x 1.873320 0.000000 0.000000 
#    y 0.000000 1.876240 0.000000 
#    z 0.000000 0.000000 1.848590 
# 
# From -- ./inp_files/37100.got.cif
#   From: 2010.05.17/outbox.cif.g08.bks.cpg/sg22_19_cif.got.tgz:37100.got - 2010.06.03 23:40:54.
