data_PCOD9326141
_publ_section_title
;
Structure prediction by ZEFSAII (Michael W. Deem and Ramdas Pophale) SiO2 
 PCOD9326141
Probable space group: F 2 2 2
;
_chemical_formula_sum "Si O2"
_cell_formula_units_Z 96
_cell_length_a 9.417818
_cell_length_b 18.432653
_cell_length_c 28.065598
_cell_angle_alpha 90.000000
_cell_angle_beta 90.000000
_cell_angle_gamma 90.000000
_cell_volume 4872.057903
_symmetry_space_group_name_H-M "F 2 2 2"
_symmetry_group_IT_number 22
_symmetry_cell_setting 'orthorhombic'
loop_
_space_group_symop_operation_xyz
x,y,z
-x,-y,z
x,-y,-z
-x,y,-z
x,1/2+y,1/2+z
-x,1/2-y,1/2+z
x,1/2-y,1/2-z
-x,1/2+y,1/2-z
1/2+x,y,1/2+z
1/2-x,-y,1/2+z
1/2+x,-y,1/2-z
1/2-x,y,1/2-z
1/2+x,1/2+y,z
1/2-x,1/2-y,z
1/2+x,1/2-y,-z
1/2-x,1/2+y,-z
loop_
_atom_site_type_symbol
_atom_site_label
_atom_site_fract_x
_atom_site_fract_y
_atom_site_fract_z
Si Si1 0.892802 0.203621 0.956647
Si Si2 0.658313 0.967591 0.451963
Si Si3 0.272109 0.006307 0.151724
Si Si4 0.893857 0.895172 0.219435
Si Si5 0.579245 0.237587 0.650339
Si Si6 0.970690 0.890984 0.683805
O O1 0.750000 0.250000 0.962756
O O2 0.852224 0.118866 0.955458
O O3 0.957554 0.222808 0.904773
O O4 0.000000 0.216660 0.000000
O O5 0.731116 0.989853 0.403054
O O6 0.500000 0.000000 0.449743
O O7 0.726272 0.000000 0.500000
O O8 0.151676 0.037063 0.186940
O O9 0.401872 0.062802 0.159664
O O10 0.326264 0.927118 0.166122
O O11 0.750000 0.874737 0.250000
O O12 0.940448 0.831445 0.184171
O O13 0.010047 0.905570 0.260118
O O14 0.750000 0.250000 0.651005
O O15 0.498930 0.307829 0.670592
#
# Coordination Sequence:
#
# PCOD9326141 Si02
#       6
#    16  16  16  16  16  16
#     4  11  23  42  68 103 130 171 227 280 331 400
#     4  11  22  43  70  90 126 173 224 264 329 412
#     4  10  20  38  56  92 132 164 209 275 331 379
#     4  10  18  33  60  88 124 169 216 262 311 390
#     4  11  18  34  61  92 128 169 223 261 324 393
#     4  10  21  34  57  96 135 161 215 272 326 394
#
# _framework density 19.7042
#
# number of rings (size 3 to 8) (size 9 to 14) (size 15 to 20)
#    0.000    1.500    6.667    1.500    0.000    1.333 
#    9.000    1.667    0.000    0.000    0.000    0.000 
#    0.000    0.000    0.000    0.000    0.000    0.000 
#
# Total GULP energy -134085.345701 kJ/mol
# GULP energy per Si atom -5586.889404 kJ/mol
# Density = 1.965935 g / cm^3
# Si number density = 19.704200 Si / 1000 Ang^3
#
#
#
# Elastic Constant Matrix: (Units=GPa)
#
#
# Indices 1 2 3 4 5 6 
#
# 1 42.5260 56.8177 61.2833 0.0000 0.0000 0.0000
# 2 56.8177 136.6626 66.7408 0.0000 0.0000 0.0000
# 3 61.2833 66.7408 221.8534 0.0000 0.0000 0.0000
# 4 0.0000 0.0000 0.0000 -27.6938 0.0000 0.0000
# 5 0.0000 0.0000 0.0000 0.0000 22.1278 0.0000
# 6 0.0000 0.0000 0.0000 0.0000 0.0000 31.7530
#
#
#
# Elastic Compliance Matrix: (Units=1/GPa)
#
#
# Indices 1 2 3 4 5 6 
#
# 1 0.077151 -0.025399 -0.013671 0.000000 0.000000 0.000000
# 2 -0.025399 0.016939 0.001920 0.000000 0.000000 0.000000
# 3 -0.013671 0.001920 0.007706 0.000000 0.000000 0.000000
# 4 0.000000 0.000000 0.000000 -0.036109 0.000000 0.000000
# 5 0.000000 0.000000 0.000000 0.000000 0.045192 0.000000
# 6 0.000000 0.000000 0.000000 0.000000 0.000000 0.031493
#
#
# Mechanical properties :
#
#
# Convention : Reuss Voigt Hill
#
# Bulk Modulus (GPa) = 36.36806 85.63620 61.00213
# Shear Modulus (GPa) = 22.13989 19.65076 20.89533
#
# Velocity S-wave (km/s) = 3.35567 3.16141 3.25999
# Velocity P-wave (km/s) = 5.78888 7.54197 6.72281
#
# Compressibility (1/GPa) = 0.02749665
#
# Stress axis : x y z
#
# Youngs Moduli (GPa) = 12.96167 59.03426 129.76745
#
# Poissons Ratio (x) = 1.49943 1.77400
# Poissons Ratio (y) = 0.32922 -0.24918
# Poissons Ratio (z) = 0.17719 -0.11336
#
# Static dielectric constant tensor:
#      x y z
#    x 1.910460 0.000000 0.000000 
#    y 0.000000 1.690560 0.000000 
#    z 0.000000 0.000000 1.696910 
# 
# From -- ./inp_files/48146.got.cif
#   From: 2010.05.17/outbox.cif.g08.bks.cpg/sg22_25_cif.got.tgz:48146.got - 2010.06.03 23:40:54.
