data_PCOD9326287
_publ_section_title
;
Structure prediction by ZEFSAII (Michael W. Deem and Ramdas Pophale) SiO2 
 PCOD9326287
Probable space group: F 2 2 2
;
_chemical_formula_sum "Si O2"
_cell_formula_units_Z 52
_cell_length_a 5.290295
_cell_length_b 27.779519
_cell_length_c 21.122625
_cell_angle_alpha 90.000000
_cell_angle_beta 90.000000
_cell_angle_gamma 90.000000
_cell_volume 3104.220057
_symmetry_space_group_name_H-M "F 2 2 2"
_symmetry_group_IT_number 22
_symmetry_cell_setting 'orthorhombic'
loop_
_space_group_symop_operation_xyz
x,y,z
-x,-y,z
x,-y,-z
-x,y,-z
x,1/2+y,1/2+z
-x,1/2-y,1/2+z
x,1/2-y,1/2-z
-x,1/2+y,1/2-z
1/2+x,y,1/2+z
1/2-x,-y,1/2+z
1/2+x,-y,1/2-z
1/2-x,y,1/2-z
1/2+x,1/2+y,z
1/2-x,1/2-y,z
1/2+x,1/2-y,-z
1/2-x,1/2+y,-z
loop_
_atom_site_type_symbol
_atom_site_label
_atom_site_fract_x
_atom_site_fract_y
_atom_site_fract_z
Si Si1 0.498944 0.112831 0.923498
Si Si2 0.508399 0.220758 0.873226
Si Si3 0.250000 0.250000 0.250000
Si Si4 0.500387 0.444494 0.922861
O O1 0.493852 0.167274 0.899412
O O2 0.250783 0.083661 0.902924
O O3 0.750271 0.084436 0.902994
O O4 0.500000 0.113999 0.000000
O O5 0.750000 0.250000 0.901271
O O6 0.576125 0.220010 0.798231
O O7 0.250000 0.250000 0.883447
O O8 0.500000 0.500000 0.902033
O O9 0.500000 0.445235 0.000000
#
# Coordination Sequence:
#
# PCOD9326287 Si02
#       4
#    16  16   4  16
#     4  10  19  30  48  76 105 134 163 195 250 298
#     4  10  20  34  51  72 101 126 171 207 242 290
#     4   8  22  36  54  68  98 124 186 198 246 280
#     4   9  17  30  47  70 104 137 165 196 234 295
#
# _framework density 16.751389
#
# number of rings (size 3 to 8) (size 9 to 14) (size 15 to 20)
#    0.923    1.538    0.000    3.231    0.000    4.923 
#    0.000    0.000    0.000    0.000    0.000    4.308 
#    0.000    0.000    0.000    0.000    0.000    0.000 
#
# Total GULP energy -72389.146951 kJ/mol
# GULP energy per Si atom -5568.395919 kJ/mol
# Density = 1.671326 g / cm^3
# Si number density = 16.751389 Si / 1000 Ang^3
#
#
#
# Elastic Constant Matrix: (Units=GPa)
#
#
# Indices 1 2 3 4 5 6 
#
# 1 203.4744 124.5453 21.9466 0.0000 0.0000 0.0000
# 2 124.5453 202.1385 24.5652 0.0000 0.0000 0.0000
# 3 21.9466 24.5652 13.5417 0.0000 0.0000 0.0000
# 4 0.0000 0.0000 0.0000 -7.5783 0.0000 0.0000
# 5 0.0000 0.0000 0.0000 0.0000 3.9578 0.0000
# 6 0.0000 0.0000 0.0000 0.0000 0.0000 34.1942
#
#
#
# Elastic Compliance Matrix: (Units=1/GPa)
#
#
# Indices 1 2 3 4 5 6 
#
# 1 0.008174 -0.004395 -0.005274 0.000000 0.000000 0.000000
# 2 -0.004395 0.008710 -0.008676 0.000000 0.000000 0.000000
# 3 -0.005274 -0.008676 0.098132 0.000000 0.000000 0.000000
# 4 0.000000 0.000000 0.000000 -0.131956 0.000000 0.000000
# 5 0.000000 0.000000 0.000000 0.000000 0.252664 0.000000
# 6 0.000000 0.000000 0.000000 0.000000 0.000000 0.029245
#
#
# Mechanical properties :
#
#
# Convention : Reuss Voigt Hill
#
# Bulk Modulus (GPa) = 12.76731 84.58541 48.67636
# Shear Modulus (GPa) = 15.25470 22.65457 18.95464
#
# Velocity S-wave (km/s) = 3.02098 3.68149 3.36747
# Velocity P-wave (km/s) = 4.45046 8.28706 6.65139
#
# Compressibility (1/GPa) = 0.07832504
#
# Stress axis : x y z
#
# Youngs Moduli (GPa) = 122.34269 114.81590 10.19031
#
# Poissons Ratio (x) = 0.50465 0.05374
# Poissons Ratio (y) = 0.53773 0.08841
# Poissons Ratio (z) = 0.64521 0.99618
#
# Static dielectric constant tensor:
#      x y z
#    x 1.583300 0.000000 0.000000 
#    y 0.000000 1.527840 0.000000 
#    z 0.000000 0.000000 1.551430 
# 
# From -- ./inp_files/2535.got.cif
#   From: 2010.05.17/outbox.cif.g08.bks.cpg/sg22_2_cif.got.tgz:2535.got - 2010.06.03 23:40:54.
