data_PCOD9326796
_publ_section_title
;
Structure prediction by ZEFSAII (Michael W. Deem and Ramdas Pophale) SiO2 
 PCOD9326796
Probable space group: F 2 2 2
;
_chemical_formula_sum "Si O2"
_cell_formula_units_Z 128
_cell_length_a 24.396436
_cell_length_b 12.140786
_cell_length_c 24.204156
_cell_angle_alpha 90.000000
_cell_angle_beta 90.000000
_cell_angle_gamma 90.000000
_cell_volume 7169.075163
_symmetry_space_group_name_H-M "F 2 2 2"
_symmetry_group_IT_number 22
_symmetry_cell_setting 'orthorhombic'
loop_
_space_group_symop_operation_xyz
x,y,z
-x,-y,z
x,-y,-z
-x,y,-z
x,1/2+y,1/2+z
-x,1/2-y,1/2+z
x,1/2-y,1/2-z
-x,1/2+y,1/2-z
1/2+x,y,1/2+z
1/2-x,-y,1/2+z
1/2+x,-y,1/2-z
1/2-x,y,1/2-z
1/2+x,1/2+y,z
1/2-x,1/2-y,z
1/2+x,1/2-y,-z
1/2-x,1/2+y,-z
loop_
_atom_site_type_symbol
_atom_site_label
_atom_site_fract_x
_atom_site_fract_y
_atom_site_fract_z
Si Si1 0.148817 0.437353 0.557490
Si Si2 0.729049 0.470487 0.434727
Si Si3 0.134071 0.813710 0.470189
Si Si4 0.965495 0.745206 0.815799
Si Si5 0.564339 0.981180 0.646404
Si Si6 0.646512 0.142100 0.899464
Si Si7 0.407622 0.708226 0.811837
Si Si8 0.059390 0.050477 0.603680
O O1 0.151784 0.500000 0.500000
O O2 0.209791 0.441165 0.583420
O O3 0.132101 0.312158 0.546780
O O4 0.102769 0.494315 0.593928
O O5 0.731927 0.500000 0.500000
O O6 0.685233 0.371082 0.438032
O O7 0.703570 0.573506 0.401249
O O8 0.139629 0.821987 0.536400
O O9 0.081835 0.881641 0.448852
O O10 0.961826 0.750000 0.750000
O O11 0.933808 0.854336 0.835465
O O12 0.943180 0.636326 0.845431
O O13 0.030711 0.752824 0.828912
O O14 0.500000 0.000000 0.635448
O O15 0.585885 0.075545 0.687777
O O16 0.634899 0.240215 0.856225
O O17 0.601164 0.049197 0.886344
O O18 0.396071 0.750000 0.750000
O O19 0.000000 0.000000 0.594297
#
# Coordination Sequence:
#
# PCOD9326796 Si02
#       8
#    16  16  16  16  16  16  16  16
#     4  11  20  35  58  81 113 156 188 227 295 355
#     4   8  18  34  56  83 110 143 192 241 283 348
#     4  10  20  35  54  85 118 148 191 243 293 358
#     4  10  21  36  57  82 112 153 196 243 284 344
#     4  10  22  38  54  81 116 145 192 234 286 349
#     4  10  20  35  55  85 118 147 196 246 297 349
#     4  10  21  37  57  81 112 156 197 246 289 350
#     4  11  20  34  55  85 115 152 192 236 301 350
#
# _framework density 17.854464
#
# number of rings (size 3 to 8) (size 9 to 14) (size 15 to 20)
#    0.000    2.000    2.500    2.250    1.750    1.750 
#    0.000    3.125    0.000    1.500    0.000    3.500 
#    0.000    0.000    0.000    0.000    0.000    0.000 
#
# Total GULP energy -178326.898110 kJ/mol
# GULP energy per Si atom -5572.715566 kJ/mol
# Density = 1.781383 g / cm^3
# Si number density = 17.854464 Si / 1000 Ang^3
#
#
#
# Elastic Constant Matrix: (Units=GPa)
#
#
# Indices 1 2 3 4 5 6 
#
# 1 56.3122 37.8336 25.8398 0.0000 0.0000 0.0000
# 2 37.8336 84.3401 21.2558 0.0000 0.0000 0.0000
# 3 25.8398 21.2558 61.7110 0.0000 0.0000 0.0000
# 4 0.0000 0.0000 0.0000 28.6898 0.0000 0.0000
# 5 0.0000 0.0000 0.0000 0.0000 65.7235 0.0000
# 6 0.0000 0.0000 0.0000 0.0000 0.0000 -3.7076
#
#
#
# Elastic Compliance Matrix: (Units=1/GPa)
#
#
# Indices 1 2 3 4 5 6 
#
# 1 0.028882 -0.010850 -0.008356 0.000000 0.000000 0.000000
# 2 -0.010850 0.017060 -0.001333 0.000000 0.000000 0.000000
# 3 -0.008356 -0.001333 0.020163 0.000000 0.000000 0.000000
# 4 0.000000 0.000000 0.000000 0.034856 0.000000 0.000000
# 5 0.000000 0.000000 0.000000 0.000000 0.015215 0.000000
# 6 0.000000 0.000000 0.000000 0.000000 0.000000 -0.269714
#
#
# Mechanical properties :
#
#
# Convention : Reuss Voigt Hill
#
# Bulk Modulus (GPa) = 39.95856 41.35795 40.65826
# Shear Modulus (GPa) = -48.02264 25.97008 -11.02628
#
# Velocity S-wave (km/s) = -5.19183 3.81798 -2.48778
# Velocity P-wave (km/s) = 3.67579 6.53071 3.81699
#
# Compressibility (1/GPa) = 0.02502593
#
# Stress axis : x y z
#
# Youngs Moduli (GPa) = 34.62320 58.61700 49.59648
#
# Poissons Ratio (x) = 0.63600 0.41445
# Poissons Ratio (y) = 0.37567 0.06611
# Poissons Ratio (z) = 0.28933 0.07813
#
# Static dielectric constant tensor:
#      x y z
#    x 1.629330 0.000000 0.000000 
#    y 0.000000 1.630630 0.000000 
#    z 0.000000 0.000000 1.598890 
# 
# From -- ./inp_files/24085.got.cif
#   From: 2010.05.17/outbox.cif.g08.bks.cpg/sg22_13_cif.got.tgz:24085.got - 2010.06.03 23:40:54.
