data_PCOD9326964
_publ_section_title
;
Structure prediction by ZEFSAII (Michael W. Deem and Ramdas Pophale) SiO2 
 PCOD9326964
Probable space group: F 2 2 2
;
_chemical_formula_sum "Si O2"
_cell_formula_units_Z 80
_cell_length_a 26.797512
_cell_length_b 9.487921
_cell_length_c 15.803586
_cell_angle_alpha 90.000000
_cell_angle_beta 90.000000
_cell_angle_gamma 90.000000
_cell_volume 4018.104044
_symmetry_space_group_name_H-M "F 2 2 2"
_symmetry_group_IT_number 22
_symmetry_cell_setting 'orthorhombic'
loop_
_space_group_symop_operation_xyz
x,y,z
-x,-y,z
x,-y,-z
-x,y,-z
x,1/2+y,1/2+z
-x,1/2-y,1/2+z
x,1/2-y,1/2-z
-x,1/2+y,1/2-z
1/2+x,y,1/2+z
1/2-x,-y,1/2+z
1/2+x,-y,1/2-z
1/2-x,y,1/2-z
1/2+x,1/2+y,z
1/2-x,1/2-y,z
1/2+x,1/2-y,-z
1/2-x,1/2+y,-z
loop_
_atom_site_type_symbol
_atom_site_label
_atom_site_fract_x
_atom_site_fract_y
_atom_site_fract_z
Si Si1 0.614434 0.042515 0.372263
Si Si2 0.884231 0.437455 0.175069
Si Si3 0.948502 0.778967 0.550416
Si Si4 0.868564 0.218933 0.590576
Si Si5 0.691972 0.747006 0.564671
O O1 0.614170 0.088335 0.274640
O O2 0.568347 0.122879 0.417861
O O3 0.663760 0.106390 0.416244
O O4 0.616874 0.875414 0.380894
O O5 0.935015 0.381205 0.129427
O O6 0.873541 0.602390 0.161747
O O7 0.839097 0.358674 0.125653
O O8 0.908704 0.823783 0.480106
O O9 0.000000 0.783139 0.500000
O O10 0.818165 0.214470 0.534516
O O11 0.750000 0.750000 0.583856
#
# Coordination Sequence:
#
# PCOD9326964 Si02
#       5
#    16  16  16  16  16
#     4  10  21  38  58  84 117 148 188 240 289 336
#     4  10  21  38  58  84 117 148 188 240 289 336
#     4  10  20  38  60  80 107 150 192 229 276 343
#     4  10  21  36  57  84 115 149 185 235 288 339
#     4  10  20  37  60  82 111 157 199 230 277 344
#
# _framework density 19.909887999999999
#
# number of rings (size 3 to 8) (size 9 to 14) (size 15 to 20)
#    0.000    2.400    0.000    7.800    0.000    8.000 
#    0.000    6.000    0.000    3.600    0.000    0.000 
#    0.000    0.000    0.000    0.000    0.000    0.000 
#
# Total GULP energy -111487.442616 kJ/mol
# GULP energy per Si atom -5574.372131 kJ/mol
# Density = 1.986457 g / cm^3
# Si number density = 19.909888 Si / 1000 Ang^3
#
#
#
# Elastic Constant Matrix: (Units=GPa)
#
#
# Indices 1 2 3 4 5 6 
#
# 1 121.0976 16.9953 36.3690 0.0000 0.0000 0.0000
# 2 16.9953 116.2893 14.7087 0.0000 0.0000 0.0000
# 3 36.3690 14.7087 102.0940 0.0000 0.0000 0.0000
# 4 0.0000 0.0000 0.0000 33.1492 0.0000 0.0000
# 5 0.0000 0.0000 0.0000 0.0000 14.9020 0.0000
# 6 0.0000 0.0000 0.0000 0.0000 0.0000 -0.3435
#
#
#
# Elastic Compliance Matrix: (Units=1/GPa)
#
#
# Indices 1 2 3 4 5 6 
#
# 1 0.009352 -0.000963 -0.003193 0.000000 0.000000 0.000000
# 2 -0.000963 0.008858 -0.000933 0.000000 0.000000 0.000000
# 3 -0.003193 -0.000933 0.011067 0.000000 0.000000 0.000000
# 4 0.000000 0.000000 0.000000 0.030167 0.000000 0.000000
# 5 0.000000 0.000000 0.000000 0.000000 0.067105 0.000000
# 6 0.000000 0.000000 0.000000 0.000000 0.000000 -2.910873
#
#
# Mechanical properties :
#
#
# Convention : Reuss Voigt Hill
#
# Bulk Modulus (GPa) = 52.35879 52.84741 52.60310
# Shear Modulus (GPa) = -1.80650 27.63539 12.91444
#
# Velocity S-wave (km/s) = -0.95358 3.72966 2.54961
# Velocity P-wave (km/s) = 5.01424 6.71923 5.92835
#
# Compressibility (1/GPa) = 0.01909899
#
# Stress axis : x y z
#
# Youngs Moduli (GPa) = 106.93140 112.89230 90.36147
#
# Poissons Ratio (x) = 0.10871 0.28849
# Poissons Ratio (y) = 0.10297 0.08432
# Poissons Ratio (z) = 0.34140 0.10535
#
# Static dielectric constant tensor:
#      x y z
#    x 1.705300 0.000000 0.000000 
#    y 0.000000 1.781560 0.000000 
#    z 0.000000 0.000000 1.727330 
# 
# From -- ./inp_files/39882.got.cif
#   From: 2010.05.17/outbox.cif.g08.bks.cpg/sg22_20_cif.got.tgz:39882.got - 2010.06.03 23:40:54.
