data_PCOD9326344
_publ_section_title
;
Structure prediction by ZEFSAII (Michael W. Deem and Ramdas Pophale) SiO2 
 PCOD9326344
Probable space group: F 2 2 2
;
_chemical_formula_sum "Si O2"
_cell_formula_units_Z 104
_cell_length_a 22.020466
_cell_length_b 20.483729
_cell_length_c 11.759213
_cell_angle_alpha 90.000000
_cell_angle_beta 90.000000
_cell_angle_gamma 90.000000
_cell_volume 5304.125409
_symmetry_space_group_name_H-M "F 2 2 2"
_symmetry_group_IT_number 22
_symmetry_cell_setting 'orthorhombic'
loop_
_space_group_symop_operation_xyz
x,y,z
-x,-y,z
x,-y,-z
-x,y,-z
x,1/2+y,1/2+z
-x,1/2-y,1/2+z
x,1/2-y,1/2-z
-x,1/2+y,1/2-z
1/2+x,y,1/2+z
1/2-x,-y,1/2+z
1/2+x,-y,1/2-z
1/2-x,y,1/2-z
1/2+x,1/2+y,z
1/2-x,1/2-y,z
1/2+x,1/2-y,-z
1/2-x,1/2+y,-z
loop_
_atom_site_type_symbol
_atom_site_label
_atom_site_fract_x
_atom_site_fract_y
_atom_site_fract_z
Si Si1 0.250000 0.653064 0.250000
Si Si2 0.933886 0.529819 0.220392
Si Si3 0.570275 0.092137 0.527258
Si Si4 0.250000 0.250000 0.563607
Si Si5 0.659623 0.455444 0.169690
Si Si6 0.639453 0.213540 0.581594
Si Si7 0.750000 0.063663 0.750000
Si Si8 0.357842 0.646221 0.668844
O O1 0.278485 0.697944 0.348892
O O2 0.300346 0.607374 0.194731
O O3 0.926360 0.560299 0.347732
O O4 0.885376 0.471460 0.225172
O O5 0.908958 0.590934 0.149122
O O6 0.000000 0.500000 0.200086
O O7 0.500000 0.082887 0.500000
O O8 0.617250 0.059857 0.438670
O O9 0.588156 0.168570 0.525661
O O10 0.297517 0.211474 0.486106
O O11 0.706386 0.517079 0.173347
O O12 0.630031 0.291079 0.591464
O O13 0.643954 0.179830 0.705480
O O14 0.706448 0.107891 0.829251
#
# Coordination Sequence:
#
# PCOD9326344 Si02
#       8
#     8  16  16   8  16  16   8  16
#     4  10  22  37  52  81 116 152 202 240 302 370
#     4  10  19  32  56  83 116 151 187 247 302 352
#     4  11  20  33  55  86 116 152 204 247 295 352
#     4  11  20  35  58  76 112 157 194 243 298 356
#     4  10  19  34  53  79 117 150 187 247 297 358
#     4  10  20  35  57  82 115 154 195 249 298 353
#     4   9  18  32  54  80 114 153 182 236 308 361
#     4   9  19  35  55  86 117 144 196 242 298 362
#
# _framework density 19.607379999999999
#
# number of rings (size 3 to 8) (size 9 to 14) (size 15 to 20)
#    0.000    2.000    3.077    1.385    0.000    1.231 
#    2.769    1.538    3.385    0.000    0.000    1.077 
#    0.000    0.000    0.000    0.000    0.000    0.000 
#
# Total GULP energy -144747.567655 kJ/mol
# GULP energy per Si atom -5567.214141 kJ/mol
# Density = 1.956275 g / cm^3
# Si number density = 19.607380 Si / 1000 Ang^3
#
#
#
# Elastic Constant Matrix: (Units=GPa)
#
#
# Indices 1 2 3 4 5 6 
#
# 1 115.4795 57.2756 10.9209 0.0000 0.0000 0.0000
# 2 57.2756 127.5346 15.8617 0.0000 0.0000 0.0000
# 3 10.9209 15.8617 20.3515 0.0000 0.0000 0.0000
# 4 0.0000 0.0000 0.0000 17.8859 0.0000 0.0000
# 5 0.0000 0.0000 0.0000 0.0000 16.4885 0.0000
# 6 0.0000 0.0000 0.0000 0.0000 0.0000 28.0430
#
#
#
# Elastic Compliance Matrix: (Units=1/GPa)
#
#
# Indices 1 2 3 4 5 6 
#
# 1 0.011239 -0.004759 -0.002322 0.000000 0.000000 0.000000
# 2 -0.004759 0.010698 -0.005784 0.000000 0.000000 0.000000
# 3 -0.002322 -0.005784 0.054890 0.000000 0.000000 0.000000
# 4 0.000000 0.000000 0.000000 0.055910 0.000000 0.000000
# 5 0.000000 0.000000 0.000000 0.000000 0.060648 0.000000
# 6 0.000000 0.000000 0.000000 0.000000 0.000000 0.035660
#
#
# Mechanical properties :
#
#
# Convention : Reuss Voigt Hill
#
# Bulk Modulus (GPa) = 19.57045 47.94245 33.75645
# Shear Modulus (GPa) = 18.39537 24.43731 21.41634
#
# Velocity S-wave (km/s) = 3.06631 3.53417 3.30852
# Velocity P-wave (km/s) = 4.74754 6.41546 5.64346
#
# Compressibility (1/GPa) = 0.05109744
#
# Stress axis : x y z
#
# Youngs Moduli (GPa) = 88.97245 93.47966 18.21813
#
# Poissons Ratio (x) = 0.44485 0.04231
# Poissons Ratio (y) = 0.42340 0.10537
# Poissons Ratio (z) = 0.20662 0.54067
#
# Static dielectric constant tensor:
#      x y z
#    x 1.715680 0.000000 0.000000 
#    y 0.000000 1.746990 0.000000 
#    z 0.000000 0.000000 1.718030 
# 
# From -- ./inp_files/31854.got.cif
#   From: 2010.05.17/outbox.cif.g08.bks.cpg/sg22_16_cif.got.tgz:31854.got - 2010.06.03 23:40:54.
