data_PCOD9326576
_publ_section_title
;
Structure prediction by ZEFSAII (Michael W. Deem and Ramdas Pophale) SiO2 
 PCOD9326576
Probable space group: F 2 2 2
;
_chemical_formula_sum "Si O2"
_cell_formula_units_Z 88
_cell_length_a 27.497800
_cell_length_b 11.955902
_cell_length_c 13.629730
_cell_angle_alpha 90.000000
_cell_angle_beta 90.000000
_cell_angle_gamma 90.000000
_cell_volume 4480.923692
_symmetry_space_group_name_H-M "F 2 2 2"
_symmetry_group_IT_number 22
_symmetry_cell_setting 'orthorhombic'
loop_
_space_group_symop_operation_xyz
x,y,z
-x,-y,z
x,-y,-z
-x,y,-z
x,1/2+y,1/2+z
-x,1/2-y,1/2+z
x,1/2-y,1/2-z
-x,1/2+y,1/2-z
1/2+x,y,1/2+z
1/2-x,-y,1/2+z
1/2+x,-y,1/2-z
1/2-x,y,1/2-z
1/2+x,1/2+y,z
1/2-x,1/2-y,z
1/2+x,1/2-y,-z
1/2-x,1/2+y,-z
loop_
_atom_site_type_symbol
_atom_site_label
_atom_site_fract_x
_atom_site_fract_y
_atom_site_fract_z
Si Si1 0.348177 0.532399 0.165245
Si Si2 0.905019 0.011033 0.357506
Si Si3 0.196974 0.403901 0.069134
Si Si4 0.945029 0.174970 0.522133
Si Si5 0.854494 0.321381 0.528127
Si Si6 0.250000 0.473097 0.250000
O O1 0.391718 0.537521 0.245207
O O2 0.345039 0.410510 0.113984
O O3 0.296290 0.546884 0.218497
O O4 0.353660 0.618446 0.076671
O O5 0.921779 0.113583 0.425955
O O6 0.854068 0.959620 0.396857
O O7 0.942958 0.913960 0.387846
O O8 0.182628 0.283368 0.027804
O O9 0.231381 0.396721 0.161931
O O10 0.219549 0.500000 0.000000
O O11 0.908377 0.273679 0.546248
O O12 0.000000 0.206808 0.500000
#
# Coordination Sequence:
#
# PCOD9326576 Si02
#       6
#    16  16  16  16  16   8
#     4  10  23  41  58  87 123 161 196 242 307 351
#     4   9  17  36  61  86 117 151 193 250 295 342
#     4  10  19  38  60  86 119 154 202 246 295 343
#     4  10  19  37  63  91 114 154 205 241 292 366
#     4  10  22  41  61  83 127 161 186 253 311 346
#     4  10  24  39  61  90 114 160 219 239 280 372
#
# _framework density 19.638807
#
# number of rings (size 3 to 8) (size 9 to 14) (size 15 to 20)
#    0.000    2.182    3.636    1.091    2.545    8.727 
#    0.000    8.182    0.000    0.000    0.000    0.000 
#    0.000    0.000    0.000    0.000    0.000    0.000 
#
# Total GULP energy -122680.721838 kJ/mol
# GULP energy per Si atom -5576.396447 kJ/mol
# Density = 1.959411 g / cm^3
# Si number density = 19.638807 Si / 1000 Ang^3
#
#
#
# Elastic Constant Matrix: (Units=GPa)
#
#
# Indices 1 2 3 4 5 6 
#
# 1 76.6696 9.3148 18.6006 0.0000 0.0000 0.0000
# 2 9.3148 72.1986 32.7937 0.0000 0.0000 0.0000
# 3 18.6006 32.7937 104.7260 0.0000 0.0000 0.0000
# 4 0.0000 0.0000 0.0000 8.8017 0.0000 0.0000
# 5 0.0000 0.0000 0.0000 0.0000 28.5189 0.0000
# 6 0.0000 0.0000 0.0000 0.0000 0.0000 13.4502
#
#
#
# Elastic Compliance Matrix: (Units=1/GPa)
#
#
# Indices 1 2 3 4 5 6 
#
# 1 0.013667 -0.000770 -0.002186 0.000000 0.000000 0.000000
# 2 -0.000770 0.016191 -0.004933 0.000000 0.000000 0.000000
# 3 -0.002186 -0.004933 0.011482 0.000000 0.000000 0.000000
# 4 0.000000 0.000000 0.000000 0.113615 0.000000 0.000000
# 5 0.000000 0.000000 0.000000 0.000000 0.035064 0.000000
# 6 0.000000 0.000000 0.000000 0.000000 0.000000 0.074348
#
#
# Mechanical properties :
#
#
# Convention : Reuss Voigt Hill
#
# Bulk Modulus (GPa) = 39.12319 41.66804 40.39561
# Shear Modulus (GPa) = 17.32104 23.01316 20.16710
#
# Velocity S-wave (km/s) = 2.97304 3.42690 3.20801
# Velocity P-wave (km/s) = 5.63470 6.07630 5.85966
#
# Compressibility (1/GPa) = 0.02556029
#
# Stress axis : x y z
#
# Youngs Moduli (GPa) = 73.16917 61.76356 87.09450
#
# Poissons Ratio (x) = 0.04757 0.19041
# Poissons Ratio (y) = 0.05636 0.42965
# Poissons Ratio (z) = 0.15996 0.30469
#
# Static dielectric constant tensor:
#      x y z
#    x 1.702790 0.000000 0.000000 
#    y 0.000000 1.707290 0.000000 
#    z 0.000000 0.000000 1.728740 
# 
# From -- ./inp_files/33034.got.cif
#   From: 2010.05.17/outbox.cif.g08.bks.cpg/sg22_17_cif.got.tgz:33034.got - 2010.06.03 23:40:54.
