data_PCOD9326372
_publ_section_title
;
Structure prediction by ZEFSAII (Michael W. Deem and Ramdas Pophale) SiO2 
 PCOD9326372
Probable space group: F 2 2 2
;
_chemical_formula_sum "Si O2"
_cell_formula_units_Z 96
_cell_length_a 10.108746
_cell_length_b 23.812907
_cell_length_c 21.026706
_cell_angle_alpha 90.000000
_cell_angle_beta 90.000000
_cell_angle_gamma 90.000000
_cell_volume 5061.519828
_symmetry_space_group_name_H-M "F 2 2 2"
_symmetry_group_IT_number 22
_symmetry_cell_setting 'orthorhombic'
loop_
_space_group_symop_operation_xyz
x,y,z
-x,-y,z
x,-y,-z
-x,y,-z
x,1/2+y,1/2+z
-x,1/2-y,1/2+z
x,1/2-y,1/2-z
-x,1/2+y,1/2-z
1/2+x,y,1/2+z
1/2-x,-y,1/2+z
1/2+x,-y,1/2-z
1/2-x,y,1/2-z
1/2+x,1/2+y,z
1/2-x,1/2-y,z
1/2+x,1/2-y,-z
1/2-x,1/2+y,-z
loop_
_atom_site_type_symbol
_atom_site_label
_atom_site_fract_x
_atom_site_fract_y
_atom_site_fract_z
Si Si1 0.161726 0.692961 0.305539
Si Si2 0.608948 0.778451 0.337129
Si Si3 0.848346 0.498565 0.576835
Si Si4 0.004679 0.185082 0.430316
Si Si5 0.228728 0.621867 0.423195
Si Si6 0.718649 0.874092 0.429880
O O1 0.250000 0.664648 0.250000
O O2 0.250000 0.750000 0.316717
O O3 0.154938 0.657534 0.369904
O O4 0.006300 0.701602 0.288565
O O5 0.750000 0.750000 0.317786
O O6 0.531362 0.731535 0.377858
O O7 0.647743 0.829574 0.384171
O O8 0.847782 0.500000 0.500000
O O9 0.775995 0.556193 0.594947
O O10 0.793295 0.437700 0.594378
O O11 0.000000 0.500000 0.598651
O O12 0.129042 0.143859 0.430856
O O13 0.000000 0.213270 0.500000
O O14 0.873927 0.148814 0.421906
O O15 0.174303 0.628214 0.495597
#
# Coordination Sequence:
#
# PCOD9326372 Si02
#       6
#    16  16  16  16  16  16
#     4  11  23  37  55  81 110 149 201 237 276 341
#     4  10  20  35  56  82 117 147 185 240 293 350
#     4   9  17  30  47  78 111 145 185 221 281 353
#     4   9  18  30  48  83 116 147 185 223 295 363
#     4  10  19  33  55  79 117 154 182 241 285 346
#     4   9  19  31  53  86 117 147 184 227 301 362
#
# _framework density 18.966636000000001
#
# number of rings (size 3 to 8) (size 9 to 14) (size 15 to 20)
#    0.000    2.333    1.667    1.000    2.333    2.667 
#    0.000    5.000    0.000    0.000   13.000    0.000 
#    0.000    0.000    0.000    0.000    0.000    0.000 
#
# Total GULP energy -133681.532313 kJ/mol
# GULP energy per Si atom -5570.063846 kJ/mol
# Density = 1.892347 g / cm^3
# Si number density = 18.966636 Si / 1000 Ang^3
#
#
#
# Elastic Constant Matrix: (Units=GPa)
#
#
# Indices 1 2 3 4 5 6 
#
# 1 114.8116 13.7605 21.7248 0.0000 0.0000 0.0000
# 2 13.7605 103.3201 23.3634 0.0000 0.0000 0.0000
# 3 21.7248 23.3634 49.0879 0.0000 0.0000 0.0000
# 4 0.0000 0.0000 0.0000 7.6824 0.0000 0.0000
# 5 0.0000 0.0000 0.0000 0.0000 8.7799 0.0000
# 6 0.0000 0.0000 0.0000 0.0000 0.0000 13.0211
#
#
#
# Elastic Compliance Matrix: (Units=1/GPa)
#
#
# Indices 1 2 3 4 5 6 
#
# 1 0.009517 -0.000353 -0.004044 0.000000 0.000000 0.000000
# 2 -0.000353 0.010859 -0.005012 0.000000 0.000000 0.000000
# 3 -0.004044 -0.005012 0.024547 0.000000 0.000000 0.000000
# 4 0.000000 0.000000 0.000000 0.130168 0.000000 0.000000
# 5 0.000000 0.000000 0.000000 0.000000 0.113897 0.000000
# 6 0.000000 0.000000 0.000000 0.000000 0.000000 0.076798
#
#
# Mechanical properties :
#
#
# Convention : Reuss Voigt Hill
#
# Bulk Modulus (GPa) = 38.30700 42.76855 40.53778
# Shear Modulus (GPa) = 12.71272 19.78807 16.25040
#
# Velocity S-wave (km/s) = 2.59176 3.23353 2.93027
# Velocity P-wave (km/s) = 5.40344 6.04478 5.73308
#
# Compressibility (1/GPa) = 0.02610489
#
# Stress axis : x y z
#
# Youngs Moduli (GPa) = 105.06998 92.08905 40.73827
#
# Poissons Ratio (x) = 0.03252 0.16475
# Poissons Ratio (y) = 0.03710 0.20418
# Poissons Ratio (z) = 0.42491 0.46156
#
# Static dielectric constant tensor:
#      x y z
#    x 1.691410 0.000000 0.000000 
#    y 0.000000 1.647780 0.000000 
#    z 0.000000 0.000000 1.750450 
# 
# From -- ./inp_files/47388.got.cif
#   From: 2010.05.17/outbox.cif.g08.bks.cpg/sg22_24_cif.got.tgz:47388.got - 2010.06.03 23:40:54.
