data_PCOD9326681
_publ_section_title
;
Structure prediction by ZEFSAII (Michael W. Deem and Ramdas Pophale) SiO2 
 PCOD9326681
Probable space group: F 2 2 2
;
_chemical_formula_sum "Si O2"
_cell_formula_units_Z 96
_cell_length_a 20.257276
_cell_length_b 12.954931
_cell_length_c 15.139500
_cell_angle_alpha 90.000000
_cell_angle_beta 90.000000
_cell_angle_gamma 90.000000
_cell_volume 3973.083402
_symmetry_space_group_name_H-M "F 2 2 2"
_symmetry_group_IT_number 22
_symmetry_cell_setting 'orthorhombic'
loop_
_space_group_symop_operation_xyz
x,y,z
-x,-y,z
x,-y,-z
-x,y,-z
x,1/2+y,1/2+z
-x,1/2-y,1/2+z
x,1/2-y,1/2-z
-x,1/2+y,1/2-z
1/2+x,y,1/2+z
1/2-x,-y,1/2+z
1/2+x,-y,1/2-z
1/2-x,y,1/2-z
1/2+x,1/2+y,z
1/2-x,1/2-y,z
1/2+x,1/2-y,-z
1/2-x,1/2+y,-z
loop_
_atom_site_type_symbol
_atom_site_label
_atom_site_fract_x
_atom_site_fract_y
_atom_site_fract_z
Si Si1 0.318572 0.481673 0.709702
Si Si2 0.860054 0.124608 0.996091
Si Si3 0.914854 0.844832 0.816470
Si Si4 0.908510 0.905603 0.435458
Si Si5 0.714047 0.618152 0.536909
Si Si6 0.941989 0.284450 0.658089
O O1 0.250000 0.526495 0.750000
O O2 0.367537 0.435476 0.782271
O O3 0.366152 0.550117 0.647238
O O4 0.293099 0.392004 0.642129
O O5 0.893104 0.155091 0.904518
O O6 0.899109 0.166015 0.080885
O O7 0.784438 0.158959 0.008217
O O8 0.861778 0.000000 0.000000
O O9 0.900700 0.750000 0.750000
O O10 0.994299 0.851448 0.815598
O O11 0.853654 0.845345 0.493036
O O12 0.959272 0.822018 0.395964
O O13 0.929972 0.000000 0.500000
O O14 0.716236 0.500000 0.500000
O O15 0.910031 0.250000 0.750000
#
# Coordination Sequence:
#
# PCOD9326681 Si02
#       6
#    16  16  16  16  16  16
#     4  10  19  40  73 108 138 182 243 314 378 427
#     4  11  24  46  75 103 148 196 242 308 375 440
#     4  11  26  44  68 101 148 187 247 306 355 439
#     4   9  22  43  73 100 144 192 245 302 371 437
#     4   8  18  38  67 108 138 176 244 304 371 434
#     4  11  27  47  65 102 156 196 251 293 356 455
#
# _framework density 24.162593000000001
#
# number of rings (size 3 to 8) (size 9 to 14) (size 15 to 20)
#    0.000    2.333    1.667    0.500    7.000    2.333 
#    3.000    0.833    0.000    0.000    0.000    0.000 
#    0.000    0.000    0.000    0.000    0.000    0.000 
#
# Total GULP energy -134021.089092 kJ/mol
# GULP energy per Si atom -5584.212045 kJ/mol
# Density = 2.410760 g / cm^3
# Si number density = 24.162593 Si / 1000 Ang^3
#
#
#
# Elastic Constant Matrix: (Units=GPa)
#
#
# Indices 1 2 3 4 5 6 
#
# 1 112.8914 33.9185 48.2509 0.0000 0.0000 0.0000
# 2 33.9185 67.5165 35.7550 0.0000 0.0000 0.0000
# 3 48.2509 35.7550 157.1543 0.0000 0.0000 0.0000
# 4 0.0000 0.0000 0.0000 31.5757 0.0000 0.0000
# 5 0.0000 0.0000 0.0000 0.0000 23.2307 0.0000
# 6 0.0000 0.0000 0.0000 0.0000 0.0000 3.5196
#
#
#
# Elastic Compliance Matrix: (Units=1/GPa)
#
#
# Indices 1 2 3 4 5 6 
#
# 1 0.011209 -0.004330 -0.002456 0.000000 0.000000 0.000000
# 2 -0.004330 0.018513 -0.002882 0.000000 0.000000 0.000000
# 3 -0.002456 -0.002882 0.007773 0.000000 0.000000 0.000000
# 4 0.000000 0.000000 0.000000 0.031670 0.000000 0.000000
# 5 0.000000 0.000000 0.000000 0.000000 0.043047 0.000000
# 6 0.000000 0.000000 0.000000 0.000000 0.000000 0.284127
#
#
# Mechanical properties :
#
#
# Convention : Reuss Voigt Hill
#
# Bulk Modulus (GPa) = 55.07491 63.71233 59.39362
# Shear Modulus (GPa) = 11.85596 26.30771 19.08184
#
# Velocity S-wave (km/s) = 2.21752 3.30324 2.81326
# Velocity P-wave (km/s) = 5.42213 6.40109 5.93184
#
# Compressibility (1/GPa) = 0.01815709
#
# Stress axis : x y z
#
# Youngs Moduli (GPa) = 89.21440 54.01575 128.64839
#
# Poissons Ratio (x) = 0.23390 0.31599
# Poissons Ratio (y) = 0.38633 0.37083
# Poissons Ratio (z) = 0.21913 0.15570
#
# Static dielectric constant tensor:
#      x y z
#    x 1.965920 0.000000 0.000000 
#    y 0.000000 2.070830 0.000000 
#    z 0.000000 0.000000 1.935560 
# 
# From -- ./inp_files/31539.got.cif
#   From: 2010.05.17/outbox.cif.g08.bks.cpg/sg22_16_cif.got.tgz:31539.got - 2010.06.03 23:40:54.
