data_PCOD9326493
_publ_section_title
;
Structure prediction by ZEFSAII (Michael W. Deem and Ramdas Pophale) SiO2 
 PCOD9326493
Probable space group: F 2 2 2
;
_chemical_formula_sum "Si O2"
_cell_formula_units_Z 64
_cell_length_a 8.114555
_cell_length_b 18.859811
_cell_length_c 17.227371
_cell_angle_alpha 90.000000
_cell_angle_beta 90.000000
_cell_angle_gamma 90.000000
_cell_volume 2636.459177
_symmetry_space_group_name_H-M "F 2 2 2"
_symmetry_group_IT_number 22
_symmetry_cell_setting 'orthorhombic'
loop_
_space_group_symop_operation_xyz
x,y,z
-x,-y,z
x,-y,-z
-x,y,-z
x,1/2+y,1/2+z
-x,1/2-y,1/2+z
x,1/2-y,1/2-z
-x,1/2+y,1/2-z
1/2+x,y,1/2+z
1/2-x,-y,1/2+z
1/2+x,-y,1/2-z
1/2-x,y,1/2-z
1/2+x,1/2+y,z
1/2-x,1/2-y,z
1/2+x,1/2-y,-z
1/2-x,1/2+y,-z
loop_
_atom_site_type_symbol
_atom_site_label
_atom_site_fract_x
_atom_site_fract_y
_atom_site_fract_z
Si Si1 0.828254 0.371737 0.544877
Si Si2 0.697966 0.489977 0.834394
Si Si3 0.801965 0.855506 0.619978
Si Si4 0.480445 0.735114 0.836916
O O1 0.765776 0.436921 0.595561
O O2 0.718114 0.351707 0.472414
O O3 0.000000 0.391483 0.500000
O O4 0.866813 0.308524 0.604556
O O5 0.500000 0.500000 0.834218
O O6 0.750000 0.462069 0.750000
O O7 0.787459 0.564741 0.849704
O O8 0.648226 0.813291 0.659819
O O9 0.966326 0.812808 0.636135
O O10 0.425124 0.750000 0.750000
#
# Coordination Sequence:
#
# PCOD9326493 Si02
#       4
#    16  16  16  16
#     4  10  21  39  66  93 129 177 230 270 334 408
#     4  12  23  40  69 100 134 173 232 280 340 401
#     4  10  20  36  66  90 124 177 226 264 325 414
#     4  10  19  35  62  94 124 171 228 268 324 401
#
# _framework density 24.274982999999999
#
# number of rings (size 3 to 8) (size 9 to 14) (size 15 to 20)
#    0.000    1.500    5.000    3.750    0.000    0.000 
#    0.000   12.500    0.000    1.500    0.000    0.000 
#    0.000    0.000    0.000    0.000    0.000    0.000 
#
# Total GULP energy -89638.853890 kJ/mol
# GULP energy per Si atom -5602.428368 kJ/mol
# Density = 2.421973 g / cm^3
# Si number density = 24.274983 Si / 1000 Ang^3
#
#
#
# Elastic Constant Matrix: (Units=GPa)
#
#
# Indices 1 2 3 4 5 6 
#
# 1 46.3855 33.4795 31.9585 0.0000 0.0000 0.0000
# 2 33.4795 147.2874 61.3218 0.0000 0.0000 0.0000
# 3 31.9585 61.3218 218.8689 0.0000 0.0000 0.0000
# 4 0.0000 0.0000 0.0000 47.0676 0.0000 0.0000
# 5 0.0000 0.0000 0.0000 0.0000 3.3963 0.0000
# 6 0.0000 0.0000 0.0000 0.0000 0.0000 29.5275
#
#
#
# Elastic Compliance Matrix: (Units=1/GPa)
#
#
# Indices 1 2 3 4 5 6 
#
# 1 0.026957 -0.005082 -0.002512 0.000000 0.000000 0.000000
# 2 -0.005082 0.008644 -0.001680 0.000000 0.000000 0.000000
# 3 -0.002512 -0.001680 0.005406 0.000000 0.000000 0.000000
# 4 0.000000 0.000000 0.000000 0.021246 0.000000 0.000000
# 5 0.000000 0.000000 0.000000 0.000000 0.294439 0.000000
# 6 0.000000 0.000000 0.000000 0.000000 0.000000 0.033867
#
#
# Mechanical properties :
#
#
# Convention : Reuss Voigt Hill
#
# Bulk Modulus (GPa) = 44.52381 74.00681 59.26531
# Shear Modulus (GPa) = 12.00212 35.05043 23.52627
#
# Velocity S-wave (km/s) = 2.22598 3.80398 3.11651
# Velocity P-wave (km/s) = 4.99879 7.06022 6.11697
#
# Compressibility (1/GPa) = 0.02245989
#
# Stress axis : x y z
#
# Youngs Moduli (GPa) = 37.09589 115.68867 184.96405
#
# Poissons Ratio (x) = 0.58787 0.46472
# Poissons Ratio (y) = 0.18850 0.31071
# Poissons Ratio (z) = 0.09320 0.19434
#
# Static dielectric constant tensor:
#      x y z
#    x 1.986190 0.000000 0.000000 
#    y 0.000000 1.910360 0.000000 
#    z 0.000000 0.000000 1.897160 
# 
# From -- ./inp_files/19366.got.cif
#   From: 2010.05.17/outbox.cif.g08.bks.cpg/sg22_10_cif.got.tgz:19366.got - 2010.06.03 23:40:54.
