data_PCOD9326976
_publ_section_title
;
Structure prediction by ZEFSAII (Michael W. Deem and Ramdas Pophale) SiO2 
 PCOD9326976
Probable space group: F 2 2 2
;
_chemical_formula_sum "Si O2"
_cell_formula_units_Z 48
_cell_length_a 5.859220
_cell_length_b 21.094378
_cell_length_c 19.865478
_cell_angle_alpha 90.000000
_cell_angle_beta 90.000000
_cell_angle_gamma 90.000000
_cell_volume 2455.305567
_symmetry_space_group_name_H-M "F 2 2 2"
_symmetry_group_IT_number 22
_symmetry_cell_setting 'orthorhombic'
loop_
_space_group_symop_operation_xyz
x,y,z
-x,-y,z
x,-y,-z
-x,y,-z
x,1/2+y,1/2+z
-x,1/2-y,1/2+z
x,1/2-y,1/2-z
-x,1/2+y,1/2-z
1/2+x,y,1/2+z
1/2-x,-y,1/2+z
1/2+x,-y,1/2-z
1/2-x,y,1/2-z
1/2+x,1/2+y,z
1/2-x,1/2-y,z
1/2+x,1/2-y,-z
1/2-x,1/2+y,-z
loop_
_atom_site_type_symbol
_atom_site_label
_atom_site_fract_x
_atom_site_fract_y
_atom_site_fract_z
Si Si1 0.000000 0.500000 0.589347
Si Si2 0.366265 0.436856 0.314626
Si Si3 0.250000 0.250000 0.964026
Si Si4 0.834774 0.389135 0.065137
O O1 0.167757 0.540204 0.636192
O O2 0.159778 0.447226 0.554892
O O3 0.500000 0.500000 0.289875
O O4 0.250000 0.404769 0.250000
O O5 0.535847 0.400308 0.364233
O O6 0.270006 0.318991 0.929851
O O7 0.500000 0.245214 0.000000
O O8 0.000000 0.391736 0.000000
#
# Coordination Sequence:
#
# PCOD9326976 Si02
#       4
#     8  16   8  16
#     4  10  22  37  64  90 135 156 220 272 335 392
#     4  10  20  37  61  95 129 173 213 265 343 404
#     4  10  24  46  66  93 137 184 220 270 354 412
#     4  10  24  40  63 100 129 174 223 281 337 403
#
# _framework density 19.549500999999999
#
# number of rings (size 3 to 8) (size 9 to 14) (size 15 to 20)
#    0.000    2.000    1.667    0.000    9.333    7.333 
#    0.000    0.000    0.000    6.000    0.000    0.000 
#    0.000    0.000    0.000    0.000    0.000    0.000 
#
# Total GULP energy -66842.234482 kJ/mol
# GULP energy per Si atom -5570.186207 kJ/mol
# Density = 1.950501 g / cm^3
# Si number density = 19.549501 Si / 1000 Ang^3
#
#
#
# Elastic Constant Matrix: (Units=GPa)
#
#
# Indices 1 2 3 4 5 6 
#
# 1 102.1046 55.0055 36.6276 0.0000 0.0000 0.0000
# 2 55.0055 161.0462 55.0366 0.0000 0.0000 0.0000
# 3 36.6276 55.0366 98.6833 0.0000 0.0000 0.0000
# 4 0.0000 0.0000 0.0000 1.2618 0.0000 0.0000
# 5 0.0000 0.0000 0.0000 0.0000 43.4513 0.0000
# 6 0.0000 0.0000 0.0000 0.0000 0.0000 34.9942
#
#
#
# Elastic Compliance Matrix: (Units=1/GPa)
#
#
# Indices 1 2 3 4 5 6 
#
# 1 0.012604 -0.003344 -0.002814 0.000000 0.000000 0.000000
# 2 -0.003344 0.008558 -0.003532 0.000000 0.000000 0.000000
# 3 -0.002814 -0.003532 0.013148 0.000000 0.000000 0.000000
# 4 0.000000 0.000000 0.000000 0.792545 0.000000 0.000000
# 5 0.000000 0.000000 0.000000 0.000000 0.023014 0.000000
# 6 0.000000 0.000000 0.000000 0.000000 0.000000 0.028576
#
#
# Mechanical properties :
#
#
# Convention : Reuss Voigt Hill
#
# Bulk Modulus (GPa) = 66.97023 72.79706 69.88364
# Shear Modulus (GPa) = 5.53831 30.28575 17.91203
#
# Velocity S-wave (km/s) = 1.68497 3.94024 3.03023
# Velocity P-wave (km/s) = 6.17386 7.61700 6.93309
#
# Compressibility (1/GPa) = 0.01493201
#
# Stress axis : x y z
#
# Youngs Moduli (GPa) = 79.33744 116.84335 76.05936
#
# Poissons Ratio (x) = 0.39067 0.21400
# Poissons Ratio (y) = 0.26527 0.26865
# Poissons Ratio (z) = 0.22322 0.41271
#
# Static dielectric constant tensor:
#      x y z
#    x 1.797080 0.000000 0.000000 
#    y 0.000000 1.668450 0.000000 
#    z 0.000000 0.000000 1.707510 
# 
# From -- ./inp_files/2400.got.cif
#   From: 2010.05.17/outbox.cif.g08.bks.cpg/sg22_2_cif.got.tgz:2400.got - 2010.06.03 23:40:54.
