data_PCOD9326793
_publ_section_title
;
Structure prediction by ZEFSAII (Michael W. Deem and Ramdas Pophale) SiO2 
 PCOD9326793
Probable space group: F 2 2 2
;
_chemical_formula_sum "Si O2"
_cell_formula_units_Z 88
_cell_length_a 9.271189
_cell_length_b 19.353145
_cell_length_c 29.266256
_cell_angle_alpha 90.000000
_cell_angle_beta 90.000000
_cell_angle_gamma 90.000000
_cell_volume 5251.146712
_symmetry_space_group_name_H-M "F 2 2 2"
_symmetry_group_IT_number 22
_symmetry_cell_setting 'orthorhombic'
loop_
_space_group_symop_operation_xyz
x,y,z
-x,-y,z
x,-y,-z
-x,y,-z
x,1/2+y,1/2+z
-x,1/2-y,1/2+z
x,1/2-y,1/2-z
-x,1/2+y,1/2-z
1/2+x,y,1/2+z
1/2-x,-y,1/2+z
1/2+x,-y,1/2-z
1/2-x,y,1/2-z
1/2+x,1/2+y,z
1/2-x,1/2-y,z
1/2+x,1/2-y,-z
1/2-x,1/2+y,-z
loop_
_atom_site_type_symbol
_atom_site_label
_atom_site_fract_x
_atom_site_fract_y
_atom_site_fract_z
Si Si1 0.500000 0.000000 0.500000
Si Si2 0.791544 0.040664 0.665747
Si Si3 0.416658 0.401021 0.701754
Si Si4 0.250000 0.750000 0.750000
Si Si5 0.150277 0.533933 0.410780
Si Si6 0.291625 0.324308 0.861277
Si Si7 0.952043 0.140575 0.797233
O O1 0.390800 0.963355 0.464292
O O2 0.652397 0.080301 0.684585
O O3 0.932932 0.086340 0.675005
O O4 0.823243 0.970477 0.694036
O O5 0.766563 0.016809 0.613262
O O6 0.328360 0.340780 0.677298
O O7 0.455455 0.386434 0.754054
O O8 0.150065 0.798975 0.779755
O O9 0.196486 0.609979 0.394812
O O10 0.000000 0.500000 0.391639
O O11 0.250000 0.250000 0.881452
O O12 0.443734 0.328667 0.835405
#
# Coordination Sequence:
#
# PCOD9326793 Si02
#       7
#     4  16  16   4  16  16  16
#     4   8  16  36  68  94 100 132 180 240 292 376
#     4  10  20  35  54  79 106 144 194 246 285 333
#     4  10  22  34  51  76 112 149 195 242 283 323
#     4  12  24  32  46  68 108 156 208 244 284 332
#     4   9  18  36  61  89 105 137 186 239 290 355
#     4  11  23  36  54  80 117 154 192 234 290 346
#     4  12  21  36  49  72 112 161 202 242 281 329
#
# _framework density 16.758244999999999
#
# number of rings (size 3 to 8) (size 9 to 14) (size 15 to 20)
#    0.545    1.091    3.636    1.636    0.000   10.909 
#    0.000    0.000    0.000   10.909    0.000    0.000 
#    0.000    0.000    0.000    0.000    0.000    0.000 
#
# Total GULP energy -122497.677354 kJ/mol
# GULP energy per Si atom -5568.076243 kJ/mol
# Density = 1.672010 g / cm^3
# Si number density = 16.758245 Si / 1000 Ang^3
#
#
#
# Elastic Constant Matrix: (Units=GPa)
#
#
# Indices 1 2 3 4 5 6 
#
# 1 48.7255 25.7068 28.6493 0.0000 0.0000 0.0000
# 2 25.7068 75.3786 30.1616 0.0000 0.0000 0.0000
# 3 28.6493 30.1616 85.9415 0.0000 0.0000 0.0000
# 4 0.0000 0.0000 0.0000 20.2502 0.0000 0.0000
# 5 0.0000 0.0000 0.0000 0.0000 -50.6308 0.0000
# 6 0.0000 0.0000 0.0000 0.0000 0.0000 25.7240
#
#
#
# Elastic Compliance Matrix: (Units=1/GPa)
#
#
# Indices 1 2 3 4 5 6 
#
# 1 0.028253 -0.006825 -0.007023 0.000000 0.000000 0.000000
# 2 -0.006825 0.017082 -0.003720 0.000000 0.000000 0.000000
# 3 -0.007023 -0.003720 0.015283 0.000000 0.000000 0.000000
# 4 0.000000 0.000000 0.000000 0.049382 0.000000 0.000000
# 5 0.000000 0.000000 0.000000 0.000000 -0.019751 0.000000
# 6 0.000000 0.000000 0.000000 0.000000 0.000000 0.038874
#
#
# Mechanical properties :
#
#
# Convention : Reuss Voigt Hill
#
# Bulk Modulus (GPa) = 39.24361 42.12010 40.68185
# Shear Modulus (GPa) = 28.94277 7.43721 18.18999
#
# Velocity S-wave (km/s) = 4.16032 2.10893 3.29817
# Velocity P-wave (km/s) = 6.82246 5.57841 6.23156
#
# Compressibility (1/GPa) = 0.02548186
#
# Stress axis : x y z
#
# Youngs Moduli (GPa) = 35.39395 58.53956 65.43393
#
# Poissons Ratio (x) = 0.39954 0.45955
# Poissons Ratio (y) = 0.24157 0.24341
# Poissons Ratio (z) = 0.24858 0.21776
#
# Static dielectric constant tensor:
#      x y z
#    x 1.594420 0.000000 0.000000 
#    y 0.000000 1.596510 0.000000 
#    z 0.000000 0.000000 1.561400 
# 
# From -- ./inp_files/42092.got.cif
#   From: 2010.05.17/outbox.cif.g08.bks.cpg/sg22_22_cif.got.tgz:42092.got - 2010.06.03 23:40:54.
