data_PCOD9326032
_publ_section_title
;
Structure prediction by ZEFSAII (Michael W. Deem and Ramdas Pophale) SiO2 
 PCOD9326032
Probable space group: F 2 2 2
;
_chemical_formula_sum "Si O2"
_cell_formula_units_Z 64
_cell_length_a 18.431217
_cell_length_b 17.181575
_cell_length_c 9.164126
_cell_angle_alpha 90.000000
_cell_angle_beta 90.000000
_cell_angle_gamma 90.000000
_cell_volume 2902.071020
_symmetry_space_group_name_H-M "F 2 2 2"
_symmetry_group_IT_number 22
_symmetry_cell_setting 'orthorhombic'
loop_
_space_group_symop_operation_xyz
x,y,z
-x,-y,z
x,-y,-z
-x,y,-z
x,1/2+y,1/2+z
-x,1/2-y,1/2+z
x,1/2-y,1/2-z
-x,1/2+y,1/2-z
1/2+x,y,1/2+z
1/2-x,-y,1/2+z
1/2+x,-y,1/2-z
1/2-x,y,1/2-z
1/2+x,1/2+y,z
1/2-x,1/2-y,z
1/2+x,1/2-y,-z
1/2-x,1/2+y,-z
loop_
_atom_site_type_symbol
_atom_site_label
_atom_site_fract_x
_atom_site_fract_y
_atom_site_fract_z
Si Si1 0.356458 0.377990 0.768452
Si Si2 0.658734 0.043524 0.846733
Si Si3 0.509975 0.406461 0.669039
Si Si4 0.252860 0.165060 0.999274
O O1 0.335601 0.469817 0.758192
O O2 0.442827 0.369440 0.754618
O O3 0.314086 0.339268 0.630876
O O4 0.322306 0.347769 0.916143
O O5 0.594861 0.101667 0.795720
O O6 0.726596 0.094480 0.895878
O O7 0.634961 0.000000 0.000000
O O8 0.500000 0.500000 0.684459
O O9 0.500000 0.384584 0.500000
O O10 0.250000 0.250000 0.067213
#
# Coordination Sequence:
#
# PCOD9326032 Si02
#       4
#    16  16  16  16
#     4   9  16  25  43  69  97 118 157 201 236 270
#     4   9  15  26  45  69  93 121 160 199 232 274
#     4   9  11  22  41  65  87 108 153 201 224 250
#     4  10  18  27  41  74 104 118 149 201 245 276
#
# _framework density 22.053217
#
# number of rings (size 3 to 8) (size 9 to 14) (size 15 to 20)
#    0.000    2.750    7.500    1.500    0.000    0.000 
#    0.000    0.000    0.000    0.000    0.000  204.750 
#    0.000    0.000    0.000    0.000    0.000    0.000 
#
# Total GULP energy -89212.807533 kJ/mol
# GULP energy per Si atom -5575.800471 kJ/mol
# Density = 2.200302 g / cm^3
# Si number density = 22.053217 Si / 1000 Ang^3
#
#
#
# Elastic Constant Matrix: (Units=GPa)
#
#
# Indices 1 2 3 4 5 6 
#
# 1 88.6581 16.5908 23.3525 0.0000 0.0000 0.0000
# 2 16.5908 83.4128 15.0222 0.0000 0.0000 0.0000
# 3 23.3525 15.0222 43.5844 0.0000 0.0000 0.0000
# 4 0.0000 0.0000 0.0000 7.4153 0.0000 0.0000
# 5 0.0000 0.0000 0.0000 0.0000 24.1871 0.0000
# 6 0.0000 0.0000 0.0000 0.0000 0.0000 10.4177
#
#
#
# Elastic Compliance Matrix: (Units=1/GPa)
#
#
# Indices 1 2 3 4 5 6 
#
# 1 0.013296 -0.001452 -0.006623 0.000000 0.000000 0.000000
# 2 -0.001452 0.012940 -0.003682 0.000000 0.000000 0.000000
# 3 -0.006623 -0.003682 0.027762 0.000000 0.000000 0.000000
# 4 0.000000 0.000000 0.000000 0.134857 0.000000 0.000000
# 5 0.000000 0.000000 0.000000 0.000000 0.041344 0.000000
# 6 0.000000 0.000000 0.000000 0.000000 0.000000 0.095991
#
#
# Mechanical properties :
#
#
# Convention : Reuss Voigt Hill
#
# Bulk Modulus (GPa) = 32.80501 36.17627 34.49064
# Shear Modulus (GPa) = 13.89406 19.11666 16.50536
#
# Velocity S-wave (km/s) = 2.51275 2.94741 2.73872
# Velocity P-wave (km/s) = 4.82972 5.29365 5.06700
#
# Compressibility (1/GPa) = 0.03048315
#
# Stress axis : x y z
#
# Youngs Moduli (GPa) = 75.21317 77.27695 36.02040
#
# Poissons Ratio (x) = 0.11218 0.23858
# Poissons Ratio (y) = 0.10918 0.13264
# Poissons Ratio (z) = 0.49817 0.28456
#
# Static dielectric constant tensor:
#      x y z
#    x 1.971190 0.000000 0.000000 
#    y 0.000000 1.787600 0.000000 
#    z 0.000000 0.000000 1.812000 
# 
# From -- ./inp_files/21008.got.cif
#   From: 2010.05.17/outbox.cif.g08.bks.cpg/sg22_11_cif.got.tgz:21008.got - 2010.06.03 23:40:54.
