data_PCOD9326512
_publ_section_title
;
Structure prediction by ZEFSAII (Michael W. Deem and Ramdas Pophale) SiO2 
 PCOD9326512
Probable space group: F 2 2 2
;
_chemical_formula_sum "Si O2"
_cell_formula_units_Z 108
_cell_length_a 11.907471
_cell_length_b 19.501471
_cell_length_c 23.529170
_cell_angle_alpha 90.000000
_cell_angle_beta 90.000000
_cell_angle_gamma 90.000000
_cell_volume 5463.783868
_symmetry_space_group_name_H-M "F 2 2 2"
_symmetry_group_IT_number 22
_symmetry_cell_setting 'orthorhombic'
loop_
_space_group_symop_operation_xyz
x,y,z
-x,-y,z
x,-y,-z
-x,y,-z
x,1/2+y,1/2+z
-x,1/2-y,1/2+z
x,1/2-y,1/2-z
-x,1/2+y,1/2-z
1/2+x,y,1/2+z
1/2-x,-y,1/2+z
1/2+x,-y,1/2-z
1/2-x,y,1/2-z
1/2+x,1/2+y,z
1/2-x,1/2-y,z
1/2+x,1/2-y,-z
1/2-x,1/2+y,-z
loop_
_atom_site_type_symbol
_atom_site_label
_atom_site_fract_x
_atom_site_fract_y
_atom_site_fract_z
Si Si1 0.750000 0.250000 0.878814
Si Si2 0.013908 0.579928 0.254688
Si Si3 0.750000 0.250000 0.250000
Si Si4 0.178594 0.395615 0.343526
Si Si5 0.385468 0.841779 0.160263
Si Si6 0.488505 0.401766 0.934810
Si Si7 0.506308 0.256013 0.564312
Si Si8 0.194915 0.949272 0.152553
O O1 0.757140 0.176843 0.845570
O O2 0.635624 0.246751 0.915336
O O3 0.019932 0.620380 0.196753
O O4 0.128240 0.580615 0.292445
O O5 0.000000 0.500000 0.243528
O O6 0.914502 0.607463 0.294042
O O7 0.673804 0.206387 0.206986
O O8 0.106683 0.402494 0.401722
O O9 0.231950 0.471751 0.337082
O O10 0.435794 0.800224 0.108446
O O11 0.297660 0.899460 0.140815
O O12 0.456622 0.321169 0.934977
O O13 0.397392 0.443102 0.897834
O O14 0.500000 0.423285 0.000000
O O15 0.500000 0.282098 0.500000
#
# Coordination Sequence:
#
# PCOD9326512 Si02
#       8
#     8  16   4  16  16  16  16  16
#     4  10  22  43  63  88 119 167 210 254 310 384
#     4   9  19  38  60  86 120 159 205 263 319 378
#     4  12  24  34  64 102 134 154 216 262 336 382
#     4   9  20  36  60  84 124 159 207 256 311 391
#     4  12  23  37  62  92 128 163 208 266 318 390
#     4   9  18  35  58  87 120 159 210 265 313 362
#     4  10  24  42  62  88 127 172 213 258 317 381
#     4  10  19  36  58  92 124 159 202 264 330 368
#
# _framework density 19.766521000000001
#
# number of rings (size 3 to 8) (size 9 to 14) (size 15 to 20)
#    0.000    2.074    1.481    2.222    4.148    6.519 
#    0.000    2.963    0.000    3.111    0.000    0.000 
#    0.000    0.000    0.000    0.000    0.000    0.000 
#
# Total GULP energy -150707.790420 kJ/mol
# GULP energy per Si atom -5581.770016 kJ/mol
# Density = 1.972153 g / cm^3
# Si number density = 19.766521 Si / 1000 Ang^3
#
#
#
# Elastic Constant Matrix: (Units=GPa)
#
#
# Indices 1 2 3 4 5 6 
#
# 1 62.3824 54.0341 17.3288 0.0000 0.0000 0.0000
# 2 54.0341 128.7958 55.2690 0.0000 0.0000 0.0000
# 3 17.3288 55.2690 91.8087 0.0000 0.0000 0.0000
# 4 0.0000 0.0000 0.0000 37.1921 0.0000 0.0000
# 5 0.0000 0.0000 0.0000 0.0000 10.1001 0.0000
# 6 0.0000 0.0000 0.0000 0.0000 0.0000 33.0937
#
#
#
# Elastic Compliance Matrix: (Units=1/GPa)
#
#
# Indices 1 2 3 4 5 6 
#
# 1 0.025504 -0.011641 0.002194 0.000000 0.000000 0.000000
# 2 -0.011641 0.015782 -0.007304 0.000000 0.000000 0.000000
# 3 0.002194 -0.007304 0.014875 0.000000 0.000000 0.000000
# 4 0.000000 0.000000 0.000000 0.026887 0.000000 0.000000
# 5 0.000000 0.000000 0.000000 0.000000 0.099008 0.000000
# 6 0.000000 0.000000 0.000000 0.000000 0.000000 0.030217
#
#
# Mechanical properties :
#
#
# Convention : Reuss Voigt Hill
#
# Bulk Modulus (GPa) = 44.13119 59.58339 51.85729
# Shear Modulus (GPa) = 19.73713 26.50085 23.11899
#
# Velocity S-wave (km/s) = 3.16335 3.66552 3.42366
# Velocity P-wave (km/s) = 5.97638 6.93713 6.47460
#
# Compressibility (1/GPa) = 0.02265971
#
# Stress axis : x y z
#
# Youngs Moduli (GPa) = 39.20924 63.36170 67.22736
#
# Poissons Ratio (x) = 0.73762 -0.14752
# Poissons Ratio (y) = 0.45645 0.49101
# Poissons Ratio (z) = -0.08604 0.46278
#
# Static dielectric constant tensor:
#      x y z
#    x 1.714850 0.000000 0.000000 
#    y 0.000000 1.739120 0.000000 
#    z 0.000000 0.000000 1.676040 
# 
# From -- ./inp_files/48294.got.cif
#   From: 2010.05.17/outbox.cif.g08.bks.cpg/sg22_25_cif.got.tgz:48294.got - 2010.06.03 23:40:54.
