data_PCOD9326108
_publ_section_title
;
Structure prediction by ZEFSAII (Michael W. Deem and Ramdas Pophale) SiO2 
 PCOD9326108
Probable space group: F 2 2 2
;
_chemical_formula_sum "Si O2"
_cell_formula_units_Z 80
_cell_length_a 30.006588
_cell_length_b 8.473425
_cell_length_c 15.755645
_cell_angle_alpha 90.000000
_cell_angle_beta 90.000000
_cell_angle_gamma 90.000000
_cell_volume 4006.007813
_symmetry_space_group_name_H-M "F 2 2 2"
_symmetry_group_IT_number 22
_symmetry_cell_setting 'orthorhombic'
loop_
_space_group_symop_operation_xyz
x,y,z
-x,-y,z
x,-y,-z
-x,y,-z
x,1/2+y,1/2+z
-x,1/2-y,1/2+z
x,1/2-y,1/2-z
-x,1/2+y,1/2-z
1/2+x,y,1/2+z
1/2-x,-y,1/2+z
1/2+x,-y,1/2-z
1/2-x,y,1/2-z
1/2+x,1/2+y,z
1/2-x,1/2-y,z
1/2+x,1/2-y,-z
1/2-x,1/2+y,-z
loop_
_atom_site_type_symbol
_atom_site_label
_atom_site_fract_x
_atom_site_fract_y
_atom_site_fract_z
Si Si1 0.101080 0.558869 0.405150
Si Si2 0.875176 0.133786 0.331102
Si Si3 0.292324 0.049416 0.098689
Si Si4 0.048746 0.938044 0.749135
Si Si5 0.694408 0.075007 0.594984
O O1 0.093311 0.500000 0.500000
O O2 0.109841 0.745904 0.404794
O O3 0.062325 0.508447 0.341200
O O4 0.147233 0.481697 0.369397
O O5 0.871997 0.250000 0.250000
O O6 0.829191 0.049329 0.352241
O O7 0.913657 0.007992 0.312819
O O8 0.303207 0.235788 0.098521
O O9 0.241983 0.021540 0.132443
O O10 0.292905 0.000000 0.000000
O O11 0.049670 0.750000 0.750000
O O12 0.000000 0.000000 0.725680
O O13 0.694002 0.000000 0.500000
#
# Coordination Sequence:
#
# PCOD9326108 Si02
#       5
#    16  16  16  16  16
#     4  10  20  37  60  86 116 149 191 236 279 332
#     4  10  22  38  58  86 117 152 191 232 287 342
#     4  10  18  32  56  83 115 155 197 234 276 335
#     4  11  23  42  63  83 113 150 186 231 292 348
#     4   9  18  31  52  85 118 150 189 238 287 327
#
# _framework density 19.970006000000001
#
# number of rings (size 3 to 8) (size 9 to 14) (size 15 to 20)
#    0.000    2.000    0.000    5.400    0.000    2.800 
#    0.000    7.000    0.000   15.000    0.000    0.000 
#    0.000    0.000    0.000    0.000    0.000    0.000 
#
# Total GULP energy -111662.884271 kJ/mol
# GULP energy per Si atom -5583.144214 kJ/mol
# Density = 1.992455 g / cm^3
# Si number density = 19.970006 Si / 1000 Ang^3
#
#
#
# Elastic Constant Matrix: (Units=GPa)
#
#
# Indices 1 2 3 4 5 6 
#
# 1 82.2402 11.8069 -2.5761 0.0000 0.0000 0.0000
# 2 11.8069 98.4436 -3.3948 0.0000 0.0000 0.0000
# 3 -2.5761 -3.3948 24.1377 0.0000 0.0000 0.0000
# 4 0.0000 0.0000 0.0000 28.1908 0.0000 0.0000
# 5 0.0000 0.0000 0.0000 0.0000 31.1213 0.0000
# 6 0.0000 0.0000 0.0000 0.0000 0.0000 35.8107
#
#
#
# Elastic Compliance Matrix: (Units=1/GPa)
#
#
# Indices 1 2 3 4 5 6 
#
# 1 0.012403 -0.001449 0.001120 0.000000 0.000000 0.000000
# 2 -0.001449 0.010377 0.001305 0.000000 0.000000 0.000000
# 3 0.001120 0.001305 0.041732 0.000000 0.000000 0.000000
# 4 0.000000 0.000000 0.000000 0.035473 0.000000 0.000000
# 5 0.000000 0.000000 0.000000 0.000000 0.032132 0.000000
# 6 0.000000 0.000000 0.000000 0.000000 0.000000 0.027925
#
#
# Mechanical properties :
#
#
# Convention : Reuss Voigt Hill
#
# Bulk Modulus (GPa) = 15.04596 24.05482 19.55039
# Shear Modulus (GPa) = 27.74024 32.29027 30.01525
#
# Velocity S-wave (km/s) = 3.73110 4.02548 3.88108
# Velocity P-wave (km/s) = 5.11000 5.80324 5.46762
#
# Compressibility (1/GPa) = 0.06646302
#
# Stress axis : x y z
#
# Youngs Moduli (GPa) = 80.62825 96.36815 23.96247
#
# Poissons Ratio (x) = 0.13963 -0.02684
# Poissons Ratio (y) = 0.11682 -0.03127
# Poissons Ratio (z) = -0.09030 -0.12574
#
# Static dielectric constant tensor:
#      x y z
#    x 1.698890 0.000000 0.000000 
#    y 0.000000 1.728420 0.000000 
#    z 0.000000 0.000000 1.727730 
# 
# From -- ./inp_files/11616.got.cif
#   From: 2010.05.17/outbox.cif.g08.bks.cpg/sg22_6_cif.got.tgz:11616.got - 2010.06.03 23:40:54.
