data_PCOD9326368
_publ_section_title
;
Structure prediction by ZEFSAII (Michael W. Deem and Ramdas Pophale) SiO2 
 PCOD9326368
Probable space group: F 2 2 2
;
_chemical_formula_sum "Si O2"
_cell_formula_units_Z 52
_cell_length_a 25.509398
_cell_length_b 20.207455
_cell_length_c 5.210619
_cell_angle_alpha 90.000000
_cell_angle_beta 90.000000
_cell_angle_gamma 90.000000
_cell_volume 2685.969945
_symmetry_space_group_name_H-M "F 2 2 2"
_symmetry_group_IT_number 22
_symmetry_cell_setting 'orthorhombic'
loop_
_space_group_symop_operation_xyz
x,y,z
-x,-y,z
x,-y,-z
-x,y,-z
x,1/2+y,1/2+z
-x,1/2-y,1/2+z
x,1/2-y,1/2-z
-x,1/2+y,1/2-z
1/2+x,y,1/2+z
1/2-x,-y,1/2+z
1/2+x,-y,1/2-z
1/2-x,y,1/2-z
1/2+x,1/2+y,z
1/2-x,1/2-y,z
1/2+x,1/2-y,-z
1/2-x,1/2+y,-z
loop_
_atom_site_type_symbol
_atom_site_label
_atom_site_fract_x
_atom_site_fract_y
_atom_site_fract_z
Si Si1 0.523629 0.075179 0.752710
Si Si2 0.250000 0.750000 0.250000
Si Si3 0.697009 0.623167 0.871866
Si Si4 0.145250 0.927465 0.612919
O O1 0.500000 0.106870 0.500000
O O2 0.585706 0.072623 0.782907
O O3 0.500000 0.000000 0.751775
O O4 0.500000 0.109494 0.000000
O O5 0.214228 0.699472 0.411112
O O6 0.750000 0.591536 0.750000
O O7 0.655568 0.617959 0.637772
O O8 0.679603 0.591564 0.138992
O O9 0.156143 0.000000 0.500000
#
# Coordination Sequence:
#
# PCOD9326368 Si02
#       4
#    16   4  16  16
#     4  10  19  33  54  83 126 171 190 241 289 399
#     4   8  24  50  64  86 120 174 252 244 328 334
#     4  10  24  41  64  87 126 172 209 279 293 383
#     4  12  22  36  62  99 130 161 207 248 341 387
#
# _framework density 19.359859
#
# number of rings (size 3 to 8) (size 9 to 14) (size 15 to 20)
#    0.923    0.615    3.077    3.692    4.308    4.923 
#    0.000    0.000    0.000    0.000    0.000   21.538 
#    0.000    0.000    0.000    0.000    0.000    0.000 
#
# Total GULP energy -72376.264436 kJ/mol
# GULP energy per Si atom -5567.404957 kJ/mol
# Density = 1.931580 g / cm^3
# Si number density = 19.359859 Si / 1000 Ang^3
#
#
#
# Elastic Constant Matrix: (Units=GPa)
#
#
# Indices 1 2 3 4 5 6 
#
# 1 106.9833 56.1267 62.6342 0.0046 -0.0002 -0.0076
# 2 56.1267 70.9138 57.4202 -0.0022 0.0005 0.0067
# 3 62.6342 57.4202 211.6522 -0.0017 -0.0036 0.0080
# 4 0.0046 -0.0022 -0.0017 7.7931 -0.0003 -0.0061
# 5 -0.0002 0.0005 -0.0036 -0.0003 36.3063 0.0027
# 6 -0.0076 0.0067 0.0080 -0.0061 0.0027 1.5997
#
#
#
# Elastic Compliance Matrix: (Units=1/GPa)
#
#
# Indices 1 2 3 4 5 6 
#
# 1 0.016455 -0.011637 -0.001712 -0.000013 0.000000 0.000136
# 2 -0.011637 0.026301 -0.003692 0.000013 -0.000001 -0.000147
# 3 -0.001712 -0.003692 0.006233 0.000001 0.000001 -0.000024
# 4 -0.000013 0.000013 0.000001 0.128319 0.000001 0.000488
# 5 0.000000 -0.000001 0.000001 0.000001 0.027543 -0.000046
# 6 0.000136 -0.000147 -0.000024 0.000488 -0.000046 0.625109
#
#
# Mechanical properties :
#
#
# Convention : Reuss Voigt Hill
#
# Bulk Modulus (GPa) = 67.08296 82.43460 74.75878
# Shear Modulus (GPa) = 5.75365 23.36436 14.55901
#
# Velocity S-wave (km/s) = 1.72580 3.47774 2.74527
# Velocity P-wave (km/s) = 6.22069 7.66804 6.98197
#
# Compressibility (1/GPa) = 0.01490692
#
# Stress axis : x y z
#
# Youngs Moduli (GPa) = 60.77155 38.02068 160.43602
#
# Poissons Ratio (x) = 0.44246 0.27473
# Poissons Ratio (y) = 0.70721 0.59227
# Poissons Ratio (z) = 0.10407 0.14036
#
# Static dielectric constant tensor:
#      x y z
#    x 1.738140 0.000000 -0.000020 
#    y 0.000000 1.658980 0.000000 
#    z -0.000020 0.000000 1.703350 
# 
# From -- ./inp_files/6311.got.cif
#   From: 2010.05.17/outbox.cif.g08.bks.cpg/sg22_4_cif.got.tgz:6311.got - 2010.06.03 23:40:54.
