data_PCOD9326223
_publ_section_title
;
Structure prediction by ZEFSAII (Michael W. Deem and Ramdas Pophale) SiO2 
 PCOD9326223
Probable space group: F 2 2 2
;
_chemical_formula_sum "Si O2"
_cell_formula_units_Z 92
_cell_length_a 18.894227
_cell_length_b 20.836782
_cell_length_c 10.649185
_cell_angle_alpha 90.000000
_cell_angle_beta 90.000000
_cell_angle_gamma 90.000000
_cell_volume 4192.529707
_symmetry_space_group_name_H-M "F 2 2 2"
_symmetry_group_IT_number 22
_symmetry_cell_setting 'orthorhombic'
loop_
_space_group_symop_operation_xyz
x,y,z
-x,-y,z
x,-y,-z
-x,y,-z
x,1/2+y,1/2+z
-x,1/2-y,1/2+z
x,1/2-y,1/2-z
-x,1/2+y,1/2-z
1/2+x,y,1/2+z
1/2-x,-y,1/2+z
1/2+x,-y,1/2-z
1/2-x,y,1/2-z
1/2+x,1/2+y,z
1/2-x,1/2-y,z
1/2+x,1/2-y,-z
1/2-x,1/2+y,-z
loop_
_atom_site_type_symbol
_atom_site_label
_atom_site_fract_x
_atom_site_fract_y
_atom_site_fract_z
Si Si1 0.144584 0.175570 0.425665
Si Si2 0.500000 0.365247 0.000000
Si Si3 0.000000 0.000000 0.302078
Si Si4 0.131361 0.823354 0.862079
Si Si5 0.000000 0.613896 0.000000
Si Si6 0.221366 0.636216 0.418366
Si Si7 0.614206 0.040975 0.377526
Si Si8 0.250000 0.250000 0.750000
O O1 0.145967 0.154518 0.279340
O O2 0.156036 0.251493 0.400213
O O3 0.200388 0.144858 0.523629
O O4 0.068210 0.157950 0.479896
O O5 0.549479 0.326762 0.903376
O O6 0.447499 0.408715 0.917312
O O7 0.993489 0.064340 0.384283
O O8 0.927551 0.997505 0.222185
O O9 0.175338 0.866790 0.955879
O O10 0.185663 0.578535 0.339310
O O11 0.207477 0.700791 0.337862
O O12 0.630247 0.000000 0.500000
#
# Coordination Sequence:
#
# PCOD9326223 Si02
#       8
#    16   8   8  16   8  16  16   4
#     4  11  22  44  63 102 138 182 229 283 353 430
#     4  10  18  36  67 105 124 174 226 282 342 408
#     4  11  23  46  62  92 131 179 230 286 358 407
#     4  10  21  39  70 101 140 176 230 284 349 426
#     4  11  27  40  69  91 146 185 219 294 358 414
#     4  11  25  41  69 100 135 185 228 298 356 417
#     4  11  22  42  70  97 129 179 237 293 343 425
#     4  12  24  48  62 108 144 180 232 302 364 428
#
# _framework density 21.943791999999998
#
# number of rings (size 3 to 8) (size 9 to 14) (size 15 to 20)
#    0.000    1.217    3.478    2.087    4.870    1.391 
#    3.130    0.000    0.000    0.000    0.000    0.000 
#    0.000    0.000    0.000    0.000    0.000    0.000 
#
# Total GULP energy -128235.149713 kJ/mol
# GULP energy per Si atom -5575.441292 kJ/mol
# Density = 2.189385 g / cm^3
# Si number density = 21.943792 Si / 1000 Ang^3
#
#
#
# Elastic Constant Matrix: (Units=GPa)
#
#
# Indices 1 2 3 4 5 6 
#
# 1 130.9217 29.2997 36.6462 0.0000 0.0000 0.0000
# 2 29.2997 62.5194 25.9872 0.0000 0.0000 0.0000
# 3 36.6462 25.9872 103.2006 0.0000 0.0000 0.0000
# 4 0.0000 0.0000 0.0000 19.3511 0.0000 0.0000
# 5 0.0000 0.0000 0.0000 0.0000 12.0097 0.0000
# 6 0.0000 0.0000 0.0000 0.0000 0.0000 39.5051
#
#
#
# Elastic Compliance Matrix: (Units=1/GPa)
#
#
# Indices 1 2 3 4 5 6 
#
# 1 0.009032 -0.003239 -0.002392 0.000000 0.000000 0.000000
# 2 -0.003239 0.019026 -0.003641 0.000000 0.000000 0.000000
# 3 -0.002392 -0.003641 0.011456 0.000000 0.000000 0.000000
# 4 0.000000 0.000000 0.000000 0.051677 0.000000 0.000000
# 5 0.000000 0.000000 0.000000 0.000000 0.083266 0.000000
# 6 0.000000 0.000000 0.000000 0.000000 0.000000 0.025313
#
#
# Mechanical properties :
#
#
# Convention : Reuss Voigt Hill
#
# Bulk Modulus (GPa) = 47.68360 53.38977 50.53668
# Shear Modulus (GPa) = 22.19216 27.82040 25.00628
#
# Velocity S-wave (km/s) = 3.18357 3.56448 3.37940
# Velocity P-wave (km/s) = 5.94059 6.42836 6.18928
#
# Compressibility (1/GPa) = 0.02097157
#
# Stress axis : x y z
#
# Youngs Moduli (GPa) = 110.71142 52.55864 87.29027
#
# Poissons Ratio (x) = 0.17023 0.20878
# Poissons Ratio (y) = 0.35858 0.31782
# Poissons Ratio (z) = 0.26480 0.19136
#
# Static dielectric constant tensor:
#      x y z
#    x 1.824620 0.000000 0.000000 
#    y 0.000000 1.898210 0.000000 
#    z 0.000000 0.000000 1.895910 
# 
# From -- ./inp_files/21465.got.cif
#   From: 2010.05.17/outbox.cif.g08.bks.cpg/sg22_11_cif.got.tgz:21465.got - 2010.06.03 23:40:54.
