data_PCOD9327067
_publ_section_title
;
Structure prediction by ZEFSAII (Michael W. Deem and Ramdas Pophale) SiO2 
 PCOD9327067
Probable space group: F 2 2 2
;
_chemical_formula_sum "Si O2"
_cell_formula_units_Z 104
_cell_length_a 27.305964
_cell_length_b 18.450808
_cell_length_c 9.539835
_cell_angle_alpha 90.000000
_cell_angle_beta 90.000000
_cell_angle_gamma 90.000000
_cell_volume 4806.331995
_symmetry_space_group_name_H-M "F 2 2 2"
_symmetry_group_IT_number 22
_symmetry_cell_setting 'orthorhombic'
loop_
_space_group_symop_operation_xyz
x,y,z
-x,-y,z
x,-y,-z
-x,y,-z
x,1/2+y,1/2+z
-x,1/2-y,1/2+z
x,1/2-y,1/2-z
-x,1/2+y,1/2-z
1/2+x,y,1/2+z
1/2-x,-y,1/2+z
1/2+x,-y,1/2-z
1/2-x,y,1/2-z
1/2+x,1/2+y,z
1/2-x,1/2-y,z
1/2+x,1/2-y,-z
1/2-x,1/2+y,-z
loop_
_atom_site_type_symbol
_atom_site_label
_atom_site_fract_x
_atom_site_fract_y
_atom_site_fract_z
Si Si1 0.811154 0.880808 0.604908
Si Si2 0.537969 0.835699 0.778760
Si Si3 0.796115 0.581048 0.566416
Si Si4 0.113044 0.000000 0.500000
Si Si5 0.891066 0.301807 0.976278
Si Si6 0.901233 0.863881 0.997130
Si Si7 0.933773 0.908981 0.275214
O O1 0.804540 0.906845 0.765690
O O2 0.757231 0.884635 0.538893
O O3 0.839887 0.807012 0.563781
O O4 0.849363 0.936699 0.538647
O O5 0.527615 0.750000 0.750000
O O6 0.568744 0.837171 0.920740
O O7 0.571873 0.865485 0.652767
O O8 0.488239 0.879471 0.793227
O O9 0.794606 0.500000 0.500000
O O10 0.844007 0.618595 0.505697
O O11 0.079838 0.977962 0.631649
O O12 0.906482 0.219382 0.955523
O O13 0.896108 0.347311 0.834199
O O14 0.925004 0.916695 0.110663
#
# Coordination Sequence:
#
# PCOD9327067 Si02
#       7
#    16  16  16   8  16  16  16
#     4  10  21  40  62  88 119 164 214 265 322 391
#     4  10  20  38  64  96 130 167 210 260 324 389
#     4  11  22  38  65  86 120 168 218 260 324 384
#     4  10  22  42  61  90 124 166 217 262 314 382
#     4  10  21  39  62  94 131 162 211 265 325 389
#     4  11  22  38  64  98 127 163 211 270 323 385
#     4  11  22  38  65  91 128 171 210 259 316 384
#
# _framework density 21.638121000000002
#
# number of rings (size 3 to 8) (size 9 to 14) (size 15 to 20)
#    0.000    1.538    2.308    3.231    0.000    3.077 
#    0.000    7.692    0.000    4.615    0.000    0.000 
#    0.000    0.000    0.000    0.000    0.000    0.000 
#
# Total GULP energy -145159.686420 kJ/mol
# GULP energy per Si atom -5583.064862 kJ/mol
# Density = 2.158887 g / cm^3
# Si number density = 21.638121 Si / 1000 Ang^3
#
#
#
# Elastic Constant Matrix: (Units=GPa)
#
#
# Indices 1 2 3 4 5 6 
#
# 1 147.9595 20.2230 22.4722 0.0000 0.0000 0.0000
# 2 20.2230 16.1996 15.7784 0.0000 0.0000 0.0000
# 3 22.4722 15.7784 91.4240 0.0000 0.0000 0.0000
# 4 0.0000 0.0000 0.0000 33.1636 0.0000 0.0000
# 5 0.0000 0.0000 0.0000 0.0000 17.0144 0.0000
# 6 0.0000 0.0000 0.0000 0.0000 0.0000 38.7052
#
#
#
# Elastic Compliance Matrix: (Units=1/GPa)
#
#
# Indices 1 2 3 4 5 6 
#
# 1 0.008156 -0.009891 -0.000298 0.000000 0.000000 0.000000
# 2 -0.009891 0.086200 -0.012445 0.000000 0.000000 0.000000
# 3 -0.000298 -0.012445 0.013159 0.000000 0.000000 0.000000
# 4 0.000000 0.000000 0.000000 0.030154 0.000000 0.000000
# 5 0.000000 0.000000 0.000000 0.000000 0.058774 0.000000
# 6 0.000000 0.000000 0.000000 0.000000 0.000000 0.025836
#
#
# Mechanical properties :
#
#
# Convention : Reuss Voigt Hill
#
# Bulk Modulus (GPa) = 16.06540 41.39226 28.72883
# Shear Modulus (GPa) = 17.34330 30.91726 24.13028
#
# Velocity S-wave (km/s) = 2.83418 3.78409 3.34305
# Velocity P-wave (km/s) = 4.26037 6.18574 5.31103
#
# Compressibility (1/GPa) = 0.06224557
#
# Stress axis : x y z
#
# Youngs Moduli (GPa) = 122.61279 11.60096 75.99308
#
# Poissons Ratio (x) = 0.11475 0.02261
# Poissons Ratio (y) = 1.21282 0.94577
# Poissons Ratio (z) = 0.03649 0.14438
#
# Static dielectric constant tensor:
#      x y z
#    x 1.755600 0.000000 0.000000 
#    y 0.000000 1.906940 0.000000 
#    z 0.000000 0.000000 1.802170 
# 
# From -- ./inp_files/14799.got.cif
#   From: 2010.05.17/outbox.cif.g08.bks.cpg/sg22_8_cif.got.tgz:14799.got - 2010.06.03 23:40:54.
