data_PCOD9327877
_publ_section_title
;
Structure prediction by ZEFSAII (Michael W. Deem and Ramdas Pophale) SiO2 
 PCOD9327877
Probable space group: F 2 2 2
;
_chemical_formula_sum "Si O2"
_cell_formula_units_Z 84
_cell_length_a 16.510657
_cell_length_b 15.965766
_cell_length_c 14.388469
_cell_angle_alpha 90.000000
_cell_angle_beta 90.000000
_cell_angle_gamma 90.000000
_cell_volume 3792.876488
_symmetry_space_group_name_H-M "F 2 2 2"
_symmetry_group_IT_number 22
_symmetry_cell_setting 'orthorhombic'
loop_
_space_group_symop_operation_xyz
x,y,z
-x,-y,z
x,-y,-z
-x,y,-z
x,1/2+y,1/2+z
-x,1/2-y,1/2+z
x,1/2-y,1/2-z
-x,1/2+y,1/2-z
1/2+x,y,1/2+z
1/2-x,-y,1/2+z
1/2+x,-y,1/2-z
1/2-x,y,1/2-z
1/2+x,1/2+y,z
1/2-x,1/2-y,z
1/2+x,1/2-y,-z
1/2-x,1/2+y,-z
loop_
_atom_site_type_symbol
_atom_site_label
_atom_site_fract_x
_atom_site_fract_y
_atom_site_fract_z
Si Si1 0.894077 0.141649 0.430044
Si Si2 0.900779 0.193046 0.162944
Si Si3 0.750000 0.750000 0.250000
Si Si4 0.016091 0.413122 0.231777
Si Si5 0.326942 0.894428 0.872775
Si Si6 0.765564 0.556593 0.642006
O O1 0.908333 0.240344 0.418802
O O2 0.884009 0.117592 0.537011
O O3 0.805769 0.116589 0.393267
O O4 0.958777 0.097142 0.360914
O O5 0.866140 0.250000 0.250000
O O6 0.846939 0.112414 0.136104
O O7 0.986579 0.161027 0.202281
O O8 0.706046 0.811456 0.176375
O O9 0.108450 0.422449 0.203872
O O10 0.000000 0.500000 0.281760
O O11 0.257023 0.963075 0.895898
O O12 0.750000 0.544255 0.750000
#
# Coordination Sequence:
#
# PCOD9327877 Si02
#       6
#    16  16   4  16  16  16
#     4  11  24  40  71 103 135 174 237 296 330 408
#     4  10  22  38  70 104 129 177 229 293 339 403
#     4  12  32  44  64  88 152 190 224 272 360 444
#     4  11  22  42  69  98 135 174 230 284 341 404
#     4  12  27  46  62  99 139 190 224 282 353 416
#     4  12  20  40  66  98 135 167 225 281 349 406
#
# _framework density 22.14678
#
# number of rings (size 3 to 8) (size 9 to 14) (size 15 to 20)
#    0.000    0.762    6.667    1.714    6.667    0.762 
#    0.000    0.000    0.000    0.000    0.000    1.333 
#    0.000    0.000    0.000    0.000    0.000    0.000 
#
# Total GULP energy -116971.861604 kJ/mol
# GULP energy per Si atom -5570.088648 kJ/mol
# Density = 2.209637 g / cm^3
# Si number density = 22.146780 Si / 1000 Ang^3
#
#
#
# Elastic Constant Matrix: (Units=GPa)
#
#
# Indices 1 2 3 4 5 6 
#
# 1 45.7210 19.6023 -15.6303 0.0000 0.0000 0.0000
# 2 19.6023 139.0178 4.0706 0.0000 0.0000 0.0000
# 3 -15.6303 4.0706 23.9076 0.0000 0.0000 0.0000
# 4 0.0000 0.0000 0.0000 21.6360 0.0000 0.0000
# 5 0.0000 0.0000 0.0000 0.0000 10.7284 0.0000
# 6 0.0000 0.0000 0.0000 0.0000 0.0000 38.7966
#
#
#
# Elastic Compliance Matrix: (Units=1/GPa)
#
#
# Indices 1 2 3 4 5 6 
#
# 1 0.031329 -0.005043 0.021341 0.000000 0.000000 0.000000
# 2 -0.005043 0.008041 -0.004666 0.000000 0.000000 0.000000
# 3 0.021341 -0.004666 0.056574 0.000000 0.000000 0.000000
# 4 0.000000 0.000000 0.000000 0.046219 0.000000 0.000000
# 5 0.000000 0.000000 0.000000 0.000000 0.093210 0.000000
# 6 0.000000 0.000000 0.000000 0.000000 0.000000 0.025775
#
#
# Mechanical properties :
#
#
# Convention : Reuss Voigt Hill
#
# Bulk Modulus (GPa) = 8.38856 24.97020 16.67938
# Shear Modulus (GPa) = 18.01016 27.60578 22.80797
#
# Velocity S-wave (km/s) = 2.85479 3.53440 3.21262
# Velocity P-wave (km/s) = 3.82915 5.28728 4.61615
#
# Compressibility (1/GPa) = 0.11921004
#
# Stress axis : x y z
#
# Youngs Moduli (GPa) = 31.91895 124.36313 17.67586
#
# Poissons Ratio (x) = 0.62710 -0.37722
# Poissons Ratio (y) = 0.16095 0.08247
# Poissons Ratio (z) = -0.68118 0.58025
#
# Static dielectric constant tensor:
#      x y z
#    x 2.122780 0.000000 0.000000 
#    y 0.000000 1.898910 0.000000 
#    z 0.000000 0.000000 2.013860 
# 
# From -- ./inp_files/31463.got.cif
#   From: 2010.05.17/outbox.cif.g08.bks.cpg/sg22_16_cif.got.tgz:31463.got - 2010.06.03 23:40:54.
