data_PCOD9327412
_publ_section_title
;
Structure prediction by ZEFSAII (Michael W. Deem and Ramdas Pophale) SiO2 
 PCOD9327412
Probable space group: F 2 2 2
;
_chemical_formula_sum "Si O2"
_cell_formula_units_Z 104
_cell_length_a 27.412058
_cell_length_b 8.775688
_cell_length_c 20.686522
_cell_angle_alpha 90.000000
_cell_angle_beta 90.000000
_cell_angle_gamma 90.000000
_cell_volume 4976.342874
_symmetry_space_group_name_H-M "F 2 2 2"
_symmetry_group_IT_number 22
_symmetry_cell_setting 'orthorhombic'
loop_
_space_group_symop_operation_xyz
x,y,z
-x,-y,z
x,-y,-z
-x,y,-z
x,1/2+y,1/2+z
-x,1/2-y,1/2+z
x,1/2-y,1/2-z
-x,1/2+y,1/2-z
1/2+x,y,1/2+z
1/2-x,-y,1/2+z
1/2+x,-y,1/2-z
1/2-x,y,1/2-z
1/2+x,1/2+y,z
1/2-x,1/2-y,z
1/2+x,1/2-y,-z
1/2-x,1/2+y,-z
loop_
_atom_site_type_symbol
_atom_site_label
_atom_site_fract_x
_atom_site_fract_y
_atom_site_fract_z
Si Si1 0.788050 0.442854 0.867989
Si Si2 0.703771 0.401260 0.204758
Si Si3 0.083577 0.047459 0.928445
Si Si4 0.167898 0.269780 0.922188
Si Si5 0.500000 0.500000 0.174427
Si Si6 0.142544 0.169642 0.162156
Si Si7 0.250000 0.250000 0.027691
Si Si8 0.559807 0.250000 0.750000
O O1 0.756745 0.519768 0.810801
O O2 0.827794 0.558974 0.895820
O O3 0.813544 0.285678 0.849015
O O4 0.752541 0.398441 0.926883
O O5 0.698839 0.250000 0.250000
O O6 0.692341 0.328815 0.134480
O O7 0.663324 0.535744 0.209848
O O8 0.114762 0.201956 0.933331
O O9 0.041483 0.062373 0.874563
O O10 0.120552 0.918284 0.899775
O O11 0.066585 0.000000 0.000000
O O12 0.202017 0.253214 0.984298
O O13 0.525672 0.618961 0.222085
O O14 0.098355 0.267909 0.191594
#
# Coordination Sequence:
#
# PCOD9327412 Si02
#       8
#    16  16  16  16   8  16   8   8
#     4  12  22  36  59  87 127 172 210 259 301 365
#     4  11  22  39  55  82 126 171 213 253 302 368
#     4  10  22  41  65  92 122 159 213 264 329 394
#     4  11  25  36  58  91 124 172 212 265 308 371
#     4  10  23  44  70  94 121 162 204 276 348 386
#     4  10  21  37  61  91 118 166 206 254 313 379
#     4  12  22  38  56  86 130 176 218 248 310 382
#     4  10  22  42  65  94 120 151 208 260 330 410
#
# _framework density 20.898882
#
# number of rings (size 3 to 8) (size 9 to 14) (size 15 to 20)
#    0.000    1.231    3.077    2.538    2.154    3.077 
#    0.000    0.000    0.000    0.000    0.000    3.231 
#    0.000    0.000    0.000    0.000    0.000    0.000 
#
# Total GULP energy -145123.212350 kJ/mol
# GULP energy per Si atom -5581.662013 kJ/mol
# Density = 2.085132 g / cm^3
# Si number density = 20.898882 Si / 1000 Ang^3
#
#
#
# Elastic Constant Matrix: (Units=GPa)
#
#
# Indices 1 2 3 4 5 6 
#
# 1 107.8617 55.3364 44.7572 0.0000 0.0000 0.0000
# 2 55.3364 112.3570 58.7034 0.0000 0.0000 0.0000
# 3 44.7572 58.7034 110.8224 0.0000 0.0000 0.0000
# 4 0.0000 0.0000 0.0000 29.7075 0.0000 0.0000
# 5 0.0000 0.0000 0.0000 0.0000 -9.3956 0.0000
# 6 0.0000 0.0000 0.0000 0.0000 0.0000 38.5504
#
#
#
# Elastic Compliance Matrix: (Units=1/GPa)
#
#
# Indices 1 2 3 4 5 6 
#
# 1 0.012907 -0.005024 -0.002552 0.000000 0.000000 0.000000
# 2 -0.005024 0.014261 -0.005525 0.000000 0.000000 0.000000
# 3 -0.002552 -0.005525 0.012981 0.000000 0.000000 0.000000
# 4 0.000000 0.000000 0.000000 0.033662 0.000000 0.000000
# 5 0.000000 0.000000 0.000000 0.000000 -0.106432 0.000000
# 6 0.000000 0.000000 0.000000 0.000000 0.000000 0.025940
#
#
# Mechanical properties :
#
#
# Convention : Reuss Voigt Hill
#
# Bulk Modulus (GPa) = 71.69603 72.07055 71.88329
# Shear Modulus (GPa) = 206.87299 23.25539 115.06419
#
# Velocity S-wave (km/s) = 9.96004 3.33942 7.42813
# Velocity P-wave (km/s) = 12.90932 7.03059 10.39422
#
# Compressibility (1/GPa) = 0.01394777
#
# Stress axis : x y z
#
# Youngs Moduli (GPa) = 77.47566 70.11997 77.03672
#
# Poissons Ratio (x) = 0.35226 0.19657
# Poissons Ratio (y) = 0.38922 0.42566
# Poissons Ratio (z) = 0.19769 0.38744
#
# Static dielectric constant tensor:
#      x y z
#    x 1.799250 0.000000 0.000000 
#    y 0.000000 1.773730 0.000000 
#    z 0.000000 0.000000 1.839260 
# 
# From -- ./inp_files/46049.got.cif
#   From: 2010.05.17/outbox.cif.g08.bks.cpg/sg22_24_cif.got.tgz:46049.got - 2010.06.03 23:40:54.
