data_PCOD9327992
_publ_section_title
;
Structure prediction by ZEFSAII (Michael W. Deem and Ramdas Pophale) SiO2 
 PCOD9327992
Probable space group: F 2 2 2
;
_chemical_formula_sum "Si O2"
_cell_formula_units_Z 80
_cell_length_a 19.483496
_cell_length_b 12.217063
_cell_length_c 14.902600
_cell_angle_alpha 90.000000
_cell_angle_beta 90.000000
_cell_angle_gamma 90.000000
_cell_volume 3547.282242
_symmetry_space_group_name_H-M "F 2 2 2"
_symmetry_group_IT_number 22
_symmetry_cell_setting 'orthorhombic'
loop_
_space_group_symop_operation_xyz
x,y,z
-x,-y,z
x,-y,-z
-x,y,-z
x,1/2+y,1/2+z
-x,1/2-y,1/2+z
x,1/2-y,1/2-z
-x,1/2+y,1/2-z
1/2+x,y,1/2+z
1/2-x,-y,1/2+z
1/2+x,-y,1/2-z
1/2-x,y,1/2-z
1/2+x,1/2+y,z
1/2-x,1/2-y,z
1/2+x,1/2-y,-z
1/2-x,1/2+y,-z
loop_
_atom_site_type_symbol
_atom_site_label
_atom_site_fract_x
_atom_site_fract_y
_atom_site_fract_z
Si Si1 0.796371 0.890804 0.457029
Si Si2 0.610601 0.904786 0.203022
Si Si3 0.905744 0.866887 0.793671
Si Si4 0.552749 0.302248 0.870277
Si Si5 0.348742 0.836342 0.479752
O O1 0.821183 0.887761 0.354875
O O2 0.714835 0.888753 0.467888
O O3 0.827483 0.791079 0.514269
O O4 0.825321 0.000000 0.500000
O O5 0.555973 0.829524 0.145879
O O6 0.608664 0.849721 0.300508
O O7 0.596295 0.032026 0.224603
O O8 0.888258 0.750000 0.750000
O O9 0.981621 0.851332 0.836104
O O10 0.856944 0.881792 0.880079
O O11 0.579724 0.339767 0.966368
#
# Coordination Sequence:
#
# PCOD9327992 Si02
#       5
#    16  16  16  16  16
#     4  10  22  45  64  91 135 176 230 270 332 406
#     4  10  22  41  66  95 132 174 219 275 332 400
#     4  12  23  40  69 101 140 169 226 283 344 402
#     4  10  22  42  66  98 133 174 226 275 336 406
#     4  10  24  42  66  99 133 179 226 278 336 407
#
# _framework density 22.552478000000001
#
# number of rings (size 3 to 8) (size 9 to 14) (size 15 to 20)
#    0.000    1.600    2.000    2.400    2.800    0.800 
#    0.000   12.000    0.000    0.000    0.000    0.000 
#    0.000    0.000    0.000    0.000    0.000    0.000 
#
# Total GULP energy -111602.801308 kJ/mol
# GULP energy per Si atom -5580.140065 kJ/mol
# Density = 2.250115 g / cm^3
# Si number density = 22.552478 Si / 1000 Ang^3
#
#
#
# Elastic Constant Matrix: (Units=GPa)
#
#
# Indices 1 2 3 4 5 6 
#
# 1 100.3597 12.4596 33.8047 0.0000 0.0000 0.0000
# 2 12.4596 133.6521 4.3158 0.0000 0.0000 0.0000
# 3 33.8047 4.3158 75.6660 0.0000 0.0000 0.0000
# 4 0.0000 0.0000 0.0000 18.7252 0.0000 0.0000
# 5 0.0000 0.0000 0.0000 0.0000 24.2034 0.0000
# 6 0.0000 0.0000 0.0000 0.0000 0.0000 -0.8059
#
#
#
# Elastic Compliance Matrix: (Units=1/GPa)
#
#
# Indices 1 2 3 4 5 6 
#
# 1 0.011845 -0.000935 -0.005238 0.000000 0.000000 0.000000
# 2 -0.000935 0.007570 -0.000014 0.000000 0.000000 0.000000
# 3 -0.005238 -0.000014 0.015557 0.000000 0.000000 0.000000
# 4 0.000000 0.000000 0.000000 0.053404 0.000000 0.000000
# 5 0.000000 0.000000 0.000000 0.000000 0.041317 0.000000
# 6 0.000000 0.000000 0.000000 0.000000 0.000000 -1.240801
#
#
# Mechanical properties :
#
#
# Convention : Reuss Voigt Hill
#
# Bulk Modulus (GPa) = 44.25452 45.64866 44.95159
# Shear Modulus (GPa) = -4.58210 25.69770 10.55780
#
# Velocity S-wave (km/s) = -1.42694 3.37925 2.16601
# Velocity P-wave (km/s) = 4.11711 5.95910 5.12159
#
# Compressibility (1/GPa) = 0.02259656
#
# Stress axis : x y z
#
# Youngs Moduli (GPa) = 84.42571 132.10502 64.27927
#
# Poissons Ratio (x) = 0.12353 0.33672
# Poissons Ratio (y) = 0.07894 0.00090
# Poissons Ratio (z) = 0.44226 0.00185
#
# Static dielectric constant tensor:
#      x y z
#    x 1.859770 0.000000 0.000000 
#    y 0.000000 1.926830 0.000000 
#    z 0.000000 0.000000 1.831630 
# 
# From -- ./inp_files/32271.got.cif
#   From: 2010.05.17/outbox.cif.g08.bks.cpg/sg22_17_cif.got.tgz:32271.got - 2010.06.03 23:40:54.
