data_PCOD9327896
_publ_section_title
;
Structure prediction by ZEFSAII (Michael W. Deem and Ramdas Pophale) SiO2 
 PCOD9327896
Probable space group: F 2 2 2
;
_chemical_formula_sum "Si O2"
_cell_formula_units_Z 56
_cell_length_a 14.184142
_cell_length_b 12.040416
_cell_length_c 14.286016
_cell_angle_alpha 90.000000
_cell_angle_beta 90.000000
_cell_angle_gamma 90.000000
_cell_volume 2439.808246
_symmetry_space_group_name_H-M "F 2 2 2"
_symmetry_group_IT_number 22
_symmetry_cell_setting 'orthorhombic'
loop_
_space_group_symop_operation_xyz
x,y,z
-x,-y,z
x,-y,-z
-x,y,-z
x,1/2+y,1/2+z
-x,1/2-y,1/2+z
x,1/2-y,1/2-z
-x,1/2+y,1/2-z
1/2+x,y,1/2+z
1/2-x,-y,1/2+z
1/2+x,-y,1/2-z
1/2-x,y,1/2-z
1/2+x,1/2+y,z
1/2-x,1/2-y,z
1/2+x,1/2-y,-z
1/2-x,1/2+y,-z
loop_
_atom_site_type_symbol
_atom_site_label
_atom_site_fract_x
_atom_site_fract_y
_atom_site_fract_z
Si Si1 0.926418 0.337935 0.648377
Si Si2 0.750000 0.444363 0.250000
Si Si3 0.360649 0.107827 0.148271
Si Si4 0.000000 0.000000 0.000000
Si Si5 0.000000 0.500000 0.000000
Si Si6 0.597182 0.250000 0.250000
O O1 0.851715 0.239750 0.634334
O O2 0.907784 0.397598 0.747624
O O3 0.937193 0.422868 0.565747
O O4 0.026471 0.273295 0.663589
O O5 0.729404 0.527977 0.337190
O O6 0.662235 0.358995 0.253567
O O7 0.430179 0.066347 0.068381
#
# Coordination Sequence:
#
# PCOD9327896 Si02
#       6
#    16   8  16   4   4   8
#     4  10  22  41  64  93 132 188 241 281 351 447
#     4  11  20  37  64  96 132 171 222 297 360 404
#     4  10  22  39  65  96 132 176 233 296 355 423
#     4  12  20  36  70 104 132 176 260 318 336 412
#     4  12  20  40  70 100 128 178 240 284 340 444
#     4   9  20  38  62  91 130 180 228 279 354 424
#
# _framework density 22.952622000000002
#
# number of rings (size 3 to 8) (size 9 to 14) (size 15 to 20)
#    0.000    2.000    0.000    6.857    0.000    2.286 
#    0.000    5.714    0.000   17.143    0.000    0.000 
#    0.000    0.000    0.000    0.000    0.000    0.000 
#
# Total GULP energy -78134.187551 kJ/mol
# GULP energy per Si atom -5581.013397 kJ/mol
# Density = 2.290038 g / cm^3
# Si number density = 22.952622 Si / 1000 Ang^3
#
#
#
# Elastic Constant Matrix: (Units=GPa)
#
#
# Indices 1 2 3 4 5 6 
#
# 1 130.2583 63.2867 45.9614 0.0000 0.0000 0.0000
# 2 63.2867 189.7584 80.5288 0.0000 0.0000 0.0000
# 3 45.9614 80.5288 147.3584 0.0000 0.0000 0.0000
# 4 0.0000 0.0000 0.0000 34.8327 0.0000 0.0000
# 5 0.0000 0.0000 0.0000 0.0000 21.5516 0.0000
# 6 0.0000 0.0000 0.0000 0.0000 0.0000 32.4035
#
#
#
# Elastic Compliance Matrix: (Units=1/GPa)
#
#
# Indices 1 2 3 4 5 6 
#
# 1 0.009440 -0.002472 -0.001593 0.000000 0.000000 0.000000
# 2 -0.002472 0.007508 -0.003332 0.000000 0.000000 0.000000
# 3 -0.001593 -0.003332 0.009104 0.000000 0.000000 0.000000
# 4 0.000000 0.000000 0.000000 0.028709 0.000000 0.000000
# 5 0.000000 0.000000 0.000000 0.000000 0.046400 0.000000
# 6 0.000000 0.000000 0.000000 0.000000 0.000000 0.030861
#
#
# Mechanical properties :
#
#
# Convention : Reuss Voigt Hill
#
# Bulk Modulus (GPa) = 88.83097 94.10321 91.46709
# Shear Modulus (GPa) = 33.20693 36.26411 34.73552
#
# Velocity S-wave (km/s) = 3.80776 3.97918 3.89441
# Velocity P-wave (km/s) = 7.62351 7.88668 7.75621
#
# Compressibility (1/GPa) = 0.01125734
#
# Stress axis : x y z
#
# Youngs Moduli (GPa) = 105.92686 133.18281 109.84030
#
# Poissons Ratio (x) = 0.32927 0.17502
# Poissons Ratio (y) = 0.26188 0.36600
# Poissons Ratio (z) = 0.16879 0.44378
#
# Static dielectric constant tensor:
#      x y z
#    x 1.974160 0.000000 0.000000 
#    y 0.000000 1.920260 0.000000 
#    z 0.000000 0.000000 1.772310 
# 
# From -- ./inp_files/28763.got.cif
#   From: 2010.05.17/outbox.cif.g08.bks.cpg/sg22_15_cif.got.tgz:28763.got - 2010.06.03 23:40:54.
