data_PCOD9327194
_publ_section_title
;
Structure prediction by ZEFSAII (Michael W. Deem and Ramdas Pophale) SiO2 
 PCOD9327194
Probable space group: F 2 2 2
;
_chemical_formula_sum "Si O2"
_cell_formula_units_Z 108
_cell_length_a 15.475662
_cell_length_b 23.536493
_cell_length_c 14.656488
_cell_angle_alpha 90.000000
_cell_angle_beta 90.000000
_cell_angle_gamma 90.000000
_cell_volume 5338.520379
_symmetry_space_group_name_H-M "F 2 2 2"
_symmetry_group_IT_number 22
_symmetry_cell_setting 'orthorhombic'
loop_
_space_group_symop_operation_xyz
x,y,z
-x,-y,z
x,-y,-z
-x,y,-z
x,1/2+y,1/2+z
-x,1/2-y,1/2+z
x,1/2-y,1/2-z
-x,1/2+y,1/2-z
1/2+x,y,1/2+z
1/2-x,-y,1/2+z
1/2+x,-y,1/2-z
1/2-x,y,1/2-z
1/2+x,1/2+y,z
1/2-x,1/2-y,z
1/2+x,1/2-y,-z
1/2-x,1/2+y,-z
loop_
_atom_site_type_symbol
_atom_site_label
_atom_site_fract_x
_atom_site_fract_y
_atom_site_fract_z
Si Si1 0.138873 0.500000 0.500000
Si Si2 0.444582 0.817903 0.267060
Si Si3 0.405702 0.997320 0.891874
Si Si4 0.870031 0.838114 0.154922
Si Si5 0.365022 0.126133 0.550937
Si Si6 0.750000 0.250000 0.750000
Si Si7 0.749919 0.445815 0.656444
Si Si8 0.807574 0.888189 0.658504
O O1 0.099946 0.439705 0.537878
O O2 0.199752 0.520631 0.580325
O O3 0.443189 0.750000 0.250000
O O4 0.543716 0.837648 0.283439
O O5 0.403497 0.839805 0.363193
O O6 0.386331 0.845507 0.185969
O O7 0.353140 0.052441 0.861963
O O8 0.500000 0.000000 0.848757
O O9 0.349728 0.941496 0.870200
O O10 0.412974 0.000000 0.000000
O O11 0.812904 0.785198 0.184517
O O12 0.807557 0.891221 0.173460
O O13 0.885235 0.843289 0.045504
O O14 0.261591 0.123447 0.576145
O O15 0.750000 0.479476 0.750000
O O16 0.750000 0.889326 0.750000
#
# Coordination Sequence:
#
# PCOD9327194 Si02
#       8
#     8  16  16  16  16   4  16  16
#     4  10  20  40  66  98 138 174 230 286 347 435
#     4  11  25  45  68 100 140 178 242 301 345 410
#     4  11  22  37  60  93 137 173 216 281 344 421
#     4  11  24  44  68  94 133 181 236 284 352 423
#     4  10  22  43  72  99 137 182 228 290 360 431
#     4  12  24  44  64  88 124 176 228 276 350 404
#     4  11  21  37  65  92 132 178 219 278 353 428
#     4  10  22  41  67 100 135 179 230 279 354 421
#
# _framework density 20.230322999999999
#
# number of rings (size 3 to 8) (size 9 to 14) (size 15 to 20)
#    0.000    1.333    3.704    1.778    4.148    3.852 
#    0.000    5.926    3.259    0.000    0.000    0.000 
#    0.000    0.000    0.000    0.000    0.000    0.000 
#
# Total GULP energy -150332.812984 kJ/mol
# GULP energy per Si atom -5567.881962 kJ/mol
# Density = 2.018428 g / cm^3
# Si number density = 20.230323 Si / 1000 Ang^3
#
#
#
# Elastic Constant Matrix: (Units=GPa)
#
#
# Indices 1 2 3 4 5 6 
#
# 1 145.4770 57.8097 9.2335 0.0000 0.0000 0.0000
# 2 57.8097 126.2614 35.5118 0.0000 0.0000 0.0000
# 3 9.2335 35.5118 72.1759 0.0000 0.0000 0.0000
# 4 0.0000 0.0000 0.0000 46.7462 0.0000 0.0000
# 5 0.0000 0.0000 0.0000 0.0000 33.6671 0.0000
# 6 0.0000 0.0000 0.0000 0.0000 0.0000 0.1526
#
#
#
# Elastic Compliance Matrix: (Units=1/GPa)
#
#
# Indices 1 2 3 4 5 6 
#
# 1 0.008459 -0.004142 0.000956 0.000000 0.000000 0.000000
# 2 -0.004142 0.011220 -0.004991 0.000000 0.000000 0.000000
# 3 0.000956 -0.004991 0.016188 0.000000 0.000000 0.000000
# 4 0.000000 0.000000 0.000000 0.021392 0.000000 0.000000
# 5 0.000000 0.000000 0.000000 0.000000 0.029703 0.000000
# 6 0.000000 0.000000 0.000000 0.000000 0.000000 6.553995
#
#
# Mechanical properties :
#
#
# Convention : Reuss Voigt Hill
#
# Bulk Modulus (GPa) = 51.24547 61.00270 56.12408
# Shear Modulus (GPa) = 0.75032 32.20379 16.47705
#
# Velocity S-wave (km/s) = 0.60967 3.99414 2.85699
# Velocity P-wave (km/s) = 5.08740 7.17568 6.21981
#
# Compressibility (1/GPa) = 0.01951392
#
# Stress axis : x y z
#
# Youngs Moduli (GPa) = 118.21471 89.12567 61.77319
#
# Poissons Ratio (x) = 0.36915 -0.05904
# Poissons Ratio (y) = 0.48963 0.30829
# Poissons Ratio (z) = -0.11298 0.44479
#
# Static dielectric constant tensor:
#      x y z
#    x 1.782080 0.000000 0.000000 
#    y 0.000000 1.735700 0.000000 
#    z 0.000000 0.000000 1.732050 
# 
# From -- ./inp_files/29656.got.cif
#   From: 2010.05.17/outbox.cif.g08.bks.cpg/sg22_15_cif.got.tgz:29656.got - 2010.06.03 23:40:54.
