data_PCOD9327264
_publ_section_title
;
Structure prediction by ZEFSAII (Michael W. Deem and Ramdas Pophale) SiO2 
 PCOD9327264
Probable space group: F 2 2 2
;
_chemical_formula_sum "Si O2"
_cell_formula_units_Z 64
_cell_length_a 14.787822
_cell_length_b 15.857737
_cell_length_c 11.912831
_cell_angle_alpha 90.000000
_cell_angle_beta 90.000000
_cell_angle_gamma 90.000000
_cell_volume 2793.575453
_symmetry_space_group_name_H-M "F 2 2 2"
_symmetry_group_IT_number 22
_symmetry_cell_setting 'orthorhombic'
loop_
_space_group_symop_operation_xyz
x,y,z
-x,-y,z
x,-y,-z
-x,y,-z
x,1/2+y,1/2+z
-x,1/2-y,1/2+z
x,1/2-y,1/2-z
-x,1/2+y,1/2-z
1/2+x,y,1/2+z
1/2-x,-y,1/2+z
1/2+x,-y,1/2-z
1/2-x,y,1/2-z
1/2+x,1/2+y,z
1/2-x,1/2-y,z
1/2+x,1/2-y,-z
1/2-x,1/2+y,-z
loop_
_atom_site_type_symbol
_atom_site_label
_atom_site_fract_x
_atom_site_fract_y
_atom_site_fract_z
Si Si1 0.102512 0.465264 0.761686
Si Si2 0.400815 0.319940 0.552641
Si Si3 0.395984 0.374340 0.967210
Si Si4 0.272011 0.575042 0.590346
O O1 0.108518 0.383245 0.842587
O O2 0.126873 0.434521 0.637154
O O3 0.171540 0.536220 0.806191
O O4 0.000000 0.500000 0.765581
O O5 0.500000 0.331071 0.500000
O O6 0.386897 0.221480 0.576004
O O7 0.330654 0.348003 0.457955
O O8 0.500000 0.388310 0.000000
O O9 0.330427 0.392115 0.072320
O O10 0.281845 0.500000 0.500000
#
# Coordination Sequence:
#
# PCOD9327264 Si02
#       4
#    16  16  16  16
#     4  11  23  43  75 105 143 190 248 298 363 429
#     4  10  20  43  73 107 142 195 243 300 356 431
#     4  11  26  44  69 106 158 188 241 301 366 424
#     4  10  23  41  70 103 140 187 241 299 353 426
#
# _framework density 22.909707999999998
#
# number of rings (size 3 to 8) (size 9 to 14) (size 15 to 20)
#    0.000    1.500    2.500    1.500    3.500    4.000 
#    0.000    5.000    0.000    0.000    0.000    0.000 
#    0.000    0.000    0.000    0.000    0.000    0.000 
#
# Total GULP energy -89474.412293 kJ/mol
# GULP energy per Si atom -5592.150768 kJ/mol
# Density = 2.285756 g / cm^3
# Si number density = 22.909708 Si / 1000 Ang^3
#
#
#
# Elastic Constant Matrix: (Units=GPa)
#
#
# Indices 1 2 3 4 5 6 
#
# 1 195.1083 53.2125 62.3549 0.0000 0.0000 0.0000
# 2 53.2125 105.8578 62.1262 0.0000 0.0000 0.0000
# 3 62.3549 62.1262 122.1196 0.0000 0.0000 0.0000
# 4 0.0000 0.0000 0.0000 37.9148 0.0000 0.0000
# 5 0.0000 0.0000 0.0000 0.0000 26.8171 0.0000
# 6 0.0000 0.0000 0.0000 0.0000 0.0000 3.4756
#
#
#
# Elastic Compliance Matrix: (Units=1/GPa)
#
#
# Indices 1 2 3 4 5 6 
#
# 1 0.006367 -0.001843 -0.002314 0.000000 0.000000 0.000000
# 2 -0.001843 0.014001 -0.006182 0.000000 0.000000 0.000000
# 3 -0.002314 -0.006182 0.012515 0.000000 0.000000 0.000000
# 4 0.000000 0.000000 0.000000 0.026375 0.000000 0.000000
# 5 0.000000 0.000000 0.000000 0.000000 0.037290 0.000000
# 6 0.000000 0.000000 0.000000 0.000000 0.000000 0.287718
#
#
# Mechanical properties :
#
#
# Convention : Reuss Voigt Hill
#
# Bulk Modulus (GPa) = 81.92264 86.49699 84.20981
# Shear Modulus (GPa) = 12.22459 30.00099 21.11279
#
# Velocity S-wave (km/s) = 2.31248 3.62267 3.03902
# Velocity P-wave (km/s) = 6.55489 7.43881 7.01080
#
# Compressibility (1/GPa) = 0.01220664
#
# Stress axis : x y z
#
# Youngs Moduli (GPa) = 157.04960 71.42347 79.90442
#
# Poissons Ratio (x) = 0.13163 0.18487
# Poissons Ratio (y) = 0.28943 0.49395
# Poissons Ratio (z) = 0.36337 0.44152
#
# Static dielectric constant tensor:
#      x y z
#    x 1.878670 0.000000 0.000000 
#    y 0.000000 1.829480 0.000000 
#    z 0.000000 0.000000 1.868870 
# 
# From -- ./inp_files/19415.got.cif
#   From: 2010.05.17/outbox.cif.g08.bks.cpg/sg22_10_cif.got.tgz:19415.got - 2010.06.03 23:40:54.
