data_PCOD9327082
_publ_section_title
;
Structure prediction by ZEFSAII (Michael W. Deem and Ramdas Pophale) SiO2 
 PCOD9327082
Probable space group: F 2 2 2
;
_chemical_formula_sum "Si O2"
_cell_formula_units_Z 92
_cell_length_a 20.049629
_cell_length_b 9.154903
_cell_length_c 27.682278
_cell_angle_alpha 90.000000
_cell_angle_beta 90.000000
_cell_angle_gamma 90.000000
_cell_volume 5081.148805
_symmetry_space_group_name_H-M "F 2 2 2"
_symmetry_group_IT_number 22
_symmetry_cell_setting 'orthorhombic'
loop_
_space_group_symop_operation_xyz
x,y,z
-x,-y,z
x,-y,-z
-x,y,-z
x,1/2+y,1/2+z
-x,1/2-y,1/2+z
x,1/2-y,1/2-z
-x,1/2+y,1/2-z
1/2+x,y,1/2+z
1/2-x,-y,1/2+z
1/2+x,-y,1/2-z
1/2-x,y,1/2-z
1/2+x,1/2+y,z
1/2-x,1/2-y,z
1/2+x,1/2-y,-z
1/2-x,1/2+y,-z
loop_
_atom_site_type_symbol
_atom_site_label
_atom_site_fract_x
_atom_site_fract_y
_atom_site_fract_z
Si Si1 0.535193 0.288794 0.838452
Si Si2 0.000000 0.500000 0.000000
Si Si3 0.139647 0.946600 0.698718
Si Si4 0.750000 0.750000 0.250000
Si Si5 0.500000 0.000000 0.500000
Si Si6 0.175398 0.721070 0.136184
Si Si7 0.094750 0.419120 0.700978
Si Si8 0.448445 0.751926 0.433063
O O1 0.581494 0.157117 0.821636
O O2 0.576788 0.438273 0.831232
O O3 0.469743 0.315308 0.805280
O O4 0.505962 0.263063 0.891843
O O5 0.958545 0.608369 0.965530
O O6 0.201221 0.849508 0.717699
O O7 0.163754 0.062014 0.659142
O O8 0.109709 0.029716 0.745250
O O9 0.543555 0.106638 0.466603
O O10 0.250000 0.750000 0.119741
O O11 0.157254 0.835390 0.178698
O O12 0.120963 0.746640 0.094902
#
# Coordination Sequence:
#
# PCOD9327082 Si02
#       8
#    16   4  16   4   4  16  16  16
#     4  10  21  37  60  87 117 150 202 255 294 343
#     4  10  20  38  66  90 114 134 184 256 324 370
#     4  12  23  38  57  81 126 169 209 248 282 338
#     4  12  24  40  50  80 120 180 220 224 288 336
#     4  10  20  42  70  86 114 142 180 252 320 378
#     4  11  24  39  58  84 121 162 202 242 292 351
#     4  10  21  37  56  85 118 160 208 245 287 334
#     4  10  21  39  63  92 113 145 189 246 312 373
#
# _framework density 18.106141999999998
#
# number of rings (size 3 to 8) (size 9 to 14) (size 15 to 20)
#    0.000    1.391    1.739    4.696    0.000   12.522 
#    0.000    0.870    0.000    0.000    0.000    0.000 
#    0.000    0.000    0.000    0.000    0.000    0.000 
#
# Total GULP energy -128566.141504 kJ/mol
# GULP energy per Si atom -5589.832239 kJ/mol
# Density = 1.806493 g / cm^3
# Si number density = 18.106142 Si / 1000 Ang^3
#
#
#
# Elastic Constant Matrix: (Units=GPa)
#
#
# Indices 1 2 3 4 5 6 
#
# 1 109.6987 62.3254 64.1998 0.0000 0.0000 0.0000
# 2 62.3254 118.4816 74.3234 0.0000 0.0000 0.0000
# 3 64.1998 74.3234 117.3414 0.0000 0.0000 0.0000
# 4 0.0000 0.0000 0.0000 24.6275 0.0000 0.0000
# 5 0.0000 0.0000 0.0000 0.0000 13.1555 0.0000
# 6 0.0000 0.0000 0.0000 0.0000 0.0000 28.8841
#
#
#
# Elastic Compliance Matrix: (Units=1/GPa)
#
#
# Indices 1 2 3 4 5 6 
#
# 1 0.014705 -0.004461 -0.005220 0.000000 0.000000 0.000000
# 2 -0.004461 0.015358 -0.007287 0.000000 0.000000 0.000000
# 3 -0.005220 -0.007287 0.015994 0.000000 0.000000 0.000000
# 4 0.000000 0.000000 0.000000 0.040605 0.000000 0.000000
# 5 0.000000 0.000000 0.000000 0.000000 0.076014 0.000000
# 6 0.000000 0.000000 0.000000 0.000000 0.000000 0.034621
#
#
# Mechanical properties :
#
#
# Convention : Reuss Voigt Hill
#
# Bulk Modulus (GPa) = 82.50154 83.02434 82.76294
# Shear Modulus (GPa) = 21.25192 22.97829 22.11510
#
# Velocity S-wave (km/s) = 3.42971 3.56629 3.49867
# Velocity P-wave (km/s) = 7.83251 7.93169 7.88226
#
# Compressibility (1/GPa) = 0.01212099
#
# Stress axis : x y z
#
# Youngs Moduli (GPa) = 68.00241 65.11338 62.52508
#
# Poissons Ratio (x) = 0.29047 0.32638
# Poissons Ratio (y) = 0.30336 0.45561
# Poissons Ratio (z) = 0.35497 0.47447
#
# Static dielectric constant tensor:
#      x y z
#    x 1.603080 0.000000 0.000000 
#    y 0.000000 1.647100 0.000000 
#    z 0.000000 0.000000 1.607870 
# 
# From -- ./inp_files/53904.got.cif
#   From: 2010.05.17/outbox.cif.g08.bks.cpg/sg22_27_cif.got.tgz:53904.got - 2010.06.03 23:40:54.
