data_PCOD9327213
_publ_section_title
;
Structure prediction by ZEFSAII (Michael W. Deem and Ramdas Pophale) SiO2 
 PCOD9327213
Probable space group: F 2 2 2
;
_chemical_formula_sum "Si O2"
_cell_formula_units_Z 52
_cell_length_a 10.080773
_cell_length_b 10.080750
_cell_length_c 30.584932
_cell_angle_alpha 90.000000
_cell_angle_beta 90.000000
_cell_angle_gamma 90.000000
_cell_volume 3108.094387
_symmetry_space_group_name_H-M "F 2 2 2"
_symmetry_group_IT_number 22
_symmetry_cell_setting 'orthorhombic'
loop_
_space_group_symop_operation_xyz
x,y,z
-x,-y,z
x,-y,-z
-x,y,-z
x,1/2+y,1/2+z
-x,1/2-y,1/2+z
x,1/2-y,1/2-z
-x,1/2+y,1/2-z
1/2+x,y,1/2+z
1/2-x,-y,1/2+z
1/2+x,-y,1/2-z
1/2-x,y,1/2-z
1/2+x,1/2+y,z
1/2-x,1/2-y,z
1/2+x,1/2-y,-z
1/2-x,1/2+y,-z
loop_
_atom_site_type_symbol
_atom_site_label
_atom_site_fract_x
_atom_site_fract_y
_atom_site_fract_z
Si Si1 0.640595 0.859405 0.875381
Si Si2 0.500000 0.000000 0.000000
Si Si3 0.109532 0.609532 0.228670
Si Si4 0.862253 0.862253 0.420568
O O1 0.750000 0.750000 0.885625
O O2 0.626429 0.873572 0.823287
O O3 0.497994 0.820732 0.895779
O O4 0.679268 0.002006 0.895779
O O5 0.409218 0.090782 0.031357
O O6 0.071728 0.750000 0.250000
O O7 0.250000 0.571727 0.250000
O O8 0.000000 0.500000 0.237596
O O9 0.750000 0.750000 0.420486
#
# Coordination Sequence:
#
# PCOD9327213 Si02
#       4
#    16   4  16  16
#     4  10  20  41  57  81 124 157 197 248 297 343
#     4   8  20  40  60  92 128 148 184 252 308 344
#     4  11  22  39  57  83 118 161 205 252 293 340
#     4  10  22  39  66  89 119 158 197 243 296 366
#
# _framework density 16.730509000000001
#
# number of rings (size 3 to 8) (size 9 to 14) (size 15 to 20)
#    0.000    2.154    6.154    0.000    0.000    9.231 
#    0.000    0.000    0.000    0.000    0.000    0.000 
#    0.000    0.000    0.000    0.000    0.000    0.000 
#
# Total GULP energy -72496.778478 kJ/mol
# GULP energy per Si atom -5576.675268 kJ/mol
# Density = 1.669243 g / cm^3
# Si number density = 16.730509 Si / 1000 Ang^3
#
#
#
# Elastic Constant Matrix: (Units=GPa)
#
#
# Indices 1 2 3 4 5 6 
#
# 1 161.4366 122.7578 67.5867 0.0000 0.0000 0.0000
# 2 122.7578 161.4355 67.5865 0.0000 0.0000 0.0000
# 3 67.5867 67.5865 149.2239 0.0000 0.0000 0.0000
# 4 0.0000 0.0000 0.0000 14.5416 0.0000 0.0000
# 5 0.0000 0.0000 0.0000 0.0000 14.5415 0.0000
# 6 0.0000 0.0000 0.0000 0.0000 0.0000 60.8239
#
#
#
# Elastic Compliance Matrix: (Units=1/GPa)
#
#
# Indices 1 2 3 4 5 6 
#
# 1 0.015170 -0.010685 -0.002031 0.000000 0.000000 0.000000
# 2 -0.010685 0.015170 -0.002031 0.000000 0.000000 0.000000
# 3 -0.002031 -0.002031 0.008541 0.000000 0.000000 0.000000
# 4 0.000000 0.000000 0.000000 0.068768 0.000000 0.000000
# 5 0.000000 0.000000 0.000000 0.000000 0.068769 0.000000
# 6 0.000000 0.000000 0.000000 0.000000 0.000000 0.016441
#
#
# Mechanical properties :
#
#
# Convention : Reuss Voigt Hill
#
# Bulk Modulus (GPa) = 106.54216 109.77310 108.15763
# Shear Modulus (GPa) = 22.17473 32.25906 27.21689
#
# Velocity S-wave (km/s) = 3.64456 4.39584 4.03771
# Velocity P-wave (km/s) = 9.02940 9.56658 9.30187
#
# Compressibility (1/GPa) = 0.00938596
#
# Stress axis : x y z
#
# Youngs Moduli (GPa) = 65.92154 65.92108 117.07715
#
# Poissons Ratio (x) = 0.70435 0.23782
# Poissons Ratio (y) = 0.70435 0.23782
# Poissons Ratio (z) = 0.13391 0.13391
#
# Static dielectric constant tensor:
#      x y z
#    x 1.547680 0.000000 0.000000 
#    y 0.000000 1.547680 0.000000 
#    z 0.000000 0.000000 1.566790 
# 
# From -- ./inp_files/8261.got.cif
#   From: 2010.05.17/outbox.cif.g08.bks.cpg/sg22_5_cif.got.tgz:8261.got - 2010.06.03 23:40:54.
