data_PCOD9327091
_publ_section_title
;
Structure prediction by ZEFSAII (Michael W. Deem and Ramdas Pophale) SiO2 
 PCOD9327091
Probable space group: F 2 2 2
;
_chemical_formula_sum "Si O2"
_cell_formula_units_Z 88
_cell_length_a 20.723678
_cell_length_b 26.137207
_cell_length_c 8.218353
_cell_angle_alpha 90.000000
_cell_angle_beta 90.000000
_cell_angle_gamma 90.000000
_cell_volume 4451.545375
_symmetry_space_group_name_H-M "F 2 2 2"
_symmetry_group_IT_number 22
_symmetry_cell_setting 'orthorhombic'
loop_
_space_group_symop_operation_xyz
x,y,z
-x,-y,z
x,-y,-z
-x,y,-z
x,1/2+y,1/2+z
-x,1/2-y,1/2+z
x,1/2-y,1/2-z
-x,1/2+y,1/2-z
1/2+x,y,1/2+z
1/2-x,-y,1/2+z
1/2+x,-y,1/2-z
1/2-x,y,1/2-z
1/2+x,1/2+y,z
1/2-x,1/2-y,z
1/2+x,1/2-y,-z
1/2-x,1/2+y,-z
loop_
_atom_site_type_symbol
_atom_site_label
_atom_site_fract_x
_atom_site_fract_y
_atom_site_fract_z
Si Si1 0.392240 0.694826 0.654103
Si Si2 0.802044 0.878536 0.140702
Si Si3 0.309768 0.043169 0.628841
Si Si4 0.937960 0.030995 0.334497
Si Si5 0.500000 0.628763 0.500000
Si Si6 0.221678 0.693947 0.078930
O O1 0.393779 0.750000 0.750000
O O2 0.356043 0.652091 0.763033
O O3 0.458874 0.667219 0.611185
O O4 0.352342 0.698034 0.481714
O O5 0.750000 0.910113 0.250000
O O6 0.827778 0.910225 0.989830
O O7 0.755326 0.836901 0.062768
O O8 0.250000 0.053340 0.750000
O O9 0.374381 0.029426 0.726456
O O10 0.290116 0.000000 0.500000
O O11 0.958104 0.088510 0.390312
O O12 0.923581 0.000000 0.500000
O O13 0.000000 0.000000 0.263167
O O14 0.250000 0.672787 0.250000
O O15 0.250000 0.750000 0.073611
#
# Coordination Sequence:
#
# PCOD9327091 Si02
#       6
#    16  16  16  16   8  16
#     4  11  23  45  65  96 135 179 224 273 324 391
#     4  10  23  38  67  97 133 168 215 270 339 391
#     4  12  26  41  68 106 135 167 217 286 336 399
#     4   9  23  48  73  91 128 183 221 266 335 411
#     4  10  25  44  70  88 134 182 227 266 330 386
#     4  10  20  38  67  94 125 167 216 269 330 393
#
# _framework density 19.768415999999998
#
# number of rings (size 3 to 8) (size 9 to 14) (size 15 to 20)
#    0.000    1.818    1.818    1.636   12.727    0.364 
#    6.545    0.000    0.000    0.000    0.000    0.000 
#    0.000    0.000    0.000    0.000    0.000    0.000 
#
# Total GULP energy -122479.159418 kJ/mol
# GULP energy per Si atom -5567.234519 kJ/mol
# Density = 1.972342 g / cm^3
# Si number density = 19.768416 Si / 1000 Ang^3
#
#
#
# Elastic Constant Matrix: (Units=GPa)
#
#
# Indices 1 2 3 4 5 6 
#
# 1 102.0583 45.5945 66.9368 -0.0002 0.0108 0.0003
# 2 45.5945 86.6597 42.8266 0.0000 -0.0046 -0.0001
# 3 66.9368 42.8266 106.9363 0.0000 -0.0005 0.0002
# 4 -0.0002 0.0000 0.0000 31.8899 0.0033 0.0001
# 5 0.0108 -0.0046 -0.0005 0.0033 -859.6916 -0.0054
# 6 0.0003 -0.0001 0.0002 0.0001 -0.0054 14.8161
#
#
#
# Elastic Compliance Matrix: (Units=1/GPa)
#
#
# Indices 1 2 3 4 5 6 
#
# 1 0.018155 -0.004907 -0.009399 0.000000 0.000000 0.000000
# 2 -0.004907 0.015713 -0.003221 0.000000 0.000000 0.000000
# 3 -0.009399 -0.003221 0.016525 0.000000 0.000000 0.000000
# 4 0.000000 0.000000 0.000000 0.031358 0.000000 0.000000
# 5 0.000000 0.000000 0.000000 0.000000 -0.001163 0.000000
# 6 0.000000 0.000000 0.000000 0.000000 0.000000 0.067494
#
#
# Mechanical properties :
#
#
# Convention : Reuss Voigt Hill
#
# Bulk Modulus (GPa) = 65.19658 67.37447 66.28553
# Shear Modulus (GPa) = 26.56059 -153.24401 -63.34171
#
# Velocity S-wave (km/s) = 3.66947 -8.81407 -5.66670
# Velocity P-wave (km/s) = 7.14179 8.33235 3.03503
#
# Compressibility (1/GPa) = 0.01533823
#
# Stress axis : x y z
#
# Youngs Moduli (GPa) = 55.08128 63.64119 60.51545
#
# Poissons Ratio (x) = 0.31229 0.56878
# Poissons Ratio (y) = 0.27029 0.19494
# Poissons Ratio (z) = 0.51770 0.20501
#
# Static dielectric constant tensor:
#      x y z
#    x 1.713110 0.000000 0.000000 
#    y 0.000000 8.152690 0.000000 
#    z 0.000000 0.000000 1.811530 
# 
# From -- ./inp_files/12659.got.cif
#   From: 2010.05.17/outbox.cif.g08.bks.cpg/sg22_7_cif.got.tgz:12659.got - 2010.06.03 23:40:54.
