data_PCOD9327934
_publ_section_title
;
Structure prediction by ZEFSAII (Michael W. Deem and Ramdas Pophale) SiO2 
 PCOD9327934
Probable space group: F 2 2 2
;
_chemical_formula_sum "Si O2"
_cell_formula_units_Z 96
_cell_length_a 12.142551
_cell_length_b 18.531967
_cell_length_c 22.260847
_cell_angle_alpha 90.000000
_cell_angle_beta 90.000000
_cell_angle_gamma 90.000000
_cell_volume 5009.254986
_symmetry_space_group_name_H-M "F 2 2 2"
_symmetry_group_IT_number 22
_symmetry_cell_setting 'orthorhombic'
loop_
_space_group_symop_operation_xyz
x,y,z
-x,-y,z
x,-y,-z
-x,y,-z
x,1/2+y,1/2+z
-x,1/2-y,1/2+z
x,1/2-y,1/2-z
-x,1/2+y,1/2-z
1/2+x,y,1/2+z
1/2-x,-y,1/2+z
1/2+x,-y,1/2-z
1/2-x,y,1/2-z
1/2+x,1/2+y,z
1/2-x,1/2-y,z
1/2+x,1/2-y,-z
1/2-x,1/2+y,-z
loop_
_atom_site_type_symbol
_atom_site_label
_atom_site_fract_x
_atom_site_fract_y
_atom_site_fract_z
Si Si1 0.971789 0.743246 0.318199
Si Si2 0.849463 0.883533 0.797813
Si Si3 0.504360 0.102143 0.868078
Si Si4 0.727974 0.551478 0.590082
Si Si5 0.795619 0.100462 0.546255
Si Si6 0.000000 0.500000 0.767776
Si Si7 0.250000 0.750000 0.895847
O O1 0.933092 0.750000 0.250000
O O2 0.860298 0.736987 0.356929
O O3 0.064613 0.681005 0.312472
O O4 0.022292 0.817507 0.344840
O O5 0.750000 0.865157 0.750000
O O6 0.802001 0.908405 0.861692
O O7 0.914619 0.952067 0.769785
O O8 0.394237 0.060278 0.883984
O O9 0.580567 0.100938 0.926742
O O10 0.556369 0.060152 0.811127
O O11 0.758771 0.467693 0.580501
O O12 0.720340 0.585769 0.523805
O O13 0.755346 0.178749 0.564117
#
# Coordination Sequence:
#
# PCOD9327934 Si02
#       7
#    16  16  16  16  16   8   8
#     4  11  23  41  62  95 129 170 214 270 342 401
#     4  12  25  42  65  96 136 173 218 277 345 407
#     4  11  20  39  64  95 125 165 219 277 330 387
#     4  11  22  39  65  94 122 173 217 276 326 396
#     4  10  22  40  64  91 128 166 225 267 332 396
#     4  12  22  40  63  97 130 166 220 272 332 388
#     4  10  25  42  64  90 129 172 216 278 328 408
#
# _framework density 19.164527
#
# number of rings (size 3 to 8) (size 9 to 14) (size 15 to 20)
#    0.000    1.000    5.000    0.750    2.333    5.000 
#    0.000    2.500    0.000    0.000    0.000    0.000 
#    0.000    0.000    0.000    0.000    0.000    0.000 
#
# Total GULP energy -133763.079840 kJ/mol
# GULP energy per Si atom -5573.461660 kJ/mol
# Density = 1.912091 g / cm^3
# Si number density = 19.164527 Si / 1000 Ang^3
#
#
#
# Elastic Constant Matrix: (Units=GPa)
#
#
# Indices 1 2 3 4 5 6 
#
# 1 60.1015 63.2843 43.5648 0.0000 0.0000 0.0000
# 2 63.2843 170.6467 76.0871 0.0000 0.0000 0.0000
# 3 43.5648 76.0871 121.2043 0.0000 0.0000 0.0000
# 4 0.0000 0.0000 0.0000 21.4030 0.0000 0.0000
# 5 0.0000 0.0000 0.0000 0.0000 13.2756 0.0000
# 6 0.0000 0.0000 0.0000 0.0000 0.0000 28.5209
#
#
#
# Elastic Compliance Matrix: (Units=1/GPa)
#
#
# Indices 1 2 3 4 5 6 
#
# 1 0.029469 -0.008618 -0.005182 0.000000 0.000000 0.000000
# 2 -0.008618 0.010658 -0.003593 0.000000 0.000000 0.000000
# 3 -0.005182 -0.003593 0.012369 0.000000 0.000000 0.000000
# 4 0.000000 0.000000 0.000000 0.046723 0.000000 0.000000
# 5 0.000000 0.000000 0.000000 0.000000 0.075326 0.000000
# 6 0.000000 0.000000 0.000000 0.000000 0.000000 0.035062
#
#
# Mechanical properties :
#
#
# Convention : Reuss Voigt Hill
#
# Bulk Modulus (GPa) = 56.46689 79.75835 68.11262
# Shear Modulus (GPa) = 19.97629 23.90765 21.94197
#
# Velocity S-wave (km/s) = 3.23206 3.53582 3.38735
# Velocity P-wave (km/s) = 6.59216 7.64051 7.13561
#
# Compressibility (1/GPa) = 0.01770949
#
# Stress axis : x y z
#
# Youngs Moduli (GPa) = 33.93365 93.82475 80.84866
#
# Poissons Ratio (x) = 0.80859 0.41897
# Poissons Ratio (y) = 0.29244 0.29050
# Poissons Ratio (z) = 0.17585 0.33713
#
# Static dielectric constant tensor:
#      x y z
#    x 1.700860 0.000000 0.000000 
#    y 0.000000 1.706870 0.000000 
#    z 0.000000 0.000000 1.664380 
# 
# From -- ./inp_files/42810.got.cif
#   From: 2010.05.17/outbox.cif.g08.bks.cpg/sg22_22_cif.got.tgz:42810.got - 2010.06.03 23:40:54.
