data_PCOD9327740
_publ_section_title
;
Structure prediction by ZEFSAII (Michael W. Deem and Ramdas Pophale) SiO2 
 PCOD9327740
Probable space group: F 2 2 2
;
_chemical_formula_sum "Si O2"
_cell_formula_units_Z 96
_cell_length_a 7.031258
_cell_length_b 24.684270
_cell_length_c 18.891127
_cell_angle_alpha 90.000000
_cell_angle_beta 90.000000
_cell_angle_gamma 90.000000
_cell_volume 3278.771789
_symmetry_space_group_name_H-M "F 2 2 2"
_symmetry_group_IT_number 22
_symmetry_cell_setting 'orthorhombic'
loop_
_space_group_symop_operation_xyz
x,y,z
-x,-y,z
x,-y,-z
-x,y,-z
x,1/2+y,1/2+z
-x,1/2-y,1/2+z
x,1/2-y,1/2-z
-x,1/2+y,1/2-z
1/2+x,y,1/2+z
1/2-x,-y,1/2+z
1/2+x,-y,1/2-z
1/2-x,y,1/2-z
1/2+x,1/2+y,z
1/2-x,1/2-y,z
1/2+x,1/2-y,-z
1/2-x,1/2+y,-z
loop_
_atom_site_type_symbol
_atom_site_label
_atom_site_fract_x
_atom_site_fract_y
_atom_site_fract_z
Si Si1 0.698020 0.423463 0.999080
Si Si2 0.532119 0.049543 0.872189
Si Si3 0.590534 0.332895 0.167516
Si Si4 0.147714 0.454709 0.634669
Si Si5 0.027805 0.168961 0.315566
Si Si6 0.706752 0.305107 0.942743
O O1 0.478200 0.438348 0.943665
O O2 0.730562 0.360358 0.984878
O O3 0.828582 0.453536 0.941402
O O4 0.830476 0.431712 0.075432
O O5 0.349783 0.010522 0.840049
O O6 0.565626 0.104216 0.828786
O O7 0.609532 0.398335 0.175117
O O8 0.807723 0.315862 0.171490
O O9 0.456848 0.316685 0.233131
O O10 0.494130 0.313303 0.095962
O O11 0.000000 0.500000 0.659939
O O12 0.146706 0.195848 0.377311
O O13 0.750000 0.250000 0.983056
#
# Coordination Sequence:
#
# PCOD9327740 Si02
#       6
#    16  16  16  16  16  16
#     4  11  22  42  63  92 132 174 221 284 332 400
#     4  10  22  38  61  97 133 175 225 269 326 403
#     4  10  21  43  65  96 137 174 220 275 339 412
#     4  11  23  39  66  98 134 182 222 266 335 406
#     4   9  22  41  66  95 136 174 216 282 337 409
#     4  11  24  44  68  97 125 170 229 284 353 406
#
# _framework density 29.279254999999999
#
# number of rings (size 3 to 8) (size 9 to 14) (size 15 to 20)
#    0.000    1.667    1.667    2.000    2.333    5.667 
#    0.000    6.667    0.000    0.000    0.000    0.000 
#    0.000    0.000    0.000    0.000    0.000    0.000 
#
# Total GULP energy -134016.243542 kJ/mol
# GULP energy per Si atom -5584.010148 kJ/mol
# Density = 2.921261 g / cm^3
# Si number density = 29.279255 Si / 1000 Ang^3
#
#
#
# Elastic Constant Matrix: (Units=GPa)
#
#
# Indices 1 2 3 4 5 6 
#
# 1 233.4910 17.3958 17.5051 0.0000 0.0000 0.0000
# 2 17.3958 200.2722 13.4823 0.0000 0.0000 0.0000
# 3 17.5051 13.4823 80.7047 0.0000 0.0000 0.0000
# 4 0.0000 0.0000 0.0000 3.1233 0.0000 0.0000
# 5 0.0000 0.0000 0.0000 0.0000 47.9581 0.0000
# 6 0.0000 0.0000 0.0000 0.0000 0.0000 28.8519
#
#
#
# Elastic Compliance Matrix: (Units=1/GPa)
#
#
# Indices 1 2 3 4 5 6 
#
# 1 0.004374 -0.000320 -0.000895 0.000000 0.000000 0.000000
# 2 -0.000320 0.005073 -0.000778 0.000000 0.000000 0.000000
# 3 -0.000895 -0.000778 0.012715 0.000000 0.000000 0.000000
# 4 0.000000 0.000000 0.000000 0.320170 0.000000 0.000000
# 5 0.000000 0.000000 0.000000 0.000000 0.020852 0.000000
# 6 0.000000 0.000000 0.000000 0.000000 0.000000 0.034660
#
#
# Mechanical properties :
#
#
# Convention : Reuss Voigt Hill
#
# Bulk Modulus (GPa) = 55.01792 67.91492 61.46642
# Shear Modulus (GPa) = 12.25825 47.05898 29.65861
#
# Velocity S-wave (km/s) = 2.04835 4.01340 3.18615
# Velocity P-wave (km/s) = 4.94226 6.68748 5.87998
#
# Compressibility (1/GPa) = 0.01817590
#
# Stress axis : x y z
#
# Youngs Moduli (GPa) = 228.63647 197.10817 78.64697
#
# Poissons Ratio (x) = 0.06300 0.07041
# Poissons Ratio (y) = 0.07308 0.06120
# Poissons Ratio (z) = 0.20469 0.15339
#
# Static dielectric constant tensor:
#      x y z
#    x 2.599530 0.000000 0.000000 
#    y 0.000000 2.210400 0.000000 
#    z 0.000000 0.000000 2.314330 
# 
# From -- ./inp_files/47464.got.cif
#   From: 2010.05.17/outbox.cif.g08.bks.cpg/sg22_24_cif.got.tgz:47464.got - 2010.06.03 23:40:54.
