data_PCOD9327558
_publ_section_title
;
Structure prediction by ZEFSAII (Michael W. Deem and Ramdas Pophale) SiO2 
 PCOD9327558
Probable space group: F 2 2 2
;
_chemical_formula_sum "Si O2"
_cell_formula_units_Z 72
_cell_length_a 18.674920
_cell_length_b 17.149571
_cell_length_c 10.848696
_cell_angle_alpha 90.000000
_cell_angle_beta 90.000000
_cell_angle_gamma 90.000000
_cell_volume 3474.477873
_symmetry_space_group_name_H-M "F 2 2 2"
_symmetry_group_IT_number 22
_symmetry_cell_setting 'orthorhombic'
loop_
_space_group_symop_operation_xyz
x,y,z
-x,-y,z
x,-y,-z
-x,y,-z
x,1/2+y,1/2+z
-x,1/2-y,1/2+z
x,1/2-y,1/2-z
-x,1/2+y,1/2-z
1/2+x,y,1/2+z
1/2-x,-y,1/2+z
1/2+x,-y,1/2-z
1/2-x,y,1/2-z
1/2+x,1/2+y,z
1/2-x,1/2-y,z
1/2+x,1/2-y,-z
1/2-x,1/2+y,-z
loop_
_atom_site_type_symbol
_atom_site_label
_atom_site_fract_x
_atom_site_fract_y
_atom_site_fract_z
Si Si1 0.383110 0.359048 0.836246
Si Si2 0.675919 0.336604 0.689658
Si Si3 0.465294 0.924072 0.726678
Si Si4 0.115028 0.500000 0.500000
Si Si5 0.323035 0.704880 0.409003
O O1 0.466058 0.372655 0.804655
O O2 0.350982 0.430105 0.918164
O O3 0.343524 0.350156 0.704716
O O4 0.378152 0.277326 0.907900
O O5 0.668553 0.250000 0.750000
O O6 0.750000 0.369184 0.750000
O O7 0.602524 0.383015 0.712273
O O8 0.684262 0.331436 0.542955
O O9 0.432574 0.954980 0.599007
O O10 0.500000 0.000000 0.793190
O O11 0.250000 0.750000 0.383075
#
# Coordination Sequence:
#
# PCOD9327558 Si02
#       5
#    16  16  16   8  16
#     4  10  21  39  68  98 131 183 225 297 346 418
#     4  11  23  42  68  99 139 188 233 292 362 426
#     4  10  22  43  68  99 136 182 234 283 353 426
#     4  10  21  42  66  94 142 180 225 278 363 426
#     4  11  23  43  64 100 141 174 239 297 353 416
#
# _framework density 20.722539000000001
#
# number of rings (size 3 to 8) (size 9 to 14) (size 15 to 20)
#    0.000    1.556    2.222    5.667    3.111    0.889 
#    0.000   16.667    0.000    0.000    0.000    0.000 
#    0.000    0.000    0.000    0.000    0.000    0.000 
#
# Total GULP energy -100358.449240 kJ/mol
# GULP energy per Si atom -5575.469402 kJ/mol
# Density = 2.067537 g / cm^3
# Si number density = 20.722539 Si / 1000 Ang^3
#
#
#
# Elastic Constant Matrix: (Units=GPa)
#
#
# Indices 1 2 3 4 5 6 
#
# 1 99.9940 48.7485 22.4758 0.0000 0.0000 0.0000
# 2 48.7485 79.3142 45.7863 0.0000 0.0000 0.0000
# 3 22.4758 45.7863 159.2172 0.0000 0.0000 0.0000
# 4 0.0000 0.0000 0.0000 43.4821 0.0000 0.0000
# 5 0.0000 0.0000 0.0000 0.0000 28.2276 0.0000
# 6 0.0000 0.0000 0.0000 0.0000 0.0000 -98.7198
#
#
#
# Elastic Compliance Matrix: (Units=1/GPa)
#
#
# Indices 1 2 3 4 5 6 
#
# 1 0.014329 -0.009160 0.000611 0.000000 0.000000 0.000000
# 2 -0.009160 0.020973 -0.004738 0.000000 0.000000 0.000000
# 3 0.000611 -0.004738 0.007557 0.000000 0.000000 0.000000
# 4 0.000000 0.000000 0.000000 0.022998 0.000000 0.000000
# 5 0.000000 0.000000 0.000000 0.000000 0.035426 0.000000
# 6 0.000000 0.000000 0.000000 0.000000 0.000000 -0.010130
#
#
# Mechanical properties :
#
#
# Convention : Reuss Voigt Hill
#
# Bulk Modulus (GPa) = 61.40367 63.61629 62.50998
# Shear Modulus (GPa) = 40.59923 9.36565 24.98244
#
# Velocity S-wave (km/s) = 4.43107 2.12823 3.47590
# Velocity P-wave (km/s) = 7.47495 6.06670 6.80734
#
# Compressibility (1/GPa) = 0.01628567
#
# Stress axis : x y z
#
# Youngs Moduli (GPa) = 69.79028 47.68008 132.32751
#
# Poissons Ratio (x) = 0.43673 -0.08090
# Poissons Ratio (y) = 0.63926 0.62700
# Poissons Ratio (z) = -0.04267 0.22592
#
# Static dielectric constant tensor:
#      x y z
#    x 1.815900 0.000000 0.000000 
#    y 0.000000 1.848810 0.000000 
#    z 0.000000 0.000000 1.753830 
# 
# From -- ./inp_files/21089.got.cif
#   From: 2010.05.17/outbox.cif.g08.bks.cpg/sg22_11_cif.got.tgz:21089.got - 2010.06.03 23:40:54.
