data_PCOD9327161
_publ_section_title
;
Structure prediction by ZEFSAII (Michael W. Deem and Ramdas Pophale) SiO2 
 PCOD9327161
Probable space group: F 2 2 2
;
_chemical_formula_sum "Si O2"
_cell_formula_units_Z 84
_cell_length_a 12.867472
_cell_length_b 25.751447
_cell_length_c 13.465406
_cell_angle_alpha 90.000000
_cell_angle_beta 90.000000
_cell_angle_gamma 90.000000
_cell_volume 4461.843383
_symmetry_space_group_name_H-M "F 2 2 2"
_symmetry_group_IT_number 22
_symmetry_cell_setting 'orthorhombic'
loop_
_space_group_symop_operation_xyz
x,y,z
-x,-y,z
x,-y,-z
-x,y,-z
x,1/2+y,1/2+z
-x,1/2-y,1/2+z
x,1/2-y,1/2-z
-x,1/2+y,1/2-z
1/2+x,y,1/2+z
1/2-x,-y,1/2+z
1/2+x,-y,1/2-z
1/2-x,y,1/2-z
1/2+x,1/2+y,z
1/2-x,1/2-y,z
1/2+x,1/2-y,-z
1/2-x,1/2+y,-z
loop_
_atom_site_type_symbol
_atom_site_label
_atom_site_fract_x
_atom_site_fract_y
_atom_site_fract_z
Si Si1 0.750000 0.471973 0.750000
Si Si2 0.500000 0.000000 0.000000
Si Si3 0.126474 0.310123 0.134814
Si Si4 0.586717 0.043457 0.339362
Si Si5 0.632580 0.194381 0.625907
Si Si6 0.500000 0.615446 0.000000
Si Si7 0.447667 0.418996 0.339293
O O1 0.694099 0.512454 0.825428
O O2 0.657322 0.433434 0.719548
O O3 0.557214 0.961264 0.073876
O O4 0.246355 0.315192 0.101198
O O5 0.096309 0.252748 0.097689
O O6 0.126115 0.307939 0.254986
O O7 0.059274 0.361391 0.115774
O O8 0.577825 0.081862 0.431871
O O9 0.544657 0.070328 0.236008
O O10 0.500000 0.000000 0.358684
O O11 0.563811 0.151194 0.575064
#
# Coordination Sequence:
#
# PCOD9327161 Si02
#       7
#     8   4  16  16  16   8  16
#     4  10  20  40  60  79 125 154 188 236 292 338
#     4  12  24  38  56  86 116 152 212 216 270 370
#     4   9  18  37  58  80 117 151 190 242 288 327
#     4  10  22  39  55  89 121 150 193 233 289 349
#     4   9  19  33  59  90 108 147 197 238 288 341
#     4  12  21  35  62  90 119 147 190 244 294 344
#     4  11  21  39  59  85 117 155 190 243 281 339
#
# _framework density 18.826298999999999
#
# number of rings (size 3 to 8) (size 9 to 14) (size 15 to 20)
#    0.000    1.905    4.762    2.571    2.667    2.286 
#    0.000    0.000    0.000    0.000    0.000    0.000 
#    0.000    0.000    0.000    0.000    0.000    0.000 
#
# Total GULP energy -116961.461725 kJ/mol
# GULP energy per Si atom -5569.593415 kJ/mol
# Density = 1.878345 g / cm^3
# Si number density = 18.826299 Si / 1000 Ang^3
#
#
#
# Elastic Constant Matrix: (Units=GPa)
#
#
# Indices 1 2 3 4 5 6 
#
# 1 20.3283 0.9183 -3.7841 0.0000 0.0000 0.0000
# 2 0.9183 117.8472 9.6154 0.0000 0.0000 0.0000
# 3 -3.7841 9.6154 35.6382 0.0000 0.0000 0.0000
# 4 0.0000 0.0000 0.0000 92.5298 0.0000 0.0000
# 5 0.0000 0.0000 0.0000 0.0000 10.8847 0.0000
# 6 0.0000 0.0000 0.0000 0.0000 0.0000 37.4464
#
#
#
# Elastic Compliance Matrix: (Units=1/GPa)
#
#
# Indices 1 2 3 4 5 6 
#
# 1 0.050267 -0.000846 0.005566 0.000000 0.000000 0.000000
# 2 -0.000846 0.008691 -0.002435 0.000000 0.000000 0.000000
# 3 0.005566 -0.002435 0.029308 0.000000 0.000000 0.000000
# 4 0.000000 0.000000 0.000000 0.010807 0.000000 0.000000
# 5 0.000000 0.000000 0.000000 0.000000 0.091872 0.000000
# 6 0.000000 0.000000 0.000000 0.000000 0.000000 0.026705
#
#
# Mechanical properties :
#
#
# Convention : Reuss Voigt Hill
#
# Bulk Modulus (GPa) = 10.77177 20.81257 15.79217
# Shear Modulus (GPa) = 20.48979 39.30979 29.89979
#
# Velocity S-wave (km/s) = 3.30261 4.57445 3.98954
# Velocity P-wave (km/s) = 4.50300 6.24338 5.44320
#
# Compressibility (1/GPa) = 0.09283524
#
# Stress axis : x y z
#
# Youngs Moduli (GPa) = 19.89387 115.06415 34.12085
#
# Poissons Ratio (x) = 0.09732 -0.18990
# Poissons Ratio (y) = 0.01683 0.08307
# Poissons Ratio (z) = -0.11072 0.28014
#
# Static dielectric constant tensor:
#      x y z
#    x 1.622790 0.000000 0.000000 
#    y 0.000000 1.705750 0.000000 
#    z 0.000000 0.000000 1.398980 
# 
# From -- ./inp_files/28230.got.cif
#   From: 2010.05.17/outbox.cif.g08.bks.cpg/sg22_15_cif.got.tgz:28230.got - 2010.06.03 23:40:54.
