data_PCOD9327375
_publ_section_title
;
Structure prediction by ZEFSAII (Michael W. Deem and Ramdas Pophale) SiO2 
 PCOD9327375
Probable space group: F 2 2 2
;
_chemical_formula_sum "Si O2"
_cell_formula_units_Z 108
_cell_length_a 30.179684
_cell_length_b 11.367651
_cell_length_c 15.524242
_cell_angle_alpha 90.000000
_cell_angle_beta 90.000000
_cell_angle_gamma 90.000000
_cell_volume 5325.934537
_symmetry_space_group_name_H-M "F 2 2 2"
_symmetry_group_IT_number 22
_symmetry_cell_setting 'orthorhombic'
loop_
_space_group_symop_operation_xyz
x,y,z
-x,-y,z
x,-y,-z
-x,y,-z
x,1/2+y,1/2+z
-x,1/2-y,1/2+z
x,1/2-y,1/2-z
-x,1/2+y,1/2-z
1/2+x,y,1/2+z
1/2-x,-y,1/2+z
1/2+x,-y,1/2-z
1/2-x,y,1/2-z
1/2+x,1/2+y,z
1/2-x,1/2-y,z
1/2+x,1/2-y,-z
1/2-x,1/2+y,-z
loop_
_atom_site_type_symbol
_atom_site_label
_atom_site_fract_x
_atom_site_fract_y
_atom_site_fract_z
Si Si1 0.250000 0.750000 0.599041
Si Si2 0.143353 0.585216 0.567639
Si Si3 0.553242 0.340359 0.865954
Si Si4 0.042454 0.425336 0.172976
Si Si5 0.204329 0.943900 0.791803
Si Si6 0.326328 0.172557 0.995359
Si Si7 0.500000 0.000000 0.500000
Si Si8 0.639491 0.997104 0.136610
O O1 0.218051 0.680703 0.664665
O O2 0.276825 0.661951 0.536130
O O3 0.120866 0.500000 0.500000
O O4 0.106079 0.639035 0.628731
O O5 0.178536 0.509747 0.623784
O O6 0.163800 0.691264 0.511813
O O7 0.538287 0.388840 0.773277
O O8 0.545028 0.201034 0.873898
O O9 0.528838 0.414995 0.938882
O O10 0.087870 0.499315 0.160789
O O11 0.000000 0.500000 0.145924
O O12 0.250000 0.991716 0.750000
O O13 0.169060 0.950129 0.715412
O O14 0.338033 0.115611 0.903351
O O15 0.356108 0.098435 0.061127
#
# Coordination Sequence:
#
# PCOD9327375 Si02
#       8
#     8  16  16  16  16  16   4  16
#     4  10  21  36  64 100 133 174 232 271 324 398
#     4  11  23  41  65  94 130 175 227 272 329 393
#     4  11  23  41  71  97 132 171 222 278 330 401
#     4  11  24  44  68 102 132 176 223 278 336 404
#     4  11  22  34  65  98 127 173 224 275 321 396
#     4  10  23  39  61  97 133 173 208 286 330 391
#     4  12  24  44  66 100 132 174 216 286 340 400
#     4  11  22  40  65  97 135 166 220 275 346 386
#
# _framework density 20.278130999999998
#
# number of rings (size 3 to 8) (size 9 to 14) (size 15 to 20)
#    0.000    1.185    5.926    0.222    2.074    3.556 
#    0.000    0.741    0.000    0.889    0.000    0.000 
#    0.000    0.000    0.000    0.000    0.000    0.000 
#
# Total GULP energy -150377.203088 kJ/mol
# GULP energy per Si atom -5569.526040 kJ/mol
# Density = 2.023198 g / cm^3
# Si number density = 20.278131 Si / 1000 Ang^3
#
#
#
# Elastic Constant Matrix: (Units=GPa)
#
#
# Indices 1 2 3 4 5 6 
#
# 1 137.7868 39.6255 45.2155 0.0000 0.0000 0.0000
# 2 39.6255 65.9609 49.6782 0.0000 0.0000 0.0000
# 3 45.2155 49.6782 86.9669 0.0000 0.0000 0.0000
# 4 0.0000 0.0000 0.0000 28.3304 0.0000 0.0000
# 5 0.0000 0.0000 0.0000 0.0000 29.8976 0.0000
# 6 0.0000 0.0000 0.0000 0.0000 0.0000 24.1383
#
#
#
# Elastic Compliance Matrix: (Units=1/GPa)
#
#
# Indices 1 2 3 4 5 6 
#
# 1 0.009156 -0.003361 -0.002840 0.000000 0.000000 0.000000
# 2 -0.003361 0.027842 -0.014156 0.000000 0.000000 0.000000
# 3 -0.002840 -0.014156 0.021062 0.000000 0.000000 0.000000
# 4 0.000000 0.000000 0.000000 0.035298 0.000000 0.000000
# 5 0.000000 0.000000 0.000000 0.000000 0.033448 0.000000
# 6 0.000000 0.000000 0.000000 0.000000 0.000000 0.041428
#
#
# Mechanical properties :
#
#
# Convention : Reuss Voigt Hill
#
# Bulk Modulus (GPa) = 57.65802 62.19477 59.92639
# Shear Modulus (GPa) = 23.28497 26.88628 25.08562
#
# Velocity S-wave (km/s) = 3.39230 3.64521 3.52103
# Velocity P-wave (km/s) = 6.62110 6.96090 6.79313
#
# Compressibility (1/GPa) = 0.01734364
#
# Stress axis : x y z
#
# Youngs Moduli (GPa) = 109.21354 35.91743 47.47887
#
# Poissons Ratio (x) = 0.12073 0.13486
# Poissons Ratio (y) = 0.36710 0.67213
# Poissons Ratio (z) = 0.31022 0.50846
#
# Static dielectric constant tensor:
#      x y z
#    x 1.765070 0.000000 0.000000 
#    y 0.000000 1.727060 0.000000 
#    z 0.000000 0.000000 1.740660 
# 
# From -- ./inp_files/33566.got.cif
#   From: 2010.05.17/outbox.cif.g08.bks.cpg/sg22_17_cif.got.tgz:33566.got - 2010.06.03 23:40:54.
