data_PCOD9327317
_publ_section_title
;
Structure prediction by ZEFSAII (Michael W. Deem and Ramdas Pophale) SiO2 
 PCOD9327317
Probable space group: F 2 2 2
;
_chemical_formula_sum "Si O2"
_cell_formula_units_Z 104
_cell_length_a 19.276112
_cell_length_b 14.399495
_cell_length_c 15.989062
_cell_angle_alpha 90.000000
_cell_angle_beta 90.000000
_cell_angle_gamma 90.000000
_cell_volume 4438.024434
_symmetry_space_group_name_H-M "F 2 2 2"
_symmetry_group_IT_number 22
_symmetry_cell_setting 'orthorhombic'
loop_
_space_group_symop_operation_xyz
x,y,z
-x,-y,z
x,-y,-z
-x,y,-z
x,1/2+y,1/2+z
-x,1/2-y,1/2+z
x,1/2-y,1/2-z
-x,1/2+y,1/2-z
1/2+x,y,1/2+z
1/2-x,-y,1/2+z
1/2+x,-y,1/2-z
1/2-x,y,1/2-z
1/2+x,1/2+y,z
1/2-x,1/2-y,z
1/2+x,1/2-y,-z
1/2-x,1/2+y,-z
loop_
_atom_site_type_symbol
_atom_site_label
_atom_site_fract_x
_atom_site_fract_y
_atom_site_fract_z
Si Si1 0.063079 0.929381 0.392294
Si Si2 0.971651 0.143021 0.223655
Si Si3 0.128761 0.146615 0.280201
Si Si4 0.781119 0.064236 0.428862
Si Si5 0.066360 0.789476 0.052033
Si Si6 0.320254 0.280333 0.446760
Si Si7 0.250000 0.998533 0.750000
O O1 0.138118 0.965041 0.418023
O O2 0.057034 0.822071 0.425191
O O3 0.065332 0.918995 0.292194
O O4 0.000000 0.000000 0.412142
O O5 0.963531 0.250000 0.250000
O O6 0.053773 0.125754 0.238800
O O7 0.937194 0.145336 0.133060
O O8 0.146954 0.250000 0.250000
O O9 0.131914 0.162595 0.381347
O O10 0.184380 0.070467 0.254618
O O11 0.790050 0.161486 0.475191
O O12 0.747265 0.000000 0.500000
O O13 0.749237 0.056897 0.336588
O O14 0.132087 0.795779 0.991176
O O15 0.000000 0.815656 0.000000
O O16 0.250000 0.250000 0.400492
#
# Coordination Sequence:
#
# PCOD9327317 Si02
#       7
#    16  16  16  16  16  16   8
#     4  10  21  34  60  89 121 155 196 260 317 373
#     4   9  19  37  57  89 120 157 203 253 315 376
#     4  11  21  36  64  95 120 158 218 269 327 368
#     4  11  25  40  58  92 126 163 210 253 328 390
#     4  10  21  36  61  91 126 161 210 263 316 375
#     4  11  23  41  63  94 127 166 215 268 320 395
#     4  12  23  40  61  86 134 168 206 274 317 386
#
# _framework density 23.43385
#
# number of rings (size 3 to 8) (size 9 to 14) (size 15 to 20)
#    0.000    1.538    1.538    4.846    4.308    1.231 
#    0.000    1.923    0.000    0.462    0.000    0.000 
#    0.000    0.000    0.000    0.000    0.000    0.000 
#
# Total GULP energy -145108.379839 kJ/mol
# GULP energy per Si atom -5581.091532 kJ/mol
# Density = 2.338051 g / cm^3
# Si number density = 23.433850 Si / 1000 Ang^3
#
#
#
# Elastic Constant Matrix: (Units=GPa)
#
#
# Indices 1 2 3 4 5 6 
#
# 1 86.9011 -4.4550 27.7837 0.0000 0.0000 0.0000
# 2 -4.4550 43.6597 10.4969 0.0000 0.0000 0.0000
# 3 27.7837 10.4969 137.2328 0.0000 0.0000 0.0000
# 4 0.0000 0.0000 0.0000 35.2015 0.0000 0.0000
# 5 0.0000 0.0000 0.0000 0.0000 27.5204 0.0000
# 6 0.0000 0.0000 0.0000 0.0000 0.0000 -12.0523
#
#
#
# Elastic Compliance Matrix: (Units=1/GPa)
#
#
# Indices 1 2 3 4 5 6 
#
# 1 0.012459 0.001913 -0.002669 0.000000 0.000000 0.000000
# 2 0.001913 0.023627 -0.002195 0.000000 0.000000 0.000000
# 3 -0.002669 -0.002195 0.007995 0.000000 0.000000 0.000000
# 4 0.000000 0.000000 0.000000 0.028408 0.000000 0.000000
# 5 0.000000 0.000000 0.000000 0.000000 0.036337 0.000000
# 6 0.000000 0.000000 0.000000 0.000000 0.000000 -0.082972
#
#
# Mechanical properties :
#
#
# Convention : Reuss Voigt Hill
#
# Bulk Modulus (GPa) = 26.19149 37.27163 31.73156
# Shear Modulus (GPa) = 112.40746 25.73179 69.06962
#
# Velocity S-wave (km/s) = 6.93341 3.31729 5.43491
# Velocity P-wave (km/s) = 8.67740 5.53283 7.27700
#
# Compressibility (1/GPa) = 0.03818033
#
# Stress axis : x y z
#
# Youngs Moduli (GPa) = 80.26578 42.32402 125.07765
#
# Poissons Ratio (x) = -0.08096 0.33379
# Poissons Ratio (y) = -0.15354 0.27449
# Poissons Ratio (z) = 0.21420 0.09288
#
# Static dielectric constant tensor:
#      x y z
#    x 1.932710 0.000000 0.000000 
#    y 0.000000 1.930210 0.000000 
#    z 0.000000 0.000000 2.072450 
# 
# From -- ./inp_files/31689.got.cif
#   From: 2010.05.17/outbox.cif.g08.bks.cpg/sg22_16_cif.got.tgz:31689.got - 2010.06.03 23:40:54.
