data_PCOD9327242
_publ_section_title
;
Structure prediction by ZEFSAII (Michael W. Deem and Ramdas Pophale) SiO2 
 PCOD9327242
Probable space group: F 2 2 2
;
_chemical_formula_sum "Si O2"
_cell_formula_units_Z 116
_cell_length_a 29.534067
_cell_length_b 8.636708
_cell_length_c 26.280417
_cell_angle_alpha 90.000000
_cell_angle_beta 90.000000
_cell_angle_gamma 90.000000
_cell_volume 6703.532890
_symmetry_space_group_name_H-M "F 2 2 2"
_symmetry_group_IT_number 22
_symmetry_cell_setting 'orthorhombic'
loop_
_space_group_symop_operation_xyz
x,y,z
-x,-y,z
x,-y,-z
-x,y,-z
x,1/2+y,1/2+z
-x,1/2-y,1/2+z
x,1/2-y,1/2-z
-x,1/2+y,1/2-z
1/2+x,y,1/2+z
1/2-x,-y,1/2+z
1/2+x,-y,1/2-z
1/2-x,y,1/2-z
1/2+x,1/2+y,z
1/2-x,1/2-y,z
1/2+x,1/2-y,-z
1/2-x,1/2+y,-z
loop_
_atom_site_type_symbol
_atom_site_label
_atom_site_fract_x
_atom_site_fract_y
_atom_site_fract_z
Si Si1 0.153514 0.943460 0.449135
Si Si2 0.866458 0.761889 0.104932
Si Si3 0.299548 0.812675 0.806723
Si Si4 0.949016 0.945938 0.078032
Si Si5 0.068055 0.748734 0.474840
Si Si6 0.224848 0.901620 0.366754
Si Si7 0.718460 0.597283 0.051589
Si Si8 0.500000 0.500000 0.500000
O O1 0.115736 0.833726 0.472963
O O2 0.185241 0.864274 0.407490
O O3 0.179782 0.000000 0.500000
O O4 0.131331 0.089872 0.419612
O O5 0.838715 0.748776 0.156907
O O6 0.914528 0.846122 0.111833
O O7 0.832441 0.854411 0.067486
O O8 0.306980 0.750000 0.750000
O O9 0.250000 0.750000 0.821705
O O10 0.294600 0.994090 0.820876
O O11 0.928095 0.112437 0.065589
O O12 0.947594 0.840572 0.026353
O O13 0.000000 0.000000 0.092216
O O14 0.031743 0.885978 0.467371
O O15 0.250000 0.750000 0.348224
O O16 0.259051 0.000616 0.402315
O O17 0.750000 0.750000 0.045874
O O18 0.716672 0.500000 0.000000
#
# Coordination Sequence:
#
# PCOD9327242 Si02
#       8
#    16  16  16  16  16  16  16   4
#     4  11  21  33  49  78 114 165 195 233 284 350
#     4  11  22  37  56  83 114 154 210 234 300 364
#     4  10  20  42  67  84 114 155 198 253 312 365
#     4  11  22  36  50  78 111 151 206 245 286 348
#     4  11  21  32  50  72 109 157 196 238 279 334
#     4  11  23  36  56  86 120 150 204 242 291 364
#     4  12  23  36  51  79 122 169 198 232 281 353
#     4  12  16  34  48  64 104 146 204 232 276 326
#
# _framework density 17.304307999999999
#
# number of rings (size 3 to 8) (size 9 to 14) (size 15 to 20)
#    0.000    0.966    7.586    1.241    5.793    0.000 
#    0.000    1.379    0.000    0.000    0.000    3.862 
#    0.000    0.000    0.000    0.000    0.000    0.000 
#
# Total GULP energy -161631.243681 kJ/mol
# GULP energy per Si atom -5573.491161 kJ/mol
# Density = 1.726492 g / cm^3
# Si number density = 17.304308 Si / 1000 Ang^3
#
#
#
# Elastic Constant Matrix: (Units=GPa)
#
#
# Indices 1 2 3 4 5 6 
#
# 1 104.4154 40.3848 29.2677 0.0000 0.0000 0.0001
# 2 40.3848 90.2216 42.7132 0.0000 0.0000 0.0001
# 3 29.2677 42.7132 87.8778 0.0000 0.0000 0.0000
# 4 0.0000 0.0000 0.0000 15.9687 0.0000 0.0000
# 5 0.0000 0.0000 0.0000 0.0000 16.1590 0.0000
# 6 0.0001 0.0001 0.0000 0.0000 0.0000 34.5796
#
#
#
# Elastic Compliance Matrix: (Units=1/GPa)
#
#
# Indices 1 2 3 4 5 6 
#
# 1 0.011790 -0.004440 -0.001769 0.000000 0.000000 0.000000
# 2 -0.004440 0.016069 -0.006331 0.000000 0.000000 0.000000
# 3 -0.001769 -0.006331 0.015046 0.000000 0.000000 0.000000
# 4 0.000000 0.000000 0.000000 0.062622 0.000000 0.000000
# 5 0.000000 0.000000 0.000000 0.000000 0.061885 0.000000
# 6 0.000000 0.000000 0.000000 0.000000 0.000000 0.028919
#
#
# Mechanical properties :
#
#
# Convention : Reuss Voigt Hill
#
# Bulk Modulus (GPa) = 56.10280 56.36067 56.23174
# Shear Modulus (GPa) = 21.99220 24.68472 23.33846
#
# Velocity S-wave (km/s) = 3.56885 3.78101 3.67646
# Velocity P-wave (km/s) = 7.03377 7.19044 7.11254
#
# Compressibility (1/GPa) = 0.01782442
#
# Stress axis : x y z
#
# Youngs Moduli (GPa) = 84.81617 62.23231 66.46343
#
# Poissons Ratio (x) = 0.27633 0.11754
# Poissons Ratio (y) = 0.37660 0.42081
# Poissons Ratio (z) = 0.15000 0.39402
#
# Static dielectric constant tensor:
#      x y z
#    x 1.638060 0.000000 0.000000 
#    y 0.000000 1.636210 0.000000 
#    z 0.000000 0.000000 1.575510 
# 
# From -- ./inp_files/54493.got.cif
#   From: 2010.05.17/outbox.cif.g08.bks.cpg/sg22_28_cif.got.tgz:54493.got - 2010.06.03 23:40:54.
