data_PCOD9327240
_publ_section_title
;
Structure prediction by ZEFSAII (Michael W. Deem and Ramdas Pophale) SiO2 
 PCOD9327240
Probable space group: F 2 2 2
;
_chemical_formula_sum "Si O2"
_cell_formula_units_Z 104
_cell_length_a 9.324510
_cell_length_b 26.809623
_cell_length_c 20.108694
_cell_angle_alpha 90.000000
_cell_angle_beta 90.000000
_cell_angle_gamma 90.000000
_cell_volume 5026.903998
_symmetry_space_group_name_H-M "F 2 2 2"
_symmetry_group_IT_number 22
_symmetry_cell_setting 'orthorhombic'
loop_
_space_group_symop_operation_xyz
x,y,z
-x,-y,z
x,-y,-z
-x,y,-z
x,1/2+y,1/2+z
-x,1/2-y,1/2+z
x,1/2-y,1/2-z
-x,1/2+y,1/2-z
1/2+x,y,1/2+z
1/2-x,-y,1/2+z
1/2+x,-y,1/2-z
1/2-x,y,1/2-z
1/2+x,1/2+y,z
1/2-x,1/2-y,z
1/2+x,1/2-y,-z
1/2-x,1/2+y,-z
loop_
_atom_site_type_symbol
_atom_site_label
_atom_site_fract_x
_atom_site_fract_y
_atom_site_fract_z
Si Si1 0.398469 0.570262 0.839097
Si Si2 0.883310 0.162910 0.615048
Si Si3 0.779730 0.035087 0.171595
Si Si4 0.475356 0.940949 0.080153
Si Si5 0.591914 0.660903 0.065592
Si Si6 0.922123 0.752287 0.572418
Si Si7 0.750000 0.357766 0.750000
O O1 0.286398 0.524848 0.839963
O O2 0.558103 0.550863 0.839579
O O3 0.387537 0.608118 0.899569
O O4 0.372712 0.604768 0.775299
O O5 0.758736 0.177566 0.561440
O O6 0.807945 0.171011 0.686300
O O7 0.931134 0.105250 0.607961
O O8 0.019700 0.198027 0.606820
O O9 0.750000 0.043563 0.250000
O O10 0.677601 0.063072 0.118877
O O11 0.500000 0.000000 0.094174
O O12 0.500000 0.936140 0.000000
O O13 0.497291 0.702701 0.103750
O O14 0.500000 0.651992 0.000000
O O15 0.750000 0.750000 0.570869
O O16 0.000000 0.752781 0.500000
#
# Coordination Sequence:
#
# PCOD9327240 Si02
#       7
#    16  16  16  16  16  16   8
#     4  10  22  39  65  94 128 178 226 280 335 401
#     4  11  23  41  71  97 135 183 224 277 348 408
#     4  11  23  39  66  94 137 183 235 275 336 418
#     4  11  25  40  63 100 145 178 229 287 350 412
#     4  10  22  40  65  93 135 167 226 276 340 407
#     4  11  23  41  69 101 134 173 224 276 346 421
#     4  10  20  42  65  92 130 172 226 271 332 408
#
# _framework density 20.688677999999999
#
# number of rings (size 3 to 8) (size 9 to 14) (size 15 to 20)
#    0.000    1.385    0.769    5.538    6.462    0.000 
#    0.000    6.923    0.000    3.692    0.000    0.000 
#    0.000    0.000    0.000    0.000    0.000    0.000 
#
# Total GULP energy -144795.597578 kJ/mol
# GULP energy per Si atom -5569.061445 kJ/mol
# Density = 2.064159 g / cm^3
# Si number density = 20.688678 Si / 1000 Ang^3
#
#
#
# Elastic Constant Matrix: (Units=GPa)
#
#
# Indices 1 2 3 4 5 6 
#
# 1 168.8903 42.9256 49.1636 0.0000 0.0000 0.0000
# 2 42.9256 63.0708 26.3073 0.0000 0.0000 0.0000
# 3 49.1636 26.3073 84.6542 0.0000 0.0000 0.0000
# 4 0.0000 0.0000 0.0000 9.9183 0.0000 0.0000
# 5 0.0000 0.0000 0.0000 0.0000 29.7322 0.0000
# 6 0.0000 0.0000 0.0000 0.0000 0.0000 41.3580
#
#
#
# Elastic Compliance Matrix: (Units=1/GPa)
#
#
# Indices 1 2 3 4 5 6 
#
# 1 0.007911 -0.003984 -0.003356 0.000000 0.000000 0.000000
# 2 -0.003984 0.020223 -0.003971 0.000000 0.000000 0.000000
# 3 -0.003356 -0.003971 0.014996 0.000000 0.000000 0.000000
# 4 0.000000 0.000000 0.000000 0.100823 0.000000 0.000000
# 5 0.000000 0.000000 0.000000 0.000000 0.033634 0.000000
# 6 0.000000 0.000000 0.000000 0.000000 0.000000 0.024179
#
#
# Mechanical properties :
#
#
# Convention : Reuss Voigt Hill
#
# Bulk Modulus (GPa) = 48.76239 61.48980 55.12610
# Shear Modulus (GPa) = 21.62415 29.41628 25.52022
#
# Velocity S-wave (km/s) = 3.23649 3.77484 3.51598
# Velocity P-wave (km/s) = 6.13084 6.98464 6.57162
#
# Compressibility (1/GPa) = 0.02050761
#
# Stress axis : x y z
#
# Youngs Moduli (GPa) = 126.41393 49.44879 66.68551
#
# Poissons Ratio (x) = 0.19701 0.22380
# Poissons Ratio (y) = 0.50364 0.26479
# Poissons Ratio (z) = 0.42425 0.19635
#
# Static dielectric constant tensor:
#      x y z
#    x 1.804270 0.000000 0.000000 
#    y 0.000000 1.801240 0.000000 
#    z 0.000000 0.000000 1.850330 
# 
# From -- ./inp_files/42029.got.cif
#   From: 2010.05.17/outbox.cif.g08.bks.cpg/sg22_22_cif.got.tgz:42029.got - 2010.06.03 23:40:54.
