data_PCOD9327208
_publ_section_title
;
Structure prediction by ZEFSAII (Michael W. Deem and Ramdas Pophale) SiO2 
 PCOD9327208
Probable space group: F 2 2 2
;
_chemical_formula_sum "Si O2"
_cell_formula_units_Z 64
_cell_length_a 17.005761
_cell_length_b 12.719991
_cell_length_c 12.498089
_cell_angle_alpha 90.000000
_cell_angle_beta 90.000000
_cell_angle_gamma 90.000000
_cell_volume 2703.500711
_symmetry_space_group_name_H-M "F 2 2 2"
_symmetry_group_IT_number 22
_symmetry_cell_setting 'orthorhombic'
loop_
_space_group_symop_operation_xyz
x,y,z
-x,-y,z
x,-y,-z
-x,y,-z
x,1/2+y,1/2+z
-x,1/2-y,1/2+z
x,1/2-y,1/2-z
-x,1/2+y,1/2-z
1/2+x,y,1/2+z
1/2-x,-y,1/2+z
1/2+x,-y,1/2-z
1/2-x,y,1/2-z
1/2+x,1/2+y,z
1/2-x,1/2-y,z
1/2+x,1/2-y,-z
1/2-x,1/2+y,-z
loop_
_atom_site_type_symbol
_atom_site_label
_atom_site_fract_x
_atom_site_fract_y
_atom_site_fract_z
Si Si1 0.179693 0.083640 0.668395
Si Si2 0.976490 0.114161 0.186451
Si Si3 0.882184 0.750000 0.250000
Si Si4 0.500000 0.277183 0.500000
Si Si5 0.338236 0.642596 0.561002
O O1 0.250000 0.101618 0.750000
O O2 0.097433 0.107418 0.731723
O O3 0.195782 0.146021 0.557904
O O4 0.181807 0.963048 0.625299
O O5 0.057278 0.153649 0.240888
O O6 0.966433 0.300773 0.408125
O O7 0.000000 0.000000 0.143291
O O8 0.832443 0.739546 0.142802
O O9 0.569182 0.352820 0.535264
#
# Coordination Sequence:
#
# PCOD9327208 Si02
#       5
#    16  16   8   8  16
#     4  11  24  43  67  99 139 192 235 289 366 433
#     4  11  21  40  69 101 141 177 238 301 343 425
#     4  10  20  40  72 110 126 174 240 294 360 404
#     4  10  23  41  70 106 128 178 245 296 367 398
#     4  10  22  43  69  97 136 180 233 296 344 436
#
# _framework density 23.673010000000001
#
# number of rings (size 3 to 8) (size 9 to 14) (size 15 to 20)
#    0.000    1.500    2.500    3.375    0.000    1.000 
#    9.000    8.750    0.000    0.000    0.000    0.000 
#    0.000    0.000    0.000    0.000    0.000    0.000 
#
# Total GULP energy -89305.627527 kJ/mol
# GULP energy per Si atom -5581.601720 kJ/mol
# Density = 2.361913 g / cm^3
# Si number density = 23.673010 Si / 1000 Ang^3
#
#
#
# Elastic Constant Matrix: (Units=GPa)
#
#
# Indices 1 2 3 4 5 6 
#
# 1 122.1964 22.5838 67.5940 0.0000 0.0000 0.0000
# 2 22.5838 62.4565 28.6095 0.0000 0.0000 0.0000
# 3 67.5940 28.6095 225.6537 0.0000 0.0000 0.0000
# 4 0.0000 0.0000 0.0000 38.3404 0.0000 0.0000
# 5 0.0000 0.0000 0.0000 0.0000 37.0187 0.0000
# 6 0.0000 0.0000 0.0000 0.0000 0.0000 22.6064
#
#
#
# Elastic Compliance Matrix: (Units=1/GPa)
#
#
# Indices 1 2 3 4 5 6 
#
# 1 0.010141 -0.002416 -0.002731 0.000000 0.000000 0.000000
# 2 -0.002416 0.017574 -0.001504 0.000000 0.000000 0.000000
# 3 -0.002731 -0.001504 0.005441 0.000000 0.000000 0.000000
# 4 0.000000 0.000000 0.000000 0.026082 0.000000 0.000000
# 5 0.000000 0.000000 0.000000 0.000000 0.027013 0.000000
# 6 0.000000 0.000000 0.000000 0.000000 0.000000 0.044235
#
#
# Mechanical properties :
#
#
# Convention : Reuss Voigt Hill
#
# Bulk Modulus (GPa) = 50.37263 71.98678 61.17971
# Shear Modulus (GPa) = 33.24323 39.02772 36.13548
#
# Velocity S-wave (km/s) = 3.75142 4.06472 3.91121
# Velocity P-wave (km/s) = 6.33158 7.24597 6.80415
#
# Compressibility (1/GPa) = 0.01985205
#
# Stress axis : x y z
#
# Youngs Moduli (GPa) = 98.61056 56.90287 183.80660
#
# Poissons Ratio (x) = 0.13746 0.50205
# Poissons Ratio (y) = 0.23821 0.27653
# Poissons Ratio (z) = 0.26935 0.08561
#
# Static dielectric constant tensor:
#      x y z
#    x 1.877240 0.000000 0.000000 
#    y 0.000000 1.961400 0.000000 
#    z 0.000000 0.000000 1.997620 
# 
# From -- ./inp_files/21026.got.cif
#   From: 2010.05.17/outbox.cif.g08.bks.cpg/sg22_11_cif.got.tgz:21026.got - 2010.06.03 23:40:54.
