data_PCOD9327990
_publ_section_title
;
Structure prediction by ZEFSAII (Michael W. Deem and Ramdas Pophale) SiO2 
 PCOD9327990
Probable space group: F 2 2 2
;
_chemical_formula_sum "Si O2"
_cell_formula_units_Z 52
_cell_length_a 10.132976
_cell_length_b 27.204967
_cell_length_c 9.814528
_cell_angle_alpha 90.000000
_cell_angle_beta 90.000000
_cell_angle_gamma 90.000000
_cell_volume 2705.544216
_symmetry_space_group_name_H-M "F 2 2 2"
_symmetry_group_IT_number 22
_symmetry_cell_setting 'orthorhombic'
loop_
_space_group_symop_operation_xyz
x,y,z
-x,-y,z
x,-y,-z
-x,y,-z
x,1/2+y,1/2+z
-x,1/2-y,1/2+z
x,1/2-y,1/2-z
-x,1/2+y,1/2-z
1/2+x,y,1/2+z
1/2-x,-y,1/2+z
1/2+x,-y,1/2-z
1/2-x,y,1/2-z
1/2+x,1/2+y,z
1/2-x,1/2-y,z
1/2+x,1/2-y,-z
1/2-x,1/2+y,-z
loop_
_atom_site_type_symbol
_atom_site_label
_atom_site_fract_x
_atom_site_fract_y
_atom_site_fract_z
Si Si1 0.360063 0.407106 0.521807
Si Si2 0.750000 0.125546 0.750000
Si Si3 0.975442 0.202972 0.837190
Si Si4 0.250000 0.841587 0.250000
Si Si5 0.500000 0.000000 0.000000
O O1 0.500000 0.379449 0.500000
O O2 0.297772 0.408323 0.373455
O O3 0.270642 0.376779 0.621472
O O4 0.405417 0.460745 0.574812
O O5 0.631653 0.160117 0.692799
O O6 0.928965 0.250000 0.750000
O O7 0.117943 0.188826 0.775351
O O8 0.000000 0.211062 0.000000
#
# Coordination Sequence:
#
# PCOD9327990 Si02
#       5
#    16   8  16   8   4
#     4  10  22  41  66  94 128 166 203 267 314 379
#     4  12  23  43  66  90 132 172 212 255 325 374
#     4  12  27  40  63  94 127 171 219 264 308 375
#     4  12  23  43  66  90 132 172 212 255 325 374
#     4   8  20  44  64 100 128 160 204 272 320 368
#
# _framework density 19.219794
#
# number of rings (size 3 to 8) (size 9 to 14) (size 15 to 20)
#    0.923    0.000    6.154    0.923    4.308    3.692 
#    0.000    0.000    0.000    3.692    0.000    0.000 
#    0.000    0.000    0.000    0.000    0.000    0.000 
#
# Total GULP energy -72395.221446 kJ/mol
# GULP energy per Si atom -5568.863188 kJ/mol
# Density = 1.917605 g / cm^3
# Si number density = 19.219794 Si / 1000 Ang^3
#
#
#
# Elastic Constant Matrix: (Units=GPa)
#
#
# Indices 1 2 3 4 5 6 
#
# 1 80.5146 10.9236 6.5701 0.0000 0.0000 0.0000
# 2 10.9236 68.8895 11.7509 0.0000 0.0000 0.0000
# 3 6.5701 11.7509 115.2378 0.0000 0.0000 0.0000
# 4 0.0000 0.0000 0.0000 -130.6668 0.0000 0.0000
# 5 0.0000 0.0000 0.0000 0.0000 29.1372 0.0000
# 6 0.0000 0.0000 0.0000 0.0000 0.0000 4.2690
#
#
#
# Elastic Compliance Matrix: (Units=1/GPa)
#
#
# Indices 1 2 3 4 5 6 
#
# 1 0.012725 -0.001928 -0.000529 0.000000 0.000000 0.000000
# 2 -0.001928 0.015065 -0.001426 0.000000 0.000000 0.000000
# 3 -0.000529 -0.001426 0.008853 0.000000 0.000000 0.000000
# 4 0.000000 0.000000 0.000000 -0.007653 0.000000 0.000000
# 5 0.000000 0.000000 0.000000 0.000000 0.034320 0.000000
# 6 0.000000 0.000000 0.000000 0.000000 0.000000 0.234249
#
#
# Mechanical properties :
#
#
# Convention : Reuss Voigt Hill
#
# Bulk Modulus (GPa) = 34.62896 35.90345 35.26621
# Shear Modulus (GPa) = 15.87553 -3.75896 6.05828
#
# Velocity S-wave (km/s) = 2.87714 -1.40001 1.77734
# Velocity P-wave (km/s) = 5.39386 4.01343 4.75402
#
# Compressibility (1/GPa) = 0.02887756
#
# Stress axis : x y z
#
# Youngs Moduli (GPa) = 78.58682 66.37934 112.95219
#
# Poissons Ratio (x) = 0.12795 0.05974
# Poissons Ratio (y) = 0.15148 0.16110
# Poissons Ratio (z) = 0.04157 0.09468
#
# Static dielectric constant tensor:
#      x y z
#    x 1.695460 0.000000 0.000000 
#    y 0.000000 1.668690 0.000000 
#    z 0.000000 0.000000 1.835710 
# 
# From -- ./inp_files/8315.got.cif
#   From: 2010.05.17/outbox.cif.g08.bks.cpg/sg22_5_cif.got.tgz:8315.got - 2010.06.03 23:40:54.
