data_PCOD9327718
_publ_section_title
;
Structure prediction by ZEFSAII (Michael W. Deem and Ramdas Pophale) SiO2 
 PCOD9327718
Probable space group: F 2 2 2
;
_chemical_formula_sum "Si O2"
_cell_formula_units_Z 116
_cell_length_a 9.664631
_cell_length_b 25.027592
_cell_length_c 23.595246
_cell_angle_alpha 90.000000
_cell_angle_beta 90.000000
_cell_angle_gamma 90.000000
_cell_volume 5707.275710
_symmetry_space_group_name_H-M "F 2 2 2"
_symmetry_group_IT_number 22
_symmetry_cell_setting 'orthorhombic'
loop_
_space_group_symop_operation_xyz
x,y,z
-x,-y,z
x,-y,-z
-x,y,-z
x,1/2+y,1/2+z
-x,1/2-y,1/2+z
x,1/2-y,1/2-z
-x,1/2+y,1/2-z
1/2+x,y,1/2+z
1/2-x,-y,1/2+z
1/2+x,-y,1/2-z
1/2-x,y,1/2-z
1/2+x,1/2+y,z
1/2-x,1/2-y,z
1/2+x,1/2-y,-z
1/2-x,1/2+y,-z
loop_
_atom_site_type_symbol
_atom_site_label
_atom_site_fract_x
_atom_site_fract_y
_atom_site_fract_z
Si Si1 0.664937 0.203771 0.692255
Si Si2 0.686898 0.429015 0.415250
Si Si3 0.261138 0.895684 0.620073
Si Si4 0.008208 0.168222 0.432801
Si Si5 0.093560 0.729812 0.364948
Si Si6 0.000000 0.000000 0.500000
Si Si7 0.464733 0.376935 0.937884
Si Si8 0.837082 0.997676 0.308367
O O1 0.750000 0.199504 0.750000
O O2 0.750000 0.250000 0.659354
O O3 0.682528 0.146877 0.664745
O O4 0.504975 0.220473 0.689772
O O5 0.611005 0.372254 0.413081
O O6 0.596243 0.464864 0.458441
O O7 0.839097 0.418241 0.438405
O O8 0.693071 0.454783 0.352882
O O9 0.148140 0.863428 0.583462
O O10 0.397381 0.907040 0.583664
O O11 0.196707 0.945051 0.653959
O O12 0.000000 0.175606 0.500000
O O13 0.980980 0.223956 0.401696
O O14 0.250000 0.750000 0.354680
O O15 0.080417 0.673851 0.399258
O O16 0.500000 0.355571 0.000000
O O17 0.750000 0.999017 0.250000
O O18 0.000000 0.000000 0.294630
#
# Coordination Sequence:
#
# PCOD9327718 Si02
#       8
#    16  16  16  16  16   4  16  16
#     4  10  21  42  69  95 131 176 233 280 339 416
#     4  12  25  46  72 103 141 182 245 290 357 425
#     4  11  24  45  69 100 137 186 232 283 356 425
#     4  12  22  41  72 101 141 189 226 280 346 432
#     4  11  23  42  68 104 148 181 228 284 353 429
#     4  12  24  48  78 100 136 200 234 302 356 442
#     4  11  26  42  66 111 148 180 227 291 353 428
#     4  12  28  49  72 101 136 185 245 298 361 428
#
# _framework density 20.324933000000001
#
# number of rings (size 3 to 8) (size 9 to 14) (size 15 to 20)
#    0.000    0.690    5.517    1.655    3.862    0.000 
#    0.000    1.379    0.000    0.000    0.000    0.000 
#    0.000    0.000    0.000    0.000    0.000    0.000 
#
# Total GULP energy -161886.809512 kJ/mol
# GULP energy per Si atom -5582.303776 kJ/mol
# Density = 2.027867 g / cm^3
# Si number density = 20.324933 Si / 1000 Ang^3
#
#
#
# Elastic Constant Matrix: (Units=GPa)
#
#
# Indices 1 2 3 4 5 6 
#
# 1 198.8473 34.5408 64.5279 0.0000 0.0000 0.0000
# 2 34.5408 66.6744 33.3486 0.0000 0.0000 0.0000
# 3 64.5279 33.3486 115.1652 0.0000 0.0000 0.0000
# 4 0.0000 0.0000 0.0000 16.7642 0.0000 0.0000
# 5 0.0000 0.0000 0.0000 0.0000 20.7502 0.0000
# 6 0.0000 0.0000 0.0000 0.0000 0.0000 28.6768
#
#
#
# Elastic Compliance Matrix: (Units=1/GPa)
#
#
# Indices 1 2 3 4 5 6 
#
# 1 0.006318 -0.001757 -0.003031 0.000000 0.000000 0.000000
# 2 -0.001757 0.018027 -0.004236 0.000000 0.000000 0.000000
# 3 -0.003031 -0.004236 0.011608 0.000000 0.000000 0.000000
# 4 0.000000 0.000000 0.000000 0.059651 0.000000 0.000000
# 5 0.000000 0.000000 0.000000 0.000000 0.048192 0.000000
# 6 0.000000 0.000000 0.000000 0.000000 0.000000 0.034871
#
#
# Mechanical properties :
#
#
# Convention : Reuss Voigt Hill
#
# Bulk Modulus (GPa) = 55.84908 71.72460 63.78684
# Shear Modulus (GPa) = 24.66898 29.78955 27.22926
#
# Velocity S-wave (km/s) = 3.48764 3.83255 3.66416
# Velocity P-wave (km/s) = 6.61483 7.41284 7.02518
#
# Compressibility (1/GPa) = 0.01790540
#
# Stress axis : x y z
#
# Youngs Moduli (GPa) = 158.28289 55.47240 86.14660
#
# Poissons Ratio (x) = 0.09746 0.26113
# Poissons Ratio (y) = 0.27808 0.36489
# Poissons Ratio (z) = 0.47978 0.23497
#
# Static dielectric constant tensor:
#      x y z
#    x 1.744940 0.000000 0.000000 
#    y 0.000000 1.739960 0.000000 
#    z 0.000000 0.000000 1.904860 
# 
# From -- ./inp_files/47530.got.cif
#   From: 2010.05.17/outbox.cif.g08.bks.cpg/sg22_24_cif.got.tgz:47530.got - 2010.06.03 23:40:54.
