data_PCOD9327355
_publ_section_title
;
Structure prediction by ZEFSAII (Michael W. Deem and Ramdas Pophale) SiO2 
 PCOD9327355
Probable space group: F 2 2 2
;
_chemical_formula_sum "Si O2"
_cell_formula_units_Z 52
_cell_length_a 10.267720
_cell_length_b 10.267727
_cell_length_c 29.643568
_cell_angle_alpha 90.000000
_cell_angle_beta 90.000000
_cell_angle_gamma 90.000000
_cell_volume 3125.207124
_symmetry_space_group_name_H-M "F 2 2 2"
_symmetry_group_IT_number 22
_symmetry_cell_setting 'orthorhombic'
loop_
_space_group_symop_operation_xyz
x,y,z
-x,-y,z
x,-y,-z
-x,y,-z
x,1/2+y,1/2+z
-x,1/2-y,1/2+z
x,1/2-y,1/2-z
-x,1/2+y,1/2-z
1/2+x,y,1/2+z
1/2-x,-y,1/2+z
1/2+x,-y,1/2-z
1/2-x,y,1/2-z
1/2+x,1/2+y,z
1/2-x,1/2-y,z
1/2+x,1/2-y,-z
1/2-x,1/2+y,-z
loop_
_atom_site_type_symbol
_atom_site_label
_atom_site_fract_x
_atom_site_fract_y
_atom_site_fract_z
Si Si1 0.000000 0.500000 0.500000
Si Si2 0.607282 0.392717 0.622507
Si Si3 0.603712 0.603712 0.088252
Si Si4 0.607377 0.107378 0.769126
O O1 0.914293 0.414293 0.534383
O O2 0.500000 0.500000 0.610376
O O3 0.573380 0.249908 0.603613
O O4 0.750092 0.426620 0.603613
O O5 0.615236 0.384764 0.676707
O O6 0.500000 0.500000 0.107797
O O7 0.573382 0.250000 0.750000
O O8 0.750000 0.073383 0.750000
O O9 0.500000 0.000000 0.756824
#
# Coordination Sequence:
#
# PCOD9327355 Si02
#       4
#     4  16  16  16
#     4   8  20  40  56  80 108 144 188 220 276 332
#     4  10  21  37  57  85 110 143 187 222 272 325
#     4   9  19  39  55  77 113 142 181 227 272 323
#     4  10  21  36  56  84 114 146 182 222 268 323
#
# _framework density 16.638897
#
# number of rings (size 3 to 8) (size 9 to 14) (size 15 to 20)
#    0.923    1.538    0.000    3.692    0.000    6.769 
#   11.077    6.154    0.000    0.000    0.000    0.000 
#    0.000    0.000    0.000    0.000    0.000    0.000 
#
# Total GULP energy -72406.020877 kJ/mol
# GULP energy per Si atom -5569.693914 kJ/mol
# Density = 1.660103 g / cm^3
# Si number density = 16.638897 Si / 1000 Ang^3
#
#
#
# Elastic Constant Matrix: (Units=GPa)
#
#
# Indices 1 2 3 4 5 6 
#
# 1 145.9435 132.2258 60.4619 0.0000 0.0000 0.0000
# 2 132.2258 145.9467 60.4626 0.0000 0.0000 0.0000
# 3 60.4619 60.4626 85.9099 0.0000 0.0000 0.0000
# 4 0.0000 0.0000 0.0000 -82.0319 0.0000 0.0000
# 5 0.0000 0.0000 0.0000 0.0000 -82.0272 0.0000
# 6 0.0000 0.0000 0.0000 0.0000 0.0000 39.3960
#
#
#
# Elastic Compliance Matrix: (Units=1/GPa)
#
#
# Indices 1 2 3 4 5 6 
#
# 1 0.039035 -0.033855 -0.003645 0.000000 0.000000 0.000000
# 2 -0.033855 0.039034 -0.003645 0.000000 0.000000 0.000000
# 3 -0.003645 -0.003645 0.016771 0.000000 0.000000 0.000000
# 4 0.000000 0.000000 0.000000 -0.012190 0.000000 0.000000
# 5 0.000000 0.000000 0.000000 0.000000 -0.012191 0.000000
# 6 0.000000 0.000000 0.000000 0.000000 0.000000 0.025383
#
#
# Mechanical properties :
#
#
# Convention : Reuss Voigt Hill
#
# Bulk Modulus (GPa) = 79.68740 98.23340 88.96040
# Shear Modulus (GPa) = 27.42471 -16.62262 5.40104
#
# Velocity S-wave (km/s) = 4.06424 -3.16416 1.80363
# Velocity P-wave (km/s) = 8.36781 6.76885 7.61044
#
# Compressibility (1/GPa) = 0.01254904
#
# Stress axis : x y z
#
# Youngs Moduli (GPa) = 25.61787 25.61844 59.62625
#
# Poissons Ratio (x) = 0.86732 0.21736
# Poissons Ratio (y) = 0.86730 0.21736
# Poissons Ratio (z) = 0.09339 0.09339
#
# Static dielectric constant tensor:
#      x y z
#    x 1.545720 0.000000 0.000000 
#    y 0.000000 1.545720 0.000000 
#    z 0.000000 0.000000 1.558250 
# 
# From -- ./inp_files/8275.got.cif
#   From: 2010.05.17/outbox.cif.g08.bks.cpg/sg22_5_cif.got.tgz:8275.got - 2010.06.03 23:40:54.
