data_PCOD9327406
_publ_section_title
;
Structure prediction by ZEFSAII (Michael W. Deem and Ramdas Pophale) SiO2 
 PCOD9327406
Probable space group: F 2 2 2
;
_chemical_formula_sum "Si O2"
_cell_formula_units_Z 128
_cell_length_a 10.973865
_cell_length_b 22.167888
_cell_length_c 24.541845
_cell_angle_alpha 90.000000
_cell_angle_beta 90.000000
_cell_angle_gamma 90.000000
_cell_volume 5970.231076
_symmetry_space_group_name_H-M "F 2 2 2"
_symmetry_group_IT_number 22
_symmetry_cell_setting 'orthorhombic'
loop_
_space_group_symop_operation_xyz
x,y,z
-x,-y,z
x,-y,-z
-x,y,-z
x,1/2+y,1/2+z
-x,1/2-y,1/2+z
x,1/2-y,1/2-z
-x,1/2+y,1/2-z
1/2+x,y,1/2+z
1/2-x,-y,1/2+z
1/2+x,-y,1/2-z
1/2-x,y,1/2-z
1/2+x,1/2+y,z
1/2-x,1/2-y,z
1/2+x,1/2-y,-z
1/2-x,1/2+y,-z
loop_
_atom_site_type_symbol
_atom_site_label
_atom_site_fract_x
_atom_site_fract_y
_atom_site_fract_z
Si Si1 0.873927 0.109480 0.223231
Si Si2 0.570616 0.699941 0.587257
Si Si3 0.743054 0.473450 0.129463
Si Si4 0.978973 0.825147 0.136831
Si Si5 0.030460 0.905792 0.338396
Si Si6 0.744585 0.112312 0.880441
Si Si7 0.184180 0.812415 0.524827
Si Si8 0.948603 0.435269 0.439945
O O1 0.750000 0.133425 0.250000
O O2 0.828066 0.059117 0.179646
O O3 0.954366 0.086573 0.273824
O O4 0.950391 0.158930 0.191566
O O5 0.535897 0.764730 0.611963
O O6 0.595145 0.653879 0.636264
O O7 0.447948 0.685986 0.552974
O O8 0.672185 0.691433 0.540327
O O9 0.886400 0.459289 0.136535
O O10 0.714080 0.544075 0.129271
O O11 0.693971 0.444099 0.073385
O O12 0.833630 0.836571 0.145010
O O13 0.009567 0.878524 0.094593
O O14 0.891862 0.892667 0.355929
O O15 0.744908 0.130915 0.944652
O O16 0.250000 0.750000 0.541423
O O17 0.000000 0.500000 0.420887
O O18 0.000000 0.427558 0.500000
#
# Coordination Sequence:
#
# PCOD9327406 Si02
#       8
#    16  16  16  16  16  16  16  16
#     4   9  22  44  64  95 134 173 227 295 354 425
#     4  10  23  40  64  95 133 181 228 283 344 429
#     4  10  21  44  63  94 136 173 225 291 358 429
#     4  11  22  39  67  98 131 175 233 291 351 426
#     4  10  23  44  63  97 138 178 231 283 357 432
#     4  11  22  40  68  97 136 181 233 293 351 433
#     4  10  21  39  62  94 134 177 226 283 349 419
#     4  10  21  37  60  94 130 167 220 291 350 413
#
# _framework density 21.439706000000001
#
# number of rings (size 3 to 8) (size 9 to 14) (size 15 to 20)
#    0.000    1.875    2.500    0.375    1.750    5.000 
#   11.250    1.875    0.000    4.500    0.000    0.000 
#    0.000    0.000    0.000    0.000    0.000    0.000 
#
# Total GULP energy -178239.031668 kJ/mol
# GULP energy per Si atom -5569.969740 kJ/mol
# Density = 2.139091 g / cm^3
# Si number density = 21.439706 Si / 1000 Ang^3
#
#
#
# Elastic Constant Matrix: (Units=GPa)
#
#
# Indices 1 2 3 4 5 6 
#
# 1 81.6058 10.1504 52.8951 0.0000 0.0000 0.0000
# 2 10.1504 85.6979 39.7241 0.0000 0.0000 0.0000
# 3 52.8951 39.7241 113.8463 0.0000 0.0000 0.0000
# 4 0.0000 0.0000 0.0000 6.0075 0.0000 0.0000
# 5 0.0000 0.0000 0.0000 0.0000 23.7589 0.0000
# 6 0.0000 0.0000 0.0000 0.0000 0.0000 26.4411
#
#
#
# Elastic Compliance Matrix: (Units=1/GPa)
#
#
# Indices 1 2 3 4 5 6 
#
# 1 0.017835 0.002062 -0.009006 0.000000 0.000000 0.000000
# 2 0.002062 0.014159 -0.005899 0.000000 0.000000 0.000000
# 3 -0.009006 -0.005899 0.015026 0.000000 0.000000 0.000000
# 4 0.000000 0.000000 0.000000 0.166458 0.000000 0.000000
# 5 0.000000 0.000000 0.000000 0.000000 0.042090 0.000000
# 6 0.000000 0.000000 0.000000 0.000000 0.000000 0.037820
#
#
# Mechanical properties :
#
#
# Convention : Reuss Voigt Hill
#
# Bulk Modulus (GPa) = 46.87050 54.07658 50.47354
# Shear Modulus (GPa) = 15.32878 23.13354 19.23116
#
# Velocity S-wave (km/s) = 2.67680 3.28838 2.99823
# Velocity P-wave (km/s) = 5.60916 6.30042 5.96481
#
# Compressibility (1/GPa) = 0.02133538
#
# Stress axis : x y z
#
# Youngs Moduli (GPa) = 56.06937 70.62738 66.54992
#
# Poissons Ratio (x) = -0.14565 0.59935
# Poissons Ratio (y) = -0.11562 0.39255
# Poissons Ratio (z) = 0.50496 0.41660
#
# Static dielectric constant tensor:
#      x y z
#    x 1.828400 0.000000 0.000000 
#    y 0.000000 1.764710 0.000000 
#    z 0.000000 0.000000 1.772540 
# 
# From -- ./inp_files/48420.got.cif
#   From: 2010.05.17/outbox.cif.g08.bks.cpg/sg22_25_cif.got.tgz:48420.got - 2010.06.03 23:40:54.
