data_PCOD9327235
_publ_section_title
;
Structure prediction by ZEFSAII (Michael W. Deem and Ramdas Pophale) SiO2 
 PCOD9327235
Probable space group: F 2 2 2
;
_chemical_formula_sum "Si O2"
_cell_formula_units_Z 60
_cell_length_a 13.352754
_cell_length_b 33.384754
_cell_length_c 5.830046
_cell_angle_alpha 90.000000
_cell_angle_beta 90.000000
_cell_angle_gamma 90.000000
_cell_volume 2598.908622
_symmetry_space_group_name_H-M "F 2 2 2"
_symmetry_group_IT_number 22
_symmetry_cell_setting 'orthorhombic'
loop_
_space_group_symop_operation_xyz
x,y,z
-x,-y,z
x,-y,-z
-x,y,-z
x,1/2+y,1/2+z
-x,1/2-y,1/2+z
x,1/2-y,1/2-z
-x,1/2+y,1/2-z
1/2+x,y,1/2+z
1/2-x,-y,1/2+z
1/2+x,-y,1/2-z
1/2-x,y,1/2-z
1/2+x,1/2+y,z
1/2-x,1/2-y,z
1/2+x,1/2-y,-z
1/2-x,1/2+y,-z
loop_
_atom_site_type_symbol
_atom_site_label
_atom_site_fract_x
_atom_site_fract_y
_atom_site_fract_z
Si Si1 0.250000 0.372948 0.750000
Si Si2 0.889044 0.820219 0.080980
Si Si3 0.128656 0.019308 0.249103
Si Si4 0.638654 0.395878 0.645344
Si Si5 0.750000 0.750000 0.250000
O O1 0.180531 0.344676 0.595342
O O2 0.332484 0.399516 0.619962
O O3 0.902776 0.852200 0.290762
O O4 0.825474 0.780537 0.126210
O O5 0.000000 0.810453 0.000000
O O6 0.250000 0.021195 0.250000
O O7 0.086414 0.064863 0.259423
O O8 0.104535 0.000000 0.500000
O O9 0.104203 0.000000 0.000000
O O10 0.750000 0.395393 0.750000
#
# Coordination Sequence:
#
# PCOD9327235 Si02
#       5
#     8  16  16  16   4
#     4  10  20  41  70  93 136 184 229 294 346 425
#     4  11  25  44  70  99 135 179 233 286 362 435
#     4   9  18  28  53  94 137 182 235 290 348 415
#     4   9  19  37  60  95 137 178 233 288 344 425
#     4  12  24  50  60 108 138 164 238 306 352 442
#
# _framework density 23.086614000000001
#
# number of rings (size 3 to 8) (size 9 to 14) (size 15 to 20)
#    0.000    2.133    4.000    0.000   13.067    3.733 
#    0.000    0.000    0.000    0.800    0.000    0.000 
#    0.000    0.000    0.000    0.000    0.000    0.000 
#
# Total GULP energy -83545.228445 kJ/mol
# GULP energy per Si atom -5569.681896 kJ/mol
# Density = 2.303407 g / cm^3
# Si number density = 23.086614 Si / 1000 Ang^3
#
#
#
# Elastic Constant Matrix: (Units=GPa)
#
#
# Indices 1 2 3 4 5 6 
#
# 1 133.4458 41.7460 29.4966 0.0000 0.0001 0.0000
# 2 41.7460 152.4061 70.8352 0.0000 0.0000 0.0000
# 3 29.4966 70.8352 119.1801 0.0001 0.0001 -0.0001
# 4 0.0000 0.0000 0.0001 31.4141 0.0000 0.0000
# 5 0.0001 0.0000 0.0001 0.0000 -6.5645 0.0001
# 6 0.0000 0.0000 -0.0001 0.0000 0.0001 -61.3248
#
#
#
# Elastic Compliance Matrix: (Units=1/GPa)
#
#
# Indices 1 2 3 4 5 6 
#
# 1 0.008276 -0.001817 -0.000968 0.000000 0.000000 0.000000
# 2 -0.001817 0.009465 -0.005176 0.000000 0.000000 0.000000
# 3 -0.000968 -0.005176 0.011707 0.000000 0.000000 0.000000
# 4 0.000000 0.000000 0.000000 0.031833 0.000000 0.000000
# 5 0.000000 0.000000 0.000000 0.000000 -0.152334 0.000000
# 6 0.000000 0.000000 0.000000 0.000000 0.000000 -0.016307
#
#
# Mechanical properties :
#
#
# Convention : Reuss Voigt Hill
#
# Bulk Modulus (GPa) = 73.93531 76.57639 75.25585
# Shear Modulus (GPa) = -57.51744 10.23523 -23.64111
#
# Velocity S-wave (km/s) = -4.99678 2.10785 -3.20350
# Velocity P-wave (km/s) = 1.09351 6.25821 4.35715
#
# Compressibility (1/GPa) = 0.01352534
#
# Stress axis : x y z
#
# Youngs Moduli (GPa) = 120.82977 105.65665 85.42227
#
# Poissons Ratio (x) = 0.19196 0.08273
# Poissons Ratio (y) = 0.21952 0.44212
# Poissons Ratio (z) = 0.11702 0.54685
#
# Static dielectric constant tensor:
#      x y z
#    x 1.834720 0.000000 0.000000 
#    y 0.000000 1.912310 0.000000 
#    z 0.000000 0.000000 2.228730 
# 
# From -- ./inp_files/2800.got.cif
#   From: 2010.05.17/outbox.cif.g08.bks.cpg/sg22_2_cif.got.tgz:2800.got - 2010.06.03 23:40:54.
