data_PCOD9327183
_publ_section_title
;
Structure prediction by ZEFSAII (Michael W. Deem and Ramdas Pophale) SiO2 
 PCOD9327183
Probable space group: F 2 2 2
;
_chemical_formula_sum "Si O2"
_cell_formula_units_Z 116
_cell_length_a 11.762101
_cell_length_b 26.225145
_cell_length_c 18.516043
_cell_angle_alpha 90.000000
_cell_angle_beta 90.000000
_cell_angle_gamma 90.000000
_cell_volume 5711.510547
_symmetry_space_group_name_H-M "F 2 2 2"
_symmetry_group_IT_number 22
_symmetry_cell_setting 'orthorhombic'
loop_
_space_group_symop_operation_xyz
x,y,z
-x,-y,z
x,-y,-z
-x,y,-z
x,1/2+y,1/2+z
-x,1/2-y,1/2+z
x,1/2-y,1/2-z
-x,1/2+y,1/2-z
1/2+x,y,1/2+z
1/2-x,-y,1/2+z
1/2+x,-y,1/2-z
1/2-x,y,1/2-z
1/2+x,1/2+y,z
1/2-x,1/2-y,z
1/2+x,1/2-y,-z
1/2-x,1/2+y,-z
loop_
_atom_site_type_symbol
_atom_site_label
_atom_site_fract_x
_atom_site_fract_y
_atom_site_fract_z
Si Si1 0.270817 0.893212 0.604167
Si Si2 0.808231 0.665099 0.543487
Si Si3 0.468189 0.087086 0.275311
Si Si4 0.250000 0.750000 0.750000
Si Si5 0.786817 0.412947 0.326846
Si Si6 0.827145 0.516675 0.177629
Si Si7 0.582748 0.769251 0.936145
Si Si8 0.075424 0.823693 0.672854
O O1 0.317798 0.867105 0.531088
O O2 0.370102 0.898667 0.665477
O O3 0.219220 0.950409 0.609917
O O4 0.160536 0.859520 0.626131
O O5 0.794702 0.625677 0.608174
O O6 0.696599 0.700354 0.545222
O O7 0.902391 0.708015 0.561687
O O8 0.583355 0.068020 0.313353
O O9 0.434246 0.046463 0.212427
O O10 0.481158 0.140066 0.232584
O O11 0.166553 0.784751 0.704369
O O12 0.750000 0.389529 0.250000
O O13 0.695252 0.457795 0.341450
O O14 0.750000 0.521420 0.250000
O O15 0.522657 0.791996 0.866047
O O16 0.500000 0.783141 0.000000
#
# Coordination Sequence:
#
# PCOD9327183 Si02
#       8
#    16  16  16   4  16  16  16  16
#     4  10  20  40  64  98 129 161 224 276 328 408
#     4  11  26  42  63  98 133 179 224 272 336 409
#     4  10  21  41  67  95 129 171 215 281 339 388
#     4  12  24  32  68 102 116 164 230 284 324 376
#     4  11  24  42  65  95 134 174 217 272 342 412
#     4   8  19  39  65  93 123 166 211 271 329 394
#     4  11  25  42  63  87 136 187 219 268 334 400
#     4  11  22  39  63  97 129 167 225 277 326 388
#
# _framework density 20.309864000000001
#
# number of rings (size 3 to 8) (size 9 to 14) (size 15 to 20)
#    0.000    1.655    2.759    1.655    5.793    5.517 
#    0.000    2.069    0.000    4.966    0.000    0.000 
#    0.000    0.000    0.000    0.000    0.000    0.000 
#
# Total GULP energy -161437.043518 kJ/mol
# GULP energy per Si atom -5566.794604 kJ/mol
# Density = 2.026364 g / cm^3
# Si number density = 20.309864 Si / 1000 Ang^3
#
#
#
# Elastic Constant Matrix: (Units=GPa)
#
#
# Indices 1 2 3 4 5 6 
#
# 1 69.4882 27.4757 16.1890 0.0000 0.0000 0.0000
# 2 27.4757 100.7536 50.7640 0.0000 0.0000 0.0000
# 3 16.1890 50.7640 86.0485 0.0000 0.0000 0.0000
# 4 0.0000 0.0000 0.0000 38.4820 0.0000 0.0000
# 5 0.0000 0.0000 0.0000 0.0000 31.5064 0.0000
# 6 0.0000 0.0000 0.0000 0.0000 0.0000 32.7343
#
#
#
# Elastic Compliance Matrix: (Units=1/GPa)
#
#
# Indices 1 2 3 4 5 6 
#
# 1 0.016154 -0.004089 -0.000627 0.000000 0.000000 0.000000
# 2 -0.004089 0.015158 -0.008173 0.000000 0.000000 0.000000
# 3 -0.000627 -0.008173 0.016561 0.000000 0.000000 0.000000
# 4 0.000000 0.000000 0.000000 0.025986 0.000000 0.000000
# 5 0.000000 0.000000 0.000000 0.000000 0.031740 0.000000
# 6 0.000000 0.000000 0.000000 0.000000 0.000000 0.030549
#
#
# Mechanical properties :
#
#
# Convention : Reuss Voigt Hill
#
# Bulk Modulus (GPa) = 45.25979 49.46085 47.36032
# Shear Modulus (GPa) = 29.53482 31.33533 30.43508
#
# Velocity S-wave (km/s) = 3.81755 3.93219 3.87529
# Velocity P-wave (km/s) = 6.46255 6.70985 6.58736
#
# Compressibility (1/GPa) = 0.02209467
#
# Stress axis : x y z
#
# Youngs Moduli (GPa) = 61.90458 65.96970 60.38265
#
# Poissons Ratio (x) = 0.26978 0.03783
# Poissons Ratio (y) = 0.25316 0.49353
# Poissons Ratio (z) = 0.03879 0.53919
#
# Static dielectric constant tensor:
#      x y z
#    x 1.825970 0.000000 0.000000 
#    y 0.000000 1.739740 0.000000 
#    z 0.000000 0.000000 1.710300 
# 
# From -- ./inp_files/36430.got.cif
#   From: 2010.05.17/outbox.cif.g08.bks.cpg/sg22_19_cif.got.tgz:36430.got - 2010.06.03 23:40:54.
