data_PCOD9327309
_publ_section_title
;
Structure prediction by ZEFSAII (Michael W. Deem and Ramdas Pophale) SiO2 
 PCOD9327309
Probable space group: F 2 2 2
;
_chemical_formula_sum "Si O2"
_cell_formula_units_Z 80
_cell_length_a 28.452854
_cell_length_b 14.560939
_cell_length_c 8.213283
_cell_angle_alpha 90.000000
_cell_angle_beta 90.000000
_cell_angle_gamma 90.000000
_cell_volume 3402.765377
_symmetry_space_group_name_H-M "F 2 2 2"
_symmetry_group_IT_number 22
_symmetry_cell_setting 'orthorhombic'
loop_
_space_group_symop_operation_xyz
x,y,z
-x,-y,z
x,-y,-z
-x,y,-z
x,1/2+y,1/2+z
-x,1/2-y,1/2+z
x,1/2-y,1/2-z
-x,1/2+y,1/2-z
1/2+x,y,1/2+z
1/2-x,-y,1/2+z
1/2+x,-y,1/2-z
1/2-x,y,1/2-z
1/2+x,1/2+y,z
1/2-x,1/2-y,z
1/2+x,1/2-y,-z
1/2-x,1/2+y,-z
loop_
_atom_site_type_symbol
_atom_site_label
_atom_site_fract_x
_atom_site_fract_y
_atom_site_fract_z
Si Si1 0.048996 0.148473 0.451235
Si Si2 0.150836 0.104363 0.493637
Si Si3 0.155737 0.400384 0.373219
Si Si4 0.449891 0.357690 0.063272
Si Si5 0.196734 0.395119 0.691886
O O1 0.094944 0.100360 0.516852
O O2 0.051889 0.254555 0.508530
O O3 0.047119 0.148597 0.257272
O O4 0.000000 0.106436 0.500000
O O5 0.156671 0.142570 0.309798
O O6 0.171456 0.151416 0.653843
O O7 0.170326 0.000000 0.500000
O O8 0.102893 0.398496 0.450319
O O9 0.189036 0.355468 0.510450
O O10 0.173494 0.503837 0.335834
O O11 0.500000 0.397348 0.000000
O O12 0.250000 0.403810 0.750000
#
# Coordination Sequence:
#
# PCOD9327309 Si02
#       5
#    16  16  16  16  16
#     4   9  18  32  54  80 107 146 187 213 265 331
#     4   9  19  34  52  79 110 141 176 226 271 315
#     4   9  20  34  53  81 107 136 178 224 269 322
#     4   9  18  34  54  79 110 146 178 220 269 325
#     4  10  21  34  56  81 101 139 183 223 277 327
#
# _framework density 23.510289
#
# number of rings (size 3 to 8) (size 9 to 14) (size 15 to 20)
#    0.000    2.800    0.000    0.000   11.200    0.400 
#    0.000    2.000    0.000    2.400    5.200    0.000 
#    0.000    0.000    0.000    0.000    0.000    0.000 
#
# Total GULP energy -111364.595445 kJ/mol
# GULP energy per Si atom -5568.229772 kJ/mol
# Density = 2.345678 g / cm^3
# Si number density = 23.510289 Si / 1000 Ang^3
#
#
#
# Elastic Constant Matrix: (Units=GPa)
#
#
# Indices 1 2 3 4 5 6 
#
# 1 178.3813 15.1773 79.4160 0.0000 0.0000 0.0000
# 2 15.1773 61.9902 15.5070 0.0000 0.0000 0.0000
# 3 79.4160 15.5070 145.3429 0.0000 0.0000 0.0000
# 4 0.0000 0.0000 0.0000 12.7427 0.0000 0.0000
# 5 0.0000 0.0000 0.0000 0.0000 44.1381 0.0000
# 6 0.0000 0.0000 0.0000 0.0000 0.0000 25.3158
#
#
#
# Elastic Compliance Matrix: (Units=1/GPa)
#
#
# Indices 1 2 3 4 5 6 
#
# 1 0.007449 -0.000828 -0.003982 0.000000 0.000000 0.000000
# 2 -0.000828 0.016666 -0.001326 0.000000 0.000000 0.000000
# 3 -0.003982 -0.001326 0.009197 0.000000 0.000000 0.000000
# 4 0.000000 0.000000 0.000000 0.078477 0.000000 0.000000
# 5 0.000000 0.000000 0.000000 0.000000 0.022656 0.000000
# 6 0.000000 0.000000 0.000000 0.000000 0.000000 0.039501
#
#
# Mechanical properties :
#
#
# Convention : Reuss Voigt Hill
#
# Bulk Modulus (GPa) = 47.52506 67.32386 57.42446
# Shear Modulus (GPa) = 25.87575 34.81359 30.34467
#
# Velocity S-wave (km/s) = 3.32115 3.85227 3.59653
# Velocity P-wave (km/s) = 5.91314 6.96309 6.45948
#
# Compressibility (1/GPa) = 0.02104153
#
# Stress axis : x y z
#
# Youngs Moduli (GPa) = 134.24316 60.00274 108.72528
#
# Poissons Ratio (x) = 0.04967 0.43294
# Poissons Ratio (y) = 0.11111 0.14415
# Poissons Ratio (z) = 0.53455 0.07956
#
# Static dielectric constant tensor:
#      x y z
#    x 1.890450 0.000000 0.000000 
#    y 0.000000 2.003500 0.000000 
#    z 0.000000 0.000000 1.990400 
# 
# From -- ./inp_files/14623.got.cif
#   From: 2010.05.17/outbox.cif.g08.bks.cpg/sg22_8_cif.got.tgz:14623.got - 2010.06.03 23:40:54.
