data_PCOD9327800
_publ_section_title
;
Structure prediction by ZEFSAII (Michael W. Deem and Ramdas Pophale) SiO2 
 PCOD9327800
Probable space group: F 2 2 2
;
_chemical_formula_sum "Si O2"
_cell_formula_units_Z 68
_cell_length_a 21.517945
_cell_length_b 7.883820
_cell_length_c 17.969845
_cell_angle_alpha 90.000000
_cell_angle_beta 90.000000
_cell_angle_gamma 90.000000
_cell_volume 3048.469290
_symmetry_space_group_name_H-M "F 2 2 2"
_symmetry_group_IT_number 22
_symmetry_cell_setting 'orthorhombic'
loop_
_space_group_symop_operation_xyz
x,y,z
-x,-y,z
x,-y,-z
-x,y,-z
x,1/2+y,1/2+z
-x,1/2-y,1/2+z
x,1/2-y,1/2-z
-x,1/2+y,1/2-z
1/2+x,y,1/2+z
1/2-x,-y,1/2+z
1/2+x,-y,1/2-z
1/2-x,y,1/2-z
1/2+x,1/2+y,z
1/2-x,1/2-y,z
1/2+x,1/2-y,-z
1/2-x,1/2+y,-z
loop_
_atom_site_type_symbol
_atom_site_label
_atom_site_fract_x
_atom_site_fract_y
_atom_site_fract_z
Si Si1 0.250000 0.750000 0.750000
Si Si2 0.116114 0.824105 0.328003
Si Si3 0.571695 0.490651 0.088448
Si Si4 0.647074 0.324010 0.628663
Si Si5 0.250000 0.750000 0.380513
Si Si6 0.220913 0.000000 0.500000
O O1 0.298736 0.671094 0.691024
O O2 0.093557 0.750000 0.250000
O O3 0.093030 0.696004 0.389781
O O4 0.190688 0.798235 0.333010
O O5 0.103018 0.019126 0.347149
O O6 0.500000 0.500000 0.112505
O O7 0.612755 0.643263 0.123727
O O8 0.575090 0.500000 0.000000
O O9 0.677758 0.373980 0.548959
O O10 0.260915 0.904762 0.437861
#
# Coordination Sequence:
#
# PCOD9327800 Si02
#       6
#     4  16  16  16   8   8
#     4  12  26  44  74 106 148 188 228 290 372 420
#     4  11  25  42  67 101 141 185 229 290 356 425
#     4  11  26  49  75 101 137 191 245 296 353 422
#     4  11  25  43  67 107 145 182 235 297 352 431
#     4  10  22  34  64  96 134 182 226 280 351 423
#     4  10  22  36  62 103 139 184 224 288 350 416
#
# _framework density 22.306276
#
# number of rings (size 3 to 8) (size 9 to 14) (size 15 to 20)
#    0.000    1.176    0.000    5.294   18.118    0.941 
#    6.353    2.353    0.000    0.000    0.000    0.000 
#    0.000    0.000    0.000    0.000    0.000    0.000 
#
# Total GULP energy -94947.139364 kJ/mol
# GULP energy per Si atom -5585.125845 kJ/mol
# Density = 2.225551 g / cm^3
# Si number density = 22.306276 Si / 1000 Ang^3
#
#
#
# Elastic Constant Matrix: (Units=GPa)
#
#
# Indices 1 2 3 4 5 6 
#
# 1 55.2441 29.8178 7.8132 0.0000 0.0000 0.0000
# 2 29.8178 132.2798 20.8522 0.0000 0.0000 0.0000
# 3 7.8132 20.8522 97.5929 0.0000 0.0000 0.0000
# 4 0.0000 0.0000 0.0000 14.6665 0.0000 0.0000
# 5 0.0000 0.0000 0.0000 0.0000 26.8981 0.0000
# 6 0.0000 0.0000 0.0000 0.0000 0.0000 2.5607
#
#
#
# Elastic Compliance Matrix: (Units=1/GPa)
#
#
# Indices 1 2 3 4 5 6 
#
# 1 0.020653 -0.004548 -0.000682 0.000000 0.000000 0.000000
# 2 -0.004548 0.008825 -0.001521 0.000000 0.000000 0.000000
# 3 -0.000682 -0.001521 0.010626 0.000000 0.000000 0.000000
# 4 0.000000 0.000000 0.000000 0.068183 0.000000 0.000000
# 5 0.000000 0.000000 0.000000 0.000000 0.037177 0.000000
# 6 0.000000 0.000000 0.000000 0.000000 0.000000 0.390515
#
#
# Mechanical properties :
#
#
# Convention : Reuss Voigt Hill
#
# Bulk Modulus (GPa) = 37.59185 44.67592 41.13388
# Shear Modulus (GPa) = 8.95499 23.93396 16.44448
#
# Velocity S-wave (km/s) = 2.00581 3.27918 2.71811
# Velocity P-wave (km/s) = 4.71737 5.86594 5.32272
#
# Compressibility (1/GPa) = 0.02660151
#
# Stress axis : x y z
#
# Youngs Moduli (GPa) = 48.41999 113.31780 94.10614
#
# Poissons Ratio (x) = 0.51536 0.06415
# Poissons Ratio (y) = 0.22021 0.14318
# Poissons Ratio (z) = 0.03301 0.17241
#
# Static dielectric constant tensor:
#      x y z
#    x 1.882520 0.000000 0.000000 
#    y 0.000000 1.868710 0.000000 
#    z 0.000000 0.000000 1.870630 
# 
# From -- ./inp_files/38595.got.cif
#   From: 2010.05.17/outbox.cif.g08.bks.cpg/sg22_20_cif.got.tgz:38595.got - 2010.06.03 23:40:54.
