data_PCOD9327495
_publ_section_title
;
Structure prediction by ZEFSAII (Michael W. Deem and Ramdas Pophale) SiO2 
 PCOD9327495
Probable space group: F 2 2 2
;
_chemical_formula_sum "Si O2"
_cell_formula_units_Z 64
_cell_length_a 15.609768
_cell_length_b 10.516552
_cell_length_c 16.557818
_cell_angle_alpha 90.000000
_cell_angle_beta 90.000000
_cell_angle_gamma 90.000000
_cell_volume 2718.146916
_symmetry_space_group_name_H-M "F 2 2 2"
_symmetry_group_IT_number 22
_symmetry_cell_setting 'orthorhombic'
loop_
_space_group_symop_operation_xyz
x,y,z
-x,-y,z
x,-y,-z
-x,y,-z
x,1/2+y,1/2+z
-x,1/2-y,1/2+z
x,1/2-y,1/2-z
-x,1/2+y,1/2-z
1/2+x,y,1/2+z
1/2-x,-y,1/2+z
1/2+x,-y,1/2-z
1/2-x,y,1/2-z
1/2+x,1/2+y,z
1/2-x,1/2-y,z
1/2+x,1/2-y,-z
1/2-x,1/2+y,-z
loop_
_atom_site_type_symbol
_atom_site_label
_atom_site_fract_x
_atom_site_fract_y
_atom_site_fract_z
Si Si1 0.678913 0.141921 0.910170
Si Si2 0.034682 0.877577 0.132173
Si Si3 0.090322 0.750000 0.750000
Si Si4 0.230903 0.104180 0.844443
Si Si5 0.500000 0.324737 0.500000
O O1 0.750000 0.250000 0.937124
O O2 0.646573 0.191870 0.822077
O O3 0.591000 0.124481 0.962389
O O4 0.723624 0.005447 0.896286
O O5 0.130186 0.909724 0.152566
O O6 0.973660 0.850941 0.208378
O O7 0.000000 0.000000 0.087175
O O8 0.032025 0.756565 0.075573
O O9 0.250000 0.088753 0.750000
O O10 0.250000 0.250000 0.868485
#
# Coordination Sequence:
#
# PCOD9327495 Si02
#       5
#    16  16   8  16   8
#     4  11  22  43  73 106 144 191 245 298 362 437
#     4  11  22  41  67  97 138 185 235 289 353 426
#     4  10  21  38  69 108 140 184 239 294 354 434
#     4  11  23  41  69 104 138 178 232 295 356 422
#     4  10  25  44  67 100 138 188 244 298 356 428
#
# _framework density 23.545452000000001
#
# number of rings (size 3 to 8) (size 9 to 14) (size 15 to 20)
#    0.000    1.250    0.000    8.250    0.000    1.000 
#    0.000    8.750    0.000    6.000    0.000    0.000 
#    0.000    0.000    0.000    0.000    0.000    0.000 
#
# Total GULP energy -89388.725226 kJ/mol
# GULP energy per Si atom -5586.795327 kJ/mol
# Density = 2.349186 g / cm^3
# Si number density = 23.545452 Si / 1000 Ang^3
#
#
#
# Elastic Constant Matrix: (Units=GPa)
#
#
# Indices 1 2 3 4 5 6 
#
# 1 203.1811 87.6137 58.3059 0.0000 0.0000 0.0000
# 2 87.6137 165.4364 37.5346 0.0000 0.0000 0.0000
# 3 58.3059 37.5346 96.1374 0.0000 0.0000 0.0000
# 4 0.0000 0.0000 0.0000 103.6157 0.0000 0.0000
# 5 0.0000 0.0000 0.0000 0.0000 -48.0988 0.0000
# 6 0.0000 0.0000 0.0000 0.0000 0.0000 44.6801
#
#
#
# Elastic Compliance Matrix: (Units=1/GPa)
#
#
# Indices 1 2 3 4 5 6 
#
# 1 0.007147 -0.003074 -0.003134 0.000000 0.000000 0.000000
# 2 -0.003074 0.007954 -0.001241 0.000000 0.000000 0.000000
# 3 -0.003134 -0.001241 0.012787 0.000000 0.000000 0.000000
# 4 0.000000 0.000000 0.000000 0.009651 0.000000 0.000000
# 5 0.000000 0.000000 0.000000 0.000000 -0.020791 0.000000
# 6 0.000000 0.000000 0.000000 0.000000 0.000000 0.022381
#
#
# Mechanical properties :
#
#
# Convention : Reuss Voigt Hill
#
# Bulk Modulus (GPa) = 76.98574 92.40704 84.69639
# Shear Modulus (GPa) = 85.67822 38.79278 62.23550
#
# Velocity S-wave (km/s) = 6.03883 4.06343 5.14679
# Velocity P-wave (km/s) = 9.02169 7.83242 8.44801
#
# Compressibility (1/GPa) = 0.01298942
#
# Stress axis : x y z
#
# Youngs Moduli (GPa) = 139.92848 125.72244 78.20261
#
# Poissons Ratio (x) = 0.38642 0.24510
# Poissons Ratio (y) = 0.43009 0.09708
# Poissons Ratio (z) = 0.43857 0.15607
#
# Static dielectric constant tensor:
#      x y z
#    x 1.765030 0.000000 0.000000 
#    y 0.000000 2.070560 0.000000 
#    z 0.000000 0.000000 1.953240 
# 
# From -- ./inp_files/36850.got.cif
#   From: 2010.05.17/outbox.cif.g08.bks.cpg/sg22_19_cif.got.tgz:36850.got - 2010.06.03 23:40:54.
