data_PCOD9327676
_publ_section_title
;
Structure prediction by ZEFSAII (Michael W. Deem and Ramdas Pophale) SiO2 
 PCOD9327676
Probable space group: F 2 2 2
;
_chemical_formula_sum "Si O2"
_cell_formula_units_Z 52
_cell_length_a 19.394882
_cell_length_b 20.534453
_cell_length_c 5.181289
_cell_angle_alpha 90.000000
_cell_angle_beta 90.000000
_cell_angle_gamma 90.000000
_cell_volume 2063.517218
_symmetry_space_group_name_H-M "F 2 2 2"
_symmetry_group_IT_number 22
_symmetry_cell_setting 'orthorhombic'
loop_
_space_group_symop_operation_xyz
x,y,z
-x,-y,z
x,-y,-z
-x,y,-z
x,1/2+y,1/2+z
-x,1/2-y,1/2+z
x,1/2-y,1/2-z
-x,1/2+y,1/2-z
1/2+x,y,1/2+z
1/2-x,-y,1/2+z
1/2+x,-y,1/2-z
1/2-x,y,1/2-z
1/2+x,1/2+y,z
1/2-x,1/2-y,z
1/2+x,1/2-y,-z
1/2-x,1/2+y,-z
loop_
_atom_site_type_symbol
_atom_site_label
_atom_site_fract_x
_atom_site_fract_y
_atom_site_fract_z
Si Si1 0.500000 0.080833 0.000000
Si Si2 0.347816 0.185813 0.396318
Si Si3 0.644381 0.959674 0.235461
Si Si4 0.000000 0.841353 0.000000
Si Si5 0.250000 0.750000 0.250000
O O1 0.563681 0.047932 0.848060
O O2 0.471799 0.121189 0.755722
O O3 0.322015 0.250000 0.250000
O O4 0.333154 0.115053 0.275911
O O5 0.430203 0.192961 0.415344
O O6 0.306641 0.196068 0.656451
O O7 0.648529 0.000000 0.500000
O O8 0.677944 0.000000 0.000000
#
# Coordination Sequence:
#
# PCOD9327676 Si02
#       5
#     8  16  16   8   4
#     4  10  21  41  69 116 161 201 239 314 397 461
#     4  11  28  48  80 113 155 209 260 322 390 467
#     4  11  24  43  75 114 159 201 257 318 389 463
#     4  10  24  43  80 118 154 195 260 326 374 453
#     4  12  30  52  84 106 160 214 268 320 402 472
#
# _framework density 25.199691999999999
#
# number of rings (size 3 to 8) (size 9 to 14) (size 15 to 20)
#    0.000    1.231    0.000    4.615   15.077    7.385 
#    0.000    0.000    6.769    0.000    0.000    0.000 
#    0.000    0.000    0.000    0.000    0.000    0.000 
#
# Total GULP energy -72421.965556 kJ/mol
# GULP energy per Si atom -5570.920427 kJ/mol
# Density = 2.514234 g / cm^3
# Si number density = 25.199692 Si / 1000 Ang^3
#
#
#
# Elastic Constant Matrix: (Units=GPa)
#
#
# Indices 1 2 3 4 5 6 
#
# 1 133.8480 35.1461 8.5742 0.0031 -0.0157 0.0208
# 2 35.1461 211.2953 83.2635 0.0000 -0.0209 0.0159
# 3 8.5742 83.2635 147.3442 0.0163 -0.0376 0.0226
# 4 0.0031 0.0000 0.0163 105.1435 -0.0418 0.0131
# 5 -0.0157 -0.0209 -0.0376 -0.0418 49.8784 0.0019
# 6 0.0208 0.0159 0.0226 0.0131 0.0019 -18.8797
#
#
#
# Elastic Compliance Matrix: (Units=1/GPa)
#
#
# Indices 1 2 3 4 5 6 
#
# 1 0.007827 -0.001444 0.000361 0.000000 0.000002 0.000008
# 2 -0.001444 0.006355 -0.003507 0.000001 0.000000 0.000000
# 3 0.000361 -0.003507 0.008748 -0.000001 0.000005 0.000008
# 4 0.000000 0.000001 -0.000001 0.009511 0.000008 0.000007
# 5 0.000002 0.000000 0.000005 0.000008 0.020049 0.000002
# 6 0.000008 0.000000 0.000008 0.000007 0.000002 -0.052967
#
#
# Mechanical properties :
#
#
# Convention : Reuss Voigt Hill
#
# Bulk Modulus (GPa) = 72.73434 82.93945 77.83690
# Shear Modulus (GPa) = 376.31620 51.59534 213.95577
#
# Velocity S-wave (km/s) = 12.23347 4.52979 9.22434
# Velocity P-wave (km/s) = 15.11521 7.76808 12.01692
#
# Compressibility (1/GPa) = 0.01374866
#
# Stress axis : x y z
#
# Youngs Moduli (GPa) = 127.75891 157.35816 114.31575
#
# Poissons Ratio (x) = 0.22723 -0.04121
# Poissons Ratio (y) = 0.18449 0.40092
# Poissons Ratio (z) = -0.04606 0.55187
#
# Static dielectric constant tensor:
#      x y z
#    x 1.905490 -0.000010 -0.000010 
#    y -0.000010 2.044090 -0.000150 
#    z -0.000010 -0.000150 2.778860 
# 
# From -- ./inp_files/3332.got.cif
#   From: 2010.05.17/outbox.cif.g08.bks.cpg/sg22_2_cif.got.tgz:3332.got - 2010.06.03 23:40:54.
