data_PCOD9327523
_publ_section_title
;
Structure prediction by ZEFSAII (Michael W. Deem and Ramdas Pophale) SiO2 
 PCOD9327523
Probable space group: F 2 2 2
;
_chemical_formula_sum "Si O2"
_cell_formula_units_Z 64
_cell_length_a 16.704904
_cell_length_b 5.011638
_cell_length_c 36.060332
_cell_angle_alpha 90.000000
_cell_angle_beta 90.000000
_cell_angle_gamma 90.000000
_cell_volume 3018.932471
_symmetry_space_group_name_H-M "F 2 2 2"
_symmetry_group_IT_number 22
_symmetry_cell_setting 'orthorhombic'
loop_
_space_group_symop_operation_xyz
x,y,z
-x,-y,z
x,-y,-z
-x,y,-z
x,1/2+y,1/2+z
-x,1/2-y,1/2+z
x,1/2-y,1/2-z
-x,1/2+y,1/2-z
1/2+x,y,1/2+z
1/2-x,-y,1/2+z
1/2+x,-y,1/2-z
1/2-x,y,1/2-z
1/2+x,1/2+y,z
1/2-x,1/2-y,z
1/2+x,1/2-y,-z
1/2-x,1/2+y,-z
loop_
_atom_site_type_symbol
_atom_site_label
_atom_site_fract_x
_atom_site_fract_y
_atom_site_fract_z
Si Si1 0.838677 0.139504 0.148573
Si Si2 0.691468 0.999792 0.040524
Si Si3 0.911067 0.108123 0.612913
Si Si4 0.907872 0.500560 0.276750
O O1 0.750000 0.250000 0.138504
O O2 0.886792 0.416135 0.146873
O O3 0.846137 0.019561 0.189524
O O4 0.881760 0.910899 0.122872
O O5 0.750000 0.750000 0.040581
O O6 0.635861 0.976177 0.075914
O O7 0.750000 0.250000 0.043560
O O8 0.649815 0.000000 0.000000
O O9 0.000000 0.000000 0.605736
O O10 0.900179 0.250000 0.250000
O O11 0.000000 0.500000 0.292025
O O12 0.897259 0.750000 0.250000
#
# Coordination Sequence:
#
# PCOD9327523 Si02
#       4
#    16  16  16  16
#     4  12  25  42  64  92 127 168 214 267 325 389
#     4  10  21  39  63  90 124 165 206 253 314 382
#     4  12  24  40  64  93 127 166 214 268 322 384
#     4  10  21  39  63  89 120 159 205 260 322 387
#
# _framework density 21.199549000000001
#
# number of rings (size 3 to 8) (size 9 to 14) (size 15 to 20)
#    0.000    1.000    0.000    8.250    0.000    3.000 
#    0.000    1.250    0.000    7.500    0.000    0.000 
#    0.000    0.000    0.000    0.000    0.000    0.000 
#
# Total GULP energy -89244.157049 kJ/mol
# GULP energy per Si atom -5577.759816 kJ/mol
# Density = 2.115130 g / cm^3
# Si number density = 21.199549 Si / 1000 Ang^3
#
#
#
# Elastic Constant Matrix: (Units=GPa)
#
#
# Indices 1 2 3 4 5 6 
#
# 1 90.0888 35.1209 33.0508 0.0000 0.0000 0.0000
# 2 35.1209 163.3196 16.7221 0.0000 0.0000 0.0000
# 3 33.0508 16.7221 84.6076 0.0000 0.0000 0.0000
# 4 0.0000 0.0000 0.0000 20.4778 0.0000 0.0000
# 5 0.0000 0.0000 0.0000 0.0000 16.6222 0.0000
# 6 0.0000 0.0000 0.0000 0.0000 0.0000 27.1211
#
#
#
# Elastic Compliance Matrix: (Units=1/GPa)
#
#
# Indices 1 2 3 4 5 6 
#
# 1 0.013875 -0.002479 -0.004930 0.000000 0.000000 0.000000
# 2 -0.002479 0.006692 -0.000354 0.000000 0.000000 0.000000
# 3 -0.004930 -0.000354 0.013815 0.000000 0.000000 0.000000
# 4 0.000000 0.000000 0.000000 0.048833 0.000000 0.000000
# 5 0.000000 0.000000 0.000000 0.000000 0.060161 0.000000
# 6 0.000000 0.000000 0.000000 0.000000 0.000000 0.036872
#
#
# Mechanical properties :
#
#
# Convention : Reuss Voigt Hill
#
# Bulk Modulus (GPa) = 53.03414 56.42263 54.72839
# Shear Modulus (GPa) = 24.74502 29.71904 27.23203
#
# Velocity S-wave (km/s) = 3.42020 3.74822 3.58796
# Velocity P-wave (km/s) = 6.37714 6.73832 6.56022
#
# Compressibility (1/GPa) = 0.01885578
#
# Stress axis : x y z
#
# Youngs Moduli (GPa) = 72.07028 149.42468 72.38388
#
# Poissons Ratio (x) = 0.37042 0.35687
# Poissons Ratio (y) = 0.17866 0.02565
# Poissons Ratio (z) = 0.35532 0.05294
#
# Static dielectric constant tensor:
#      x y z
#    x 1.913980 0.000000 0.000000 
#    y 0.000000 1.747090 0.000000 
#    z 0.000000 0.000000 1.772310 
# 
# From -- ./inp_files/56647.got.cif
#   From: 2010.05.17/outbox.cif.g08.bks.cpg/sg22_29_cif.got.tgz:56647.got - 2010.06.03 23:40:54.
