data_PCOD9327371
_publ_section_title
;
Structure prediction by ZEFSAII (Michael W. Deem and Ramdas Pophale) SiO2 
 PCOD9327371
Probable space group: F 2 2 2
;
_chemical_formula_sum "Si O2"
_cell_formula_units_Z 88
_cell_length_a 20.876612
_cell_length_b 12.118691
_cell_length_c 16.530721
_cell_angle_alpha 90.000000
_cell_angle_beta 90.000000
_cell_angle_gamma 90.000000
_cell_volume 4182.226292
_symmetry_space_group_name_H-M "F 2 2 2"
_symmetry_group_IT_number 22
_symmetry_cell_setting 'orthorhombic'
loop_
_space_group_symop_operation_xyz
x,y,z
-x,-y,z
x,-y,-z
-x,y,-z
x,1/2+y,1/2+z
-x,1/2-y,1/2+z
x,1/2-y,1/2-z
-x,1/2+y,1/2-z
1/2+x,y,1/2+z
1/2-x,-y,1/2+z
1/2+x,-y,1/2-z
1/2-x,y,1/2-z
1/2+x,1/2+y,z
1/2-x,1/2-y,z
1/2+x,1/2-y,-z
1/2-x,1/2+y,-z
loop_
_atom_site_type_symbol
_atom_site_label
_atom_site_fract_x
_atom_site_fract_y
_atom_site_fract_z
Si Si1 0.222463 0.623407 0.142524
Si Si2 0.013782 0.250000 0.750000
Si Si3 0.894359 0.193743 0.672895
Si Si4 0.393368 0.046293 0.755555
Si Si5 0.854414 0.062678 0.082454
Si Si6 0.824958 0.717583 0.003447
O O1 0.250000 0.750000 0.153645
O O2 0.177081 0.588360 0.215580
O O3 0.282426 0.548612 0.117734
O O4 0.179326 0.619669 0.061205
O O5 0.057772 0.145913 0.731153
O O6 0.962651 0.257259 0.676278
O O7 0.858083 0.250000 0.750000
O O8 0.859191 0.202485 0.588173
O O9 0.906047 0.066738 0.697575
O O10 0.396004 0.029350 0.658922
O O11 0.858019 0.188346 0.051854
O O12 0.864905 0.000000 0.000000
O O13 0.750000 0.750000 0.018658
#
# Coordination Sequence:
#
# PCOD9327371 Si02
#       6
#    16   8  16  16  16  16
#     4   9  21  37  62  96 130 158 212 257 327 399
#     4  10  24  44  64  86 130 164 240 278 316 382
#     4  10  24  41  64  90 131 168 225 271 335 382
#     4  12  22  41  70  91 125 182 216 271 332 392
#     4  10  21  36  61  96 131 160 205 261 322 404
#     4   9  20  39  60  90 138 164 202 272 332 398
#
# _framework density 21.041423999999999
#
# number of rings (size 3 to 8) (size 9 to 14) (size 15 to 20)
#    0.545    1.818    0.000    4.364    5.091    3.273 
#    3.273    3.636    0.000    4.364    0.000    0.000 
#    0.000    0.000    0.000    0.000    0.000    0.000 
#
# Total GULP energy -122534.016951 kJ/mol
# GULP energy per Si atom -5569.728043 kJ/mol
# Density = 2.099353 g / cm^3
# Si number density = 21.041424 Si / 1000 Ang^3
#
#
#
# Elastic Constant Matrix: (Units=GPa)
#
#
# Indices 1 2 3 4 5 6 
#
# 1 30.1684 8.6027 24.1410 0.0000 0.0000 0.0000
# 2 8.6027 57.9986 13.1566 0.0000 0.0000 0.0000
# 3 24.1410 13.1566 164.0876 0.0000 0.0000 0.0000
# 4 0.0000 0.0000 0.0000 28.7129 0.0000 0.0000
# 5 0.0000 0.0000 0.0000 0.0000 40.5130 0.0000
# 6 0.0000 0.0000 0.0000 0.0000 0.0000 16.0659
#
#
#
# Elastic Compliance Matrix: (Units=1/GPa)
#
#
# Indices 1 2 3 4 5 6 
#
# 1 0.038706 -0.004532 -0.005331 0.000000 0.000000 0.000000
# 2 -0.004532 0.018092 -0.000784 0.000000 0.000000 0.000000
# 3 -0.005331 -0.000784 0.006941 0.000000 0.000000 0.000000
# 4 0.000000 0.000000 0.000000 0.034828 0.000000 0.000000
# 5 0.000000 0.000000 0.000000 0.000000 0.024683 0.000000
# 6 0.000000 0.000000 0.000000 0.000000 0.000000 0.062244
#
#
# Mechanical properties :
#
#
# Convention : Reuss Voigt Hill
#
# Bulk Modulus (GPa) = 23.55971 38.22836 30.89404
# Shear Modulus (GPa) = 22.63107 30.81533 26.72320
#
# Velocity S-wave (km/s) = 3.28311 3.83104 3.56761
# Velocity P-wave (km/s) = 5.05894 6.14628 5.62893
#
# Compressibility (1/GPa) = 0.04244534
#
# Stress axis : x y z
#
# Youngs Moduli (GPa) = 25.83612 55.27372 144.06139
#
# Poissons Ratio (x) = 0.25049 0.76801
# Poissons Ratio (y) = 0.11708 0.11293
# Poissons Ratio (z) = 0.13774 0.04333
#
# Static dielectric constant tensor:
#      x y z
#    x 1.790960 0.000000 0.000000 
#    y 0.000000 1.421580 0.000000 
#    z 0.000000 0.000000 1.805210 
# 
# From -- ./inp_files/32428.got.cif
#   From: 2010.05.17/outbox.cif.g08.bks.cpg/sg22_17_cif.got.tgz:32428.got - 2010.06.03 23:40:54.
