data_PCOD9327904
_publ_section_title
;
Structure prediction by ZEFSAII (Michael W. Deem and Ramdas Pophale) SiO2 
 PCOD9327904
Probable space group: F 2 2 2
;
_chemical_formula_sum "Si O2"
_cell_formula_units_Z 72
_cell_length_a 18.164187
_cell_length_b 10.229641
_cell_length_c 18.915182
_cell_angle_alpha 90.000000
_cell_angle_beta 90.000000
_cell_angle_gamma 90.000000
_cell_volume 3514.688833
_symmetry_space_group_name_H-M "F 2 2 2"
_symmetry_group_IT_number 22
_symmetry_cell_setting 'orthorhombic'
loop_
_space_group_symop_operation_xyz
x,y,z
-x,-y,z
x,-y,-z
-x,y,-z
x,1/2+y,1/2+z
-x,1/2-y,1/2+z
x,1/2-y,1/2-z
-x,1/2+y,1/2-z
1/2+x,y,1/2+z
1/2-x,-y,1/2+z
1/2+x,-y,1/2-z
1/2-x,y,1/2-z
1/2+x,1/2+y,z
1/2-x,1/2-y,z
1/2+x,1/2-y,-z
1/2-x,1/2+y,-z
loop_
_atom_site_type_symbol
_atom_site_label
_atom_site_fract_x
_atom_site_fract_y
_atom_site_fract_z
Si Si1 0.000000 0.687665 0.000000
Si Si2 0.135654 0.643614 0.478054
Si Si3 0.500000 0.500000 0.623971
Si Si4 0.224557 0.969194 0.150916
Si Si5 0.630166 0.393631 0.277462
Si Si6 0.250000 0.250000 0.410558
O O1 0.064729 0.770202 0.035828
O O2 0.969914 0.604810 0.066556
O O3 0.108263 0.500000 0.500000
O O4 0.190886 0.606285 0.415495
O O5 0.181175 0.718837 0.538473
O O6 0.565291 0.548582 0.674891
O O7 0.294907 0.888989 0.177397
O O8 0.159450 0.974834 0.209334
O O9 0.253660 0.115324 0.133515
O O10 0.609825 0.250000 0.250000
#
# Coordination Sequence:
#
# PCOD9327904 Si02
#       6
#     8  16   8  16  16   8
#     4  11  23  42  68  94 133 161 222 274 332 391
#     4  10  22  40  67  99 131 169 211 272 326 383
#     4  11  26  44  64  98 127 178 212 280 331 390
#     4  10  22  42  68  97 128 174 220 266 325 383
#     4  11  24  44  66  92 130 175 221 266 324 399
#     4  10  22  39  66 103 128 166 214 276 316 382
#
# _framework density 20.485454000000001
#
# number of rings (size 3 to 8) (size 9 to 14) (size 15 to 20)
#    0.000    1.556    0.000    4.333    6.222    1.778 
#   20.000    0.000    0.000    0.000    0.000    0.000 
#    0.000    0.000    0.000    0.000    0.000    0.000 
#
# Total GULP energy -100415.087442 kJ/mol
# GULP energy per Si atom -5578.615969 kJ/mol
# Density = 2.043883 g / cm^3
# Si number density = 20.485454 Si / 1000 Ang^3
#
#
#
# Elastic Constant Matrix: (Units=GPa)
#
#
# Indices 1 2 3 4 5 6 
#
# 1 75.5858 52.4893 38.5016 0.0000 0.0000 0.0000
# 2 52.4893 129.6434 66.4832 0.0000 0.0000 0.0000
# 3 38.5016 66.4832 102.0538 0.0000 0.0000 0.0000
# 4 0.0000 0.0000 0.0000 25.2427 0.0000 0.0000
# 5 0.0000 0.0000 0.0000 0.0000 21.8968 0.0000
# 6 0.0000 0.0000 0.0000 0.0000 0.0000 20.4854
#
#
#
# Elastic Compliance Matrix: (Units=1/GPa)
#
#
# Indices 1 2 3 4 5 6 
#
# 1 0.019099 -0.006063 -0.003256 0.000000 0.000000 0.000000
# 2 -0.006063 0.013508 -0.006512 0.000000 0.000000 0.000000
# 3 -0.003256 -0.006512 0.015269 0.000000 0.000000 0.000000
# 4 0.000000 0.000000 0.000000 0.039615 0.000000 0.000000
# 5 0.000000 0.000000 0.000000 0.000000 0.045669 0.000000
# 6 0.000000 0.000000 0.000000 0.000000 0.000000 0.048815
#
#
# Mechanical properties :
#
#
# Convention : Reuss Voigt Hill
#
# Bulk Modulus (GPa) = 61.67458 69.13681 65.40570
# Shear Modulus (GPa) = 22.82665 23.51222 23.16944
#
# Velocity S-wave (km/s) = 3.34171 3.39152 3.36671
# Velocity P-wave (km/s) = 6.71277 7.01135 6.86369
#
# Compressibility (1/GPa) = 0.01621413
#
# Stress axis : x y z
#
# Youngs Moduli (GPa) = 52.35956 74.03071 65.49031
#
# Poissons Ratio (x) = 0.44886 0.21320
# Poissons Ratio (y) = 0.31746 0.42650
# Poissons Ratio (z) = 0.17046 0.48211
#
# Static dielectric constant tensor:
#      x y z
#    x 1.691760 0.000000 0.000000 
#    y 0.000000 1.779850 0.000000 
#    z 0.000000 0.000000 1.783590 
# 
# From -- ./inp_files/37791.got.cif
#   From: 2010.05.17/outbox.cif.g08.bks.cpg/sg22_19_cif.got.tgz:37791.got - 2010.06.03 23:40:54.
