data_PCOD9327921
_publ_section_title
;
Structure prediction by ZEFSAII (Michael W. Deem and Ramdas Pophale) SiO2 
 PCOD9327921
Probable space group: F 2 2 2
;
_chemical_formula_sum "Si O2"
_cell_formula_units_Z 64
_cell_length_a 27.106454
_cell_length_b 8.817493
_cell_length_c 11.297979
_cell_angle_alpha 90.000000
_cell_angle_beta 90.000000
_cell_angle_gamma 90.000000
_cell_volume 2700.340902
_symmetry_space_group_name_H-M "F 2 2 2"
_symmetry_group_IT_number 22
_symmetry_cell_setting 'orthorhombic'
loop_
_space_group_symop_operation_xyz
x,y,z
-x,-y,z
x,-y,-z
-x,y,-z
x,1/2+y,1/2+z
-x,1/2-y,1/2+z
x,1/2-y,1/2-z
-x,1/2+y,1/2-z
1/2+x,y,1/2+z
1/2-x,-y,1/2+z
1/2+x,-y,1/2-z
1/2-x,y,1/2-z
1/2+x,1/2+y,z
1/2-x,1/2-y,z
1/2+x,1/2-y,-z
1/2-x,1/2+y,-z
loop_
_atom_site_type_symbol
_atom_site_label
_atom_site_fract_x
_atom_site_fract_y
_atom_site_fract_z
Si Si1 0.039425 0.371638 0.652142
Si Si2 0.374006 0.924674 0.755440
Si Si3 0.207528 0.859939 0.930570
Si Si4 0.368089 0.801775 0.109840
O O1 0.019673 0.250000 0.750000
O O2 0.080537 0.483010 0.704436
O O3 0.076597 0.261881 0.575446
O O4 0.000000 0.500000 0.615139
O O5 0.387924 0.750000 0.750000
O O6 0.325606 0.926222 0.674118
O O7 0.364564 0.016674 0.875569
O O8 0.250000 0.750000 0.888685
O O9 0.170659 0.773844 0.021577
O O10 0.230740 0.000000 0.000000
O O11 0.358894 0.750000 0.250000
#
# Coordination Sequence:
#
# PCOD9327921 Si02
#       4
#    16  16  16  16
#     4   9  17  34  64  94 125 168 209 258 330 397
#     4  10  22  40  61  92 129 166 213 268 327 392
#     4  12  25  43  62  91 125 171 226 275 331 388
#     4   9  20  41  62  87 130 165 207 271 329 385
#
# _framework density 23.700711999999999
#
# number of rings (size 3 to 8) (size 9 to 14) (size 15 to 20)
#    0.000    2.500    5.000    0.750    3.500    1.000 
#    0.000    2.500    0.000    0.000    0.000   10.500 
#    0.000    0.000    0.000    0.000    0.000    0.000 
#
# Total GULP energy -89089.793332 kJ/mol
# GULP energy per Si atom -5568.112083 kJ/mol
# Density = 2.364677 g / cm^3
# Si number density = 23.700712 Si / 1000 Ang^3
#
#
#
# Elastic Constant Matrix: (Units=GPa)
#
#
# Indices 1 2 3 4 5 6 
#
# 1 99.4120 41.6358 68.7440 0.0000 0.0000 0.0000
# 2 41.6358 206.0563 48.7585 0.0000 0.0000 0.0000
# 3 68.7440 48.7585 90.8261 0.0000 0.0000 0.0000
# 4 0.0000 0.0000 0.0000 13.6482 0.0000 0.0000
# 5 0.0000 0.0000 0.0000 0.0000 0.7258 0.0000
# 6 0.0000 0.0000 0.0000 0.0000 0.0000 32.2536
#
#
#
# Elastic Compliance Matrix: (Units=1/GPa)
#
#
# Indices 1 2 3 4 5 6 
#
# 1 0.021161 -0.000557 -0.015717 0.000000 0.000000 0.000000
# 2 -0.000557 0.005574 -0.002571 0.000000 0.000000 0.000000
# 3 -0.015717 -0.002571 0.024286 0.000000 0.000000 0.000000
# 4 0.000000 0.000000 0.000000 0.073270 0.000000 0.000000
# 5 0.000000 0.000000 0.000000 0.000000 1.377852 0.000000
# 6 0.000000 0.000000 0.000000 0.000000 0.000000 0.031004
#
#
# Mechanical properties :
#
#
# Convention : Reuss Voigt Hill
#
# Bulk Modulus (GPa) = 75.01181 79.39675 77.20428
# Shear Modulus (GPa) = 3.17404 25.13593 14.15498
#
# Velocity S-wave (km/s) = 1.15850 3.26015 2.44650
# Velocity P-wave (km/s) = 5.78859 6.90970 6.37384
#
# Compressibility (1/GPa) = 0.01333123
#
# Stress axis : x y z
#
# Youngs Moduli (GPa) = 47.25697 179.40858 41.17555
#
# Poissons Ratio (x) = 0.09986 0.64717
# Poissons Ratio (y) = 0.02630 0.10586
# Poissons Ratio (z) = 0.74275 0.46125
#
# Static dielectric constant tensor:
#      x y z
#    x 1.885770 0.000000 0.000000 
#    y 0.000000 2.067600 0.000000 
#    z 0.000000 0.000000 1.994230 
# 
# From -- ./inp_files/25025.got.cif
#   From: 2010.05.17/outbox.cif.g08.bks.cpg/sg22_13_cif.got.tgz:25025.got - 2010.06.03 23:40:54.
