data_PCOD9327743
_publ_section_title
;
Structure prediction by ZEFSAII (Michael W. Deem and Ramdas Pophale) SiO2 
 PCOD9327743
Probable space group: F 2 2 2
;
_chemical_formula_sum "Si O2"
_cell_formula_units_Z 48
_cell_length_a 27.388137
_cell_length_b 7.028300
_cell_length_c 13.350965
_cell_angle_alpha 90.000000
_cell_angle_beta 90.000000
_cell_angle_gamma 90.000000
_cell_volume 2569.954533
_symmetry_space_group_name_H-M "F 2 2 2"
_symmetry_group_IT_number 22
_symmetry_cell_setting 'orthorhombic'
loop_
_space_group_symop_operation_xyz
x,y,z
-x,-y,z
x,-y,-z
-x,y,-z
x,1/2+y,1/2+z
-x,1/2-y,1/2+z
x,1/2-y,1/2-z
-x,1/2+y,1/2-z
1/2+x,y,1/2+z
1/2-x,-y,1/2+z
1/2+x,-y,1/2-z
1/2-x,y,1/2-z
1/2+x,1/2+y,z
1/2-x,1/2-y,z
1/2+x,1/2-y,-z
1/2-x,1/2+y,-z
loop_
_atom_site_type_symbol
_atom_site_label
_atom_site_fract_x
_atom_site_fract_y
_atom_site_fract_z
Si Si1 0.448391 0.930372 0.690792
Si Si2 0.126023 0.750000 0.250000
Si Si3 0.708566 0.418974 0.388250
Si Si4 0.250000 0.250000 0.250000
Si Si5 0.500000 0.000000 0.500000
O O1 0.430114 0.750000 0.750000
O O2 0.500000 0.000000 0.738461
O O3 0.408940 0.093753 0.700274
O O4 0.465162 0.887751 0.576846
O O5 0.160640 0.667943 0.163098
O O6 0.702713 0.500000 0.500000
O O7 0.750000 0.250000 0.385521
O O8 0.721682 0.602767 0.321148
#
# Coordination Sequence:
#
# PCOD9327743 Si02
#       5
#    16   8  16   4   4
#     4  10  21  43  66  93 136 180 223 286 337 400
#     4  12  25  42  67 110 134 173 247 274 342 426
#     4  12  26  46  71 102 138 185 234 291 357 415
#     4  12  22  48  70  88 140 182 218 304 348 400
#     4   8  20  44  66  90 132 182 228 272 334 410
#
# _framework density 18.677375000000001
#
# number of rings (size 3 to 8) (size 9 to 14) (size 15 to 20)
#    1.000    0.000    6.667    0.000    2.333    2.667 
#    3.000    5.833    0.000    0.000    0.000    0.000 
#    0.000    0.000    0.000    0.000    0.000    0.000 
#
# Total GULP energy -66844.049418 kJ/mol
# GULP energy per Si atom -5570.337451 kJ/mol
# Density = 1.863486 g / cm^3
# Si number density = 18.677375 Si / 1000 Ang^3
#
#
#
# Elastic Constant Matrix: (Units=GPa)
#
#
# Indices 1 2 3 4 5 6 
#
# 1 132.7149 74.5999 60.7709 0.0000 0.0000 0.0000
# 2 74.5999 142.2872 73.4346 0.0000 0.0000 0.0000
# 3 60.7709 73.4346 162.5605 0.0000 0.0000 0.0000
# 4 0.0000 0.0000 0.0000 38.5685 0.0000 0.0000
# 5 0.0000 0.0000 0.0000 0.0000 -25.5244 0.0000
# 6 0.0000 0.0000 0.0000 0.0000 0.0000 13.0287
#
#
#
# Elastic Compliance Matrix: (Units=1/GPa)
#
#
# Indices 1 2 3 4 5 6 
#
# 1 0.011158 -0.004821 -0.001993 0.000000 0.000000 0.000000
# 2 -0.004821 0.011248 -0.003279 0.000000 0.000000 0.000000
# 3 -0.001993 -0.003279 0.008378 0.000000 0.000000 0.000000
# 4 0.000000 0.000000 0.000000 0.025928 0.000000 0.000000
# 5 0.000000 0.000000 0.000000 0.000000 -0.039178 0.000000
# 6 0.000000 0.000000 0.000000 0.000000 0.000000 0.076753
#
#
# Mechanical properties :
#
#
# Convention : Reuss Voigt Hill
#
# Bulk Modulus (GPa) = 94.36563 95.01927 94.69245
# Shear Modulus (GPa) = 42.37099 20.46504 31.41801
#
# Velocity S-wave (km/s) = 4.76812 3.31375 4.10584
# Velocity P-wave (km/s) = 8.99706 8.10097 8.56074
#
# Compressibility (1/GPa) = 0.01059708
#
# Stress axis : x y z
#
# Youngs Moduli (GPa) = 89.62450 88.90545 119.36237
#
# Poissons Ratio (x) = 0.42863 0.23792
# Poissons Ratio (y) = 0.43209 0.39136
# Poissons Ratio (z) = 0.17864 0.29150
#
# Static dielectric constant tensor:
#      x y z
#    x 1.655300 0.000000 0.000000 
#    y 0.000000 1.530500 0.000000 
#    z 0.000000 0.000000 1.660720 
# 
# From -- ./inp_files/13260.got.cif
#   From: 2010.05.17/outbox.cif.g08.bks.cpg/sg22_7_cif.got.tgz:13260.got - 2010.06.03 23:40:54.
