data_PCOD9327752
_publ_section_title
;
Structure prediction by ZEFSAII (Michael W. Deem and Ramdas Pophale) SiO2 
 PCOD9327752
Probable space group: F 2 2 2
;
_chemical_formula_sum "Si O2"
_cell_formula_units_Z 96
_cell_length_a 14.075840
_cell_length_b 14.834182
_cell_length_c 21.267882
_cell_angle_alpha 90.000000
_cell_angle_beta 90.000000
_cell_angle_gamma 90.000000
_cell_volume 4440.809738
_symmetry_space_group_name_H-M "F 2 2 2"
_symmetry_group_IT_number 22
_symmetry_cell_setting 'orthorhombic'
loop_
_space_group_symop_operation_xyz
x,y,z
-x,-y,z
x,-y,-z
-x,y,-z
x,1/2+y,1/2+z
-x,1/2-y,1/2+z
x,1/2-y,1/2-z
-x,1/2+y,1/2-z
1/2+x,y,1/2+z
1/2-x,-y,1/2+z
1/2+x,-y,1/2-z
1/2-x,y,1/2-z
1/2+x,1/2+y,z
1/2-x,1/2-y,z
1/2+x,1/2-y,-z
1/2-x,1/2+y,-z
loop_
_atom_site_type_symbol
_atom_site_label
_atom_site_fract_x
_atom_site_fract_y
_atom_site_fract_z
Si Si1 0.050238 0.904204 0.432564
Si Si2 0.642180 0.132804 0.741104
Si Si3 0.395490 0.340508 0.034452
Si Si4 0.112980 0.503386 0.635221
Si Si5 0.435056 0.781465 0.853442
Si Si6 0.261818 0.349179 0.917295
O O1 0.164357 0.902420 0.433737
O O2 0.000000 0.882417 0.500000
O O3 0.028857 0.824099 0.383049
O O4 0.000000 0.000000 0.415499
O O5 0.750000 0.162726 0.750000
O O6 0.646163 0.042491 0.701634
O O7 0.604340 0.136417 0.811730
O O8 0.578625 0.198686 0.695848
O O9 0.373096 0.428963 0.076178
O O10 0.387099 0.258605 0.084077
O O11 0.500000 0.345803 0.000000
O O12 0.318684 0.331100 0.981166
O O13 0.167816 0.412081 0.622178
O O14 0.000000 0.500000 0.639518
O O15 0.250000 0.250000 0.887774
#
# Coordination Sequence:
#
# PCOD9327752 Si02
#       6
#    16  16  16  16  16  16
#     4  11  27  42  64 105 156 190 225 289 388 443
#     4  10  24  43  73 105 132 184 263 307 355 417
#     4  11  22  41  75 111 145 186 245 311 377 439
#     4  11  25  44  74 106 151 192 251 314 368 447
#     4  10  21  43  70 102 141 182 240 307 358 420
#     4  12  26  43  71 107 150 195 240 295 381 464
#
# _framework density 21.617678999999999
#
# number of rings (size 3 to 8) (size 9 to 14) (size 15 to 20)
#    0.000    1.167    1.667    4.000    9.333    6.000 
#    0.000    0.000    0.000    0.500    0.000    0.000 
#    0.000    0.000    0.000    0.000    0.000    0.000 
#
# Total GULP energy -133732.940931 kJ/mol
# GULP energy per Si atom -5572.205872 kJ/mol
# Density = 2.156848 g / cm^3
# Si number density = 21.617679 Si / 1000 Ang^3
#
#
#
# Elastic Constant Matrix: (Units=GPa)
#
#
# Indices 1 2 3 4 5 6 
#
# 1 133.2188 51.8957 34.4623 0.0000 0.0000 0.0000
# 2 51.8957 128.8326 63.4513 0.0000 0.0000 0.0000
# 3 34.4623 63.4513 92.3637 0.0000 0.0000 0.0000
# 4 0.0000 0.0000 0.0000 36.0343 0.0000 0.0000
# 5 0.0000 0.0000 0.0000 0.0000 8.3808 0.0000
# 6 0.0000 0.0000 0.0000 0.0000 0.0000 35.9274
#
#
#
# Elastic Compliance Matrix: (Units=1/GPa)
#
#
# Indices 1 2 3 4 5 6 
#
# 1 0.009008 -0.002982 -0.001312 0.000000 0.000000 0.000000
# 2 -0.002982 0.012718 -0.007625 0.000000 0.000000 0.000000
# 3 -0.001312 -0.007625 0.016554 0.000000 0.000000 0.000000
# 4 0.000000 0.000000 0.000000 0.027751 0.000000 0.000000
# 5 0.000000 0.000000 0.000000 0.000000 0.119320 0.000000
# 6 0.000000 0.000000 0.000000 0.000000 0.000000 0.027834
#
#
# Mechanical properties :
#
#
# Convention : Reuss Voigt Hill
#
# Bulk Modulus (GPa) = 69.24025 72.67044 70.95534
# Shear Modulus (GPa) = 20.67507 29.70890 25.19199
#
# Velocity S-wave (km/s) = 3.09592 3.71116 3.41741
# Velocity P-wave (km/s) = 6.69915 7.21476 6.96173
#
# Compressibility (1/GPa) = 0.01444247
#
# Stress axis : x y z
#
# Youngs Moduli (GPa) = 111.01743 78.62624 60.40758
#
# Poissons Ratio (x) = 0.23447 0.07927
# Poissons Ratio (y) = 0.33107 0.46058
# Poissons Ratio (z) = 0.14568 0.59949
#
# Static dielectric constant tensor:
#      x y z
#    x 1.862290 0.000000 0.000000 
#    y 0.000000 1.996500 0.000000 
#    z 0.000000 0.000000 1.676260 
# 
# From -- ./inp_files/43477.got.cif
#   From: 2010.05.17/outbox.cif.g08.bks.cpg/sg22_22_cif.got.tgz:43477.got - 2010.06.03 23:40:54.
