data_PCOD9327961
_publ_section_title
;
Structure prediction by ZEFSAII (Michael W. Deem and Ramdas Pophale) SiO2 
 PCOD9327961
Probable space group: F 2 2 2
;
_chemical_formula_sum "Si O2"
_cell_formula_units_Z 96
_cell_length_a 14.365661
_cell_length_b 14.996892
_cell_length_c 18.718708
_cell_angle_alpha 90.000000
_cell_angle_beta 90.000000
_cell_angle_gamma 90.000000
_cell_volume 4032.763441
_symmetry_space_group_name_H-M "F 2 2 2"
_symmetry_group_IT_number 22
_symmetry_cell_setting 'orthorhombic'
loop_
_space_group_symop_operation_xyz
x,y,z
-x,-y,z
x,-y,-z
-x,y,-z
x,1/2+y,1/2+z
-x,1/2-y,1/2+z
x,1/2-y,1/2-z
-x,1/2+y,1/2-z
1/2+x,y,1/2+z
1/2-x,-y,1/2+z
1/2+x,-y,1/2-z
1/2-x,y,1/2-z
1/2+x,1/2+y,z
1/2-x,1/2-y,z
1/2+x,1/2-y,-z
1/2-x,1/2+y,-z
loop_
_atom_site_type_symbol
_atom_site_label
_atom_site_fract_x
_atom_site_fract_y
_atom_site_fract_z
Si Si1 0.142365 0.252065 0.104489
Si Si2 0.847828 0.700839 0.843563
Si Si3 0.904147 0.676394 0.536291
Si Si4 0.532426 0.654556 0.285220
Si Si5 0.255314 0.956398 0.072219
Si Si6 0.329435 0.087010 0.308816
O O1 0.250000 0.250000 0.126522
O O2 0.081887 0.331410 0.137629
O O3 0.120172 0.154389 0.135323
O O4 0.136630 0.248278 0.019751
O O5 0.750000 0.750000 0.824465
O O6 0.906609 0.774093 0.887950
O O7 0.820103 0.618858 0.893727
O O8 0.920735 0.659766 0.787194
O O9 0.835851 0.594524 0.543680
O O10 0.000000 0.650636 0.500000
O O11 0.562329 0.750000 0.250000
O O12 0.582639 0.573937 0.244603
O O13 0.221313 0.018146 0.138238
O O14 0.296042 0.000000 0.000000
O O15 0.250000 0.115723 0.250000
#
# Coordination Sequence:
#
# PCOD9327961 Si02
#       6
#    16  16  16  16  16  16
#     4  11  19  37  70 102 136 175 235 303 348 424
#     4  10  23  45  70 101 138 192 244 295 365 435
#     4  11  22  41  73 104 131 181 249 309 361 428
#     4  10  22  40  70 103 131 180 245 294 355 425
#     4  11  24  45  68 103 146 193 234 299 380 440
#     4  11  23  42  68 101 147 191 232 297 377 441
#
# _framework density 23.805015000000001
#
# number of rings (size 3 to 8) (size 9 to 14) (size 15 to 20)
#    0.000    1.333    5.000    1.500    0.000    0.667 
#    6.000    2.500    0.000    0.000    0.000    0.000 
#    0.000    0.000    0.000    0.000    0.000    0.000 
#
# Total GULP energy -133708.455978 kJ/mol
# GULP energy per Si atom -5571.185666 kJ/mol
# Density = 2.375083 g / cm^3
# Si number density = 23.805015 Si / 1000 Ang^3
#
#
#
# Elastic Constant Matrix: (Units=GPa)
#
#
# Indices 1 2 3 4 5 6 
#
# 1 108.8550 -11.5719 20.4599 0.0000 0.0000 0.0000
# 2 -11.5719 32.2938 24.8848 0.0000 0.0000 0.0000
# 3 20.4599 24.8848 115.7983 0.0000 0.0000 0.0000
# 4 0.0000 0.0000 0.0000 237.2192 0.0000 0.0000
# 5 0.0000 0.0000 0.0000 0.0000 18.6015 0.0000
# 6 0.0000 0.0000 0.0000 0.0000 0.0000 17.7502
#
#
#
# Elastic Compliance Matrix: (Units=1/GPa)
#
#
# Indices 1 2 3 4 5 6 
#
# 1 0.010441 0.006187 -0.003174 0.000000 0.000000 0.000000
# 2 0.006187 0.040778 -0.009856 0.000000 0.000000 0.000000
# 3 -0.003174 -0.009856 0.011315 0.000000 0.000000 0.000000
# 4 0.000000 0.000000 0.000000 0.004216 0.000000 0.000000
# 5 0.000000 0.000000 0.000000 0.000000 0.053759 0.000000
# 6 0.000000 0.000000 0.000000 0.000000 0.000000 0.056337
#
#
# Mechanical properties :
#
#
# Convention : Reuss Voigt Hill
#
# Bulk Modulus (GPa) = 20.47214 36.05476 28.26345
# Shear Modulus (GPa) = 24.17627 69.59246 46.88437
#
# Velocity S-wave (km/s) = 3.19030 5.41275 4.44274
# Velocity P-wave (km/s) = 4.71055 7.36495 6.18190
#
# Compressibility (1/GPa) = 0.04884688
#
# Stress axis : x y z
#
# Youngs Moduli (GPa) = 95.77676 24.52315 88.38083
#
# Poissons Ratio (x) = -0.15174 0.28056
# Poissons Ratio (y) = -0.59261 0.87111
# Poissons Ratio (z) = 0.30404 0.24171
#
# Static dielectric constant tensor:
#      x y z
#    x 1.619960 0.000000 0.000000 
#    y 0.000000 1.969420 0.000000 
#    z 0.000000 0.000000 2.057370 
# 
# From -- ./inp_files/43464.got.cif
#   From: 2010.05.17/outbox.cif.g08.bks.cpg/sg22_22_cif.got.tgz:43464.got - 2010.06.03 23:40:54.
