data_PCOD9327035
_publ_section_title
;
Structure prediction by ZEFSAII (Michael W. Deem and Ramdas Pophale) SiO2 
 PCOD9327035
Probable space group: F 2 2 2
;
_chemical_formula_sum "Si O2"
_cell_formula_units_Z 72
_cell_length_a 12.333725
_cell_length_b 12.578788
_cell_length_c 21.726827
_cell_angle_alpha 90.000000
_cell_angle_beta 90.000000
_cell_angle_gamma 90.000000
_cell_volume 3370.771901
_symmetry_space_group_name_H-M "F 2 2 2"
_symmetry_group_IT_number 22
_symmetry_cell_setting 'orthorhombic'
loop_
_space_group_symop_operation_xyz
x,y,z
-x,-y,z
x,-y,-z
-x,y,-z
x,1/2+y,1/2+z
-x,1/2-y,1/2+z
x,1/2-y,1/2-z
-x,1/2+y,1/2-z
1/2+x,y,1/2+z
1/2-x,-y,1/2+z
1/2+x,-y,1/2-z
1/2-x,y,1/2-z
1/2+x,1/2+y,z
1/2-x,1/2-y,z
1/2+x,1/2-y,-z
1/2-x,1/2+y,-z
loop_
_atom_site_type_symbol
_atom_site_label
_atom_site_fract_x
_atom_site_fract_y
_atom_site_fract_z
Si Si1 0.498975 0.172643 0.928281
Si Si2 0.534382 0.877764 0.366893
Si Si3 0.226504 0.362760 0.143514
Si Si4 0.111426 0.056613 0.678200
Si Si5 0.948229 0.750000 0.750000
O O1 0.474511 0.296813 0.913546
O O2 0.618276 0.151019 0.897954
O O3 0.415161 0.098903 0.890726
O O4 0.500000 0.150877 0.000000
O O5 0.659178 0.881739 0.388952
O O6 0.517450 0.813624 0.301931
O O7 0.500000 0.000000 0.361474
O O8 0.250000 0.250000 0.175869
O O9 0.202072 0.467824 0.181884
O O10 0.123715 0.161604 0.717345
O O11 0.000000 0.000000 0.699089
#
# Coordination Sequence:
#
# PCOD9327035 Si02
#       5
#    16  16  16  16   8
#     4   9  19  38  60  84 115 152 198 248 297 357
#     4  10  21  39  59  86 123 159 197 247 302 357
#     4   9  19  37  59  85 115 151 199 242 293 359
#     4   9  18  35  58  85 115 152 200 250 298 352
#     4  10  20  38  60  84 124 164 198 248 304 354
#
# _framework density 21.360094
#
# number of rings (size 3 to 8) (size 9 to 14) (size 15 to 20)
#    0.000    2.667    0.000    2.000    0.000    4.444 
#    0.000   56.111    0.000    0.000    0.000    0.000 
#    0.000    0.000    0.000    0.000    0.000    0.000 
#
# Total GULP energy -100259.765497 kJ/mol
# GULP energy per Si atom -5569.986972 kJ/mol
# Density = 2.131148 g / cm^3
# Si number density = 21.360094 Si / 1000 Ang^3
#
#
#
# Elastic Constant Matrix: (Units=GPa)
#
#
# Indices 1 2 3 4 5 6 
#
# 1 32.4058 32.3777 7.6975 0.0000 0.0000 0.0000
# 2 32.3777 205.9187 45.7010 0.0000 0.0000 0.0000
# 3 7.6975 45.7010 116.3128 0.0000 0.0000 0.0000
# 4 0.0000 0.0000 0.0000 13.7771 0.0000 0.0000
# 5 0.0000 0.0000 0.0000 0.0000 1.7350 0.0000
# 6 0.0000 0.0000 0.0000 0.0000 0.0000 35.4546
#
#
#
# Elastic Compliance Matrix: (Units=1/GPa)
#
#
# Indices 1 2 3 4 5 6 
#
# 1 0.036613 -0.005718 -0.000176 0.000000 0.000000 0.000000
# 2 -0.005718 0.006213 -0.002063 0.000000 0.000000 0.000000
# 3 -0.000176 -0.002063 0.009420 0.000000 0.000000 0.000000
# 4 0.000000 0.000000 0.000000 0.072584 0.000000 0.000000
# 5 0.000000 0.000000 0.000000 0.000000 0.576375 0.000000
# 6 0.000000 0.000000 0.000000 0.000000 0.000000 0.028205
#
#
# Mechanical properties :
#
#
# Convention : Reuss Voigt Hill
#
# Bulk Modulus (GPa) = 27.52383 58.46550 42.99467
# Shear Modulus (GPa) = 6.60122 28.11741 17.35932
#
# Velocity S-wave (km/s) = 1.75987 3.63209 2.85388
# Velocity P-wave (km/s) = 4.12833 6.70971 5.57061
#
# Compressibility (1/GPa) = 0.03633215
#
# Stress axis : x y z
#
# Youngs Moduli (GPa) = 27.31239 160.94933 106.16048
#
# Poissons Ratio (x) = 0.92027 0.01873
# Poissons Ratio (y) = 0.15617 0.21899
# Poissons Ratio (z) = 0.00482 0.33201
#
# Static dielectric constant tensor:
#      x y z
#    x 1.828060 0.000000 0.000000 
#    y 0.000000 1.906930 0.000000 
#    z 0.000000 0.000000 1.785480 
# 
# From -- ./inp_files/23487.got.cif
#   From: 2010.05.17/outbox.cif.g08.bks.cpg/sg22_12_cif.got.tgz:23487.got - 2010.06.03 23:40:54.
