data_PCOD9327226
_publ_section_title
;
Structure prediction by ZEFSAII (Michael W. Deem and Ramdas Pophale) SiO2 
 PCOD9327226
Probable space group: F 2 2 2
;
_chemical_formula_sum "Si O2"
_cell_formula_units_Z 96
_cell_length_a 26.647005
_cell_length_b 10.449341
_cell_length_c 16.439139
_cell_angle_alpha 90.000000
_cell_angle_beta 90.000000
_cell_angle_gamma 90.000000
_cell_volume 4577.373732
_symmetry_space_group_name_H-M "F 2 2 2"
_symmetry_group_IT_number 22
_symmetry_cell_setting 'orthorhombic'
loop_
_space_group_symop_operation_xyz
x,y,z
-x,-y,z
x,-y,-z
-x,y,-z
x,1/2+y,1/2+z
-x,1/2-y,1/2+z
x,1/2-y,1/2-z
-x,1/2+y,1/2-z
1/2+x,y,1/2+z
1/2-x,-y,1/2+z
1/2+x,-y,1/2-z
1/2-x,y,1/2-z
1/2+x,1/2+y,z
1/2-x,1/2-y,z
1/2+x,1/2-y,-z
1/2-x,1/2+y,-z
loop_
_atom_site_type_symbol
_atom_site_label
_atom_site_fract_x
_atom_site_fract_y
_atom_site_fract_z
Si Si1 0.441666 0.475954 0.183315
Si Si2 0.621011 0.275488 0.894410
Si Si3 0.774508 0.389019 0.567230
Si Si4 0.325506 0.513291 0.597741
Si Si5 0.446710 0.188004 0.548795
Si Si6 0.098927 0.146098 0.680529
O O1 0.500000 0.500000 0.194945
O O2 0.420517 0.336667 0.164009
O O3 0.432889 0.561929 0.101477
O O4 0.417656 0.527187 0.265318
O O5 0.672560 0.356652 0.892061
O O6 0.638162 0.131132 0.881631
O O7 0.596148 0.286448 0.983117
O O8 0.783414 0.500000 0.500000
O O9 0.750000 0.250000 0.538899
O O10 0.730665 0.448809 0.623187
O O11 0.324045 0.500000 0.500000
O O12 0.350064 0.387735 0.634445
O O13 0.500000 0.178809 0.500000
O O14 0.442109 0.301472 0.615972
O O15 0.106962 0.250000 0.750000
#
# Coordination Sequence:
#
# PCOD9327226 Si02
#       6
#    16  16  16  16  16  16
#     4  11  23  39  60  91 130 170 212 264 320 379
#     4  11  21  37  67  95 126 169 215 267 321 379
#     4   9  19  35  62  99 129 163 214 276 326 382
#     4  10  20  41  66  94 127 166 217 267 320 386
#     4  11  21  38  66  92 126 167 220 262 313 387
#     4  10  24  43  61  92 137 169 207 268 326 385
#
# _framework density 20.972723999999999
#
# number of rings (size 3 to 8) (size 9 to 14) (size 15 to 20)
#    0.000    1.667    3.333    1.500    0.000    2.000 
#    3.000    1.667    0.000   10.000    0.000    0.000 
#    0.000    0.000    0.000    0.000    0.000    0.000 
#
# Total GULP energy -133814.745039 kJ/mol
# GULP energy per Si atom -5575.614377 kJ/mol
# Density = 2.092499 g / cm^3
# Si number density = 20.972724 Si / 1000 Ang^3
#
#
#
# Elastic Constant Matrix: (Units=GPa)
#
#
# Indices 1 2 3 4 5 6 
#
# 1 108.2385 16.4215 34.7679 0.0000 0.0000 0.0000
# 2 16.4215 42.6795 19.5471 0.0000 0.0000 0.0000
# 3 34.7679 19.5471 82.2785 0.0000 0.0000 0.0000
# 4 0.0000 0.0000 0.0000 5.3793 0.0000 0.0000
# 5 0.0000 0.0000 0.0000 0.0000 75.0514 0.0000
# 6 0.0000 0.0000 0.0000 0.0000 0.0000 38.3235
#
#
#
# Elastic Compliance Matrix: (Units=1/GPa)
#
#
# Indices 1 2 3 4 5 6 
#
# 1 0.010894 -0.002338 -0.004048 0.000000 0.000000 0.000000
# 2 -0.002338 0.026793 -0.005377 0.000000 0.000000 0.000000
# 3 -0.004048 -0.005377 0.015142 0.000000 0.000000 0.000000
# 4 0.000000 0.000000 0.000000 0.185897 0.000000 0.000000
# 5 0.000000 0.000000 0.000000 0.000000 0.013324 0.000000
# 6 0.000000 0.000000 0.000000 0.000000 0.000000 0.026094
#
#
# Mechanical properties :
#
#
# Convention : Reuss Voigt Hill
#
# Bulk Modulus (GPa) = 34.12684 41.62995 37.87840
# Shear Modulus (GPa) = 16.05461 34.58150 25.31805
#
# Velocity S-wave (km/s) = 2.76977 4.06505 3.47823
# Velocity P-wave (km/s) = 5.15133 6.47499 5.85071
#
# Compressibility (1/GPa) = 0.02930245
#
# Stress axis : x y z
#
# Youngs Moduli (GPa) = 91.79554 37.32352 66.04180
#
# Poissons Ratio (x) = 0.08725 0.26734
# Poissons Ratio (y) = 0.21458 0.35514
# Poissons Ratio (z) = 0.37159 0.20071
#
# Static dielectric constant tensor:
#      x y z
#    x 1.800990 0.000000 0.000000 
#    y 0.000000 1.820140 0.000000 
#    z 0.000000 0.000000 1.370490 
# 
# From -- ./inp_files/39472.got.cif
#   From: 2010.05.17/outbox.cif.g08.bks.cpg/sg22_20_cif.got.tgz:39472.got - 2010.06.03 23:40:54.
