data_PCOD9327298
_publ_section_title
;
Structure prediction by ZEFSAII (Michael W. Deem and Ramdas Pophale) SiO2 
 PCOD9327298
Probable space group: F 2 2 2
;
_chemical_formula_sum "Si O2"
_cell_formula_units_Z 88
_cell_length_a 24.510804
_cell_length_b 5.552709
_cell_length_c 29.405284
_cell_angle_alpha 90.000000
_cell_angle_beta 90.000000
_cell_angle_gamma 90.000000
_cell_volume 4002.099201
_symmetry_space_group_name_H-M "F 2 2 2"
_symmetry_group_IT_number 22
_symmetry_cell_setting 'orthorhombic'
loop_
_space_group_symop_operation_xyz
x,y,z
-x,-y,z
x,-y,-z
-x,y,-z
x,1/2+y,1/2+z
-x,1/2-y,1/2+z
x,1/2-y,1/2-z
-x,1/2+y,1/2-z
1/2+x,y,1/2+z
1/2-x,-y,1/2+z
1/2+x,-y,1/2-z
1/2-x,y,1/2-z
1/2+x,1/2+y,z
1/2-x,1/2-y,z
1/2+x,1/2-y,-z
1/2-x,1/2+y,-z
loop_
_atom_site_type_symbol
_atom_site_label
_atom_site_fract_x
_atom_site_fract_y
_atom_site_fract_z
Si Si1 0.283216 0.500000 0.500000
Si Si2 0.944674 0.918571 0.419911
Si Si3 0.823401 0.594502 0.097322
Si Si4 0.820139 0.404741 0.374150
Si Si5 0.588097 0.915490 0.547982
Si Si6 0.313384 0.001172 0.731913
O O1 0.250000 0.250000 0.505287
O O2 0.318844 0.526205 0.544769
O O3 0.888197 0.894153 0.391545
O O4 0.937292 0.148116 0.453993
O O5 0.948613 0.652135 0.441713
O O6 0.000000 0.000000 0.394585
O O7 0.797149 0.856213 0.102313
O O8 0.799121 0.370203 0.124855
O O9 0.873095 0.387514 0.407654
O O10 0.820627 0.484515 0.322037
O O11 0.615407 0.000000 0.500000
O O12 0.336875 0.750000 0.750000
O O13 0.250000 0.001302 0.750000
O O14 0.338074 0.250000 0.750000
#
# Coordination Sequence:
#
# PCOD9327298 Si02
#       6
#     8  16  16  16  16  16
#     4  12  26  46  55  80 117 172 218 256 276 334
#     4  10  21  35  56  85 121 164 203 246 294 339
#     4  10  23  40  61  85 123 159 214 245 291 356
#     4  10  21  38  62  84 118 159 192 243 308 357
#     4  10  21  33  52  83 123 162 198 232 279 361
#     4  10  21  40  60  85 113 138 189 257 316 365
#
# _framework density 21.988458999999999
#
# number of rings (size 3 to 8) (size 9 to 14) (size 15 to 20)
#    0.000    1.818    0.000    3.273   10.182    2.182 
#   19.636    0.000    0.000    0.000    0.000    0.000 
#    0.000  232.727    0.000    0.000    0.000    0.000 
#
# Total GULP energy -122488.281612 kJ/mol
# GULP energy per Si atom -5567.649164 kJ/mol
# Density = 2.193841 g / cm^3
# Si number density = 21.988459 Si / 1000 Ang^3
#
#
#
# Elastic Constant Matrix: (Units=GPa)
#
#
# Indices 1 2 3 4 5 6 
#
# 1 68.9950 22.1270 -1.0103 0.0005 -0.0009 -0.0033
# 2 22.1270 236.0563 17.6812 -0.0005 -0.0019 -0.0126
# 3 -1.0103 17.6812 119.4968 0.0014 -0.0003 -0.0042
# 4 0.0005 -0.0005 0.0014 41.4060 -0.0006 -0.0004
# 5 -0.0009 -0.0019 -0.0003 -0.0006 9.0818 0.0014
# 6 -0.0033 -0.0126 -0.0042 -0.0004 0.0014 26.0552
#
#
#
# Elastic Compliance Matrix: (Units=1/GPa)
#
#
# Indices 1 2 3 4 5 6 
#
# 1 0.014956 -0.001427 0.000338 0.000000 0.000001 0.000001
# 2 -0.001427 0.004420 -0.000666 0.000000 0.000001 0.000002
# 3 0.000338 -0.000666 0.008470 0.000000 0.000000 0.000001
# 4 0.000000 0.000000 0.000000 0.024151 0.000002 0.000000
# 5 0.000001 0.000001 0.000000 0.000002 0.110111 -0.000006
# 6 0.000001 0.000002 0.000001 0.000000 -0.000006 0.038380
#
#
# Mechanical properties :
#
#
# Convention : Reuss Voigt Hill
#
# Bulk Modulus (GPa) = 41.09323 55.79376 48.44350
# Shear Modulus (GPa) = 23.57255 41.02527 32.29891
#
# Velocity S-wave (km/s) = 3.27776 4.32413 3.83678
# Velocity P-wave (km/s) = 5.74926 7.09648 6.45810
#
# Compressibility (1/GPa) = 0.02433491
#
# Stress axis : x y z
#
# Youngs Moduli (GPa) = 66.86066 226.24675 118.06606
#
# Poissons Ratio (x) = 0.32291 -0.03986
# Poissons Ratio (y) = 0.09543 0.07864
# Poissons Ratio (z) = -0.02257 0.15069
#
# Static dielectric constant tensor:
#      x y z
#    x 1.933570 0.000010 0.000000 
#    y 0.000010 1.938630 0.000010 
#    z 0.000000 0.000010 1.855830 
# 
# From -- ./inp_files/50657.got.cif
#   From: 2010.05.17/outbox.cif.g08.bks.cpg/sg22_26_cif.got.tgz:50657.got - 2010.06.03 23:40:54.
