data_PCOD9327096
_publ_section_title
;
Structure prediction by ZEFSAII (Michael W. Deem and Ramdas Pophale) SiO2 
 PCOD9327096
Probable space group: F 2 2 2
;
_chemical_formula_sum "Si O2"
_cell_formula_units_Z 64
_cell_length_a 15.317082
_cell_length_b 11.104971
_cell_length_c 17.670931
_cell_angle_alpha 90.000000
_cell_angle_beta 90.000000
_cell_angle_gamma 90.000000
_cell_volume 3005.750287
_symmetry_space_group_name_H-M "F 2 2 2"
_symmetry_group_IT_number 22
_symmetry_cell_setting 'orthorhombic'
loop_
_space_group_symop_operation_xyz
x,y,z
-x,-y,z
x,-y,-z
-x,y,-z
x,1/2+y,1/2+z
-x,1/2-y,1/2+z
x,1/2-y,1/2-z
-x,1/2+y,1/2-z
1/2+x,y,1/2+z
1/2-x,-y,1/2+z
1/2+x,-y,1/2-z
1/2-x,y,1/2-z
1/2+x,1/2+y,z
1/2-x,1/2-y,z
1/2+x,1/2-y,-z
1/2-x,1/2+y,-z
loop_
_atom_site_type_symbol
_atom_site_label
_atom_site_fract_x
_atom_site_fract_y
_atom_site_fract_z
Si Si1 0.250110 0.107915 0.340797
Si Si2 0.590495 0.435406 0.130689
Si Si3 0.000000 0.299336 0.500000
Si Si4 0.542286 0.250000 0.250000
Si Si5 0.059617 0.889164 0.619734
O O1 0.250000 0.099863 0.250000
O O2 0.250000 0.250000 0.360304
O O3 0.156815 0.063066 0.369338
O O4 0.331217 0.030180 0.370135
O O5 0.500000 0.500000 0.152942
O O6 0.600164 0.331621 0.193907
O O7 0.567256 0.376513 0.050009
O O8 0.052181 0.215557 0.441847
O O9 0.479657 0.168574 0.196877
O O10 0.000000 0.000000 0.596822
#
# Coordination Sequence:
#
# PCOD9327096 Si02
#       5
#    16  16   8   8  16
#     4  11  22  39  68 100 127 165 218 272 328 389
#     4  11  22  41  66  96 132 170 217 271 327 388
#     4  10  24  44  64  92 134 178 216 266 328 384
#     4  10  20  38  68  98 132 170 210 274 334 384
#     4  11  22  42  66  94 133 174 218 267 325 392
#
# _framework density 21.29252
#
# number of rings (size 3 to 8) (size 9 to 14) (size 15 to 20)
#    0.000    1.250    0.000    9.000    0.000    0.000 
#    0.000   24.375    0.000    6.000    0.000    0.000 
#    0.000    0.000    0.000    0.000    0.000    0.000 
#
# Total GULP energy -89528.046729 kJ/mol
# GULP energy per Si atom -5595.502921 kJ/mol
# Density = 2.124406 g / cm^3
# Si number density = 21.292520 Si / 1000 Ang^3
#
#
#
# Elastic Constant Matrix: (Units=GPa)
#
#
# Indices 1 2 3 4 5 6 
#
# 1 183.0984 89.2391 47.2119 0.0000 0.0000 0.0000
# 2 89.2391 142.4082 73.1727 0.0000 0.0000 0.0000
# 3 47.2119 73.1727 128.7417 0.0000 0.0000 0.0000
# 4 0.0000 0.0000 0.0000 6.7435 0.0000 0.0000
# 5 0.0000 0.0000 0.0000 0.0000 1.1913 0.0000
# 6 0.0000 0.0000 0.0000 0.0000 0.0000 48.2649
#
#
#
# Elastic Compliance Matrix: (Units=1/GPa)
#
#
# Indices 1 2 3 4 5 6 
#
# 1 0.007864 -0.004868 -0.000117 0.000000 0.000000 0.000000
# 2 -0.004868 0.012932 -0.005565 0.000000 0.000000 0.000000
# 3 -0.000117 -0.005565 0.010973 0.000000 0.000000 0.000000
# 4 0.000000 0.000000 0.000000 0.148290 0.000000 0.000000
# 5 0.000000 0.000000 0.000000 0.000000 0.839417 0.000000
# 6 0.000000 0.000000 0.000000 0.000000 0.000000 0.020719
#
#
# Mechanical properties :
#
#
# Convention : Reuss Voigt Hill
#
# Bulk Modulus (GPa) = 93.72502 97.05508 95.39005
# Shear Modulus (GPa) = 4.69549 27.54826 16.12188
#
# Velocity S-wave (km/s) = 1.48661 3.60085 2.75464
# Velocity P-wave (km/s) = 6.86003 7.93529 7.41717
#
# Compressibility (1/GPa) = 0.01066951
#
# Stress axis : x y z
#
# Youngs Moduli (GPa) = 127.15703 77.32825 91.12934
#
# Poissons Ratio (x) = 0.37642 0.01068
# Poissons Ratio (y) = 0.61898 0.50713
# Poissons Ratio (z) = 0.01491 0.43033
#
# Static dielectric constant tensor:
#      x y z
#    x 1.742970 0.000000 0.000000 
#    y 0.000000 1.807570 0.000000 
#    z 0.000000 0.000000 1.818410 
# 
# From -- ./inp_files/19445.got.cif
#   From: 2010.05.17/outbox.cif.g08.bks.cpg/sg22_10_cif.got.tgz:19445.got - 2010.06.03 23:40:54.
