data_PCOD9327560
_publ_section_title
;
Structure prediction by ZEFSAII (Michael W. Deem and Ramdas Pophale) SiO2 
 PCOD9327560
Probable space group: F 2 2 2
;
_chemical_formula_sum "Si O2"
_cell_formula_units_Z 100
_cell_length_a 19.876230
_cell_length_b 8.918732
_cell_length_c 27.278548
_cell_angle_alpha 90.000000
_cell_angle_beta 90.000000
_cell_angle_gamma 90.000000
_cell_volume 4835.689169
_symmetry_space_group_name_H-M "F 2 2 2"
_symmetry_group_IT_number 22
_symmetry_cell_setting 'orthorhombic'
loop_
_space_group_symop_operation_xyz
x,y,z
-x,-y,z
x,-y,-z
-x,y,-z
x,1/2+y,1/2+z
-x,1/2-y,1/2+z
x,1/2-y,1/2-z
-x,1/2+y,1/2-z
1/2+x,y,1/2+z
1/2-x,-y,1/2+z
1/2+x,-y,1/2-z
1/2-x,y,1/2-z
1/2+x,1/2+y,z
1/2-x,1/2-y,z
1/2+x,1/2-y,-z
1/2-x,1/2+y,-z
loop_
_atom_site_type_symbol
_atom_site_label
_atom_site_fract_x
_atom_site_fract_y
_atom_site_fract_z
Si Si1 0.204951 0.119545 0.384562
Si Si2 0.089061 0.808606 0.850096
Si Si3 0.380272 0.151627 0.888876
Si Si4 0.001026 0.819019 0.942803
Si Si5 0.180936 0.420359 0.663892
Si Si6 0.531923 0.846853 0.793471
Si Si7 0.750000 0.250000 0.250000
O O1 0.250000 0.250000 0.410914
O O2 0.155058 0.205854 0.347638
O O3 0.157801 0.993627 0.410148
O O4 0.258963 0.022470 0.355459
O O5 0.063278 0.786395 0.906270
O O6 0.028462 0.752168 0.816621
O O7 0.113693 0.976799 0.837882
O O8 0.437544 0.229516 0.921184
O O9 0.329918 0.283074 0.873228
O O10 0.417537 0.112147 0.837441
O O11 0.000000 0.000000 0.939826
O O12 0.000000 0.779934 0.000000
O O13 0.203976 0.353234 0.715346
O O14 0.562699 0.750000 0.750000
O O15 0.500000 0.000000 0.774416
#
# Coordination Sequence:
#
# PCOD9327560 Si02
#       7
#    16  16  16  16  16  16   4
#     4  10  21  40  62  83 121 173 213 259 318 380
#     4  10  22  42  61  88 129 168 207 267 330 391
#     4  11  21  40  63  90 129 165 212 272 328 391
#     4  10  21  39  70 104 127 162 212 271 340 408
#     4  11  23  37  61  88 122 172 220 263 314 377
#     4  11  25  36  57  86 123 167 211 265 332 398
#     4  12  24  36  62  96 124 172 242 276 306 376
#
# _framework density 20.679576000000001
#
# number of rings (size 3 to 8) (size 9 to 14) (size 15 to 20)
#    0.000    1.440    4.800    0.000    3.360    1.280 
#    0.000    4.400    0.000    9.600    0.000    0.000 
#    0.000    0.000    0.000    0.000    0.000    0.000 
#
# Total GULP energy -139448.215946 kJ/mol
# GULP energy per Si atom -5577.928638 kJ/mol
# Density = 2.063251 g / cm^3
# Si number density = 20.679576 Si / 1000 Ang^3
#
#
#
# Elastic Constant Matrix: (Units=GPa)
#
#
# Indices 1 2 3 4 5 6 
#
# 1 104.0163 56.8035 27.6631 0.0000 0.0000 0.0000
# 2 56.8035 136.7344 42.3796 -0.0001 0.0000 0.0000
# 3 27.6631 42.3796 81.4441 0.0000 0.0000 0.0000
# 4 0.0000 -0.0001 0.0000 -92.8347 0.0000 0.0000
# 5 0.0000 0.0000 0.0000 0.0000 24.9665 0.0000
# 6 0.0000 0.0000 0.0000 0.0000 0.0000 56.1850
#
#
#
# Elastic Compliance Matrix: (Units=1/GPa)
#
#
# Indices 1 2 3 4 5 6 
#
# 1 0.012668 -0.004685 -0.001865 0.000000 0.000000 0.000000
# 2 -0.004685 0.010452 -0.003848 0.000000 0.000000 0.000000
# 3 -0.001865 -0.003848 0.014914 0.000000 0.000000 0.000000
# 4 0.000000 0.000000 0.000000 -0.010772 0.000000 0.000000
# 5 0.000000 0.000000 0.000000 0.000000 0.040054 0.000000
# 6 0.000000 0.000000 0.000000 0.000000 0.000000 0.017798
#
#
# Mechanical properties :
#
#
# Convention : Reuss Voigt Hill
#
# Bulk Modulus (GPa) = 58.00651 63.98747 60.99699
# Shear Modulus (GPa) = 44.78044 10.68661 27.73353
#
# Velocity S-wave (km/s) = 4.65848 2.27573 3.66609
# Velocity P-wave (km/s) = 7.55290 6.15750 6.89061
#
# Compressibility (1/GPa) = 0.01723944
#
# Stress axis : x y z
#
# Youngs Moduli (GPa) = 78.93765 95.67434 67.05119
#
# Poissons Ratio (x) = 0.44820 0.12506
# Poissons Ratio (y) = 0.36980 0.25799
# Poissons Ratio (z) = 0.14723 0.36812
#
# Static dielectric constant tensor:
#      x y z
#    x 2.834110 0.000000 0.000000 
#    y 0.000000 1.732920 0.000000 
#    z 0.000000 0.000000 1.699050 
# 
# From -- ./inp_files/45786.got.cif
#   From: 2010.05.17/outbox.cif.g08.bks.cpg/sg22_23_cif.got.tgz:45786.got - 2010.06.03 23:40:54.
