data_PCOD9327251
_publ_section_title
;
Structure prediction by ZEFSAII (Michael W. Deem and Ramdas Pophale) SiO2 
 PCOD9327251
Probable space group: F 2 2 2
;
_chemical_formula_sum "Si O2"
_cell_formula_units_Z 104
_cell_length_a 20.428971
_cell_length_b 8.459197
_cell_length_c 24.797459
_cell_angle_alpha 90.000000
_cell_angle_beta 90.000000
_cell_angle_gamma 90.000000
_cell_volume 4285.315600
_symmetry_space_group_name_H-M "F 2 2 2"
_symmetry_group_IT_number 22
_symmetry_cell_setting 'orthorhombic'
loop_
_space_group_symop_operation_xyz
x,y,z
-x,-y,z
x,-y,-z
-x,y,-z
x,1/2+y,1/2+z
-x,1/2-y,1/2+z
x,1/2-y,1/2-z
-x,1/2+y,1/2-z
1/2+x,y,1/2+z
1/2-x,-y,1/2+z
1/2+x,-y,1/2-z
1/2-x,y,1/2-z
1/2+x,1/2+y,z
1/2-x,1/2-y,z
1/2+x,1/2-y,-z
1/2-x,1/2+y,-z
loop_
_atom_site_type_symbol
_atom_site_label
_atom_site_fract_x
_atom_site_fract_y
_atom_site_fract_z
Si Si1 0.388304 0.500000 0.000000
Si Si2 0.721365 0.075107 0.415040
Si Si3 0.856781 0.462775 0.938402
Si Si4 0.289618 0.580036 0.798660
Si Si5 0.571937 0.964553 0.692891
Si Si6 0.561913 0.178879 0.588467
Si Si7 0.949102 0.861332 0.642894
O O1 0.341428 0.567311 0.046640
O O2 0.434788 0.378406 0.028446
O O3 0.750000 0.250000 0.413941
O O4 0.779129 0.970441 0.439885
O O5 0.711721 0.011821 0.354824
O O6 0.876520 0.295791 0.912369
O O7 0.889352 0.576920 0.893477
O O8 0.880311 0.500000 0.000000
O O9 0.250000 0.500816 0.750000
O O10 0.250000 0.750000 0.805331
O O11 0.366569 0.559271 0.781543
O O12 0.568660 0.045341 0.633464
O O13 0.500000 0.000000 0.716932
O O14 0.575546 0.773988 0.684504
O O15 0.497240 0.272322 0.601973
O O16 0.000000 0.000000 0.662931
#
# Coordination Sequence:
#
# PCOD9327251 Si02
#       7
#     8  16  16  16  16  16  16
#     4  12  24  38  65 100 139 186 240 272 360 418
#     4  12  25  40  67  96 140 186 238 295 357 432
#     4  11  22  37  55  88 136 185 234 287 346 422
#     4  11  25  47  77 108 144 192 249 309 378 446
#     4  10  20  42  70 104 142 187 242 305 363 440
#     4  10  22  37  60  91 135 185 231 283 343 432
#     4   9  21  40  60  95 140 190 238 290 358 428
#
# _framework density 24.268922
#
# number of rings (size 3 to 8) (size 9 to 14) (size 15 to 20)
#    0.000    1.385    2.308    2.769    2.154    3.077 
#    5.538    0.000    0.000   13.846    0.000    0.000 
#    0.000    0.000    0.000    0.000    0.000    0.000 
#
# Total GULP energy -145134.257356 kJ/mol
# GULP energy per Si atom -5582.086821 kJ/mol
# Density = 2.421369 g / cm^3
# Si number density = 24.268922 Si / 1000 Ang^3
#
#
#
# Elastic Constant Matrix: (Units=GPa)
#
#
# Indices 1 2 3 4 5 6 
#
# 1 146.4281 26.7201 35.5578 0.0000 0.0000 0.0000
# 2 26.7201 95.4284 21.1833 0.0000 -0.0001 0.0000
# 3 35.5578 21.1833 126.2406 0.0000 0.0000 0.0000
# 4 0.0000 0.0000 0.0000 -1.8350 0.0000 0.0000
# 5 0.0000 -0.0001 0.0000 0.0000 644.7610 0.0001
# 6 0.0000 0.0000 0.0000 0.0000 0.0001 23.3907
#
#
#
# Elastic Compliance Matrix: (Units=1/GPa)
#
#
# Indices 1 2 3 4 5 6 
#
# 1 0.007592 -0.001715 -0.001851 0.000000 0.000000 0.000000
# 2 -0.001715 0.011272 -0.001408 0.000000 0.000000 0.000000
# 3 -0.001851 -0.001408 0.008679 0.000000 0.000000 0.000000
# 4 0.000000 0.000000 0.000000 -0.544950 0.000000 0.000000
# 5 0.000000 0.000000 0.000000 0.000000 0.001551 0.000000
# 6 0.000000 0.000000 0.000000 0.000000 0.000000 0.042752
#
#
# Mechanical properties :
#
#
# Convention : Reuss Voigt Hill
#
# Bulk Modulus (GPa) = 56.83509 59.44661 58.14085
# Shear Modulus (GPa) = -10.93392 152.23907 70.65257
#
# Velocity S-wave (km/s) = -2.12488 7.92882 5.40144
# Velocity P-wave (km/s) = 4.17727 10.41008 7.93156
#
# Compressibility (1/GPa) = 0.01759476
#
# Stress axis : x y z
#
# Youngs Moduli (GPa) = 131.72467 88.71645 115.22130
#
# Poissons Ratio (x) = 0.15214 0.21322
# Poissons Ratio (y) = 0.22589 0.16228
# Poissons Ratio (z) = 0.24376 0.12495
#
# Static dielectric constant tensor:
#      x y z
#    x 1.996030 0.000000 0.000000 
#    y 0.000000 1.470150 0.000000 
#    z 0.000000 0.000000 2.010690 
# 
# From -- ./inp_files/53924.got.cif
#   From: 2010.05.17/outbox.cif.g08.bks.cpg/sg22_27_cif.got.tgz:53924.got - 2010.06.03 23:40:54.
