data_PCOD9327457
_publ_section_title
;
Structure prediction by ZEFSAII (Michael W. Deem and Ramdas Pophale) SiO2 
 PCOD9327457
Probable space group: F 2 2 2
;
_chemical_formula_sum "Si O2"
_cell_formula_units_Z 80
_cell_length_a 17.094560
_cell_length_b 19.904856
_cell_length_c 10.572512
_cell_angle_alpha 90.000000
_cell_angle_beta 90.000000
_cell_angle_gamma 90.000000
_cell_volume 3597.453207
_symmetry_space_group_name_H-M "F 2 2 2"
_symmetry_group_IT_number 22
_symmetry_cell_setting 'orthorhombic'
loop_
_space_group_symop_operation_xyz
x,y,z
-x,-y,z
x,-y,-z
-x,y,-z
x,1/2+y,1/2+z
-x,1/2-y,1/2+z
x,1/2-y,1/2-z
-x,1/2+y,1/2-z
1/2+x,y,1/2+z
1/2-x,-y,1/2+z
1/2+x,-y,1/2-z
1/2-x,y,1/2-z
1/2+x,1/2+y,z
1/2-x,1/2-y,z
1/2+x,1/2-y,-z
1/2-x,1/2+y,-z
loop_
_atom_site_type_symbol
_atom_site_label
_atom_site_fract_x
_atom_site_fract_y
_atom_site_fract_z
Si Si1 0.085048 0.750000 0.250000
Si Si2 0.040792 0.659987 0.632760
Si Si3 0.666088 0.225773 0.497334
Si Si4 0.287874 0.585235 0.115456
Si Si5 0.157203 0.500000 0.000000
Si Si6 0.910859 0.479261 0.724467
O O1 0.137247 0.735016 0.127214
O O2 0.029011 0.686943 0.279885
O O3 0.097393 0.722307 0.598914
O O4 0.090387 0.599012 0.688614
O O5 0.000000 0.639619 0.500000
O O6 0.750000 0.250000 0.542331
O O7 0.674118 0.149524 0.447534
O O8 0.250000 0.603908 0.250000
O O9 0.217116 0.560525 0.027768
O O10 0.349692 0.525591 0.147011
O O11 0.108630 0.488720 0.127407
O O12 0.000000 0.500000 0.697964
#
# Coordination Sequence:
#
# PCOD9327457 Si02
#       6
#     8  16  16  16   8  16
#     4  10  21  40  59  86 122 160 206 256 317 384
#     4  10  23  40  61  91 126 165 210 266 327 386
#     4  11  22  39  63  88 117 163 214 258 314 384
#     4  10  21  38  60  89 124 161 203 257 321 387
#     4  10  23  40  61  94 128 158 204 270 327 374
#     4  11  22  40  66  94 125 165 215 266 326 392
#
# _framework density 22.237953999999998
#
# number of rings (size 3 to 8) (size 9 to 14) (size 15 to 20)
#    0.000    1.600    0.000    5.400    0.000    5.200 
#    0.000   12.500    0.000    0.000    0.000    0.000 
#    0.000    0.000    0.000    0.000    0.000    0.000 
#
# Total GULP energy -111872.030836 kJ/mol
# GULP energy per Si atom -5593.601542 kJ/mol
# Density = 2.218734 g / cm^3
# Si number density = 22.237954 Si / 1000 Ang^3
#
#
#
# Elastic Constant Matrix: (Units=GPa)
#
#
# Indices 1 2 3 4 5 6 
#
# 1 89.5783 -0.2843 7.8462 0.0000 0.0000 0.0000
# 2 -0.2843 48.1775 9.1551 0.0000 0.0000 0.0000
# 3 7.8462 9.1551 49.2096 0.0000 0.0000 0.0000
# 4 0.0000 0.0000 0.0000 22.6268 0.0000 0.0000
# 5 0.0000 0.0000 0.0000 0.0000 17.3556 0.0000
# 6 0.0000 0.0000 0.0000 0.0000 0.0000 42.2183
#
#
#
# Elastic Compliance Matrix: (Units=1/GPa)
#
#
# Indices 1 2 3 4 5 6 
#
# 1 0.011330 0.000425 -0.001886 0.000000 0.000000 0.000000
# 2 0.000425 0.021533 -0.004074 0.000000 0.000000 0.000000
# 3 -0.001886 -0.004074 0.021380 0.000000 0.000000 0.000000
# 4 0.000000 0.000000 0.000000 0.044195 0.000000 0.000000
# 5 0.000000 0.000000 0.000000 0.000000 0.057618 0.000000
# 6 0.000000 0.000000 0.000000 0.000000 0.000000 0.023686
#
#
# Mechanical properties :
#
#
# Convention : Reuss Voigt Hill
#
# Bulk Modulus (GPa) = 23.16192 24.48884 23.82538
# Shear Modulus (GPa) = 24.36611 27.79005 26.07808
#
# Velocity S-wave (km/s) = 3.31373 3.53890 3.42816
# Velocity P-wave (km/s) = 5.00791 5.26635 5.13876
#
# Compressibility (1/GPa) = 0.04317431
#
# Stress axis : x y z
#
# Youngs Moduli (GPa) = 88.26180 46.43985 46.77315
#
# Poissons Ratio (x) = -0.01974 0.08820
# Poissons Ratio (y) = -0.03753 0.19055
# Poissons Ratio (z) = 0.16643 0.18919
#
# Static dielectric constant tensor:
#      x y z
#    x 1.807720 0.000000 0.000000 
#    y 0.000000 1.858930 0.000000 
#    z 0.000000 0.000000 1.820130 
# 
# From -- ./inp_files/21300.got.cif
#   From: 2010.05.17/outbox.cif.g08.bks.cpg/sg22_11_cif.got.tgz:21300.got - 2010.06.03 23:40:54.
