data_PCOD9327368
_publ_section_title
;
Structure prediction by ZEFSAII (Michael W. Deem and Ramdas Pophale) SiO2 
 PCOD9327368
Probable space group: F 2 2 2
;
_chemical_formula_sum "Si O2"
_cell_formula_units_Z 52
_cell_length_a 5.153752
_cell_length_b 14.322032
_cell_length_c 29.150530
_cell_angle_alpha 90.000000
_cell_angle_beta 90.000000
_cell_angle_gamma 90.000000
_cell_volume 2151.664781
_symmetry_space_group_name_H-M "F 2 2 2"
_symmetry_group_IT_number 22
_symmetry_cell_setting 'orthorhombic'
loop_
_space_group_symop_operation_xyz
x,y,z
-x,-y,z
x,-y,-z
-x,y,-z
x,1/2+y,1/2+z
-x,1/2-y,1/2+z
x,1/2-y,1/2-z
-x,1/2+y,1/2-z
1/2+x,y,1/2+z
1/2-x,-y,1/2+z
1/2+x,-y,1/2-z
1/2-x,y,1/2-z
1/2+x,1/2+y,z
1/2-x,1/2-y,z
1/2+x,1/2-y,-z
1/2-x,1/2+y,-z
loop_
_atom_site_type_symbol
_atom_site_label
_atom_site_fract_x
_atom_site_fract_y
_atom_site_fract_z
Si Si1 0.503076 0.886380 0.822553
Si Si2 0.250000 0.250000 0.250000
Si Si3 0.242992 0.358256 0.524019
Si Si4 0.993947 0.388762 0.377317
O O1 0.415796 0.821217 0.781187
O O2 0.796255 0.863441 0.836849
O O3 0.290299 0.864490 0.863354
O O4 0.500000 0.000000 0.814109
O O5 0.500000 0.397659 0.500000
O O6 0.250000 0.250000 0.510209
O O7 0.158680 0.357649 0.577120
O O8 0.000000 0.403735 0.500000
O O9 0.000000 0.500000 0.381238
#
# Coordination Sequence:
#
# PCOD9327368 Si02
#       4
#    16   4  16  16
#     4  10  25  44  67 103 140 177 235 295 349 433
#     4  12  28  46  80 108 132 202 232 294 388 428
#     4  10  21  36  60  96 133 174 227 283 330 399
#     4  10  22  43  65  93 139 183 222 287 352 407
#
# _framework density 24.167335000000001
#
# number of rings (size 3 to 8) (size 9 to 14) (size 15 to 20)
#    0.000    1.846    0.000    1.846    4.308    6.769 
#    0.000    1.538    0.000    0.000    0.000    0.000 
#    0.000    0.000    0.000    0.000    0.000    0.000 
#
# Total GULP energy -72515.275966 kJ/mol
# GULP energy per Si atom -5578.098151 kJ/mol
# Density = 2.411233 g / cm^3
# Si number density = 24.167335 Si / 1000 Ang^3
#
#
#
# Elastic Constant Matrix: (Units=GPa)
#
#
# Indices 1 2 3 4 5 6 
#
# 1 186.0940 39.3425 45.2393 0.0000 0.0000 0.0000
# 2 39.3425 121.3571 14.9974 0.0000 0.0000 0.0000
# 3 45.2393 14.9974 66.9434 0.0000 0.0000 0.0000
# 4 0.0000 0.0000 0.0000 36.6780 0.0000 0.0000
# 5 0.0000 0.0000 0.0000 0.0000 22.7363 0.0000
# 6 0.0000 0.0000 0.0000 0.0000 0.0000 -119.3512
#
#
#
# Elastic Compliance Matrix: (Units=1/GPa)
#
#
# Indices 1 2 3 4 5 6 
#
# 1 0.006743 -0.001669 -0.004183 0.000000 0.000000 0.000000
# 2 -0.001669 0.008888 -0.000863 0.000000 0.000000 0.000000
# 3 -0.004183 -0.000863 0.017958 0.000000 0.000000 0.000000
# 4 0.000000 0.000000 0.000000 0.027264 0.000000 0.000000
# 5 0.000000 0.000000 0.000000 0.000000 0.043983 0.000000
# 6 0.000000 0.000000 0.000000 0.000000 0.000000 -0.008379
#
#
# Mechanical properties :
#
#
# Convention : Reuss Voigt Hill
#
# Bulk Modulus (GPa) = 49.60652 63.72809 56.66731
# Shear Modulus (GPa) = 42.87852 6.33361 24.60607
#
# Velocity S-wave (km/s) = 4.21674 1.62062 3.19431
# Velocity P-wave (km/s) = 6.65422 5.47071 6.09128
#
# Compressibility (1/GPa) = 0.02015864
#
# Stress axis : x y z
#
# Youngs Moduli (GPa) = 148.29236 112.51193 55.68467
#
# Poissons Ratio (x) = 0.18780 0.23294
# Poissons Ratio (y) = 0.24753 0.04807
# Poissons Ratio (z) = 0.62033 0.09712
#
# Static dielectric constant tensor:
#      x y z
#    x 1.906510 0.000000 0.000000 
#    y 0.000000 1.896560 0.000000 
#    z 0.000000 0.000000 2.979340 
# 
# From -- ./inp_files/50982.got.cif
#   From: 2010.05.17/outbox.cif.g08.bks.cpg/sg22_26_cif.got.tgz:50982.got - 2010.06.03 23:40:54.
