data_PCOD9327092
_publ_section_title
;
Structure prediction by ZEFSAII (Michael W. Deem and Ramdas Pophale) SiO2 
 PCOD9327092
Probable space group: F 2 2 2
;
_chemical_formula_sum "Si O2"
_cell_formula_units_Z 112
_cell_length_a 14.634555
_cell_length_b 23.092688
_cell_length_c 15.411011
_cell_angle_alpha 90.000000
_cell_angle_beta 90.000000
_cell_angle_gamma 90.000000
_cell_volume 5208.169855
_symmetry_space_group_name_H-M "F 2 2 2"
_symmetry_group_IT_number 22
_symmetry_cell_setting 'orthorhombic'
loop_
_space_group_symop_operation_xyz
x,y,z
-x,-y,z
x,-y,-z
-x,y,-z
x,1/2+y,1/2+z
-x,1/2-y,1/2+z
x,1/2-y,1/2-z
-x,1/2+y,1/2-z
1/2+x,y,1/2+z
1/2-x,-y,1/2+z
1/2+x,-y,1/2-z
1/2-x,y,1/2-z
1/2+x,1/2+y,z
1/2-x,1/2-y,z
1/2+x,1/2-y,-z
1/2-x,1/2+y,-z
loop_
_atom_site_type_symbol
_atom_site_label
_atom_site_fract_x
_atom_site_fract_y
_atom_site_fract_z
Si Si1 0.398106 0.634453 0.276044
Si Si2 0.732131 0.109940 0.377214
Si Si3 0.063392 0.686898 0.682939
Si Si4 0.463598 0.579857 0.594295
Si Si5 0.641619 0.310735 0.637731
Si Si6 0.781747 0.980641 0.350471
Si Si7 0.685509 0.630517 0.068459
O O1 0.343981 0.605888 0.197049
O O2 0.315520 0.650014 0.341867
O O3 0.465722 0.680406 0.229928
O O4 0.461129 0.591906 0.332324
O O5 0.691332 0.132790 0.465773
O O6 0.768231 0.044621 0.388688
O O7 0.133793 0.671203 0.761060
O O8 0.090643 0.749143 0.643721
O O9 0.085865 0.641953 0.607557
O O10 0.500000 0.562871 0.500000
O O11 0.415838 0.642943 0.583005
O O12 0.386072 0.538321 0.632643
O O13 0.744240 0.320105 0.604937
O O14 0.750000 0.980864 0.250000
O O15 0.723271 0.930909 0.398248
#
# Coordination Sequence:
#
# PCOD9327092 Si02
#       7
#    16  16  16  16  16  16  16
#     4  10  21  42  62  88 129 178 212 265 324 402
#     4  11  24  42  61  85 141 179 212 265 337 401
#     4  10  20  38  67  96 125 169 218 273 332 392
#     4  10  21  39  68 100 125 153 222 283 321 389
#     4   9  19  38  65  94 132 162 200 279 345 385
#     4  11  21  41  65  91 126 178 209 263 341 398
#     4  11  21  36  64 100 128 165 218 275 325 398
#
# _framework density 21.504674999999999
#
# number of rings (size 3 to 8) (size 9 to 14) (size 15 to 20)
#    0.000    1.714    1.429    5.571    0.000    2.286 
#    5.143    3.571   12.571   15.429    0.000    0.000 
#    0.000    0.000    0.000    0.000    0.000    0.000 
#
# Total GULP energy -156235.036053 kJ/mol
# GULP energy per Si atom -5579.822716 kJ/mol
# Density = 2.145573 g / cm^3
# Si number density = 21.504675 Si / 1000 Ang^3
#
#
#
# Elastic Constant Matrix: (Units=GPa)
#
#
# Indices 1 2 3 4 5 6 
#
# 1 93.1879 29.4207 44.4072 0.0000 0.0000 0.0000
# 2 29.4207 72.3030 16.6786 0.0000 0.0000 0.0000
# 3 44.4072 16.6786 121.9719 0.0000 0.0000 0.0000
# 4 0.0000 0.0000 0.0000 18.4005 0.0000 0.0000
# 5 0.0000 0.0000 0.0000 0.0000 28.5526 0.0000
# 6 0.0000 0.0000 0.0000 0.0000 0.0000 21.0128
#
#
#
# Elastic Compliance Matrix: (Units=1/GPa)
#
#
# Indices 1 2 3 4 5 6 
#
# 1 0.014444 -0.004816 -0.004600 0.000000 0.000000 0.000000
# 2 -0.004816 0.015887 -0.000419 0.000000 0.000000 0.000000
# 3 -0.004600 -0.000419 0.009931 0.000000 0.000000 0.000000
# 4 0.000000 0.000000 0.000000 0.054346 0.000000 0.000000
# 5 0.000000 0.000000 0.000000 0.000000 0.035023 0.000000
# 6 0.000000 0.000000 0.000000 0.000000 0.000000 0.047590
#
#
# Mechanical properties :
#
#
# Convention : Reuss Voigt Hill
#
# Bulk Modulus (GPa) = 48.56470 52.05286 50.30878
# Shear Modulus (GPa) = 24.53930 26.72359 25.63145
#
# Velocity S-wave (km/s) = 3.38170 3.52900 3.45614
# Velocity P-wave (km/s) = 6.15469 6.39242 6.27468
#
# Compressibility (1/GPa) = 0.02059109
#
# Stress axis : x y z
#
# Youngs Moduli (GPa) = 69.23484 62.94440 100.69814
#
# Poissons Ratio (x) = 0.30315 0.46321
# Poissons Ratio (y) = 0.33344 0.04219
# Poissons Ratio (z) = 0.31848 0.02637
#
# Static dielectric constant tensor:
#      x y z
#    x 1.844140 0.000000 0.000000 
#    y 0.000000 1.810150 0.000000 
#    z 0.000000 0.000000 1.774900 
# 
# From -- ./inp_files/29640.got.cif
#   From: 2010.05.17/outbox.cif.g08.bks.cpg/sg22_15_cif.got.tgz:29640.got - 2010.06.03 23:40:54.
