data_PCOD9327293
_publ_section_title
;
Structure prediction by ZEFSAII (Michael W. Deem and Ramdas Pophale) SiO2 
 PCOD9327293
Probable space group: F 2 2 2
;
_chemical_formula_sum "Si O2"
_cell_formula_units_Z 68
_cell_length_a 5.139400
_cell_length_b 29.014880
_cell_length_c 21.284155
_cell_angle_alpha 90.000000
_cell_angle_beta 90.000000
_cell_angle_gamma 90.000000
_cell_volume 3173.873490
_symmetry_space_group_name_H-M "F 2 2 2"
_symmetry_group_IT_number 22
_symmetry_cell_setting 'orthorhombic'
loop_
_space_group_symop_operation_xyz
x,y,z
-x,-y,z
x,-y,-z
-x,y,-z
x,1/2+y,1/2+z
-x,1/2-y,1/2+z
x,1/2-y,1/2-z
-x,1/2+y,1/2-z
1/2+x,y,1/2+z
1/2-x,-y,1/2+z
1/2+x,-y,1/2-z
1/2-x,y,1/2-z
1/2+x,1/2+y,z
1/2-x,1/2-y,z
1/2+x,1/2-y,-z
1/2-x,1/2+y,-z
loop_
_atom_site_type_symbol
_atom_site_label
_atom_site_fract_x
_atom_site_fract_y
_atom_site_fract_z
Si Si1 0.397736 0.336665 0.125846
Si Si2 0.500000 0.000000 0.500000
Si Si3 0.888862 0.365563 0.184506
Si Si4 0.250000 0.250000 0.457390
Si Si5 0.000000 0.500000 0.293644
Si Si6 0.111220 0.429992 0.602591
O O1 0.681105 0.328804 0.156475
O O2 0.308048 0.294546 0.084521
O O3 0.446448 0.384087 0.086733
O O4 0.179569 0.347469 0.178396
O O5 0.346155 0.034610 0.546232
O O6 0.750000 0.378496 0.250000
O O7 0.863756 0.408704 0.136594
O O8 0.500000 0.259298 0.500000
O O9 0.750000 0.495227 0.250000
O O10 0.030108 0.457142 0.340964
#
# Coordination Sequence:
#
# PCOD9327293 Si02
#       6
#    16   4  16   8   8  16
#     4  10  24  41  67  99 129 170 231 272 345 399
#     4  10  20  48  54 100 130 182 226 278 326 396
#     4  10  21  41  69  97 132 174 218 279 342 405
#     4  12  26  46  71  98 133 182 230 278 330 416
#     4  11  24  37  66  95 130 169 228 266 322 401
#     4   9  24  38  67  90 136 174 221 275 333 391
#
# _framework density 21.424925000000002
#
# number of rings (size 3 to 8) (size 9 to 14) (size 15 to 20)
#    1.412    0.471    0.000    2.824    8.235    0.000 
#    0.000    4.706    0.000    0.000    0.000    0.000 
#    0.000    0.000    0.000    0.000    0.000    0.000 
#
# Total GULP energy -94699.362089 kJ/mol
# GULP energy per Si atom -5570.550711 kJ/mol
# Density = 2.137616 g / cm^3
# Si number density = 21.424925 Si / 1000 Ang^3
#
#
#
# Elastic Constant Matrix: (Units=GPa)
#
#
# Indices 1 2 3 4 5 6 
#
# 1 80.9259 13.7855 10.7225 0.0000 0.0000 0.0000
# 2 13.7855 131.2978 48.7167 0.0000 0.0000 0.0000
# 3 10.7225 48.7167 99.0632 0.0000 0.0000 0.0000
# 4 0.0000 0.0000 0.0000 15.1100 0.0000 0.0000
# 5 0.0000 0.0000 0.0000 0.0000 28.5757 0.0000
# 6 0.0000 0.0000 0.0000 0.0000 0.0000 14.8314
#
#
#
# Elastic Compliance Matrix: (Units=1/GPa)
#
#
# Indices 1 2 3 4 5 6 
#
# 1 0.012644 -0.001003 -0.000875 0.000000 0.000000 0.000000
# 2 -0.001003 0.009396 -0.004512 0.000000 0.000000 0.000000
# 3 -0.000875 -0.004512 0.012408 0.000000 0.000000 0.000000
# 4 0.000000 0.000000 0.000000 0.066181 0.000000 0.000000
# 5 0.000000 0.000000 0.000000 0.000000 0.034995 0.000000
# 6 0.000000 0.000000 0.000000 0.000000 0.000000 0.067425
#
#
# Mechanical properties :
#
#
# Convention : Reuss Voigt Hill
#
# Bulk Modulus (GPa) = 46.15241 50.85960 48.50601
# Shear Modulus (GPa) = 22.41638 27.57424 24.99531
#
# Velocity S-wave (km/s) = 3.23813 3.59139 3.41933
# Velocity P-wave (km/s) = 5.96396 6.40215 6.18694
#
# Compressibility (1/GPa) = 0.02166734
#
# Stress axis : x y z
#
# Youngs Moduli (GPa) = 79.09029 106.43175 80.59167
#
# Poissons Ratio (x) = 0.10672 0.07055
# Poissons Ratio (y) = 0.07930 0.36363
# Poissons Ratio (z) = 0.06924 0.48022
#
# Static dielectric constant tensor:
#      x y z
#    x 1.768560 0.000000 0.000000 
#    y 0.000000 1.788520 0.000000 
#    z 0.000000 0.000000 1.799110 
# 
# From -- ./inp_files/41126.got.cif
#   From: 2010.05.17/outbox.cif.g08.bks.cpg/sg22_21_cif.got.tgz:41126.got - 2010.06.03 23:40:54.
