data_PCOD9327320
_publ_section_title
;
Structure prediction by ZEFSAII (Michael W. Deem and Ramdas Pophale) SiO2 
 PCOD9327320
Probable space group: F 2 2 2
;
_chemical_formula_sum "Si O2"
_cell_formula_units_Z 60
_cell_length_a 22.234095
_cell_length_b 5.119465
_cell_length_c 21.019167
_cell_angle_alpha 90.000000
_cell_angle_beta 90.000000
_cell_angle_gamma 90.000000
_cell_volume 2392.541810
_symmetry_space_group_name_H-M "F 2 2 2"
_symmetry_group_IT_number 22
_symmetry_cell_setting 'orthorhombic'
loop_
_space_group_symop_operation_xyz
x,y,z
-x,-y,z
x,-y,-z
-x,y,-z
x,1/2+y,1/2+z
-x,1/2-y,1/2+z
x,1/2-y,1/2-z
-x,1/2+y,1/2-z
1/2+x,y,1/2+z
1/2-x,-y,1/2+z
1/2+x,-y,1/2-z
1/2-x,y,1/2-z
1/2+x,1/2+y,z
1/2-x,1/2-y,z
1/2+x,1/2-y,-z
1/2-x,1/2+y,-z
loop_
_atom_site_type_symbol
_atom_site_label
_atom_site_fract_x
_atom_site_fract_y
_atom_site_fract_z
Si Si1 0.643643 0.250000 0.750000
Si Si2 0.950146 0.348266 0.190460
Si Si3 0.319484 0.266293 0.393629
Si Si4 0.000000 0.500000 0.000000
Si Si5 0.394919 0.794688 0.425231
O O1 0.602344 0.486699 0.723770
O O2 0.678490 0.197900 0.683110
O O3 0.987388 0.250000 0.250000
O O4 0.924750 0.137528 0.143398
O O5 0.000000 0.500000 0.150223
O O6 0.250000 0.250000 0.412200
O O7 0.351407 0.544412 0.409983
O O8 0.356061 0.052983 0.434399
O O9 0.049547 0.697004 0.032344
#
# Coordination Sequence:
#
# PCOD9327320 Si02
#       5
#     8  16  16   4  16
#     4  10  21  34  62 100 148 192 231 290 374 444
#     4  11  19  34  59  99 145 187 232 295 376 451
#     4  11  24  45  70 106 147 193 247 298 365 452
#     4  12  28  54  76 110 152 194 260 322 384 438
#     4  11  26  44  72 105 142 197 245 308 373 434
#
# _framework density 25.077929999999999
#
# number of rings (size 3 to 8) (size 9 to 14) (size 15 to 20)
#    0.000    1.067    5.333    1.200    0.000    3.200 
#    0.000    5.333    0.000    0.000    0.000    0.000 
#    0.000    0.000    0.000    0.000    0.000    0.000 
#
# Total GULP energy -83546.916686 kJ/mol
# GULP energy per Si atom -5569.794446 kJ/mol
# Density = 2.502085 g / cm^3
# Si number density = 25.077930 Si / 1000 Ang^3
#
#
#
# Elastic Constant Matrix: (Units=GPa)
#
#
# Indices 1 2 3 4 5 6 
#
# 1 147.1847 28.8923 20.0960 -0.0008 0.0011 -0.0003
# 2 28.8923 106.9810 -0.5836 -0.0006 0.0027 -0.0002
# 3 20.0960 -0.5836 32.0628 -0.0028 0.0016 0.0000
# 4 -0.0008 -0.0006 -0.0028 21.2581 0.0005 0.0000
# 5 0.0011 0.0027 0.0016 0.0005 7.2494 0.0015
# 6 -0.0003 -0.0002 0.0000 0.0000 0.0015 26.5726
#
#
#
# Elastic Compliance Matrix: (Units=1/GPa)
#
#
# Indices 1 2 3 4 5 6 
#
# 1 0.007900 -0.002161 -0.004991 0.000000 0.000001 0.000000
# 2 -0.002161 0.009939 0.001535 0.000000 -0.000004 0.000000
# 3 -0.004991 0.001535 0.034345 0.000004 -0.000008 0.000000
# 4 0.000000 0.000000 0.000004 0.047041 -0.000003 0.000000
# 5 0.000001 -0.000004 -0.000008 -0.000003 0.137943 -0.000008
# 6 0.000000 0.000000 0.000000 0.000000 -0.000008 0.037633
#
#
# Mechanical properties :
#
#
# Convention : Reuss Voigt Hill
#
# Bulk Modulus (GPa) = 24.41914 42.55976 33.48945
# Shear Modulus (GPa) = 16.68426 26.87093 21.77759
#
# Velocity S-wave (km/s) = 2.58213 3.27692 2.95005
# Velocity P-wave (km/s) = 4.31837 5.59692 4.99869
#
# Compressibility (1/GPa) = 0.04095149
#
# Stress axis : x y z
#
# Youngs Moduli (GPa) = 126.58658 100.61003 29.11653
#
# Poissons Ratio (x) = 0.21739 0.14531
# Poissons Ratio (y) = 0.27352 -0.04470
# Poissons Ratio (z) = 0.63175 -0.15445
#
# Static dielectric constant tensor:
#      x y z
#    x 1.932450 0.000010 0.000000 
#    y 0.000010 2.401880 -0.000010 
#    z 0.000000 -0.000010 2.123280 
# 
# From -- ./inp_files/4395.got.cif
#   From: 2010.05.17/outbox.cif.g08.bks.cpg/sg22_3_cif.got.tgz:4395.got - 2010.06.03 23:40:54.
