data_PCOD9327900
_publ_section_title
;
Structure prediction by ZEFSAII (Michael W. Deem and Ramdas Pophale) SiO2 
 PCOD9327900
Probable space group: F 2 2 2
;
_chemical_formula_sum "Si O2"
_cell_formula_units_Z 64
_cell_length_a 13.729340
_cell_length_b 24.937907
_cell_length_c 8.145842
_cell_angle_alpha 90.000000
_cell_angle_beta 90.000000
_cell_angle_gamma 90.000000
_cell_volume 2788.981563
_symmetry_space_group_name_H-M "F 2 2 2"
_symmetry_group_IT_number 22
_symmetry_cell_setting 'orthorhombic'
loop_
_space_group_symop_operation_xyz
x,y,z
-x,-y,z
x,-y,-z
-x,y,-z
x,1/2+y,1/2+z
-x,1/2-y,1/2+z
x,1/2-y,1/2-z
-x,1/2+y,1/2-z
1/2+x,y,1/2+z
1/2-x,-y,1/2+z
1/2+x,-y,1/2-z
1/2-x,y,1/2-z
1/2+x,1/2+y,z
1/2-x,1/2-y,z
1/2+x,1/2-y,-z
1/2-x,1/2+y,-z
loop_
_atom_site_type_symbol
_atom_site_label
_atom_site_fract_x
_atom_site_fract_y
_atom_site_fract_z
Si Si1 0.884393 0.144200 0.013184
Si Si2 0.878080 0.846546 0.628132
Si Si3 0.585329 0.192741 0.805988
Si Si4 0.744085 0.439442 0.552226
O O1 0.844919 0.165395 0.186147
O O2 0.850188 0.171852 0.844552
O O3 0.848278 0.083103 0.008481
O O4 0.000000 0.150326 0.000000
O O5 0.866034 0.802851 0.484313
O O6 0.831375 0.899242 0.541870
O O7 0.995230 0.847884 0.663034
O O8 0.545082 0.250000 0.750000
O O9 0.725396 0.500000 0.500000
O O10 0.750000 0.435895 0.750000
#
# Coordination Sequence:
#
# PCOD9327900 Si02
#       4
#    16  16  16  16
#     4  10  22  41  67  97 138 175 227 278 330 407
#     4  10  22  39  66 100 133 171 227 277 330 403
#     4  10  22  40  69  99 134 176 221 277 340 399
#     4  12  24  45  69  97 139 181 224 286 347 396
#
# _framework density 22.947444000000001
#
# number of rings (size 3 to 8) (size 9 to 14) (size 15 to 20)
#    0.000    1.500    2.500    2.250   10.500    0.500 
#    0.000    5.000    5.500    0.000    0.000    0.000 
#    0.000    0.000    0.000    0.000    0.000    0.000 
#
# Total GULP energy -89079.712035 kJ/mol
# GULP energy per Si atom -5567.482002 kJ/mol
# Density = 2.289521 g / cm^3
# Si number density = 22.947444 Si / 1000 Ang^3
#
#
#
# Elastic Constant Matrix: (Units=GPa)
#
#
# Indices 1 2 3 4 5 6 
#
# 1 83.0917 19.7632 45.3428 0.0000 0.0000 0.0000
# 2 19.7632 77.9595 52.5095 0.0000 0.0000 0.0000
# 3 45.3428 52.5095 283.1931 0.0000 0.0000 0.0000
# 4 0.0000 0.0000 0.0000 34.9767 0.0000 0.0000
# 5 0.0000 0.0000 0.0000 0.0000 33.6585 0.0000
# 6 0.0000 0.0000 0.0000 0.0000 0.0000 18.4698
#
#
#
# Elastic Compliance Matrix: (Units=1/GPa)
#
#
# Indices 1 2 3 4 5 6 
#
# 1 0.013524 -0.002251 -0.001748 0.000000 0.000000 0.000000
# 2 -0.002251 0.015032 -0.002427 0.000000 0.000000 0.000000
# 3 -0.001748 -0.002427 0.004261 0.000000 0.000000 0.000000
# 4 0.000000 0.000000 0.000000 0.028590 0.000000 0.000000
# 5 0.000000 0.000000 0.000000 0.000000 0.029710 0.000000
# 6 0.000000 0.000000 0.000000 0.000000 0.000000 0.054142
#
#
# Mechanical properties :
#
#
# Convention : Reuss Voigt Hill
#
# Bulk Modulus (GPa) = 50.08587 75.49726 62.79156
# Shear Modulus (GPa) = 30.34573 39.19628 34.77100
#
# Velocity S-wave (km/s) = 3.64043 4.13739 3.89684
# Velocity P-wave (km/s) = 6.28840 7.46964 6.90433
#
# Compressibility (1/GPa) = 0.01996571
#
# Stress axis : x y z
#
# Youngs Moduli (GPa) = 73.94152 66.52273 234.68537
#
# Poissons Ratio (x) = 0.14975 0.41023
# Poissons Ratio (y) = 0.16645 0.56955
# Poissons Ratio (z) = 0.12925 0.16144
#
# Static dielectric constant tensor:
#      x y z
#    x 1.941630 0.000000 0.000000 
#    y 0.000000 1.810890 0.000000 
#    z 0.000000 0.000000 1.994830 
# 
# From -- ./inp_files/9799.got.cif
#   From: 2010.05.17/outbox.cif.g08.bks.cpg/sg22_5_cif.got.tgz:9799.got - 2010.06.03 23:40:54.
