data_PCOD9327582
_publ_section_title
;
Structure prediction by ZEFSAII (Michael W. Deem and Ramdas Pophale) SiO2 
 PCOD9327582
Probable space group: F 2 2 2
;
_chemical_formula_sum "Si O2"
_cell_formula_units_Z 88
_cell_length_a 8.414729
_cell_length_b 18.999799
_cell_length_c 23.875534
_cell_angle_alpha 90.000000
_cell_angle_beta 90.000000
_cell_angle_gamma 90.000000
_cell_volume 3817.176436
_symmetry_space_group_name_H-M "F 2 2 2"
_symmetry_group_IT_number 22
_symmetry_cell_setting 'orthorhombic'
loop_
_space_group_symop_operation_xyz
x,y,z
-x,-y,z
x,-y,-z
-x,y,-z
x,1/2+y,1/2+z
-x,1/2-y,1/2+z
x,1/2-y,1/2-z
-x,1/2+y,1/2-z
1/2+x,y,1/2+z
1/2-x,-y,1/2+z
1/2+x,-y,1/2-z
1/2-x,y,1/2-z
1/2+x,1/2+y,z
1/2-x,1/2-y,z
1/2+x,1/2-y,-z
1/2-x,1/2+y,-z
loop_
_atom_site_type_symbol
_atom_site_label
_atom_site_fract_x
_atom_site_fract_y
_atom_site_fract_z
Si Si1 0.865081 0.352136 0.102492
Si Si2 0.580515 0.712740 0.305478
Si Si3 0.258849 0.069838 0.191685
Si Si4 0.750000 0.750000 0.993012
Si Si5 0.500000 0.855665 0.500000
Si Si6 0.535789 0.083019 0.378948
Si Si7 0.000000 0.000000 0.390069
O O1 0.831945 0.305965 0.048132
O O2 0.703238 0.378468 0.133605
O O3 0.964897 0.300311 0.142531
O O4 0.951698 0.424977 0.083303
O O5 0.514003 0.750000 0.250000
O O6 0.750000 0.750000 0.318446
O O7 0.623568 0.632381 0.290733
O O8 0.250000 0.027546 0.250000
O O9 0.348903 0.022154 0.146869
O O10 0.107854 0.106748 0.161598
O O11 0.630038 0.699368 0.024280
O O12 0.468586 0.902465 0.445764
O O13 0.500000 0.000000 0.371508
#
# Coordination Sequence:
#
# PCOD9327582 Si02
#       7
#    16  16  16   8   8  16   8
#     4  10  23  42  67 100 135 180 241 290 364 431
#     4  10  21  40  62  96 141 186 230 278 351 432
#     4  11  23  39  65  99 138 183 236 281 356 426
#     4  10  24  44  67 102 133 166 240 298 364 430
#     4  10  25  44  72 101 132 184 232 298 366 429
#     4  11  23  46  71 100 137 183 238 302 361 430
#     4  10  22  40  62  95 136 189 228 288 354 438
#
# _framework density 23.053691000000001
#
# number of rings (size 3 to 8) (size 9 to 14) (size 15 to 20)
#    0.000    1.636    3.636    0.273    6.364    2.909 
#    0.000    9.545    0.000    1.091    0.000    0.000 
#    0.000    0.000    0.000    0.000    0.000    0.000 
#
# Total GULP energy -122470.149635 kJ/mol
# GULP energy per Si atom -5566.824983 kJ/mol
# Density = 2.300122 g / cm^3
# Si number density = 23.053691 Si / 1000 Ang^3
#
#
#
# Elastic Constant Matrix: (Units=GPa)
#
#
# Indices 1 2 3 4 5 6 
#
# 1 65.5208 -8.5343 5.8910 0.0000 0.0000 0.0000
# 2 -8.5343 104.8156 6.1130 0.0000 0.0000 0.0000
# 3 5.8910 6.1130 30.0073 0.0000 0.0000 0.0000
# 4 0.0000 0.0000 0.0000 23.7175 0.0000 0.0000
# 5 0.0000 0.0000 0.0000 0.0000 25.3821 0.0000
# 6 0.0000 0.0000 0.0000 0.0000 0.0000 32.9870
#
#
#
# Elastic Compliance Matrix: (Units=1/GPa)
#
#
# Indices 1 2 3 4 5 6 
#
# 1 0.015761 0.001481 -0.003396 0.000000 0.000000 0.000000
# 2 0.001481 0.009795 -0.002286 0.000000 0.000000 0.000000
# 3 -0.003396 -0.002286 0.034458 0.000000 0.000000 0.000000
# 4 0.000000 0.000000 0.000000 0.042163 0.000000 0.000000
# 5 0.000000 0.000000 0.000000 0.000000 0.039398 0.000000
# 6 0.000000 0.000000 0.000000 0.000000 0.000000 0.030315
#
#
# Mechanical properties :
#
#
# Convention : Reuss Voigt Hill
#
# Bulk Modulus (GPa) = 19.37558 23.03146 21.20352
# Shear Modulus (GPa) = 25.31727 29.54224 27.42976
#
# Velocity S-wave (km/s) = 3.31749 3.58362 3.45312
# Velocity P-wave (km/s) = 4.80594 5.20914 5.01160
#
# Compressibility (1/GPa) = 0.05161137
#
# Stress axis : x y z
#
# Youngs Moduli (GPa) = 63.44936 102.09808 29.02119
#
# Poissons Ratio (x) = -0.15124 0.09855
# Poissons Ratio (y) = -0.09399 0.06635
# Poissons Ratio (z) = 0.21546 0.23341
#
# Static dielectric constant tensor:
#      x y z
#    x 1.971260 0.000000 0.000000 
#    y 0.000000 1.870250 0.000000 
#    z 0.000000 0.000000 1.929720 
# 
# From -- ./inp_files/47292.got.cif
#   From: 2010.05.17/outbox.cif.g08.bks.cpg/sg22_24_cif.got.tgz:47292.got - 2010.06.03 23:40:54.
