data_PCOD9327722
_publ_section_title
;
Structure prediction by ZEFSAII (Michael W. Deem and Ramdas Pophale) SiO2 
 PCOD9327722
Probable space group: F 2 2 2
;
_chemical_formula_sum "Si O2"
_cell_formula_units_Z 48
_cell_length_a 8.238948
_cell_length_b 15.923737
_cell_length_c 15.509233
_cell_angle_alpha 90.000000
_cell_angle_beta 90.000000
_cell_angle_gamma 90.000000
_cell_volume 2034.731359
_symmetry_space_group_name_H-M "F 2 2 2"
_symmetry_group_IT_number 22
_symmetry_cell_setting 'orthorhombic'
loop_
_space_group_symop_operation_xyz
x,y,z
-x,-y,z
x,-y,-z
-x,y,-z
x,1/2+y,1/2+z
-x,1/2-y,1/2+z
x,1/2-y,1/2-z
-x,1/2+y,1/2-z
1/2+x,y,1/2+z
1/2-x,-y,1/2+z
1/2+x,-y,1/2-z
1/2-x,y,1/2-z
1/2+x,1/2+y,z
1/2-x,1/2-y,z
1/2+x,1/2-y,-z
1/2-x,1/2+y,-z
loop_
_atom_site_type_symbol
_atom_site_label
_atom_site_fract_x
_atom_site_fract_y
_atom_site_fract_z
Si Si1 0.925216 0.416047 0.594594
Si Si2 0.056599 0.239666 0.599953
Si Si3 0.387094 0.580897 0.673929
O O1 0.733066 0.424970 0.591861
O O2 0.000000 0.500000 0.635901
O O3 0.000000 0.412571 0.500000
O O4 0.976960 0.326694 0.632903
O O5 0.250000 0.250000 0.601451
O O6 0.000000 0.227234 0.500000
O O7 0.994235 0.163105 0.657911
O O8 0.500000 0.500000 0.679483
O O9 0.250000 0.585297 0.750000
#
# Coordination Sequence:
#
# PCOD9327722 Si02
#       3
#    16  16  16
#     4  10  21  42  70 103 141 181 227 283 342 416
#     4  11  23  43  73 110 143 182 234 290 350 422
#     4  12  27  47  69 100 143 190 239 294 352 416
#
# _framework density 23.590339
#
# number of rings (size 3 to 8) (size 9 to 14) (size 15 to 20)
#    0.000    1.000    0.000    8.000    0.000    6.000 
#    0.000    1.667    0.000    0.000    0.000    0.000 
#    0.000    0.000    0.000    0.000    0.000    0.000 
#
# Total GULP energy -67113.188532 kJ/mol
# GULP energy per Si atom -5592.765711 kJ/mol
# Density = 2.353665 g / cm^3
# Si number density = 23.590339 Si / 1000 Ang^3
#
#
#
# Elastic Constant Matrix: (Units=GPa)
#
#
# Indices 1 2 3 4 5 6 
#
# 1 229.8914 115.3826 66.2159 0.0000 0.0000 0.0000
# 2 115.3826 290.4076 55.8764 0.0000 0.0000 0.0000
# 3 66.2159 55.8764 100.1236 0.0000 0.0000 0.0000
# 4 0.0000 0.0000 0.0000 -16.5382 0.0000 0.0000
# 5 0.0000 0.0000 0.0000 0.0000 45.5149 0.0000
# 6 0.0000 0.0000 0.0000 0.0000 0.0000 56.8077
#
#
#
# Elastic Compliance Matrix: (Units=1/GPa)
#
#
# Indices 1 2 3 4 5 6 
#
# 1 0.006159 -0.001863 -0.003033 0.000000 0.000000 0.000000
# 2 -0.001863 0.004421 -0.001235 0.000000 0.000000 0.000000
# 3 -0.003033 -0.001235 0.012683 0.000000 0.000000 0.000000
# 4 0.000000 0.000000 0.000000 -0.060466 0.000000 0.000000
# 5 0.000000 0.000000 0.000000 0.000000 0.021971 0.000000
# 6 0.000000 0.000000 0.000000 0.000000 0.000000 0.017603
#
#
# Mechanical properties :
#
#
# Convention : Reuss Voigt Hill
#
# Bulk Modulus (GPa) = 90.91114 121.70805 106.30959
# Shear Modulus (GPa) = 273.21143 42.68673 157.94908
#
# Velocity S-wave (km/s) = 10.77341 4.25844 8.19148
# Velocity P-wave (km/s) = 13.90598 8.71111 11.60301
#
# Compressibility (1/GPa) = 0.01099975
#
# Stress axis : x y z
#
# Youngs Moduli (GPa) = 162.37106 226.17160 78.84616
#
# Poissons Ratio (x) = 0.42144 0.23915
# Poissons Ratio (y) = 0.30255 0.09739
# Poissons Ratio (z) = 0.49249 0.27936
#
# Static dielectric constant tensor:
#      x y z
#    x 1.865320 0.000000 0.000000 
#    y 0.000000 1.907040 0.000000 
#    z 0.000000 0.000000 2.105880 
# 
# From -- ./inp_files/10606.got.cif
#   From: 2010.05.17/outbox.cif.g08.bks.cpg/sg22_6_cif.got.tgz:10606.got - 2010.06.03 23:40:54.
