data_PCOD9327651
_publ_section_title
;
Structure prediction by ZEFSAII (Michael W. Deem and Ramdas Pophale) SiO2 
 PCOD9327651
Probable space group: F 2 2 2
;
_chemical_formula_sum "Si O2"
_cell_formula_units_Z 120
_cell_length_a 13.122977
_cell_length_b 22.148136
_cell_length_c 19.428524
_cell_angle_alpha 90.000000
_cell_angle_beta 90.000000
_cell_angle_gamma 90.000000
_cell_volume 5646.890385
_symmetry_space_group_name_H-M "F 2 2 2"
_symmetry_group_IT_number 22
_symmetry_cell_setting 'orthorhombic'
loop_
_space_group_symop_operation_xyz
x,y,z
-x,-y,z
x,-y,-z
-x,y,-z
x,1/2+y,1/2+z
-x,1/2-y,1/2+z
x,1/2-y,1/2-z
-x,1/2+y,1/2-z
1/2+x,y,1/2+z
1/2-x,-y,1/2+z
1/2+x,-y,1/2-z
1/2-x,y,1/2-z
1/2+x,1/2+y,z
1/2-x,1/2-y,z
1/2+x,1/2-y,-z
1/2-x,1/2+y,-z
loop_
_atom_site_type_symbol
_atom_site_label
_atom_site_fract_x
_atom_site_fract_y
_atom_site_fract_z
Si Si1 0.781909 0.685593 0.086802
Si Si2 0.994888 0.323479 0.862846
Si Si3 0.458593 0.433777 0.922162
Si Si4 0.100126 0.119200 0.528232
Si Si5 0.273727 0.978005 0.080766
Si Si6 0.604454 0.367537 0.818800
Si Si7 0.411041 0.549895 0.689752
Si Si8 0.491766 0.750000 0.750000
O O1 0.750000 0.750000 0.056319
O O2 0.699546 0.651855 0.133834
O O3 0.881839 0.703390 0.130309
O O4 0.821775 0.639428 0.029535
O O5 0.052370 0.323294 0.934402
O O6 0.054337 0.282946 0.809250
O O7 0.967337 0.392257 0.844033
O O8 0.500000 0.500000 0.906713
O O9 0.338506 0.448113 0.914326
O O10 0.511930 0.388853 0.868370
O O11 0.500000 0.418854 0.000000
O O12 0.153126 0.079042 0.584303
O O13 0.000000 0.085287 0.500000
O O14 0.321782 0.023957 0.138144
O O15 0.282049 0.000000 0.000000
O O16 0.625251 0.420902 0.762874
O O17 0.571575 0.307008 0.778717
O O18 0.500000 0.500000 0.700532
#
# Coordination Sequence:
#
# PCOD9327651 Si02
#       8
#    16  16  16  16  16  16  16   8
#     4  11  22  41  67 107 133 177 233 293 354 410
#     4  10  21  41  65 100 136 176 227 285 351 415
#     4  11  24  47  67  98 145 184 229 283 344 426
#     4  10  22  40  66 100 138 168 229 294 346 409
#     4  12  23  42  71 101 137 184 229 281 348 413
#     4  11  25  46  69 104 140 183 236 282 363 413
#     4  11  24  43  70 106 141 184 227 289 352 418
#     4  10  22  43  70  91 144 180 220 293 344 415
#
# _framework density 21.250634000000002
#
# number of rings (size 3 to 8) (size 9 to 14) (size 15 to 20)
#    0.000    1.200    4.000    2.800    1.867    2.667 
#    7.200    0.000    0.000    0.800    0.000    0.000 
#    0.000    0.000    0.000    0.000    0.000    0.000 
#
# Total GULP energy -167087.332398 kJ/mol
# GULP energy per Si atom -5569.577747 kJ/mol
# Density = 2.120227 g / cm^3
# Si number density = 21.250634 Si / 1000 Ang^3
#
#
#
# Elastic Constant Matrix: (Units=GPa)
#
#
# Indices 1 2 3 4 5 6 
#
# 1 121.9109 35.5778 54.9222 0.0000 0.0000 0.0000
# 2 35.5778 95.8291 63.2296 0.0000 0.0000 0.0000
# 3 54.9222 63.2296 117.0427 0.0000 0.0000 0.0000
# 4 0.0000 0.0000 0.0000 33.8518 0.0000 0.0000
# 5 0.0000 0.0000 0.0000 0.0000 29.0307 0.0000
# 6 0.0000 0.0000 0.0000 0.0000 0.0000 3.9047
#
#
#
# Elastic Compliance Matrix: (Units=1/GPa)
#
#
# Indices 1 2 3 4 5 6 
#
# 1 0.010463 -0.001002 -0.004368 0.000000 0.000000 0.000000
# 2 -0.001002 0.016311 -0.008341 0.000000 0.000000 0.000000
# 3 -0.004368 -0.008341 0.015100 0.000000 0.000000 0.000000
# 4 0.000000 0.000000 0.000000 0.029540 0.000000 0.000000
# 5 0.000000 0.000000 0.000000 0.000000 0.034446 0.000000
# 6 0.000000 0.000000 0.000000 0.000000 0.000000 0.256099
#
#
# Mechanical properties :
#
#
# Convention : Reuss Voigt Hill
#
# Bulk Modulus (GPa) = 69.20306 71.36020 70.28163
# Shear Modulus (GPa) = 12.68390 25.42766 19.05578
#
# Velocity S-wave (km/s) = 2.44575 3.46289 2.99777
# Velocity P-wave (km/s) = 6.37271 7.04570 6.71764
#
# Compressibility (1/GPa) = 0.01445023
#
# Stress axis : x y z
#
# Youngs Moduli (GPa) = 95.57284 61.30772 66.22500
#
# Poissons Ratio (x) = 0.06145 0.28930
# Poissons Ratio (y) = 0.09579 0.55241
# Poissons Ratio (z) = 0.41750 0.51139
#
# Static dielectric constant tensor:
#      x y z
#    x -0.455950 0.000000 0.000000 
#    y 0.000000 1.778490 0.000000 
#    z 0.000000 0.000000 1.879350 
# 
# From -- ./inp_files/42938.got.cif
#   From: 2010.05.17/outbox.cif.g08.bks.cpg/sg22_22_cif.got.tgz:42938.got - 2010.06.03 23:40:54.
