data_PCOD9327360
_publ_section_title
;
Structure prediction by ZEFSAII (Michael W. Deem and Ramdas Pophale) SiO2 
 PCOD9327360
Probable space group: F 2 2 2
;
_chemical_formula_sum "Si O2"
_cell_formula_units_Z 96
_cell_length_a 13.297843
_cell_length_b 15.817891
_cell_length_c 22.179071
_cell_angle_alpha 90.000000
_cell_angle_beta 90.000000
_cell_angle_gamma 90.000000
_cell_volume 4665.230765
_symmetry_space_group_name_H-M "F 2 2 2"
_symmetry_group_IT_number 22
_symmetry_cell_setting 'orthorhombic'
loop_
_space_group_symop_operation_xyz
x,y,z
-x,-y,z
x,-y,-z
-x,y,-z
x,1/2+y,1/2+z
-x,1/2-y,1/2+z
x,1/2-y,1/2-z
-x,1/2+y,1/2-z
1/2+x,y,1/2+z
1/2-x,-y,1/2+z
1/2+x,-y,1/2-z
1/2-x,y,1/2-z
1/2+x,1/2+y,z
1/2-x,1/2-y,z
1/2+x,1/2-y,-z
1/2-x,1/2+y,-z
loop_
_atom_site_type_symbol
_atom_site_label
_atom_site_fract_x
_atom_site_fract_y
_atom_site_fract_z
Si Si1 0.024788 0.640566 0.300962
Si Si2 0.722980 0.050461 0.314957
Si Si3 0.903703 0.328595 0.174864
Si Si4 0.841085 0.804570 0.124606
Si Si5 0.229074 0.952469 0.562756
Si Si6 0.965121 0.152477 0.566284
O O1 0.104361 0.569160 0.318914
O O2 0.023695 0.638555 0.228507
O O3 0.081646 0.727991 0.320197
O O4 0.915029 0.645557 0.330203
O O5 0.750000 0.008399 0.250000
O O6 0.793199 0.134949 0.313311
O O7 0.753394 0.003812 0.375817
O O8 0.942976 0.362376 0.111347
O O9 0.750000 0.750000 0.153790
O O10 0.794920 0.867884 0.074991
O O11 0.908339 0.733439 0.093282
O O12 0.113414 0.923556 0.562104
O O13 0.253310 0.000000 0.500000
O O14 0.000000 0.172929 0.500000
#
# Coordination Sequence:
#
# PCOD9327360 Si02
#       6
#    16  16  16  16  16  16
#     4   9  18  36  59  85 114 150 192 235 284 337
#     4  10  21  36  57  86 120 153 188 232 286 347
#     4   9  18  34  59  87 112 146 193 239 279 333
#     4   9  21  41  60  82 112 148 195 240 285 346
#     4  11  24  39  56  84 118 151 187 236 295 353
#     4  10  21  39  61  81 106 146 194 241 288 342
#
# _framework density 20.577759
#
# number of rings (size 3 to 8) (size 9 to 14) (size 15 to 20)
#    0.000    2.333    0.000    1.500    0.000    9.000 
#    0.000   24.167    0.000    0.000    0.000    0.000 
#    0.000    0.000    0.000    0.000    0.000    0.000 
#
# Total GULP energy -133866.322443 kJ/mol
# GULP energy per Si atom -5577.763435 kJ/mol
# Density = 2.053092 g / cm^3
# Si number density = 20.577759 Si / 1000 Ang^3
#
#
#
# Elastic Constant Matrix: (Units=GPa)
#
#
# Indices 1 2 3 4 5 6 
#
# 1 102.7678 6.4395 44.1812 0.0000 0.0000 0.0000
# 2 6.4395 39.2025 10.8068 0.0000 0.0000 0.0000
# 3 44.1812 10.8068 116.0538 0.0000 0.0000 0.0000
# 4 0.0000 0.0000 0.0000 -2.1281 0.0000 0.0000
# 5 0.0000 0.0000 0.0000 0.0000 18.1485 0.0000
# 6 0.0000 0.0000 0.0000 0.0000 0.0000 7.4197
#
#
#
# Elastic Compliance Matrix: (Units=1/GPa)
#
#
# Indices 1 2 3 4 5 6 
#
# 1 0.011654 -0.000710 -0.004371 0.000000 0.000000 0.000000
# 2 -0.000710 0.026224 -0.002172 0.000000 0.000000 0.000000
# 3 -0.004371 -0.002172 0.010483 0.000000 0.000000 0.000000
# 4 0.000000 0.000000 0.000000 -0.469895 0.000000 0.000000
# 5 0.000000 0.000000 0.000000 0.000000 0.055101 0.000000
# 6 0.000000 0.000000 0.000000 0.000000 0.000000 0.134777
#
#
# Mechanical properties :
#
#
# Convention : Reuss Voigt Hill
#
# Bulk Modulus (GPa) = 29.53613 42.31991 35.92802
# Shear Modulus (GPa) = -24.28754 17.79444 -3.24655
#
# Velocity S-wave (km/s) = -3.43925 2.94384 -1.25743
# Velocity P-wave (km/s) = 1.17756 5.67146 3.92293
#
# Compressibility (1/GPa) = 0.03385684
#
# Stress axis : x y z
#
# Youngs Moduli (GPa) = 85.80667 38.13331 95.39441
#
# Poissons Ratio (x) = 0.02706 0.41693
# Poissons Ratio (y) = 0.06088 0.20718
# Poissons Ratio (z) = 0.37503 0.08282
#
# Static dielectric constant tensor:
#      x y z
#    x 1.745430 0.000000 0.000000 
#    y 0.000000 1.777840 0.000000 
#    z 0.000000 0.000000 1.712790 
# 
# From -- ./inp_files/29393.got.cif
#   From: 2010.05.17/outbox.cif.g08.bks.cpg/sg22_15_cif.got.tgz:29393.got - 2010.06.03 23:40:54.
