data_PCOD9327482
_publ_section_title
;
Structure prediction by ZEFSAII (Michael W. Deem and Ramdas Pophale) SiO2 
 PCOD9327482
Probable space group: F 2 2 2
;
_chemical_formula_sum "Si O2"
_cell_formula_units_Z 72
_cell_length_a 7.392552
_cell_length_b 21.546500
_cell_length_c 19.317367
_cell_angle_alpha 90.000000
_cell_angle_beta 90.000000
_cell_angle_gamma 90.000000
_cell_volume 3076.940177
_symmetry_space_group_name_H-M "F 2 2 2"
_symmetry_group_IT_number 22
_symmetry_cell_setting 'orthorhombic'
loop_
_space_group_symop_operation_xyz
x,y,z
-x,-y,z
x,-y,-z
-x,y,-z
x,1/2+y,1/2+z
-x,1/2-y,1/2+z
x,1/2-y,1/2-z
-x,1/2+y,1/2-z
1/2+x,y,1/2+z
1/2-x,-y,1/2+z
1/2+x,-y,1/2-z
1/2-x,y,1/2-z
1/2+x,1/2+y,z
1/2-x,1/2-y,z
1/2+x,1/2-y,-z
1/2-x,1/2+y,-z
loop_
_atom_site_type_symbol
_atom_site_label
_atom_site_fract_x
_atom_site_fract_y
_atom_site_fract_z
Si Si1 0.528656 0.744181 0.670481
Si Si2 0.858576 0.547852 0.689260
Si Si3 0.500000 0.500000 0.613431
Si Si4 0.027060 0.862856 0.424712
Si Si5 0.456799 0.360482 0.919016
O O1 0.471091 0.750000 0.750000
O O2 0.750000 0.750000 0.670976
O O3 0.460562 0.679685 0.637775
O O4 0.470562 0.798403 0.617219
O O5 0.750000 0.585267 0.750000
O O6 0.690523 0.515388 0.650746
O O7 0.986394 0.583939 0.635177
O O8 0.000000 0.500000 0.722634
O O9 0.461481 0.566076 0.575843
O O10 0.240752 0.860847 0.416073
O O11 0.000000 0.833740 0.500000
O O12 0.500000 0.368145 0.000000
#
# Coordination Sequence:
#
# PCOD9327482 Si02
#       5
#    16  16   8  16  16
#     4   9  19  35  64  92 125 170 224 277 336 407
#     4  11  24  41  68  97 136 177 228 281 341 405
#     4  10  23  40  64 100 135 176 220 274 343 404
#     4  10  21  38  64  92 131 173 217 271 345 408
#     4  10  23  39  63  95 131 173 226 279 341 410
#
# _framework density 23.399871000000001
#
# number of rings (size 3 to 8) (size 9 to 14) (size 15 to 20)
#    0.000    2.000    1.111    1.000   12.444    0.444 
#    0.000    0.000    0.000    1.333    0.000    0.000 
#    0.000    0.000    0.000    0.000    0.000    0.000 
#
# Total GULP energy -100269.327050 kJ/mol
# GULP energy per Si atom -5570.518169 kJ/mol
# Density = 2.334661 g / cm^3
# Si number density = 23.399871 Si / 1000 Ang^3
#
#
#
# Elastic Constant Matrix: (Units=GPa)
#
#
# Indices 1 2 3 4 5 6 
#
# 1 48.8230 10.7824 -3.0444 0.0000 0.0000 0.0000
# 2 10.7824 125.4010 96.2494 0.0000 0.0000 0.0000
# 3 -3.0444 96.2494 193.9804 0.0000 0.0000 0.0000
# 4 0.0000 0.0000 0.0000 -0.9586 0.0000 0.0000
# 5 0.0000 0.0000 0.0000 0.0000 35.0864 0.0000
# 6 0.0000 0.0000 0.0000 0.0000 0.0000 -6.1483
#
#
#
# Elastic Compliance Matrix: (Units=1/GPa)
#
#
# Indices 1 2 3 4 5 6 
#
# 1 0.021354 -0.003381 0.002013 0.000000 0.000000 0.000000
# 2 -0.003381 0.013415 -0.006709 0.000000 0.000000 0.000000
# 3 0.002013 -0.006709 0.008516 0.000000 0.000000 0.000000
# 4 0.000000 0.000000 0.000000 -1.043145 0.000000 0.000000
# 5 0.000000 0.000000 0.000000 0.000000 0.028501 0.000000
# 6 0.000000 0.000000 0.000000 0.000000 0.000000 -0.162647
#
#
# Mechanical properties :
#
#
# Convention : Reuss Voigt Hill
#
# Bulk Modulus (GPa) = 36.85971 64.01991 50.43981
# Shear Modulus (GPa) = -4.50934 23.21037 9.35051
#
# Velocity S-wave (km/s) = -1.38970 3.15286 2.00116
# Velocity P-wave (km/s) = 3.63473 6.37750 5.19056
#
# Compressibility (1/GPa) = 0.02712989
#
# Stress axis : x y z
#
# Youngs Moduli (GPa) = 46.82892 74.54567 117.43028
#
# Poissons Ratio (x) = 0.25203 -0.23635
# Poissons Ratio (y) = 0.15832 0.78785
# Poissons Ratio (z) = -0.09425 0.50014
#
# Static dielectric constant tensor:
#      x y z
#    x 1.968580 0.000000 0.000000 
#    y 0.000000 1.974240 0.000000 
#    z 0.000000 0.000000 5.533710 
# 
# From -- ./inp_files/41679.got.cif
#   From: 2010.05.17/outbox.cif.g08.bks.cpg/sg22_21_cif.got.tgz:41679.got - 2010.06.03 23:40:54.
