data_PCOD9327822
_publ_section_title
;
Structure prediction by ZEFSAII (Michael W. Deem and Ramdas Pophale) SiO2 
 PCOD9327822
Probable space group: F 2 2 2
;
_chemical_formula_sum "Si O2"
_cell_formula_units_Z 56
_cell_length_a 5.137642
_cell_length_b 36.056464
_cell_length_c 12.999797
_cell_angle_alpha 90.000000
_cell_angle_beta 90.000000
_cell_angle_gamma 90.000000
_cell_volume 2408.150045
_symmetry_space_group_name_H-M "F 2 2 2"
_symmetry_group_IT_number 22
_symmetry_cell_setting 'orthorhombic'
loop_
_space_group_symop_operation_xyz
x,y,z
-x,-y,z
x,-y,-z
-x,y,-z
x,1/2+y,1/2+z
-x,1/2-y,1/2+z
x,1/2-y,1/2-z
-x,1/2+y,1/2-z
1/2+x,y,1/2+z
1/2-x,-y,1/2+z
1/2+x,-y,1/2-z
1/2-x,y,1/2-z
1/2+x,1/2+y,z
1/2-x,1/2-y,z
1/2+x,1/2-y,-z
1/2-x,1/2+y,-z
loop_
_atom_site_type_symbol
_atom_site_label
_atom_site_fract_x
_atom_site_fract_y
_atom_site_fract_z
Si Si1 0.789656 0.709005 0.872293
Si Si2 0.210644 0.839473 0.872152
Si Si3 0.495803 0.958337 0.177348
Si Si4 0.000000 0.899734 0.500000
O O1 0.750000 0.713081 0.750000
O O2 0.750000 0.750000 0.917755
O O3 0.569940 0.678215 0.893627
O O4 0.075414 0.692785 0.890416
O O5 0.250000 0.849636 0.750000
O O6 0.287350 0.873116 0.946356
O O7 0.250000 0.958229 0.250000
O O8 0.437592 0.927292 0.093086
O O9 0.750000 0.952106 0.250000
O O10 0.500000 0.000000 0.131387
#
# Coordination Sequence:
#
# PCOD9327822 Si02
#       4
#    16  16  16   8
#     4   9  18  37  62  86 121 171 221 271 326 384
#     4  10  22  37  59  94 129 166 218 273 329 392
#     4  10  24  46  71 100 134 177 227 272 322 396
#     4  12  25  42  68 100 140 178 214 274 346 400
#
# _framework density 23.254366000000001
#
# number of rings (size 3 to 8) (size 9 to 14) (size 15 to 20)
#    0.000    2.000    0.000    2.143    0.000   13.714 
#    0.000    7.143    0.000    0.000    0.000    0.000 
#    0.000    0.000    0.000    0.000    0.000    0.000 
#
# Total GULP energy -78262.738469 kJ/mol
# GULP energy per Si atom -5590.195605 kJ/mol
# Density = 2.320144 g / cm^3
# Si number density = 23.254366 Si / 1000 Ang^3
#
#
#
# Elastic Constant Matrix: (Units=GPa)
#
#
# Indices 1 2 3 4 5 6 
#
# 1 109.6656 35.7109 9.7885 0.0000 0.0000 0.0000
# 2 35.7109 182.7090 65.7238 0.0000 0.0000 0.0000
# 3 9.7885 65.7238 112.6933 0.0000 0.0000 0.0000
# 4 0.0000 0.0000 0.0000 51.2944 0.0000 0.0000
# 5 0.0000 0.0000 0.0000 0.0000 24.3892 0.0000
# 6 0.0000 0.0000 0.0000 0.0000 0.0000 25.0847
#
#
#
# Elastic Compliance Matrix: (Units=1/GPa)
#
#
# Indices 1 2 3 4 5 6 
#
# 1 0.009748 -0.002026 0.000335 0.000000 0.000000 0.000000
# 2 -0.002026 0.007347 -0.004109 0.000000 0.000000 0.000000
# 3 0.000335 -0.004109 0.011241 0.000000 0.000000 0.000000
# 4 0.000000 0.000000 0.000000 0.019495 0.000000 0.000000
# 5 0.000000 0.000000 0.000000 0.000000 0.041002 0.000000
# 6 0.000000 0.000000 0.000000 0.000000 0.000000 0.039865
#
#
# Mechanical properties :
#
#
# Convention : Reuss Voigt Hill
#
# Bulk Modulus (GPa) = 59.74972 69.72380 64.73676
# Shear Modulus (GPa) = 34.27536 39.74333 37.00934
#
# Velocity S-wave (km/s) = 3.84335 4.13857 3.99369
# Velocity P-wave (km/s) = 6.74128 7.27223 7.01178
#
# Compressibility (1/GPa) = 0.01673648
#
# Stress axis : x y z
#
# Youngs Moduli (GPa) = 102.58083 136.10621 88.96022
#
# Poissons Ratio (x) = 0.27572 -0.02977
# Poissons Ratio (y) = 0.20780 0.36554
# Poissons Ratio (z) = -0.03433 0.55926
#
# Static dielectric constant tensor:
#      x y z
#    x 1.855300 0.000000 0.000000 
#    y 0.000000 1.895330 0.000000 
#    z 0.000000 0.000000 1.912640 
# 
# From -- ./inp_files/26084.got.cif
#   From: 2010.05.17/outbox.cif.g08.bks.cpg/sg22_14_cif.got.tgz:26084.got - 2010.06.03 23:40:54.
