data_PCOD9327162
_publ_section_title
;
Structure prediction by ZEFSAII (Michael W. Deem and Ramdas Pophale) SiO2 
 PCOD9327162
Probable space group: F 2 2 2
;
_chemical_formula_sum "Si O2"
_cell_formula_units_Z 72
_cell_length_a 14.677107
_cell_length_b 30.982077
_cell_length_c 7.606877
_cell_angle_alpha 90.000000
_cell_angle_beta 90.000000
_cell_angle_gamma 90.000000
_cell_volume 3459.054329
_symmetry_space_group_name_H-M "F 2 2 2"
_symmetry_group_IT_number 22
_symmetry_cell_setting 'orthorhombic'
loop_
_space_group_symop_operation_xyz
x,y,z
-x,-y,z
x,-y,-z
-x,y,-z
x,1/2+y,1/2+z
-x,1/2-y,1/2+z
x,1/2-y,1/2-z
-x,1/2+y,1/2-z
1/2+x,y,1/2+z
1/2-x,-y,1/2+z
1/2+x,-y,1/2-z
1/2-x,y,1/2-z
1/2+x,1/2+y,z
1/2-x,1/2-y,z
1/2+x,1/2-y,-z
1/2-x,1/2+y,-z
loop_
_atom_site_type_symbol
_atom_site_label
_atom_site_fract_x
_atom_site_fract_y
_atom_site_fract_z
Si Si1 0.091978 0.016819 0.701227
Si Si2 0.717354 0.813668 0.054208
Si Si3 0.180298 0.096940 0.589257
Si Si4 0.750000 0.456852 0.750000
Si Si5 0.895728 0.232855 0.052728
O O1 0.099855 0.067884 0.671517
O O2 0.096642 0.000000 0.500000
O O3 0.171037 0.990795 0.796769
O O4 0.000000 0.000000 0.781465
O O5 0.750000 0.824112 0.250000
O O6 0.666012 0.854088 0.968973
O O7 0.813395 0.802083 0.957515
O O8 0.648992 0.772834 0.055777
O O9 0.250000 0.097255 0.750000
O O10 0.220645 0.072202 0.416980
O O11 0.900566 0.250000 0.250000
O O12 0.000000 0.221077 0.000000
#
# Coordination Sequence:
#
# PCOD9327162 Si02
#       5
#    16  16  16   8  16
#     4   9  19  37  62  87 118 165 205 258 315 375
#     4  11  22  41  64  94 128 167 208 266 320 376
#     4  11  21  38  63  89 124 165 208 263 312 375
#     4  10  20  40  60  85 124 159 206 258 318 370
#     4  11  22  41  66  94 128 169 210 254 321 384
#
# _framework density 20.814935999999999
#
# number of rings (size 3 to 8) (size 9 to 14) (size 15 to 20)
#    0.000    1.556    2.222    5.333    0.000    0.000 
#    8.000    4.444    0.000    0.000    0.000    0.000 
#    0.000    0.000    0.000    0.000    0.000    0.000 
#
# Total GULP energy -100314.844056 kJ/mol
# GULP energy per Si atom -5573.046892 kJ/mol
# Density = 2.076756 g / cm^3
# Si number density = 20.814936 Si / 1000 Ang^3
#
#
#
# Elastic Constant Matrix: (Units=GPa)
#
#
# Indices 1 2 3 4 5 6 
#
# 1 106.1219 27.0560 -12.2325 0.0000 0.0000 0.0000
# 2 27.0560 117.6495 -2.2489 0.0000 0.0000 0.0000
# 3 -12.2325 -2.2489 74.6208 0.0000 0.0000 0.0000
# 4 0.0000 0.0000 0.0000 50.3140 0.0000 0.0000
# 5 0.0000 0.0000 0.0000 0.0000 19.5707 0.0000
# 6 0.0000 0.0000 0.0000 0.0000 0.0000 2.1776
#
#
#
# Elastic Compliance Matrix: (Units=1/GPa)
#
#
# Indices 1 2 3 4 5 6 
#
# 1 0.010198 -0.002315 0.001602 0.000000 0.000000 0.000000
# 2 -0.002315 0.009030 -0.000107 0.000000 0.000000 0.000000
# 3 0.001602 -0.000107 0.013660 0.000000 0.000000 0.000000
# 4 0.000000 0.000000 0.000000 0.019875 0.000000 0.000000
# 5 0.000000 0.000000 0.000000 0.000000 0.051097 0.000000
# 6 0.000000 0.000000 0.000000 0.000000 0.000000 0.459217
#
#
# Mechanical properties :
#
#
# Convention : Reuss Voigt Hill
#
# Bulk Modulus (GPa) = 32.00142 35.94903 33.97522
# Shear Modulus (GPa) = 8.69363 33.46697 21.08030
#
# Velocity S-wave (km/s) = 2.04590 4.01413 3.18582
# Velocity P-wave (km/s) = 4.58133 6.22837 5.46723
#
# Compressibility (1/GPa) = 0.03124862
#
# Stress axis : x y z
#
# Youngs Moduli (GPa) = 98.05944 110.74114 73.20392
#
# Poissons Ratio (x) = 0.25632 -0.11727
# Poissons Ratio (y) = 0.22697 0.00785
# Poissons Ratio (z) = -0.15709 0.01188
#
# Static dielectric constant tensor:
#      x y z
#    x 1.635590 0.000000 0.000000 
#    y 0.000000 1.794470 0.000000 
#    z 0.000000 0.000000 1.781100 
# 
# From -- ./inp_files/10265.got.cif
#   From: 2010.05.17/outbox.cif.g08.bks.cpg/sg22_6_cif.got.tgz:10265.got - 2010.06.03 23:40:54.
