data_PCOD9327509
_publ_section_title
;
Structure prediction by ZEFSAII (Michael W. Deem and Ramdas Pophale) SiO2 
 PCOD9327509
Probable space group: F 2 2 2
;
_chemical_formula_sum "Si O2"
_cell_formula_units_Z 80
_cell_length_a 13.513888
_cell_length_b 16.890862
_cell_length_c 18.560780
_cell_angle_alpha 90.000000
_cell_angle_beta 90.000000
_cell_angle_gamma 90.000000
_cell_volume 4236.706237
_symmetry_space_group_name_H-M "F 2 2 2"
_symmetry_group_IT_number 22
_symmetry_cell_setting 'orthorhombic'
loop_
_space_group_symop_operation_xyz
x,y,z
-x,-y,z
x,-y,-z
-x,y,-z
x,1/2+y,1/2+z
-x,1/2-y,1/2+z
x,1/2-y,1/2-z
-x,1/2+y,1/2-z
1/2+x,y,1/2+z
1/2-x,-y,1/2+z
1/2+x,-y,1/2-z
1/2-x,y,1/2-z
1/2+x,1/2+y,z
1/2-x,1/2-y,z
1/2+x,1/2-y,-z
1/2-x,1/2+y,-z
loop_
_atom_site_type_symbol
_atom_site_label
_atom_site_fract_x
_atom_site_fract_y
_atom_site_fract_z
Si Si1 0.698167 0.993296 0.873654
Si Si2 0.102520 0.707743 0.526523
Si Si3 0.355195 0.202322 0.311231
Si Si4 0.190987 0.124690 0.495687
Si Si5 0.114295 0.981174 0.783302
O O1 0.809940 0.982834 0.842455
O O2 0.635825 0.993090 0.799489
O O3 0.672829 0.927665 0.933496
O O4 0.684979 0.073844 0.921225
O O5 0.097349 0.706400 0.611999
O O6 0.121494 0.798687 0.504708
O O7 0.197126 0.657523 0.502733
O O8 0.000000 0.674600 0.500000
O O9 0.411833 0.250000 0.250000
O O10 0.250000 0.250000 0.319535
O O11 0.354710 0.111496 0.287367
O O12 0.000000 0.000000 0.799950
#
# Coordination Sequence:
#
# PCOD9327509 Si02
#       5
#    16  16  16  16  16
#     4  10  21  39  62  84 125 162 195 253 316 369
#     4  11  22  37  60  89 122 155 207 256 306 363
#     4  11  20  38  67  90 123 162 218 258 303 366
#     4  10  21  39  60  87 118 161 203 247 309 372
#     4  11  23  38  61  95 127 159 211 261 312 370
#
# _framework density 18.882594000000001
#
# number of rings (size 3 to 8) (size 9 to 14) (size 15 to 20)
#    0.000    1.400    4.000    3.600    2.800    3.200 
#    0.000    4.000    0.000    2.400    0.000    0.000 
#    0.000    0.000    0.000    0.000    0.000    0.000 
#
# Total GULP energy -111475.968492 kJ/mol
# GULP energy per Si atom -5573.798425 kJ/mol
# Density = 1.883962 g / cm^3
# Si number density = 18.882594 Si / 1000 Ang^3
#
#
#
# Elastic Constant Matrix: (Units=GPa)
#
#
# Indices 1 2 3 4 5 6 
#
# 1 49.1946 -15.9648 -15.5825 0.0000 0.0000 0.0000
# 2 -15.9648 59.5313 10.7742 0.0000 0.0000 0.0000
# 3 -15.5825 10.7742 94.6933 0.0000 0.0000 0.0000
# 4 0.0000 0.0000 0.0000 32.5507 0.0000 0.0000
# 5 0.0000 0.0000 0.0000 0.0000 41.7851 0.0000
# 6 0.0000 0.0000 0.0000 0.0000 0.0000 67.0059
#
#
#
# Elastic Compliance Matrix: (Units=1/GPa)
#
#
# Indices 1 2 3 4 5 6 
#
# 1 0.023161 0.005637 0.003170 0.000000 0.000000 0.000000
# 2 0.005637 0.018523 -0.001180 0.000000 0.000000 0.000000
# 3 0.003170 -0.001180 0.011216 0.000000 0.000000 0.000000
# 4 0.000000 0.000000 0.000000 0.030721 0.000000 0.000000
# 5 0.000000 0.000000 0.000000 0.000000 0.023932 0.000000
# 6 0.000000 0.000000 0.000000 0.000000 0.000000 0.014924
#
#
# Mechanical properties :
#
#
# Convention : Reuss Voigt Hill
#
# Bulk Modulus (GPa) = 14.67234 17.98590 16.32912
# Shear Modulus (GPa) = 38.47888 43.21449 40.84668
#
# Velocity S-wave (km/s) = 4.51909 4.78911 4.65606
# Velocity P-wave (km/s) = 5.91750 6.33455 6.12957
#
# Compressibility (1/GPa) = 0.06815545
#
# Stress axis : x y z
#
# Youngs Moduli (GPa) = 43.17609 53.98620 89.15605
#
# Poissons Ratio (x) = -0.30435 -0.28261
# Poissons Ratio (y) = -0.24340 0.10519
# Poissons Ratio (z) = -0.13686 0.06370
#
# Static dielectric constant tensor:
#      x y z
#    x 1.654900 0.000000 0.000000 
#    y 0.000000 1.678920 0.000000 
#    z 0.000000 0.000000 1.482980 
# 
# From -- ./inp_files/31598.got.cif
#   From: 2010.05.17/outbox.cif.g08.bks.cpg/sg22_16_cif.got.tgz:31598.got - 2010.06.03 23:40:54.
