data_PCOD9327197
_publ_section_title
;
Structure prediction by ZEFSAII (Michael W. Deem and Ramdas Pophale) SiO2 
 PCOD9327197
Probable space group: F 2 2 2
;
_chemical_formula_sum "Si O2"
_cell_formula_units_Z 88
_cell_length_a 5.916849
_cell_length_b 27.293369
_cell_length_c 24.997320
_cell_angle_alpha 90.000000
_cell_angle_beta 90.000000
_cell_angle_gamma 90.000000
_cell_volume 4036.835782
_symmetry_space_group_name_H-M "F 2 2 2"
_symmetry_group_IT_number 22
_symmetry_cell_setting 'orthorhombic'
loop_
_space_group_symop_operation_xyz
x,y,z
-x,-y,z
x,-y,-z
-x,y,-z
x,1/2+y,1/2+z
-x,1/2-y,1/2+z
x,1/2-y,1/2-z
-x,1/2+y,1/2-z
1/2+x,y,1/2+z
1/2-x,-y,1/2+z
1/2+x,-y,1/2-z
1/2-x,y,1/2-z
1/2+x,1/2+y,z
1/2-x,1/2-y,z
1/2+x,1/2-y,-z
1/2-x,1/2+y,-z
loop_
_atom_site_type_symbol
_atom_site_label
_atom_site_fract_x
_atom_site_fract_y
_atom_site_fract_z
Si Si1 0.500000 0.500000 0.340481
Si Si2 0.289492 0.576102 0.905087
Si Si3 0.176971 0.304744 0.953876
Si Si4 0.500000 0.617428 0.000000
Si Si5 0.750000 0.869164 0.250000
Si Si6 0.643734 0.077853 0.318063
Si Si7 0.492925 0.658345 0.650135
O O1 0.623174 0.536991 0.380114
O O2 0.313194 0.531861 0.307898
O O3 0.332626 0.582689 0.967190
O O4 0.521504 0.566264 0.873869
O O5 0.181107 0.626687 0.885109
O O6 0.250000 0.250000 0.968019
O O7 0.371671 0.345814 0.959382
O O8 0.083539 0.303580 0.893234
O O9 0.000000 0.319389 0.000000
O O10 0.556127 0.904600 0.277083
O O11 0.643993 0.834352 0.204698
O O12 0.800597 0.124626 0.329513
#
# Coordination Sequence:
#
# PCOD9327197 Si02
#       7
#     8  16  16   8   8  16  16
#     4  10  22  40  65  94 136 176 238 287 340 388
#     4  10  21  38  67  88 133 176 224 278 333 406
#     4  12  24  41  70 111 137 167 221 281 345 423
#     4  12  22  40  69  98 134 182 224 271 350 418
#     4  10  22  40  74  95 126 190 230 276 349 412
#     4  10  20  40  67  92 131 172 231 287 336 407
#     4  10  21  40  69  96 132 175 222 273 341 411
#
# _framework density 21.799251000000002
#
# number of rings (size 3 to 8) (size 9 to 14) (size 15 to 20)
#    0.000    1.455    4.545    1.091    0.000    0.000 
#    0.000    2.727  148.000    3.273    0.000    0.000 
#    0.000    0.000    0.000    0.000    0.000    0.000 
#
# Total GULP energy -122675.540454 kJ/mol
# GULP energy per Si atom -5576.160930 kJ/mol
# Density = 2.174964 g / cm^3
# Si number density = 21.799251 Si / 1000 Ang^3
#
#
#
# Elastic Constant Matrix: (Units=GPa)
#
#
# Indices 1 2 3 4 5 6 
#
# 1 96.3114 16.3366 36.7756 0.0000 0.0000 0.0000
# 2 16.3366 26.2476 21.7896 0.0000 0.0000 0.0000
# 3 36.7756 21.7896 121.7853 0.0000 0.0000 0.0000
# 4 0.0000 0.0000 0.0000 13.9738 0.0000 0.0000
# 5 0.0000 0.0000 0.0000 0.0000 29.9115 0.0000
# 6 0.0000 0.0000 0.0000 0.0000 0.0000 20.1248
#
#
#
# Elastic Compliance Matrix: (Units=1/GPa)
#
#
# Indices 1 2 3 4 5 6 
#
# 1 0.012354 -0.005393 -0.002766 0.000000 0.000000 0.000000
# 2 -0.005393 0.047099 -0.006798 0.000000 0.000000 0.000000
# 3 -0.002766 -0.006798 0.010263 0.000000 0.000000 0.000000
# 4 0.000000 0.000000 0.000000 0.071563 0.000000 0.000000
# 5 0.000000 0.000000 0.000000 0.000000 0.033432 0.000000
# 6 0.000000 0.000000 0.000000 0.000000 0.000000 0.049690
#
#
# Mechanical properties :
#
#
# Convention : Reuss Voigt Hill
#
# Bulk Modulus (GPa) = 25.12476 43.79421 34.45949
# Shear Modulus (GPa) = 18.68592 24.09819 21.39205
#
# Velocity S-wave (km/s) = 2.93094 3.32845 3.13600
# Velocity P-wave (km/s) = 4.79629 5.90803 5.38095
#
# Compressibility (1/GPa) = 0.03980137
#
# Stress axis : x y z
#
# Youngs Moduli (GPa) = 80.94676 21.23187 97.44102
#
# Poissons Ratio (x) = 0.11451 0.26948
# Poissons Ratio (y) = 0.43656 0.66243
# Poissons Ratio (z) = 0.22386 0.14434
#
# Static dielectric constant tensor:
#      x y z
#    x 1.918070 0.000000 0.000000 
#    y 0.000000 1.769580 0.000000 
#    z 0.000000 0.000000 1.826170 
# 
# From -- ./inp_files/46715.got.cif
#   From: 2010.05.17/outbox.cif.g08.bks.cpg/sg22_24_cif.got.tgz:46715.got - 2010.06.03 23:40:54.
