data_PCOD9327452
_publ_section_title
;
Structure prediction by ZEFSAII (Michael W. Deem and Ramdas Pophale) SiO2 
 PCOD9327452
Probable space group: F 2 2 2
;
_chemical_formula_sum "Si O2"
_cell_formula_units_Z 64
_cell_length_a 15.678692
_cell_length_b 23.766544
_cell_length_c 8.291676
_cell_angle_alpha 90.000000
_cell_angle_beta 90.000000
_cell_angle_gamma 90.000000
_cell_volume 3089.713325
_symmetry_space_group_name_H-M "F 2 2 2"
_symmetry_group_IT_number 22
_symmetry_cell_setting 'orthorhombic'
loop_
_space_group_symop_operation_xyz
x,y,z
-x,-y,z
x,-y,-z
-x,y,-z
x,1/2+y,1/2+z
-x,1/2-y,1/2+z
x,1/2-y,1/2-z
-x,1/2+y,1/2-z
1/2+x,y,1/2+z
1/2-x,-y,1/2+z
1/2+x,-y,1/2-z
1/2-x,y,1/2-z
1/2+x,1/2+y,z
1/2-x,1/2-y,z
1/2+x,1/2-y,-z
1/2-x,1/2+y,-z
loop_
_atom_site_type_symbol
_atom_site_label
_atom_site_fract_x
_atom_site_fract_y
_atom_site_fract_z
Si Si1 0.757352 0.939884 0.941710
Si Si2 0.332228 0.660532 0.866282
Si Si3 0.097236 0.736456 0.062497
Si Si4 0.906232 0.616450 0.060294
O O1 0.750000 0.938844 0.750000
O O2 0.813807 0.888348 0.005772
O O3 0.665016 0.930116 0.026634
O O4 0.791353 0.000000 0.000000
O O5 0.250000 0.666034 0.750000
O O6 0.405551 0.638162 0.744944
O O7 0.352710 0.718581 0.954290
O O8 0.103249 0.750000 0.250000
O O9 0.124304 0.672135 0.036363
O O10 0.000000 0.739280 0.000000
O O11 0.000000 0.600799 0.000000
#
# Coordination Sequence:
#
# PCOD9327452 Si02
#       4
#    16  16  16  16
#     4  11  23  41  61  84 114 153 196 241 288 340
#     4  10  22  39  60  86 119 155 193 239 288 344
#     4  11  21  36  59  89 121 155 192 237 289 346
#     4  10  21  38  60  87 117 153 191 236 289 343
#
# _framework density 20.713895000000001
#
# number of rings (size 3 to 8) (size 9 to 14) (size 15 to 20)
#    0.000    1.500    0.000    7.500    0.000    7.500 
#    0.000    6.250    0.000    5.250    0.000    0.000 
#    0.000    0.000    0.000    0.000    0.000    0.000 
#
# Total GULP energy -89480.633920 kJ/mol
# GULP energy per Si atom -5592.539620 kJ/mol
# Density = 2.066675 g / cm^3
# Si number density = 20.713895 Si / 1000 Ang^3
#
#
#
# Elastic Constant Matrix: (Units=GPa)
#
#
# Indices 1 2 3 4 5 6 
#
# 1 36.3002 -4.4877 -12.2600 0.0000 0.0000 0.0000
# 2 -4.4877 69.6620 -7.4976 0.0000 0.0000 0.0000
# 3 -12.2600 -7.4976 115.7802 0.0000 0.0000 0.0000
# 4 0.0000 0.0000 0.0000 35.2924 0.0000 0.0000
# 5 0.0000 0.0000 0.0000 0.0000 28.6223 0.0000
# 6 0.0000 0.0000 0.0000 0.0000 0.0000 23.3714
#
#
#
# Elastic Compliance Matrix: (Units=1/GPa)
#
#
# Indices 1 2 3 4 5 6 
#
# 1 0.028903 0.002207 0.003203 0.000000 0.000000 0.000000
# 2 0.002207 0.014624 0.001181 0.000000 0.000000 0.000000
# 3 0.003203 0.001181 0.009053 0.000000 0.000000 0.000000
# 4 0.000000 0.000000 0.000000 0.028335 0.000000 0.000000
# 5 0.000000 0.000000 0.000000 0.000000 0.034938 0.000000
# 6 0.000000 0.000000 0.000000 0.000000 0.000000 0.042787
#
#
# Mechanical properties :
#
#
# Convention : Reuss Voigt Hill
#
# Bulk Modulus (GPa) = 15.20647 19.25020 17.22834
# Shear Modulus (GPa) = 29.87244 33.85641 31.86442
#
# Velocity S-wave (km/s) = 3.80168 4.04725 3.92639
# Velocity P-wave (km/s) = 5.16018 5.58157 5.37501
#
# Compressibility (1/GPa) = 0.06576148
#
# Stress axis : x y z
#
# Youngs Moduli (GPa) = 34.59875 68.37950 110.46398
#
# Poissons Ratio (x) = -0.15090 -0.35386
# Poissons Ratio (y) = -0.07635 -0.13042
# Poissons Ratio (z) = -0.11083 -0.08074
#
# Static dielectric constant tensor:
#      x y z
#    x 1.781840 0.000000 0.000000 
#    y 0.000000 1.714160 0.000000 
#    z 0.000000 0.000000 1.746420 
# 
# From -- ./inp_files/9769.got.cif
#   From: 2010.05.17/outbox.cif.g08.bks.cpg/sg22_5_cif.got.tgz:9769.got - 2010.06.03 23:40:54.
