data_PCOD9327924
_publ_section_title
;
Structure prediction by ZEFSAII (Michael W. Deem and Ramdas Pophale) SiO2 
 PCOD9327924
Probable space group: F 2 2 2
;
_chemical_formula_sum "Si O2"
_cell_formula_units_Z 52
_cell_length_a 26.992002
_cell_length_b 15.817495
_cell_length_c 5.110959
_cell_angle_alpha 90.000000
_cell_angle_beta 90.000000
_cell_angle_gamma 90.000000
_cell_volume 2182.102769
_symmetry_space_group_name_H-M "F 2 2 2"
_symmetry_group_IT_number 22
_symmetry_cell_setting 'orthorhombic'
loop_
_space_group_symop_operation_xyz
x,y,z
-x,-y,z
x,-y,-z
-x,y,-z
x,1/2+y,1/2+z
-x,1/2-y,1/2+z
x,1/2-y,1/2-z
-x,1/2+y,1/2-z
1/2+x,y,1/2+z
1/2-x,-y,1/2+z
1/2+x,-y,1/2-z
1/2-x,y,1/2-z
1/2+x,1/2+y,z
1/2-x,1/2-y,z
1/2+x,1/2-y,-z
1/2-x,1/2+y,-z
loop_
_atom_site_type_symbol
_atom_site_label
_atom_site_fract_x
_atom_site_fract_y
_atom_site_fract_z
Si Si1 0.143660 0.589354 0.651335
Si Si2 0.750000 0.938938 0.250000
Si Si3 0.947120 0.309101 0.496801
Si Si4 0.000000 0.000000 0.000000
Si Si5 0.423546 0.500000 0.500000
O O1 0.147578 0.500000 0.500000
O O2 0.200224 0.614203 0.698731
O O3 0.105775 0.647698 0.497061
O O4 0.113847 0.575166 0.922412
O O5 0.759883 0.000000 0.500000
O O6 0.948749 0.250000 0.750000
O O7 0.000000 0.364183 0.500000
O O8 0.951487 0.250000 0.250000
O O9 0.043529 0.009772 0.758595
#
# Coordination Sequence:
#
# PCOD9327924 Si02
#       5
#    16   8  16   4   8
#     4  11  24  42  72 100 138 180 240 288 345 417
#     4  10  22  40  63 104 139 172 224 298 360 390
#     4  10  25  45  65  95 140 183 219 280 353 416
#     4  10  24  34  50  94 146 158 224 278 348 390
#     4  11  22  38  57 100 133 180 213 300 334 408
#
# _framework density 23.830224000000001
#
# number of rings (size 3 to 8) (size 9 to 14) (size 15 to 20)
#    0.000    1.538    3.077    0.000    6.462    0.615 
#    5.538    0.769    0.000    1.846    0.000    0.000 
#    0.000    0.000    0.000    0.000    0.000    0.000 
#
# Total GULP energy -72503.803628 kJ/mol
# GULP energy per Si atom -5577.215664 kJ/mol
# Density = 2.377599 g / cm^3
# Si number density = 23.830224 Si / 1000 Ang^3
#
#
#
# Elastic Constant Matrix: (Units=GPa)
#
#
# Indices 1 2 3 4 5 6 
#
# 1 307.4016 67.4107 47.9785 0.0000 0.0000 0.0000
# 2 67.4107 27.7562 29.7232 0.0000 0.0000 0.0000
# 3 47.9785 29.7232 199.6605 -0.0004 -0.0002 -0.0001
# 4 0.0000 0.0000 -0.0004 44.3603 -0.0001 -0.0001
# 5 0.0000 0.0000 -0.0002 -0.0001 34.8301 0.0000
# 6 0.0000 0.0000 -0.0001 -0.0001 0.0000 8.5099
#
#
#
# Elastic Compliance Matrix: (Units=1/GPa)
#
#
# Indices 1 2 3 4 5 6 
#
# 1 0.007133 -0.018426 0.001029 0.000000 0.000000 0.000000
# 2 -0.018426 0.090457 -0.009039 0.000000 0.000000 0.000000
# 3 0.001029 -0.009039 0.006107 0.000000 0.000000 0.000000
# 4 0.000000 0.000000 0.000000 0.022543 0.000000 0.000000
# 5 0.000000 0.000000 0.000000 0.000000 0.028711 0.000000
# 6 0.000000 0.000000 0.000000 0.000000 0.000000 0.117510
#
#
# Mechanical properties :
#
#
# Convention : Reuss Voigt Hill
#
# Bulk Modulus (GPa) = 19.67484 91.67146 55.67315
# Shear Modulus (GPa) = 14.60819 43.52044 29.06431
#
# Velocity S-wave (km/s) = 2.47859 4.27813 3.49612
# Velocity P-wave (km/s) = 4.05776 7.93443 6.30161
#
# Compressibility (1/GPa) = 0.05082633
#
# Stress axis : x y z
#
# Youngs Moduli (GPa) = 140.19104 11.05495 163.75197
#
# Poissons Ratio (x) = 0.20370 -0.16849
# Poissons Ratio (y) = 2.58314 1.48007
# Poissons Ratio (z) = -0.14425 0.09992
#
# Static dielectric constant tensor:
#      x y z
#    x 1.949860 0.000000 0.000000 
#    y 0.000000 1.891080 0.000000 
#    z 0.000000 0.000000 1.914510 
# 
# From -- ./inp_files/5209.got.cif
#   From: 2010.05.17/outbox.cif.g08.bks.cpg/sg22_3_cif.got.tgz:5209.got - 2010.06.03 23:40:54.
