data_PCOD9327791
_publ_section_title
;
Structure prediction by ZEFSAII (Michael W. Deem and Ramdas Pophale) SiO2 
 PCOD9327791
Probable space group: F 2 2 2
;
_chemical_formula_sum "Si O2"
_cell_formula_units_Z 56
_cell_length_a 13.464026
_cell_length_b 16.790874
_cell_length_c 9.868042
_cell_angle_alpha 90.000000
_cell_angle_beta 90.000000
_cell_angle_gamma 90.000000
_cell_volume 2230.895531
_symmetry_space_group_name_H-M "F 2 2 2"
_symmetry_group_IT_number 22
_symmetry_cell_setting 'orthorhombic'
loop_
_space_group_symop_operation_xyz
x,y,z
-x,-y,z
x,-y,-z
-x,y,-z
x,1/2+y,1/2+z
-x,1/2-y,1/2+z
x,1/2-y,1/2-z
-x,1/2+y,1/2-z
1/2+x,y,1/2+z
1/2-x,-y,1/2+z
1/2+x,-y,1/2-z
1/2-x,y,1/2-z
1/2+x,1/2+y,z
1/2-x,1/2-y,z
1/2+x,1/2-y,-z
1/2-x,1/2+y,-z
loop_
_atom_site_type_symbol
_atom_site_label
_atom_site_fract_x
_atom_site_fract_y
_atom_site_fract_z
Si Si1 0.140792 0.712040 0.490121
Si Si2 0.372287 0.386935 0.244801
Si Si3 0.824250 0.956706 0.871106
Si Si4 0.000000 0.342401 0.000000
O O1 0.250000 0.750000 0.500580
O O2 0.105885 0.684608 0.640497
O O3 0.135761 0.628785 0.412178
O O4 0.076224 0.782208 0.427903
O O5 0.250000 0.384863 0.250000
O O6 0.431531 0.383403 0.386020
O O7 0.395265 0.472298 0.177400
O O8 0.750000 0.941570 0.750000
O O9 0.772292 0.000000 0.000000
#
# Coordination Sequence:
#
# PCOD9327791 Si02
#       4
#    16  16  16   8
#     4  11  23  45  78 117 167 217 275 353 420 491
#     4  10  21  46  80 110 168 214 272 344 420 499
#     4   9  21  45  79 111 161 221 274 343 424 501
#     4  12  24  40  83 121 152 226 276 334 430 493
#
# _framework density 25.102027
#
# number of rings (size 3 to 8) (size 9 to 14) (size 15 to 20)
#    0.000    1.714    2.857    0.857    0.000    0.571 
#   10.286    6.429   18.857    0.000    0.000    0.000 
#    0.000    0.000    0.000    0.000    0.000    0.000 
#
# Total GULP energy -78196.508718 kJ/mol
# GULP energy per Si atom -5585.464908 kJ/mol
# Density = 2.504489 g / cm^3
# Si number density = 25.102027 Si / 1000 Ang^3
#
#
#
# Elastic Constant Matrix: (Units=GPa)
#
#
# Indices 1 2 3 4 5 6 
#
# 1 118.2986 37.6557 65.3583 0.0000 0.0000 0.0000
# 2 37.6557 151.2904 66.1212 0.0000 0.0000 0.0000
# 3 65.3583 66.1212 147.7549 0.0000 0.0000 0.0000
# 4 0.0000 0.0000 0.0000 47.4904 0.0000 0.0000
# 5 0.0000 0.0000 0.0000 0.0000 48.5920 0.0000
# 6 0.0000 0.0000 0.0000 0.0000 0.0000 18.3063
#
#
#
# Elastic Compliance Matrix: (Units=1/GPa)
#
#
# Indices 1 2 3 4 5 6 
#
# 1 0.011260 -0.000778 -0.004633 0.000000 0.000000 0.000000
# 2 -0.000778 0.008271 -0.003357 0.000000 0.000000 0.000000
# 3 -0.004633 -0.003357 0.010320 0.000000 0.000000 0.000000
# 4 0.000000 0.000000 0.000000 0.021057 0.000000 0.000000
# 5 0.000000 0.000000 0.000000 0.000000 0.020580 0.000000
# 6 0.000000 0.000000 0.000000 0.000000 0.000000 0.054626
#
#
# Mechanical properties :
#
#
# Convention : Reuss Voigt Hill
#
# Bulk Modulus (GPa) = 81.20184 83.95712 82.57948
# Shear Modulus (GPa) = 33.84014 39.42499 36.63256
#
# Velocity S-wave (km/s) = 3.67564 3.96737 3.82428
# Velocity P-wave (km/s) = 7.10160 7.38279 7.24356
#
# Compressibility (1/GPa) = 0.01231499
#
# Stress axis : x y z
#
# Youngs Moduli (GPa) = 88.80710 120.90998 96.90339
#
# Poissons Ratio (x) = 0.09406 0.44894
# Poissons Ratio (y) = 0.06908 0.32531
# Poissons Ratio (z) = 0.41143 0.40590
#
# Static dielectric constant tensor:
#      x y z
#    x 2.088800 0.000000 0.000000 
#    y 0.000000 1.972230 0.000000 
#    z 0.000000 0.000000 1.910700 
# 
# From -- ./inp_files/9679.got.cif
#   From: 2010.05.17/outbox.cif.g08.bks.cpg/sg22_5_cif.got.tgz:9679.got - 2010.06.03 23:40:54.
