data_PCOD9327707
_publ_section_title
;
Structure prediction by ZEFSAII (Michael W. Deem and Ramdas Pophale) SiO2 
 PCOD9327707
Probable space group: F 2 2 2
;
_chemical_formula_sum "Si O2"
_cell_formula_units_Z 80
_cell_length_a 14.725744
_cell_length_b 23.592004
_cell_length_c 10.938551
_cell_angle_alpha 90.000000
_cell_angle_beta 90.000000
_cell_angle_gamma 90.000000
_cell_volume 3800.159939
_symmetry_space_group_name_H-M "F 2 2 2"
_symmetry_group_IT_number 22
_symmetry_cell_setting 'orthorhombic'
loop_
_space_group_symop_operation_xyz
x,y,z
-x,-y,z
x,-y,-z
-x,y,-z
x,1/2+y,1/2+z
-x,1/2-y,1/2+z
x,1/2-y,1/2-z
-x,1/2+y,1/2-z
1/2+x,y,1/2+z
1/2-x,-y,1/2+z
1/2+x,-y,1/2-z
1/2-x,y,1/2-z
1/2+x,1/2+y,z
1/2-x,1/2-y,z
1/2+x,1/2-y,-z
1/2-x,1/2+y,-z
loop_
_atom_site_type_symbol
_atom_site_label
_atom_site_fract_x
_atom_site_fract_y
_atom_site_fract_z
Si Si1 0.440310 0.405186 0.613997
Si Si2 0.456811 0.062337 0.618020
Si Si3 0.006130 0.716039 0.872314
Si Si4 0.744083 0.393965 0.110725
Si Si5 0.284381 0.685363 0.619089
O O1 0.500000 0.424249 0.500000
O O2 0.480307 0.416423 0.747041
O O3 0.437888 0.336531 0.611934
O O4 0.338541 0.428372 0.602688
O O5 0.500000 0.092837 0.500000
O O6 0.348156 0.069710 0.604951
O O7 0.500000 0.000000 0.617335
O O8 0.987320 0.750000 0.750000
O O9 0.107093 0.690102 0.866268
O O10 0.000000 0.750161 0.000000
O O11 0.750000 0.368722 0.250000
O O12 0.749749 0.350674 0.996766
O O13 0.250000 0.662501 0.750000
O O14 0.250000 0.750000 0.606042
#
# Coordination Sequence:
#
# PCOD9327707 Si02
#       5
#    16  16  16  16  16
#     4  10  21  42  67  94 130 174 223 271 339 405
#     4  10  24  44  65  96 128 162 223 286 350 408
#     4  11  22  39  61  96 141 182 233 271 320 398
#     4  10  22  42  65  92 132 176 216 280 339 398
#     4  11  22  38  60  97 140 180 230 266 321 399
#
# _framework density 21.051746999999999
#
# number of rings (size 3 to 8) (size 9 to 14) (size 15 to 20)
#    0.000    1.600    6.000    0.000    2.800    4.800 
#    0.000   12.000    0.000    0.000    0.000    0.000 
#    0.000    0.000    0.000    0.000    0.000    0.000 
#
# Total GULP energy -111429.508796 kJ/mol
# GULP energy per Si atom -5571.475440 kJ/mol
# Density = 2.100383 g / cm^3
# Si number density = 21.051747 Si / 1000 Ang^3
#
#
#
# Elastic Constant Matrix: (Units=GPa)
#
#
# Indices 1 2 3 4 5 6 
#
# 1 130.3681 11.4208 54.3130 0.0000 0.0000 0.0000
# 2 11.4208 38.2804 28.5930 0.0000 0.0000 0.0000
# 3 54.3130 28.5930 233.9857 0.0000 0.0000 0.0000
# 4 0.0000 0.0000 0.0000 14.2830 0.0000 0.0000
# 5 0.0000 0.0000 0.0000 0.0000 40.4519 0.0000
# 6 0.0000 0.0000 0.0000 0.0000 0.0000 18.5773
#
#
#
# Elastic Compliance Matrix: (Units=1/GPa)
#
#
# Indices 1 2 3 4 5 6 
#
# 1 0.008539 -0.001174 -0.001839 0.000000 0.000000 0.000000
# 2 -0.001174 0.028908 -0.003260 0.000000 0.000000 0.000000
# 3 -0.001839 -0.003260 0.005099 0.000000 0.000000 0.000000
# 4 0.000000 0.000000 0.000000 0.070013 0.000000 0.000000
# 5 0.000000 0.000000 0.000000 0.000000 0.024721 0.000000
# 6 0.000000 0.000000 0.000000 0.000000 0.000000 0.053829
#
#
# Mechanical properties :
#
#
# Convention : Reuss Voigt Hill
#
# Bulk Modulus (GPa) = 33.33246 65.69862 49.51554
# Shear Modulus (GPa) = 23.40209 35.21627 29.30918
#
# Velocity S-wave (km/s) = 3.33775 4.09448 3.73533
# Velocity P-wave (km/s) = 5.54275 7.32318 6.49427
#
# Compressibility (1/GPa) = 0.03000079
#
# Stress axis : x y z
#
# Youngs Moduli (GPa) = 117.10301 34.59198 196.11928
#
# Poissons Ratio (x) = 0.04062 0.36060
# Poissons Ratio (y) = 0.13752 0.63935
# Poissons Ratio (z) = 0.21532 0.11277
#
# Static dielectric constant tensor:
#      x y z
#    x 1.833370 0.000000 0.000000 
#    y 0.000000 1.885540 0.000000 
#    z 0.000000 0.000000 1.891350 
# 
# From -- ./inp_files/19834.got.cif
#   From: 2010.05.17/outbox.cif.g08.bks.cpg/sg22_10_cif.got.tgz:19834.got - 2010.06.03 23:40:54.
