data_PCOD9327657
_publ_section_title
;
Structure prediction by ZEFSAII (Michael W. Deem and Ramdas Pophale) SiO2 
 PCOD9327657
Probable space group: F 2 2 2
;
_chemical_formula_sum "Si O2"
_cell_formula_units_Z 80
_cell_length_a 11.884760
_cell_length_b 20.924614
_cell_length_c 13.807667
_cell_angle_alpha 90.000000
_cell_angle_beta 90.000000
_cell_angle_gamma 90.000000
_cell_volume 3433.746074
_symmetry_space_group_name_H-M "F 2 2 2"
_symmetry_group_IT_number 22
_symmetry_cell_setting 'orthorhombic'
loop_
_space_group_symop_operation_xyz
x,y,z
-x,-y,z
x,-y,-z
-x,y,-z
x,1/2+y,1/2+z
-x,1/2-y,1/2+z
x,1/2-y,1/2-z
-x,1/2+y,1/2-z
1/2+x,y,1/2+z
1/2-x,-y,1/2+z
1/2+x,-y,1/2-z
1/2-x,y,1/2-z
1/2+x,1/2+y,z
1/2-x,1/2-y,z
1/2+x,1/2-y,-z
1/2-x,1/2+y,-z
loop_
_atom_site_type_symbol
_atom_site_label
_atom_site_fract_x
_atom_site_fract_y
_atom_site_fract_z
Si Si1 0.371660 0.982081 0.766023
Si Si2 0.796612 0.685714 0.480973
Si Si3 0.628543 0.927443 0.035127
Si Si4 0.369150 0.312378 0.803488
Si Si5 0.532867 0.403037 0.891351
O O1 0.250000 0.016858 0.750000
O O2 0.351401 0.928985 0.849138
O O3 0.397557 0.957560 0.659178
O O4 0.500000 0.000000 0.799885
O O5 0.750000 0.750000 0.436945
O O6 0.707826 0.629075 0.503137
O O7 0.849555 0.704753 0.584218
O O8 0.889277 0.657580 0.410539
O O9 0.500000 0.916182 0.000000
O O10 0.657731 0.000000 0.000000
O O11 0.420540 0.250000 0.750000
O O12 0.250000 0.322732 0.750000
O O13 0.438592 0.378138 0.815918
O O14 0.500000 0.422042 0.000000
#
# Coordination Sequence:
#
# PCOD9327657 Si02
#       5
#    16  16  16  16  16
#     4  12  26  49  74 108 151 198 258 319 391 476
#     4  11  23  44  72 107 152 196 247 322 388 461
#     4  11  25  47  75 110 148 199 259 321 389 464
#     4  10  21  41  66 106 144 188 263 305 369 456
#     4  10  25  44  67 107 151 196 248 314 392 455
#
# _framework density 23.298169999999999
#
# number of rings (size 3 to 8) (size 9 to 14) (size 15 to 20)
#    0.000    1.200    6.000    0.000    2.800    8.400 
#    0.000    1.000    0.000    0.000    0.000    0.000 
#    0.000    0.000    0.000    0.000    0.000    0.000 
#
# Total GULP energy -111438.685784 kJ/mol
# GULP energy per Si atom -5571.934289 kJ/mol
# Density = 2.324514 g / cm^3
# Si number density = 23.298170 Si / 1000 Ang^3
#
#
#
# Elastic Constant Matrix: (Units=GPa)
#
#
# Indices 1 2 3 4 5 6 
#
# 1 132.6185 37.1508 13.2552 0.0000 0.0000 0.0000
# 2 37.1508 83.4294 11.4145 0.0000 0.0000 0.0000
# 3 13.2552 11.4145 70.1118 0.0000 0.0000 0.0000
# 4 0.0000 0.0000 0.0000 29.5242 0.0000 0.0000
# 5 0.0000 0.0000 0.0000 0.0000 7.1504 0.0000
# 6 0.0000 0.0000 0.0000 0.0000 0.0000 38.7299
#
#
#
# Elastic Compliance Matrix: (Units=1/GPa)
#
#
# Indices 1 2 3 4 5 6 
#
# 1 0.008688 -0.003727 -0.001036 0.000000 0.000000 0.000000
# 2 -0.003727 0.013858 -0.001552 0.000000 0.000000 0.000000
# 3 -0.001036 -0.001552 0.014711 0.000000 0.000000 0.000000
# 4 0.000000 0.000000 0.000000 0.033871 0.000000 0.000000
# 5 0.000000 0.000000 0.000000 0.000000 0.139853 0.000000
# 6 0.000000 0.000000 0.000000 0.000000 0.000000 0.025820
#
#
# Mechanical properties :
#
#
# Convention : Reuss Voigt Hill
#
# Bulk Modulus (GPa) = 40.60286 45.53340 43.06813
# Shear Modulus (GPa) = 19.40700 30.03685 24.72193
#
# Velocity S-wave (km/s) = 2.88928 3.59449 3.26100
# Velocity P-wave (km/s) = 5.34751 6.06740 5.71879
#
# Compressibility (1/GPa) = 0.02462881
#
# Stress axis : x y z
#
# Youngs Moduli (GPa) = 115.10109 72.16007 67.97477
#
# Poissons Ratio (x) = 0.26894 0.07041
# Poissons Ratio (y) = 0.42899 0.10546
# Poissons Ratio (z) = 0.11922 0.11196
#
# Static dielectric constant tensor:
#      x y z
#    x 2.066370 0.000000 0.000000 
#    y 0.000000 2.246550 0.000000 
#    z 0.000000 0.000000 1.871800 
# 
# From -- ./inp_files/28096.got.cif
#   From: 2010.05.17/outbox.cif.g08.bks.cpg/sg22_15_cif.got.tgz:28096.got - 2010.06.03 23:40:54.
