data_PCOD9327892
_publ_section_title
;
Structure prediction by ZEFSAII (Michael W. Deem and Ramdas Pophale) SiO2 
 PCOD9327892
Probable space group: F 2 2 2
;
_chemical_formula_sum "Si O2"
_cell_formula_units_Z 104
_cell_length_a 11.190240
_cell_length_b 16.601933
_cell_length_c 26.104836
_cell_angle_alpha 90.000000
_cell_angle_beta 90.000000
_cell_angle_gamma 90.000000
_cell_volume 4849.746375
_symmetry_space_group_name_H-M "F 2 2 2"
_symmetry_group_IT_number 22
_symmetry_cell_setting 'orthorhombic'
loop_
_space_group_symop_operation_xyz
x,y,z
-x,-y,z
x,-y,-z
-x,y,-z
x,1/2+y,1/2+z
-x,1/2-y,1/2+z
x,1/2-y,1/2-z
-x,1/2+y,1/2-z
1/2+x,y,1/2+z
1/2-x,-y,1/2+z
1/2+x,-y,1/2-z
1/2-x,y,1/2-z
1/2+x,1/2+y,z
1/2-x,1/2-y,z
1/2+x,1/2-y,-z
1/2-x,1/2+y,-z
loop_
_atom_site_type_symbol
_atom_site_label
_atom_site_fract_x
_atom_site_fract_y
_atom_site_fract_z
Si Si1 0.750000 0.750000 0.121092
Si Si2 0.880827 0.961105 0.555915
Si Si3 0.600193 0.633480 0.193409
Si Si4 0.856253 0.307417 0.335058
Si Si5 0.578031 0.075460 0.802870
Si Si6 0.496872 0.314281 0.603151
Si Si7 0.703618 0.009526 0.359320
O O1 0.688428 0.687342 0.159615
O O2 0.635397 0.788880 0.091202
O O3 0.757449 0.984471 0.583428
O O4 0.921770 0.868440 0.563001
O O5 0.875903 0.000000 0.500000
O O6 0.000000 0.000000 0.581711
O O7 0.473427 0.678506 0.198128
O O8 0.625563 0.618099 0.252384
O O9 0.599678 0.551430 0.158899
O O10 0.750000 0.250000 0.316394
O O11 0.811175 0.397753 0.344160
O O12 0.914769 0.262832 0.384360
O O13 0.512274 0.134628 0.843333
O O14 0.500000 0.000000 0.784369
O O15 0.687084 0.031627 0.830016
#
# Coordination Sequence:
#
# PCOD9327892 Si02
#       7
#     8  16  16  16  16  16  16
#     4  10  22  39  64  92 142 182 234 286 352 389
#     4  11  21  39  72 101 124 173 235 286 347 419
#     4  11  25  38  63  97 137 188 232 279 341 423
#     4  11  23  41  66  94 143 181 220 282 356 399
#     4  12  21  38  60  93 137 182 239 270 334 412
#     4  11  21  41  62 100 131 179 228 290 339 413
#     4  12  21  42  64  99 132 179 227 292 341 410
#
# _framework density 21.444420000000001
#
# number of rings (size 3 to 8) (size 9 to 14) (size 15 to 20)
#    0.000    0.769    6.154    1.846    0.000    3.077 
#    0.000    6.154    0.000   25.846    0.000    3.231 
#    0.000    0.000    0.000    0.000    0.000    0.000 
#
# Total GULP energy -144848.068860 kJ/mol
# GULP energy per Si atom -5571.079572 kJ/mol
# Density = 2.139561 g / cm^3
# Si number density = 21.444420 Si / 1000 Ang^3
#
#
#
# Elastic Constant Matrix: (Units=GPa)
#
#
# Indices 1 2 3 4 5 6 
#
# 1 101.5617 39.5724 24.9761 0.0000 0.0000 0.0000
# 2 39.5724 135.7868 37.4531 0.0000 0.0000 0.0000
# 3 24.9761 37.4531 81.6573 0.0000 0.0000 0.0000
# 4 0.0000 0.0000 0.0000 -40.2153 0.0000 0.0000
# 5 0.0000 0.0000 0.0000 0.0000 142.3718 0.0000
# 6 0.0000 0.0000 0.0000 0.0000 0.0000 53.2309
#
#
#
# Elastic Compliance Matrix: (Units=1/GPa)
#
#
# Indices 1 2 3 4 5 6 
#
# 1 0.011460 -0.002717 -0.002259 0.000000 0.000000 0.000000
# 2 -0.002717 0.009075 -0.003331 0.000000 0.000000 0.000000
# 3 -0.002259 -0.003331 0.014465 0.000000 0.000000 0.000000
# 4 0.000000 0.000000 0.000000 -0.024866 0.000000 0.000000
# 5 0.000000 0.000000 0.000000 0.000000 0.007024 0.000000
# 6 0.000000 0.000000 0.000000 0.000000 0.000000 0.018786
#
#
# Mechanical properties :
#
#
# Convention : Reuss Voigt Hill
#
# Bulk Modulus (GPa) = 54.38946 58.11213 56.25079
# Shear Modulus (GPa) = 85.19599 45.54443 65.37021
#
# Velocity S-wave (km/s) = 6.30991 4.61351 5.52718
# Velocity P-wave (km/s) = 8.86029 7.45232 8.18663
#
# Compressibility (1/GPa) = 0.01838591
#
# Stress axis : x y z
#
# Youngs Moduli (GPa) = 87.25720 110.19139 69.13077
#
# Poissons Ratio (x) = 0.29936 0.15618
# Poissons Ratio (y) = 0.23706 0.23031
# Poissons Ratio (z) = 0.19714 0.36710
#
# Static dielectric constant tensor:
#      x y z
#    x 1.922130 0.000000 0.000000 
#    y 0.000000 1.552460 0.000000 
#    z 0.000000 0.000000 1.762560 
# 
# From -- ./inp_files/52695.got.cif
#   From: 2010.05.17/outbox.cif.g08.bks.cpg/sg22_27_cif.got.tgz:52695.got - 2010.06.03 23:40:54.
