data_PCOD9327884
_publ_section_title
;
Structure prediction by ZEFSAII (Michael W. Deem and Ramdas Pophale) SiO2 
 PCOD9327884
Probable space group: F 2 2 2
;
_chemical_formula_sum "Si O2"
_cell_formula_units_Z 80
_cell_length_a 21.588892
_cell_length_b 14.244311
_cell_length_c 12.357049
_cell_angle_alpha 90.000000
_cell_angle_beta 90.000000
_cell_angle_gamma 90.000000
_cell_volume 3800.026014
_symmetry_space_group_name_H-M "F 2 2 2"
_symmetry_group_IT_number 22
_symmetry_cell_setting 'orthorhombic'
loop_
_space_group_symop_operation_xyz
x,y,z
-x,-y,z
x,-y,-z
-x,y,-z
x,1/2+y,1/2+z
-x,1/2-y,1/2+z
x,1/2-y,1/2-z
-x,1/2+y,1/2-z
1/2+x,y,1/2+z
1/2-x,-y,1/2+z
1/2+x,-y,1/2-z
1/2-x,y,1/2-z
1/2+x,1/2+y,z
1/2-x,1/2-y,z
1/2+x,1/2-y,-z
1/2-x,1/2+y,-z
loop_
_atom_site_type_symbol
_atom_site_label
_atom_site_fract_x
_atom_site_fract_y
_atom_site_fract_z
Si Si1 0.092195 0.203190 0.655368
Si Si2 0.556565 0.423449 0.840928
Si Si3 0.338317 0.500000 0.000000
Si Si4 0.712713 0.833082 0.635281
Si Si5 0.925510 0.497476 0.877336
Si Si6 0.000000 0.771610 0.000000
O O1 0.051818 0.250000 0.750000
O O2 0.146965 0.280037 0.650054
O O3 0.102231 0.093432 0.675524
O O4 0.054286 0.207790 0.545688
O O5 0.500000 0.500000 0.842557
O O6 0.614981 0.456181 0.911920
O O7 0.580236 0.418278 0.716254
O O8 0.528310 0.336678 0.906472
O O9 0.297476 0.423845 0.936329
O O10 0.750000 0.849748 0.750000
O O11 0.750000 0.750000 0.576697
O O12 0.000000 0.500000 0.888392
O O13 0.899751 0.500000 0.000000
#
# Coordination Sequence:
#
# PCOD9327884 Si02
#       6
#    16  16   8  16  16   8
#     4  12  22  40  66  96 142 180 230 287 335 420
#     4  11  19  34  64 102 133 170 219 275 346 417
#     4  12  21  42  72  96 130 167 232 308 338 400
#     4  11  24  44  69  99 127 181 245 287 340 411
#     4  10  22  39  58  96 148 189 216 263 350 426
#     4  12  21  34  63 106 136 172 228 291 352 411
#
# _framework density 21.052488
#
# number of rings (size 3 to 8) (size 9 to 14) (size 15 to 20)
#    0.000    0.800    6.000    4.800    0.000    0.000 
#    1.800    0.000    0.000    3.000    0.000    0.000 
#    0.000    0.000    0.000    0.000    0.000    0.000 
#
# Total GULP energy -111376.405239 kJ/mol
# GULP energy per Si atom -5568.820262 kJ/mol
# Density = 2.100457 g / cm^3
# Si number density = 21.052488 Si / 1000 Ang^3
#
#
#
# Elastic Constant Matrix: (Units=GPa)
#
#
# Indices 1 2 3 4 5 6 
#
# 1 71.1640 37.1717 36.7131 0.0000 0.0000 0.0000
# 2 37.1717 98.3451 31.2339 0.0000 0.0000 0.0000
# 3 36.7131 31.2339 126.8490 0.0000 0.0000 0.0000
# 4 0.0000 0.0000 0.0000 -7.6696 0.0000 0.0000
# 5 0.0000 0.0000 0.0000 0.0000 13.0478 0.0000
# 6 0.0000 0.0000 0.0000 0.0000 0.0000 11.4066
#
#
#
# Elastic Compliance Matrix: (Units=1/GPa)
#
#
# Indices 1 2 3 4 5 6 
#
# 1 0.019302 -0.005990 -0.004112 0.000000 0.000000 0.000000
# 2 -0.005990 0.012890 -0.001440 0.000000 0.000000 0.000000
# 3 -0.004112 -0.001440 0.009428 0.000000 0.000000 0.000000
# 4 0.000000 0.000000 0.000000 -0.130385 0.000000 0.000000
# 5 0.000000 0.000000 0.000000 0.000000 0.076641 0.000000
# 6 0.000000 0.000000 0.000000 0.000000 0.000000 0.087669
#
#
# Mechanical properties :
#
#
# Convention : Reuss Voigt Hill
#
# Bulk Modulus (GPa) = 53.94786 56.28838 55.11812
# Shear Modulus (GPa) = 47.70711 16.10624 31.90667
#
# Velocity S-wave (km/s) = 4.76552 2.76896 3.89727
# Velocity P-wave (km/s) = 7.48073 6.08425 6.81833
#
# Compressibility (1/GPa) = 0.01853642
#
# Stress axis : x y z
#
# Youngs Moduli (GPa) = 51.80843 77.58162 106.06697
#
# Poissons Ratio (x) = 0.46470 0.43610
# Poissons Ratio (y) = 0.31032 0.15276
# Poissons Ratio (z) = 0.21301 0.11174
#
# Static dielectric constant tensor:
#      x y z
#    x 1.870770 0.000000 0.000000 
#    y 0.000000 1.780160 0.000000 
#    z 0.000000 0.000000 1.946880 
# 
# From -- ./inp_files/23592.got.cif
#   From: 2010.05.17/outbox.cif.g08.bks.cpg/sg22_12_cif.got.tgz:23592.got - 2010.06.03 23:40:54.
