data_PCOD9327479
_publ_section_title
;
Structure prediction by ZEFSAII (Michael W. Deem and Ramdas Pophale) SiO2 
 PCOD9327479
Probable space group: F 2 2 2
;
_chemical_formula_sum "Si O2"
_cell_formula_units_Z 104
_cell_length_a 7.935842
_cell_length_b 25.057807
_cell_length_c 26.647450
_cell_angle_alpha 90.000000
_cell_angle_beta 90.000000
_cell_angle_gamma 90.000000
_cell_volume 5298.973266
_symmetry_space_group_name_H-M "F 2 2 2"
_symmetry_group_IT_number 22
_symmetry_cell_setting 'orthorhombic'
loop_
_space_group_symop_operation_xyz
x,y,z
-x,-y,z
x,-y,-z
-x,y,-z
x,1/2+y,1/2+z
-x,1/2-y,1/2+z
x,1/2-y,1/2-z
-x,1/2+y,1/2-z
1/2+x,y,1/2+z
1/2-x,-y,1/2+z
1/2+x,-y,1/2-z
1/2-x,y,1/2-z
1/2+x,1/2+y,z
1/2-x,1/2-y,z
1/2+x,1/2-y,-z
1/2-x,1/2+y,-z
loop_
_atom_site_type_symbol
_atom_site_label
_atom_site_fract_x
_atom_site_fract_y
_atom_site_fract_z
Si Si1 0.282742 0.873817 0.903534
Si Si2 0.319675 0.369635 0.601004
Si Si3 0.911393 0.784693 0.046565
Si Si4 0.250000 0.750000 0.089475
Si Si5 0.706772 0.060245 0.305953
Si Si6 0.696083 0.937755 0.305185
Si Si7 0.704996 0.438337 0.497635
O O1 0.480977 0.862455 0.907536
O O2 0.164880 0.822471 0.910930
O O3 0.258423 0.902383 0.850824
O O4 0.236898 0.910485 0.951186
O O5 0.242692 0.310739 0.610749
O O6 0.285964 0.405560 0.649717
O O7 0.253845 0.402836 0.551933
O O8 0.750000 0.750000 0.029788
O O9 0.066411 0.748377 0.063539
O O10 0.000000 0.814888 0.000000
O O11 0.750000 0.079530 0.250000
O O12 0.505235 0.060885 0.309446
O O13 0.763267 0.998434 0.310030
O O14 0.750000 0.918376 0.250000
O O15 0.762886 0.500000 0.500000
O O16 0.500000 0.439709 0.500000
#
# Coordination Sequence:
#
# PCOD9327479 Si02
#       7
#    16  16  16   8  16  16  16
#     4  11  22  38  62  94 127 166 216 263 329 389
#     4  11  22  38  62  90 128 173 213 268 325 388
#     4  12  24  40  63  90 126 172 218 268 316 381
#     4  12  24  40  61  88 128 168 223 268 318 382
#     4  10  21  39  63  92 125 169 217 267 333 392
#     4  10  21  38  63  94 127 164 214 274 328 396
#     4   9  19  34  55  88 127 165 204 251 319 391
#
# _framework density 19.626443999999999
#
# number of rings (size 3 to 8) (size 9 to 14) (size 15 to 20)
#    0.000    1.385    2.308    3.692    0.000    3.077 
#    0.000    0.385    0.000    4.154    0.000    0.000 
#    0.000    0.000    0.000    0.000    0.000    0.000 
#
# Total GULP energy -144960.024988 kJ/mol
# GULP energy per Si atom -5575.385576 kJ/mol
# Density = 1.958177 g / cm^3
# Si number density = 19.626444 Si / 1000 Ang^3
#
#
#
# Elastic Constant Matrix: (Units=GPa)
#
#
# Indices 1 2 3 4 5 6 
#
# 1 84.7029 29.8106 25.5975 0.0000 0.0000 0.0000
# 2 29.8106 110.4734 82.0341 0.0000 0.0000 0.0000
# 3 25.5975 82.0341 153.3402 0.0000 0.0000 0.0000
# 4 0.0000 0.0000 0.0000 10.8507 0.0000 0.0000
# 5 0.0000 0.0000 0.0000 0.0000 27.0943 0.0000
# 6 0.0000 0.0000 0.0000 0.0000 0.0000 26.9696
#
#
#
# Elastic Compliance Matrix: (Units=1/GPa)
#
#
# Indices 1 2 3 4 5 6 
#
# 1 0.013067 -0.003163 -0.000489 0.000000 0.000000 0.000000
# 2 -0.003163 0.015783 -0.007916 0.000000 0.000000 0.000000
# 3 -0.000489 -0.007916 0.010838 0.000000 0.000000 0.000000
# 4 0.000000 0.000000 0.000000 0.092160 0.000000 0.000000
# 5 0.000000 0.000000 0.000000 0.000000 0.036908 0.000000
# 6 0.000000 0.000000 0.000000 0.000000 0.000000 0.037079
#
#
# Mechanical properties :
#
#
# Convention : Reuss Voigt Hill
#
# Bulk Modulus (GPa) = 60.41355 69.26677 64.84016
# Shear Modulus (GPa) = 21.32300 27.05455 24.18877
#
# Velocity S-wave (km/s) = 3.29970 3.71681 3.51445
# Velocity P-wave (km/s) = 6.73542 7.33408 7.04112
#
# Compressibility (1/GPa) = 0.01655258
#
# Stress axis : x y z
#
# Youngs Moduli (GPa) = 76.52908 63.35733 92.26799
#
# Poissons Ratio (x) = 0.20038 0.04515
# Poissons Ratio (y) = 0.24204 0.73039
# Poissons Ratio (z) = 0.03745 0.50153
#
# Static dielectric constant tensor:
#      x y z
#    x 1.764860 0.000000 0.000000 
#    y 0.000000 1.722390 0.000000 
#    z 0.000000 0.000000 1.672520 
# 
# From -- ./inp_files/52080.got.cif
#   From: 2010.05.17/outbox.cif.g08.bks.cpg/sg22_27_cif.got.tgz:52080.got - 2010.06.03 23:40:54.
