data_PCOD9327669
_publ_section_title
;
Structure prediction by ZEFSAII (Michael W. Deem and Ramdas Pophale) SiO2 
 PCOD9327669
Probable space group: F 2 2 2
;
_chemical_formula_sum "Si O2"
_cell_formula_units_Z 112
_cell_length_a 20.263262
_cell_length_b 12.847080
_cell_length_c 21.266720
_cell_angle_alpha 90.000000
_cell_angle_beta 90.000000
_cell_angle_gamma 90.000000
_cell_volume 5536.232258
_symmetry_space_group_name_H-M "F 2 2 2"
_symmetry_group_IT_number 22
_symmetry_cell_setting 'orthorhombic'
loop_
_space_group_symop_operation_xyz
x,y,z
-x,-y,z
x,-y,-z
-x,y,-z
x,1/2+y,1/2+z
-x,1/2-y,1/2+z
x,1/2-y,1/2-z
-x,1/2+y,1/2-z
1/2+x,y,1/2+z
1/2-x,-y,1/2+z
1/2+x,-y,1/2-z
1/2-x,y,1/2-z
1/2+x,1/2+y,z
1/2-x,1/2-y,z
1/2+x,1/2-y,-z
1/2-x,1/2+y,-z
loop_
_atom_site_type_symbol
_atom_site_label
_atom_site_fract_x
_atom_site_fract_y
_atom_site_fract_z
Si Si1 0.816877 0.313993 0.623622
Si Si2 0.378986 0.983689 0.168049
Si Si3 0.164460 0.142033 0.784414
Si Si4 0.183038 0.816268 0.024993
Si Si5 0.574922 0.256613 0.377858
Si Si6 0.557726 0.208525 0.819574
Si Si7 0.239416 0.470541 0.618990
O O1 0.750000 0.250000 0.633028
O O2 0.830876 0.315892 0.548880
O O3 0.874325 0.264419 0.663555
O O4 0.802423 0.431797 0.641448
O O5 0.351733 0.950178 0.236438
O O6 0.409919 0.875537 0.143304
O O7 0.316032 0.002368 0.121721
O O8 0.425773 0.084546 0.174905
O O9 0.175504 0.250000 0.750000
O O10 0.102726 0.170680 0.829040
O O11 0.225920 0.117009 0.829000
O O12 0.250000 0.750000 0.035338
O O13 0.119524 0.769181 0.061198
O O14 0.206676 0.924954 0.056061
O O15 0.496213 0.255845 0.371315
O O16 0.536685 0.250000 0.750000
#
# Coordination Sequence:
#
# PCOD9327669 Si02
#       7
#    16  16  16  16  16  16  16
#     4  11  24  42  61  90 125 171 210 253 317 381
#     4  11  20  36  59  91 124 165 204 261 311 373
#     4   9  20  34  58  91 127 161 213 259 314 365
#     4  10  21  41  68  90 122 154 210 277 317 367
#     4  10  22  40  63  94 122 165 211 263 323 363
#     4  12  25  41  61  89 137 175 207 249 309 395
#     4  11  20  37  62  94 119 160 207 270 315 370
#
# _framework density 20.230364000000002
#
# number of rings (size 3 to 8) (size 9 to 14) (size 15 to 20)
#    0.000    1.429    2.857    3.429    0.000    2.571 
#    0.000    6.429    0.000    5.143    0.000    0.000 
#    0.000    0.000    0.000    0.000    0.000    0.000 
#
# Total GULP energy -156157.833901 kJ/mol
# GULP energy per Si atom -5577.065496 kJ/mol
# Density = 2.018432 g / cm^3
# Si number density = 20.230364 Si / 1000 Ang^3
#
#
#
# Elastic Constant Matrix: (Units=GPa)
#
#
# Indices 1 2 3 4 5 6 
#
# 1 80.9259 3.6594 12.5673 0.0000 0.0000 0.0000
# 2 3.6594 66.7213 -1.1080 0.0000 0.0000 0.0000
# 3 12.5673 -1.1080 37.8968 0.0000 0.0000 0.0000
# 4 0.0000 0.0000 0.0000 22.6869 0.0000 0.0000
# 5 0.0000 0.0000 0.0000 0.0000 19.6187 0.0000
# 6 0.0000 0.0000 0.0000 0.0000 0.0000 30.0735
#
#
#
# Elastic Compliance Matrix: (Units=1/GPa)
#
#
# Indices 1 2 3 4 5 6 
#
# 1 0.013069 -0.000789 -0.004357 0.000000 0.000000 0.000000
# 2 -0.000789 0.015043 0.000701 0.000000 0.000000 0.000000
# 3 -0.004357 0.000701 0.027853 0.000000 0.000000 0.000000
# 4 0.000000 0.000000 0.000000 0.044078 0.000000 0.000000
# 5 0.000000 0.000000 0.000000 0.000000 0.050972 0.000000
# 6 0.000000 0.000000 0.000000 0.000000 0.000000 0.033252
#
#
# Mechanical properties :
#
#
# Convention : Reuss Voigt Hill
#
# Bulk Modulus (GPa) = 21.24258 23.97573 22.60915
# Shear Modulus (GPa) = 23.94084 25.83750 24.88917
#
# Velocity S-wave (km/s) = 3.44381 3.57762 3.51135
# Velocity P-wave (km/s) = 5.13188 5.37986 5.25733
#
# Compressibility (1/GPa) = 0.04707527
#
# Stress axis : x y z
#
# Youngs Moduli (GPa) = 76.51523 66.47769 35.90295
#
# Poissons Ratio (x) = 0.05246 0.15643
# Poissons Ratio (y) = 0.06038 -0.02519
# Poissons Ratio (z) = 0.33338 -0.04663
#
# Static dielectric constant tensor:
#      x y z
#    x 1.741520 0.000000 0.000000 
#    y 0.000000 1.819930 0.000000 
#    z 0.000000 0.000000 1.735960 
# 
# From -- ./inp_files/22959.got.cif
#   From: 2010.05.17/outbox.cif.g08.bks.cpg/sg22_12_cif.got.tgz:22959.got - 2010.06.03 23:40:54.
