data_PCOD9327801
_publ_section_title
;
Structure prediction by ZEFSAII (Michael W. Deem and Ramdas Pophale) SiO2 
 PCOD9327801
Probable space group: F 2 2 2
;
_chemical_formula_sum "Si O2"
_cell_formula_units_Z 64
_cell_length_a 5.164702
_cell_length_b 24.687396
_cell_length_c 23.701676
_cell_angle_alpha 90.000000
_cell_angle_beta 90.000000
_cell_angle_gamma 90.000000
_cell_volume 3022.035826
_symmetry_space_group_name_H-M "F 2 2 2"
_symmetry_group_IT_number 22
_symmetry_cell_setting 'orthorhombic'
loop_
_space_group_symop_operation_xyz
x,y,z
-x,-y,z
x,-y,-z
-x,y,-z
x,1/2+y,1/2+z
-x,1/2-y,1/2+z
x,1/2-y,1/2-z
-x,1/2+y,1/2-z
1/2+x,y,1/2+z
1/2-x,-y,1/2+z
1/2+x,-y,1/2-z
1/2-x,y,1/2-z
1/2+x,1/2+y,z
1/2-x,1/2-y,z
1/2+x,1/2-y,-z
1/2-x,1/2+y,-z
loop_
_atom_site_type_symbol
_atom_site_label
_atom_site_fract_x
_atom_site_fract_y
_atom_site_fract_z
Si Si1 0.505781 0.225930 0.812643
Si Si2 0.751047 0.815245 0.537616
Si Si3 0.652050 0.944717 0.314727
Si Si4 0.857242 0.115708 0.349347
O O1 0.510587 0.250000 0.750000
O O2 0.750000 0.250000 0.844709
O O3 0.491381 0.162209 0.811412
O O4 0.250000 0.250000 0.838373
O O5 0.500000 0.828561 0.500000
O O6 0.750000 0.750000 0.547011
O O7 0.785588 0.853228 0.592695
O O8 0.000000 0.826671 0.500000
O O9 0.750000 0.948953 0.250000
O O10 0.415585 0.902409 0.322605
O O11 0.912480 0.929226 0.350022
O O12 0.500000 0.000000 0.330335
#
# Coordination Sequence:
#
# PCOD9327801 Si02
#       4
#    16  16  16  16
#     4  10  22  35  53  91 136 170 208 264 321 395
#     4  10  22  42  68 101 141 179 224 271 330 415
#     4  12  27  46  66  97 133 179 235 281 336 407
#     4  12  24  41  72  96 133 185 225 276 345 390
#
# _framework density 21.177778
#
# number of rings (size 3 to 8) (size 9 to 14) (size 15 to 20)
#    0.000    1.000    0.000    6.750   10.500    3.000 
#    0.000    0.000    0.000   11.250    0.000    0.000 
#    0.000    0.000    0.000    0.000    0.000    0.000 
#
# Total GULP energy -89280.870235 kJ/mol
# GULP energy per Si atom -5580.054390 kJ/mol
# Density = 2.112958 g / cm^3
# Si number density = 21.177778 Si / 1000 Ang^3
#
#
#
# Elastic Constant Matrix: (Units=GPa)
#
#
# Indices 1 2 3 4 5 6 
#
# 1 218.8117 46.4175 43.1009 0.0000 0.0000 0.0000
# 2 46.4175 89.1512 38.9023 0.0000 0.0000 0.0000
# 3 43.1009 38.9023 101.0549 0.0000 0.0000 0.0000
# 4 0.0000 0.0000 0.0000 23.4026 0.0000 0.0000
# 5 0.0000 0.0000 0.0000 0.0000 9.6233 0.0000
# 6 0.0000 0.0000 0.0000 0.0000 0.0000 69.7804
#
#
#
# Elastic Compliance Matrix: (Units=1/GPa)
#
#
# Indices 1 2 3 4 5 6 
#
# 1 0.005307 -0.002134 -0.001442 0.000000 0.000000 0.000000
# 2 -0.002134 0.014340 -0.004610 0.000000 0.000000 0.000000
# 3 -0.001442 -0.004610 0.012285 0.000000 0.000000 0.000000
# 4 0.000000 0.000000 0.000000 0.042730 0.000000 0.000000
# 5 0.000000 0.000000 0.000000 0.000000 0.103914 0.000000
# 6 0.000000 0.000000 0.000000 0.000000 0.000000 0.014331
#
#
# Mechanical properties :
#
#
# Convention : Reuss Voigt Hill
#
# Bulk Modulus (GPa) = 64.26753 73.98435 69.12594
# Shear Modulus (GPa) = 23.31382 39.26775 31.29078
#
# Velocity S-wave (km/s) = 3.32152 4.31071 3.84803
# Velocity P-wave (km/s) = 6.71734 7.73221 7.24257
#
# Compressibility (1/GPa) = 0.01555996
#
# Stress axis : x y z
#
# Youngs Moduli (GPa) = 188.43626 69.73711 81.39784
#
# Poissons Ratio (x) = 0.14881 0.11737
# Poissons Ratio (y) = 0.40209 0.37525
# Poissons Ratio (z) = 0.27172 0.32149
#
# Static dielectric constant tensor:
#      x y z
#    x 1.833840 0.000000 0.000000 
#    y 0.000000 1.866470 0.000000 
#    z 0.000000 0.000000 1.643540 
# 
# From -- ./inp_files/4384.got.cif
#   From: 2010.05.17/outbox.cif.g08.bks.cpg/sg22_3_cif.got.tgz:4384.got - 2010.06.03 23:40:54.
