data_PCOD9327358
_publ_section_title
;
Structure prediction by ZEFSAII (Michael W. Deem and Ramdas Pophale) SiO2 
 PCOD9327358
Probable space group: F 2 2 2
;
_chemical_formula_sum "Si O2"
_cell_formula_units_Z 120
_cell_length_a 12.758848
_cell_length_b 24.550417
_cell_length_c 19.957991
_cell_angle_alpha 90.000000
_cell_angle_beta 90.000000
_cell_angle_gamma 90.000000
_cell_volume 6251.542086
_symmetry_space_group_name_H-M "F 2 2 2"
_symmetry_group_IT_number 22
_symmetry_cell_setting 'orthorhombic'
loop_
_space_group_symop_operation_xyz
x,y,z
-x,-y,z
x,-y,-z
-x,y,-z
x,1/2+y,1/2+z
-x,1/2-y,1/2+z
x,1/2-y,1/2-z
-x,1/2+y,1/2-z
1/2+x,y,1/2+z
1/2-x,-y,1/2+z
1/2+x,-y,1/2-z
1/2-x,y,1/2-z
1/2+x,1/2+y,z
1/2-x,1/2-y,z
1/2+x,1/2-y,-z
1/2-x,1/2+y,-z
loop_
_atom_site_type_symbol
_atom_site_label
_atom_site_fract_x
_atom_site_fract_y
_atom_site_fract_z
Si Si1 0.406024 0.142521 0.872065
Si Si2 0.000000 0.500000 0.315498
Si Si3 0.336323 0.643422 0.125846
Si Si4 0.668073 0.527453 0.926881
Si Si5 0.533639 0.259321 0.075650
Si Si6 0.598297 0.973283 0.926294
Si Si7 0.981866 0.119122 0.766015
Si Si8 0.636755 0.781351 0.313104
O O1 0.283788 0.144008 0.850040
O O2 0.432365 0.198265 0.908365
O O3 0.417034 0.091247 0.922009
O O4 0.482110 0.134153 0.808759
O O5 0.905912 0.491756 0.367813
O O6 0.026167 0.445896 0.273770
O O7 0.344435 0.593159 0.073049
O O8 0.372386 0.699563 0.092961
O O9 0.420238 0.633768 0.184943
O O10 0.785524 0.515251 0.901583
O O11 0.649902 0.500000 0.000000
O O12 0.433610 0.272951 0.122060
O O13 0.500000 0.266061 0.000000
O O14 0.500000 0.000000 0.889567
O O15 0.600673 0.000000 0.000000
O O16 0.881542 0.155166 0.791193
O O17 0.585858 0.750000 0.250000
O O18 0.750000 0.750000 0.320970
#
# Coordination Sequence:
#
# PCOD9327358 Si02
#       8
#    16   8  16  16  16  16  16  16
#     4  11  21  38  62  88 119 163 210 259 314 375
#     4  10  21  36  56  96 129 150 214 266 314 382
#     4   9  21  38  62  88 123 154 207 262 315 374
#     4   9  18  36  60  87 119 165 200 251 320 382
#     4  11  24  39  61  95 125 156 209 267 323 373
#     4   9  20  37  57  82 118 163 205 249 305 376
#     4  10  21  39  63  91 122 164 207 267 316 374
#     4  10  21  43  64  86 125 172 213 252 320 398
#
# _framework density 19.195264000000002
#
# number of rings (size 3 to 8) (size 9 to 14) (size 15 to 20)
#    0.000    2.133    1.333    1.000    2.800    4.267 
#    2.400    1.333    5.867    0.000    0.000    0.000 
#    0.000    0.000    0.000    0.000    0.000    0.000 
#
# Total GULP energy -167080.217182 kJ/mol
# GULP energy per Si atom -5569.340573 kJ/mol
# Density = 1.915157 g / cm^3
# Si number density = 19.195264 Si / 1000 Ang^3
#
#
#
# Elastic Constant Matrix: (Units=GPa)
#
#
# Indices 1 2 3 4 5 6 
#
# 1 101.5227 45.5629 18.2614 0.0000 0.0000 0.0000
# 2 45.5629 138.4129 32.6574 0.0000 0.0000 0.0000
# 3 18.2614 32.6574 78.6209 0.0000 0.0000 0.0000
# 4 0.0000 0.0000 0.0000 26.6654 0.0000 0.0000
# 5 0.0000 0.0000 0.0000 0.0000 -12.3550 0.0000
# 6 0.0000 0.0000 0.0000 0.0000 0.0000 31.0048
#
#
#
# Elastic Compliance Matrix: (Units=1/GPa)
#
#
# Indices 1 2 3 4 5 6 
#
# 1 0.011665 -0.003548 -0.001235 0.000000 0.000000 0.000000
# 2 -0.003548 0.009089 -0.002951 0.000000 0.000000 0.000000
# 3 -0.001235 -0.002951 0.014232 0.000000 0.000000 0.000000
# 4 0.000000 0.000000 0.000000 0.037502 0.000000 0.000000
# 5 0.000000 0.000000 0.000000 0.000000 -0.080939 0.000000
# 6 0.000000 0.000000 0.000000 0.000000 0.000000 0.032253
#
#
# Mechanical properties :
#
#
# Convention : Reuss Voigt Hill
#
# Bulk Modulus (GPa) = 51.24038 56.83555 54.03796
# Shear Modulus (GPa) = 109.22454 23.86804 66.54629
#
# Velocity S-wave (km/s) = 7.55151 3.53006 5.89435
# Velocity P-wave (km/s) = 10.13834 6.80357 8.63350
#
# Compressibility (1/GPa) = 0.01951586
#
# Stress axis : x y z
#
# Youngs Moduli (GPa) = 85.72868 110.02174 70.26367
#
# Poissons Ratio (x) = 0.39039 0.08681
# Poissons Ratio (y) = 0.30419 0.20737
# Poissons Ratio (z) = 0.10592 0.32470
#
# Static dielectric constant tensor:
#      x y z
#    x 1.726610 0.000000 0.000000 
#    y 0.000000 1.697330 0.000000 
#    z 0.000000 0.000000 1.649110 
# 
# From -- ./inp_files/42954.got.cif
#   From: 2010.05.17/outbox.cif.g08.bks.cpg/sg22_22_cif.got.tgz:42954.got - 2010.06.03 23:40:54.
