data_PCOD9327284
_publ_section_title
;
Structure prediction by ZEFSAII (Michael W. Deem and Ramdas Pophale) SiO2 
 PCOD9327284
Probable space group: F 2 2 2
;
_chemical_formula_sum "Si O2"
_cell_formula_units_Z 64
_cell_length_a 13.779007
_cell_length_b 9.575799
_cell_length_c 20.512605
_cell_angle_alpha 90.000000
_cell_angle_beta 90.000000
_cell_angle_gamma 90.000000
_cell_volume 2706.535697
_symmetry_space_group_name_H-M "F 2 2 2"
_symmetry_group_IT_number 22
_symmetry_cell_setting 'orthorhombic'
loop_
_space_group_symop_operation_xyz
x,y,z
-x,-y,z
x,-y,-z
-x,y,-z
x,1/2+y,1/2+z
-x,1/2-y,1/2+z
x,1/2-y,1/2-z
-x,1/2+y,1/2-z
1/2+x,y,1/2+z
1/2-x,-y,1/2+z
1/2+x,-y,1/2-z
1/2-x,y,1/2-z
1/2+x,1/2+y,z
1/2-x,1/2-y,z
1/2+x,1/2-y,-z
1/2-x,1/2+y,-z
loop_
_atom_site_type_symbol
_atom_site_label
_atom_site_fract_x
_atom_site_fract_y
_atom_site_fract_z
Si Si1 0.250000 0.250000 0.055248
Si Si2 0.369660 0.306357 0.934163
Si Si3 0.681640 0.967743 0.880673
Si Si4 0.500000 0.500000 0.864442
Si Si5 0.366261 0.408803 0.250321
O O1 0.202555 0.375107 0.095714
O O2 0.328376 0.321199 0.006891
O O3 0.380042 0.140355 0.923282
O O4 0.284834 0.382999 0.889780
O O5 0.467673 0.376576 0.911591
O O6 0.624862 0.988579 0.812396
O O7 0.413441 0.532058 0.814504
O O8 0.404498 0.250000 0.250000
O O9 0.250000 0.399026 0.250000
#
# Coordination Sequence:
#
# PCOD9327284 Si02
#       5
#     8  16  16   8  16
#     4  10  20  44  79 107 136 200 250 296 370 446
#     4  10  22  41  69 110 140 185 238 310 353 442
#     4  10  21  43  73 101 139 195 246 288 367 437
#     4  12  26  42  69 114 145 190 242 302 380 428
#     4  11  24  43  68  99 142 190 237 297 365 440
#
# _framework density 23.646464000000002
#
# number of rings (size 3 to 8) (size 9 to 14) (size 15 to 20)
#    0.000    1.750    2.500    4.500    3.500    0.000 
#    0.000    2.500    0.000    0.000    0.000    0.000 
#    0.000    0.000    0.000    0.000    0.000    0.000 
#
# Total GULP energy -89143.458004 kJ/mol
# GULP energy per Si atom -5571.466125 kJ/mol
# Density = 2.359264 g / cm^3
# Si number density = 23.646464 Si / 1000 Ang^3
#
#
#
# Elastic Constant Matrix: (Units=GPa)
#
#
# Indices 1 2 3 4 5 6 
#
# 1 57.2253 29.3546 39.2506 0.0000 0.0000 0.0000
# 2 29.3546 127.2667 23.6078 0.0000 0.0000 0.0000
# 3 39.2506 23.6078 71.8548 0.0000 0.0000 0.0000
# 4 0.0000 0.0000 0.0000 -470.6562 0.0000 0.0000
# 5 0.0000 0.0000 0.0000 0.0000 34.1019 0.0000
# 6 0.0000 0.0000 0.0000 0.0000 0.0000 29.9254
#
#
#
# Elastic Compliance Matrix: (Units=1/GPa)
#
#
# Indices 1 2 3 4 5 6 
#
# 1 0.029835 -0.004109 -0.014947 0.000000 0.000000 0.000000
# 2 -0.004109 0.008933 -0.000691 0.000000 0.000000 0.000000
# 3 -0.014947 -0.000691 0.022309 0.000000 0.000000 0.000000
# 4 0.000000 0.000000 0.000000 -0.002125 0.000000 0.000000
# 5 0.000000 0.000000 0.000000 0.000000 0.029324 0.000000
# 6 0.000000 0.000000 0.000000 0.000000 0.000000 0.033416
#
#
# Mechanical properties :
#
#
# Convention : Reuss Voigt Hill
#
# Bulk Modulus (GPa) = 46.33167 48.97477 47.65322
# Shear Modulus (GPa) = 29.69473 -70.38352 -20.34439
#
# Velocity S-wave (km/s) = 3.54754 -5.46164 -2.93637
# Velocity P-wave (km/s) = 6.03457 4.36079 2.94954
#
# Compressibility (1/GPa) = 0.02158351
#
# Stress axis : x y z
#
# Youngs Moduli (GPa) = 33.51806 111.94021 44.82551
#
# Poissons Ratio (x) = 0.45994 0.67002
# Poissons Ratio (y) = 0.13772 0.03096
# Poissons Ratio (z) = 0.50100 0.07731
#
# Static dielectric constant tensor:
#      x y z
#    x 4.305010 0.000000 0.000000 
#    y 0.000000 2.038130 0.000000 
#    z 0.000000 0.000000 1.938460 
# 
# From -- ./inp_files/13444.got.cif
#   From: 2010.05.17/outbox.cif.g08.bks.cpg/sg22_7_cif.got.tgz:13444.got - 2010.06.03 23:40:54.
