data_PCOD9327811
_publ_section_title
;
Structure prediction by ZEFSAII (Michael W. Deem and Ramdas Pophale) SiO2 
 PCOD9327811
Probable space group: F 2 2 2
;
_chemical_formula_sum "Si O2"
_cell_formula_units_Z 96
_cell_length_a 9.066981
_cell_length_b 19.845933
_cell_length_c 24.417318
_cell_angle_alpha 90.000000
_cell_angle_beta 90.000000
_cell_angle_gamma 90.000000
_cell_volume 4393.718065
_symmetry_space_group_name_H-M "F 2 2 2"
_symmetry_group_IT_number 22
_symmetry_cell_setting 'orthorhombic'
loop_
_space_group_symop_operation_xyz
x,y,z
-x,-y,z
x,-y,-z
-x,y,-z
x,1/2+y,1/2+z
-x,1/2-y,1/2+z
x,1/2-y,1/2-z
-x,1/2+y,1/2-z
1/2+x,y,1/2+z
1/2-x,-y,1/2+z
1/2+x,-y,1/2-z
1/2-x,y,1/2-z
1/2+x,1/2+y,z
1/2-x,1/2-y,z
1/2+x,1/2-y,-z
1/2-x,1/2+y,-z
loop_
_atom_site_type_symbol
_atom_site_label
_atom_site_fract_x
_atom_site_fract_y
_atom_site_fract_z
Si Si1 0.012886 0.345804 0.273144
Si Si2 0.286505 0.566151 0.158073
Si Si3 0.250000 0.250000 0.919275
Si Si4 0.206991 0.820963 0.873816
Si Si5 0.750000 0.543852 0.250000
Si Si6 0.441932 0.881421 0.441711
Si Si7 0.532506 0.663308 0.654660
O O1 0.125564 0.310479 0.315208
O O2 0.107175 0.408971 0.249695
O O3 0.879117 0.377040 0.307996
O O4 0.962819 0.311206 0.217363
O O5 0.276360 0.501493 0.196336
O O6 0.361598 0.565336 0.098453
O O7 0.124989 0.595438 0.151242
O O8 0.333183 0.314788 0.947309
O O9 0.379994 0.216824 0.882768
O O10 0.250000 0.750000 0.899983
O O11 0.366530 0.851608 0.863519
O O12 0.089379 0.859654 0.909464
O O13 0.500000 0.905320 0.500000
#
# Coordination Sequence:
#
# PCOD9327811 Si02
#       7
#    16  16   8  16   8  16  16
#     4  11  22  37  58  92 128 166 204 255 309 395
#     4  10  23  38  59  91 126 162 213 265 321 379
#     4  10  22  36  61  86 126 174 207 260 322 384
#     4  11  22  39  57  88 129 165 208 253 317 386
#     4  12  20  38  67  89 124 164 208 262 328 374
#     4  10  23  42  62  89 126 164 221 271 319 383
#     4  11  20  39  53  91 128 167 204 248 316 387
#
# _framework density 21.849377
#
# number of rings (size 3 to 8) (size 9 to 14) (size 15 to 20)
#    0.000    1.333    5.000    0.500    1.167    1.333 
#    3.000    2.500    0.000    8.000    0.000    0.000 
#   30.000    0.000    0.000    0.000    0.000    0.000 
#
# Total GULP energy -134075.835505 kJ/mol
# GULP energy per Si atom -5586.493146 kJ/mol
# Density = 2.179965 g / cm^3
# Si number density = 21.849377 Si / 1000 Ang^3
#
#
#
# Elastic Constant Matrix: (Units=GPa)
#
#
# Indices 1 2 3 4 5 6 
#
# 1 98.9097 -10.0104 28.0365 0.0000 0.0000 0.0000
# 2 -10.0104 31.6110 10.3437 0.0000 0.0000 0.0000
# 3 28.0365 10.3437 123.2999 0.0000 0.0000 0.0000
# 4 0.0000 0.0000 0.0000 4.1571 0.0000 0.0000
# 5 0.0000 0.0000 0.0000 0.0000 25.8363 0.0000
# 6 0.0000 0.0000 0.0000 0.0000 0.0000 18.8643
#
#
#
# Elastic Compliance Matrix: (Units=1/GPa)
#
#
# Indices 1 2 3 4 5 6 
#
# 1 0.011420 0.004592 -0.002982 0.000000 0.000000 0.000000
# 2 0.004592 0.034374 -0.003928 0.000000 0.000000 0.000000
# 3 -0.002982 -0.003928 0.009118 0.000000 0.000000 0.000000
# 4 0.000000 0.000000 0.000000 0.240555 0.000000 0.000000
# 5 0.000000 0.000000 0.000000 0.000000 0.038705 0.000000
# 6 0.000000 0.000000 0.000000 0.000000 0.000000 0.053010
#
#
# Mechanical properties :
#
#
# Convention : Reuss Voigt Hill
#
# Bulk Modulus (GPa) = 19.88980 34.50669 27.19824
# Shear Modulus (GPa) = 12.23759 24.80158 18.51958
#
# Velocity S-wave (km/s) = 2.36919 3.37280 2.91452
# Velocity P-wave (km/s) = 4.07516 5.56732 4.87863
#
# Compressibility (1/GPa) = 0.05027703
#
# Stress axis : x y z
#
# Youngs Moduli (GPa) = 87.56353 29.09166 109.67450
#
# Poissons Ratio (x) = -0.13360 0.32705
# Poissons Ratio (y) = -0.40212 0.43079
# Poissons Ratio (z) = 0.26112 0.11427
#
# Static dielectric constant tensor:
#      x y z
#    x 1.844100 0.000000 0.000000 
#    y 0.000000 1.923360 0.000000 
#    z 0.000000 0.000000 1.870630 
# 
# From -- ./inp_files/47415.got.cif
#   From: 2010.05.17/outbox.cif.g08.bks.cpg/sg22_24_cif.got.tgz:47415.got - 2010.06.03 23:40:54.
