data_PCOD9327647
_publ_section_title
;
Structure prediction by ZEFSAII (Michael W. Deem and Ramdas Pophale) SiO2 
 PCOD9327647
Probable space group: F 2 2 2
;
_chemical_formula_sum "Si O2"
_cell_formula_units_Z 88
_cell_length_a 12.132276
_cell_length_b 33.656114
_cell_length_c 10.147958
_cell_angle_alpha 90.000000
_cell_angle_beta 90.000000
_cell_angle_gamma 90.000000
_cell_volume 4143.667631
_symmetry_space_group_name_H-M "F 2 2 2"
_symmetry_group_IT_number 22
_symmetry_cell_setting 'orthorhombic'
loop_
_space_group_symop_operation_xyz
x,y,z
-x,-y,z
x,-y,-z
-x,y,-z
x,1/2+y,1/2+z
-x,1/2-y,1/2+z
x,1/2-y,1/2-z
-x,1/2+y,1/2-z
1/2+x,y,1/2+z
1/2-x,-y,1/2+z
1/2+x,-y,1/2-z
1/2-x,y,1/2-z
1/2+x,1/2+y,z
1/2-x,1/2-y,z
1/2+x,1/2-y,-z
1/2-x,1/2+y,-z
loop_
_atom_site_type_symbol
_atom_site_label
_atom_site_fract_x
_atom_site_fract_y
_atom_site_fract_z
Si Si1 0.658641 0.832930 0.842659
Si Si2 0.769482 0.702199 0.404680
Si Si3 0.000000 0.215711 0.000000
Si Si4 0.677463 0.500000 0.000000
Si Si5 0.000000 0.619887 0.000000
Si Si6 0.500000 0.000000 0.286045
Si Si7 0.337188 0.438641 0.359406
Si Si8 0.920316 0.250000 0.250000
O O1 0.750000 0.854147 0.750000
O O2 0.546387 0.855878 0.874003
O O3 0.639302 0.791742 0.764612
O O4 0.695374 0.820648 0.989989
O O5 0.750000 0.693875 0.250000
O O6 0.750000 0.750000 0.424211
O O7 0.892136 0.692074 0.457578
O O8 0.010778 0.245339 0.879081
O O9 0.596807 0.484644 0.116301
O O10 0.757658 0.533723 0.053975
O O11 0.101100 0.593543 0.947133
O O12 0.434982 0.033628 0.203062
O O13 0.250000 0.422540 0.250000
#
# Coordination Sequence:
#
# PCOD9327647 Si02
#       8
#    16  16   8   8   8   8  16   8
#     4  12  25  46  64  86 126 170 221 283 347 411
#     4  11  23  39  63  97 117 148 203 273 349 413
#     4  12  23  36  70  94 121 150 196 284 355 400
#     4   9  18  35  70 104 130 171 222 261 306 376
#     4  12  29  41  62  94 135 182 220 268 345 415
#     4   9  18  35  70 102 132 175 220 263 312 370
#     4  10  21  41  63  99 140 174 215 268 316 390
#     4  12  23  44  65  92 116 154 221 294 351 410
#
# _framework density 21.237224999999999
#
# number of rings (size 3 to 8) (size 9 to 14) (size 15 to 20)
#    0.000    1.091    3.636    3.000    2.545    2.182 
#    0.000    0.000    0.000    0.000    0.000    0.000 
#    0.000    0.000    0.000    0.000    0.000    0.000 
#
# Total GULP energy -122687.331616 kJ/mol
# GULP energy per Si atom -5576.696892 kJ/mol
# Density = 2.118889 g / cm^3
# Si number density = 21.237225 Si / 1000 Ang^3
#
#
#
# Elastic Constant Matrix: (Units=GPa)
#
#
# Indices 1 2 3 4 5 6 
#
# 1 120.4918 40.2697 29.0607 0.0000 0.0000 0.0000
# 2 40.2697 43.6555 23.1056 0.0000 0.0000 0.0000
# 3 29.0607 23.1056 117.8207 0.0000 0.0000 0.0000
# 4 0.0000 0.0000 0.0000 6.9343 0.0000 0.0000
# 5 0.0000 0.0000 0.0000 0.0000 8.5191 0.0000
# 6 0.0000 0.0000 0.0000 0.0000 0.0000 2.0252
#
#
#
# Elastic Compliance Matrix: (Units=1/GPa)
#
#
# Indices 1 2 3 4 5 6 
#
# 1 0.012081 -0.010675 -0.000886 0.000000 0.000000 0.000000
# 2 -0.010675 0.034992 -0.004229 0.000000 0.000000 0.000000
# 3 -0.000886 -0.004229 0.009535 0.000000 0.000000 0.000000
# 4 0.000000 0.000000 0.000000 0.144211 0.000000 0.000000
# 5 0.000000 0.000000 0.000000 0.000000 0.117384 0.000000
# 6 0.000000 0.000000 0.000000 0.000000 0.000000 0.493768
#
#
# Mechanical properties :
#
#
# Convention : Reuss Voigt Hill
#
# Bulk Modulus (GPa) = 39.95604 51.87111 45.91357
# Shear Modulus (GPa) = 5.86928 16.13118 11.00023
#
# Velocity S-wave (km/s) = 1.66423 2.75902 2.27836
# Velocity P-wave (km/s) = 4.74846 5.88449 5.34673
#
# Compressibility (1/GPa) = 0.02502751
#
# Stress axis : x y z
#
# Youngs Moduli (GPa) = 82.77676 28.57807 104.87142
#
# Poissons Ratio (x) = 0.30506 0.09295
# Poissons Ratio (y) = 0.88361 0.44353
# Poissons Ratio (z) = 0.07337 0.12086
#
# Static dielectric constant tensor:
#      x y z
#    x 1.901290 0.000000 0.000000 
#    y 0.000000 1.761340 0.000000 
#    z 0.000000 0.000000 1.767190 
# 
# From -- ./inp_files/18481.got.cif
#   From: 2010.05.17/outbox.cif.g08.bks.cpg/sg22_10_cif.got.tgz:18481.got - 2010.06.03 23:40:54.
