data_PCOD9327187
_publ_section_title
;
Structure prediction by ZEFSAII (Michael W. Deem and Ramdas Pophale) SiO2 
 PCOD9327187
Probable space group: F 2 2 2
;
_chemical_formula_sum "Si O2"
_cell_formula_units_Z 88
_cell_length_a 16.382103
_cell_length_b 11.078884
_cell_length_c 21.749383
_cell_angle_alpha 90.000000
_cell_angle_beta 90.000000
_cell_angle_gamma 90.000000
_cell_volume 3947.413377
_symmetry_space_group_name_H-M "F 2 2 2"
_symmetry_group_IT_number 22
_symmetry_cell_setting 'orthorhombic'
loop_
_space_group_symop_operation_xyz
x,y,z
-x,-y,z
x,-y,-z
-x,y,-z
x,1/2+y,1/2+z
-x,1/2-y,1/2+z
x,1/2-y,1/2-z
-x,1/2+y,1/2-z
1/2+x,y,1/2+z
1/2-x,-y,1/2+z
1/2+x,-y,1/2-z
1/2-x,y,1/2-z
1/2+x,1/2+y,z
1/2-x,1/2-y,z
1/2+x,1/2-y,-z
1/2-x,1/2+y,-z
loop_
_atom_site_type_symbol
_atom_site_label
_atom_site_fract_x
_atom_site_fract_y
_atom_site_fract_z
Si Si1 0.976939 0.184001 0.653338
Si Si2 0.747856 0.488138 0.119284
Si Si3 0.383092 0.120279 0.037952
Si Si4 0.616841 0.546265 0.708345
Si Si5 0.079895 0.553593 0.661431
Si Si6 0.750000 0.750000 0.540402
O O1 0.955767 0.172568 0.580531
O O2 0.944971 0.310718 0.678046
O O3 0.069214 0.154972 0.674068
O O4 0.926213 0.075335 0.683392
O O5 0.812938 0.568614 0.083099
O O6 0.791115 0.457697 0.184137
O O7 0.663281 0.557128 0.124756
O O8 0.733664 0.366267 0.081981
O O9 0.332115 0.216025 0.997579
O O10 0.407754 0.000000 0.000000
O O11 0.599501 0.533670 0.780511
O O12 0.000000 0.500000 0.628870
#
# Coordination Sequence:
#
# PCOD9327187 Si02
#       6
#    16  16  16  16  16   8
#     4  10  21  41  65  95 130 170 217 284 328 398
#     4  10  23  40  64  97 129 172 227 273 340 409
#     4   9  19  40  69  94 125 168 225 278 333 390
#     4  10  22  42  65  94 128 174 226 266 338 404
#     4  12  24  39  64  94 137 177 213 272 341 398
#     4  10  20  40  65  92 129 176 216 294 326 406
#
# _framework density 22.29308
#
# number of rings (size 3 to 8) (size 9 to 14) (size 15 to 20)
#    0.000    1.818    1.818    2.182    2.545    2.182 
#    0.000   20.000    4.000    3.818    0.000    0.000 
#    0.000    0.000    0.000    0.000    0.000    0.000 
#
# Total GULP energy -122866.559171 kJ/mol
# GULP energy per Si atom -5584.843599 kJ/mol
# Density = 2.224234 g / cm^3
# Si number density = 22.293080 Si / 1000 Ang^3
#
#
#
# Elastic Constant Matrix: (Units=GPa)
#
#
# Indices 1 2 3 4 5 6 
#
# 1 110.6802 31.6726 12.8916 0.0000 0.0000 0.0000
# 2 31.6726 88.1023 13.2526 0.0000 0.0000 0.0000
# 3 12.8916 13.2526 54.1630 0.0000 0.0000 0.0000
# 4 0.0000 0.0000 0.0000 10.7058 0.0000 0.0000
# 5 0.0000 0.0000 0.0000 0.0000 19.3068 0.0000
# 6 0.0000 0.0000 0.0000 0.0000 0.0000 23.9032
#
#
#
# Elastic Compliance Matrix: (Units=1/GPa)
#
#
# Indices 1 2 3 4 5 6 
#
# 1 0.010201 -0.003428 -0.001589 0.000000 0.000000 0.000000
# 2 -0.003428 0.012936 -0.002349 0.000000 0.000000 0.000000
# 3 -0.001589 -0.002349 0.019416 0.000000 0.000000 0.000000
# 4 0.000000 0.000000 0.000000 0.093407 0.000000 0.000000
# 5 0.000000 0.000000 0.000000 0.000000 0.051795 0.000000
# 6 0.000000 0.000000 0.000000 0.000000 0.000000 0.041835
#
#
# Mechanical properties :
#
#
# Convention : Reuss Voigt Hill
#
# Bulk Modulus (GPa) = 35.94555 40.95322 38.44938
# Shear Modulus (GPa) = 19.71626 23.79176 21.75401
#
# Velocity S-wave (km/s) = 2.97713 3.27039 3.12720
# Velocity P-wave (km/s) = 5.28931 5.71584 5.50671
#
# Compressibility (1/GPa) = 0.02781986
#
# Stress axis : x y z
#
# Youngs Moduli (GPa) = 98.02788 77.30204 51.50432
#
# Poissons Ratio (x) = 0.26501 0.08185
# Poissons Ratio (y) = 0.33606 0.12100
# Poissons Ratio (z) = 0.15579 0.18160
#
# Static dielectric constant tensor:
#      x y z
#    x 1.861220 0.000000 0.000000 
#    y 0.000000 1.810330 0.000000 
#    z 0.000000 0.000000 1.917130 
# 
# From -- ./inp_files/48796.got.cif
#   From: 2010.05.17/outbox.cif.g08.bks.cpg/sg22_25_cif.got.tgz:48796.got - 2010.06.03 23:40:54.
