data_PCOD9327838
_publ_section_title
;
Structure prediction by ZEFSAII (Michael W. Deem and Ramdas Pophale) SiO2 
 PCOD9327838
Probable space group: F 2 2 2
;
_chemical_formula_sum "Si O2"
_cell_formula_units_Z 64
_cell_length_a 17.146631
_cell_length_b 8.359269
_cell_length_c 19.564158
_cell_angle_alpha 90.000000
_cell_angle_beta 90.000000
_cell_angle_gamma 90.000000
_cell_volume 2804.195347
_symmetry_space_group_name_H-M "F 2 2 2"
_symmetry_group_IT_number 22
_symmetry_cell_setting 'orthorhombic'
loop_
_space_group_symop_operation_xyz
x,y,z
-x,-y,z
x,-y,-z
-x,y,-z
x,1/2+y,1/2+z
-x,1/2-y,1/2+z
x,1/2-y,1/2-z
-x,1/2+y,1/2-z
1/2+x,y,1/2+z
1/2-x,-y,1/2+z
1/2+x,-y,1/2-z
1/2-x,y,1/2-z
1/2+x,1/2+y,z
1/2-x,1/2-y,z
1/2+x,1/2-y,-z
1/2-x,1/2+y,-z
loop_
_atom_site_type_symbol
_atom_site_label
_atom_site_fract_x
_atom_site_fract_y
_atom_site_fract_z
Si Si1 0.551049 0.359107 0.696665
Si Si2 0.063093 0.625314 0.381071
Si Si3 0.724733 0.062855 0.324165
Si Si4 0.640209 0.050432 0.077597
O O1 0.500000 0.500000 0.729955
O O2 0.598632 0.250000 0.750000
O O3 0.489240 0.234557 0.667267
O O4 0.591574 0.444998 0.632431
O O5 0.133842 0.542798 0.339932
O O6 0.110055 0.764651 0.422162
O O7 0.000000 0.500000 0.412339
O O8 0.750000 0.994712 0.250000
O O9 0.750000 0.250000 0.318711
O O10 0.773989 0.018021 0.391260
O O11 0.632757 0.000000 0.000000
#
# Coordination Sequence:
#
# PCOD9327838 Si02
#       4
#    16  16  16  16
#     4  10  22  37  67  99 139 179 232 294 352 416
#     4  10  22  40  71 101 132 173 241 291 351 411
#     4   9  20  39  69 101 131 179 232 285 354 419
#     4  10  23  46  69  96 143 193 232 290 369 427
#
# _framework density 22.822946000000002
#
# number of rings (size 3 to 8) (size 9 to 14) (size 15 to 20)
#    0.000    2.250    0.000    0.750   14.000    4.500 
#    0.000   15.000    0.000    0.000    0.000    0.000 
#    0.000    0.000    0.000    0.000    0.000    0.000 
#
# Total GULP energy -89084.903940 kJ/mol
# GULP energy per Si atom -5567.806496 kJ/mol
# Density = 2.277100 g / cm^3
# Si number density = 22.822946 Si / 1000 Ang^3
#
#
#
# Elastic Constant Matrix: (Units=GPa)
#
#
# Indices 1 2 3 4 5 6 
#
# 1 145.6602 42.8993 25.0611 0.0000 0.0000 0.0000
# 2 42.8993 95.9831 66.2383 0.0000 0.0000 0.0000
# 3 25.0611 66.2383 103.6993 0.0000 0.0000 0.0000
# 4 0.0000 0.0000 0.0000 34.6680 0.0000 0.0000
# 5 0.0000 0.0000 0.0000 0.0000 21.0708 0.0000
# 6 0.0000 0.0000 0.0000 0.0000 0.0000 26.5567
#
#
#
# Elastic Compliance Matrix: (Units=1/GPa)
#
#
# Indices 1 2 3 4 5 6 
#
# 1 0.007928 -0.003972 0.000621 0.000000 0.000000 0.000000
# 2 -0.003972 0.020621 -0.012212 0.000000 0.000000 0.000000
# 3 0.000621 -0.012212 0.017294 0.000000 0.000000 0.000000
# 4 0.000000 0.000000 0.000000 0.028845 0.000000 0.000000
# 5 0.000000 0.000000 0.000000 0.000000 0.047459 0.000000
# 6 0.000000 0.000000 0.000000 0.000000 0.000000 0.037655
#
#
# Mechanical properties :
#
#
# Convention : Reuss Voigt Hill
#
# Bulk Modulus (GPa) = 67.94737 68.19333 68.07035
# Shear Modulus (GPa) = 25.53173 30.53536 28.03355
#
# Velocity S-wave (km/s) = 3.34831 3.66173 3.50852
# Velocity P-wave (km/s) = 6.69211 6.91534 6.80464
#
# Compressibility (1/GPa) = 0.01471727
#
# Stress axis : x y z
#
# Youngs Moduli (GPa) = 126.13040 48.49312 57.82474
#
# Poissons Ratio (x) = 0.19263 -0.03592
# Poissons Ratio (y) = 0.50102 0.70616
# Poissons Ratio (z) = -0.07836 0.59220
#
# Static dielectric constant tensor:
#      x y z
#    x 1.917600 0.000000 0.000000 
#    y 0.000000 1.920090 0.000000 
#    z 0.000000 0.000000 1.867710 
# 
# From -- ./inp_files/34814.got.cif
#   From: 2010.05.17/outbox.cif.g08.bks.cpg/sg22_18_cif.got.tgz:34814.got - 2010.06.03 23:40:54.
