data_PCOD9327029
_publ_section_title
;
Structure prediction by ZEFSAII (Michael W. Deem and Ramdas Pophale) SiO2 
 PCOD9327029
Probable space group: F 2 2 2
;
_chemical_formula_sum "Si O2"
_cell_formula_units_Z 88
_cell_length_a 5.550467
_cell_length_b 26.906960
_cell_length_c 30.819384
_cell_angle_alpha 90.000000
_cell_angle_beta 90.000000
_cell_angle_gamma 90.000000
_cell_volume 4602.757688
_symmetry_space_group_name_H-M "F 2 2 2"
_symmetry_group_IT_number 22
_symmetry_cell_setting 'orthorhombic'
loop_
_space_group_symop_operation_xyz
x,y,z
-x,-y,z
x,-y,-z
-x,y,-z
x,1/2+y,1/2+z
-x,1/2-y,1/2+z
x,1/2-y,1/2-z
-x,1/2+y,1/2-z
1/2+x,y,1/2+z
1/2-x,-y,1/2+z
1/2+x,-y,1/2-z
1/2-x,y,1/2-z
1/2+x,1/2+y,z
1/2-x,1/2-y,z
1/2+x,1/2-y,-z
1/2-x,1/2+y,-z
loop_
_atom_site_type_symbol
_atom_site_label
_atom_site_fract_x
_atom_site_fract_y
_atom_site_fract_z
Si Si1 0.510627 0.376095 0.663088
Si Si2 0.000701 0.441161 0.084269
Si Si3 0.502058 0.390995 0.051470
Si Si4 0.326273 0.302455 0.107638
Si Si5 0.750000 0.853376 0.250000
Si Si6 0.620671 0.198886 0.305814
O O1 0.487700 0.425568 0.635053
O O2 0.614053 0.336505 0.627822
O O3 0.676859 0.381668 0.705886
O O4 0.273761 0.349567 0.680935
O O5 0.755230 0.417380 0.064233
O O6 0.000000 0.500000 0.078067
O O7 0.256383 0.420560 0.065365
O O8 0.477297 0.338359 0.076353
O O9 0.500000 0.384482 0.000000
O O10 0.250000 0.250000 0.087142
O O11 0.468753 0.289199 0.151177
O O12 0.536778 0.817740 0.265265
O O13 0.750000 0.250000 0.297095
#
# Coordination Sequence:
#
# PCOD9327029 Si02
#       6
#    16  16  16  16   8  16
#     4  10  21  38  59  84 122 165 211 260 315 378
#     4  11  24  44  71  95 125 169 215 270 336 395
#     4  11  24  43  68 101 132 162 212 272 327 393
#     4  10  20  38  59  88 124 173 211 248 312 387
#     4  10  24  35  54  88 126 162 210 268 319 366
#     4  11  20  36  57  85 125 167 211 262 312 382
#
# _framework density 19.118973
#
# number of rings (size 3 to 8) (size 9 to 14) (size 15 to 20)
#    0.000    1.455    3.636    1.636    0.000    4.364 
#    0.000    4.545    4.000    0.000    0.000    0.000 
#    0.000    0.000    0.000    0.000    0.000    0.000 
#
# Total GULP energy -122696.085777 kJ/mol
# GULP energy per Si atom -5577.094808 kJ/mol
# Density = 1.907546 g / cm^3
# Si number density = 19.118973 Si / 1000 Ang^3
#
#
#
# Elastic Constant Matrix: (Units=GPa)
#
#
# Indices 1 2 3 4 5 6 
#
# 1 95.4933 28.2298 32.4577 0.0000 0.0000 0.0000
# 2 28.2298 93.5916 43.2538 0.0000 0.0000 0.0000
# 3 32.4577 43.2538 113.7256 0.0000 0.0000 0.0000
# 4 0.0000 0.0000 0.0000 2.3565 0.0000 0.0000
# 5 0.0000 0.0000 0.0000 0.0000 29.7003 0.0000
# 6 0.0000 0.0000 0.0000 0.0000 0.0000 24.4263
#
#
#
# Elastic Compliance Matrix: (Units=1/GPa)
#
#
# Indices 1 2 3 4 5 6 
#
# 1 0.012054 -0.002482 -0.002496 0.000000 0.000000 0.000000
# 2 -0.002482 0.013474 -0.004416 0.000000 0.000000 0.000000
# 3 -0.002496 -0.004416 0.011185 0.000000 0.000000 0.000000
# 4 0.000000 0.000000 0.000000 0.424350 0.000000 0.000000
# 5 0.000000 0.000000 0.000000 0.000000 0.033670 0.000000
# 6 0.000000 0.000000 0.000000 0.000000 0.000000 0.040939
#
#
# Mechanical properties :
#
#
# Convention : Reuss Voigt Hill
#
# Bulk Modulus (GPa) = 55.79043 56.74369 56.26706
# Shear Modulus (GPa) = 8.92160 24.55458 16.73809
#
# Velocity S-wave (km/s) = 2.16252 3.58761 2.96204
# Velocity P-wave (km/s) = 5.95645 6.84872 6.41811
#
# Compressibility (1/GPa) = 0.01792422
#
# Stress axis : x y z
#
# Youngs Moduli (GPa) = 82.95862 74.21439 89.40360
#
# Poissons Ratio (x) = 0.18422 0.22317
# Poissons Ratio (y) = 0.20592 0.39484
# Poissons Ratio (z) = 0.20708 0.32776
#
# Static dielectric constant tensor:
#      x y z
#    x 1.758720 0.000000 0.000000 
#    y 0.000000 1.659920 0.000000 
#    z 0.000000 0.000000 1.658580 
# 
# From -- ./inp_files/5720.got.cif
#   From: 2010.05.17/outbox.cif.g08.bks.cpg/sg22_3_cif.got.tgz:5720.got - 2010.06.03 23:40:54.
