data_PCOD9327439
_publ_section_title
;
Structure prediction by ZEFSAII (Michael W. Deem and Ramdas Pophale) SiO2 
 PCOD9327439
Probable space group: F 2 2 2
;
_chemical_formula_sum "Si O2"
_cell_formula_units_Z 68
_cell_length_a 32.593852
_cell_length_b 23.343888
_cell_length_c 5.135450
_cell_angle_alpha 90.000000
_cell_angle_beta 90.000000
_cell_angle_gamma 90.000000
_cell_volume 3907.395619
_symmetry_space_group_name_H-M "F 2 2 2"
_symmetry_group_IT_number 22
_symmetry_cell_setting 'orthorhombic'
loop_
_space_group_symop_operation_xyz
x,y,z
-x,-y,z
x,-y,-z
-x,y,-z
x,1/2+y,1/2+z
-x,1/2-y,1/2+z
x,1/2-y,1/2-z
-x,1/2+y,1/2-z
1/2+x,y,1/2+z
1/2-x,-y,1/2+z
1/2+x,-y,1/2-z
1/2-x,y,1/2-z
1/2+x,1/2+y,z
1/2-x,1/2-y,z
1/2+x,1/2-y,-z
1/2-x,1/2+y,-z
loop_
_atom_site_type_symbol
_atom_site_label
_atom_site_fract_x
_atom_site_fract_y
_atom_site_fract_z
Si Si1 0.132033 0.813149 0.876724
Si Si2 0.701074 0.032150 0.248075
Si Si3 0.750000 0.750000 0.750000
Si Si4 0.544700 0.291467 0.997498
Si Si5 0.182761 0.662060 0.114675
O O1 0.130267 0.750000 0.750000
O O2 0.085053 0.829208 0.944094
O O3 0.157789 0.845721 0.654157
O O4 0.155349 0.813273 0.150231
O O5 0.750000 0.022614 0.250000
O O6 0.695584 0.099782 0.218480
O O7 0.684118 0.000000 0.500000
O O8 0.683262 0.000000 0.000000
O O9 0.779292 0.706663 0.913081
O O10 0.541247 0.250000 0.750000
O O11 0.500000 0.321147 0.000000
O O12 0.551120 0.250000 0.250000
#
# Coordination Sequence:
#
# PCOD9327439 Si02
#       5
#    16  16   4  16  16
#     4  11  20  33  49  77 109 141 169 215 263 320
#     4  10  21  38  55  71  93 135 188 234 264 293
#     4  12  24  38  48  82 108 154 176 216 264 326
#     4   9  17  30  49  71 102 144 179 205 251 319
#     4  12  23  36  53  75 110 140 185 218 261 318
#
# _framework density 17.402898
#
# number of rings (size 3 to 8) (size 9 to 14) (size 15 to 20)
#    0.000    1.412    3.529    4.235    0.000    1.882 
#    0.000    0.000    0.000    0.000    0.000    0.000 
#    0.000   14.118    0.000    0.235    0.000    0.000 
#
# Total GULP energy -94667.717546 kJ/mol
# GULP energy per Si atom -5568.689267 kJ/mol
# Density = 1.736329 g / cm^3
# Si number density = 17.402898 Si / 1000 Ang^3
#
#
#
# Elastic Constant Matrix: (Units=GPa)
#
#
# Indices 1 2 3 4 5 6 
#
# 1 102.2093 12.4909 46.8489 0.0101 -0.0015 0.0056
# 2 12.4909 75.2966 24.1135 0.0313 -0.0036 0.0088
# 3 46.8489 24.1135 126.5528 0.0326 0.0054 0.0019
# 4 0.0101 0.0313 0.0326 23.5941 0.0008 0.0021
# 5 -0.0015 -0.0036 0.0054 0.0008 14.7175 -0.0011
# 6 0.0056 0.0088 0.0019 0.0021 -0.0011 7.3085
#
#
#
# Elastic Compliance Matrix: (Units=1/GPa)
#
#
# Indices 1 2 3 4 5 6 
#
# 1 0.011808 -0.000595 -0.004258 0.000002 0.000003 -0.000007
# 2 -0.000595 0.014174 -0.002480 -0.000015 0.000004 -0.000016
# 3 -0.004258 -0.002480 0.009951 -0.000009 -0.000005 0.000004
# 4 0.000002 -0.000015 -0.000009 0.042383 -0.000002 -0.000012
# 5 0.000003 0.000004 -0.000005 -0.000002 0.067946 0.000010
# 6 -0.000007 -0.000016 0.000004 -0.000012 0.000010 0.136826
#
#
# Mechanical properties :
#
#
# Convention : Reuss Voigt Hill
#
# Bulk Modulus (GPa) = 47.02384 52.32946 49.67665
# Shear Modulus (GPa) = 16.40180 23.83107 20.11643
#
# Velocity S-wave (km/s) = 3.07331 3.70452 3.40358
# Velocity P-wave (km/s) = 6.29865 6.95936 6.63723
#
# Compressibility (1/GPa) = 0.02126581
#
# Stress axis : x y z
#
# Youngs Moduli (GPa) = 84.68649 70.55222 100.49558
#
# Poissons Ratio (x) = 0.04200 0.42790
# Poissons Ratio (y) = 0.05041 0.24926
# Poissons Ratio (z) = 0.36059 0.17499
#
# Static dielectric constant tensor:
#      x y z
#    x 1.674320 0.000000 -0.000010 
#    y 0.000000 1.584760 0.000000 
#    z -0.000010 0.000000 1.597520 
# 
# From -- ./inp_files/3968.got.cif
#   From: 2010.05.17/outbox.cif.g08.bks.cpg/sg22_2_cif.got.tgz:3968.got - 2010.06.03 23:40:54.
