data_PCOD9327401
_publ_section_title
;
Structure prediction by ZEFSAII (Michael W. Deem and Ramdas Pophale) SiO2 
 PCOD9327401
Probable space group: F 2 2 2
;
_chemical_formula_sum "Si O2"
_cell_formula_units_Z 100
_cell_length_a 16.982668
_cell_length_b 19.283879
_cell_length_c 16.982680
_cell_angle_alpha 90.000000
_cell_angle_beta 90.000000
_cell_angle_gamma 90.000000
_cell_volume 5561.686995
_symmetry_space_group_name_H-M "F 2 2 2"
_symmetry_group_IT_number 22
_symmetry_cell_setting 'orthorhombic'
loop_
_space_group_symop_operation_xyz
x,y,z
-x,-y,z
x,-y,-z
-x,y,-z
x,1/2+y,1/2+z
-x,1/2-y,1/2+z
x,1/2-y,1/2-z
-x,1/2+y,1/2-z
1/2+x,y,1/2+z
1/2-x,-y,1/2+z
1/2+x,-y,1/2-z
1/2-x,y,1/2-z
1/2+x,1/2+y,z
1/2-x,1/2-y,z
1/2+x,1/2-y,-z
1/2-x,1/2+y,-z
loop_
_atom_site_type_symbol
_atom_site_label
_atom_site_fract_x
_atom_site_fract_y
_atom_site_fract_z
Si Si1 0.868194 0.205105 0.368194
Si Si2 0.454176 0.891560 0.259971
Si Si3 0.259971 0.891560 0.454176
Si Si4 0.879082 0.456533 0.746936
Si Si5 0.434616 0.831904 0.434615
Si Si6 0.250000 0.250000 0.750000
Si Si7 0.746936 0.956531 0.379083
O O1 0.914985 0.158275 0.305146
O O2 0.805146 0.158274 0.414984
O O3 0.924154 0.249170 0.424155
O O4 0.817434 0.261173 0.317433
O O5 0.543444 0.911581 0.239117
O O6 0.455529 0.861248 0.348166
O O7 0.405172 0.963246 0.260593
O O8 0.348167 0.861249 0.455528
O O9 0.239116 0.911578 0.543445
O O10 0.260592 0.963248 0.405175
O O11 0.818337 0.450262 0.818337
O O12 0.832376 0.436727 0.667623
O O13 0.500000 0.849295 0.500000
#
# Coordination Sequence:
#
# PCOD9327401 Si02
#       7
#    16  16  16  16  16   4  16
#     4  12  22  38  64  88 120 160 208 253 305 359
#     4  11  21  38  58  89 119 153 200 254 305 361
#     4  11  21  38  58  89 119 153 200 254 305 361
#     4  10  21  37  60  85 118 161 196 245 304 373
#     4  12  24  38  58  88 122 156 198 253 307 360
#     4  12  20  36  68  92 108 168 204 252 286 352
#     4  10  21  37  60  85 118 161 196 245 304 373
#
# _framework density 17.980156000000001
#
# number of rings (size 3 to 8) (size 9 to 14) (size 15 to 20)
#    0.000    0.960    6.400    0.960    0.000    1.280 
#    0.000    0.000    0.000    0.000    0.000    4.480 
#    0.000    0.000    0.000    0.000    0.000    0.000 
#
# Total GULP energy -139255.710313 kJ/mol
# GULP energy per Si atom -5570.228413 kJ/mol
# Density = 1.793923 g / cm^3
# Si number density = 17.980156 Si / 1000 Ang^3
#
#
#
# Elastic Constant Matrix: (Units=GPa)
#
#
# Indices 1 2 3 4 5 6 
#
# 1 105.2295 29.5552 54.8118 0.0000 0.0000 0.0000
# 2 29.5552 49.1359 29.5578 0.0000 0.0000 0.0000
# 3 54.8118 29.5578 105.2435 0.0000 0.0000 0.0000
# 4 0.0000 0.0000 0.0000 18.1061 0.0000 0.0000
# 5 0.0000 0.0000 0.0000 0.0000 34.8198 0.0000
# 6 0.0000 0.0000 0.0000 0.0000 0.0000 18.1059
#
#
#
# Elastic Compliance Matrix: (Units=1/GPa)
#
#
# Indices 1 2 3 4 5 6 
#
# 1 0.013933 -0.004832 -0.005899 0.000000 0.000000 0.000000
# 2 -0.004832 0.026165 -0.004832 0.000000 0.000000 0.000000
# 3 -0.005899 -0.004832 0.013931 0.000000 0.000000 0.000000
# 4 0.000000 0.000000 0.000000 0.055230 0.000000 0.000000
# 5 0.000000 0.000000 0.000000 0.000000 0.028719 0.000000
# 6 0.000000 0.000000 0.000000 0.000000 0.000000 0.055231
#
#
# Mechanical properties :
#
#
# Convention : Reuss Voigt Hill
#
# Bulk Modulus (GPa) = 43.66312 54.16206 48.91259
# Shear Modulus (GPa) = 21.55455 23.91864 22.73659
#
# Velocity S-wave (km/s) = 3.46612 3.65126 3.55989
# Velocity P-wave (km/s) = 6.35259 6.92562 6.64529
#
# Compressibility (1/GPa) = 0.02290262
#
# Stress axis : x y z
#
# Youngs Moduli (GPa) = 71.77193 38.21938 71.78093
#
# Poissons Ratio (x) = 0.18467 0.42346
# Poissons Ratio (y) = 0.34680 0.34684
# Poissons Ratio (z) = 0.42341 0.18467
#
# Static dielectric constant tensor:
#      x y z
#    x 1.603040 0.000000 0.000000 
#    y 0.000000 1.624260 0.000000 
#    z 0.000000 0.000000 1.603040 
# 
# From -- ./inp_files/30815.got.cif
#   From: 2010.05.17/outbox.cif.g08.bks.cpg/sg22_16_cif.got.tgz:30815.got - 2010.06.03 23:40:54.
