data_PCOD9327273
_publ_section_title
;
Structure prediction by ZEFSAII (Michael W. Deem and Ramdas Pophale) SiO2 
 PCOD9327273
Probable space group: F 2 2 2
;
_chemical_formula_sum "Si O2"
_cell_formula_units_Z 64
_cell_length_a 21.593864
_cell_length_b 8.353399
_cell_length_c 14.364409
_cell_angle_alpha 90.000000
_cell_angle_beta 90.000000
_cell_angle_gamma 90.000000
_cell_volume 2591.083150
_symmetry_space_group_name_H-M "F 2 2 2"
_symmetry_group_IT_number 22
_symmetry_cell_setting 'orthorhombic'
loop_
_space_group_symop_operation_xyz
x,y,z
-x,-y,z
x,-y,-z
-x,y,-z
x,1/2+y,1/2+z
-x,1/2-y,1/2+z
x,1/2-y,1/2-z
-x,1/2+y,1/2-z
1/2+x,y,1/2+z
1/2-x,-y,1/2+z
1/2+x,-y,1/2-z
1/2-x,y,1/2-z
1/2+x,1/2+y,z
1/2-x,1/2-y,z
1/2+x,1/2-y,-z
1/2-x,1/2+y,-z
loop_
_atom_site_type_symbol
_atom_site_label
_atom_site_fract_x
_atom_site_fract_y
_atom_site_fract_z
Si Si1 0.598970 0.891350 0.857577
Si Si2 0.250000 0.250000 0.250000
Si Si3 0.304521 0.000000 0.000000
Si Si4 0.000000 0.500000 0.000000
Si Si5 0.927798 0.020733 0.159754
Si Si6 0.685649 0.366595 0.926770
O O1 0.545527 0.903574 0.934447
O O2 0.579676 0.004915 0.770953
O O3 0.599539 0.700739 0.843006
O O4 0.662191 0.955216 0.899188
O O5 0.287304 0.361416 0.177491
O O6 0.306083 0.195485 0.029462
O O7 0.884801 0.916798 0.091949
O O8 0.000000 0.000000 0.136729
O O9 0.718609 0.500000 0.000000
#
# Coordination Sequence:
#
# PCOD9327273 Si02
#       6
#    16   4   8   4  16  16
#     4  10  22  41  74  97 146 185 238 303 355 448
#     4  12  24  48  76 104 152 208 244 322 378 446
#     4   9  22  45  71 106 133 194 248 298 369 428
#     4  10  20  44  70 100 132 196 234 282 358 452
#     4  11  24  44  65 110 144 188 234 302 378 441
#     4  10  26  43  70 106 146 191 252 306 365 451
#
# _framework density 24.700094
#
# number of rings (size 3 to 8) (size 9 to 14) (size 15 to 20)
#    0.750    1.000    1.250    1.500    3.500    5.500 
#    4.500    2.500    0.000    0.000    0.000    0.000 
#    0.000    0.000    0.000    0.000    0.000    0.000 
#
# Total GULP energy -89212.991157 kJ/mol
# GULP energy per Si atom -5575.811947 kJ/mol
# Density = 2.464387 g / cm^3
# Si number density = 24.700094 Si / 1000 Ang^3
#
#
#
# Elastic Constant Matrix: (Units=GPa)
#
#
# Indices 1 2 3 4 5 6 
#
# 1 178.4582 69.5620 77.5459 0.0000 0.0000 0.0000
# 2 69.5620 161.7262 54.3099 0.0000 0.0000 0.0000
# 3 77.5459 54.3099 141.1846 0.0000 0.0000 0.0000
# 4 0.0000 0.0000 0.0000 31.4318 0.0000 0.0000
# 5 0.0000 0.0000 0.0000 0.0000 27.8964 0.0000
# 6 0.0000 0.0000 0.0000 0.0000 0.0000 48.0827
#
#
#
# Elastic Compliance Matrix: (Units=1/GPa)
#
#
# Indices 1 2 3 4 5 6 
#
# 1 0.008022 -0.002263 -0.003536 0.000000 0.000000 0.000000
# 2 -0.002263 0.007739 -0.001734 0.000000 0.000000 0.000000
# 3 -0.003536 -0.001734 0.009692 0.000000 0.000000 0.000000
# 4 0.000000 0.000000 0.000000 0.031815 0.000000 0.000000
# 5 0.000000 0.000000 0.000000 0.000000 0.035847 0.000000
# 6 0.000000 0.000000 0.000000 0.000000 0.000000 0.020797
#
#
# Mechanical properties :
#
#
# Convention : Reuss Voigt Hill
#
# Bulk Modulus (GPa) = 96.26884 98.24496 97.25690
# Shear Modulus (GPa) = 37.75295 40.14560 38.94927
#
# Velocity S-wave (km/s) = 3.91379 4.03590 3.97531
# Velocity P-wave (km/s) = 7.71254 7.84726 7.78019
#
# Compressibility (1/GPa) = 0.01038758
#
# Stress axis : x y z
#
# Youngs Moduli (GPa) = 124.65669 129.21552 103.17978
#
# Poissons Ratio (x) = 0.29244 0.36480
# Poissons Ratio (y) = 0.28212 0.17891
# Poissons Ratio (z) = 0.44073 0.22405
#
# Static dielectric constant tensor:
#      x y z
#    x 2.127080 0.000000 0.000000 
#    y 0.000000 1.886140 0.000000 
#    z 0.000000 0.000000 2.052510 
# 
# From -- ./inp_files/32152.got.cif
#   From: 2010.05.17/outbox.cif.g08.bks.cpg/sg22_17_cif.got.tgz:32152.got - 2010.06.03 23:40:54.
