data_PCOD9327522
_publ_section_title
;
Structure prediction by ZEFSAII (Michael W. Deem and Ramdas Pophale) SiO2 
 PCOD9327522
Probable space group: F 2 2 2
;
_chemical_formula_sum "Si O2"
_cell_formula_units_Z 80
_cell_length_a 8.395501
_cell_length_b 29.058416
_cell_length_c 16.082395
_cell_angle_alpha 90.000000
_cell_angle_beta 90.000000
_cell_angle_gamma 90.000000
_cell_volume 3923.460450
_symmetry_space_group_name_H-M "F 2 2 2"
_symmetry_group_IT_number 22
_symmetry_cell_setting 'orthorhombic'
loop_
_space_group_symop_operation_xyz
x,y,z
-x,-y,z
x,-y,-z
-x,y,-z
x,1/2+y,1/2+z
-x,1/2-y,1/2+z
x,1/2-y,1/2-z
-x,1/2+y,1/2-z
1/2+x,y,1/2+z
1/2-x,-y,1/2+z
1/2+x,-y,1/2-z
1/2-x,y,1/2-z
1/2+x,1/2+y,z
1/2-x,1/2-y,z
1/2+x,1/2-y,-z
1/2-x,1/2+y,-z
loop_
_atom_site_type_symbol
_atom_site_label
_atom_site_fract_x
_atom_site_fract_y
_atom_site_fract_z
Si Si1 0.930098 0.547106 0.091631
Si Si2 0.621972 0.542862 0.172739
Si Si3 0.363396 0.377912 0.675749
Si Si4 0.544002 0.368292 0.095845
Si Si5 0.933954 0.196124 0.768021
O O1 0.742027 0.540300 0.094242
O O2 0.000000 0.500000 0.126907
O O3 0.999543 0.588017 0.146654
O O4 0.000000 0.552928 0.000000
O O5 0.500000 0.500000 0.177888
O O6 0.750000 0.543956 0.250000
O O7 0.529628 0.590249 0.152278
O O8 0.250000 0.396466 0.750000
O O9 0.446711 0.332136 0.709043
O O10 0.235055 0.369480 0.603893
O O11 0.479185 0.321909 0.139969
O O12 0.500000 0.372632 0.000000
O O13 0.952555 0.250000 0.750000
O O14 0.750000 0.183820 0.750000
#
# Coordination Sequence:
#
# PCOD9327522 Si02
#       5
#    16  16  16  16  16
#     4  11  23  39  58  85 122 161 204 255 313 367
#     4  12  25  41  63  90 128 173 222 265 312 381
#     4  10  21  39  63  87 117 160 207 253 312 375
#     4  11  23  40  64  96 130 164 212 270 327 381
#     4  10  22  43  66  89 122 165 210 260 321 389
#
# _framework density 20.390163000000001
#
# number of rings (size 3 to 8) (size 9 to 14) (size 15 to 20)
#    0.000    1.200    0.000    7.200    0.000    8.800 
#    0.000    5.000    0.000    0.000    0.000    0.000 
#    0.000    0.000    0.000    0.000    0.000    0.000 
#
# Total GULP energy -111671.110674 kJ/mol
# GULP energy per Si atom -5583.555534 kJ/mol
# Density = 2.034375 g / cm^3
# Si number density = 20.390163 Si / 1000 Ang^3
#
#
#
# Elastic Constant Matrix: (Units=GPa)
#
#
# Indices 1 2 3 4 5 6 
#
# 1 145.2595 46.6123 56.3793 0.0000 0.0000 0.0000
# 2 46.6123 94.5260 54.6356 0.0000 0.0000 0.0000
# 3 56.3793 54.6356 122.4271 0.0000 0.0000 0.0000
# 4 0.0000 0.0000 0.0000 17.9589 0.0000 0.0000
# 5 0.0000 0.0000 0.0000 0.0000 88.9668 0.0000
# 6 0.0000 0.0000 0.0000 0.0000 0.0000 43.1794
#
#
#
# Elastic Compliance Matrix: (Units=1/GPa)
#
#
# Indices 1 2 3 4 5 6 
#
# 1 0.008870 -0.002713 -0.002874 0.000000 0.000000 0.000000
# 2 -0.002713 0.015086 -0.005483 0.000000 0.000000 0.000000
# 3 -0.002874 -0.005483 0.011939 0.000000 0.000000 0.000000
# 4 0.000000 0.000000 0.000000 0.055683 0.000000 0.000000
# 5 0.000000 0.000000 0.000000 0.000000 0.011240 0.000000
# 6 0.000000 0.000000 0.000000 0.000000 0.000000 0.023159
#
#
# Mechanical properties :
#
#
# Convention : Reuss Voigt Hill
#
# Bulk Modulus (GPa) = 72.70266 75.27412 73.98839
# Shear Modulus (GPa) = 32.74343 43.66008 38.20175
#
# Velocity S-wave (km/s) = 4.01165 4.63237 4.33313
# Velocity P-wave (km/s) = 7.56247 8.09992 7.83580
#
# Compressibility (1/GPa) = 0.01375465
#
# Stress axis : x y z
#
# Youngs Moduli (GPa) = 112.73552 66.28630 83.76089
#
# Poissons Ratio (x) = 0.17982 0.24075
# Poissons Ratio (y) = 0.30583 0.45928
# Poissons Ratio (z) = 0.32403 0.36346
#
# Static dielectric constant tensor:
#      x y z
#    x 1.377060 0.000000 0.000000 
#    y 0.000000 1.698430 0.000000 
#    z 0.000000 0.000000 1.804980 
# 
# From -- ./inp_files/14628.got.cif
#   From: 2010.05.17/outbox.cif.g08.bks.cpg/sg22_8_cif.got.tgz:14628.got - 2010.06.03 23:40:54.
