data_PCOD9327144
_publ_section_title
;
Structure prediction by ZEFSAII (Michael W. Deem and Ramdas Pophale) SiO2 
 PCOD9327144
Probable space group: F 2 2 2
;
_chemical_formula_sum "Si O2"
_cell_formula_units_Z 60
_cell_length_a 30.711497
_cell_length_b 6.305531
_cell_length_c 15.290743
_cell_angle_alpha 90.000000
_cell_angle_beta 90.000000
_cell_angle_gamma 90.000000
_cell_volume 2961.087495
_symmetry_space_group_name_H-M "F 2 2 2"
_symmetry_group_IT_number 22
_symmetry_cell_setting 'orthorhombic'
loop_
_space_group_symop_operation_xyz
x,y,z
-x,-y,z
x,-y,-z
-x,y,-z
x,1/2+y,1/2+z
-x,1/2-y,1/2+z
x,1/2-y,1/2-z
-x,1/2+y,1/2-z
1/2+x,y,1/2+z
1/2-x,-y,1/2+z
1/2+x,-y,1/2-z
1/2-x,y,1/2-z
1/2+x,1/2+y,z
1/2-x,1/2-y,z
1/2+x,1/2-y,-z
1/2-x,1/2+y,-z
loop_
_atom_site_type_symbol
_atom_site_label
_atom_site_fract_x
_atom_site_fract_y
_atom_site_fract_z
Si Si1 0.152015 0.500000 0.500000
Si Si2 0.865512 0.322086 0.847709
Si Si3 0.957048 0.386654 0.907272
Si Si4 0.000000 0.500000 0.500000
Si Si5 0.709209 0.366205 0.416189
O O1 0.130442 0.362259 0.421992
O O2 0.180213 0.674764 0.450823
O O3 0.857037 0.250000 0.750000
O O4 0.914037 0.418202 0.850880
O O5 0.825123 0.475889 0.870945
O O6 0.000000 0.500000 0.869170
O O7 0.947747 0.500000 0.000000
O O8 0.971316 0.151155 0.937270
O O9 0.726727 0.500000 0.500000
O O10 0.750000 0.250000 0.369799
#
# Coordination Sequence:
#
# PCOD9327144 Si02
#       5
#     8  16  16   4  16
#     4  10  21  40  68  89 122 170 211 266 320 397
#     4  11  24  40  62  98 135 169 217 274 330 398
#     4   9  18  36  61  88 124 167 215 263 317 386
#     4   8  16  32  64  90 112 168 212 256 320 396
#     4  10  20  39  69  93 122 168 216 267 323 388
#
# _framework density 20.262824999999999
#
# number of rings (size 3 to 8) (size 9 to 14) (size 15 to 20)
#    0.000    2.400    1.333    3.200    0.000    3.200 
#    2.400    4.000    0.000    0.000    0.000    0.000 
#    0.000    0.000    0.000    0.000    0.000    0.000 
#
# Total GULP energy -83516.494788 kJ/mol
# GULP energy per Si atom -5567.766319 kJ/mol
# Density = 2.021671 g / cm^3
# Si number density = 20.262825 Si / 1000 Ang^3
#
#
#
# Elastic Constant Matrix: (Units=GPa)
#
#
# Indices 1 2 3 4 5 6 
#
# 1 154.9064 56.9468 64.3049 0.0001 0.0000 -0.0001
# 2 56.9468 101.7852 37.6570 0.0001 -0.0001 -0.0003
# 3 64.3049 37.6570 79.1517 0.0001 0.0000 -0.0001
# 4 0.0001 0.0001 0.0001 13.5879 -0.0001 -0.0002
# 5 0.0000 -0.0001 0.0000 -0.0001 19.8576 0.0001
# 6 -0.0001 -0.0003 -0.0001 -0.0002 0.0001 4.0536
#
#
#
# Elastic Compliance Matrix: (Units=1/GPa)
#
#
# Indices 1 2 3 4 5 6 
#
# 1 0.010595 -0.003329 -0.007024 0.000000 0.000000 0.000000
# 2 -0.003329 0.012969 -0.003466 0.000000 0.000000 0.000001
# 3 -0.007024 -0.003466 0.019989 0.000000 0.000000 0.000000
# 4 0.000000 0.000000 0.000000 0.073595 0.000000 0.000003
# 5 0.000000 0.000000 0.000000 0.000000 0.050358 -0.000001
# 6 0.000000 0.000001 0.000000 0.000003 -0.000001 0.246697
#
#
# Mechanical properties :
#
#
# Convention : Reuss Voigt Hill
#
# Bulk Modulus (GPa) = 62.82835 72.62895 67.72865
# Shear Modulus (GPa) = 11.18201 19.29547 15.23874
#
# Velocity S-wave (km/s) = 2.35169 3.08922 2.74534
# Velocity P-wave (km/s) = 6.20064 6.97464 6.59900
#
# Compressibility (1/GPa) = 0.01591638
#
# Stress axis : x y z
#
# Youngs Moduli (GPa) = 94.38279 77.10492 50.02719
#
# Poissons Ratio (x) = 0.25670 0.35139
# Poissons Ratio (y) = 0.31422 0.17337
# Poissons Ratio (z) = 0.66294 0.26721
#
# Static dielectric constant tensor:
#      x y z
#    x 1.766410 0.000000 0.000000 
#    y 0.000000 1.751380 0.000000 
#    z 0.000000 0.000000 1.728440 
# 
# From -- ./inp_files/34110.got.cif
#   From: 2010.05.17/outbox.cif.g08.bks.cpg/sg22_18_cif.got.tgz:34110.got - 2010.06.03 23:40:54.
