data_PCOD9327492
_publ_section_title
;
Structure prediction by ZEFSAII (Michael W. Deem and Ramdas Pophale) SiO2 
 PCOD9327492
Probable space group: F 2 2 2
;
_chemical_formula_sum "Si O2"
_cell_formula_units_Z 64
_cell_length_a 14.185577
_cell_length_b 21.659349
_cell_length_c 9.165675
_cell_angle_alpha 90.000000
_cell_angle_beta 90.000000
_cell_angle_gamma 90.000000
_cell_volume 2816.156971
_symmetry_space_group_name_H-M "F 2 2 2"
_symmetry_group_IT_number 22
_symmetry_cell_setting 'orthorhombic'
loop_
_space_group_symop_operation_xyz
x,y,z
-x,-y,z
x,-y,-z
-x,y,-z
x,1/2+y,1/2+z
-x,1/2-y,1/2+z
x,1/2-y,1/2-z
-x,1/2+y,1/2-z
1/2+x,y,1/2+z
1/2-x,-y,1/2+z
1/2+x,-y,1/2-z
1/2-x,y,1/2-z
1/2+x,1/2+y,z
1/2-x,1/2-y,z
1/2+x,1/2-y,-z
1/2-x,1/2+y,-z
loop_
_atom_site_type_symbol
_atom_site_label
_atom_site_fract_x
_atom_site_fract_y
_atom_site_fract_z
Si Si1 0.669655 0.618231 0.151009
Si Si2 0.000000 0.736591 0.500000
Si Si3 0.991196 0.926349 0.670392
Si Si4 0.842823 0.850000 0.835378
Si Si5 0.378150 0.250000 0.250000
O O1 0.750000 0.588965 0.250000
O O2 0.570581 0.597676 0.216531
O O3 0.671895 0.692458 0.176661
O O4 0.685282 0.611470 0.979982
O O5 0.923609 0.696959 0.597256
O O6 0.942177 0.774869 0.382160
O O7 0.000000 0.910117 0.500000
O O8 0.895251 0.895988 0.726601
O O9 0.000000 0.000000 0.679728
O O10 0.750000 0.824612 0.750000
#
# Coordination Sequence:
#
# PCOD9327492 Si02
#       5
#    16   8  16  16   8
#     4  11  23  41  66  99 135 175 224 279 337 414
#     4  10  22  42  63 104 129 182 224 278 336 410
#     4  11  24  43  67  96 133 175 224 288 346 400
#     4  11  22  43  68  97 134 174 230 275 339 405
#     4  10  21  38  67  92 138 174 217 270 349 396
#
# _framework density 22.726006000000002
#
# number of rings (size 3 to 8) (size 9 to 14) (size 15 to 20)
#    0.000    1.250    5.000    1.875    1.750    5.000 
#    0.000    3.125    0.000    0.000    0.000    0.000 
#    0.000    0.000    0.000    0.000    0.000    0.000 
#
# Total GULP energy -89243.725970 kJ/mol
# GULP energy per Si atom -5577.732873 kJ/mol
# Density = 2.267428 g / cm^3
# Si number density = 22.726006 Si / 1000 Ang^3
#
#
#
# Elastic Constant Matrix: (Units=GPa)
#
#
# Indices 1 2 3 4 5 6 
#
# 1 109.7484 15.4834 53.2679 0.0000 0.0000 0.0000
# 2 15.4834 60.4463 27.2245 0.0000 0.0000 0.0000
# 3 53.2679 27.2245 188.1377 0.0000 0.0000 0.0000
# 4 0.0000 0.0000 0.0000 20.9006 0.0000 0.0000
# 5 0.0000 0.0000 0.0000 0.0000 34.1730 0.0000
# 6 0.0000 0.0000 0.0000 0.0000 0.0000 15.2556
#
#
#
# Elastic Compliance Matrix: (Units=1/GPa)
#
#
# Indices 1 2 3 4 5 6 
#
# 1 0.010684 -0.001470 -0.002812 0.000000 0.000000 0.000000
# 2 -0.001470 0.017899 -0.002174 0.000000 0.000000 0.000000
# 3 -0.002812 -0.002174 0.006426 0.000000 0.000000 0.000000
# 4 0.000000 0.000000 0.000000 0.047845 0.000000 0.000000
# 5 0.000000 0.000000 0.000000 0.000000 0.029263 0.000000
# 6 0.000000 0.000000 0.000000 0.000000 0.000000 0.065550
#
#
# Mechanical properties :
#
#
# Convention : Reuss Voigt Hill
#
# Bulk Modulus (GPa) = 45.25522 61.14269 53.19896
# Shear Modulus (GPa) = 25.25942 31.55627 28.40785
#
# Velocity S-wave (km/s) = 3.33750 3.73037 3.53939
# Velocity P-wave (km/s) = 5.89987 6.74662 6.33741
#
# Compressibility (1/GPa) = 0.02209690
#
# Stress axis : x y z
#
# Youngs Moduli (GPa) = 93.59659 55.86818 155.61583
#
# Poissons Ratio (x) = 0.08213 0.43764
# Poissons Ratio (y) = 0.13760 0.33829
# Poissons Ratio (z) = 0.26322 0.12145
#
# Static dielectric constant tensor:
#      x y z
#    x 2.050340 0.000000 0.000000 
#    y 0.000000 1.843120 0.000000 
#    z 0.000000 0.000000 1.654360 
# 
# From -- ./inp_files/11167.got.cif
#   From: 2010.05.17/outbox.cif.g08.bks.cpg/sg22_6_cif.got.tgz:11167.got - 2010.06.03 23:40:54.
