data_PCOD9327818
_publ_section_title
;
Structure prediction by ZEFSAII (Michael W. Deem and Ramdas Pophale) SiO2 
 PCOD9327818
Probable space group: F 2 2 2
;
_chemical_formula_sum "Si O2"
_cell_formula_units_Z 120
_cell_length_a 9.769008
_cell_length_b 24.912613
_cell_length_c 26.961824
_cell_angle_alpha 90.000000
_cell_angle_beta 90.000000
_cell_angle_gamma 90.000000
_cell_volume 6561.739973
_symmetry_space_group_name_H-M "F 2 2 2"
_symmetry_group_IT_number 22
_symmetry_cell_setting 'orthorhombic'
loop_
_space_group_symop_operation_xyz
x,y,z
-x,-y,z
x,-y,-z
-x,y,-z
x,1/2+y,1/2+z
-x,1/2-y,1/2+z
x,1/2-y,1/2-z
-x,1/2+y,1/2-z
1/2+x,y,1/2+z
1/2-x,-y,1/2+z
1/2+x,-y,1/2-z
1/2-x,y,1/2-z
1/2+x,1/2+y,z
1/2-x,1/2-y,z
1/2+x,1/2-y,-z
1/2-x,1/2+y,-z
loop_
_atom_site_type_symbol
_atom_site_label
_atom_site_fract_x
_atom_site_fract_y
_atom_site_fract_z
Si Si1 0.778995 0.914445 0.915538
Si Si2 0.170688 0.915001 0.578230
Si Si3 0.651859 0.295617 0.555984
Si Si4 0.415814 0.944008 0.741643
Si Si5 0.155079 0.297419 0.938083
Si Si6 0.194227 0.000000 0.500000
Si Si7 0.449562 0.438609 0.131276
Si Si8 0.544312 0.062450 0.157590
O O1 0.715860 0.856977 0.930554
O O2 0.696052 0.933014 0.865510
O O3 0.936380 0.908030 0.900296
O O4 0.766525 0.958900 0.959988
O O5 0.206497 0.855994 0.560104
O O6 0.303940 0.937746 0.604898
O O7 0.049956 0.909826 0.617075
O O8 0.123463 0.956708 0.536020
O O9 0.750000 0.250000 0.577117
O O10 0.643547 0.287325 0.496970
O O11 0.501261 0.293404 0.579502
O O12 0.250000 0.951184 0.750000
O O13 0.434038 0.918092 0.687599
O O14 0.494678 0.917252 0.788389
O O15 0.500000 0.000000 0.738003
O O16 0.250000 0.250000 0.917024
O O17 0.500000 0.500000 0.132374
O O18 0.500000 0.000000 0.156883
#
# Coordination Sequence:
#
# PCOD9327818 Si02
#       8
#    16  16  16  16  16   8  16  16
#     4  12  24  37  58  87 120 163 194 238 290 355
#     4  12  22  37  58  84 118 162 197 235 284 356
#     4  10  22  39  58  81 111 158 209 245 281 338
#     4  10  22  37  57  80 116 156 193 252 292 349
#     4  10  22  40  56  81 115 155 204 249 287 334
#     4  12  24  38  54  84 132 164 190 232 288 344
#     4  11  23  38  55  86 122 154 202 236 295 356
#     4  11  21  36  58  85 115 153 197 235 297 348
#
# _framework density 18.287832000000002
#
# number of rings (size 3 to 8) (size 9 to 14) (size 15 to 20)
#    0.000    1.067    6.667    0.000    7.467    2.133 
#    0.000    0.000    0.000    0.000    0.000    5.600 
#    0.000    0.000    0.000    0.000    0.000    0.000 
#
# Total GULP energy -167081.776562 kJ/mol
# GULP energy per Si atom -5569.392552 kJ/mol
# Density = 1.824621 g / cm^3
# Si number density = 18.287832 Si / 1000 Ang^3
#
#
#
# Elastic Constant Matrix: (Units=GPa)
#
#
# Indices 1 2 3 4 5 6 
#
# 1 64.7947 17.0902 37.8700 0.0000 0.0000 0.0000
# 2 17.0902 95.6838 19.9721 0.0000 0.0000 0.0000
# 3 37.8700 19.9721 83.9750 0.0000 0.0000 0.0000
# 4 0.0000 0.0000 0.0000 5.4242 0.0000 0.0000
# 5 0.0000 0.0000 0.0000 0.0000 22.5125 0.0000
# 6 0.0000 0.0000 0.0000 0.0000 0.0000 28.4898
#
#
#
# Elastic Compliance Matrix: (Units=1/GPa)
#
#
# Indices 1 2 3 4 5 6 
#
# 1 0.021277 -0.001891 -0.009146 0.000000 0.000000 0.000000
# 2 -0.001891 0.011165 -0.001802 0.000000 0.000000 0.000000
# 3 -0.009146 -0.001802 0.016461 0.000000 0.000000 0.000000
# 4 0.000000 0.000000 0.000000 0.184359 0.000000 0.000000
# 5 0.000000 0.000000 0.000000 0.000000 0.044420 0.000000
# 6 0.000000 0.000000 0.000000 0.000000 0.000000 0.035100
#
#
# Mechanical properties :
#
#
# Convention : Reuss Voigt Hill
#
# Bulk Modulus (GPa) = 43.05708 43.81310 43.43509
# Shear Modulus (GPa) = 14.44235 22.58672 18.51453
#
# Velocity S-wave (km/s) = 2.81325 3.51817 3.18527
# Velocity P-wave (km/s) = 5.84361 6.36497 6.10985
#
# Compressibility (1/GPa) = 0.02322499
#
# Stress axis : x y z
#
# Youngs Moduli (GPa) = 46.99803 89.56440 60.74831
#
# Poissons Ratio (x) = 0.16941 0.55558
# Poissons Ratio (y) = 0.08889 0.10950
# Poissons Ratio (z) = 0.42983 0.16144
#
# Static dielectric constant tensor:
#      x y z
#    x 1.734560 0.000000 0.000000 
#    y 0.000000 1.665330 0.000000 
#    z 0.000000 0.000000 1.676370 
# 
# From -- ./inp_files/52182.got.cif
#   From: 2010.05.17/outbox.cif.g08.bks.cpg/sg22_27_cif.got.tgz:52182.got - 2010.06.03 23:40:54.
