data_PCOD9327385
_publ_section_title
;
Structure prediction by ZEFSAII (Michael W. Deem and Ramdas Pophale) SiO2 
 PCOD9327385
Probable space group: F 2 2 2
;
_chemical_formula_sum "Si O2"
_cell_formula_units_Z 116
_cell_length_a 13.533295
_cell_length_b 30.192786
_cell_length_c 13.424115
_cell_angle_alpha 90.000000
_cell_angle_beta 90.000000
_cell_angle_gamma 90.000000
_cell_volume 5485.199168
_symmetry_space_group_name_H-M "F 2 2 2"
_symmetry_group_IT_number 22
_symmetry_cell_setting 'orthorhombic'
loop_
_space_group_symop_operation_xyz
x,y,z
-x,-y,z
x,-y,-z
-x,y,-z
x,1/2+y,1/2+z
-x,1/2-y,1/2+z
x,1/2-y,1/2-z
-x,1/2+y,1/2-z
1/2+x,y,1/2+z
1/2-x,-y,1/2+z
1/2+x,-y,1/2-z
1/2-x,y,1/2-z
1/2+x,1/2+y,z
1/2-x,1/2-y,z
1/2+x,1/2-y,-z
1/2-x,1/2+y,-z
loop_
_atom_site_type_symbol
_atom_site_label
_atom_site_fract_x
_atom_site_fract_y
_atom_site_fract_z
Si Si1 0.117007 0.712744 0.578144
Si Si2 0.348196 0.879658 0.212250
Si Si3 0.944152 0.202411 0.221665
Si Si4 0.493912 0.950508 0.159424
Si Si5 0.173366 0.451541 0.016646
Si Si6 0.256078 0.139905 0.999307
Si Si7 0.074980 0.311351 0.080902
Si Si8 0.750000 0.750000 0.250000
O O1 0.166371 0.674246 0.512902
O O2 0.111628 0.763454 0.538568
O O3 0.183492 0.720556 0.677343
O O4 0.008536 0.703280 0.621499
O O5 0.250000 0.904626 0.250000
O O6 0.367654 0.837040 0.279522
O O7 0.446314 0.909775 0.218998
O O8 0.317807 0.859917 0.104389
O O9 0.899711 0.250000 0.250000
O O10 0.019028 0.194106 0.315173
O O11 0.602257 0.944229 0.112139
O O12 0.500000 0.000000 0.204718
O O13 0.410282 0.951110 0.071342
O O14 0.254096 0.412806 0.012705
O O15 0.218211 0.500000 0.000000
O O16 0.332575 0.156749 0.083233
O O17 0.000000 0.330213 0.000000
#
# Coordination Sequence:
#
# PCOD9327385 Si02
#       8
#    16  16  16  16  16  16  16   4
#     4  11  21  35  53  79 116 151 194 240 298 347
#     4  11  23  37  54  81 117 152 195 246 292 349
#     4  10  21  37  54  76 114 157 188 233 292 343
#     4   8  15  31  57  80 106 140 176 228 296 351
#     4   8  15  28  53  88 111 129 174 239 293 341
#     4  11  20  32  57  82 108 149 191 236 286 357
#     4  11  19  32  54  78 105 149 193 234 281 341
#     4  12  16  32  52  80 112 152 180 252 296 340
#
# _framework density 21.147818000000001
#
# number of rings (size 3 to 8) (size 9 to 14) (size 15 to 20)
#    0.000    1.931    4.828    1.655    1.931    2.483 
#    2.483    0.000    9.103    0.000    0.000    0.000 
#    0.000    0.000    0.000    0.000    0.000    0.000 
#
# Total GULP energy -161514.697409 kJ/mol
# GULP energy per Si atom -5569.472324 kJ/mol
# Density = 2.109968 g / cm^3
# Si number density = 21.147818 Si / 1000 Ang^3
#
#
#
# Elastic Constant Matrix: (Units=GPa)
#
#
# Indices 1 2 3 4 5 6 
#
# 1 50.9756 43.6639 2.4969 0.0000 0.0000 0.0000
# 2 43.6639 143.6620 10.1434 0.0000 0.0000 0.0000
# 3 2.4969 10.1434 33.8284 0.0000 0.0000 0.0000
# 4 0.0000 0.0000 0.0000 14.6668 0.0000 0.0000
# 5 0.0000 0.0000 0.0000 0.0000 19.7173 0.0000
# 6 0.0000 0.0000 0.0000 0.0000 0.0000 37.1281
#
#
#
# Elastic Compliance Matrix: (Units=1/GPa)
#
#
# Indices 1 2 3 4 5 6 
#
# 1 0.026529 -0.008096 0.000470 0.000000 0.000000 0.000000
# 2 -0.008096 0.009582 -0.002276 0.000000 0.000000 0.000000
# 3 0.000470 -0.002276 0.030209 0.000000 0.000000 0.000000
# 4 0.000000 0.000000 0.000000 0.068181 0.000000 0.000000
# 5 0.000000 0.000000 0.000000 0.000000 0.050717 0.000000
# 6 0.000000 0.000000 0.000000 0.000000 0.000000 0.026934
#
#
# Mechanical properties :
#
#
# Convention : Reuss Voigt Hill
#
# Bulk Modulus (GPa) = 21.49830 37.89715 29.69773
# Shear Modulus (GPa) = 20.20514 25.77990 22.99252
#
# Velocity S-wave (km/s) = 3.09435 3.49525 3.30089
# Velocity P-wave (km/s) = 4.79108 5.85219 5.34802
#
# Compressibility (1/GPa) = 0.04651530
#
# Stress axis : x y z
#
# Youngs Moduli (GPa) = 37.69419 104.36002 33.10313
#
# Poissons Ratio (x) = 0.84493 -0.01554
# Poissons Ratio (y) = 0.30518 0.07533
# Poissons Ratio (z) = -0.01770 0.23748
#
# Static dielectric constant tensor:
#      x y z
#    x 1.796910 0.000000 0.000000 
#    y 0.000000 1.830870 0.000000 
#    z 0.000000 0.000000 1.836190 
# 
# From -- ./inp_files/37425.got.cif
#   From: 2010.05.17/outbox.cif.g08.bks.cpg/sg22_19_cif.got.tgz:37425.got - 2010.06.03 23:40:54.
