data_PCOD9327932
_publ_section_title
;
Structure prediction by ZEFSAII (Michael W. Deem and Ramdas Pophale) SiO2 
 PCOD9327932
Probable space group: F 2 2 2
;
_chemical_formula_sum "Si O2"
_cell_formula_units_Z 56
_cell_length_a 8.828771
_cell_length_b 23.493128
_cell_length_c 11.595545
_cell_angle_alpha 90.000000
_cell_angle_beta 90.000000
_cell_angle_gamma 90.000000
_cell_volume 2405.095152
_symmetry_space_group_name_H-M "F 2 2 2"
_symmetry_group_IT_number 22
_symmetry_cell_setting 'orthorhombic'
loop_
_space_group_symop_operation_xyz
x,y,z
-x,-y,z
x,-y,-z
-x,y,-z
x,1/2+y,1/2+z
-x,1/2-y,1/2+z
x,1/2-y,1/2-z
-x,1/2+y,1/2-z
1/2+x,y,1/2+z
1/2-x,-y,1/2+z
1/2+x,-y,1/2-z
1/2-x,y,1/2-z
1/2+x,1/2+y,z
1/2-x,1/2-y,z
1/2+x,1/2-y,-z
1/2-x,1/2+y,-z
loop_
_atom_site_type_symbol
_atom_site_label
_atom_site_fract_x
_atom_site_fract_y
_atom_site_fract_z
Si Si1 0.929654 0.120166 0.756810
Si Si2 0.500000 0.601883 0.000000
Si Si3 0.000000 0.500000 0.184037
Si Si4 0.238425 0.500000 0.500000
Si Si5 0.073452 0.228750 0.376812
O O1 0.750000 0.113620 0.750000
O O2 0.978792 0.139633 0.885027
O O3 0.005299 0.058507 0.751644
O O4 0.957330 0.161370 0.648827
O O5 0.640369 0.557564 0.996065
O O6 0.849914 0.502991 0.107895
O O7 0.017756 0.250000 0.250000
O O8 0.250000 0.250000 0.381104
O O9 0.000000 0.241866 0.500000
#
# Coordination Sequence:
#
# PCOD9327932 Si02
#       5
#    16   8   8   8  16
#     4  12  25  45  74 108 152 200 249 312 380 448
#     4  11  24  40  68 102 150 202 246 299 374 446
#     4  11  24  41  66 106 158 195 247 308 376 454
#     4  10  22  40  64 100 152 206 246 296 364 456
#     4  11  27  53  82 111 150 199 258 322 377 447
#
# _framework density 23.283899999999999
#
# number of rings (size 3 to 8) (size 9 to 14) (size 15 to 20)
#    0.000    0.857    5.714    1.714    6.000    0.571 
#    0.000    2.857    0.000    0.000    0.000    0.000 
#    0.000    0.000    0.000    0.000    0.000    0.000 
#
# Total GULP energy -78154.411266 kJ/mol
# GULP energy per Si atom -5582.457948 kJ/mol
# Density = 2.323091 g / cm^3
# Si number density = 23.283900 Si / 1000 Ang^3
#
#
#
# Elastic Constant Matrix: (Units=GPa)
#
#
# Indices 1 2 3 4 5 6 
#
# 1 79.9326 16.3413 65.1790 0.0000 0.0000 0.0000
# 2 16.3413 97.2488 67.5311 0.0000 0.0000 0.0000
# 3 65.1790 67.5311 220.7268 0.0000 0.0000 0.0000
# 4 0.0000 0.0000 0.0000 52.9506 0.0000 0.0000
# 5 0.0000 0.0000 0.0000 0.0000 0.1954 0.0000
# 6 0.0000 0.0000 0.0000 0.0000 0.0000 17.4627
#
#
#
# Elastic Compliance Matrix: (Units=1/GPa)
#
#
# Indices 1 2 3 4 5 6 
#
# 1 0.016524 0.000777 -0.005117 0.000000 0.000000 0.000000
# 2 0.000777 0.013093 -0.004235 0.000000 0.000000 0.000000
# 3 -0.005117 -0.004235 0.007337 0.000000 0.000000 0.000000
# 4 0.000000 0.000000 0.000000 0.018886 0.000000 0.000000
# 5 0.000000 0.000000 0.000000 0.000000 5.116480 0.000000
# 6 0.000000 0.000000 0.000000 0.000000 0.000000 0.057265
#
#
# Mechanical properties :
#
#
# Convention : Reuss Voigt Hill
#
# Bulk Modulus (GPa) = 50.49552 77.33456 63.91504
# Shear Modulus (GPa) = 0.95178 30.71220 15.83199
#
# Velocity S-wave (km/s) = 0.64004 3.63579 2.61042
# Velocity P-wave (km/s) = 4.72019 7.13520 6.04943
#
# Compressibility (1/GPa) = 0.01980374
#
# Stress axis : x y z
#
# Youngs Moduli (GPa) = 60.51650 76.37421 136.28928
#
# Poissons Ratio (x) = -0.05932 0.69742
# Poissons Ratio (y) = -0.04701 0.57722
# Poissons Ratio (z) = 0.30967 0.32347
#
# Static dielectric constant tensor:
#      x y z
#    x 1.824870 0.000000 0.000000 
#    y 0.000000 2.345160 0.000000 
#    z 0.000000 0.000000 1.921640 
# 
# From -- ./inp_files/16823.got.cif
#   From: 2010.05.17/outbox.cif.g08.bks.cpg/sg22_9_cif.got.tgz:16823.got - 2010.06.03 23:40:54.
