data_PCOD9327703
_publ_section_title
;
Structure prediction by ZEFSAII (Michael W. Deem and Ramdas Pophale) SiO2 
 PCOD9327703
Probable space group: F 2 2 2
;
_chemical_formula_sum "Si O2"
_cell_formula_units_Z 72
_cell_length_a 26.283926
_cell_length_b 7.736046
_cell_length_c 14.660353
_cell_angle_alpha 90.000000
_cell_angle_beta 90.000000
_cell_angle_gamma 90.000000
_cell_volume 2980.943241
_symmetry_space_group_name_H-M "F 2 2 2"
_symmetry_group_IT_number 22
_symmetry_cell_setting 'orthorhombic'
loop_
_space_group_symop_operation_xyz
x,y,z
-x,-y,z
x,-y,-z
-x,y,-z
x,1/2+y,1/2+z
-x,1/2-y,1/2+z
x,1/2-y,1/2-z
-x,1/2+y,1/2-z
1/2+x,y,1/2+z
1/2-x,-y,1/2+z
1/2+x,-y,1/2-z
1/2-x,y,1/2-z
1/2+x,1/2+y,z
1/2-x,1/2-y,z
1/2+x,1/2-y,-z
1/2-x,1/2+y,-z
loop_
_atom_site_type_symbol
_atom_site_label
_atom_site_fract_x
_atom_site_fract_y
_atom_site_fract_z
Si Si1 0.765845 0.544591 0.852157
Si Si2 0.384322 0.439503 0.360550
Si Si3 0.307559 0.000000 0.500000
Si Si4 0.556635 0.433894 0.198442
Si Si5 0.598307 0.724468 0.973241
O O1 0.750000 0.505921 0.750000
O O2 0.750000 0.750000 0.865884
O O3 0.824040 0.483429 0.865305
O O4 0.729226 0.443422 0.919969
O O5 0.403639 0.450829 0.256793
O O6 0.407749 0.599270 0.417403
O O7 0.404007 0.276532 0.420043
O O8 0.344924 0.851160 0.465410
O O9 0.500000 0.500000 0.212363
O O10 0.561327 0.250000 0.250000
O O11 0.566553 0.407000 0.090342
#
# Coordination Sequence:
#
# PCOD9327703 Si02
#       5
#    16  16   8  16  16
#     4  11  23  38  67  99 142 191 235 277 348 431
#     4  10  21  42  66  98 137 189 233 287 353 436
#     4  12  22  38  65 104 139 186 230 290 342 422
#     4  10  23  45  73  99 134 185 242 301 369 426
#     4  10  22  40  66  96 140 182 235 291 356 419
#
# _framework density 24.153428999999999
#
# number of rings (size 3 to 8) (size 9 to 14) (size 15 to 20)
#    0.000    1.556    2.222    2.667    6.222    1.778 
#    0.000   18.333    0.000    0.000    0.000    0.000 
#    0.000    0.000    0.000    0.000    0.000    0.000 
#
# Total GULP energy -100451.922052 kJ/mol
# GULP energy per Si atom -5580.662336 kJ/mol
# Density = 2.409845 g / cm^3
# Si number density = 24.153429 Si / 1000 Ang^3
#
#
#
# Elastic Constant Matrix: (Units=GPa)
#
#
# Indices 1 2 3 4 5 6 
#
# 1 77.3260 15.0121 21.1912 0.0000 0.0000 0.0000
# 2 15.0121 100.9918 36.8592 0.0000 0.0000 0.0000
# 3 21.1912 36.8592 138.5588 0.0000 0.0000 0.0000
# 4 0.0000 0.0000 0.0000 16.2318 0.0000 0.0000
# 5 0.0000 0.0000 0.0000 0.0000 48.3527 0.0000
# 6 0.0000 0.0000 0.0000 0.0000 0.0000 12.9290
#
#
#
# Elastic Compliance Matrix: (Units=1/GPa)
#
#
# Indices 1 2 3 4 5 6 
#
# 1 0.013676 -0.001406 -0.001718 0.000000 0.000000 0.000000
# 2 -0.001406 0.011111 -0.002741 0.000000 0.000000 0.000000
# 3 -0.001718 -0.002741 0.008209 0.000000 0.000000 0.000000
# 4 0.000000 0.000000 0.000000 0.061607 0.000000 0.000000
# 5 0.000000 0.000000 0.000000 0.000000 0.020681 0.000000
# 6 0.000000 0.000000 0.000000 0.000000 0.000000 0.077346
#
#
# Mechanical properties :
#
#
# Convention : Reuss Voigt Hill
#
# Bulk Modulus (GPa) = 47.02049 51.44462 49.23256
# Shear Modulus (GPa) = 23.64649 31.75698 27.70173
#
# Velocity S-wave (km/s) = 3.13231 3.62995 3.39028
# Velocity P-wave (km/s) = 5.70890 6.23812 5.97936
#
# Compressibility (1/GPa) = 0.02126732
#
# Stress axis : x y z
#
# Youngs Moduli (GPa) = 73.12117 90.00028 121.81868
#
# Poissons Ratio (x) = 0.12654 0.20923
# Poissons Ratio (y) = 0.10281 0.33387
# Poissons Ratio (z) = 0.12559 0.24667
#
# Static dielectric constant tensor:
#      x y z
#    x 1.842090 0.000000 0.000000 
#    y 0.000000 2.017580 0.000000 
#    z 0.000000 0.000000 1.859000 
# 
# From -- ./inp_files/32945.got.cif
#   From: 2010.05.17/outbox.cif.g08.bks.cpg/sg22_17_cif.got.tgz:32945.got - 2010.06.03 23:40:54.
