data_PCOD9327974
_publ_section_title
;
Structure prediction by ZEFSAII (Michael W. Deem and Ramdas Pophale) SiO2 
 PCOD9327974
Probable space group: F 2 2 2
;
_chemical_formula_sum "Si O2"
_cell_formula_units_Z 96
_cell_length_a 19.641896
_cell_length_b 24.254286
_cell_length_c 9.067588
_cell_angle_alpha 90.000000
_cell_angle_beta 90.000000
_cell_angle_gamma 90.000000
_cell_volume 4319.800403
_symmetry_space_group_name_H-M "F 2 2 2"
_symmetry_group_IT_number 22
_symmetry_cell_setting 'orthorhombic'
loop_
_space_group_symop_operation_xyz
x,y,z
-x,-y,z
x,-y,-z
-x,y,-z
x,1/2+y,1/2+z
-x,1/2-y,1/2+z
x,1/2-y,1/2-z
-x,1/2+y,1/2-z
1/2+x,y,1/2+z
1/2-x,-y,1/2+z
1/2+x,-y,1/2-z
1/2-x,y,1/2-z
1/2+x,1/2+y,z
1/2-x,1/2-y,z
1/2+x,1/2-y,-z
1/2-x,1/2+y,-z
loop_
_atom_site_type_symbol
_atom_site_label
_atom_site_fract_x
_atom_site_fract_y
_atom_site_fract_z
Si Si1 0.606745 0.127795 0.271730
Si Si2 0.179486 0.352123 0.439454
Si Si3 0.545752 0.397137 0.778379
Si Si4 0.612337 0.998379 0.826081
Si Si5 0.750000 0.438212 0.750000
Si Si6 0.573036 0.183431 0.974942
Si Si7 0.167076 0.250000 0.250000
O O1 0.661996 0.148604 0.388869
O O2 0.528153 0.123638 0.328473
O O3 0.617935 0.064370 0.226020
O O4 0.605824 0.166959 0.129252
O O5 0.107004 0.371262 0.371070
O O6 0.232102 0.398707 0.387888
O O7 0.200442 0.295979 0.357342
O O8 0.559598 0.462227 0.762429
O O9 0.555563 0.372410 0.614229
O O10 0.685112 0.026328 0.793880
O O11 0.596460 0.000000 0.000000
O O12 0.620431 0.217641 0.867412
O O13 0.500000 0.212296 0.000000
#
# Coordination Sequence:
#
# PCOD9327974 Si02
#       7
#    16  16  16  16   8  16   8
#     4  11  21  35  64 100 127 162 216 268 312 393
#     4  10  23  42  62  89 123 170 220 273 322 384
#     4   9  19  37  57  92 136 170 201 256 332 389
#     4  11  22  37  63  91 133 178 211 255 320 398
#     4  10  26  43  62  88 128 171 220 264 330 376
#     4   9  19  34  57  91 129 164 207 261 329 404
#     4  10  22  41  62  82 122 170 214 267 356 382
#
# _framework density 22.223248999999999
#
# number of rings (size 3 to 8) (size 9 to 14) (size 15 to 20)
#    0.000    2.000    1.667    1.000    2.333    7.667 
#    0.000    3.333    0.000    0.000    4.333    0.000 
#    0.000    0.000    0.000    0.000    0.000    0.000 
#
# Total GULP energy -134074.548329 kJ/mol
# GULP energy per Si atom -5586.439514 kJ/mol
# Density = 2.217267 g / cm^3
# Si number density = 22.223249 Si / 1000 Ang^3
#
#
#
# Elastic Constant Matrix: (Units=GPa)
#
#
# Indices 1 2 3 4 5 6 
#
# 1 55.2591 18.5188 12.3899 0.0000 0.0000 0.0000
# 2 18.5188 84.5792 23.0072 0.0000 0.0000 0.0000
# 3 12.3899 23.0072 114.4629 0.0001 -0.0001 0.0000
# 4 0.0000 0.0000 0.0001 15.7930 0.0000 0.0000
# 5 0.0000 0.0000 -0.0001 0.0000 37.9380 0.0000
# 6 0.0000 0.0000 0.0000 0.0000 0.0000 18.6533
#
#
#
# Elastic Compliance Matrix: (Units=1/GPa)
#
#
# Indices 1 2 3 4 5 6 
#
# 1 0.019722 -0.003954 -0.001340 0.000000 0.000000 0.000000
# 2 -0.003954 0.013300 -0.002245 0.000000 0.000000 0.000000
# 3 -0.001340 -0.002245 0.009333 0.000000 0.000000 0.000000
# 4 0.000000 0.000000 0.000000 0.063319 0.000000 0.000000
# 5 0.000000 0.000000 0.000000 0.000000 0.026359 0.000000
# 6 0.000000 0.000000 0.000000 0.000000 0.000000 0.053610
#
#
# Mechanical properties :
#
#
# Convention : Reuss Voigt Hill
#
# Bulk Modulus (GPa) = 36.66170 40.23700 38.44935
# Shear Modulus (GPa) = 23.83079 27.83587 25.83333
#
# Velocity S-wave (km/s) = 3.27821 3.54299 3.41317
# Velocity P-wave (km/s) = 5.55533 5.90611 5.73340
#
# Compressibility (1/GPa) = 0.02727642
#
# Stress axis : x y z
#
# Youngs Moduli (GPa) = 50.70471 75.18992 107.14875
#
# Poissons Ratio (x) = 0.29727 0.14359
# Poissons Ratio (y) = 0.20047 0.24058
# Poissons Ratio (z) = 0.06795 0.16882
#
# Static dielectric constant tensor:
#      x y z
#    x 1.965910 0.000000 0.000000 
#    y 0.000000 1.812130 0.000000 
#    z 0.000000 0.000000 1.829940 
# 
# From -- ./inp_files/13928.got.cif
#   From: 2010.05.17/outbox.cif.g08.bks.cpg/sg22_7_cif.got.tgz:13928.got - 2010.06.03 23:40:54.
