data_PCOD9327576
_publ_section_title
;
Structure prediction by ZEFSAII (Michael W. Deem and Ramdas Pophale) SiO2 
 PCOD9327576
Probable space group: F 2 2 2
;
_chemical_formula_sum "Si O2"
_cell_formula_units_Z 112
_cell_length_a 21.002840
_cell_length_b 20.382486
_cell_length_c 11.265181
_cell_angle_alpha 90.000000
_cell_angle_beta 90.000000
_cell_angle_gamma 90.000000
_cell_volume 4822.512374
_symmetry_space_group_name_H-M "F 2 2 2"
_symmetry_group_IT_number 22
_symmetry_cell_setting 'orthorhombic'
loop_
_space_group_symop_operation_xyz
x,y,z
-x,-y,z
x,-y,-z
-x,y,-z
x,1/2+y,1/2+z
-x,1/2-y,1/2+z
x,1/2-y,1/2-z
-x,1/2+y,1/2-z
1/2+x,y,1/2+z
1/2-x,-y,1/2+z
1/2+x,-y,1/2-z
1/2-x,y,1/2-z
1/2+x,1/2+y,z
1/2-x,1/2-y,z
1/2+x,1/2-y,-z
1/2-x,1/2+y,-z
loop_
_atom_site_type_symbol
_atom_site_label
_atom_site_fract_x
_atom_site_fract_y
_atom_site_fract_z
Si Si1 0.360621 0.533142 0.235710
Si Si2 0.684640 0.705826 0.102179
Si Si3 0.824692 0.272115 0.123506
Si Si4 0.710142 0.068868 0.471451
Si Si5 0.849375 0.410594 0.024221
Si Si6 0.608193 0.383705 0.730450
Si Si7 0.512491 0.578368 0.864931
O O1 0.299264 0.563648 0.169821
O O2 0.374257 0.540202 0.376455
O O3 0.363721 0.453759 0.222117
O O4 0.414715 0.578032 0.173439
O O5 0.750000 0.750000 0.121313
O O6 0.649646 0.677637 0.219620
O O7 0.646749 0.745469 0.000648
O O8 0.691768 0.637231 0.029467
O O9 0.851772 0.250000 0.250000
O O10 0.750000 0.250000 0.123292
O O11 0.830379 0.348969 0.106233
O O12 0.781454 0.064169 0.521555
O O13 0.674798 0.000000 0.500000
O O14 0.889590 0.388930 0.911513
O O15 0.536820 0.383593 0.781592
O O16 0.500000 0.500000 0.856265
O O17 0.500000 0.598568 0.000000
#
# Coordination Sequence:
#
# PCOD9327576 Si02
#       7
#    16  16  16  16  16  16  16
#     4  11  23  40  67 101 142 186 233 302 361 422
#     4  11  22  42  64  97 137 183 235 285 358 426
#     4  10  21  40  61  91 127 181 242 276 333 431
#     4  12  22  39  64 102 146 184 233 292 355 436
#     4  12  25  39  61 100 144 189 224 287 374 441
#     4  11  24  42  64 102 142 184 243 292 357 441
#     4   9  20  40  69  98 132 178 238 297 350 415
#
# _framework density 23.224409000000001
#
# number of rings (size 3 to 8) (size 9 to 14) (size 15 to 20)
#    0.000    1.143    4.286    3.429    4.000    2.286 
#    0.000    2.143    0.000    0.000   26.000    0.000 
#    0.000    0.000    0.000    0.000    0.000    0.000 
#
# Total GULP energy -155919.486309 kJ/mol
# GULP energy per Si atom -5568.553082 kJ/mol
# Density = 2.317155 g / cm^3
# Si number density = 23.224409 Si / 1000 Ang^3
#
#
#
# Elastic Constant Matrix: (Units=GPa)
#
#
# Indices 1 2 3 4 5 6 
#
# 1 50.8037 9.1633 29.1842 0.0000 0.0000 0.0000
# 2 9.1633 127.1467 19.0600 0.0000 0.0000 0.0000
# 3 29.1842 19.0600 140.0112 0.0000 0.0000 0.0000
# 4 0.0000 0.0000 0.0000 34.7000 0.0000 0.0000
# 5 0.0000 0.0000 0.0000 0.0000 29.6074 0.0000
# 6 0.0000 0.0000 0.0000 0.0000 0.0000 20.3390
#
#
#
# Elastic Compliance Matrix: (Units=1/GPa)
#
#
# Indices 1 2 3 4 5 6 
#
# 1 0.022470 -0.000936 -0.004556 0.000000 0.000000 0.000000
# 2 -0.000936 0.008068 -0.000903 0.000000 0.000000 0.000000
# 3 -0.004556 -0.000903 0.008215 0.000000 0.000000 0.000000
# 4 0.000000 0.000000 0.000000 0.028818 0.000000 0.000000
# 5 0.000000 0.000000 0.000000 0.000000 0.033775 0.000000
# 6 0.000000 0.000000 0.000000 0.000000 0.000000 0.049167
#
#
# Mechanical properties :
#
#
# Convention : Reuss Voigt Hill
#
# Bulk Modulus (GPa) = 38.51903 48.08630 43.30267
# Shear Modulus (GPa) = 29.07689 34.29955 31.68822
#
# Velocity S-wave (km/s) = 3.54220 3.84718 3.69783
# Velocity P-wave (km/s) = 5.77504 6.36274 6.07600
#
# Compressibility (1/GPa) = 0.02596119
#
# Stress axis : x y z
#
# Youngs Moduli (GPa) = 44.50423 123.94957 121.72972
#
# Poissons Ratio (x) = 0.11606 0.55462
# Poissons Ratio (y) = 0.04167 0.10993
# Poissons Ratio (z) = 0.20277 0.11194
#
# Static dielectric constant tensor:
#      x y z
#    x 1.960130 0.000000 0.000000 
#    y 0.000000 2.020960 0.000000 
#    z 0.000000 0.000000 2.016210 
# 
# From -- ./inp_files/23965.got.cif
#   From: 2010.05.17/outbox.cif.g08.bks.cpg/sg22_12_cif.got.tgz:23965.got - 2010.06.03 23:40:54.
