data_PCOD9327787
_publ_section_title
;
Structure prediction by ZEFSAII (Michael W. Deem and Ramdas Pophale) SiO2 
 PCOD9327787
Probable space group: F 2 2 2
;
_chemical_formula_sum "Si O2"
_cell_formula_units_Z 108
_cell_length_a 29.138515
_cell_length_b 15.700320
_cell_length_c 11.958048
_cell_angle_alpha 90.000000
_cell_angle_beta 90.000000
_cell_angle_gamma 90.000000
_cell_volume 5470.615749
_symmetry_space_group_name_H-M "F 2 2 2"
_symmetry_group_IT_number 22
_symmetry_cell_setting 'orthorhombic'
loop_
_space_group_symop_operation_xyz
x,y,z
-x,-y,z
x,-y,-z
-x,y,-z
x,1/2+y,1/2+z
-x,1/2-y,1/2+z
x,1/2-y,1/2-z
-x,1/2+y,1/2-z
1/2+x,y,1/2+z
1/2-x,-y,1/2+z
1/2+x,-y,1/2-z
1/2-x,y,1/2-z
1/2+x,1/2+y,z
1/2-x,1/2-y,z
1/2+x,1/2-y,-z
1/2-x,1/2+y,-z
loop_
_atom_site_type_symbol
_atom_site_label
_atom_site_fract_x
_atom_site_fract_y
_atom_site_fract_z
Si Si1 0.780388 0.451030 0.843715
Si Si2 0.340285 0.605360 0.285381
Si Si3 0.040866 0.326723 0.586511
Si Si4 0.856884 0.350681 0.471353
Si Si5 0.797141 0.802520 0.516577
Si Si6 0.500000 0.500000 0.500000
Si Si7 0.946365 0.630217 0.839427
Si Si8 0.793897 0.500000 0.500000
O O1 0.750000 0.404986 0.750000
O O2 0.821312 0.509685 0.799917
O O3 0.795940 0.383142 0.934757
O O4 0.741839 0.513156 0.899210
O O5 0.342355 0.636364 0.158311
O O6 0.307673 0.664491 0.359446
O O7 0.391820 0.614029 0.332403
O O8 0.088553 0.356786 0.530091
O O9 0.036355 0.369406 0.709718
O O10 0.045444 0.225448 0.612598
O O11 0.000000 0.342415 0.500000
O O12 0.838572 0.260789 0.513552
O O13 0.827392 0.423324 0.531126
O O14 0.750000 0.750000 0.510401
O O15 0.470173 0.561153 0.418974
#
# Coordination Sequence:
#
# PCOD9327787 Si02
#       8
#    16  16  16  16  16   4  16   8
#     4  12  24  40  60  88 136 174 208 260 327 385
#     4  11  22  40  66  95 126 164 218 269 316 384
#     4  10  21  46  69  91 130 174 219 278 330 407
#     4  11  23  41  65  93 123 167 225 272 317 382
#     4  12  23  37  62  94 126 168 218 256 316 388
#     4  12  24  42  70 100 144 158 206 290 328 408
#     4  10  23  40  69 102 127 168 216 267 346 390
#     4  12  22  41  57  90 122 167 215 266 316 374
#
# _framework density 19.741835999999999
#
# number of rings (size 3 to 8) (size 9 to 14) (size 15 to 20)
#    0.000    0.889    6.667    0.444    2.074    0.889 
#    5.333    0.000    3.259    0.000    0.000    0.000 
#    0.000    0.000    0.000    0.000    0.000    0.000 
#
# Total GULP energy -150749.543423 kJ/mol
# GULP energy per Si atom -5583.316423 kJ/mol
# Density = 1.969690 g / cm^3
# Si number density = 19.741836 Si / 1000 Ang^3
#
#
#
# Elastic Constant Matrix: (Units=GPa)
#
#
# Indices 1 2 3 4 5 6 
#
# 1 112.1278 43.6869 58.0377 0.0000 0.0000 0.0000
# 2 43.6869 89.5732 27.7071 0.0000 0.0000 0.0000
# 3 58.0377 27.7071 68.5291 0.0000 0.0000 0.0000
# 4 0.0000 0.0000 0.0000 31.3204 0.0000 0.0000
# 5 0.0000 0.0000 0.0000 0.0000 39.6123 0.0000
# 6 0.0000 0.0000 0.0000 0.0000 0.0000 26.6438
#
#
#
# Elastic Compliance Matrix: (Units=1/GPa)
#
#
# Indices 1 2 3 4 5 6 
#
# 1 0.017314 -0.004467 -0.012857 0.000000 0.000000 0.000000
# 2 -0.004467 0.013913 -0.001842 0.000000 0.000000 0.000000
# 3 -0.012857 -0.001842 0.026226 0.000000 0.000000 0.000000
# 4 0.000000 0.000000 0.000000 0.031928 0.000000 0.000000
# 5 0.000000 0.000000 0.000000 0.000000 0.025245 0.000000
# 6 0.000000 0.000000 0.000000 0.000000 0.000000 0.037532
#
#
# Mechanical properties :
#
#
# Convention : Reuss Voigt Hill
#
# Bulk Modulus (GPa) = 52.30094 58.78816 55.54455
# Shear Modulus (GPa) = 25.39853 28.90185 27.15019
#
# Velocity S-wave (km/s) = 3.59072 3.83036 3.71248
# Velocity P-wave (km/s) = 6.61370 7.02889 6.82445
#
# Compressibility (1/GPa) = 0.01912012
#
# Stress axis : x y z
#
# Youngs Moduli (GPa) = 57.75763 71.87770 38.13081
#
# Poissons Ratio (x) = 0.32110 0.49024
# Poissons Ratio (y) = 0.25802 0.07022
# Poissons Ratio (z) = 0.74258 0.13237
#
# Static dielectric constant tensor:
#      x y z
#    x 1.672410 0.000000 0.000000 
#    y 0.000000 1.725930 0.000000 
#    z 0.000000 0.000000 1.748790 
# 
# From -- ./inp_files/25438.got.cif
#   From: 2010.05.17/outbox.cif.g08.bks.cpg/sg22_13_cif.got.tgz:25438.got - 2010.06.03 23:40:54.
