data_PCOD9327329
_publ_section_title
;
Structure prediction by ZEFSAII (Michael W. Deem and Ramdas Pophale) SiO2 
 PCOD9327329
Probable space group: F 2 2 2
;
_chemical_formula_sum "Si O2"
_cell_formula_units_Z 56
_cell_length_a 13.829704
_cell_length_b 33.025487
_cell_length_c 5.239689
_cell_angle_alpha 90.000000
_cell_angle_beta 90.000000
_cell_angle_gamma 90.000000
_cell_volume 2393.137355
_symmetry_space_group_name_H-M "F 2 2 2"
_symmetry_group_IT_number 22
_symmetry_cell_setting 'orthorhombic'
loop_
_space_group_symop_operation_xyz
x,y,z
-x,-y,z
x,-y,-z
-x,y,-z
x,1/2+y,1/2+z
-x,1/2-y,1/2+z
x,1/2-y,1/2-z
-x,1/2+y,1/2-z
1/2+x,y,1/2+z
1/2-x,-y,1/2+z
1/2+x,-y,1/2-z
1/2-x,y,1/2-z
1/2+x,1/2+y,z
1/2-x,1/2-y,z
1/2+x,1/2-y,-z
1/2-x,1/2+y,-z
loop_
_atom_site_type_symbol
_atom_site_label
_atom_site_fract_x
_atom_site_fract_y
_atom_site_fract_z
Si Si1 0.615981 0.096236 0.523659
Si Si2 0.856284 0.730769 0.994529
Si Si3 0.750000 0.840990 0.750000
Si Si4 0.616302 0.454700 0.474929
O O1 0.500000 0.105711 0.500000
O O2 0.683165 0.133477 0.442090
O O3 0.640093 0.076566 0.797410
O O4 0.636272 0.063150 0.303134
O O5 0.905970 0.750000 0.750000
O O6 0.750000 0.750000 0.997755
O O7 0.827205 0.684819 0.922937
O O8 0.898223 0.750000 0.250000
O O9 0.656897 0.500000 0.500000
O O10 0.500000 0.457968 0.500000
#
# Coordination Sequence:
#
# PCOD9327329 Si02
#       4
#    16  16   8  16
#     4  10  21  35  56  87 115 151 201 248 306 362
#     4   8  16  30  50  76 102 140 188 221 272 361
#     4  10  21  36  60  86 120 152 190 258 310 350
#     4   9  18  35  56  78 112 157 202 245 293 364
#
# _framework density 23.400245000000002
#
# number of rings (size 3 to 8) (size 9 to 14) (size 15 to 20)
#    0.000    3.143    0.000    0.857    0.000   13.714 
#    0.000    2.857    0.000    6.857    0.000    2.000 
#    0.000    0.000    0.000    0.000    0.000    0.000 
#
# Total GULP energy -78024.491091 kJ/mol
# GULP energy per Si atom -5573.177935 kJ/mol
# Density = 2.334698 g / cm^3
# Si number density = 23.400245 Si / 1000 Ang^3
#
#
#
# Elastic Constant Matrix: (Units=GPa)
#
#
# Indices 1 2 3 4 5 6 
#
# 1 123.7141 32.5848 14.3370 -0.0002 0.0001 0.0001
# 2 32.5848 136.1323 49.7593 0.0000 -0.0001 0.0000
# 3 14.3370 49.7593 174.0570 -0.0001 0.0004 0.0000
# 4 -0.0002 0.0000 -0.0001 22.8524 0.0003 -0.0004
# 5 0.0001 -0.0001 0.0004 0.0003 -7.6502 -0.0003
# 6 0.0001 0.0000 0.0000 -0.0004 -0.0003 46.1579
#
#
#
# Elastic Compliance Matrix: (Units=1/GPa)
#
#
# Indices 1 2 3 4 5 6 
#
# 1 0.008630 -0.002017 -0.000134 0.000000 0.000000 0.000000
# 2 -0.002017 0.008674 -0.002314 0.000000 0.000000 0.000000
# 3 -0.000134 -0.002314 0.006418 0.000000 0.000000 0.000000
# 4 0.000000 0.000000 0.000000 0.043759 0.000002 0.000000
# 5 0.000000 0.000000 0.000000 0.000002 -0.130715 -0.000001
# 6 0.000000 0.000000 0.000000 0.000000 -0.000001 0.021665
#
#
# Mechanical properties :
#
#
# Convention : Reuss Voigt Hill
#
# Bulk Modulus (GPa) = 67.60115 69.69619 68.64867
# Shear Modulus (GPa) = -180.44186 34.75351 -72.84417
#
# Velocity S-wave (km/s) = -8.79082 3.85798 -5.58545
# Velocity P-wave (km/s) = 8.60733 7.04943 3.49226
#
# Compressibility (1/GPa) = 0.01479265
#
# Stress axis : x y z
#
# Youngs Moduli (GPa) = 115.87675 115.28477 155.81813
#
# Poissons Ratio (x) = 0.23248 0.02093
# Poissons Ratio (y) = 0.23367 0.36051
# Poissons Ratio (z) = 0.01557 0.26673
#
# Static dielectric constant tensor:
#      x y z
#    x 1.856320 0.000000 0.000000 
#    y 0.000000 1.960220 0.000000 
#    z 0.000000 0.000000 1.419610 
# 
# From -- ./inp_files/1862.got.cif
#   From: 2010.05.17/outbox.cif.g08.bks.cpg/sg22_1_cif.got.tgz:1862.got - 2010.06.03 23:40:54.
