data_PCOD9327307
_publ_section_title
;
Structure prediction by ZEFSAII (Michael W. Deem and Ramdas Pophale) SiO2 
 PCOD9327307
Probable space group: F 2 2 2
;
_chemical_formula_sum "Si O2"
_cell_formula_units_Z 96
_cell_length_a 19.594305
_cell_length_b 15.870539
_cell_length_c 16.388449
_cell_angle_alpha 90.000000
_cell_angle_beta 90.000000
_cell_angle_gamma 90.000000
_cell_volume 5096.351740
_symmetry_space_group_name_H-M "F 2 2 2"
_symmetry_group_IT_number 22
_symmetry_cell_setting 'orthorhombic'
loop_
_space_group_symop_operation_xyz
x,y,z
-x,-y,z
x,-y,-z
-x,y,-z
x,1/2+y,1/2+z
-x,1/2-y,1/2+z
x,1/2-y,1/2-z
-x,1/2+y,1/2-z
1/2+x,y,1/2+z
1/2-x,-y,1/2+z
1/2+x,-y,1/2-z
1/2-x,y,1/2-z
1/2+x,1/2+y,z
1/2-x,1/2-y,z
1/2+x,1/2-y,-z
1/2-x,1/2+y,-z
loop_
_atom_site_type_symbol
_atom_site_label
_atom_site_fract_x
_atom_site_fract_y
_atom_site_fract_z
Si Si1 0.708531 0.571067 0.668016
Si Si2 0.962184 0.910572 0.901526
Si Si3 0.765245 0.000000 0.000000
Si Si4 0.250000 0.250000 0.601166
Si Si5 0.854455 0.164581 0.982396
Si Si6 0.586034 0.824166 0.314173
Si Si7 0.582541 0.505768 0.750669
O O1 0.750000 0.543203 0.750000
O O2 0.726472 0.525130 0.582915
O O3 0.728001 0.668659 0.652813
O O4 0.629131 0.551673 0.685204
O O5 0.924979 0.865624 0.975642
O O6 0.907647 0.940463 0.833850
O O7 0.013698 0.848873 0.855093
O O8 0.000000 0.000000 0.918044
O O9 0.811455 0.920670 0.022959
O O10 0.186765 0.274539 0.542326
O O11 0.867055 0.197738 0.891631
O O12 0.581246 0.750000 0.250000
O O13 0.607065 0.910980 0.269312
O O14 0.500000 0.500000 0.734743
#
# Coordination Sequence:
#
# PCOD9327307 Si02
#       7
#    16  16   8   8  16  16  16
#     4  11  21  39  61  86 121 158 199 251 304 353
#     4   9  19  35  60  86 106 140 195 247 296 346
#     4  10  22  36  60  88 106 146 208 242 286 358
#     4  10  25  36  55  90 116 154 203 238 292 362
#     4  11  20  37  56  81 118 147 187 250 295 343
#     4  10  21  34  54  85 115 149 191 237 299 364
#     4   9  20  37  59  85 115 156 201 243 298 365
#
# _framework density 18.837005000000001
#
# number of rings (size 3 to 8) (size 9 to 14) (size 15 to 20)
#    0.000    2.333    0.000    5.750    0.000    8.000 
#    0.000    2.500    0.000    0.000    0.000    0.000 
#    0.000    0.000    0.000    0.000    0.000    0.000 
#
# Total GULP energy -133842.913195 kJ/mol
# GULP energy per Si atom -5576.788050 kJ/mol
# Density = 1.879413 g / cm^3
# Si number density = 18.837005 Si / 1000 Ang^3
#
#
#
# Elastic Constant Matrix: (Units=GPa)
#
#
# Indices 1 2 3 4 5 6 
#
# 1 73.6096 23.4696 55.3093 0.0000 0.0000 0.0000
# 2 23.4696 61.3024 66.0300 0.0000 0.0000 0.0000
# 3 55.3093 66.0300 150.1627 0.0000 0.0000 0.0000
# 4 0.0000 0.0000 0.0000 28.1998 0.0000 0.0000
# 5 0.0000 0.0000 0.0000 0.0000 6.9914 0.0000
# 6 0.0000 0.0000 0.0000 0.0000 0.0000 14.7882
#
#
#
# Elastic Compliance Matrix: (Units=1/GPa)
#
#
# Indices 1 2 3 4 5 6 
#
# 1 0.018792 0.000496 -0.007139 0.000000 0.000000 0.000000
# 2 0.000496 0.031004 -0.013816 0.000000 0.000000 0.000000
# 3 -0.007139 -0.013816 0.015364 0.000000 0.000000 0.000000
# 4 0.000000 0.000000 0.000000 0.035461 0.000000 0.000000
# 5 0.000000 0.000000 0.000000 0.000000 0.143032 0.000000
# 6 0.000000 0.000000 0.000000 0.000000 0.000000 0.067621
#
#
# Mechanical properties :
#
#
# Convention : Reuss Voigt Hill
#
# Bulk Modulus (GPa) = 41.25276 63.85470 52.55373
# Shear Modulus (GPa) = 13.87832 19.34696 16.61264
#
# Velocity S-wave (km/s) = 2.71727 3.20827 2.97293
# Velocity P-wave (km/s) = 5.63845 6.90624 6.30430
#
# Compressibility (1/GPa) = 0.02424080
#
# Stress axis : x y z
#
# Youngs Moduli (GPa) = 53.21513 32.25393 65.08630
#
# Poissons Ratio (x) = -0.01599 0.46468
# Poissons Ratio (y) = -0.02638 0.89922
# Poissons Ratio (z) = 0.37993 0.44561
#
# Static dielectric constant tensor:
#      x y z
#    x 1.707490 0.000000 0.000000 
#    y 0.000000 1.643670 0.000000 
#    z 0.000000 0.000000 1.707390 
# 
# From -- ./inp_files/32486.got.cif
#   From: 2010.05.17/outbox.cif.g08.bks.cpg/sg22_17_cif.got.tgz:32486.got - 2010.06.03 23:40:54.
