data_PCOD9327231
_publ_section_title
;
Structure prediction by ZEFSAII (Michael W. Deem and Ramdas Pophale) SiO2 
 PCOD9327231
Probable space group: F 2 2 2
;
_chemical_formula_sum "Si O2"
_cell_formula_units_Z 96
_cell_length_a 13.445871
_cell_length_b 27.759098
_cell_length_c 14.156767
_cell_angle_alpha 90.000000
_cell_angle_beta 90.000000
_cell_angle_gamma 90.000000
_cell_volume 5283.946049
_symmetry_space_group_name_H-M "F 2 2 2"
_symmetry_group_IT_number 22
_symmetry_cell_setting 'orthorhombic'
loop_
_space_group_symop_operation_xyz
x,y,z
-x,-y,z
x,-y,-z
-x,y,-z
x,1/2+y,1/2+z
-x,1/2-y,1/2+z
x,1/2-y,1/2-z
-x,1/2+y,1/2-z
1/2+x,y,1/2+z
1/2-x,-y,1/2+z
1/2+x,-y,1/2-z
1/2-x,y,1/2-z
1/2+x,1/2+y,z
1/2-x,1/2-y,z
1/2+x,1/2-y,-z
1/2-x,1/2+y,-z
loop_
_atom_site_type_symbol
_atom_site_label
_atom_site_fract_x
_atom_site_fract_y
_atom_site_fract_z
Si Si1 0.471918 0.919027 0.899244
Si Si2 0.454597 0.250000 0.250000
Si Si3 0.167400 0.661141 0.829544
Si Si4 0.721830 0.173842 0.047190
Si Si5 0.083925 0.763221 0.079447
Si Si6 0.163448 0.000000 0.500000
Si Si7 0.695603 0.572460 0.650299
O O1 0.409299 0.882954 0.835833
O O2 0.574902 0.932504 0.848547
O O3 0.500000 0.893713 0.000000
O O4 0.405517 0.963675 0.937626
O O5 0.387729 0.289188 0.303256
O O6 0.526938 0.225136 0.324645
O O7 0.250000 0.652861 0.750000
O O8 0.210404 0.665228 0.935253
O O9 0.826370 0.200314 0.062344
O O10 0.634863 0.210410 0.080190
O O11 0.716566 0.124805 0.105979
O O12 0.000000 0.764553 0.000000
O O13 0.225118 0.967659 0.427211
O O14 0.750000 0.566716 0.750000
#
# Coordination Sequence:
#
# PCOD9327231 Si02
#       7
#    16   8  16  16  16   8  16
#     4  10  20  41  68  92 123 162 210 265 322 379
#     4  12  25  37  62  90 126 172 219 255 316 378
#     4  12  24  39  62  93 126 169 219 261 315 386
#     4  11  24  41  61  90 127 172 210 265 323 369
#     4  11  24  40  61  85 130 168 214 266 313 369
#     4  10  21  44  70 100 121 162 215 268 328 392
#     4  11  23  39  69  97 129 160 216 263 321 392
#
# _framework density 18.168240999999998
#
# number of rings (size 3 to 8) (size 9 to 14) (size 15 to 20)
#    0.000    1.000    5.000    4.500    7.000    1.333 
#    0.000    0.000    0.000    0.000    0.000    0.000 
#    0.000    0.000    0.000    0.000    0.000    0.000 
#
# Total GULP energy -134033.703352 kJ/mol
# GULP energy per Si atom -5584.737640 kJ/mol
# Density = 1.812689 g / cm^3
# Si number density = 18.168241 Si / 1000 Ang^3
#
#
#
# Elastic Constant Matrix: (Units=GPa)
#
#
# Indices 1 2 3 4 5 6 
#
# 1 74.5738 28.5348 45.3875 0.0000 0.0000 0.0000
# 2 28.5348 111.7688 42.1468 0.0000 0.0000 0.0000
# 3 45.3875 42.1468 117.7162 0.0000 0.0000 0.0000
# 4 0.0000 0.0000 0.0000 29.3988 0.0000 0.0000
# 5 0.0000 0.0000 0.0000 0.0000 43.0872 0.0000
# 6 0.0000 0.0000 0.0000 0.0000 0.0000 23.3517
#
#
#
# Elastic Compliance Matrix: (Units=1/GPa)
#
#
# Indices 1 2 3 4 5 6 
#
# 1 0.018014 -0.002289 -0.006126 0.000000 0.000000 0.000000
# 2 -0.002289 0.010634 -0.002925 0.000000 0.000000 0.000000
# 3 -0.006126 -0.002925 0.011904 0.000000 0.000000 0.000000
# 4 0.000000 0.000000 0.000000 0.034015 0.000000 0.000000
# 5 0.000000 0.000000 0.000000 0.000000 0.023209 0.000000
# 6 0.000000 0.000000 0.000000 0.000000 0.000000 0.042823
#
#
# Mechanical properties :
#
#
# Convention : Reuss Voigt Hill
#
# Bulk Modulus (GPa) = 55.95148 59.57747 57.76448
# Shear Modulus (GPa) = 29.54438 31.70020 30.62229
#
# Velocity S-wave (km/s) = 4.03694 4.18163 4.10992
# Velocity P-wave (km/s) = 7.25206 7.49520 7.37463
#
# Compressibility (1/GPa) = 0.01787263
#
# Stress axis : x y z
#
# Youngs Moduli (GPa) = 55.51295 94.03456 84.00358
#
# Poissons Ratio (x) = 0.21524 0.51461
# Poissons Ratio (y) = 0.12706 0.24571
# Poissons Ratio (z) = 0.34007 0.27505
#
# Static dielectric constant tensor:
#      x y z
#    x 1.628310 0.000000 0.000000 
#    y 0.000000 1.641510 0.000000 
#    z 0.000000 0.000000 1.577840 
# 
# From -- ./inp_files/20251.got.cif
#   From: 2010.05.17/outbox.cif.g08.bks.cpg/sg22_11_cif.got.tgz:20251.got - 2010.06.03 23:40:54.
