data_PCOD9327814
_publ_section_title
;
Structure prediction by ZEFSAII (Michael W. Deem and Ramdas Pophale) SiO2 
 PCOD9327814
Probable space group: F 2 2 2
;
_chemical_formula_sum "Si O2"
_cell_formula_units_Z 104
_cell_length_a 9.023922
_cell_length_b 19.830291
_cell_length_c 26.222004
_cell_angle_alpha 90.000000
_cell_angle_beta 90.000000
_cell_angle_gamma 90.000000
_cell_volume 4692.348929
_symmetry_space_group_name_H-M "F 2 2 2"
_symmetry_group_IT_number 22
_symmetry_cell_setting 'orthorhombic'
loop_
_space_group_symop_operation_xyz
x,y,z
-x,-y,z
x,-y,-z
-x,y,-z
x,1/2+y,1/2+z
-x,1/2-y,1/2+z
x,1/2-y,1/2-z
-x,1/2+y,1/2-z
1/2+x,y,1/2+z
1/2-x,-y,1/2+z
1/2+x,-y,1/2-z
1/2-x,y,1/2-z
1/2+x,1/2+y,z
1/2-x,1/2-y,z
1/2+x,1/2-y,-z
1/2-x,1/2+y,-z
loop_
_atom_site_type_symbol
_atom_site_label
_atom_site_fract_x
_atom_site_fract_y
_atom_site_fract_z
Si Si1 0.500000 0.880961 0.000000
Si Si2 0.250000 0.250000 0.403239
Si Si3 0.215132 0.327633 0.645749
Si Si4 0.014704 0.352316 0.440170
Si Si5 0.287962 0.465289 0.106572
Si Si6 0.132677 0.950394 0.205199
Si Si7 0.732213 0.500000 0.500000
Si Si8 0.033211 0.640888 0.887361
O O1 0.504130 0.843007 0.946805
O O2 0.637265 0.932089 0.004106
O O3 0.141721 0.295127 0.437471
O O4 0.144324 0.200481 0.370873
O O5 0.250000 0.250000 0.659694
O O6 0.118943 0.372683 0.685359
O O7 0.377831 0.361590 0.640917
O O8 0.130423 0.328933 0.590914
O O9 0.088312 0.409397 0.404425
O O10 0.000000 0.371567 0.500000
O O11 0.313270 0.510213 0.155012
O O12 0.303979 0.507926 0.054753
O O13 0.129483 0.427598 0.112585
O O14 0.250000 0.949082 0.250000
O O15 0.000000 0.000000 0.222709
#
# Coordination Sequence:
#
# PCOD9327814 Si02
#       8
#     8   8  16  16  16  16   8  16
#     4   9  18  32  50  88 132 186 239 274 332 428
#     4  10  22  38  56  94 147 204 249 280 346 444
#     4  12  26  47  73 106 147 193 249 304 371 445
#     4  11  25  39  64 105 153 202 241 298 361 448
#     4  10  23  44  69 103 144 182 242 298 377 436
#     4  12  29  52  80 109 144 186 252 318 382 443
#     4   9  18  34  63  96 140 179 223 288 358 441
#     4  10  22  36  64  94 139 189 239 291 355 426
#
# _framework density 22.163740000000001
#
# number of rings (size 3 to 8) (size 9 to 14) (size 15 to 20)
#    0.000    1.385    3.077    0.923   12.923    1.538 
#    0.000    0.000    0.000    0.000    0.000    0.000 
#    0.000    0.000    0.000    0.000    0.000    0.000 
#
# Total GULP energy -145151.675215 kJ/mol
# GULP energy per Si atom -5582.756739 kJ/mol
# Density = 2.211329 g / cm^3
# Si number density = 22.163740 Si / 1000 Ang^3
#
#
#
# Elastic Constant Matrix: (Units=GPa)
#
#
# Indices 1 2 3 4 5 6 
#
# 1 95.8690 25.4442 15.6062 0.0000 0.0000 0.0000
# 2 25.4442 104.1467 30.0138 0.0000 0.0000 0.0000
# 3 15.6062 30.0138 91.0683 0.0000 0.0000 0.0000
# 4 0.0000 0.0000 0.0000 12.9497 0.0000 0.0000
# 5 0.0000 0.0000 0.0000 0.0000 32.5290 0.0000
# 6 0.0000 0.0000 0.0000 0.0000 0.0000 34.6980
#
#
#
# Elastic Compliance Matrix: (Units=1/GPa)
#
#
# Indices 1 2 3 4 5 6 
#
# 1 0.011258 -0.002425 -0.001130 0.000000 0.000000 0.000000
# 2 -0.002425 0.011132 -0.003253 0.000000 0.000000 0.000000
# 3 -0.001130 -0.003253 0.012247 0.000000 0.000000 0.000000
# 4 0.000000 0.000000 0.000000 0.077222 0.000000 0.000000
# 5 0.000000 0.000000 0.000000 0.000000 0.030742 0.000000
# 6 0.000000 0.000000 0.000000 0.000000 0.000000 0.028820
#
#
# Mechanical properties :
#
#
# Convention : Reuss Voigt Hill
#
# Bulk Modulus (GPa) = 47.57288 48.13471 47.85380
# Shear Modulus (GPa) = 26.03573 30.70333 28.36953
#
# Velocity S-wave (km/s) = 3.43111 3.72599 3.58159
# Velocity P-wave (km/s) = 6.09980 6.34631 6.22427
#
# Compressibility (1/GPa) = 0.02102038
#
# Stress axis : x y z
#
# Youngs Moduli (GPa) = 88.82218 89.83269 81.65521
#
# Poissons Ratio (x) = 0.21783 0.09228
# Poissons Ratio (y) = 0.21538 0.26564
# Poissons Ratio (z) = 0.10038 0.29225
#
# Static dielectric constant tensor:
#      x y z
#    x 1.895420 0.000000 0.000000 
#    y 0.000000 1.892060 0.000000 
#    z 0.000000 0.000000 1.778830 
# 
# From -- ./inp_files/51997.got.cif
#   From: 2010.05.17/outbox.cif.g08.bks.cpg/sg22_26_cif.got.tgz:51997.got - 2010.06.03 23:40:54.
