data_PCOD9327926
_publ_section_title
;
Structure prediction by ZEFSAII (Michael W. Deem and Ramdas Pophale) SiO2 
 PCOD9327926
Probable space group: F 2 2 2
;
_chemical_formula_sum "Si O2"
_cell_formula_units_Z 104
_cell_length_a 19.788192
_cell_length_b 28.039221
_cell_length_c 9.187969
_cell_angle_alpha 90.000000
_cell_angle_beta 90.000000
_cell_angle_gamma 90.000000
_cell_volume 5097.903150
_symmetry_space_group_name_H-M "F 2 2 2"
_symmetry_group_IT_number 22
_symmetry_cell_setting 'orthorhombic'
loop_
_space_group_symop_operation_xyz
x,y,z
-x,-y,z
x,-y,-z
-x,y,-z
x,1/2+y,1/2+z
-x,1/2-y,1/2+z
x,1/2-y,1/2-z
-x,1/2+y,1/2-z
1/2+x,y,1/2+z
1/2-x,-y,1/2+z
1/2+x,-y,1/2-z
1/2-x,y,1/2-z
1/2+x,1/2+y,z
1/2-x,1/2-y,z
1/2+x,1/2-y,-z
1/2-x,1/2+y,-z
loop_
_atom_site_type_symbol
_atom_site_label
_atom_site_fract_x
_atom_site_fract_y
_atom_site_fract_z
Si Si1 0.123323 0.377996 0.065013
Si Si2 0.034909 0.552727 0.735719
Si Si3 0.750000 0.390465 0.750000
Si Si4 0.461238 0.714438 0.635623
Si Si5 0.661240 0.052466 0.520566
Si Si6 0.460226 0.148191 0.649914
Si Si7 0.672943 0.379001 0.238678
O O1 0.080858 0.422646 0.135060
O O2 0.189221 0.366509 0.162276
O O3 0.081291 0.329286 0.071487
O O4 0.145257 0.387585 0.900357
O O5 0.086936 0.550972 0.597465
O O6 0.000000 0.500000 0.758123
O O7 0.980418 0.594639 0.705020
O O8 0.710231 0.420346 0.870663
O O9 0.500000 0.738044 0.500000
O O10 0.425488 0.750000 0.750000
O O11 0.513781 0.687110 0.738446
O O12 0.668005 0.074725 0.361725
O O13 0.686553 0.000000 0.500000
O O14 0.500000 0.152919 0.500000
O O15 0.379723 0.153699 0.649093
O O16 0.750000 0.362300 0.250000
#
# Coordination Sequence:
#
# PCOD9327926 Si02
#       7
#    16  16   8  16  16  16  16
#     4  10  23  44  68  96 135 177 229 275 345 413
#     4  10  22  40  63  89 130 178 231 285 335 384
#     4  10  22  42  61  90 134 182 222 268 337 410
#     4  11  23  43  71 102 126 160 213 280 342 412
#     4  11  23  37  59  90 128 183 234 286 327 390
#     4  11  22  40  65  93 132 173 219 276 338 399
#     4  12  23  40  66  94 134 184 231 278 345 410
#
# _framework density 20.400544
#
# number of rings (size 3 to 8) (size 9 to 14) (size 15 to 20)
#    0.000    1.231    4.615    1.385    1.077    0.000 
#    0.000    9.615    0.000    0.462    0.000    0.000 
#    0.000    0.000    0.000    0.000    0.000    0.000 
#
# Total GULP energy -144938.665303 kJ/mol
# GULP energy per Si atom -5574.564050 kJ/mol
# Density = 2.035411 g / cm^3
# Si number density = 20.400544 Si / 1000 Ang^3
#
#
#
# Elastic Constant Matrix: (Units=GPa)
#
#
# Indices 1 2 3 4 5 6 
#
# 1 124.4449 14.3715 47.5389 0.0007 0.0001 0.0000
# 2 14.3715 66.4272 38.3447 0.0010 0.0000 0.0000
# 3 47.5389 38.3447 159.5185 0.0017 0.0004 0.0001
# 4 0.0007 0.0010 0.0017 -652.6553 0.0088 0.0000
# 5 0.0001 0.0000 0.0004 0.0088 283.0599 -0.0002
# 6 0.0000 0.0000 0.0001 0.0000 -0.0002 0.4919
#
#
#
# Elastic Compliance Matrix: (Units=1/GPa)
#
#
# Indices 1 2 3 4 5 6 
#
# 1 0.009081 -0.000467 -0.002594 0.000000 0.000000 0.000000
# 2 -0.000467 0.017504 -0.004068 0.000000 0.000000 0.000000
# 3 -0.002594 -0.004068 0.008020 0.000000 0.000000 -0.000001
# 4 0.000000 0.000000 0.000000 -0.001532 0.000000 0.000000
# 5 0.000000 0.000000 0.000000 0.000000 0.003533 0.000001
# 6 0.000000 0.000000 -0.000001 0.000000 0.000001 2.032733
#
#
# Mechanical properties :
#
#
# Convention : Reuss Voigt Hill
#
# Bulk Modulus (GPa) = 49.15168 61.21120 55.18144
# Shear Modulus (GPa) = 2.39191 -57.14501 -27.37655
#
# Velocity S-wave (km/s) = 1.08398 -5.29833 -3.66724
# Velocity P-wave (km/s) = 5.07073 2.71292 3.02922
#
# Compressibility (1/GPa) = 0.02034519
#
# Stress axis : x y z
#
# Youngs Moduli (GPa) = 110.12605 57.13132 124.69203
#
# Poissons Ratio (x) = 0.02670 0.32343
# Poissons Ratio (y) = 0.05146 0.50727
# Poissons Ratio (z) = 0.28564 0.23242
#
# Static dielectric constant tensor:
#      x y z
#    x 2.457900 0.000010 0.000000 
#    y 0.000010 1.242240 0.000000 
#    z 0.000000 0.000000 1.752490 
# 
# From -- ./inp_files/12931.got.cif
#   From: 2010.05.17/outbox.cif.g08.bks.cpg/sg22_7_cif.got.tgz:12931.got - 2010.06.03 23:40:54.
