data_PCOD9327673
_publ_section_title
;
Structure prediction by ZEFSAII (Michael W. Deem and Ramdas Pophale) SiO2 
 PCOD9327673
Probable space group: F 2 2 2
;
_chemical_formula_sum "Si O2"
_cell_formula_units_Z 96
_cell_length_a 14.811932
_cell_length_b 18.979342
_cell_length_c 15.544970
_cell_angle_alpha 90.000000
_cell_angle_beta 90.000000
_cell_angle_gamma 90.000000
_cell_volume 4370.013207
_symmetry_space_group_name_H-M "F 2 2 2"
_symmetry_group_IT_number 22
_symmetry_cell_setting 'orthorhombic'
loop_
_space_group_symop_operation_xyz
x,y,z
-x,-y,z
x,-y,-z
-x,y,-z
x,1/2+y,1/2+z
-x,1/2-y,1/2+z
x,1/2-y,1/2-z
-x,1/2+y,1/2-z
1/2+x,y,1/2+z
1/2-x,-y,1/2+z
1/2+x,-y,1/2-z
1/2-x,y,1/2-z
1/2+x,1/2+y,z
1/2-x,1/2-y,z
1/2+x,1/2-y,-z
1/2-x,1/2+y,-z
loop_
_atom_site_type_symbol
_atom_site_label
_atom_site_fract_x
_atom_site_fract_y
_atom_site_fract_z
Si Si1 0.328715 0.150836 0.864134
Si Si2 0.144738 0.606053 0.318745
Si Si3 0.011568 0.299751 0.101470
Si Si4 0.959467 0.148547 0.901375
Si Si5 0.706228 0.450309 0.844895
Si Si6 0.378253 0.426089 0.460258
O O1 0.221330 0.161878 0.852167
O O2 0.346954 0.099435 0.784038
O O3 0.412907 0.204138 0.854913
O O4 0.348286 0.119516 0.957250
O O5 0.169697 0.529729 0.354084
O O6 0.045254 0.627027 0.344585
O O7 0.065690 0.229374 0.124195
O O8 0.056725 0.377668 0.100528
O O9 0.000000 0.289410 0.000000
O O10 0.874541 0.100518 0.876330
O O11 0.000000 0.141795 0.000000
O O12 0.750000 0.438157 0.750000
O O13 0.789543 0.441994 0.907849
O O14 0.411096 0.500000 0.500000
#
# Coordination Sequence:
#
# PCOD9327673 Si02
#       6
#    16  16  16  16  16  16
#     4  10  21  41  68  98 130 175 228 290 343 410
#     4  11  22  43  67 100 137 172 238 294 346 416
#     4   9  23  43  65 105 134 179 233 281 354 436
#     4  11  26  45  70  98 143 187 229 287 366 448
#     4  12  25  44  67 106 141 182 238 301 357 426
#     4  11  21  42  72  97 136 177 233 285 354 422
#
# _framework density 21.967897000000001
#
# number of rings (size 3 to 8) (size 9 to 14) (size 15 to 20)
#    0.000    1.333    3.333    1.500    2.333    5.667 
#    3.000    7.500    0.000    0.000    0.000    0.000 
#    0.000    0.000    0.000    0.000    0.000    0.000 
#
# Total GULP energy -133725.263907 kJ/mol
# GULP energy per Si atom -5571.885996 kJ/mol
# Density = 2.191790 g / cm^3
# Si number density = 21.967897 Si / 1000 Ang^3
#
#
#
# Elastic Constant Matrix: (Units=GPa)
#
#
# Indices 1 2 3 4 5 6 
#
# 1 165.3965 78.4989 33.5287 0.0000 0.0000 0.0000
# 2 78.4989 94.2552 16.3893 0.0000 0.0000 0.0000
# 3 33.5287 16.3893 68.9649 0.0000 0.0000 0.0000
# 4 0.0000 0.0000 0.0000 2.1908 0.0000 0.0000
# 5 0.0000 0.0000 0.0000 0.0000 23.3005 0.0000
# 6 0.0000 0.0000 0.0000 0.0000 0.0000 36.3699
#
#
#
# Elastic Compliance Matrix: (Units=1/GPa)
#
#
# Indices 1 2 3 4 5 6 
#
# 1 0.010633 -0.008300 -0.003197 0.000000 0.000000 0.000000
# 2 -0.008300 0.017545 -0.000134 0.000000 0.000000 0.000000
# 3 -0.003197 -0.000134 0.016086 0.000000 0.000000 0.000000
# 4 0.000000 0.000000 0.000000 0.456463 0.000000 0.000000
# 5 0.000000 0.000000 0.000000 0.000000 0.042918 0.000000
# 6 0.000000 0.000000 0.000000 0.000000 0.000000 0.027495
#
#
# Mechanical properties :
#
#
# Convention : Reuss Voigt Hill
#
# Bulk Modulus (GPa) = 47.61424 65.05004 56.33214
# Shear Modulus (GPa) = 8.31386 25.71886 17.01636
#
# Velocity S-wave (km/s) = 1.94750 3.42533 2.78619
# Velocity P-wave (km/s) = 5.17480 6.73198 6.00409
#
# Compressibility (1/GPa) = 0.02100212
#
# Stress axis : x y z
#
# Youngs Moduli (GPa) = 94.04272 56.99508 62.16407
#
# Poissons Ratio (x) = 0.47306 0.19875
# Poissons Ratio (y) = 0.78055 0.00836
# Poissons Ratio (z) = 0.30067 0.00766
#
# Static dielectric constant tensor:
#      x y z
#    x 1.885040 0.000000 0.000000 
#    y 0.000000 1.918940 0.000000 
#    z 0.000000 0.000000 1.818870 
# 
# From -- ./inp_files/29338.got.cif
#   From: 2010.05.17/outbox.cif.g08.bks.cpg/sg22_15_cif.got.tgz:29338.got - 2010.06.03 23:40:54.
