data_PCOD9327660
_publ_section_title
;
Structure prediction by ZEFSAII (Michael W. Deem and Ramdas Pophale) SiO2 
 PCOD9327660
Probable space group: F 2 2 2
;
_chemical_formula_sum "Si O2"
_cell_formula_units_Z 72
_cell_length_a 24.325201
_cell_length_b 7.455780
_cell_length_c 18.391980
_cell_angle_alpha 90.000000
_cell_angle_beta 90.000000
_cell_angle_gamma 90.000000
_cell_volume 3335.631053
_symmetry_space_group_name_H-M "F 2 2 2"
_symmetry_group_IT_number 22
_symmetry_cell_setting 'orthorhombic'
loop_
_space_group_symop_operation_xyz
x,y,z
-x,-y,z
x,-y,-z
-x,y,-z
x,1/2+y,1/2+z
-x,1/2-y,1/2+z
x,1/2-y,1/2-z
-x,1/2+y,1/2-z
1/2+x,y,1/2+z
1/2-x,-y,1/2+z
1/2+x,-y,1/2-z
1/2-x,y,1/2-z
1/2+x,1/2+y,z
1/2-x,1/2-y,z
1/2+x,1/2-y,-z
1/2-x,1/2+y,-z
loop_
_atom_site_type_symbol
_atom_site_label
_atom_site_fract_x
_atom_site_fract_y
_atom_site_fract_z
Si Si1 0.174757 0.052867 0.084565
Si Si2 0.159073 0.456771 0.077045
Si Si3 0.750000 0.750000 0.887938
Si Si4 0.061259 0.036632 0.679285
Si Si5 0.938962 0.040306 0.154725
O O1 0.187381 0.263826 0.085823
O O2 0.209126 0.915647 0.136530
O O3 0.110863 0.028266 0.105820
O O4 0.184362 0.000000 0.000000
O O5 0.203205 0.617680 0.080515
O O6 0.112229 0.456700 0.137070
O O7 0.130957 0.500000 0.000000
O O8 0.062822 0.967949 0.762438
O O9 0.068273 0.248839 0.668537
O O10 0.000000 0.000000 0.650929
O O11 0.000000 0.000000 0.125371
#
# Coordination Sequence:
#
# PCOD9327660 Si02
#       5
#    16  16   8  16  16
#     4  12  24  40  66  96 126 169 213 261 313 374
#     4  12  24  40  66  96 126 169 213 261 313 374
#     4  12  24  44  63  94 129 170 212 260 318 366
#     4  10  21  41  66  94 130 167 208 260 319 380
#     4  10  21  41  66  94 130 167 208 260 319 380
#
# _framework density 21.585121999999998
#
# number of rings (size 3 to 8) (size 9 to 14) (size 15 to 20)
#    0.000    0.889    4.444    2.667    0.000    3.556 
#    0.000    6.667    0.000    2.667    0.000    0.000 
#    0.000    0.000    0.000    0.000    0.000    0.000 
#
# Total GULP energy -100226.975407 kJ/mol
# GULP energy per Si atom -5568.165300 kJ/mol
# Density = 2.153599 g / cm^3
# Si number density = 21.585122 Si / 1000 Ang^3
#
#
#
# Elastic Constant Matrix: (Units=GPa)
#
#
# Indices 1 2 3 4 5 6 
#
# 1 127.6934 15.7521 30.6892 0.0000 0.0000 0.0000
# 2 15.7521 159.9056 1.6480 0.0000 0.0000 0.0000
# 3 30.6892 1.6480 19.1886 0.0000 0.0000 0.0000
# 4 0.0000 0.0000 0.0000 13.6210 0.0000 0.0000
# 5 0.0000 0.0000 0.0000 0.0000 -3.5752 0.0000
# 6 0.0000 0.0000 0.0000 0.0000 0.0000 40.4783
#
#
#
# Elastic Compliance Matrix: (Units=1/GPa)
#
#
# Indices 1 2 3 4 5 6 
#
# 1 0.012898 -0.001059 -0.020537 0.000000 0.000000 0.000000
# 2 -0.001059 0.006346 0.001148 0.000000 0.000000 0.000000
# 3 -0.020537 0.001148 0.084861 0.000000 0.000000 0.000000
# 4 0.000000 0.000000 0.000000 0.073416 0.000000 0.000000
# 5 0.000000 0.000000 0.000000 0.000000 -0.279702 0.000000
# 6 0.000000 0.000000 0.000000 0.000000 0.000000 0.024705
#
#
# Mechanical properties :
#
#
# Convention : Reuss Voigt Hill
#
# Bulk Modulus (GPa) = 15.82019 44.77404 30.29711
# Shear Modulus (GPa) = -322.33334 27.35137 -147.49098
#
# Velocity S-wave (km/s) = -12.23337 3.56355 -8.27516
# Velocity P-wave (km/s) = 13.86346 6.14165 8.78850
#
# Compressibility (1/GPa) = 0.06321038
#
# Stress axis : x y z
#
# Youngs Moduli (GPa) = 77.53390 157.57556 11.78398
#
# Poissons Ratio (x) = 0.16685 0.24200
# Poissons Ratio (y) = 0.08210 -0.01353
# Poissons Ratio (z) = 1.59229 -0.18097
#
# Static dielectric constant tensor:
#      x y z
#    x 1.789210 0.000000 0.000000 
#    y 0.000000 1.831160 0.000000 
#    z 0.000000 0.000000 1.798750 
# 
# From -- ./inp_files/39345.got.cif
#   From: 2010.05.17/outbox.cif.g08.bks.cpg/sg22_20_cif.got.tgz:39345.got - 2010.06.03 23:40:54.
