data_PCOD9327274
_publ_section_title
;
Structure prediction by ZEFSAII (Michael W. Deem and Ramdas Pophale) SiO2 
 PCOD9327274
Probable space group: F 2 2 2
;
_chemical_formula_sum "Si O2"
_cell_formula_units_Z 88
_cell_length_a 11.638109
_cell_length_b 11.405506
_cell_length_c 28.210340
_cell_angle_alpha 90.000000
_cell_angle_beta 90.000000
_cell_angle_gamma 90.000000
_cell_volume 3744.598838
_symmetry_space_group_name_H-M "F 2 2 2"
_symmetry_group_IT_number 22
_symmetry_cell_setting 'orthorhombic'
loop_
_space_group_symop_operation_xyz
x,y,z
-x,-y,z
x,-y,-z
-x,y,-z
x,1/2+y,1/2+z
-x,1/2-y,1/2+z
x,1/2-y,1/2-z
-x,1/2+y,1/2-z
1/2+x,y,1/2+z
1/2-x,-y,1/2+z
1/2+x,-y,1/2-z
1/2-x,y,1/2-z
1/2+x,1/2+y,z
1/2-x,1/2-y,z
1/2+x,1/2-y,-z
1/2-x,1/2+y,-z
loop_
_atom_site_type_symbol
_atom_site_label
_atom_site_fract_x
_atom_site_fract_y
_atom_site_fract_z
Si Si1 0.203295 0.557766 0.950340
Si Si2 0.975873 0.794079 0.845533
Si Si3 0.435648 0.797713 0.550614
Si Si4 0.500000 0.500000 0.219024
Si Si5 0.652758 0.361307 0.710234
Si Si6 0.870794 0.945515 0.640414
O O1 0.186628 0.539426 0.089779
O O2 0.175958 0.500000 0.000000
O O3 0.330597 0.611139 0.950468
O O4 0.118318 0.667742 0.942615
O O5 0.993337 0.819451 0.901251
O O6 0.097075 0.742160 0.822397
O O7 0.887731 0.685972 0.842171
O O8 0.939242 0.909042 0.816901
O O9 0.500000 0.803007 0.500000
O O10 0.552508 0.590393 0.256676
O O11 0.750000 0.351108 0.750000
O O12 0.691062 0.464683 0.675438
O O13 0.000000 0.000000 0.636626
#
# Coordination Sequence:
#
# PCOD9327274 Si02
#       6
#    16  16  16   8  16  16
#     4  11  24  41  73 105 138 185 255 299 373 446
#     4  11  24  46  73 101 150 193 241 302 368 437
#     4  11  25  45  70 107 148 191 239 309 378 443
#     4  12  26  42  67 108 145 192 234 304 370 426
#     4  11  24  44  73 104 140 189 250 298 358 433
#     4  10  20  44  70 101 137 187 246 305 353 432
#
# _framework density 23.500515
#
# number of rings (size 3 to 8) (size 9 to 14) (size 15 to 20)
#    0.000    1.091    6.364    1.636    2.545    3.273 
#    0.000    1.818    0.000    0.000    0.000    0.000 
#    0.000    0.000    0.000    0.000    0.000    0.000 
#
# Total GULP energy -122889.931037 kJ/mol
# GULP energy per Si atom -5585.905956 kJ/mol
# Density = 2.344703 g / cm^3
# Si number density = 23.500515 Si / 1000 Ang^3
#
#
#
# Elastic Constant Matrix: (Units=GPa)
#
#
# Indices 1 2 3 4 5 6 
#
# 1 42.6323 1.3195 18.5909 0.0000 0.0000 0.0000
# 2 1.3195 84.2162 35.2232 0.0000 0.0000 0.0000
# 3 18.5909 35.2232 183.1419 0.0000 0.0000 0.0000
# 4 0.0000 0.0000 0.0000 22.0192 0.0000 0.0000
# 5 0.0000 0.0000 0.0000 0.0000 -11.5356 0.0000
# 6 0.0000 0.0000 0.0000 0.0000 0.0000 11.0896
#
#
#
# Elastic Compliance Matrix: (Units=1/GPa)
#
#
# Indices 1 2 3 4 5 6 
#
# 1 0.024582 0.000716 -0.002633 0.000000 0.000000 0.000000
# 2 0.000716 0.012934 -0.002560 0.000000 0.000000 0.000000
# 3 -0.002633 -0.002560 0.006220 0.000000 0.000000 0.000000
# 4 0.000000 0.000000 0.000000 0.045415 0.000000 0.000000
# 5 0.000000 0.000000 0.000000 0.000000 -0.086688 0.000000
# 6 0.000000 0.000000 0.000000 0.000000 0.000000 0.090174
#
#
# Mechanical properties :
#
#
# Convention : Reuss Voigt Hill
#
# Bulk Modulus (GPa) = 28.75067 46.69530 37.72298
# Shear Modulus (GPa) = 44.17521 21.30510 32.74016
#
# Velocity S-wave (km/s) = 4.34032 3.01421 3.73657
# Velocity P-wave (km/s) = 6.11379 5.65924 5.89090
#
# Compressibility (1/GPa) = 0.03478180
#
# Stress axis : x y z
#
# Youngs Moduli (GPa) = 40.67938 77.31689 160.77332
#
# Poissons Ratio (x) = -0.05537 0.42334
# Poissons Ratio (y) = -0.02913 0.41162
# Poissons Ratio (z) = 0.10711 0.19795
#
# Static dielectric constant tensor:
#      x y z
#    x 1.637110 0.000000 0.000000 
#    y 0.000000 2.181050 0.000000 
#    z 0.000000 0.000000 1.918480 
# 
# From -- ./inp_files/48808.got.cif
#   From: 2010.05.17/outbox.cif.g08.bks.cpg/sg22_25_cif.got.tgz:48808.got - 2010.06.03 23:40:54.
