data_PCOD9327474
_publ_section_title
;
Structure prediction by ZEFSAII (Michael W. Deem and Ramdas Pophale) SiO2 
 PCOD9327474
Probable space group: F 2 2 2
;
_chemical_formula_sum "Si O2"
_cell_formula_units_Z 100
_cell_length_a 14.577160
_cell_length_b 14.946928
_cell_length_c 21.783876
_cell_angle_alpha 90.000000
_cell_angle_beta 90.000000
_cell_angle_gamma 90.000000
_cell_volume 4746.352831
_symmetry_space_group_name_H-M "F 2 2 2"
_symmetry_group_IT_number 22
_symmetry_cell_setting 'orthorhombic'
loop_
_space_group_symop_operation_xyz
x,y,z
-x,-y,z
x,-y,-z
-x,y,-z
x,1/2+y,1/2+z
-x,1/2-y,1/2+z
x,1/2-y,1/2-z
-x,1/2+y,1/2-z
1/2+x,y,1/2+z
1/2-x,-y,1/2+z
1/2+x,-y,1/2-z
1/2-x,y,1/2-z
1/2+x,1/2+y,z
1/2-x,1/2-y,z
1/2+x,1/2-y,-z
1/2-x,1/2+y,-z
loop_
_atom_site_type_symbol
_atom_site_label
_atom_site_fract_x
_atom_site_fract_y
_atom_site_fract_z
Si Si1 0.500000 0.000000 0.694518
Si Si2 0.822107 0.900365 0.199144
Si Si3 0.750000 0.250000 0.250000
Si Si4 0.625225 0.340994 0.144147
Si Si5 0.278831 0.542911 0.387027
Si Si6 0.869791 0.113788 0.545871
Si Si7 0.750000 0.250000 0.619900
Si Si8 0.566275 0.153990 0.092247
O O1 0.417027 0.941989 0.724057
O O2 0.554114 0.921194 0.658093
O O3 0.750000 0.874765 0.250000
O O4 0.822324 0.811482 0.157646
O O5 0.771708 0.979116 0.161178
O O6 0.683586 0.308318 0.204528
O O7 0.702798 0.381796 0.098612
O O8 0.574634 0.255480 0.115136
O O9 0.317422 0.477863 0.439095
O O10 0.368384 0.595613 0.363640
O O11 0.807588 0.186673 0.577057
O O12 0.891301 0.141466 0.476196
O O13 0.965391 0.115026 0.583476
#
# Coordination Sequence:
#
# PCOD9327474 Si02
#       8
#     8  16   4  16  16  16   8  16
#     4  10  24  42  66  93 132 168 217 278 322 398
#     4  10  22  42  62  89 128 167 216 263 328 390
#     4  12  24  46  64 104 132 186 228 284 330 412
#     4  11  24  43  70  95 136 174 229 271 341 401
#     4  10  21  38  62  94 126 169 209 276 319 398
#     4  10  23  38  66  91 132 165 221 272 340 392
#     4  10  21  41  60  88 125 167 212 266 322 404
#     4  11  21  41  64  98 127 170 218 280 330 405
#
# _framework density 21.068809000000002
#
# number of rings (size 3 to 8) (size 9 to 14) (size 15 to 20)
#    0.000    1.600    1.600    2.160    6.720    1.280 
#   14.400    0.000    0.000    0.960    0.000    0.000 
#    0.000    0.000    0.000    0.000    0.000    0.000 
#
# Total GULP energy -139310.110059 kJ/mol
# GULP energy per Si atom -5572.404402 kJ/mol
# Density = 2.102086 g / cm^3
# Si number density = 21.068809 Si / 1000 Ang^3
#
#
#
# Elastic Constant Matrix: (Units=GPa)
#
#
# Indices 1 2 3 4 5 6 
#
# 1 113.9513 36.5453 29.0287 0.0000 0.0000 0.0000
# 2 36.5453 122.5037 24.1334 0.0000 0.0000 0.0000
# 3 29.0287 24.1334 35.1795 0.0000 0.0000 0.0000
# 4 0.0000 0.0000 0.0000 10.5110 0.0000 0.0000
# 5 0.0000 0.0000 0.0000 0.0000 6.9504 0.0000
# 6 0.0000 0.0000 0.0000 0.0000 0.0000 37.0289
#
#
#
# Elastic Compliance Matrix: (Units=1/GPa)
#
#
# Indices 1 2 3 4 5 6 
#
# 1 0.011443 -0.001796 -0.008210 0.000000 0.000000 0.000000
# 2 -0.001796 0.009721 -0.005186 0.000000 0.000000 0.000000
# 3 -0.008210 -0.005186 0.038758 0.000000 0.000000 0.000000
# 4 0.000000 0.000000 0.000000 0.095139 0.000000 0.000000
# 5 0.000000 0.000000 0.000000 0.000000 0.143876 0.000000
# 6 0.000000 0.000000 0.000000 0.000000 0.000000 0.027006
#
#
# Mechanical properties :
#
#
# Convention : Reuss Voigt Hill
#
# Bulk Modulus (GPa) = 33.85628 50.11657 41.98643
# Shear Modulus (GPa) = 13.65473 23.02654 18.34063
#
# Velocity S-wave (km/s) = 2.54855 3.30952 2.95364
# Velocity P-wave (km/s) = 4.97638 6.20021 5.62170
#
# Compressibility (1/GPa) = 0.02953661
#
# Stress axis : x y z
#
# Youngs Moduli (GPa) = 87.38723 102.87457 25.80100
#
# Poissons Ratio (x) = 0.18480 0.21183
# Poissons Ratio (y) = 0.15698 0.13381
# Poissons Ratio (z) = 0.71747 0.53352
#
# Static dielectric constant tensor:
#      x y z
#    x 1.800770 0.000000 0.000000 
#    y 0.000000 1.865270 0.000000 
#    z 0.000000 0.000000 1.808380 
# 
# From -- ./inp_files/48928.got.cif
#   From: 2010.05.17/outbox.cif.g08.bks.cpg/sg22_25_cif.got.tgz:48928.got - 2010.06.03 23:40:54.
