data_PCOD9327138
_publ_section_title
;
Structure prediction by ZEFSAII (Michael W. Deem and Ramdas Pophale) SiO2 
 PCOD9327138
Probable space group: F 2 2 2
;
_chemical_formula_sum "Si O2"
_cell_formula_units_Z 120
_cell_length_a 19.804461
_cell_length_b 14.099384
_cell_length_c 19.870350
_cell_angle_alpha 90.000000
_cell_angle_beta 90.000000
_cell_angle_gamma 90.000000
_cell_volume 5548.411751
_symmetry_space_group_name_H-M "F 2 2 2"
_symmetry_group_IT_number 22
_symmetry_cell_setting 'orthorhombic'
loop_
_space_group_symop_operation_xyz
x,y,z
-x,-y,z
x,-y,-z
-x,y,-z
x,1/2+y,1/2+z
-x,1/2-y,1/2+z
x,1/2-y,1/2-z
-x,1/2+y,1/2-z
1/2+x,y,1/2+z
1/2-x,-y,1/2+z
1/2+x,-y,1/2-z
1/2-x,y,1/2-z
1/2+x,1/2+y,z
1/2-x,1/2-y,z
1/2+x,1/2-y,-z
1/2-x,1/2+y,-z
loop_
_atom_site_type_symbol
_atom_site_label
_atom_site_fract_x
_atom_site_fract_y
_atom_site_fract_z
Si Si1 0.665444 0.175435 0.924222
Si Si2 0.052103 0.299914 0.817114
Si Si3 0.422574 0.965857 0.407056
Si Si4 0.426133 0.734008 0.034335
Si Si5 0.200367 0.111222 0.111057
Si Si6 0.903372 0.170098 0.706167
Si Si7 0.398350 0.967699 0.255011
Si Si8 0.750000 0.481079 0.750000
O O1 0.733876 0.117578 0.937226
O O2 0.677641 0.279752 0.891183
O O3 0.627189 0.127549 0.862022
O O4 0.622857 0.202433 0.989021
O O5 0.081888 0.250000 0.750000
O O6 0.077049 0.272176 0.889829
O O7 0.062686 0.410195 0.801449
O O8 0.972294 0.279864 0.816532
O O9 0.408987 0.877654 0.456591
O O10 0.418929 0.932213 0.329031
O O11 0.500000 0.000000 0.418421
O O12 0.362052 0.043443 0.408496
O O13 0.500000 0.739527 0.000000
O O14 0.230439 0.080032 0.183776
O O15 0.865382 0.250000 0.750000
O O16 0.914555 0.079417 0.753295
O O17 0.318286 0.959054 0.240985
#
# Coordination Sequence:
#
# PCOD9327138 Si02
#       8
#    16  16  16  16  16  16  16   8
#     4  11  23  40  64 100 142 185 225 285 364 439
#     4  11  23  42  68  99 136 179 237 300 353 425
#     4  11  23  41  71 106 138 180 245 314 363 423
#     4  12  25  44  68 103 145 189 242 297 375 436
#     4  10  23  41  66 100 138 182 231 290 371 423
#     4  11  21  37  69 102 137 174 230 294 351 423
#     4  11  22  40  68 104 133 179 234 299 361 420
#     4  10  20  39  67  96 132 170 232 292 340 434
#
# _framework density 21.627811000000001
#
# number of rings (size 3 to 8) (size 9 to 14) (size 15 to 20)
#    0.000    1.067    4.000    3.600    1.867    2.400 
#    0.000    7.667    0.000    0.000    0.000    0.000 
#    0.000    0.000    0.000    0.000    0.000    0.000 
#
# Total GULP energy -167365.155345 kJ/mol
# GULP energy per Si atom -5578.838512 kJ/mol
# Density = 2.157858 g / cm^3
# Si number density = 21.627811 Si / 1000 Ang^3
#
#
#
# Elastic Constant Matrix: (Units=GPa)
#
#
# Indices 1 2 3 4 5 6 
#
# 1 125.2270 25.5432 50.2356 0.0000 0.0000 0.0000
# 2 25.5432 70.6455 30.4291 0.0000 0.0000 0.0000
# 3 50.2356 30.4291 145.4239 0.0000 0.0000 0.0000
# 4 0.0000 0.0000 0.0000 30.6617 0.0000 0.0000
# 5 0.0000 0.0000 0.0000 0.0000 26.2882 0.0000
# 6 0.0000 0.0000 0.0000 0.0000 0.0000 31.4177
#
#
#
# Elastic Compliance Matrix: (Units=1/GPa)
#
#
# Indices 1 2 3 4 5 6 
#
# 1 0.009582 -0.002241 -0.002841 0.000000 0.000000 0.000000
# 2 -0.002241 0.016081 -0.002591 0.000000 0.000000 0.000000
# 3 -0.002841 -0.002591 0.008400 0.000000 0.000000 0.000000
# 4 0.000000 0.000000 0.000000 0.032614 0.000000 0.000000
# 5 0.000000 0.000000 0.000000 0.000000 0.038040 0.000000
# 6 0.000000 0.000000 0.000000 0.000000 0.000000 0.031829
#
#
# Mechanical properties :
#
#
# Convention : Reuss Voigt Hill
#
# Bulk Modulus (GPa) = 53.42495 61.52356 57.47426
# Shear Modulus (GPa) = 31.61913 33.34608 32.48260
#
# Velocity S-wave (km/s) = 3.82771 3.93085 3.87963
# Velocity P-wave (km/s) = 6.65513 7.00788 6.83378
#
# Compressibility (1/GPa) = 0.01871785
#
# Stress axis : x y z
#
# Youngs Moduli (GPa) = 104.35828 62.18381 119.04676
#
# Poissons Ratio (x) = 0.13935 0.33824
# Poissons Ratio (y) = 0.23385 0.30843
# Poissons Ratio (z) = 0.29651 0.16111
#
# Static dielectric constant tensor:
#      x y z
#    x 1.885330 0.000000 0.000000 
#    y 0.000000 1.830770 0.000000 
#    z 0.000000 0.000000 1.845060 
# 
# From -- ./inp_files/44921.got.cif
#   From: 2010.05.17/outbox.cif.g08.bks.cpg/sg22_23_cif.got.tgz:44921.got - 2010.06.03 23:40:54.
