data_PCOD9327199
_publ_section_title
;
Structure prediction by ZEFSAII (Michael W. Deem and Ramdas Pophale) SiO2 
 PCOD9327199
Probable space group: F 2 2 2
;
_chemical_formula_sum "Si O2"
_cell_formula_units_Z 80
_cell_length_a 12.137465
_cell_length_b 13.655836
_cell_length_c 22.875113
_cell_angle_alpha 90.000000
_cell_angle_beta 90.000000
_cell_angle_gamma 90.000000
_cell_volume 3791.486650
_symmetry_space_group_name_H-M "F 2 2 2"
_symmetry_group_IT_number 22
_symmetry_cell_setting 'orthorhombic'
loop_
_space_group_symop_operation_xyz
x,y,z
-x,-y,z
x,-y,-z
-x,y,-z
x,1/2+y,1/2+z
-x,1/2-y,1/2+z
x,1/2-y,1/2-z
-x,1/2+y,1/2-z
1/2+x,y,1/2+z
1/2-x,-y,1/2+z
1/2+x,-y,1/2-z
1/2-x,y,1/2-z
1/2+x,1/2+y,z
1/2-x,1/2-y,z
1/2+x,1/2-y,-z
1/2-x,1/2+y,-z
loop_
_atom_site_type_symbol
_atom_site_label
_atom_site_fract_x
_atom_site_fract_y
_atom_site_fract_z
Si Si1 0.975611 0.328184 0.101241
Si Si2 0.348689 0.520620 0.624103
Si Si3 0.965403 0.192739 0.803230
Si Si4 0.000000 0.319946 0.500000
Si Si5 0.500000 0.000000 0.234355
Si Si6 0.108562 0.066856 0.095169
O O1 0.901692 0.424024 0.096027
O O2 0.097627 0.378003 0.100552
O O3 0.958919 0.271972 0.163026
O O4 0.956379 0.250123 0.050889
O O5 0.395519 0.516513 0.690958
O O6 0.221175 0.514181 0.609848
O O7 0.908994 0.250000 0.750000
O O8 0.893484 0.152704 0.856388
O O9 0.016883 0.095742 0.774081
O O10 0.907620 0.386369 0.531184
O O11 0.000000 0.000000 0.102747
#
# Coordination Sequence:
#
# PCOD9327199 Si02
#       6
#    16  16  16   8   8  16
#     4   9  21  43  70 101 132 177 231 287 340 402
#     4  10  21  41  70 100 134 172 233 280 337 408
#     4  11  19  40  69  98 142 176 222 274 339 410
#     4  10  23  45  66  96 134 174 232 284 340 410
#     4  10  20  40  68 106 138 174 220 288 336 396
#     4  11  25  45  63  94 140 184 223 281 345 403
#
# _framework density 21.099902
#
# number of rings (size 3 to 8) (size 9 to 14) (size 15 to 20)
#    0.000    2.000    5.000    0.300    0.000    5.600 
#   14.400    3.000    4.400    0.000    0.000    0.000 
#    0.000    0.000    0.000    0.000    0.000    0.000 
#
# Total GULP energy -111419.865821 kJ/mol
# GULP energy per Si atom -5570.993291 kJ/mol
# Density = 2.105188 g / cm^3
# Si number density = 21.099902 Si / 1000 Ang^3
#
#
#
# Elastic Constant Matrix: (Units=GPa)
#
#
# Indices 1 2 3 4 5 6 
#
# 1 117.9919 43.5310 34.6376 0.0000 0.0000 0.0000
# 2 43.5310 110.1025 32.3827 0.0000 0.0000 0.0000
# 3 34.6376 32.3827 111.4058 0.0000 0.0000 0.0000
# 4 0.0000 0.0000 0.0000 51.2968 0.0000 0.0000
# 5 0.0000 0.0000 0.0000 0.0000 -0.1888 0.0000
# 6 0.0000 0.0000 0.0000 0.0000 0.0000 10.6019
#
#
#
# Elastic Compliance Matrix: (Units=1/GPa)
#
#
# Indices 1 2 3 4 5 6 
#
# 1 0.010406 -0.003458 -0.002230 0.000000 0.000000 0.000000
# 2 -0.003458 0.011081 -0.002146 0.000000 0.000000 0.000000
# 3 -0.002230 -0.002146 0.010293 0.000000 0.000000 0.000000
# 4 0.000000 0.000000 0.000000 0.019494 0.000000 0.000000
# 5 0.000000 0.000000 0.000000 0.000000 -5.297478 0.000000
# 6 0.000000 0.000000 0.000000 0.000000 0.000000 0.094323
#
#
# Mechanical properties :
#
#
# Convention : Reuss Voigt Hill
#
# Bulk Modulus (GPa) = 62.06627 62.28923 62.17775
# Shear Modulus (GPa) = -0.97450 27.60523 13.31536
#
# Velocity S-wave (km/s) = -0.68033 3.62098 2.51482
# Velocity P-wave (km/s) = 5.37235 6.86055 6.16155
#
# Compressibility (1/GPa) = 0.01611181
#
# Stress axis : x y z
#
# Youngs Moduli (GPa) = 96.10170 90.24642 97.15110
#
# Poissons Ratio (x) = 0.31209 0.21665
# Poissons Ratio (y) = 0.33234 0.20846
# Poissons Ratio (z) = 0.21431 0.19364
#
# Static dielectric constant tensor:
#      x y z
#    x 1.778950 0.000000 0.000000 
#    y 0.000000 1.821820 0.000000 
#    z 0.000000 0.000000 1.805500 
# 
# From -- ./inp_files/47985.got.cif
#   From: 2010.05.17/outbox.cif.g08.bks.cpg/sg22_24_cif.got.tgz:47985.got - 2010.06.03 23:40:54.
