data_PCOD9327848
_publ_section_title
;
Structure prediction by ZEFSAII (Michael W. Deem and Ramdas Pophale) SiO2 
 PCOD9327848
Probable space group: F 2 2 2
;
_chemical_formula_sum "Si O2"
_cell_formula_units_Z 108
_cell_length_a 14.803357
_cell_length_b 25.149227
_cell_length_c 13.839365
_cell_angle_alpha 90.000000
_cell_angle_beta 90.000000
_cell_angle_gamma 90.000000
_cell_volume 5152.298514
_symmetry_space_group_name_H-M "F 2 2 2"
_symmetry_group_IT_number 22
_symmetry_cell_setting 'orthorhombic'
loop_
_space_group_symop_operation_xyz
x,y,z
-x,-y,z
x,-y,-z
-x,y,-z
x,1/2+y,1/2+z
-x,1/2-y,1/2+z
x,1/2-y,1/2-z
-x,1/2+y,1/2-z
1/2+x,y,1/2+z
1/2-x,-y,1/2+z
1/2+x,-y,1/2-z
1/2-x,y,1/2-z
1/2+x,1/2+y,z
1/2-x,1/2-y,z
1/2+x,1/2-y,-z
1/2-x,1/2+y,-z
loop_
_atom_site_type_symbol
_atom_site_label
_atom_site_fract_x
_atom_site_fract_y
_atom_site_fract_z
Si Si1 0.431720 0.195717 0.289823
Si Si2 0.509853 0.363554 0.392963
Si Si3 0.841532 0.416685 0.691629
Si Si4 0.586644 0.967045 0.138340
Si Si5 0.864658 0.415064 0.474012
Si Si6 0.194578 0.930775 0.351472
Si Si7 0.500000 0.500000 0.000000
Si Si8 0.000000 0.820112 0.000000
O O1 0.389629 0.250000 0.250000
O O2 0.493227 0.174289 0.199781
O O3 0.366816 0.145410 0.304801
O O4 0.476701 0.206102 0.395762
O O5 0.500000 0.337419 0.500000
O O6 0.428855 0.408152 0.403060
O O7 0.603013 0.395442 0.365283
O O8 0.750000 0.424014 0.750000
O O9 0.913061 0.452653 0.748373
O O10 0.840690 0.432282 0.581963
O O11 0.500000 0.000000 0.108886
O O12 0.666796 0.008600 0.121890
O O13 0.771145 0.410098 0.421536
O O14 0.936145 0.459643 0.439858
O O15 0.917255 0.359645 0.475429
O O16 0.250000 0.930873 0.250000
#
# Coordination Sequence:
#
# PCOD9327848 Si02
#       8
#    16  16  16  16  16  16   4   8
#     4  10  22  41  70  92 116 160 210 261 328 396
#     4  10  23  41  62  91 133 166 208 268 325 389
#     4  10  22  38  57  87 124 158 203 265 309 360
#     4   9  21  37  55  85 129 169 207 245 304 366
#     4  10  23  37  59  83 124 163 206 254 302 361
#     4  11  23  38  60  90 125 174 216 253 305 381
#     4  10  24  32  52  88 118 162 224 240 290 356
#     4   9  20  45  62  92 126 156 199 266 321 374
#
# _framework density 20.961518000000002
#
# number of rings (size 3 to 8) (size 9 to 14) (size 15 to 20)
#    0.000    2.074    0.000    1.333   10.370    5.333 
#    0.000    0.000    0.000    4.000    0.000    0.000 
#    0.000    0.000    0.000    0.000    0.000    0.000 
#
# Total GULP energy -150356.023227 kJ/mol
# GULP energy per Si atom -5568.741601 kJ/mol
# Density = 2.091381 g / cm^3
# Si number density = 20.961518 Si / 1000 Ang^3
#
#
#
# Elastic Constant Matrix: (Units=GPa)
#
#
# Indices 1 2 3 4 5 6 
#
# 1 78.1837 16.4118 22.2133 0.0000 0.0000 0.0000
# 2 16.4118 64.1936 14.2016 0.0000 0.0000 0.0000
# 3 22.2133 14.2016 125.8355 0.0000 0.0000 0.0000
# 4 0.0000 0.0000 0.0000 22.3876 0.0000 0.0000
# 5 0.0000 0.0000 0.0000 0.0000 29.9361 0.0000
# 6 0.0000 0.0000 0.0000 0.0000 0.0000 11.5212
#
#
#
# Elastic Compliance Matrix: (Units=1/GPa)
#
#
# Indices 1 2 3 4 5 6 
#
# 1 0.014050 -0.003121 -0.002128 0.000000 0.000000 0.000000
# 2 -0.003121 0.016670 -0.001330 0.000000 0.000000 0.000000
# 3 -0.002128 -0.001330 0.008473 0.000000 0.000000 0.000000
# 4 0.000000 0.000000 0.000000 0.044668 0.000000 0.000000
# 5 0.000000 0.000000 0.000000 0.000000 0.033404 0.000000
# 6 0.000000 0.000000 0.000000 0.000000 0.000000 0.086797
#
#
# Mechanical properties :
#
#
# Convention : Reuss Voigt Hill
#
# Bulk Modulus (GPa) = 38.41168 41.54069 39.97618
# Shear Modulus (GPa) = 22.13378 27.12805 24.63091
#
# Velocity S-wave (km/s) = 3.25302 3.60138 3.43162
# Velocity P-wave (km/s) = 5.69861 6.09540 5.90034
#
# Compressibility (1/GPa) = 0.02603375
#
# Stress axis : x y z
#
# Youngs Moduli (GPa) = 71.17344 59.98729 118.02655
#
# Poissons Ratio (x) = 0.18724 0.25116
# Poissons Ratio (y) = 0.22215 0.15702
# Poissons Ratio (z) = 0.15145 0.07981
#
# Static dielectric constant tensor:
#      x y z
#    x 1.809840 0.000000 0.000000 
#    y 0.000000 1.744090 0.000000 
#    z 0.000000 0.000000 1.847270 
# 
# From -- ./inp_files/29686.got.cif
#   From: 2010.05.17/outbox.cif.g08.bks.cpg/sg22_15_cif.got.tgz:29686.got - 2010.06.03 23:40:54.
