data_PCOD9327088
_publ_section_title
;
Structure prediction by ZEFSAII (Michael W. Deem and Ramdas Pophale) SiO2 
 PCOD9327088
Probable space group: F 2 2 2
;
_chemical_formula_sum "Si O2"
_cell_formula_units_Z 88
_cell_length_a 17.931329
_cell_length_b 9.691137
_cell_length_c 21.678324
_cell_angle_alpha 90.000000
_cell_angle_beta 90.000000
_cell_angle_gamma 90.000000
_cell_volume 3767.150015
_symmetry_space_group_name_H-M "F 2 2 2"
_symmetry_group_IT_number 22
_symmetry_cell_setting 'orthorhombic'
loop_
_space_group_symop_operation_xyz
x,y,z
-x,-y,z
x,-y,-z
-x,y,-z
x,1/2+y,1/2+z
-x,1/2-y,1/2+z
x,1/2-y,1/2-z
-x,1/2+y,1/2-z
1/2+x,y,1/2+z
1/2-x,-y,1/2+z
1/2+x,-y,1/2-z
1/2-x,y,1/2-z
1/2+x,1/2+y,z
1/2-x,1/2-y,z
1/2+x,1/2-y,-z
1/2-x,1/2+y,-z
loop_
_atom_site_type_symbol
_atom_site_label
_atom_site_fract_x
_atom_site_fract_y
_atom_site_fract_z
Si Si1 0.885304 0.162337 0.988831
Si Si2 0.622183 0.240491 0.371016
Si Si3 0.750000 0.750000 0.400028
Si Si4 0.911560 0.031960 0.797626
Si Si5 0.454614 0.786625 0.878161
Si Si6 0.162336 0.020139 0.334086
O O1 0.814862 0.197694 0.945533
O O2 0.951584 0.221727 0.946259
O O3 0.872549 0.228217 0.055539
O O4 0.895019 0.000000 0.000000
O O5 0.538658 0.294557 0.355540
O O6 0.676426 0.359297 0.346501
O O7 0.622104 0.090776 0.339426
O O8 0.773726 0.877975 0.357189
O O9 0.913547 0.175822 0.833978
O O10 0.864296 0.039863 0.735635
O O11 0.000000 0.000000 0.785139
O O12 0.407980 0.926005 0.875149
#
# Coordination Sequence:
#
# PCOD9327088 Si02
#       6
#    16  16   8  16  16  16
#     4  11  23  42  66  90 133 179 225 275 328 394
#     4  11  22  37  70 104 133 165 215 280 343 398
#     4  10  28  44  65  88 127 188 242 270 322 376
#     4  10  20  38  67 104 141 170 205 269 349 414
#     4  10  21  38  64 104 137 172 208 269 348 408
#     4  11  23  42  63  96 134 180 222 272 325 393
#
# _framework density 23.359833999999999
#
# number of rings (size 3 to 8) (size 9 to 14) (size 15 to 20)
#    0.000    1.455    1.818    3.273    2.545    5.818 
#    0.000   10.909    0.000    0.000    0.000    0.000 
#    0.000    0.000    0.000    0.000    0.000    0.000 
#
# Total GULP energy -123133.909885 kJ/mol
# GULP energy per Si atom -5596.995904 kJ/mol
# Density = 2.330667 g / cm^3
# Si number density = 23.359834 Si / 1000 Ang^3
#
#
#
# Elastic Constant Matrix: (Units=GPa)
#
#
# Indices 1 2 3 4 5 6 
#
# 1 49.2846 19.6579 10.5320 0.0000 0.0000 0.0000
# 2 19.6579 151.7337 45.0412 0.0000 0.0000 0.0000
# 3 10.5320 45.0412 154.3627 0.0000 0.0000 0.0000
# 4 0.0000 0.0000 0.0000 3.2094 0.0000 0.0000
# 5 0.0000 0.0000 0.0000 0.0000 23.9456 0.0000
# 6 0.0000 0.0000 0.0000 0.0000 0.0000 33.3208
#
#
#
# Elastic Compliance Matrix: (Units=1/GPa)
#
#
# Indices 1 2 3 4 5 6 
#
# 1 0.021468 -0.002569 -0.000715 0.000000 0.000000 0.000000
# 2 -0.002569 0.007523 -0.002020 0.000000 0.000000 0.000000
# 3 -0.000715 -0.002020 0.007116 0.000000 0.000000 0.000000
# 4 0.000000 0.000000 0.000000 0.311583 0.000000 0.000000
# 5 0.000000 0.000000 0.000000 0.000000 0.041761 0.000000
# 6 0.000000 0.000000 0.000000 0.000000 0.000000 0.030011
#
#
# Mechanical properties :
#
#
# Convention : Reuss Voigt Hill
#
# Bulk Modulus (GPa) = 39.21687 56.20483 47.71085
# Shear Modulus (GPa) = 11.40069 30.77183 21.08626
#
# Velocity S-wave (km/s) = 2.21157 3.63340 3.00771
# Velocity P-wave (km/s) = 4.83177 6.45870 5.70354
#
# Compressibility (1/GPa) = 0.02549923
#
# Stress axis : x y z
#
# Youngs Moduli (GPa) = 46.58141 132.92773 140.52055
#
# Poissons Ratio (x) = 0.34149 0.10049
# Poissons Ratio (y) = 0.11967 0.28382
# Poissons Ratio (z) = 0.03331 0.26849
#
# Static dielectric constant tensor:
#      x y z
#    x 1.969880 0.000000 0.000000 
#    y 0.000000 1.834330 0.000000 
#    z 0.000000 0.000000 1.823110 
# 
# From -- ./inp_files/12679.got.cif
#   From: 2010.05.17/outbox.cif.g08.bks.cpg/sg22_7_cif.got.tgz:12679.got - 2010.06.03 23:40:54.
