data_PCOD9327001
_publ_section_title
;
Structure prediction by ZEFSAII (Michael W. Deem and Ramdas Pophale) SiO2 
 PCOD9327001
Probable space group: F 2 2 2
;
_chemical_formula_sum "Si O2"
_cell_formula_units_Z 88
_cell_length_a 11.950729
_cell_length_b 27.665791
_cell_length_c 12.675644
_cell_angle_alpha 90.000000
_cell_angle_beta 90.000000
_cell_angle_gamma 90.000000
_cell_volume 4190.902173
_symmetry_space_group_name_H-M "F 2 2 2"
_symmetry_group_IT_number 22
_symmetry_cell_setting 'orthorhombic'
loop_
_space_group_symop_operation_xyz
x,y,z
-x,-y,z
x,-y,-z
-x,y,-z
x,1/2+y,1/2+z
-x,1/2-y,1/2+z
x,1/2-y,1/2-z
-x,1/2+y,1/2-z
1/2+x,y,1/2+z
1/2-x,-y,1/2+z
1/2+x,-y,1/2-z
1/2-x,y,1/2-z
1/2+x,1/2+y,z
1/2-x,1/2-y,z
1/2+x,1/2-y,-z
1/2-x,1/2+y,-z
loop_
_atom_site_type_symbol
_atom_site_label
_atom_site_fract_x
_atom_site_fract_y
_atom_site_fract_z
Si Si1 0.672354 0.296407 0.091268
Si Si2 0.000000 0.500000 0.000000
Si Si3 0.000000 0.500000 0.500000
Si Si4 0.559097 0.822658 0.371189
Si Si5 0.750000 0.375411 0.250000
Si Si6 0.250000 0.637842 0.750000
Si Si7 0.956571 0.574519 0.664305
Si Si8 0.652951 0.045985 0.819616
O O1 0.750000 0.250000 0.096194
O O2 0.550665 0.290441 0.146982
O O3 0.737552 0.340083 0.149039
O O4 0.631778 0.307738 0.972389
O O5 0.911950 0.526983 0.078436
O O6 0.071332 0.464072 0.573803
O O7 0.645401 0.829322 0.277164
O O8 0.505904 0.876143 0.384546
O O9 0.857822 0.409090 0.258979
O O10 0.288389 0.598704 0.661075
O O11 0.055405 0.553386 0.734478
O O12 0.750000 0.019209 0.750000
#
# Coordination Sequence:
#
# PCOD9327001 Si02
#       8
#    16   4   4  16   8   8  16  16
#     4  10  20  37  64  98 130 162 216 272 321 412
#     4  12  22  42  68 100 136 190 216 332 366 378
#     4  12  22  38  64  90 122 170 232 272 336 396
#     4   9  19  41  65  87 135 172 210 262 342 401
#     4  10  21  40  65  88 130 172 216 272 344 408
#     4   8  18  42  66  86 126 176 218 274 319 436
#     4  10  21  42  61  93 125 177 224 280 339 413
#     4   9  22  42  60  89 135 166 238 284 344 422
#
# _framework density 20.997864
#
# number of rings (size 3 to 8) (size 9 to 14) (size 15 to 20)
#    0.545    1.818    0.000    3.000    0.000    2.182 
#    9.818   16.818    0.000    0.000    0.000    0.000 
#    0.000    0.000    0.000    0.000    0.000    0.000 
#
# Total GULP energy -122480.843487 kJ/mol
# GULP energy per Si atom -5567.311068 kJ/mol
# Density = 2.095007 g / cm^3
# Si number density = 20.997864 Si / 1000 Ang^3
#
#
#
# Elastic Constant Matrix: (Units=GPa)
#
#
# Indices 1 2 3 4 5 6 
#
# 1 174.4243 73.3098 66.1557 0.0000 0.0000 0.0000
# 2 73.3098 79.5884 36.1430 0.0000 0.0000 0.0000
# 3 66.1557 36.1430 76.7964 0.0000 0.0000 0.0000
# 4 0.0000 0.0000 0.0000 22.5849 0.0000 0.0000
# 5 0.0000 0.0000 0.0000 0.0000 42.6029 0.0000
# 6 0.0000 0.0000 0.0000 0.0000 0.0000 6.0531
#
#
#
# Elastic Compliance Matrix: (Units=1/GPa)
#
#
# Indices 1 2 3 4 5 6 
#
# 1 0.011235 -0.007572 -0.006114 0.000000 0.000000 0.000000
# 2 -0.007572 0.021083 -0.003400 0.000000 0.000000 0.000000
# 3 -0.006114 -0.003400 0.019889 0.000000 0.000000 0.000000
# 4 0.000000 0.000000 0.000000 0.044277 0.000000 0.000000
# 5 0.000000 0.000000 0.000000 0.000000 0.023473 0.000000
# 6 0.000000 0.000000 0.000000 0.000000 0.000000 0.165204
#
#
# Mechanical properties :
#
#
# Convention : Reuss Voigt Hill
#
# Bulk Modulus (GPa) = 55.44953 75.78070 65.61511
# Shear Modulus (GPa) = 15.36838 24.59489 19.98164
#
# Velocity S-wave (km/s) = 2.70830 3.42615 3.08815
# Velocity P-wave (km/s) = 6.02033 7.19857 6.63565
#
# Compressibility (1/GPa) = 0.01803442
#
# Stress axis : x y z
#
# Youngs Moduli (GPa) = 89.01128 47.43202 50.27955
#
# Poissons Ratio (x) = 0.35913 0.30743
# Poissons Ratio (y) = 0.67395 0.17094
# Poissons Ratio (z) = 0.54426 0.16126
#
# Static dielectric constant tensor:
#      x y z
#    x 1.798840 0.000000 0.000000 
#    y 0.000000 1.812890 0.000000 
#    z 0.000000 0.000000 1.771950 
# 
# From -- ./inp_files/28365.got.cif
#   From: 2010.05.17/outbox.cif.g08.bks.cpg/sg22_15_cif.got.tgz:28365.got - 2010.06.03 23:40:54.
