data_PCOD9327671
_publ_section_title
;
Structure prediction by ZEFSAII (Michael W. Deem and Ramdas Pophale) SiO2 
 PCOD9327671
Probable space group: F 2 2 2
;
_chemical_formula_sum "Si O2"
_cell_formula_units_Z 56
_cell_length_a 18.882697
_cell_length_b 8.432415
_cell_length_c 16.625561
_cell_angle_alpha 90.000000
_cell_angle_beta 90.000000
_cell_angle_gamma 90.000000
_cell_volume 2647.233836
_symmetry_space_group_name_H-M "F 2 2 2"
_symmetry_group_IT_number 22
_symmetry_cell_setting 'orthorhombic'
loop_
_space_group_symop_operation_xyz
x,y,z
-x,-y,z
x,-y,-z
-x,y,-z
x,1/2+y,1/2+z
-x,1/2-y,1/2+z
x,1/2-y,1/2-z
-x,1/2+y,1/2-z
1/2+x,y,1/2+z
1/2-x,-y,1/2+z
1/2+x,-y,1/2-z
1/2-x,y,1/2-z
1/2+x,1/2+y,z
1/2-x,1/2-y,z
1/2+x,1/2-y,-z
1/2-x,1/2+y,-z
loop_
_atom_site_type_symbol
_atom_site_label
_atom_site_fract_x
_atom_site_fract_y
_atom_site_fract_z
Si Si1 0.000000 0.500000 0.782541
Si Si2 0.266734 0.937253 0.589624
Si Si3 0.391469 0.960124 0.092404
Si Si4 0.123010 0.352308 0.679207
O O1 0.058643 0.560554 0.847431
O O2 0.051469 0.408784 0.722314
O O3 0.250000 0.750000 0.589417
O O4 0.190612 0.009935 0.610606
O O5 0.284186 0.000000 0.500000
O O6 0.327807 0.006821 0.646855
O O7 0.399536 0.773453 0.110945
O O8 0.405545 0.000000 0.000000
O O9 0.160336 0.250000 0.750000
#
# Coordination Sequence:
#
# PCOD9327671 Si02
#       4
#     8  16  16  16
#     4  10  23  40  63  92 126 168 208 256 321 378
#     4  11  23  41  70 100 128 168 220 269 320 384
#     4  10  21  41  68  93 127 170 213 265 319 379
#     4  10  23  44  66  94 133 169 212 269 324 381
#
# _framework density 21.154157000000001
#
# number of rings (size 3 to 8) (size 9 to 14) (size 15 to 20)
#    0.000    1.714    0.000    4.714    0.000   14.857 
#    0.000   16.429    0.000    0.000    0.000    0.000 
#    0.000    0.000    0.000    0.000    0.000    0.000 
#
# Total GULP energy -77988.565247 kJ/mol
# GULP energy per Si atom -5570.611803 kJ/mol
# Density = 2.110601 g / cm^3
# Si number density = 21.154157 Si / 1000 Ang^3
#
#
#
# Elastic Constant Matrix: (Units=GPa)
#
#
# Indices 1 2 3 4 5 6 
#
# 1 133.9107 57.7841 74.9798 0.0000 0.0000 0.0000
# 2 57.7841 135.6242 94.0027 0.0000 0.0000 0.0000
# 3 74.9798 94.0027 142.2437 0.0000 0.0000 0.0000
# 4 0.0000 0.0000 0.0000 32.0664 0.0000 0.0000
# 5 0.0000 0.0000 0.0000 0.0000 36.8493 0.0000
# 6 0.0000 0.0000 0.0000 0.0000 0.0000 24.2688
#
#
#
# Elastic Compliance Matrix: (Units=1/GPa)
#
#
# Indices 1 2 3 4 5 6 
#
# 1 0.010699 -0.001198 -0.004848 0.000000 0.000000 0.000000
# 2 -0.001198 0.013739 -0.008448 0.000000 0.000000 0.000000
# 3 -0.004848 -0.008448 0.015168 0.000000 0.000000 0.000000
# 4 0.000000 0.000000 0.000000 0.031185 0.000000 0.000000
# 5 0.000000 0.000000 0.000000 0.000000 0.027138 0.000000
# 6 0.000000 0.000000 0.000000 0.000000 0.000000 0.041205
#
#
# Mechanical properties :
#
#
# Convention : Reuss Voigt Hill
#
# Bulk Modulus (GPa) = 94.17483 96.14575 95.16029
# Shear Modulus (GPa) = 29.12682 30.97103 30.04893
#
# Velocity S-wave (km/s) = 3.71466 3.83046 3.77301
# Velocity P-wave (km/s) = 7.93809 8.06920 8.00391
#
# Compressibility (1/GPa) = 0.01061855
#
# Stress axis : x y z
#
# Youngs Moduli (GPa) = 93.46496 72.78370 65.92616
#
# Poissons Ratio (x) = 0.08723 0.31960
# Poissons Ratio (y) = 0.11201 0.55694
# Poissons Ratio (z) = 0.45310 0.61488
#
# Static dielectric constant tensor:
#      x y z
#    x 1.760850 0.000000 0.000000 
#    y 0.000000 1.865570 0.000000 
#    z 0.000000 0.000000 1.804220 
# 
# From -- ./inp_files/9533.got.cif
#   From: 2010.05.17/outbox.cif.g08.bks.cpg/sg22_5_cif.got.tgz:9533.got - 2010.06.03 23:40:54.
