data_PCOD9327004
_publ_section_title
;
Structure prediction by ZEFSAII (Michael W. Deem and Ramdas Pophale) SiO2 
 PCOD9327004
Probable space group: F 2 2 2
;
_chemical_formula_sum "Si O2"
_cell_formula_units_Z 64
_cell_length_a 8.341773
_cell_length_b 21.591509
_cell_length_c 15.272121
_cell_angle_alpha 90.000000
_cell_angle_beta 90.000000
_cell_angle_gamma 90.000000
_cell_volume 2750.684115
_symmetry_space_group_name_H-M "F 2 2 2"
_symmetry_group_IT_number 22
_symmetry_cell_setting 'orthorhombic'
loop_
_space_group_symop_operation_xyz
x,y,z
-x,-y,z
x,-y,-z
-x,y,-z
x,1/2+y,1/2+z
-x,1/2-y,1/2+z
x,1/2-y,1/2-z
-x,1/2+y,1/2-z
1/2+x,y,1/2+z
1/2-x,-y,1/2+z
1/2+x,-y,1/2-z
1/2-x,y,1/2-z
1/2+x,1/2+y,z
1/2-x,1/2-y,z
1/2+x,1/2-y,-z
1/2-x,1/2+y,-z
loop_
_atom_site_type_symbol
_atom_site_label
_atom_site_fract_x
_atom_site_fract_y
_atom_site_fract_z
Si Si1 0.306093 0.562951 0.350935
Si Si2 0.327242 0.811325 0.345458
Si Si3 0.364828 0.808793 0.577317
Si Si4 0.689401 0.425866 0.648897
O O1 0.250000 0.558216 0.250000
O O2 0.218625 0.623214 0.388924
O O3 0.496064 0.575527 0.352753
O O4 0.267810 0.494675 0.386565
O O5 0.250000 0.814723 0.250000
O O6 0.250000 0.750000 0.386998
O O7 0.516270 0.803919 0.339496
O O8 0.500000 0.809213 0.500000
O O9 0.250000 0.750000 0.573524
O O10 0.264701 0.871070 0.592285
O O11 0.750000 0.420586 0.750000
#
# Coordination Sequence:
#
# PCOD9327004 Si02
#       4
#    16  16  16  16
#     4   9  18  35  62 100 140 168 206 272 329 370
#     4  10  20  38  65  94 128 170 217 265 312 376
#     4  12  27  45  65  91 130 176 219 271 339 395
#     4  10  20  37  66 100 132 172 220 265 318 389
#
# _framework density 23.266940999999999
#
# number of rings (size 3 to 8) (size 9 to 14) (size 15 to 20)
#    0.000    1.750    0.000    5.250    0.000    5.500 
#    0.000    2.500    0.000    3.000    0.000    0.000 
#    0.000    0.000    0.000    0.000    0.000    0.000 
#
# Total GULP energy -89361.388925 kJ/mol
# GULP energy per Si atom -5585.086808 kJ/mol
# Density = 2.321398 g / cm^3
# Si number density = 23.266941 Si / 1000 Ang^3
#
#
#
# Elastic Constant Matrix: (Units=GPa)
#
#
# Indices 1 2 3 4 5 6 
#
# 1 155.5597 118.1163 41.3458 0.0000 0.0000 0.0000
# 2 118.1163 296.6925 43.8447 0.0000 0.0000 0.0000
# 3 41.3458 43.8447 81.6914 0.0000 0.0000 0.0000
# 4 0.0000 0.0000 0.0000 -49.8817 0.0000 0.0000
# 5 0.0000 0.0000 0.0000 0.0000 39.4769 0.0000
# 6 0.0000 0.0000 0.0000 0.0000 0.0000 45.1971
#
#
#
# Elastic Compliance Matrix: (Units=1/GPa)
#
#
# Indices 1 2 3 4 5 6 
#
# 1 0.009906 -0.003479 -0.003147 0.000000 0.000000 0.000000
# 2 -0.003479 0.004882 -0.000860 0.000000 0.000000 0.000000
# 3 -0.003147 -0.000860 0.014295 0.000000 0.000000 0.000000
# 4 0.000000 0.000000 0.000000 -0.020047 0.000000 0.000000
# 5 0.000000 0.000000 0.000000 0.000000 0.025331 0.000000
# 6 0.000000 0.000000 0.000000 0.000000 0.000000 0.022125
#
#
# Mechanical properties :
#
#
# Convention : Reuss Voigt Hill
#
# Bulk Modulus (GPa) = 70.85423 104.50637 87.68030
# Shear Modulus (GPa) = 65.64446 29.00089 47.32268
#
# Velocity S-wave (km/s) = 5.31741 3.53433 4.51477
# Velocity P-wave (km/s) = 8.25946 7.85297 8.05878
#
# Compressibility (1/GPa) = 0.01411348
#
# Stress axis : x y z
#
# Youngs Moduli (GPa) = 100.94756 204.81417 69.95334
#
# Poissons Ratio (x) = 0.71249 0.22012
# Poissons Ratio (y) = 0.35117 0.06015
# Poissons Ratio (z) = 0.31765 0.17610
#
# Static dielectric constant tensor:
#      x y z
#    x 1.868990 0.000000 0.000000 
#    y 0.000000 1.933790 0.000000 
#    z 0.000000 0.000000 2.047570 
# 
# From -- ./inp_files/26879.got.cif
#   From: 2010.05.17/outbox.cif.g08.bks.cpg/sg22_14_cif.got.tgz:26879.got - 2010.06.03 23:40:54.
