data_PCOD9327020
_publ_section_title
;
Structure prediction by ZEFSAII (Michael W. Deem and Ramdas Pophale) SiO2 
 PCOD9327020
Probable space group: F 2 2 2
;
_chemical_formula_sum "Si O2"
_cell_formula_units_Z 80
_cell_length_a 13.631763
_cell_length_b 19.625095
_cell_length_c 14.632827
_cell_angle_alpha 90.000000
_cell_angle_beta 90.000000
_cell_angle_gamma 90.000000
_cell_volume 3914.641832
_symmetry_space_group_name_H-M "F 2 2 2"
_symmetry_group_IT_number 22
_symmetry_cell_setting 'orthorhombic'
loop_
_space_group_symop_operation_xyz
x,y,z
-x,-y,z
x,-y,-z
-x,y,-z
x,1/2+y,1/2+z
-x,1/2-y,1/2+z
x,1/2-y,1/2-z
-x,1/2+y,1/2-z
1/2+x,y,1/2+z
1/2-x,-y,1/2+z
1/2+x,-y,1/2-z
1/2-x,y,1/2-z
1/2+x,1/2+y,z
1/2-x,1/2-y,z
1/2+x,1/2-y,-z
1/2-x,1/2+y,-z
loop_
_atom_site_type_symbol
_atom_site_label
_atom_site_fract_x
_atom_site_fract_y
_atom_site_fract_z
Si Si1 0.900258 0.035071 0.762666
Si Si2 0.808672 0.177721 0.166681
Si Si3 0.201212 0.675673 0.541570
Si Si4 0.457377 0.315445 0.191331
Si Si5 0.773310 0.965599 0.401435
O O1 0.919286 0.115715 0.762330
O O2 0.863834 0.014301 0.662507
O O3 0.821123 0.016802 0.839749
O O4 0.000000 0.000000 0.788519
O O5 0.750000 0.141507 0.250000
O O6 0.750000 0.250000 0.159891
O O7 0.924096 0.184716 0.187678
O O8 0.805383 0.151086 0.063472
O O9 0.250000 0.750000 0.546107
O O10 0.096537 0.682895 0.592769
O O11 0.264503 0.616467 0.589119
O O12 0.426016 0.250000 0.250000
O O13 0.774352 0.000000 0.500000
#
# Coordination Sequence:
#
# PCOD9327020 Si02
#       5
#    16  16  16  16  16
#     4  10  24  43  64  93 126 168 211 262 317 379
#     4  10  20  38  57  91 132 164 207 249 316 372
#     4  10  22  39  65  96 125 164 212 265 320 376
#     4  11  21  39  67  95 125 163 211 267 317 380
#     4  10  23  44  65  92 127 166 214 260 319 378
#
# _framework density 20.436095999999999
#
# number of rings (size 3 to 8) (size 9 to 14) (size 15 to 20)
#    0.000    1.800    2.000    1.800    2.800    4.400 
#    0.000    0.000    0.000    0.000    0.000    0.000 
#    0.000    0.000    0.000    0.000    0.000    0.000 
#
# Total GULP energy -111577.390183 kJ/mol
# GULP energy per Si atom -5578.869509 kJ/mol
# Density = 2.038958 g / cm^3
# Si number density = 20.436096 Si / 1000 Ang^3
#
#
#
# Elastic Constant Matrix: (Units=GPa)
#
#
# Indices 1 2 3 4 5 6 
#
# 1 79.1677 4.2149 40.2591 0.0000 0.0000 0.0000
# 2 4.2149 63.3147 17.4972 0.0000 0.0000 0.0000
# 3 40.2591 17.4972 140.5184 0.0000 0.0000 0.0000
# 4 0.0000 0.0000 0.0000 22.9438 0.0000 0.0000
# 5 0.0000 0.0000 0.0000 0.0000 23.5084 0.0000
# 6 0.0000 0.0000 0.0000 0.0000 0.0000 20.9054
#
#
#
# Elastic Compliance Matrix: (Units=1/GPa)
#
#
# Indices 1 2 3 4 5 6 
#
# 1 0.014788 0.000193 -0.004261 0.000000 0.000000 0.000000
# 2 0.000193 0.016360 -0.002092 0.000000 0.000000 0.000000
# 3 -0.004261 -0.002092 0.008598 0.000000 0.000000 0.000000
# 4 0.000000 0.000000 0.000000 0.043585 0.000000 0.000000
# 5 0.000000 0.000000 0.000000 0.000000 0.042538 0.000000
# 6 0.000000 0.000000 0.000000 0.000000 0.000000 0.047835
#
#
# Mechanical properties :
#
#
# Convention : Reuss Voigt Hill
#
# Bulk Modulus (GPa) = 36.46326 45.21594 40.83960
# Shear Modulus (GPa) = 25.61940 28.20680 26.91310
#
# Velocity S-wave (km/s) = 3.54451 3.71919 3.63290
# Velocity P-wave (km/s) = 5.88496 6.37313 6.13390
#
# Compressibility (1/GPa) = 0.02742487
#
# Stress axis : x y z
#
# Youngs Moduli (GPa) = 67.62286 61.12653 116.30891
#
# Poissons Ratio (x) = -0.01180 0.49557
# Poissons Ratio (y) = -0.01305 0.24336
# Poissons Ratio (z) = 0.28813 0.12790
#
# Static dielectric constant tensor:
#      x y z
#    x 1.688710 0.000000 0.000000 
#    y 0.000000 1.727020 0.000000 
#    z 0.000000 0.000000 1.743730 
# 
# From -- ./inp_files/28113.got.cif
#   From: 2010.05.17/outbox.cif.g08.bks.cpg/sg22_15_cif.got.tgz:28113.got - 2010.06.03 23:40:54.
