data_PCOD9327163
_publ_section_title
;
Structure prediction by ZEFSAII (Michael W. Deem and Ramdas Pophale) SiO2 
 PCOD9327163
Probable space group: F 2 2 2
;
_chemical_formula_sum "Si O2"
_cell_formula_units_Z 116
_cell_length_a 23.138067
_cell_length_b 26.119285
_cell_length_c 9.547260
_cell_angle_alpha 90.000000
_cell_angle_beta 90.000000
_cell_angle_gamma 90.000000
_cell_volume 5769.884350
_symmetry_space_group_name_H-M "F 2 2 2"
_symmetry_group_IT_number 22
_symmetry_cell_setting 'orthorhombic'
loop_
_space_group_symop_operation_xyz
x,y,z
-x,-y,z
x,-y,-z
-x,y,-z
x,1/2+y,1/2+z
-x,1/2-y,1/2+z
x,1/2-y,1/2-z
-x,1/2+y,1/2-z
1/2+x,y,1/2+z
1/2-x,-y,1/2+z
1/2+x,-y,1/2-z
1/2-x,y,1/2-z
1/2+x,1/2+y,z
1/2-x,1/2-y,z
1/2+x,1/2-y,-z
1/2-x,1/2+y,-z
loop_
_atom_site_type_symbol
_atom_site_label
_atom_site_fract_x
_atom_site_fract_y
_atom_site_fract_z
Si Si1 0.778831 0.694527 0.542333
Si Si2 0.347726 0.459435 0.124421
Si Si3 0.603854 0.541408 0.676471
Si Si4 0.435087 0.605101 0.052544
Si Si5 0.338039 0.368460 0.521444
Si Si6 0.188580 0.640963 0.710087
Si Si7 0.000000 0.500000 0.000000
Si Si8 0.114299 0.807015 0.233429
O O1 0.750000 0.750000 0.520153
O O2 0.727281 0.652497 0.547842
O O3 0.824365 0.677393 0.420753
O O4 0.819325 0.695180 0.678076
O O5 0.366375 0.490273 0.262523
O O6 0.300088 0.416861 0.155753
O O7 0.335119 0.500000 0.000000
O O8 0.397693 0.420190 0.072331
O O9 0.583311 0.569726 0.816909
O O10 0.648036 0.575416 0.584450
O O11 0.544994 0.531914 0.592568
O O12 0.420617 0.660033 0.119841
O O13 0.500000 0.602220 0.000000
O O14 0.347091 0.363051 0.353990
O O15 0.380727 0.333701 0.615131
O O16 0.250000 0.664659 0.750000
O O17 0.091952 0.750000 0.250000
#
# Coordination Sequence:
#
# PCOD9327163 Si02
#       8
#    16  16  16  16  16  16   4  16
#     4  11  21  39  65  93 121 169 213 257 310 388
#     4  10  20  40  60  87 120 161 216 252 307 370
#     4  10  22  36  60  93 121 164 213 268 305 381
#     4  10  21  39  65  87 119 163 205 263 310 373
#     4  10  22  36  57  92 129 153 201 264 320 355
#     4  10  22  39  55  87 130 163 202 255 313 376
#     4  12  20  36  62  84 124 164 216 250 326 364
#     4  11  21  39  64  93 121 157 211 258 311 382
#
# _framework density 20.104388
#
# number of rings (size 3 to 8) (size 9 to 14) (size 15 to 20)
#    0.000    1.655    2.759    2.069    0.000    4.414 
#    4.966    0.000    9.103    0.000    0.000    0.000 
#    0.000    0.000    0.000    0.000    0.000    0.000 
#
# Total GULP energy -161455.013587 kJ/mol
# GULP energy per Si atom -5567.414262 kJ/mol
# Density = 2.005863 g / cm^3
# Si number density = 20.104388 Si / 1000 Ang^3
#
#
#
# Elastic Constant Matrix: (Units=GPa)
#
#
# Indices 1 2 3 4 5 6 
#
# 1 41.8347 9.0933 11.4311 -0.0002 0.0003 0.0001
# 2 9.0933 100.4345 39.5353 -0.0001 0.0001 0.0000
# 3 11.4311 39.5353 113.1555 -0.0005 0.0008 -0.0001
# 4 -0.0002 -0.0001 -0.0005 17.6855 0.0004 0.0001
# 5 0.0003 0.0001 0.0008 0.0004 27.9223 0.0000
# 6 0.0001 0.0000 -0.0001 0.0001 0.0000 -15.9263
#
#
#
# Elastic Compliance Matrix: (Units=1/GPa)
#
#
# Indices 1 2 3 4 5 6 
#
# 1 0.024765 -0.001458 -0.001992 0.000000 0.000000 0.000000
# 2 -0.001458 0.011630 -0.003916 0.000000 0.000000 0.000000
# 3 -0.001992 -0.003916 0.010407 0.000000 0.000000 0.000000
# 4 0.000000 0.000000 0.000000 0.056544 -0.000001 0.000000
# 5 0.000000 0.000000 0.000000 -0.000001 0.035814 0.000000
# 6 0.000000 0.000000 0.000000 0.000000 0.000000 -0.062789
#
#
# Mechanical properties :
#
#
# Convention : Reuss Voigt Hill
#
# Bulk Modulus (GPa) = 31.18264 41.72712 36.45488
# Shear Modulus (GPa) = 49.11917 18.96062 34.03990
#
# Velocity S-wave (km/s) = 4.94824 3.07434 4.11926
# Velocity P-wave (km/s) = 6.94196 5.77948 6.38722
#
# Compressibility (1/GPa) = 0.03206913
#
# Stress axis : x y z
#
# Youngs Moduli (GPa) = 40.37970 85.98203 96.08954
#
# Poissons Ratio (x) = 0.12536 0.19145
# Poissons Ratio (y) = 0.05887 0.37631
# Poissons Ratio (z) = 0.08045 0.33673
#
# Static dielectric constant tensor:
#      x y z
#    x 1.741930 0.000000 0.000000 
#    y 0.000000 1.746060 0.000000 
#    z 0.000000 0.000000 2.761620 
# 
# From -- ./inp_files/14115.got.cif
#   From: 2010.05.17/outbox.cif.g08.bks.cpg/sg22_8_cif.got.tgz:14115.got - 2010.06.03 23:40:54.
