data_PCOD9327434
_publ_section_title
;
Structure prediction by ZEFSAII (Michael W. Deem and Ramdas Pophale) SiO2 
 PCOD9327434
Probable space group: F 2 2 2
;
_chemical_formula_sum "Si O2"
_cell_formula_units_Z 104
_cell_length_a 9.191382
_cell_length_b 19.245732
_cell_length_c 28.446873
_cell_angle_alpha 90.000000
_cell_angle_beta 90.000000
_cell_angle_gamma 90.000000
_cell_volume 5032.106034
_symmetry_space_group_name_H-M "F 2 2 2"
_symmetry_group_IT_number 22
_symmetry_cell_setting 'orthorhombic'
loop_
_space_group_symop_operation_xyz
x,y,z
-x,-y,z
x,-y,-z
-x,y,-z
x,1/2+y,1/2+z
-x,1/2-y,1/2+z
x,1/2-y,1/2-z
-x,1/2+y,1/2-z
1/2+x,y,1/2+z
1/2-x,-y,1/2+z
1/2+x,-y,1/2-z
1/2-x,y,1/2-z
1/2+x,1/2+y,z
1/2-x,1/2-y,z
1/2+x,1/2-y,-z
1/2-x,1/2+y,-z
loop_
_atom_site_type_symbol
_atom_site_label
_atom_site_fract_x
_atom_site_fract_y
_atom_site_fract_z
Si Si1 0.449480 0.127273 0.126595
Si Si2 0.418467 0.074644 0.232483
Si Si3 0.750000 0.750000 0.358870
Si Si4 0.500000 0.500000 0.434096
Si Si5 0.013104 0.144599 0.177194
Si Si6 0.699453 0.546180 0.956391
Si Si7 0.500000 0.000000 0.625955
Si Si8 0.773780 0.672226 0.599284
O O1 0.422876 0.107175 0.180690
O O2 0.350177 0.193800 0.114043
O O3 0.419445 0.058449 0.096648
O O4 0.618883 0.143498 0.117334
O O5 0.250000 0.067739 0.250000
O O6 0.501400 0.127134 0.267997
O O7 0.500000 0.000000 0.232340
O O8 0.860194 0.701082 0.329787
O O9 0.373220 0.540921 0.459953
O O10 0.880718 0.169800 0.144346
O O11 0.041139 0.067249 0.156154
O O12 0.633827 0.514458 0.908696
O O13 0.666876 0.626554 0.944611
O O14 0.647115 0.500000 0.000000
O O15 0.750000 0.750000 0.583577
#
# Coordination Sequence:
#
# PCOD9327434 Si02
#       8
#    16  16   8   8  16  16   8  16
#     4  11  23  39  63  90 127 172 213 267 321 377
#     4  12  26  38  59  90 132 168 233 274 319 372
#     4  12  22  39  60  92 134 160 224 266 324 370
#     4  10  21  39  64  90 122 164 212 253 315 392
#     4  11  23  39  63  90 127 172 213 267 321 377
#     4  10  21  37  66  91 120 153 204 259 318 383
#     4  10  21  39  64  90 122 164 212 253 315 392
#     4  10  22  42  63  91 128 165 209 254 328 401
#
# _framework density 20.667292
#
# number of rings (size 3 to 8) (size 9 to 14) (size 15 to 20)
#    0.000    1.231    4.615    1.385    2.154    1.231 
#    0.000    0.769    6.769    3.692    0.000    0.000 
#    0.000    0.000    0.000    0.000    0.000    0.000 
#
# Total GULP energy -144922.580541 kJ/mol
# GULP energy per Si atom -5573.945405 kJ/mol
# Density = 2.062025 g / cm^3
# Si number density = 20.667292 Si / 1000 Ang^3
#
#
#
# Elastic Constant Matrix: (Units=GPa)
#
#
# Indices 1 2 3 4 5 6 
#
# 1 85.4354 26.2279 5.7990 0.0000 0.0000 0.0000
# 2 26.2279 127.8456 24.1482 0.0000 0.0000 0.0000
# 3 5.7990 24.1482 62.0114 0.0000 0.0000 0.0000
# 4 0.0000 0.0000 0.0000 14.2671 0.0000 0.0000
# 5 0.0000 0.0000 0.0000 0.0000 14.7605 0.0000
# 6 0.0000 0.0000 0.0000 0.0000 0.0000 33.4696
#
#
#
# Elastic Compliance Matrix: (Units=1/GPa)
#
#
# Indices 1 2 3 4 5 6 
#
# 1 0.012493 -0.002528 -0.000184 0.000000 0.000000 0.000000
# 2 -0.002528 0.008955 -0.003251 0.000000 0.000000 0.000000
# 3 -0.000184 -0.003251 0.017409 0.000000 0.000000 0.000000
# 4 0.000000 0.000000 0.000000 0.070091 0.000000 0.000000
# 5 0.000000 0.000000 0.000000 0.000000 0.067748 0.000000
# 6 0.000000 0.000000 0.000000 0.000000 0.000000 0.029878
#
#
# Mechanical properties :
#
#
# Convention : Reuss Voigt Hill
#
# Bulk Modulus (GPa) = 37.13099 43.07140 40.10120
# Shear Modulus (GPa) = 21.98020 27.10725 24.54373
#
# Velocity S-wave (km/s) = 3.26471 3.62553 3.44984
# Velocity P-wave (km/s) = 5.67593 6.19771 5.94255
#
# Compressibility (1/GPa) = 0.02693168
#
# Stress axis : x y z
#
# Youngs Moduli (GPa) = 80.04219 111.67406 57.44123
#
# Poissons Ratio (x) = 0.28235 0.01055
# Poissons Ratio (y) = 0.20238 0.18672
# Poissons Ratio (z) = 0.01471 0.36301
#
# Static dielectric constant tensor:
#      x y z
#    x 1.791000 0.000000 0.000000 
#    y 0.000000 1.747140 0.000000 
#    z 0.000000 0.000000 1.782020 
# 
# From -- ./inp_files/14850.got.cif
#   From: 2010.05.17/outbox.cif.g08.bks.cpg/sg22_8_cif.got.tgz:14850.got - 2010.06.03 23:40:54.
