data_PCOD9327232
_publ_section_title
;
Structure prediction by ZEFSAII (Michael W. Deem and Ramdas Pophale) SiO2 
 PCOD9327232
Probable space group: F 2 2 2
;
_chemical_formula_sum "Si O2"
_cell_formula_units_Z 64
_cell_length_a 7.857125
_cell_length_b 18.937450
_cell_length_c 18.975177
_cell_angle_alpha 90.000000
_cell_angle_beta 90.000000
_cell_angle_gamma 90.000000
_cell_volume 2823.390814
_symmetry_space_group_name_H-M "F 2 2 2"
_symmetry_group_IT_number 22
_symmetry_cell_setting 'orthorhombic'
loop_
_space_group_symop_operation_xyz
x,y,z
-x,-y,z
x,-y,-z
-x,y,-z
x,1/2+y,1/2+z
-x,1/2-y,1/2+z
x,1/2-y,1/2-z
-x,1/2+y,1/2-z
1/2+x,y,1/2+z
1/2-x,-y,1/2+z
1/2+x,-y,1/2-z
1/2-x,y,1/2-z
1/2+x,1/2+y,z
1/2-x,1/2-y,z
1/2+x,1/2-y,-z
1/2-x,1/2+y,-z
loop_
_atom_site_type_symbol
_atom_site_label
_atom_site_fract_x
_atom_site_fract_y
_atom_site_fract_z
Si Si1 0.556431 0.675224 0.722046
Si Si2 0.325589 0.676953 0.046691
Si Si3 0.975156 0.417289 0.654952
Si Si4 0.829026 0.670243 0.094693
O O1 0.481251 0.750000 0.750000
O O2 0.750000 0.677057 0.750000
O O3 0.485521 0.609174 0.765248
O O4 0.499437 0.668191 0.641149
O O5 0.250000 0.750000 0.075631
O O6 0.384048 0.623511 0.106924
O O7 0.500000 0.689642 0.000000
O O8 0.187546 0.654348 0.988359
O O9 0.797362 0.387067 0.627711
O O10 0.000000 0.500000 0.647543
O O11 0.750000 0.750000 0.102653
#
# Coordination Sequence:
#
# PCOD9327232 Si02
#       4
#    16  16  16  16
#     4  11  24  39  67 102 143 186 250 306 360 437
#     4   9  21  38  67 100 137 186 245 293 350 436
#     4  11  24  40  66 105 145 185 237 304 374 434
#     4  10  20  41  68  98 136 193 239 294 365 433
#
# _framework density 22.667778999999999
#
# number of rings (size 3 to 8) (size 9 to 14) (size 15 to 20)
#    0.000    1.750    2.500    0.750    3.500    6.500 
#    0.000    0.000    0.000    0.000    0.000   36.750 
#    0.000    0.000    0.000    0.000    0.000    0.000 
#
# Total GULP energy -89325.467988 kJ/mol
# GULP energy per Si atom -5582.841749 kJ/mol
# Density = 2.261619 g / cm^3
# Si number density = 22.667779 Si / 1000 Ang^3
#
#
#
# Elastic Constant Matrix: (Units=GPa)
#
#
# Indices 1 2 3 4 5 6 
#
# 1 113.1883 36.8063 63.2663 0.0000 0.0000 0.0000
# 2 36.8063 160.5606 47.1234 0.0000 0.0000 0.0000
# 3 63.2663 47.1234 166.9448 0.0000 0.0000 0.0000
# 4 0.0000 0.0000 0.0000 12.4627 0.0000 0.0000
# 5 0.0000 0.0000 0.0000 0.0000 41.7570 0.0000
# 6 0.0000 0.0000 0.0000 0.0000 0.0000 28.1062
#
#
#
# Elastic Compliance Matrix: (Units=1/GPa)
#
#
# Indices 1 2 3 4 5 6 
#
# 1 0.011524 -0.001483 -0.003949 0.000000 0.000000 0.000000
# 2 -0.001483 0.006982 -0.001409 0.000000 0.000000 0.000000
# 3 -0.003949 -0.001409 0.007884 0.000000 0.000000 0.000000
# 4 0.000000 0.000000 0.000000 0.080239 0.000000 0.000000
# 5 0.000000 0.000000 0.000000 0.000000 0.023948 0.000000
# 6 0.000000 0.000000 0.000000 0.000000 0.000000 0.035579
#
#
# Mechanical properties :
#
#
# Convention : Reuss Voigt Hill
#
# Bulk Modulus (GPa) = 78.68299 81.67619 80.17959
# Shear Modulus (GPa) = 27.16308 36.03169 31.59738
#
# Velocity S-wave (km/s) = 3.46542 3.99125 3.73759
# Velocity P-wave (km/s) = 7.12734 7.57299 7.35354
#
# Compressibility (1/GPa) = 0.01270923
#
# Stress axis : x y z
#
# Youngs Moduli (GPa) = 86.77449 143.23461 126.83817
#
# Poissons Ratio (x) = 0.21239 0.50084
# Poissons Ratio (y) = 0.12867 0.17868
# Poissons Ratio (z) = 0.34265 0.20178
#
# Static dielectric constant tensor:
#      x y z
#    x 2.023170 0.000000 0.000000 
#    y 0.000000 1.782320 0.000000 
#    z 0.000000 0.000000 1.906350 
# 
# From -- ./inp_files/11144.got.cif
#   From: 2010.05.17/outbox.cif.g08.bks.cpg/sg22_6_cif.got.tgz:11144.got - 2010.06.03 23:40:54.
