data_PCOD9327290
_publ_section_title
;
Structure prediction by ZEFSAII (Michael W. Deem and Ramdas Pophale) SiO2 
 PCOD9327290
Probable space group: F 2 2 2
;
_chemical_formula_sum "Si O2"
_cell_formula_units_Z 64
_cell_length_a 20.452435
_cell_length_b 30.152351
_cell_length_c 5.288302
_cell_angle_alpha 90.000000
_cell_angle_beta 90.000000
_cell_angle_gamma 90.000000
_cell_volume 3261.237666
_symmetry_space_group_name_H-M "F 2 2 2"
_symmetry_group_IT_number 22
_symmetry_cell_setting 'orthorhombic'
loop_
_space_group_symop_operation_xyz
x,y,z
-x,-y,z
x,-y,-z
-x,y,-z
x,1/2+y,1/2+z
-x,1/2-y,1/2+z
x,1/2-y,1/2-z
-x,1/2+y,1/2-z
1/2+x,y,1/2+z
1/2-x,-y,1/2+z
1/2+x,-y,1/2-z
1/2-x,y,1/2-z
1/2+x,1/2+y,z
1/2-x,1/2-y,z
1/2+x,1/2-y,-z
1/2-x,1/2+y,-z
loop_
_atom_site_type_symbol
_atom_site_label
_atom_site_fract_x
_atom_site_fract_y
_atom_site_fract_z
Si Si1 0.070434 0.450633 0.611662
Si Si2 0.500000 0.000000 0.000000
Si Si3 0.957766 0.750000 0.250000
Si Si4 0.676236 0.624256 0.849555
Si Si5 0.750000 0.250000 0.750000
Si Si6 0.151297 0.679472 0.859769
O O1 0.081836 0.500000 0.500000
O O2 0.130728 0.418092 0.593269
O O3 0.000000 0.434436 0.500000
O O4 0.051337 0.464232 0.892010
O O5 0.913315 0.706514 0.210825
O O6 0.000000 0.743967 0.500000
O O7 0.750000 0.614413 0.750000
O O8 0.644858 0.650413 0.611408
O O9 0.674916 0.652495 0.110432
O O10 0.795636 0.281991 0.913124
#
# Coordination Sequence:
#
# PCOD9327290 Si02
#       6
#    16   4   8  16   4  16
#     4   9  22  42  67  94 131 179 221 265 342 403
#     4   8  18  44  64  90 120 188 212 252 346 404
#     4  11  24  45  62  97 130 171 226 276 338 395
#     4  12  24  43  64 106 132 169 228 276 329 396
#     4  10  20  46  64  86 124 180 216 248 324 404
#     4  11  25  41  68  91 132 175 216 274 330 394
#
# _framework density 19.624452000000002
#
# number of rings (size 3 to 8) (size 9 to 14) (size 15 to 20)
#    0.000    1.750    2.500    1.500    7.000    7.000 
#    2.250    0.000    0.000    0.000    0.000    0.000 
#    0.000    0.000    0.000    0.000    0.000    0.000 
#
# Total GULP energy -89080.282765 kJ/mol
# GULP energy per Si atom -5567.517673 kJ/mol
# Density = 1.957979 g / cm^3
# Si number density = 19.624452 Si / 1000 Ang^3
#
#
#
# Elastic Constant Matrix: (Units=GPa)
#
#
# Indices 1 2 3 4 5 6 
#
# 1 135.8874 72.8156 39.2007 -0.0134 0.0668 -0.0068
# 2 72.8156 99.0954 32.8389 0.0290 0.0010 -0.0013
# 3 39.2007 32.8389 87.2525 -0.1680 0.0860 0.0100
# 4 -0.0134 0.0290 -0.1680 89.6160 0.1016 0.0010
# 5 0.0668 0.0010 0.0860 0.1016 38.2694 -0.0146
# 6 -0.0068 -0.0013 0.0100 0.0010 -0.0146 47.4181
#
#
#
# Elastic Compliance Matrix: (Units=1/GPa)
#
#
# Indices 1 2 3 4 5 6 
#
# 1 0.012593 -0.008430 -0.002485 0.000000 -0.000016 0.000002
# 2 -0.008430 0.017172 -0.002676 -0.000012 0.000020 0.000000
# 3 -0.002485 -0.002676 0.013585 0.000026 -0.000026 -0.000003
# 4 0.000000 -0.000012 0.000026 0.011159 -0.000030 0.000000
# 5 -0.000016 0.000020 -0.000026 -0.000030 0.026131 0.000008
# 6 0.000002 0.000000 -0.000003 0.000000 0.000008 0.021089
#
#
# Mechanical properties :
#
#
# Convention : Reuss Voigt Hill
#
# Bulk Modulus (GPa) = 61.84835 67.99398 64.92116
# Shear Modulus (GPa) = 37.23016 46.88604 42.05810
#
# Velocity S-wave (km/s) = 4.36033 4.89321 4.63444
# Velocity P-wave (km/s) = 7.54549 8.16379 7.86072
#
# Compressibility (1/GPa) = 0.01616858
#
# Stress axis : x y z
#
# Youngs Moduli (GPa) = 79.40824 58.23310 73.61268
#
# Poissons Ratio (x) = 0.49090 0.18293
# Poissons Ratio (y) = 0.66941 0.19697
# Poissons Ratio (z) = 0.19733 0.15582
#
# Static dielectric constant tensor:
#      x y z
#    x 1.694640 0.000010 0.000030 
#    y 0.000010 1.662920 0.000000 
#    z 0.000030 0.000000 1.587070 
# 
# From -- ./inp_files/2915.got.cif
#   From: 2010.05.17/outbox.cif.g08.bks.cpg/sg22_2_cif.got.tgz:2915.got - 2010.06.03 23:40:54.
