data_PCOD9327448
_publ_section_title
;
Structure prediction by ZEFSAII (Michael W. Deem and Ramdas Pophale) SiO2 
 PCOD9327448
Probable space group: F 2 2 2
;
_chemical_formula_sum "Si O2"
_cell_formula_units_Z 104
_cell_length_a 23.667798
_cell_length_b 30.338207
_cell_length_c 7.439703
_cell_angle_alpha 90.000000
_cell_angle_beta 90.000000
_cell_angle_gamma 90.000000
_cell_volume 5341.993591
_symmetry_space_group_name_H-M "F 2 2 2"
_symmetry_group_IT_number 22
_symmetry_cell_setting 'orthorhombic'
loop_
_space_group_symop_operation_xyz
x,y,z
-x,-y,z
x,-y,-z
-x,y,-z
x,1/2+y,1/2+z
-x,1/2-y,1/2+z
x,1/2-y,1/2-z
-x,1/2+y,1/2-z
1/2+x,y,1/2+z
1/2-x,-y,1/2+z
1/2+x,-y,1/2-z
1/2-x,y,1/2-z
1/2+x,1/2+y,z
1/2-x,1/2-y,z
1/2+x,1/2-y,-z
1/2-x,1/2+y,-z
loop_
_atom_site_type_symbol
_atom_site_label
_atom_site_fract_x
_atom_site_fract_y
_atom_site_fract_z
Si Si1 0.183441 0.112356 0.713702
Si Si2 0.378048 0.799135 0.786825
Si Si3 0.378050 0.200865 0.786813
Si Si4 0.623195 0.948058 0.499978
Si Si5 0.316557 0.887647 0.786343
Si Si6 0.500000 0.091273 0.500000
Si Si7 0.499999 0.169149 0.218409
O O1 0.250000 0.110199 0.750000
O O2 0.159480 0.159962 0.777251
O O3 0.151418 0.075360 0.827525
O O4 0.173387 0.107587 0.500019
O O5 0.357132 0.750000 0.750000
O O6 0.340520 0.840041 0.722767
O O7 0.442830 0.805657 0.725630
O O8 0.379478 0.803416 0.000005
O O9 0.357133 0.250000 0.750000
O O10 0.442833 0.194344 0.725626
O O11 0.651417 0.924645 0.327468
O O12 0.556843 0.936959 0.499986
O O13 0.633098 0.000000 0.500000
O O14 0.250000 0.889804 0.750000
O O15 0.500002 0.123175 0.325145
O O16 0.500000 0.163504 0.000000
#
# Coordination Sequence:
#
# PCOD9327448 Si02
#       7
#    16  16  16  16  16   8  16
#     4  11  24  45  67  96 136 174 219 276 325 389
#     4  10  22  36  60  93 131 176 221 264 324 382
#     4  10  22  36  60  93 131 176 221 264 324 382
#     4  12  27  46  72 100 129 170 222 276 338 396
#     4  11  24  45  67  96 136 174 219 276 325 389
#     4  12  23  42  76  90 132 176 210 274 341 386
#     4  10  21  38  59  92 131 173 219 273 322 381
#
# _framework density 19.468387
#
# number of rings (size 3 to 8) (size 9 to 14) (size 15 to 20)
#    0.000    1.231    4.615    0.692    4.308    1.846 
#    0.000    3.077    0.000    2.769    0.000    0.000 
#    0.000    0.000    0.000    0.000    0.000    0.000 
#
# Total GULP energy -145262.394616 kJ/mol
# GULP energy per Si atom -5587.015178 kJ/mol
# Density = 1.942408 g / cm^3
# Si number density = 19.468387 Si / 1000 Ang^3
#
#
#
# Elastic Constant Matrix: (Units=GPa)
#
#
# Indices 1 2 3 4 5 6 
#
# 1 140.1145 76.3946 32.2249 0.0064 -0.0051 -0.0032
# 2 76.3946 196.2040 52.0242 0.0039 -0.0349 -0.0025
# 3 32.2249 52.0242 109.7152 0.0166 -0.1124 -0.0020
# 4 0.0064 0.0039 0.0166 23.9900 -0.0398 -0.0030
# 5 -0.0051 -0.0349 -0.1124 -0.0398 9.7547 -0.0385
# 6 -0.0032 -0.0025 -0.0020 -0.0030 -0.0385 -0.1076
#
#
#
# Elastic Compliance Matrix: (Units=1/GPa)
#
#
# Indices 1 2 3 4 5 6 
#
# 1 0.009185 -0.003272 -0.001146 -0.000001 -0.000021 -0.000169
# 2 -0.003272 0.006996 -0.002356 0.000001 -0.000004 -0.000020
# 3 -0.001146 -0.002356 0.010568 -0.000006 0.000112 -0.000145
# 4 -0.000001 0.000001 -0.000006 0.041684 0.000165 -0.001204
# 5 -0.000021 -0.000004 0.000112 0.000165 0.102371 -0.036645
# 6 -0.000169 -0.000020 -0.000145 -0.001204 -0.036645 -9.278530
#
#
# Mechanical properties :
#
#
# Convention : Reuss Voigt Hill
#
# Bulk Modulus (GPa) = 75.75792 85.25790 80.50791
# Shear Modulus (GPa) = -0.55007 25.75343 12.60168
#
# Velocity S-wave (km/s) = -0.53213 3.64102 2.54695
# Velocity P-wave (km/s) = 6.21452 7.84628 7.07758
#
# Compressibility (1/GPa) = 0.01319994
#
# Stress axis : x y z
#
# Youngs Moduli (GPa) = 108.87591 142.94784 94.62181
#
# Poissons Ratio (x) = 0.46777 0.10844
# Poissons Ratio (y) = 0.35628 0.22293
# Poissons Ratio (z) = 0.12478 0.33678
#
# Static dielectric constant tensor:
#      x y z
#    x 1.679620 0.000000 0.000000 
#    y 0.000000 1.668880 0.000000 
#    z 0.000000 0.000000 1.710820 
# 
# From -- ./inp_files/14039.got.cif
#   From: 2010.05.17/outbox.cif.g08.bks.cpg/sg22_8_cif.got.tgz:14039.got - 2010.06.03 23:40:54.
