data_PCOD9327920
_publ_section_title
;
Structure prediction by ZEFSAII (Michael W. Deem and Ramdas Pophale) SiO2 
 PCOD9327920
Probable space group: F 2 2 2
;
_chemical_formula_sum "Si O2"
_cell_formula_units_Z 56
_cell_length_a 14.249122
_cell_length_b 17.210707
_cell_length_c 11.206949
_cell_angle_alpha 90.000000
_cell_angle_beta 90.000000
_cell_angle_gamma 90.000000
_cell_volume 2748.363749
_symmetry_space_group_name_H-M "F 2 2 2"
_symmetry_group_IT_number 22
_symmetry_cell_setting 'orthorhombic'
loop_
_space_group_symop_operation_xyz
x,y,z
-x,-y,z
x,-y,-z
-x,y,-z
x,1/2+y,1/2+z
-x,1/2-y,1/2+z
x,1/2-y,1/2-z
-x,1/2+y,1/2-z
1/2+x,y,1/2+z
1/2-x,-y,1/2+z
1/2+x,-y,1/2-z
1/2-x,y,1/2-z
1/2+x,1/2+y,z
1/2-x,1/2-y,z
1/2+x,1/2-y,-z
1/2-x,1/2+y,-z
loop_
_atom_site_type_symbol
_atom_site_label
_atom_site_fract_x
_atom_site_fract_y
_atom_site_fract_z
Si Si1 0.397196 0.111448 0.061318
Si Si2 0.593852 0.451392 0.821056
Si Si3 0.058429 0.274199 0.378329
Si Si4 0.748051 0.000000 0.500000
O O1 0.400193 0.058035 0.179059
O O2 0.374456 0.199831 0.100465
O O3 0.315287 0.074259 0.984270
O O4 0.500000 0.109267 0.000000
O O5 0.500000 0.500000 0.850519
O O6 0.592469 0.361894 0.864747
O O7 0.681105 0.490213 0.886235
O O8 0.011255 0.250000 0.250000
O O9 0.000000 0.274987 0.500000
#
# Coordination Sequence:
#
# PCOD9327920 Si02
#       4
#    16  16  16   8
#     4  10  22  40  61  85 121 165 207 251 308 375
#     4  11  22  38  61  89 122 159 205 259 311 364
#     4   9  19  37  60  87 121 163 206 254 313 373
#     4  12  22  34  56  88 118 154 202 252 300 356
#
# _framework density 20.375761000000001
#
# number of rings (size 3 to 8) (size 9 to 14) (size 15 to 20)
#    0.000    1.714    0.000    5.143    0.000    1.143 
#    0.000    7.143    0.000    0.000    0.000    6.000 
#    0.000    0.000    0.000    0.000    0.000    0.000 
#
# Total GULP energy -78026.177912 kJ/mol
# GULP energy per Si atom -5573.298422 kJ/mol
# Density = 2.032938 g / cm^3
# Si number density = 20.375761 Si / 1000 Ang^3
#
#
#
# Elastic Constant Matrix: (Units=GPa)
#
#
# Indices 1 2 3 4 5 6 
#
# 1 116.8739 74.0221 41.1666 0.0000 0.0000 0.0000
# 2 74.0221 150.1944 49.5592 0.0000 0.0000 0.0000
# 3 41.1666 49.5592 122.4924 0.0000 0.0000 0.0000
# 4 0.0000 0.0000 0.0000 37.2324 0.0000 0.0000
# 5 0.0000 0.0000 0.0000 0.0000 29.6347 0.0000
# 6 0.0000 0.0000 0.0000 0.0000 0.0000 45.4732
#
#
#
# Elastic Compliance Matrix: (Units=1/GPa)
#
#
# Indices 1 2 3 4 5 6 
#
# 1 0.012861 -0.005669 -0.002029 0.000000 0.000000 0.000000
# 2 -0.005669 0.010183 -0.002215 0.000000 0.000000 0.000000
# 3 -0.002029 -0.002215 0.009742 0.000000 0.000000 0.000000
# 4 0.000000 0.000000 0.000000 0.026858 0.000000 0.000000
# 5 0.000000 0.000000 0.000000 0.000000 0.033744 0.000000
# 6 0.000000 0.000000 0.000000 0.000000 0.000000 0.021991
#
#
# Mechanical properties :
#
#
# Convention : Reuss Voigt Hill
#
# Bulk Modulus (GPa) = 77.15580 79.89516 78.52548
# Shear Modulus (GPa) = 35.83598 37.45558 36.64578
#
# Velocity S-wave (km/s) = 4.19830 4.29212 4.24547
# Velocity P-wave (km/s) = 7.83898 7.99119 7.91545
#
# Compressibility (1/GPa) = 0.01296079
#
# Stress axis : x y z
#
# Youngs Moduli (GPa) = 77.75201 98.20470 102.65304
#
# Poissons Ratio (x) = 0.55675 0.20825
# Poissons Ratio (y) = 0.44079 0.22733
# Poissons Ratio (z) = 0.15773 0.21748
#
# Static dielectric constant tensor:
#      x y z
#    x 1.721460 0.000000 0.000000 
#    y 0.000000 1.773720 0.000000 
#    z 0.000000 0.000000 1.773000 
# 
# From -- ./inp_files/17660.got.cif
#   From: 2010.05.17/outbox.cif.g08.bks.cpg/sg22_9_cif.got.tgz:17660.got - 2010.06.03 23:40:54.
