data_PCOD9327085
_publ_section_title
;
Structure prediction by ZEFSAII (Michael W. Deem and Ramdas Pophale) SiO2 
 PCOD9327085
Probable space group: F 2 2 2
;
_chemical_formula_sum "Si O2"
_cell_formula_units_Z 84
_cell_length_a 22.274123
_cell_length_b 11.094768
_cell_length_c 17.123771
_cell_angle_alpha 90.000000
_cell_angle_beta 90.000000
_cell_angle_gamma 90.000000
_cell_volume 4231.732921
_symmetry_space_group_name_H-M "F 2 2 2"
_symmetry_group_IT_number 22
_symmetry_cell_setting 'orthorhombic'
loop_
_space_group_symop_operation_xyz
x,y,z
-x,-y,z
x,-y,-z
-x,y,-z
x,1/2+y,1/2+z
-x,1/2-y,1/2+z
x,1/2-y,1/2-z
-x,1/2+y,1/2-z
1/2+x,y,1/2+z
1/2-x,-y,1/2+z
1/2+x,-y,1/2-z
1/2-x,y,1/2-z
1/2+x,1/2+y,z
1/2-x,1/2-y,z
1/2+x,1/2-y,-z
1/2-x,1/2+y,-z
loop_
_atom_site_type_symbol
_atom_site_label
_atom_site_fract_x
_atom_site_fract_y
_atom_site_fract_z
Si Si1 0.312311 0.518002 0.849255
Si Si2 0.593184 0.686339 0.070986
Si Si3 0.315777 0.231121 0.563051
Si Si4 0.180246 0.965198 0.332215
Si Si5 0.939810 0.554690 0.088361
Si Si6 0.500000 0.500000 0.000000
O O1 0.356360 0.625806 0.873625
O O2 0.322922 0.403783 0.905039
O O3 0.240563 0.538409 0.855715
O O4 0.323148 0.473616 0.760959
O O5 0.556235 0.802035 0.097503
O O6 0.630746 0.741885 0.998130
O O7 0.545197 0.584656 0.048438
O O8 0.250000 0.250000 0.525230
O O9 0.315345 0.329820 0.632600
O O10 0.121163 0.018643 0.369810
O O11 0.000000 0.500000 0.124299
O O12 0.936834 0.500000 0.000000
#
# Coordination Sequence:
#
# PCOD9327085 Si02
#       6
#    16  16  16  16  16   4
#     4  10  22  40  64 101 132 165 217 266 340 373
#     4  12  24  40  68  95 128 168 218 280 325 381
#     4  10  20  38  66  96 128 168 217 264 319 391
#     4  10  22  41  66  93 136 174 206 271 322 398
#     4  11  24  42  64  91 126 171 226 261 326 398
#     4  12  24  44  62  92 136 160 208 278 332 376
#
# _framework density 19.850024000000001
#
# number of rings (size 3 to 8) (size 9 to 14) (size 15 to 20)
#    0.000    1.333    3.810    1.714    2.667    3.048 
#    1.714    1.905    0.000    0.000    0.000    0.000 
#    0.000    0.000    0.000    0.000    0.000    0.000 
#
# Total GULP energy -117180.858739 kJ/mol
# GULP energy per Si atom -5580.040892 kJ/mol
# Density = 1.980484 g / cm^3
# Si number density = 19.850024 Si / 1000 Ang^3
#
#
#
# Elastic Constant Matrix: (Units=GPa)
#
#
# Indices 1 2 3 4 5 6 
#
# 1 141.6258 53.2207 36.4372 0.0000 0.0000 0.0000
# 2 53.2207 113.0390 5.3799 0.0000 0.0000 0.0000
# 3 36.4372 5.3799 40.6881 0.0000 0.0000 0.0000
# 4 0.0000 0.0000 0.0000 -407.5621 0.0000 0.0000
# 5 0.0000 0.0000 0.0000 0.0000 -4.6494 0.0000
# 6 0.0000 0.0000 0.0000 0.0000 0.0000 15.3090
#
#
#
# Elastic Compliance Matrix: (Units=1/GPa)
#
#
# Indices 1 2 3 4 5 6 
#
# 1 0.011346 -0.004889 -0.009514 0.000000 0.000000 0.000000
# 2 -0.004889 0.011009 0.002923 0.000000 0.000000 0.000000
# 3 -0.009514 0.002923 0.032711 0.000000 0.000000 0.000000
# 4 0.000000 0.000000 0.000000 -0.002454 0.000000 0.000000
# 5 0.000000 0.000000 0.000000 0.000000 -0.215081 0.000000
# 6 0.000000 0.000000 0.000000 0.000000 0.000000 0.065321
#
#
# Mechanical properties :
#
#
# Convention : Reuss Voigt Hill
#
# Bulk Modulus (GPa) = 31.14787 53.93649 42.54218
# Shear Modulus (GPa) = -78.75806 -66.02616 -72.39211
#
# Velocity S-wave (km/s) = -6.30577 -5.77362 -6.04555
# Velocity P-wave (km/s) = 6.10666 4.14913 5.22047
#
# Compressibility (1/GPa) = 0.03210493
#
# Stress axis : x y z
#
# Youngs Moduli (GPa) = 88.13818 90.83275 30.57094
#
# Poissons Ratio (x) = 0.44408 0.29085
# Poissons Ratio (y) = 0.43091 -0.08935
# Poissons Ratio (z) = 0.83855 -0.26546
#
# Static dielectric constant tensor:
#      x y z
#    x 2.471390 0.000000 0.000000 
#    y 0.000000 1.817140 0.000000 
#    z 0.000000 0.000000 1.752180 
# 
# From -- ./inp_files/42586.got.cif
#   From: 2010.05.17/outbox.cif.g08.bks.cpg/sg22_22_cif.got.tgz:42586.got - 2010.06.03 23:40:54.
