data_PCOD9327590
_publ_section_title
;
Structure prediction by ZEFSAII (Michael W. Deem and Ramdas Pophale) SiO2 
 PCOD9327590
Probable space group: F 2 2 2
;
_chemical_formula_sum "Si O2"
_cell_formula_units_Z 92
_cell_length_a 18.661214
_cell_length_b 9.123162
_cell_length_c 24.360018
_cell_angle_alpha 90.000000
_cell_angle_beta 90.000000
_cell_angle_gamma 90.000000
_cell_volume 4147.275487
_symmetry_space_group_name_H-M "F 2 2 2"
_symmetry_group_IT_number 22
_symmetry_cell_setting 'orthorhombic'
loop_
_space_group_symop_operation_xyz
x,y,z
-x,-y,z
x,-y,-z
-x,y,-z
x,1/2+y,1/2+z
-x,1/2-y,1/2+z
x,1/2-y,1/2-z
-x,1/2+y,1/2-z
1/2+x,y,1/2+z
1/2-x,-y,1/2+z
1/2+x,-y,1/2-z
1/2-x,y,1/2-z
1/2+x,1/2+y,z
1/2-x,1/2-y,z
1/2+x,1/2-y,-z
1/2-x,1/2+y,-z
loop_
_atom_site_type_symbol
_atom_site_label
_atom_site_fract_x
_atom_site_fract_y
_atom_site_fract_z
Si Si1 0.637263 0.995820 0.877947
Si Si2 0.000000 0.251627 0.000000
Si Si3 0.250000 0.250000 0.250000
Si Si4 0.380941 0.500000 0.500000
Si Si5 0.923375 0.298811 0.607179
Si Si6 0.000000 0.000000 0.194291
Si Si7 0.795463 0.563252 0.345970
Si Si8 0.374598 0.789421 0.306049
O O1 0.578595 0.125883 0.879219
O O2 0.710485 0.048831 0.850852
O O3 0.611514 0.849892 0.845966
O O4 0.659138 0.990618 0.942491
O O5 0.067292 0.359774 0.992824
O O6 0.026355 0.170169 0.054663
O O7 0.199049 0.347783 0.288908
O O8 0.954595 0.390754 0.656685
O O9 0.840271 0.352491 0.606559
O O10 0.058704 0.887664 0.218070
O O11 0.828068 0.402235 0.341321
O O12 0.334530 0.750000 0.250000
#
# Coordination Sequence:
#
# PCOD9327590 Si02
#       8
#    16   8   4   8  16   8  16  16
#     4  11  21  42  66  95 132 177 229 283 343 417
#     4   9  18  37  64  92 122 174 224 270 346 404
#     4  12  20  40  70  96 136 184 222 272 356 436
#     4   9  20  36  66  94 124 175 228 278 338 407
#     4  10  21  40  63  91 132 172 223 280 334 411
#     4  10  24  41  58  94 132 167 232 282 338 410
#     4  11  23  40  65 100 134 176 227 283 349 419
#     4  11  25  42  64  97 136 177 227 287 352 420
#
# _framework density 22.183239
#
# number of rings (size 3 to 8) (size 9 to 14) (size 15 to 20)
#    0.000    1.565    1.739    2.609    0.000    4.522 
#    3.130   12.174    0.000    1.043    0.000    0.000 
#    0.000    0.000    0.000    0.000    0.000    0.000 
#
# Total GULP energy -128077.392613 kJ/mol
# GULP energy per Si atom -5568.582288 kJ/mol
# Density = 2.213275 g / cm^3
# Si number density = 22.183239 Si / 1000 Ang^3
#
#
#
# Elastic Constant Matrix: (Units=GPa)
#
#
# Indices 1 2 3 4 5 6 
#
# 1 57.7390 17.4005 13.9394 0.0000 0.0000 0.0000
# 2 17.4005 136.1388 51.2968 0.0000 0.0000 0.0000
# 3 13.9394 51.2968 105.5657 0.0000 0.0000 0.0000
# 4 0.0000 0.0000 0.0000 4.7289 0.0000 0.0000
# 5 0.0000 0.0000 0.0000 0.0000 18.3966 0.0000
# 6 0.0000 0.0000 0.0000 0.0000 0.0000 15.1002
#
#
#
# Elastic Compliance Matrix: (Units=1/GPa)
#
#
# Indices 1 2 3 4 5 6 
#
# 1 0.018221 -0.001741 -0.001560 0.000000 0.000000 0.000000
# 2 -0.001741 0.009158 -0.004220 0.000000 0.000000 0.000000
# 3 -0.001560 -0.004220 0.011729 0.000000 0.000000 0.000000
# 4 0.000000 0.000000 0.000000 0.211464 0.000000 0.000000
# 5 0.000000 0.000000 0.000000 0.000000 0.054358 0.000000
# 6 0.000000 0.000000 0.000000 0.000000 0.000000 0.066224
#
#
# Mechanical properties :
#
#
# Convention : Reuss Voigt Hill
#
# Bulk Modulus (GPa) = 41.55283 51.63521 46.59402
# Shear Modulus (GPa) = 12.68332 22.09893 17.39112
#
# Velocity S-wave (km/s) = 2.39373 3.15969 2.80299
# Velocity P-wave (km/s) = 5.13928 6.05299 5.61475
#
# Compressibility (1/GPa) = 0.02406575
#
# Stress axis : x y z
#
# Youngs Moduli (GPa) = 54.88284 109.19217 85.25537
#
# Poissons Ratio (x) = 0.19011 0.13299
# Poissons Ratio (y) = 0.09556 0.35980
# Poissons Ratio (z) = 0.08561 0.46082
#
# Static dielectric constant tensor:
#      x y z
#    x 1.886400 0.000000 0.000000 
#    y 0.000000 1.900210 0.000000 
#    z 0.000000 0.000000 1.850630 
# 
# From -- ./inp_files/49874.got.cif
#   From: 2010.05.17/outbox.cif.g08.bks.cpg/sg22_25_cif.got.tgz:49874.got - 2010.06.03 23:40:54.
