data_PCOD9327937
_publ_section_title
;
Structure prediction by ZEFSAII (Michael W. Deem and Ramdas Pophale) SiO2 
 PCOD9327937
Probable space group: F 2 2 2
;
_chemical_formula_sum "Si O2"
_cell_formula_units_Z 112
_cell_length_a 26.177203
_cell_length_b 13.997272
_cell_length_c 14.258388
_cell_angle_alpha 90.000000
_cell_angle_beta 90.000000
_cell_angle_gamma 90.000000
_cell_volume 5224.407828
_symmetry_space_group_name_H-M "F 2 2 2"
_symmetry_group_IT_number 22
_symmetry_cell_setting 'orthorhombic'
loop_
_space_group_symop_operation_xyz
x,y,z
-x,-y,z
x,-y,-z
-x,y,-z
x,1/2+y,1/2+z
-x,1/2-y,1/2+z
x,1/2-y,1/2-z
-x,1/2+y,1/2-z
1/2+x,y,1/2+z
1/2-x,-y,1/2+z
1/2+x,-y,1/2-z
1/2-x,y,1/2-z
1/2+x,1/2+y,z
1/2-x,1/2-y,z
1/2+x,1/2-y,-z
1/2-x,1/2+y,-z
loop_
_atom_site_type_symbol
_atom_site_label
_atom_site_fract_x
_atom_site_fract_y
_atom_site_fract_z
Si Si1 0.349678 0.833336 0.670396
Si Si2 0.280015 0.006653 0.612025
Si Si3 0.368464 0.139894 0.671812
Si Si4 0.870714 0.778296 0.507815
Si Si5 0.169742 0.075567 0.638071
Si Si6 0.425305 0.560095 0.589504
Si Si7 0.445699 0.032495 0.295590
O O1 0.344936 0.750000 0.750000
O O2 0.307689 0.918185 0.665748
O O3 0.344453 0.785458 0.569458
O O4 0.406277 0.883095 0.673604
O O5 0.273281 0.000000 0.500000
O O6 0.319624 0.093178 0.622624
O O7 0.224770 0.031565 0.652682
O O8 0.388379 0.218465 0.598422
O O9 0.347025 0.146897 0.778097
O O10 0.412186 0.061826 0.687788
O O11 0.832763 0.859521 0.545974
O O12 0.914439 0.835797 0.452002
O O13 0.127650 0.992512 0.622637
O O14 0.443919 0.500000 0.500000
O O15 0.455766 0.558910 0.686144
O O16 0.500000 0.000000 0.338471
#
# Coordination Sequence:
#
# PCOD9327937 Si02
#       7
#    16  16  16  16  16  16  16
#     4  11  23  43  68  99 136 178 229 297 341 405
#     4  11  21  40  65  93 138 182 227 274 338 416
#     4  10  22  40  66  93 134 176 221 281 347 406
#     4  11  20  40  67  93 130 175 222 279 333 407
#     4  10  22  40  64  94 134 182 224 269 343 413
#     4   9  19  38  66  91 130 172 214 275 343 404
#     4  10  22  42  70  95 132 180 220 281 366 419
#
# _framework density 21.437836999999998
#
# number of rings (size 3 to 8) (size 9 to 14) (size 15 to 20)
#    0.000    1.714    2.857    2.143    0.000    0.857 
#    5.143    7.143   22.000    0.000    0.000    0.000 
#    0.000    0.000    0.000    0.000    0.000    0.000 
#
# Total GULP energy -155969.558397 kJ/mol
# GULP energy per Si atom -5570.341371 kJ/mol
# Density = 2.138904 g / cm^3
# Si number density = 21.437837 Si / 1000 Ang^3
#
#
#
# Elastic Constant Matrix: (Units=GPa)
#
#
# Indices 1 2 3 4 5 6 
#
# 1 95.8820 21.6510 14.2264 0.0000 0.0000 0.0000
# 2 21.6510 81.2420 36.6394 0.0000 0.0000 0.0000
# 3 14.2264 36.6394 108.2570 0.0000 0.0000 0.0000
# 4 0.0000 0.0000 0.0000 45.3639 0.0000 0.0000
# 5 0.0000 0.0000 0.0000 0.0000 7.8595 0.0000
# 6 0.0000 0.0000 0.0000 0.0000 0.0000 -0.0444
#
#
#
# Elastic Compliance Matrix: (Units=1/GPa)
#
#
# Indices 1 2 3 4 5 6 
#
# 1 0.011124 -0.002721 -0.000541 0.000000 0.000000 0.000000
# 2 -0.002721 0.015191 -0.004784 0.000000 0.000000 0.000000
# 3 -0.000541 -0.004784 0.010928 0.000000 0.000000 0.000000
# 4 0.000000 0.000000 0.000000 0.022044 0.000000 0.000000
# 5 0.000000 0.000000 0.000000 0.000000 0.127234 0.000000
# 6 0.000000 0.000000 0.000000 0.000000 0.000000-22.542307
#
#
# Mechanical properties :
#
#
# Convention : Reuss Voigt Hill
#
# Bulk Modulus (GPa) = 47.27729 47.82384 47.55056
# Shear Modulus (GPa) = -0.22389 24.82677 12.30144
#
# Velocity S-wave (km/s) = -0.32352 3.40675 2.39805
# Velocity P-wave (km/s) = 4.68631 6.15071 5.46776
#
# Compressibility (1/GPa) = 0.02115180
#
# Stress axis : x y z
#
# Youngs Moduli (GPa) = 89.89496 65.82636 91.51205
#
# Poissons Ratio (x) = 0.17908 0.04952
# Poissons Ratio (y) = 0.24456 0.43780
# Poissons Ratio (z) = 0.04864 0.31491
#
# Static dielectric constant tensor:
#      x y z
#    x 1.762110 0.000000 0.000000 
#    y 0.000000 1.834420 0.000000 
#    z 0.000000 0.000000 1.849090 
# 
# From -- ./inp_files/33173.got.cif
#   From: 2010.05.17/outbox.cif.g08.bks.cpg/sg22_17_cif.got.tgz:33173.got - 2010.06.03 23:40:54.
