data_PCOD9327077
_publ_section_title
;
Structure prediction by ZEFSAII (Michael W. Deem and Ramdas Pophale) SiO2 
 PCOD9327077
Probable space group: F 2 2 2
;
_chemical_formula_sum "Si O2"
_cell_formula_units_Z 80
_cell_length_a 21.192863
_cell_length_b 8.225256
_cell_length_c 22.354796
_cell_angle_alpha 90.000000
_cell_angle_beta 90.000000
_cell_angle_gamma 90.000000
_cell_volume 3896.814794
_symmetry_space_group_name_H-M "F 2 2 2"
_symmetry_group_IT_number 22
_symmetry_cell_setting 'orthorhombic'
loop_
_space_group_symop_operation_xyz
x,y,z
-x,-y,z
x,-y,-z
-x,y,-z
x,1/2+y,1/2+z
-x,1/2-y,1/2+z
x,1/2-y,1/2-z
-x,1/2+y,1/2-z
1/2+x,y,1/2+z
1/2-x,-y,1/2+z
1/2+x,-y,1/2-z
1/2-x,y,1/2-z
1/2+x,1/2+y,z
1/2-x,1/2-y,z
1/2+x,1/2-y,-z
1/2-x,1/2+y,-z
loop_
_atom_site_type_symbol
_atom_site_label
_atom_site_fract_x
_atom_site_fract_y
_atom_site_fract_z
Si Si1 0.500000 0.000000 0.628960
Si Si2 0.114955 0.145606 0.809266
Si Si3 0.891981 0.647547 0.452892
Si Si4 0.793402 0.602775 0.345565
Si Si5 0.620248 0.500000 0.500000
Si Si6 0.801595 0.855724 0.601840
O O1 0.455798 0.111312 0.670021
O O2 0.547893 0.100217 0.587405
O O3 0.118930 0.250000 0.750000
O O4 0.149787 0.243534 0.862520
O O5 0.152732 0.975148 0.803841
O O6 0.882177 0.500000 0.500000
O O7 0.831433 0.647973 0.407339
O O8 0.907291 0.819283 0.485959
O O9 0.750000 0.750000 0.324969
O O10 0.742545 0.459439 0.354979
O O11 0.661645 0.529173 0.558278
O O12 0.750000 0.750000 0.565669
#
# Coordination Sequence:
#
# PCOD9327077 Si02
#       6
#     8  16  16  16   8  16
#     4  10  23  48  64  88 136 173 234 296 332 378
#     4  10  23  47  69  90 122 178 230 282 343 389
#     4  11  23  39  67 101 141 183 220 271 333 401
#     4  10  20  38  65  99 139 163 206 271 335 409
#     4  12  22  36  67 104 138 183 218 262 334 426
#     4  10  22  36  61 100 136 169 211 263 331 414
#
# _framework density 20.529586999999999
#
# number of rings (size 3 to 8) (size 9 to 14) (size 15 to 20)
#    0.000    1.600    2.000    3.900    4.200    3.600 
#    3.600    9.000    0.000    0.000    0.000    0.000 
#    0.000    0.000    0.000    0.000    0.000    0.000 
#
# Total GULP energy -111526.595686 kJ/mol
# GULP energy per Si atom -5576.329784 kJ/mol
# Density = 2.048286 g / cm^3
# Si number density = 20.529587 Si / 1000 Ang^3
#
#
#
# Elastic Constant Matrix: (Units=GPa)
#
#
# Indices 1 2 3 4 5 6 
#
# 1 104.2272 34.9505 35.9301 0.0000 0.0000 0.0000
# 2 34.9505 120.0761 33.3938 0.0000 0.0000 0.0000
# 3 35.9301 33.3938 76.4464 0.0000 0.0000 0.0000
# 4 0.0000 0.0000 0.0000 35.5155 0.0000 0.0000
# 5 0.0000 0.0000 0.0000 0.0000 15.9586 0.0000
# 6 0.0000 0.0000 0.0000 0.0000 0.0000 20.8362
#
#
#
# Elastic Compliance Matrix: (Units=1/GPa)
#
#
# Indices 1 2 3 4 5 6 
#
# 1 0.011930 -0.002178 -0.004656 0.000000 0.000000 0.000000
# 2 -0.002178 0.009877 -0.003291 0.000000 0.000000 0.000000
# 3 -0.004656 -0.003291 0.016707 0.000000 0.000000 0.000000
# 4 0.000000 0.000000 0.000000 0.028157 0.000000 0.000000
# 5 0.000000 0.000000 0.000000 0.000000 0.062662 0.000000
# 6 0.000000 0.000000 0.000000 0.000000 0.000000 0.047993
#
#
# Mechanical properties :
#
#
# Convention : Reuss Voigt Hill
#
# Bulk Modulus (GPa) = 54.75013 56.58875 55.66944
# Shear Modulus (GPa) = 24.55039 27.56044 26.05541
#
# Velocity S-wave (km/s) = 3.46186 3.66795 3.56640
# Velocity P-wave (km/s) = 6.53499 6.75002 6.64338
#
# Compressibility (1/GPa) = 0.01826480
#
# Stress axis : x y z
#
# Youngs Moduli (GPa) = 83.82519 101.24370 59.85542
#
# Poissons Ratio (x) = 0.22046 0.27867
# Poissons Ratio (y) = 0.18253 0.19699
# Poissons Ratio (z) = 0.39027 0.33321
#
# Static dielectric constant tensor:
#      x y z
#    x 1.730600 0.000000 0.000000 
#    y 0.000000 1.830300 0.000000 
#    z 0.000000 0.000000 1.729740 
# 
# From -- ./inp_files/12577.got.cif
#   From: 2010.05.17/outbox.cif.g08.bks.cpg/sg22_7_cif.got.tgz:12577.got - 2010.06.03 23:40:54.
