data_PCOD9327367
_publ_section_title
;
Structure prediction by ZEFSAII (Michael W. Deem and Ramdas Pophale) SiO2 
 PCOD9327367
Probable space group: F 2 2 2
;
_chemical_formula_sum "Si O2"
_cell_formula_units_Z 52
_cell_length_a 32.349858
_cell_length_b 14.153563
_cell_length_c 5.210419
_cell_angle_alpha 90.000000
_cell_angle_beta 90.000000
_cell_angle_gamma 90.000000
_cell_volume 2385.672420
_symmetry_space_group_name_H-M "F 2 2 2"
_symmetry_group_IT_number 22
_symmetry_cell_setting 'orthorhombic'
loop_
_space_group_symop_operation_xyz
x,y,z
-x,-y,z
x,-y,-z
-x,y,-z
x,1/2+y,1/2+z
-x,1/2-y,1/2+z
x,1/2-y,1/2-z
-x,1/2+y,1/2-z
1/2+x,y,1/2+z
1/2-x,-y,1/2+z
1/2+x,-y,1/2-z
1/2-x,y,1/2-z
1/2+x,1/2+y,z
1/2-x,1/2-y,z
1/2+x,1/2-y,-z
1/2-x,1/2+y,-z
loop_
_atom_site_type_symbol
_atom_site_label
_atom_site_fract_x
_atom_site_fract_y
_atom_site_fract_z
Si Si1 0.955644 0.184655 0.001543
Si Si2 0.135738 0.888843 0.981688
Si Si3 0.685319 0.615153 0.516758
Si Si4 0.750000 0.250000 0.750000
O O1 0.957558 0.250000 0.250000
O O2 0.912291 0.132136 0.019935
O O3 0.953631 0.250000 0.750000
O O4 0.000000 0.131041 0.000000
O O5 0.166385 0.856590 0.208435
O O6 0.150777 0.861716 0.698963
O O7 0.140304 0.000000 0.000000
O O8 0.693697 0.500000 0.500000
O O9 0.723595 0.678887 0.429063
#
# Coordination Sequence:
#
# PCOD9327367 Si02
#       4
#    16  16  16   4
#     4  10  21  36  60  94 129 165 213 263 307 381
#     4  10  22  42  64  91 130 168 209 269 326 381
#     4  10  25  44  66  99 131 165 223 279 323 407
#     4  12  28  46  76  96 128 190 216 278 372 388
#
# _framework density 21.796787999999999
#
# number of rings (size 3 to 8) (size 9 to 14) (size 15 to 20)
#    0.000    1.846    0.000    1.846    6.462    6.769 
#    0.000    0.000    0.000   11.077    0.000    0.000 
#    0.000    0.000    0.000    0.000    0.000    0.000 
#
# Total GULP energy -72596.770735 kJ/mol
# GULP energy per Si atom -5584.366980 kJ/mol
# Density = 2.174718 g / cm^3
# Si number density = 21.796788 Si / 1000 Ang^3
#
#
#
# Elastic Constant Matrix: (Units=GPa)
#
#
# Indices 1 2 3 4 5 6 
#
# 1 154.6305 42.3691 28.6471 0.0000 0.0000 0.0003
# 2 42.3691 89.9079 13.5768 0.0000 0.0000 0.0002
# 3 28.6471 13.5768 121.9079 0.0001 0.0002 0.0011
# 4 0.0000 0.0000 0.0001 10.3396 0.0001 0.0004
# 5 0.0000 0.0000 0.0002 0.0001 31.8909 -0.0001
# 6 0.0003 0.0002 0.0011 0.0004 -0.0001 -349.5462
#
#
#
# Elastic Compliance Matrix: (Units=1/GPa)
#
#
# Indices 1 2 3 4 5 6 
#
# 1 0.007661 -0.003395 -0.001422 0.000000 0.000000 0.000000
# 2 -0.003395 0.012818 -0.000630 0.000000 0.000000 0.000000
# 3 -0.001422 -0.000630 0.008607 0.000000 0.000000 0.000000
# 4 0.000000 0.000000 0.000000 0.096716 0.000000 0.000000
# 5 0.000000 0.000000 0.000000 0.000000 0.031357 0.000000
# 6 0.000000 0.000000 0.000000 0.000000 0.000000 -0.002861
#
#
# Mechanical properties :
#
#
# Convention : Reuss Voigt Hill
#
# Bulk Modulus (GPa) = 54.97072 59.51470 57.24271
# Shear Modulus (GPa) = 29.19613 -42.67293 -6.73840
#
# Velocity S-wave (km/s) = 3.66385 -4.42946 -1.76016
# Velocity P-wave (km/s) = 6.57060 1.09702 4.71042
#
# Compressibility (1/GPa) = 0.01819150
#
# Stress axis : x y z
#
# Youngs Moduli (GPa) = 130.53405 78.01732 116.18170
#
# Poissons Ratio (x) = 0.26490 0.16522
# Poissons Ratio (y) = 0.44322 0.07315
# Poissons Ratio (z) = 0.18563 0.04912
#
# Static dielectric constant tensor:
#      x y z
#    x 1.839440 0.000000 0.000000 
#    y 0.000000 1.807800 0.000000 
#    z 0.000000 0.000000 1.874310 
# 
# From -- ./inp_files/1876.got.cif
#   From: 2010.05.17/outbox.cif.g08.bks.cpg/sg22_1_cif.got.tgz:1876.got - 2010.06.03 23:40:54.
