data_PCOD9327599
_publ_section_title
;
Structure prediction by ZEFSAII (Michael W. Deem and Ramdas Pophale) SiO2 
 PCOD9327599
Probable space group: F 2 2 2
;
_chemical_formula_sum "Si O2"
_cell_formula_units_Z 88
_cell_length_a 21.420570
_cell_length_b 20.587819
_cell_length_c 10.518731
_cell_angle_alpha 90.000000
_cell_angle_beta 90.000000
_cell_angle_gamma 90.000000
_cell_volume 4638.790013
_symmetry_space_group_name_H-M "F 2 2 2"
_symmetry_group_IT_number 22
_symmetry_cell_setting 'orthorhombic'
loop_
_space_group_symop_operation_xyz
x,y,z
-x,-y,z
x,-y,-z
-x,y,-z
x,1/2+y,1/2+z
-x,1/2-y,1/2+z
x,1/2-y,1/2-z
-x,1/2+y,1/2-z
1/2+x,y,1/2+z
1/2-x,-y,1/2+z
1/2+x,-y,1/2-z
1/2-x,y,1/2-z
1/2+x,1/2+y,z
1/2-x,1/2-y,z
1/2+x,1/2-y,-z
1/2-x,1/2+y,-z
loop_
_atom_site_type_symbol
_atom_site_label
_atom_site_fract_x
_atom_site_fract_y
_atom_site_fract_z
Si Si1 0.000000 0.311802 0.000000
Si Si2 0.250000 0.861285 0.750000
Si Si3 0.404588 0.419734 0.897546
Si Si4 0.118334 0.267646 0.601559
Si Si5 0.864831 0.548376 0.319433
Si Si6 0.750000 0.750000 0.460411
Si Si7 0.011642 0.428105 0.194954
O O1 0.002335 0.363053 0.883011
O O2 0.061889 0.267078 0.978477
O O3 0.195304 0.909408 0.793870
O O4 0.240942 0.812554 0.631211
O O5 0.389046 0.344757 0.896874
O O6 0.359204 0.470038 0.822030
O O7 0.470371 0.427969 0.824430
O O8 0.397141 0.437505 0.044918
O O9 0.114114 0.250000 0.750000
O O10 0.186529 0.253527 0.542522
O O11 0.915146 0.571442 0.218489
O O12 0.000000 0.500000 0.137912
#
# Coordination Sequence:
#
# PCOD9327599 Si02
#       7
#     8   8  16  16  16   8  16
#     4  12  25  38  66  95 128 166 212 264 312 375
#     4  11  22  42  66  96 121 162 216 260 317 368
#     4  10  21  41  63  92 125 162 211 254 308 377
#     4  12  25  44  63  93 132 172 212 252 319 384
#     4  10  21  40  68  91 125 163 210 263 310 371
#     4  11  25  44  66  90 131 169 208 262 320 381
#     4  10  21  40  64  93 127 163 208 264 317 366
#
# _framework density 18.970464
#
# number of rings (size 3 to 8) (size 9 to 14) (size 15 to 20)
#    0.000    1.273    3.636    2.182    2.545    2.182 
#    6.545    0.000    4.000    0.000    0.000    0.000 
#    0.000    0.000    0.000    0.000    0.000    0.000 
#
# Total GULP energy -122493.556974 kJ/mol
# GULP energy per Si atom -5567.888953 kJ/mol
# Density = 1.892729 g / cm^3
# Si number density = 18.970464 Si / 1000 Ang^3
#
#
#
# Elastic Constant Matrix: (Units=GPa)
#
#
# Indices 1 2 3 4 5 6 
#
# 1 127.2537 76.9575 56.7339 0.0000 0.0000 0.0000
# 2 76.9575 176.0554 31.2524 0.0000 0.0000 0.0000
# 3 56.7339 31.2524 67.2584 0.0000 0.0000 0.0000
# 4 0.0000 0.0000 0.0000 16.1089 0.0000 0.0000
# 5 0.0000 0.0000 0.0000 0.0000 19.5337 0.0000
# 6 0.0000 0.0000 0.0000 0.0000 0.0000 21.9246
#
#
#
# Elastic Compliance Matrix: (Units=1/GPa)
#
#
# Indices 1 2 3 4 5 6 
#
# 1 0.015736 -0.004929 -0.010983 0.000000 0.000000 0.000000
# 2 -0.004929 0.007734 0.000564 0.000000 0.000000 0.000000
# 3 -0.010983 0.000564 0.023871 0.000000 0.000000 0.000000
# 4 0.000000 0.000000 0.000000 0.062077 0.000000 0.000000
# 5 0.000000 0.000000 0.000000 0.000000 0.051193 0.000000
# 6 0.000000 0.000000 0.000000 0.000000 0.000000 0.045611
#
#
# Mechanical properties :
#
#
# Convention : Reuss Voigt Hill
#
# Bulk Modulus (GPa) = 60.08109 77.82834 68.95471
# Shear Modulus (GPa) = 20.62136 25.22171 22.92154
#
# Velocity S-wave (km/s) = 3.30058 3.65022 3.47980
# Velocity P-wave (km/s) = 6.80182 7.67337 7.25070
#
# Compressibility (1/GPa) = 0.01664417
#
# Stress axis : x y z
#
# Youngs Moduli (GPa) = 63.55006 129.29212 41.89237
#
# Poissons Ratio (x) = 0.63724 0.46011
# Poissons Ratio (y) = 0.31322 -0.02361
# Poissons Ratio (z) = 0.69798 -0.07287
#
# Static dielectric constant tensor:
#      x y z
#    x 1.637990 0.000000 0.000000 
#    y 0.000000 1.740690 0.000000 
#    z 0.000000 0.000000 2.173340 
# 
# From -- ./inp_files/22654.got.cif
#   From: 2010.05.17/outbox.cif.g08.bks.cpg/sg22_12_cif.got.tgz:22654.got - 2010.06.03 23:40:54.
