data_PCOD9327869
_publ_section_title
;
Structure prediction by ZEFSAII (Michael W. Deem and Ramdas Pophale) SiO2 
 PCOD9327869
Probable space group: F 2 2 2
;
_chemical_formula_sum "Si O2"
_cell_formula_units_Z 96
_cell_length_a 21.278602
_cell_length_b 20.221844
_cell_length_c 11.395630
_cell_angle_alpha 90.000000
_cell_angle_beta 90.000000
_cell_angle_gamma 90.000000
_cell_volume 4903.454922
_symmetry_space_group_name_H-M "F 2 2 2"
_symmetry_group_IT_number 22
_symmetry_cell_setting 'orthorhombic'
loop_
_space_group_symop_operation_xyz
x,y,z
-x,-y,z
x,-y,-z
-x,y,-z
x,1/2+y,1/2+z
-x,1/2-y,1/2+z
x,1/2-y,1/2-z
-x,1/2+y,1/2-z
1/2+x,y,1/2+z
1/2-x,-y,1/2+z
1/2+x,-y,1/2-z
1/2-x,y,1/2-z
1/2+x,1/2+y,z
1/2-x,1/2-y,z
1/2+x,1/2-y,-z
1/2-x,1/2+y,-z
loop_
_atom_site_type_symbol
_atom_site_label
_atom_site_fract_x
_atom_site_fract_y
_atom_site_fract_z
Si Si1 0.784420 0.312007 0.874108
Si Si2 0.589020 0.738570 0.428419
Si Si3 0.734320 0.949342 0.390766
Si Si4 0.977069 0.571812 0.684416
Si Si5 0.900100 0.106650 0.962955
Si Si6 0.953281 0.802976 0.662491
O O1 0.750000 0.317327 0.750000
O O2 0.750000 0.250000 0.937418
O O3 0.855997 0.292846 0.853354
O O4 0.775044 0.384455 0.924472
O O5 0.604755 0.813581 0.465766
O O6 0.586447 0.695095 0.545471
O O7 0.520625 0.730065 0.371720
O O8 0.750000 0.966718 0.250000
O O9 0.661521 0.925429 0.405202
O O10 0.744302 0.000000 0.500000
O O11 0.920007 0.574585 0.588841
O O12 0.962302 0.625764 0.781985
O O13 0.000000 0.500000 0.726511
O O14 0.038486 0.596101 0.615372
O O15 0.923288 0.750000 0.750000
#
# Coordination Sequence:
#
# PCOD9327869 Si02
#       6
#    16  16  16  16  16  16
#     4  10  22  38  65  94 121 166 220 278 316 387
#     4  11  22  38  61  99 128 160 229 270 333 387
#     4  11  25  45  67  98 132 176 224 273 335 395
#     4  11  22  37  62  97 127 170 214 264 333 390
#     4  11  20  39  68  93 126 160 225 283 312 388
#     4  11  21  37  61  91 132 173 205 275 333 393
#
# _framework density 19.578032
#
# number of rings (size 3 to 8) (size 9 to 14) (size 15 to 20)
#    0.000    1.167    5.000    3.000    7.000    0.000 
#    6.000    1.667    0.000    0.000    0.000    0.000 
#    0.000    0.000    0.000    0.000    0.000    0.000 
#
# Total GULP energy -133731.251986 kJ/mol
# GULP energy per Si atom -5572.135499 kJ/mol
# Density = 1.953347 g / cm^3
# Si number density = 19.578032 Si / 1000 Ang^3
#
#
#
# Elastic Constant Matrix: (Units=GPa)
#
#
# Indices 1 2 3 4 5 6 
#
# 1 77.3672 10.7851 21.4623 0.0000 0.0000 0.0000
# 2 10.7851 150.8997 58.5046 0.0000 0.0000 0.0000
# 3 21.4623 58.5046 113.1353 0.0000 0.0000 0.0000
# 4 0.0000 0.0000 0.0000 33.9810 0.0000 0.0000
# 5 0.0000 0.0000 0.0000 0.0000 22.9987 0.0000
# 6 0.0000 0.0000 0.0000 0.0000 0.0000 40.5644
#
#
#
# Elastic Compliance Matrix: (Units=1/GPa)
#
#
# Indices 1 2 3 4 5 6 
#
# 1 0.013644 0.000035 -0.002607 0.000000 0.000000 0.000000
# 2 0.000035 0.008289 -0.004293 0.000000 0.000000 0.000000
# 3 -0.002607 -0.004293 0.011553 0.000000 0.000000 0.000000
# 4 0.000000 0.000000 0.000000 0.029428 0.000000 0.000000
# 5 0.000000 0.000000 0.000000 0.000000 0.043481 0.000000
# 6 0.000000 0.000000 0.000000 0.000000 0.000000 0.024652
#
#
# Mechanical properties :
#
#
# Convention : Reuss Voigt Hill
#
# Bulk Modulus (GPa) = 50.61372 58.10067 54.35719
# Shear Modulus (GPa) = 33.03360 36.21884 34.62622
#
# Velocity S-wave (km/s) = 4.11211 4.30580 4.21007
# Velocity P-wave (km/s) = 6.96091 7.37975 7.17339
#
# Compressibility (1/GPa) = 0.01975749
#
# Stress axis : x y z
#
# Youngs Moduli (GPa) = 73.29484 120.64445 86.55410
#
# Poissons Ratio (x) = -0.00428 0.22561
# Poissons Ratio (y) = -0.00260 0.37158
# Poissons Ratio (z) = 0.19105 0.51793
#
# Static dielectric constant tensor:
#      x y z
#    x 1.698700 0.000000 0.000000 
#    y 0.000000 1.807580 0.000000 
#    z 0.000000 0.000000 1.583400 
# 
# From -- ./inp_files/22804.got.cif
#   From: 2010.05.17/outbox.cif.g08.bks.cpg/sg22_12_cif.got.tgz:22804.got - 2010.06.03 23:40:54.
