data_PCOD9327411
_publ_section_title
;
Structure prediction by ZEFSAII (Michael W. Deem and Ramdas Pophale) SiO2 
 PCOD9327411
Probable space group: F 2 2 2
;
_chemical_formula_sum "Si O2"
_cell_formula_units_Z 72
_cell_length_a 9.514532
_cell_length_b 25.270059
_cell_length_c 14.771240
_cell_angle_alpha 90.000000
_cell_angle_beta 90.000000
_cell_angle_gamma 90.000000
_cell_volume 3551.490371
_symmetry_space_group_name_H-M "F 2 2 2"
_symmetry_group_IT_number 22
_symmetry_cell_setting 'orthorhombic'
loop_
_space_group_symop_operation_xyz
x,y,z
-x,-y,z
x,-y,-z
-x,y,-z
x,1/2+y,1/2+z
-x,1/2-y,1/2+z
x,1/2-y,1/2-z
-x,1/2+y,1/2-z
1/2+x,y,1/2+z
1/2-x,-y,1/2+z
1/2+x,-y,1/2-z
1/2-x,y,1/2-z
1/2+x,1/2+y,z
1/2-x,1/2-y,z
1/2+x,1/2-y,-z
1/2-x,1/2+y,-z
loop_
_atom_site_type_symbol
_atom_site_label
_atom_site_fract_x
_atom_site_fract_y
_atom_site_fract_z
Si Si1 0.491610 0.750000 0.250000
Si Si2 0.447332 0.056000 0.602537
Si Si3 0.912971 0.369978 0.744341
Si Si4 0.818900 0.609390 0.847151
Si Si5 0.635054 0.285268 0.438532
O O1 0.571857 0.693835 0.244060
O O2 0.404418 0.742660 0.342979
O O3 0.500000 0.057859 0.500000
O O4 0.520424 0.104016 0.655252
O O5 0.279154 0.062363 0.616272
O O6 0.500000 0.000000 0.641722
O O7 0.750000 0.384181 0.750000
O O8 0.014973 0.393340 0.823998
O O9 0.750000 0.624210 0.750000
O O10 0.803174 0.657763 0.915227
O O11 0.500000 0.290697 0.500000
O O12 0.750000 0.250000 0.487696
#
# Coordination Sequence:
#
# PCOD9327411 Si02
#       5
#     8  16  16  16  16
#     4  10  22  40  58  86 128 168 208 248 302 382
#     4  10  22  40  62  87 117 158 208 259 315 375
#     4  10  21  37  61  89 121 160 203 254 309 368
#     4   9  20  39  59  79 114 158 200 250 309 374
#     4  11  22  35  56  85 119 164 207 251 310 371
#
# _framework density 20.273178999999999
#
# number of rings (size 3 to 8) (size 9 to 14) (size 15 to 20)
#    0.000    2.000    0.000    4.667    0.000   13.333 
#    0.000    0.000    0.000    2.667    0.000    0.000 
#    0.000    0.000    0.000    0.000    0.000    0.000 
#
# Total GULP energy -100358.576818 kJ/mol
# GULP energy per Si atom -5575.476490 kJ/mol
# Density = 2.022704 g / cm^3
# Si number density = 20.273179 Si / 1000 Ang^3
#
#
#
# Elastic Constant Matrix: (Units=GPa)
#
#
# Indices 1 2 3 4 5 6 
#
# 1 142.3039 57.6047 12.0577 0.0000 0.0000 0.0000
# 2 57.6047 79.6030 29.2209 0.0000 0.0000 0.0000
# 3 12.0577 29.2209 43.0887 0.0000 0.0000 0.0000
# 4 0.0000 0.0000 0.0000 -198.4850 0.0000 0.0000
# 5 0.0000 0.0000 0.0000 0.0000 6.1593 0.0000
# 6 0.0000 0.0000 0.0000 0.0000 0.0000 35.5462
#
#
#
# Elastic Compliance Matrix: (Units=1/GPa)
#
#
# Indices 1 2 3 4 5 6 
#
# 1 0.010197 -0.008430 0.002864 0.000000 0.000000 0.000000
# 2 -0.008430 0.023696 -0.013710 0.000000 0.000000 0.000000
# 3 0.002864 -0.013710 0.031704 0.000000 0.000000 0.000000
# 4 0.000000 0.000000 0.000000 -0.005038 0.000000 0.000000
# 5 0.000000 0.000000 0.000000 0.000000 0.162357 0.000000
# 6 0.000000 0.000000 0.000000 0.000000 0.000000 0.028132
#
#
# Mechanical properties :
#
#
# Convention : Reuss Voigt Hill
#
# Bulk Modulus (GPa) = 36.97802 51.41802 44.19802
# Shear Modulus (GPa) = 16.74383 -20.28175 -1.76896
#
# Velocity S-wave (km/s) = 2.87698 -3.16638 -0.93512
# Velocity P-wave (km/s) = 5.41438 3.47127 4.54781
#
# Compressibility (1/GPa) = 0.02704309
#
# Stress axis : x y z
#
# Youngs Moduli (GPa) = 98.06612 42.20153 31.54138
#
# Poissons Ratio (x) = 0.35577 -0.09032
# Poissons Ratio (y) = 0.82673 0.43244
# Poissons Ratio (z) = -0.28082 0.57860
#
# Static dielectric constant tensor:
#      x y z
#    x 1.805940 0.000000 0.000000 
#    y 0.000000 1.716290 0.000000 
#    z 0.000000 0.000000 1.720370 
# 
# From -- ./inp_files/10141.got.cif
#   From: 2010.05.17/outbox.cif.g08.bks.cpg/sg22_6_cif.got.tgz:10141.got - 2010.06.03 23:40:54.
