data_PCOD9327215
_publ_section_title
;
Structure prediction by ZEFSAII (Michael W. Deem and Ramdas Pophale) SiO2 
 PCOD9327215
Probable space group: F 2 2 2
;
_chemical_formula_sum "Si O2"
_cell_formula_units_Z 88
_cell_length_a 21.529312
_cell_length_b 31.677612
_cell_length_c 6.090091
_cell_angle_alpha 90.000000
_cell_angle_beta 90.000000
_cell_angle_gamma 90.000000
_cell_volume 4153.424962
_symmetry_space_group_name_H-M "F 2 2 2"
_symmetry_group_IT_number 22
_symmetry_cell_setting 'orthorhombic'
loop_
_space_group_symop_operation_xyz
x,y,z
-x,-y,z
x,-y,-z
-x,y,-z
x,1/2+y,1/2+z
-x,1/2-y,1/2+z
x,1/2-y,1/2-z
-x,1/2+y,1/2-z
1/2+x,y,1/2+z
1/2-x,-y,1/2+z
1/2+x,-y,1/2-z
1/2-x,y,1/2-z
1/2+x,1/2+y,z
1/2-x,1/2-y,z
1/2+x,1/2-y,-z
1/2-x,1/2+y,-z
loop_
_atom_site_type_symbol
_atom_site_label
_atom_site_fract_x
_atom_site_fract_y
_atom_site_fract_z
Si Si1 0.750000 0.613018 0.750000
Si Si2 0.824089 0.172772 0.583435
Si Si3 0.051213 0.572501 0.799849
Si Si4 0.000000 0.000000 0.000000
Si Si5 0.500000 0.646196 0.000000
Si Si6 0.750000 0.250000 0.750000
Si Si7 0.183962 0.593839 0.655396
Si Si8 0.559636 0.793635 0.849205
O O1 0.711269 0.643194 0.588937
O O2 0.802382 0.588400 0.604962
O O3 0.791801 0.217821 0.611912
O O4 0.822340 0.144545 0.803332
O O5 0.892560 0.181924 0.501461
O O6 0.038113 0.531006 0.656557
O O7 0.034997 0.614460 0.662669
O O8 0.126796 0.575031 0.797309
O O9 0.000000 0.571796 0.000000
O O10 0.457917 0.676077 0.148654
O O11 0.250000 0.579149 0.750000
O O12 0.584705 0.750000 0.750000
O O13 0.500000 0.783504 0.000000
#
# Coordination Sequence:
#
# PCOD9327215 Si02
#       8
#     8  16  16   4   8   4  16  16
#     4  10  20  41  60  92 123 168 234 291 352 420
#     4  11  24  38  56  85 118 169 231 295 349 416
#     4  11  23  44  76 103 143 180 235 295 360 454
#     4  10  26  44  72 114 140 176 224 284 364 448
#     4  11  22  41  64  98 122 188 232 285 362 429
#     4  12  24  38  56  84 124 172 244 306 348 404
#     4  10  21  41  65  96 131 175 231 285 352 432
#     4  12  26  40  57  85 132 177 235 299 355 420
#
# _framework density 21.187332000000001
#
# number of rings (size 3 to 8) (size 9 to 14) (size 15 to 20)
#    0.000    1.091    3.636    4.091    3.818    5.818 
#    0.000    0.000    6.000    0.000    0.000    0.000 
#    0.000    0.000    0.000    0.000    0.000    0.000 
#
# Total GULP energy -122645.718488 kJ/mol
# GULP energy per Si atom -5574.805386 kJ/mol
# Density = 2.113911 g / cm^3
# Si number density = 21.187332 Si / 1000 Ang^3
#
#
#
# Elastic Constant Matrix: (Units=GPa)
#
#
# Indices 1 2 3 4 5 6 
#
# 1 140.2795 19.5326 43.9305 0.0355 -0.0089 0.1633
# 2 19.5326 84.3966 21.4503 -0.0092 -0.0120 0.0217
# 3 43.9305 21.4503 97.9681 0.0386 0.0164 0.1466
# 4 0.0355 -0.0092 0.0386 26.8167 -0.0257 0.0147
# 5 -0.0089 -0.0120 0.0164 -0.0257 32.4015 -0.1123
# 6 0.1633 0.0217 0.1466 0.0147 -0.1123 -46.6053
#
#
#
# Elastic Compliance Matrix: (Units=1/GPa)
#
#
# Indices 1 2 3 4 5 6 
#
# 1 0.008379 -0.001042 -0.003529 -0.000006 0.000004 0.000018
# 2 -0.001042 0.012677 -0.002308 0.000009 0.000006 -0.000005
# 3 -0.003529 -0.002308 0.012295 -0.000014 -0.000008 0.000025
# 4 -0.000006 0.000009 -0.000014 0.037290 0.000030 0.000012
# 5 0.000004 0.000006 -0.000008 0.000030 0.030863 -0.000074
# 6 0.000018 -0.000005 0.000025 0.000012 -0.000074 -0.021456
#
#
# Mechanical properties :
#
#
# Convention : Reuss Voigt Hill
#
# Bulk Modulus (GPa) = 51.04180 54.71901 52.88041
# Shear Modulus (GPa) = 49.83215 18.37130 34.10172
#
# Velocity S-wave (km/s) = 4.85498 2.94783 4.01625
# Velocity P-wave (km/s) = 7.45458 6.12116 6.82054
#
# Compressibility (1/GPa) = 0.01959178
#
# Stress axis : x y z
#
# Youngs Moduli (GPa) = 119.34737 78.88488 81.33225
#
# Poissons Ratio (x) = 0.08222 0.28703
# Poissons Ratio (y) = 0.12439 0.18773
# Poissons Ratio (z) = 0.42118 0.18208
#
# Static dielectric constant tensor:
#      x y z
#    x 1.854400 0.000010 -0.000230 
#    y 0.000010 1.724970 -0.000100 
#    z -0.000230 -0.000100 1.912720 
# 
# From -- ./inp_files/4940.got.cif
#   From: 2010.05.17/outbox.cif.g08.bks.cpg/sg22_3_cif.got.tgz:4940.got - 2010.06.03 23:40:54.
