data_PCOD9327455
_publ_section_title
;
Structure prediction by ZEFSAII (Michael W. Deem and Ramdas Pophale) SiO2 
 PCOD9327455
Probable space group: F 2 2 2
;
_chemical_formula_sum "Si O2"
_cell_formula_units_Z 100
_cell_length_a 14.652753
_cell_length_b 14.884018
_cell_length_c 23.016373
_cell_angle_alpha 90.000000
_cell_angle_beta 90.000000
_cell_angle_gamma 90.000000
_cell_volume 5019.683124
_symmetry_space_group_name_H-M "F 2 2 2"
_symmetry_group_IT_number 22
_symmetry_cell_setting 'orthorhombic'
loop_
_space_group_symop_operation_xyz
x,y,z
-x,-y,z
x,-y,-z
-x,y,-z
x,1/2+y,1/2+z
-x,1/2-y,1/2+z
x,1/2-y,1/2-z
-x,1/2+y,1/2-z
1/2+x,y,1/2+z
1/2-x,-y,1/2+z
1/2+x,-y,1/2-z
1/2-x,y,1/2-z
1/2+x,1/2+y,z
1/2-x,1/2-y,z
1/2+x,1/2-y,-z
1/2-x,1/2+y,-z
loop_
_atom_site_type_symbol
_atom_site_label
_atom_site_fract_x
_atom_site_fract_y
_atom_site_fract_z
Si Si1 0.816385 0.331877 0.097476
Si Si2 0.250000 0.250000 0.250000
Si Si3 0.528227 0.769117 0.814558
Si Si4 0.118721 0.373251 0.329511
Si Si5 0.605411 0.105472 0.984553
Si Si6 0.083372 0.059496 0.285306
Si Si7 0.721049 0.040058 0.881566
O O1 0.750000 0.250000 0.111135
O O2 0.902886 0.313861 0.139712
O O3 0.778600 0.433666 0.104576
O O4 0.841838 0.331653 0.029414
O O5 0.187491 0.309873 0.292450
O O6 0.570722 0.750000 0.750000
O O7 0.473532 0.683426 0.840292
O O8 0.450295 0.840647 0.798637
O O9 0.094269 0.450957 0.283352
O O10 0.179413 0.414885 0.380663
O O11 0.651235 0.100261 0.920965
O O12 0.500000 0.125599 0.000000
O O13 0.614999 0.000000 0.000000
O O14 0.176320 0.041590 0.317965
O O15 0.000000 0.000000 0.308166
#
# Coordination Sequence:
#
# PCOD9327455 Si02
#       7
#    16   4  16  16  16  16  16
#     4  11  24  43  58  89 131 161 214 271 320 390
#     4  12  16  32  52  88 128 140 184 268 302 364
#     4  10  21  38  60  88 127 170 203 258 320 389
#     4  11  21  36  57  93 129 161 205 261 324 393
#     4   9  20  39  65  88 113 153 210 268 319 368
#     4  11  19  33  59  89 126 159 208 257 321 382
#     4  11  21  37  66  90 119 167 215 265 323 387
#
# _framework density 19.921575000000001
#
# number of rings (size 3 to 8) (size 9 to 14) (size 15 to 20)
#    0.000    1.440    5.600    0.960    2.240    2.880 
#   10.080    0.000    0.000    0.000    0.000    0.000 
#    0.000    0.000    0.000    0.000    0.000    0.000 
#
# Total GULP energy -139184.594063 kJ/mol
# GULP energy per Si atom -5567.383763 kJ/mol
# Density = 1.987623 g / cm^3
# Si number density = 19.921575 Si / 1000 Ang^3
#
#
#
# Elastic Constant Matrix: (Units=GPa)
#
#
# Indices 1 2 3 4 5 6 
#
# 1 74.3413 32.0836 26.6249 0.0000 0.0000 0.0000
# 2 32.0836 59.2994 26.0776 0.0000 0.0000 0.0000
# 3 26.6249 26.0776 61.0908 0.0000 0.0000 0.0000
# 4 0.0000 0.0000 0.0000 23.3932 0.0000 0.0000
# 5 0.0000 0.0000 0.0000 0.0000 28.8543 0.0000
# 6 0.0000 0.0000 0.0000 0.0000 0.0000 37.6839
#
#
#
# Elastic Compliance Matrix: (Units=1/GPa)
#
#
# Indices 1 2 3 4 5 6 
#
# 1 0.018578 -0.007991 -0.004686 0.000000 0.000000 0.000000
# 2 -0.007991 0.024198 -0.006847 0.000000 0.000000 0.000000
# 3 -0.004686 -0.006847 0.021334 0.000000 0.000000 0.000000
# 4 0.000000 0.000000 0.000000 0.042748 0.000000 0.000000
# 5 0.000000 0.000000 0.000000 0.000000 0.034657 0.000000
# 6 0.000000 0.000000 0.000000 0.000000 0.000000 0.026537
#
#
# Mechanical properties :
#
#
# Convention : Reuss Voigt Hill
#
# Bulk Modulus (GPa) = 39.89904 40.47819 40.18862
# Shear Modulus (GPa) = 23.20697 25.31597 24.26147
#
# Velocity S-wave (km/s) = 3.41679 3.56867 3.49356
# Velocity P-wave (km/s) = 5.96971 6.11093 6.04073
#
# Compressibility (1/GPa) = 0.02506326
#
# Stress axis : x y z
#
# Youngs Moduli (GPa) = 53.82587 41.32573 46.87390
#
# Poissons Ratio (x) = 0.33024 0.21964
# Poissons Ratio (y) = 0.43013 0.32092
# Poissons Ratio (z) = 0.25222 0.28294
#
# Static dielectric constant tensor:
#      x y z
#    x 1.782620 0.000000 0.000000 
#    y 0.000000 1.751310 0.000000 
#    z 0.000000 0.000000 1.782640 
# 
# From -- ./inp_files/48909.got.cif
#   From: 2010.05.17/outbox.cif.g08.bks.cpg/sg22_25_cif.got.tgz:48909.got - 2010.06.03 23:40:54.
