data_PCOD9327621
_publ_section_title
;
Structure prediction by ZEFSAII (Michael W. Deem and Ramdas Pophale) SiO2 
 PCOD9327621
Probable space group: F 2 2 2
;
_chemical_formula_sum "Si O2"
_cell_formula_units_Z 96
_cell_length_a 14.203015
_cell_length_b 21.472087
_cell_length_c 14.668524
_cell_angle_alpha 90.000000
_cell_angle_beta 90.000000
_cell_angle_gamma 90.000000
_cell_volume 4473.435909
_symmetry_space_group_name_H-M "F 2 2 2"
_symmetry_group_IT_number 22
_symmetry_cell_setting 'orthorhombic'
loop_
_space_group_symop_operation_xyz
x,y,z
-x,-y,z
x,-y,-z
-x,y,-z
x,1/2+y,1/2+z
-x,1/2-y,1/2+z
x,1/2-y,1/2-z
-x,1/2+y,1/2-z
1/2+x,y,1/2+z
1/2-x,-y,1/2+z
1/2+x,-y,1/2-z
1/2-x,y,1/2-z
1/2+x,1/2+y,z
1/2-x,1/2-y,z
1/2+x,1/2-y,-z
1/2-x,1/2+y,-z
loop_
_atom_site_type_symbol
_atom_site_label
_atom_site_fract_x
_atom_site_fract_y
_atom_site_fract_z
Si Si1 0.750000 0.090180 0.141218
Si Si2 0.074003 0.677994 0.853541
Si Si3 0.750000 0.676065 0.477037
Si Si4 0.956971 0.062124 0.398404
Si Si5 0.425997 0.822006 0.646458
Si Si6 0.543029 0.562124 0.898404
O O1 0.750000 0.099095 0.250000
O O2 0.654685 0.056282 0.110337
O O3 0.845315 0.056282 0.110337
O O4 0.750000 0.152049 0.079538
O O5 0.156131 0.656799 0.922338
O O6 0.046423 0.750000 0.874923
O O7 0.111321 0.678125 0.750000
O O8 0.990034 0.628334 0.858135
O O9 0.750000 0.750000 0.474356
O O10 0.843870 0.656799 0.422338
O O11 0.000000 0.063740 0.500000
O O12 0.000000 0.000000 0.354558
O O13 0.509966 0.871666 0.641865
O O14 0.500000 0.500000 0.854558
O O15 0.500000 0.563740 0.000000
#
# Coordination Sequence:
#
# PCOD9327621 Si02
#       6
#    16  16  16  16  16  16
#     4  12  26  44  67 101 136 175 228 281 340 404
#     4  10  21  40  68 100 134 179 231 278 334 404
#     4  10  21  40  67  99 139 179 224 283 337 395
#     4  11  25  45  72  98 136 182 230 275 340 407
#     4  10  21  40  68 100 134 179 231 278 334 404
#     4  11  25  45  72  98 136 182 230 275 340 407
#
# _framework density 21.460014000000001
#
# number of rings (size 3 to 8) (size 9 to 14) (size 15 to 20)
#    0.000    1.333    3.333    1.500    0.000   11.000 
#    0.000    0.000    0.000    0.000    0.000    0.000 
#    0.000    0.000    0.000    0.000    0.000    0.000 
#
# Total GULP energy -133997.581206 kJ/mol
# GULP energy per Si atom -5583.232550 kJ/mol
# Density = 2.141117 g / cm^3
# Si number density = 21.460014 Si / 1000 Ang^3
#
#
#
# Elastic Constant Matrix: (Units=GPa)
#
#
# Indices 1 2 3 4 5 6 
#
# 1 180.3189 60.3780 36.4813 0.0000 0.0000 0.0000
# 2 60.3780 96.6342 12.2601 0.0000 0.0000 0.0000
# 3 36.4813 12.2601 137.5770 0.0000 0.0000 0.0000
# 4 0.0000 0.0000 0.0000 -64.7592 0.0000 0.0000
# 5 0.0000 0.0000 0.0000 0.0000 19.4043 0.0000
# 6 0.0000 0.0000 0.0000 0.0000 0.0000 23.8270
#
#
#
# Elastic Compliance Matrix: (Units=1/GPa)
#
#
# Indices 1 2 3 4 5 6 
#
# 1 0.007327 -0.004381 -0.001552 0.000000 0.000000 0.000000
# 2 -0.004381 0.013086 -0.000004 0.000000 0.000000 0.000000
# 3 -0.001552 -0.000004 0.007681 0.000000 0.000000 0.000000
# 4 0.000000 0.000000 0.000000 -0.015442 0.000000 0.000000
# 5 0.000000 0.000000 0.000000 0.000000 0.051535 0.000000
# 6 0.000000 0.000000 0.000000 0.000000 0.000000 0.041969
#
#
# Mechanical properties :
#
#
# Convention : Reuss Voigt Hill
#
# Bulk Modulus (GPa) = 61.66001 70.30765 65.98383
# Shear Modulus (GPa) = 40.50638 16.05512 28.28075
#
# Velocity S-wave (km/s) = 4.34928 2.73818 3.63414
# Velocity P-wave (km/s) = 7.34960 6.54448 6.95869
#
# Compressibility (1/GPa) = 0.01621797
#
# Stress axis : x y z
#
# Youngs Moduli (GPa) = 136.48737 76.41725 130.19625
#
# Poissons Ratio (x) = 0.33477 0.20212
# Poissons Ratio (y) = 0.59793 0.00059
# Poissons Ratio (z) = 0.21189 0.00034
#
# Static dielectric constant tensor:
#      x y z
#    x 1.798410 0.000000 0.000000 
#    y 0.000000 1.779300 0.000000 
#    z 0.000000 0.000000 1.804700 
# 
# From -- ./inp_files/29354.got.cif
#   From: 2010.05.17/outbox.cif.g08.bks.cpg/sg22_15_cif.got.tgz:29354.got - 2010.06.03 23:40:54.
