data_PCOD9327097
_publ_section_title
;
Structure prediction by ZEFSAII (Michael W. Deem and Ramdas Pophale) SiO2 
 PCOD9327097
Probable space group: F 2 2 2
;
_chemical_formula_sum "Si O2"
_cell_formula_units_Z 48
_cell_length_a 27.026367
_cell_length_b 13.901873
_cell_length_c 5.213351
_cell_angle_alpha 90.000000
_cell_angle_beta 90.000000
_cell_angle_gamma 90.000000
_cell_volume 1958.745232
_symmetry_space_group_name_H-M "F 2 2 2"
_symmetry_group_IT_number 22
_symmetry_cell_setting 'orthorhombic'
loop_
_space_group_symop_operation_xyz
x,y,z
-x,-y,z
x,-y,-z
-x,y,-z
x,1/2+y,1/2+z
-x,1/2-y,1/2+z
x,1/2-y,1/2-z
-x,1/2+y,1/2-z
1/2+x,y,1/2+z
1/2-x,-y,1/2+z
1/2+x,-y,1/2-z
1/2-x,y,1/2-z
1/2+x,1/2+y,z
1/2-x,1/2-y,z
1/2+x,1/2-y,-z
1/2-x,1/2+y,-z
loop_
_atom_site_type_symbol
_atom_site_label
_atom_site_fract_x
_atom_site_fract_y
_atom_site_fract_z
Si Si1 0.146291 0.403424 0.849600
Si Si2 0.717064 0.000000 0.500000
Si Si3 0.872960 0.250000 0.750000
Si Si4 0.449054 0.850204 0.396436
O O1 0.181337 0.413800 0.599696
O O2 0.087951 0.407866 0.784524
O O3 0.157557 0.500000 0.000000
O O4 0.154187 0.308914 0.024311
O O5 0.750000 0.025482 0.750000
O O6 0.911178 0.324697 0.622688
O O7 0.500000 0.891063 0.500000
O O8 0.461483 0.750000 0.250000
#
# Coordination Sequence:
#
# PCOD9327097 Si02
#       4
#    16   8   8  16
#     4  11  24  45  75 115 149 208 262 325 397 477
#     4  12  26  50  83 110 147 202 270 336 416 478
#     4  10  22  42  72 107 156 196 257 310 382 456
#     4  10  20  38  69 104 153 205 250 301 375 458
#
# _framework density 24.505483000000002
#
# number of rings (size 3 to 8) (size 9 to 14) (size 15 to 20)
#    0.000    1.333    3.333    2.000    0.000    0.000 
#    0.000   12.500    0.000   41.000    0.000    0.000 
#    0.000    0.000    0.000    0.000    0.000    0.000 
#
# Total GULP energy -67026.269870 kJ/mol
# GULP energy per Si atom -5585.522489 kJ/mol
# Density = 2.444971 g / cm^3
# Si number density = 24.505483 Si / 1000 Ang^3
#
#
#
# Elastic Constant Matrix: (Units=GPa)
#
#
# Indices 1 2 3 4 5 6 
#
# 1 166.4565 69.5201 76.9975 0.0000 0.0000 0.0000
# 2 69.5201 95.2356 61.6351 0.0001 0.0000 0.0000
# 3 76.9975 61.6351 159.4273 0.0001 0.0000 0.0000
# 4 0.0000 0.0001 0.0001 48.3895 0.0000 0.0000
# 5 0.0000 0.0000 0.0000 0.0000 43.0230 0.0001
# 6 0.0000 0.0000 0.0000 0.0000 0.0001 19.9997
#
#
#
# Elastic Compliance Matrix: (Units=1/GPa)
#
#
# Indices 1 2 3 4 5 6 
#
# 1 0.009334 -0.005196 -0.002499 0.000000 0.000000 0.000000
# 2 -0.005196 0.016897 -0.004023 0.000000 0.000000 0.000000
# 3 -0.002499 -0.004023 0.009035 0.000000 0.000000 0.000000
# 4 0.000000 0.000000 0.000000 0.020666 0.000000 0.000000
# 5 0.000000 0.000000 0.000000 0.000000 0.023243 0.000000
# 6 0.000000 0.000000 0.000000 0.000000 0.000000 0.050001
#
#
# Mechanical properties :
#
#
# Convention : Reuss Voigt Hill
#
# Bulk Modulus (GPa) = 84.53607 93.04720 88.79163
# Shear Modulus (GPa) = 31.93791 36.48022 34.20906
#
# Velocity S-wave (km/s) = 3.61404 3.86250 3.74033
# Velocity P-wave (km/s) = 7.21018 7.61211 7.41387
#
# Compressibility (1/GPa) = 0.01182927
#
# Stress axis : x y z
#
# Youngs Moduli (GPa) = 107.13921 59.18262 110.68521
#
# Poissons Ratio (x) = 0.30752 0.27660
# Poissons Ratio (y) = 0.55670 0.44527
# Poissons Ratio (z) = 0.26774 0.23808
#
# Static dielectric constant tensor:
#      x y z
#    x 1.917630 0.000000 0.000000 
#    y 0.000000 1.936920 0.000000 
#    z 0.000000 0.000000 2.253970 
# 
# From -- ./inp_files/5109.got.cif
#   From: 2010.05.17/outbox.cif.g08.bks.cpg/sg22_3_cif.got.tgz:5109.got - 2010.06.03 23:40:54.
