data_PCOD9327006
_publ_section_title
;
Structure prediction by ZEFSAII (Michael W. Deem and Ramdas Pophale) SiO2 
 PCOD9327006
Probable space group: F 2 2 2
;
_chemical_formula_sum "Si O2"
_cell_formula_units_Z 72
_cell_length_a 7.642242
_cell_length_b 24.344535
_cell_length_c 16.998603
_cell_angle_alpha 90.000000
_cell_angle_beta 90.000000
_cell_angle_gamma 90.000000
_cell_volume 3162.536166
_symmetry_space_group_name_H-M "F 2 2 2"
_symmetry_group_IT_number 22
_symmetry_cell_setting 'orthorhombic'
loop_
_space_group_symop_operation_xyz
x,y,z
-x,-y,z
x,-y,-z
-x,y,-z
x,1/2+y,1/2+z
-x,1/2-y,1/2+z
x,1/2-y,1/2-z
-x,1/2+y,1/2-z
1/2+x,y,1/2+z
1/2-x,-y,1/2+z
1/2+x,-y,1/2-z
1/2-x,y,1/2-z
1/2+x,1/2+y,z
1/2-x,1/2-y,z
1/2+x,1/2-y,-z
1/2-x,1/2+y,-z
loop_
_atom_site_type_symbol
_atom_site_label
_atom_site_fract_x
_atom_site_fract_y
_atom_site_fract_z
Si Si1 0.500000 0.500000 0.848514
Si Si2 0.245096 0.000000 0.000000
Si Si3 0.025368 0.686657 0.129165
Si Si4 0.545326 0.386151 0.224343
Si Si5 0.000000 0.100634 0.500000
Si Si6 0.055298 0.692067 0.410123
O O1 0.489870 0.551645 0.789649
O O2 0.652948 0.495135 0.914455
O O3 0.345446 0.057453 0.986743
O O4 0.983965 0.658769 0.212085
O O5 0.950629 0.642654 0.068558
O O6 0.976080 0.750107 0.119898
O O7 0.234293 0.690160 0.106675
O O8 0.750000 0.389856 0.250000
O O9 0.497662 0.358871 0.141453
O O10 0.000000 0.686682 0.500000
#
# Coordination Sequence:
#
# PCOD9327006 Si02
#       6
#     8   8  16  16   8  16
#     4  11  24  42  68  95 130 174 234 273 334 390
#     4  10  24  40  64  94 130 174 228 286 324 398
#     4  10  21  38  62  93 130 174 216 269 339 392
#     4  10  22  38  63  94 131 167 218 272 330 391
#     4  11  22  42  62  92 134 181 224 270 346 389
#     4  10  20  37  66  96 128 169 223 271 327 399
#
# _framework density 22.766539000000002
#
# number of rings (size 3 to 8) (size 9 to 14) (size 15 to 20)
#    0.000    1.778    1.111    3.333    6.222    6.222 
#    0.000    0.000    0.000    0.000    0.000    0.000 
#    0.000    0.000    0.000    0.000    0.000    0.000 
#
# Total GULP energy -100269.791177 kJ/mol
# GULP energy per Si atom -5570.543954 kJ/mol
# Density = 2.271472 g / cm^3
# Si number density = 22.766539 Si / 1000 Ang^3
#
#
#
# Elastic Constant Matrix: (Units=GPa)
#
#
# Indices 1 2 3 4 5 6 
#
# 1 21.9568 12.3791 9.2166 0.0000 0.0000 0.0000
# 2 12.3791 217.9353 72.4774 0.0000 0.0000 0.0000
# 3 9.2166 72.4774 108.9113 0.0000 0.0000 0.0000
# 4 0.0000 0.0000 0.0000 50.1956 0.0000 0.0000
# 5 0.0000 0.0000 0.0000 0.0000 16.4293 0.0000
# 6 0.0000 0.0000 0.0000 0.0000 0.0000 15.4418
#
#
#
# Elastic Compliance Matrix: (Units=1/GPa)
#
#
# Indices 1 2 3 4 5 6 
#
# 1 0.047740 -0.001757 -0.002871 0.000000 0.000000 0.000000
# 2 -0.001757 0.005957 -0.003816 0.000000 0.000000 0.000000
# 3 -0.002871 -0.003816 0.011964 0.000000 0.000000 0.000000
# 4 0.000000 0.000000 0.000000 0.019922 0.000000 0.000000
# 5 0.000000 0.000000 0.000000 0.000000 0.060867 0.000000
# 6 0.000000 0.000000 0.000000 0.000000 0.000000 0.064759
#
#
# Mechanical properties :
#
#
# Convention : Reuss Voigt Hill
#
# Bulk Modulus (GPa) = 20.50277 59.66106 40.08191
# Shear Modulus (GPa) = 20.46214 33.39537 26.92876
#
# Velocity S-wave (km/s) = 3.00122 3.83412 3.44295
# Velocity P-wave (km/s) = 4.58639 6.77223 5.78351
#
# Compressibility (1/GPa) = 0.04877391
#
# Stress axis : x y z
#
# Youngs Moduli (GPa) = 20.94701 167.86155 83.58420
#
# Poissons Ratio (x) = 0.29493 0.23995
# Poissons Ratio (y) = 0.03680 0.31893
# Poissons Ratio (z) = 0.06013 0.64051
#
# Static dielectric constant tensor:
#      x y z
#    x 2.007330 0.000000 0.000000 
#    y 0.000000 1.775520 0.000000 
#    z 0.000000 0.000000 1.779630 
# 
# From -- ./inp_files/35012.got.cif
#   From: 2010.05.17/outbox.cif.g08.bks.cpg/sg22_18_cif.got.tgz:35012.got - 2010.06.03 23:40:54.
