data_PCOD9327065
_publ_section_title
;
Structure prediction by ZEFSAII (Michael W. Deem and Ramdas Pophale) SiO2 
 PCOD9327065
Probable space group: F 2 2 2
;
_chemical_formula_sum "Si O2"
_cell_formula_units_Z 72
_cell_length_a 25.812857
_cell_length_b 7.786077
_cell_length_c 17.793488
_cell_angle_alpha 90.000000
_cell_angle_beta 90.000000
_cell_angle_gamma 90.000000
_cell_volume 3576.151093
_symmetry_space_group_name_H-M "F 2 2 2"
_symmetry_group_IT_number 22
_symmetry_cell_setting 'orthorhombic'
loop_
_space_group_symop_operation_xyz
x,y,z
-x,-y,z
x,-y,-z
-x,y,-z
x,1/2+y,1/2+z
-x,1/2-y,1/2+z
x,1/2-y,1/2-z
-x,1/2+y,1/2-z
1/2+x,y,1/2+z
1/2-x,-y,1/2+z
1/2+x,-y,1/2-z
1/2-x,y,1/2-z
1/2+x,1/2+y,z
1/2-x,1/2-y,z
1/2+x,1/2-y,-z
1/2-x,1/2+y,-z
loop_
_atom_site_type_symbol
_atom_site_label
_atom_site_fract_x
_atom_site_fract_y
_atom_site_fract_z
Si Si1 0.134231 0.500000 0.500000
Si Si2 0.626878 0.750000 0.250000
Si Si3 0.123860 0.500000 0.000000
Si Si4 0.549530 0.755882 0.945726
Si Si5 0.811543 0.759339 0.099858
Si Si6 0.946376 0.426970 0.287325
O O1 0.093877 0.651974 0.488508
O O2 0.169514 0.552902 0.570402
O O3 0.663165 0.712705 0.320915
O O4 0.592530 0.585755 0.223768
O O5 0.081846 0.433058 0.936904
O O6 0.163459 0.628794 0.959732
O O7 0.540218 0.643843 0.871252
O O8 0.500000 0.772646 0.000000
O O9 0.750000 0.750000 0.101628
O O10 0.927507 0.250000 0.250000
O O11 0.000000 0.500000 0.253417
#
# Coordination Sequence:
#
# PCOD9327065 Si02
#       6
#     8   8   8  16  16  16
#     4  10  20  38  64  92 126 172 220 278 338 414
#     4  12  25  46  68 102 138 180 237 284 356 420
#     4  10  24  40  66 104 132 170 234 290 334 420
#     4  11  22  39  64  97 135 177 220 274 345 420
#     4  11  23  43  68  93 130 179 233 295 353 401
#     4  12  25  41  66  98 142 184 221 276 348 427
#
# _framework density 20.133376999999999
#
# number of rings (size 3 to 8) (size 9 to 14) (size 15 to 20)
#    0.000    0.889    3.333    4.333    3.111    1.778 
#    0.000    0.000    0.000    1.333    0.000    0.000 
#    0.000    0.000    0.000    0.000    0.000    0.000 
#
# Total GULP energy -100221.932738 kJ/mol
# GULP energy per Si atom -5567.885152 kJ/mol
# Density = 2.008755 g / cm^3
# Si number density = 20.133377 Si / 1000 Ang^3
#
#
#
# Elastic Constant Matrix: (Units=GPa)
#
#
# Indices 1 2 3 4 5 6 
#
# 1 146.1696 63.1412 46.3417 0.0000 0.0000 0.0000
# 2 63.1412 80.7604 15.0361 0.0000 0.0000 0.0000
# 3 46.3417 15.0361 55.6266 0.0000 0.0000 0.0000
# 4 0.0000 0.0000 0.0000 26.8077 0.0000 0.0000
# 5 0.0000 0.0000 0.0000 0.0000 29.7176 0.0000
# 6 0.0000 0.0000 0.0000 0.0000 0.0000 3.4305
#
#
#
# Elastic Compliance Matrix: (Units=1/GPa)
#
#
# Indices 1 2 3 4 5 6 
#
# 1 0.013484 -0.008899 -0.008828 0.000000 0.000000 0.000000
# 2 -0.008899 0.018911 0.002302 0.000000 0.000000 0.000000
# 3 -0.008828 0.002302 0.024709 0.000000 0.000000 0.000000
# 4 0.000000 0.000000 0.000000 0.037303 0.000000 0.000000
# 5 0.000000 0.000000 0.000000 0.000000 0.033650 0.000000
# 6 0.000000 0.000000 0.000000 0.000000 0.000000 0.291506
#
#
# Mechanical properties :
#
#
# Convention : Reuss Voigt Hill
#
# Bulk Modulus (GPa) = 38.08888 59.06607 48.57748
# Shear Modulus (GPa) = 10.88932 22.52699 16.70815
#
# Velocity S-wave (km/s) = 2.32816 3.34861 2.88388
# Velocity P-wave (km/s) = 5.11727 6.65973 5.93879
#
# Compressibility (1/GPa) = 0.02625438
#
# Stress axis : x y z
#
# Youngs Moduli (GPa) = 74.16004 52.87866 40.47028
#
# Poissons Ratio (x) = 0.47056 0.35728
# Poissons Ratio (y) = 0.65994 -0.09315
# Poissons Ratio (z) = 0.65470 -0.12171
#
# Static dielectric constant tensor:
#      x y z
#    x 1.668570 0.000000 0.000000 
#    y 0.000000 1.939770 0.000000 
#    z 0.000000 0.000000 1.787490 
# 
# From -- ./inp_files/35002.got.cif
#   From: 2010.05.17/outbox.cif.g08.bks.cpg/sg22_18_cif.got.tgz:35002.got - 2010.06.03 23:40:54.
