data_PCOD9327922
_publ_section_title
;
Structure prediction by ZEFSAII (Michael W. Deem and Ramdas Pophale) SiO2 
 PCOD9327922
Probable space group: F 2 2 2
;
_chemical_formula_sum "Si O2"
_cell_formula_units_Z 80
_cell_length_a 15.766589
_cell_length_b 9.313391
_cell_length_c 29.668445
_cell_angle_alpha 90.000000
_cell_angle_beta 90.000000
_cell_angle_gamma 90.000000
_cell_volume 4356.526571
_symmetry_space_group_name_H-M "F 2 2 2"
_symmetry_group_IT_number 22
_symmetry_cell_setting 'orthorhombic'
loop_
_space_group_symop_operation_xyz
x,y,z
-x,-y,z
x,-y,-z
-x,y,-z
x,1/2+y,1/2+z
-x,1/2-y,1/2+z
x,1/2-y,1/2-z
-x,1/2+y,1/2-z
1/2+x,y,1/2+z
1/2-x,-y,1/2+z
1/2+x,-y,1/2-z
1/2-x,y,1/2-z
1/2+x,1/2+y,z
1/2-x,1/2-y,z
1/2+x,1/2-y,-z
1/2-x,1/2+y,-z
loop_
_atom_site_type_symbol
_atom_site_label
_atom_site_fract_x
_atom_site_fract_y
_atom_site_fract_z
Si Si1 0.748552 0.081629 0.803862
Si Si2 0.176940 0.871416 0.032558
Si Si3 0.833278 0.146266 0.138434
Si Si4 0.000000 0.757460 0.500000
Si Si5 0.414950 0.927084 0.157011
Si Si6 0.500000 0.500000 0.428905
O O1 0.750000 0.067551 0.750000
O O2 0.750000 0.250000 0.815406
O O3 0.820728 0.989760 0.829256
O O4 0.663022 0.006515 0.820824
O O5 0.250000 0.750000 0.030376
O O6 0.161574 0.900339 0.086043
O O7 0.085072 0.825762 0.013009
O O8 0.206239 0.000000 0.000000
O O9 0.750000 0.250000 0.141205
O O10 0.905955 0.254907 0.156387
O O11 0.020092 0.863498 0.541249
O O12 0.421638 0.965194 0.103860
O O13 0.500000 0.000000 0.176136
#
# Coordination Sequence:
#
# PCOD9327922 Si02
#       6
#    16  16  16   8  16   8
#     4  10  22  40  62  89 121 155 199 256 313 367
#     4  11  24  37  56  88 124 162 209 250 301 364
#     4   9  19  37  59  84 117 154 201 246 299 364
#     4  11  21  38  60  86 126 162 206 254 298 356
#     4   9  18  38  62  86 118 154 201 243 305 368
#     4   9  20  34  66  84 118 164 202 242 307 354
#
# _framework density 18.363253
#
# number of rings (size 3 to 8) (size 9 to 14) (size 15 to 20)
#    0.600    1.600    2.000    0.300    2.800    6.000 
#    0.000    5.000    0.000    0.000    0.000    0.000 
#    0.000    0.000    0.000    0.000    0.000    0.000 
#
# Total GULP energy -111344.340443 kJ/mol
# GULP energy per Si atom -5567.217022 kJ/mol
# Density = 1.832146 g / cm^3
# Si number density = 18.363253 Si / 1000 Ang^3
#
#
#
# Elastic Constant Matrix: (Units=GPa)
#
#
# Indices 1 2 3 4 5 6 
#
# 1 66.5286 38.1870 30.3807 0.0000 0.0000 0.0000
# 2 38.1870 144.3121 82.2638 0.0000 0.0000 0.0000
# 3 30.3807 82.2638 100.6278 0.0000 0.0000 0.0000
# 4 0.0000 0.0000 0.0000 42.3652 0.0000 0.0000
# 5 0.0000 0.0000 0.0000 0.0000 0.0785 0.0000
# 6 0.0000 0.0000 0.0000 0.0000 0.0000 30.8123
#
#
#
# Elastic Compliance Matrix: (Units=1/GPa)
#
#
# Indices 1 2 3 4 5 6 
#
# 1 0.018167 -0.003147 -0.002912 0.000000 0.000000 0.000000
# 2 -0.003147 0.013522 -0.010104 0.000000 0.000000 0.000000
# 3 -0.002912 -0.010104 0.019077 0.000000 0.000000 0.000000
# 4 0.000000 0.000000 0.000000 0.023604 0.000000 0.000000
# 5 0.000000 0.000000 0.000000 0.000000 12.741675 0.000000
# 6 0.000000 0.000000 0.000000 0.000000 0.000000 0.032455
#
#
# Mechanical properties :
#
#
# Convention : Reuss Voigt Hill
#
# Bulk Modulus (GPa) = 54.23135 68.12571 61.17853
# Shear Modulus (GPa) = 0.38799 25.36033 12.87416
#
# Velocity S-wave (km/s) = 0.46016 3.72026 2.65067
# Velocity P-wave (km/s) = 5.46617 7.45877 6.53882
#
# Compressibility (1/GPa) = 0.01843952
#
# Stress axis : x y z
#
# Youngs Moduli (GPa) = 55.04335 73.95338 52.41949
#
# Poissons Ratio (x) = 0.23277 0.15264
# Poissons Ratio (y) = 0.17325 0.52965
# Poissons Ratio (z) = 0.16028 0.74723
#
# Static dielectric constant tensor:
#      x y z
#    x 1.656040 0.000000 0.000000 
#    y 0.000000 1.671050 0.000000 
#    z 0.000000 0.000000 1.625330 
# 
# From -- ./inp_files/11807.got.cif
#   From: 2010.05.17/outbox.cif.g08.bks.cpg/sg22_6_cif.got.tgz:11807.got - 2010.06.03 23:40:54.
