data_PCOD9327951
_publ_section_title
;
Structure prediction by ZEFSAII (Michael W. Deem and Ramdas Pophale) SiO2 
 PCOD9327951
Probable space group: F 2 2 2
;
_chemical_formula_sum "Si O2"
_cell_formula_units_Z 72
_cell_length_a 7.816690
_cell_length_b 28.787027
_cell_length_c 16.504902
_cell_angle_alpha 90.000000
_cell_angle_beta 90.000000
_cell_angle_gamma 90.000000
_cell_volume 3713.920935
_symmetry_space_group_name_H-M "F 2 2 2"
_symmetry_group_IT_number 22
_symmetry_cell_setting 'orthorhombic'
loop_
_space_group_symop_operation_xyz
x,y,z
-x,-y,z
x,-y,-z
-x,y,-z
x,1/2+y,1/2+z
-x,1/2-y,1/2+z
x,1/2-y,1/2-z
-x,1/2+y,1/2-z
1/2+x,y,1/2+z
1/2-x,-y,1/2+z
1/2+x,-y,1/2-z
1/2-x,y,1/2-z
1/2+x,1/2+y,z
1/2-x,1/2-y,z
1/2+x,1/2-y,-z
1/2-x,1/2+y,-z
loop_
_atom_site_type_symbol
_atom_site_label
_atom_site_fract_x
_atom_site_fract_y
_atom_site_fract_z
Si Si1 0.750000 0.072229 0.250000
Si Si2 0.250000 0.324592 0.250000
Si Si3 0.750000 0.250000 0.882191
Si Si4 0.000000 0.804948 0.500000
Si Si5 0.486183 0.377536 0.632263
Si Si6 0.000000 0.000000 0.826700
Si Si7 0.841840 0.028073 0.584493
O O1 0.678514 0.101722 0.175998
O O2 0.593328 0.040723 0.278788
O O3 0.319386 0.290068 0.178973
O O4 0.391676 0.354933 0.297907
O O5 0.616826 0.226641 0.943127
O O6 0.923630 0.840103 0.566780
O O7 0.594447 0.418751 0.588220
O O8 0.841773 0.022793 0.874740
O O9 0.824171 0.000000 0.500000
O O10 0.000000 0.000000 0.624850
#
# Coordination Sequence:
#
# PCOD9327951 Si02
#       7
#     8   8   8   8  16   8  16
#     4  12  24  37  60  90 128 168 233 269 317 372
#     4   9  20  41  66  89 124 162 211 260 327 393
#     4   9  20  40  66  95 120 162 200 255 342 402
#     4  10  22  40  67  90 128 160 201 266 332 386
#     4  11  22  40  62  93 127 171 211 276 312 374
#     4  12  23  40  58  91 122 188 230 268 314 377
#     4  11  22  40  63  88 131 177 223 269 318 371
#
# _framework density 19.386519
#
# number of rings (size 3 to 8) (size 9 to 14) (size 15 to 20)
#    0.000    1.333    2.222    4.333    0.000    1.778 
#    0.000    0.000    0.000    0.000    0.000    0.000 
#    0.000    0.000    0.000    0.000    0.000    0.000 
#
# Total GULP energy -100288.198708 kJ/mol
# GULP energy per Si atom -5571.566595 kJ/mol
# Density = 1.934239 g / cm^3
# Si number density = 19.386519 Si / 1000 Ang^3
#
#
#
# Elastic Constant Matrix: (Units=GPa)
#
#
# Indices 1 2 3 4 5 6 
#
# 1 102.9055 44.1863 59.3747 0.0000 0.0000 0.0000
# 2 44.1863 122.1805 73.4312 0.0000 0.0000 0.0000
# 3 59.3747 73.4312 148.8657 0.0000 0.0000 0.0000
# 4 0.0000 0.0000 0.0000 95.7959 0.0000 0.0000
# 5 0.0000 0.0000 0.0000 0.0000 30.5679 0.0000
# 6 0.0000 0.0000 0.0000 0.0000 0.0000 15.5706
#
#
#
# Elastic Compliance Matrix: (Units=1/GPa)
#
#
# Indices 1 2 3 4 5 6 
#
# 1 0.013048 -0.002261 -0.004089 0.000000 0.000000 0.000000
# 2 -0.002261 0.012025 -0.005030 0.000000 0.000000 0.000000
# 3 -0.004089 -0.005030 0.010829 0.000000 0.000000 0.000000
# 4 0.000000 0.000000 0.000000 0.010439 0.000000 0.000000
# 5 0.000000 0.000000 0.000000 0.000000 0.032714 0.000000
# 6 0.000000 0.000000 0.000000 0.000000 0.000000 0.064224
#
#
# Mechanical properties :
#
#
# Convention : Reuss Voigt Hill
#
# Bulk Modulus (GPa) = 76.08759 80.88180 78.48470
# Shear Modulus (GPa) = 29.33935 41.51750 35.42843
#
# Velocity S-wave (km/s) = 3.89445 4.63273 4.27954
# Velocity P-wave (km/s) = 7.71720 8.39210 8.06172
#
# Compressibility (1/GPa) = 0.01314275
#
# Stress axis : x y z
#
# Youngs Moduli (GPa) = 76.64184 83.15725 92.34262
#
# Poissons Ratio (x) = 0.18805 0.37755
# Poissons Ratio (y) = 0.17332 0.46447
# Poissons Ratio (z) = 0.31335 0.41827
#
# Static dielectric constant tensor:
#      x y z
#    x 0.731860 0.000000 0.000000 
#    y 0.000000 1.727340 0.000000 
#    z 0.000000 0.000000 1.757250 
# 
# From -- ./inp_files/11578.got.cif
#   From: 2010.05.17/outbox.cif.g08.bks.cpg/sg22_6_cif.got.tgz:11578.got - 2010.06.03 23:40:54.
