data_PCOD9327727
_publ_section_title
;
Structure prediction by ZEFSAII (Michael W. Deem and Ramdas Pophale) SiO2 
 PCOD9327727
Probable space group: F 2 2 2
;
_chemical_formula_sum "Si O2"
_cell_formula_units_Z 84
_cell_length_a 19.657606
_cell_length_b 15.325822
_cell_length_c 11.227695
_cell_angle_alpha 90.000000
_cell_angle_beta 90.000000
_cell_angle_gamma 90.000000
_cell_volume 3382.556114
_symmetry_space_group_name_H-M "F 2 2 2"
_symmetry_group_IT_number 22
_symmetry_cell_setting 'orthorhombic'
loop_
_space_group_symop_operation_xyz
x,y,z
-x,-y,z
x,-y,-z
-x,y,-z
x,1/2+y,1/2+z
-x,1/2-y,1/2+z
x,1/2-y,1/2-z
-x,1/2+y,1/2-z
1/2+x,y,1/2+z
1/2-x,-y,1/2+z
1/2+x,-y,1/2-z
1/2-x,y,1/2-z
1/2+x,1/2+y,z
1/2-x,1/2-y,z
1/2+x,1/2-y,-z
1/2-x,1/2+y,-z
loop_
_atom_site_type_symbol
_atom_site_label
_atom_site_fract_x
_atom_site_fract_y
_atom_site_fract_z
Si Si1 0.596449 0.397735 0.982851
Si Si2 0.485232 0.105932 0.255176
Si Si3 0.129892 0.627449 0.243374
Si Si4 0.258320 0.347774 0.108147
Si Si5 0.129667 0.952713 0.611339
Si Si6 0.250000 0.250000 0.750000
O O1 0.538887 0.366408 0.888000
O O2 0.668187 0.384714 0.918307
O O3 0.582129 0.500000 0.000000
O O4 0.614923 0.363065 0.115079
O O5 0.553176 0.147351 0.199784
O O6 0.420622 0.116351 0.170361
O O7 0.500000 0.000000 0.259042
O O8 0.145242 0.527681 0.208021
O O9 0.193334 0.683351 0.197756
O O10 0.250000 0.344605 0.250000
O O11 0.250000 0.250000 0.059948
O O12 0.197688 0.408602 0.064196
O O13 0.094850 0.000000 0.500000
#
# Coordination Sequence:
#
# PCOD9327727 Si02
#       6
#    16  16  16  16  16   4
#     4  12  21  40  76 102 136 174 238 286 345 411
#     4  10  21  42  71 105 131 174 239 291 346 409
#     4  11  27  44  73  98 138 185 231 295 347 427
#     4  11  24  41  63 109 146 188 231 288 342 414
#     4  11  24  42  73 105 141 188 235 285 353 420
#     4  12  32  52  60 104 152 182 236 280 368 426
#
# _framework density 24.833290000000002
#
# number of rings (size 3 to 8) (size 9 to 14) (size 15 to 20)
#    0.000    0.952    5.714    1.143    8.000    3.429 
#    3.429    0.000    4.190    0.000    0.000    0.000 
#    0.000    0.000    0.000    0.000    0.000    0.000 
#
# Total GULP energy -117287.303139 kJ/mol
# GULP energy per Si atom -5585.109673 kJ/mol
# Density = 2.477677 g / cm^3
# Si number density = 24.833290 Si / 1000 Ang^3
#
#
#
# Elastic Constant Matrix: (Units=GPa)
#
#
# Indices 1 2 3 4 5 6 
#
# 1 169.6303 46.3383 20.5468 0.0000 0.0000 0.0000
# 2 46.3383 70.6374 6.2324 0.0000 0.0000 0.0000
# 3 20.5468 6.2324 96.3737 0.0000 0.0000 0.0000
# 4 0.0000 0.0000 0.0000 6.8802 0.0000 0.0000
# 5 0.0000 0.0000 0.0000 0.0000 16.4720 0.0000
# 6 0.0000 0.0000 0.0000 0.0000 0.0000 -1.9839
#
#
#
# Elastic Compliance Matrix: (Units=1/GPa)
#
#
# Indices 1 2 3 4 5 6 
#
# 1 0.007331 -0.004698 -0.001259 0.000000 0.000000 0.000000
# 2 -0.004698 0.017249 -0.000114 0.000000 0.000000 0.000000
# 3 -0.001259 -0.000114 0.010652 0.000000 0.000000 0.000000
# 4 0.000000 0.000000 0.000000 0.145345 0.000000 0.000000
# 5 0.000000 0.000000 0.000000 0.000000 0.060709 0.000000
# 6 0.000000 0.000000 0.000000 0.000000 0.000000 -0.504066
#
#
# Mechanical properties :
#
#
# Convention : Reuss Voigt Hill
#
# Bulk Modulus (GPa) = 43.30917 53.65291 48.48104
# Shear Modulus (GPa) = -20.58117 21.84193 0.63038
#
# Velocity S-wave (km/s) = -2.88197 2.96893 0.50438
# Velocity P-wave (km/s) = 2.53052 5.77969 4.46141
#
# Compressibility (1/GPa) = 0.02308980
#
# Stress axis : x y z
#
# Youngs Moduli (GPa) = 136.40547 57.97495 93.87836
#
# Poissons Ratio (x) = 0.27237 0.11821
# Poissons Ratio (y) = 0.64085 0.01069
# Poissons Ratio (z) = 0.17176 0.00660
#
# Static dielectric constant tensor:
#      x y z
#    x 2.002090 0.000000 0.000000 
#    y 0.000000 2.005750 0.000000 
#    z 0.000000 0.000000 2.074800 
# 
# From -- ./inp_files/22538.got.cif
#   From: 2010.05.17/outbox.cif.g08.bks.cpg/sg22_12_cif.got.tgz:22538.got - 2010.06.03 23:40:54.
