data_PCOD9327182
_publ_section_title
;
Structure prediction by ZEFSAII (Michael W. Deem and Ramdas Pophale) SiO2 
 PCOD9327182
Probable space group: F 2 2 2
;
_chemical_formula_sum "Si O2"
_cell_formula_units_Z 88
_cell_length_a 8.829374
_cell_length_b 22.497324
_cell_length_c 19.478245
_cell_angle_alpha 90.000000
_cell_angle_beta 90.000000
_cell_angle_gamma 90.000000
_cell_volume 3869.105754
_symmetry_space_group_name_H-M "F 2 2 2"
_symmetry_group_IT_number 22
_symmetry_cell_setting 'orthorhombic'
loop_
_space_group_symop_operation_xyz
x,y,z
-x,-y,z
x,-y,-z
-x,y,-z
x,1/2+y,1/2+z
-x,1/2-y,1/2+z
x,1/2-y,1/2-z
-x,1/2+y,1/2-z
1/2+x,y,1/2+z
1/2-x,-y,1/2+z
1/2+x,-y,1/2-z
1/2-x,y,1/2-z
1/2+x,1/2+y,z
1/2-x,1/2-y,z
1/2+x,1/2-y,-z
1/2-x,1/2+y,-z
loop_
_atom_site_type_symbol
_atom_site_label
_atom_site_fract_x
_atom_site_fract_y
_atom_site_fract_z
Si Si1 0.279537 0.595387 0.112075
Si Si2 0.038846 0.682417 0.302546
Si Si3 0.778348 0.153461 0.883413
Si Si4 0.946265 0.196239 0.360508
Si Si5 0.000000 0.870979 0.000000
Si Si6 0.320406 0.021896 0.326004
O O1 0.384058 0.622571 0.172349
O O2 0.387140 0.590942 0.046578
O O3 0.229295 0.531492 0.137164
O O4 0.155885 0.646837 0.102898
O O5 0.861866 0.681053 0.317495
O O6 0.093562 0.733889 0.355586
O O7 0.065836 0.686340 0.222196
O O8 0.614183 0.182007 0.887207
O O9 0.788438 0.082708 0.867779
O O10 0.887749 0.164326 0.948843
O O11 0.250000 0.029659 0.250000
O O12 0.500000 0.000000 0.325169
#
# Coordination Sequence:
#
# PCOD9327182 Si02
#       6
#    16  16  16  16   8  16
#     4  11  24  40  64  93 127 173 214 257 317 382
#     4  10  20  40  64  96 130 168 199 264 339 383
#     4  11  24  40  64  93 127 173 214 257 317 382
#     4  11  22  38  66  97 131 158 215 271 320 382
#     4  10  24  47  62  86 128 186 224 247 318 372
#     4  12  24  40  68  97 128 160 203 269 333 387
#
# _framework density 22.744273
#
# number of rings (size 3 to 8) (size 9 to 14) (size 15 to 20)
#    0.000    1.091    3.636    4.364    2.545    5.091 
#    0.000   14.545    0.000    2.182    0.000    0.000 
#    0.000    0.000    0.000    0.000    0.000    0.000 
#
# Total GULP energy -122693.300831 kJ/mol
# GULP energy per Si atom -5576.968220 kJ/mol
# Density = 2.269251 g / cm^3
# Si number density = 22.744273 Si / 1000 Ang^3
#
#
#
# Elastic Constant Matrix: (Units=GPa)
#
#
# Indices 1 2 3 4 5 6 
#
# 1 81.3337 22.5800 9.6090 0.0000 0.0000 0.0000
# 2 22.5800 127.4879 11.0237 0.0000 0.0000 0.0000
# 3 9.6090 11.0237 76.2345 0.0000 0.0000 0.0000
# 4 0.0000 0.0000 0.0000 14.0501 0.0000 0.0000
# 5 0.0000 0.0000 0.0000 0.0000 38.0866 0.0000
# 6 0.0000 0.0000 0.0000 0.0000 0.0000 23.2844
#
#
#
# Elastic Compliance Matrix: (Units=1/GPa)
#
#
# Indices 1 2 3 4 5 6 
#
# 1 0.013062 -0.002199 -0.001329 0.000000 0.000000 0.000000
# 2 -0.002199 0.008313 -0.000925 0.000000 0.000000 0.000000
# 3 -0.001329 -0.000925 0.013419 0.000000 0.000000 0.000000
# 4 0.000000 0.000000 0.000000 0.071174 0.000000 0.000000
# 5 0.000000 0.000000 0.000000 0.000000 0.026256 0.000000
# 6 0.000000 0.000000 0.000000 0.000000 0.000000 0.042947
#
#
# Mechanical properties :
#
#
# Convention : Reuss Voigt Hill
#
# Bulk Modulus (GPa) = 38.62504 41.27573 39.95039
# Shear Modulus (GPa) = 25.94633 31.20713 28.57673
#
# Velocity S-wave (km/s) = 3.38122 3.70819 3.54847
# Velocity P-wave (km/s) = 5.68002 6.04329 5.86447
#
# Compressibility (1/GPa) = 0.02588994
#
# Stress axis : x y z
#
# Youngs Moduli (GPa) = 76.55577 120.28946 74.52329
#
# Poissons Ratio (x) = 0.26448 0.09900
# Poissons Ratio (y) = 0.16832 0.06893
# Poissons Ratio (z) = 0.10171 0.11127
#
# Static dielectric constant tensor:
#      x y z
#    x 1.922560 0.000000 0.000000 
#    y 0.000000 1.899630 0.000000 
#    z 0.000000 0.000000 1.838460 
# 
# From -- ./inp_files/12650.got.cif
#   From: 2010.05.17/outbox.cif.g08.bks.cpg/sg22_7_cif.got.tgz:12650.got - 2010.06.03 23:40:54.
