data_PCOD9327723
_publ_section_title
;
Structure prediction by ZEFSAII (Michael W. Deem and Ramdas Pophale) SiO2 
 PCOD9327723
Probable space group: F 2 2 2
;
_chemical_formula_sum "Si O2"
_cell_formula_units_Z 100
_cell_length_a 29.694011
_cell_length_b 11.086629
_cell_length_c 15.362508
_cell_angle_alpha 90.000000
_cell_angle_beta 90.000000
_cell_angle_gamma 90.000000
_cell_volume 5057.437236
_symmetry_space_group_name_H-M "F 2 2 2"
_symmetry_group_IT_number 22
_symmetry_cell_setting 'orthorhombic'
loop_
_space_group_symop_operation_xyz
x,y,z
-x,-y,z
x,-y,-z
-x,y,-z
x,1/2+y,1/2+z
-x,1/2-y,1/2+z
x,1/2-y,1/2-z
-x,1/2+y,1/2-z
1/2+x,y,1/2+z
1/2-x,-y,1/2+z
1/2+x,-y,1/2-z
1/2-x,y,1/2-z
1/2+x,1/2+y,z
1/2-x,1/2-y,z
1/2+x,1/2-y,-z
1/2-x,1/2+y,-z
loop_
_atom_site_type_symbol
_atom_site_label
_atom_site_fract_x
_atom_site_fract_y
_atom_site_fract_z
Si Si1 0.493618 0.144029 0.101989
Si Si2 0.258291 0.500000 0.000000
Si Si3 0.775889 0.624191 0.832764
Si Si4 0.250000 0.750000 0.750000
Si Si5 0.558449 0.250000 0.250000
Si Si6 0.107539 0.817251 0.657634
Si Si7 0.679020 0.368746 0.879676
Si Si8 0.864879 0.056229 0.249921
O O1 0.527087 0.213342 0.167976
O O2 0.442306 0.178490 0.121482
O O3 0.500000 0.000000 0.115909
O O4 0.500000 0.169650 0.000000
O O5 0.229413 0.454230 0.918914
O O6 0.292399 0.600806 0.964455
O O7 0.750000 0.567162 0.750000
O O8 0.750000 0.750000 0.847477
O O9 0.826500 0.633468 0.798580
O O10 0.284308 0.676990 0.810435
O O11 0.591648 0.137261 0.269592
O O12 0.106175 0.750000 0.750000
O O13 0.143108 0.737475 0.604313
O O14 0.123519 0.951158 0.680801
O O15 0.654723 0.485302 0.835000
#
# Coordination Sequence:
#
# PCOD9327723 Si02
#       8
#    16   8  16   4   8  16  16  16
#     4  11  24  45  68 103 137 170 223 278 337 423
#     4  12  26  40  66 100 137 181 232 280 338 400
#     4  11  24  44  62  90 141 178 221 283 333 395
#     4  12  20  42  72  90 126 188 230 268 334 392
#     4  12  24  41  79  96 136 189 217 280 372 406
#     4  10  21  42  70  94 130 173 222 279 332 401
#     4  11  24  40  67  98 133 176 231 279 333 399
#     4  11  22  43  66  99 130 182 226 279 338 407
#
# _framework density 19.772860999999999
#
# number of rings (size 3 to 8) (size 9 to 14) (size 15 to 20)
#    0.000    0.960    6.400    1.920    1.120    1.280 
#    2.880    0.000    0.000    6.240    0.000    0.000 
#    0.000    0.000    0.000    0.000    0.000    0.000 
#
# Total GULP energy -139624.170105 kJ/mol
# GULP energy per Si atom -5584.966804 kJ/mol
# Density = 1.972786 g / cm^3
# Si number density = 19.772861 Si / 1000 Ang^3
#
#
#
# Elastic Constant Matrix: (Units=GPa)
#
#
# Indices 1 2 3 4 5 6 
#
# 1 143.6646 55.8285 45.7383 0.0000 0.0000 0.0000
# 2 55.8285 100.4999 35.7214 0.0000 0.0000 0.0000
# 3 45.7383 35.7214 102.7246 0.0000 0.0000 0.0000
# 4 0.0000 0.0000 0.0000 16.7057 0.0000 0.0000
# 5 0.0000 0.0000 0.0000 0.0000 19.3993 0.0000
# 6 0.0000 0.0000 0.0000 0.0000 0.0000 -7.7390
#
#
#
# Elastic Compliance Matrix: (Units=1/GPa)
#
#
# Indices 1 2 3 4 5 6 
#
# 1 0.009505 -0.004309 -0.002734 0.000000 0.000000 0.000000
# 2 -0.004309 0.013307 -0.002709 0.000000 0.000000 0.000000
# 3 -0.002734 -0.002709 0.011894 0.000000 0.000000 0.000000
# 4 0.000000 0.000000 0.000000 0.059860 0.000000 0.000000
# 5 0.000000 0.000000 0.000000 0.000000 0.051548 0.000000
# 6 0.000000 0.000000 0.000000 0.000000 0.000000 -0.129215
#
#
# Mechanical properties :
#
#
# Convention : Reuss Voigt Hill
#
# Bulk Modulus (GPa) = 65.77575 69.05172 67.41373
# Shear Modulus (GPa) = 120.57100 19.64659 70.10879
#
# Velocity S-wave (km/s) = 7.81731 3.15558 5.96104
# Velocity P-wave (km/s) = 10.71534 6.94804 9.03033
#
# Compressibility (1/GPa) = 0.01520317
#
# Stress axis : x y z
#
# Youngs Moduli (GPa) = 105.20328 75.15122 84.07558
#
# Poissons Ratio (x) = 0.32379 0.22987
# Poissons Ratio (y) = 0.45327 0.22774
# Poissons Ratio (z) = 0.28763 0.20357
#
# Static dielectric constant tensor:
#      x y z
#    x 1.720810 0.000000 0.000000 
#    y 0.000000 1.804210 0.000000 
#    z 0.000000 0.000000 1.762910 
# 
# From -- ./inp_files/33493.got.cif
#   From: 2010.05.17/outbox.cif.g08.bks.cpg/sg22_17_cif.got.tgz:33493.got - 2010.06.03 23:40:54.
