data_PCOD9327002
_publ_section_title
;
Structure prediction by ZEFSAII (Michael W. Deem and Ramdas Pophale) SiO2 
 PCOD9327002
Probable space group: F 2 2 2
;
_chemical_formula_sum "Si O2"
_cell_formula_units_Z 84
_cell_length_a 16.070123
_cell_length_b 20.917722
_cell_length_c 11.675178
_cell_angle_alpha 90.000000
_cell_angle_beta 90.000000
_cell_angle_gamma 90.000000
_cell_volume 3924.615351
_symmetry_space_group_name_H-M "F 2 2 2"
_symmetry_group_IT_number 22
_symmetry_cell_setting 'orthorhombic'
loop_
_space_group_symop_operation_xyz
x,y,z
-x,-y,z
x,-y,-z
-x,y,-z
x,1/2+y,1/2+z
-x,1/2-y,1/2+z
x,1/2-y,1/2-z
-x,1/2+y,1/2-z
1/2+x,y,1/2+z
1/2-x,-y,1/2+z
1/2+x,-y,1/2-z
1/2-x,y,1/2-z
1/2+x,1/2+y,z
1/2-x,1/2-y,z
1/2+x,1/2-y,-z
1/2-x,1/2+y,-z
loop_
_atom_site_type_symbol
_atom_site_label
_atom_site_fract_x
_atom_site_fract_y
_atom_site_fract_z
Si Si1 0.961503 0.344420 0.302748
Si Si2 0.000000 0.500000 0.500000
Si Si3 0.806941 0.387485 0.418852
Si Si4 0.250000 0.508837 0.250000
Si Si5 0.925388 0.713526 0.929779
Si Si6 0.250000 0.750000 0.446294
Si Si7 0.378528 0.416508 0.155217
O O1 0.900055 0.392768 0.367489
O O2 0.916492 0.328778 0.183471
O O3 0.959299 0.280963 0.380568
O O4 0.056931 0.366097 0.290638
O O5 0.060197 0.540066 0.581102
O O6 0.755022 0.444073 0.360189
O O7 0.775904 0.316333 0.384884
O O8 0.815609 0.389342 0.557029
O O9 0.328287 0.461134 0.241922
O O10 0.839645 0.728055 0.996486
O O11 0.000000 0.683838 0.000000
#
# Coordination Sequence:
#
# PCOD9327002 Si02
#       7
#    16   4  16   8  16   8  16
#     4  10  20  37  65  88 124 172 227 269 328 399
#     4  12  20  40  68  84 114 170 228 256 314 388
#     4  11  21  40  62  91 123 165 222 270 326 391
#     4  12  24  35  58  95 128 158 212 282 330 372
#     4  10  21  37  59  97 132 171 218 279 340 402
#     4  10  22  37  66  89 122 166 206 271 336 383
#     4  12  22  40  63  92 125 171 220 272 321 398
#
# _framework density 21.403372000000001
#
# number of rings (size 3 to 8) (size 9 to 14) (size 15 to 20)
#    0.000    1.143    3.810    3.429    0.000    8.762 
#    0.000    1.905    0.000    1.143    0.000    4.000 
#    0.000    0.000    0.000    0.000    0.000    0.000 
#
# Total GULP energy -116988.136485 kJ/mol
# GULP energy per Si atom -5570.863642 kJ/mol
# Density = 2.135466 g / cm^3
# Si number density = 21.403372 Si / 1000 Ang^3
#
#
#
# Elastic Constant Matrix: (Units=GPa)
#
#
# Indices 1 2 3 4 5 6 
#
# 1 122.3926 37.9535 21.0401 0.0000 0.0000 0.0000
# 2 37.9535 81.3822 8.2115 0.0000 0.0000 0.0000
# 3 21.0401 8.2115 44.3435 0.0000 0.0000 0.0000
# 4 0.0000 0.0000 0.0000 -21.0851 0.0000 0.0000
# 5 0.0000 0.0000 0.0000 0.0000 35.3867 0.0000
# 6 0.0000 0.0000 0.0000 0.0000 0.0000 51.0607
#
#
#
# Elastic Compliance Matrix: (Units=1/GPa)
#
#
# Indices 1 2 3 4 5 6 
#
# 1 0.010216 -0.004357 -0.004041 0.000000 0.000000 0.000000
# 2 -0.004357 0.014380 -0.000596 0.000000 0.000000 0.000000
# 3 -0.004041 -0.000596 0.024579 0.000000 0.000000 0.000000
# 4 0.000000 0.000000 0.000000 -0.047427 0.000000 0.000000
# 5 0.000000 0.000000 0.000000 0.000000 0.028259 0.000000
# 6 0.000000 0.000000 0.000000 0.000000 0.000000 0.019585
#
#
# Mechanical properties :
#
#
# Convention : Reuss Voigt Hill
#
# Bulk Modulus (GPa) = 32.06301 42.50317 37.28309
# Shear Modulus (GPa) = 64.12473 25.13333 44.62903
#
# Velocity S-wave (km/s) = 5.47952 3.43048 4.57129
# Velocity P-wave (km/s) = 7.41933 5.96592 6.73196
#
# Compressibility (1/GPa) = 0.03118859
#
# Stress axis : x y z
#
# Youngs Moduli (GPa) = 97.88559 69.54309 40.68568
#
# Poissons Ratio (x) = 0.30298 0.16439
# Poissons Ratio (y) = 0.42645 0.02423
# Poissons Ratio (z) = 0.39551 0.04142
#
# Static dielectric constant tensor:
#      x y z
#    x 1.842660 0.000000 0.000000 
#    y 0.000000 1.813990 0.000000 
#    z 0.000000 0.000000 1.809000 
# 
# From -- ./inp_files/21542.got.cif
#   From: 2010.05.17/outbox.cif.g08.bks.cpg/sg22_11_cif.got.tgz:21542.got - 2010.06.03 23:40:54.
