data_PCOD9327354
_publ_section_title
;
Structure prediction by ZEFSAII (Michael W. Deem and Ramdas Pophale) SiO2 
 PCOD9327354
Probable space group: F 2 2 2
;
_chemical_formula_sum "Si O2"
_cell_formula_units_Z 72
_cell_length_a 7.345665
_cell_length_b 21.399176
_cell_length_c 20.597054
_cell_angle_alpha 90.000000
_cell_angle_beta 90.000000
_cell_angle_gamma 90.000000
_cell_volume 3237.675185
_symmetry_space_group_name_H-M "F 2 2 2"
_symmetry_group_IT_number 22
_symmetry_cell_setting 'orthorhombic'
loop_
_space_group_symop_operation_xyz
x,y,z
-x,-y,z
x,-y,-z
-x,y,-z
x,1/2+y,1/2+z
-x,1/2-y,1/2+z
x,1/2-y,1/2-z
-x,1/2+y,1/2-z
1/2+x,y,1/2+z
1/2-x,-y,1/2+z
1/2+x,-y,1/2-z
1/2-x,y,1/2-z
1/2+x,1/2+y,z
1/2-x,1/2-y,z
1/2+x,1/2-y,-z
1/2-x,1/2+y,-z
loop_
_atom_site_type_symbol
_atom_site_label
_atom_site_fract_x
_atom_site_fract_y
_atom_site_fract_z
Si Si1 0.998594 0.300854 0.362274
Si Si2 0.636678 0.670821 0.315974
Si Si3 0.205351 0.934471 0.471767
Si Si4 0.500000 0.169758 0.500000
Si Si5 0.714385 0.406811 0.321931
O O1 0.197323 0.333293 0.365662
O O2 0.028959 0.235612 0.326269
O O3 0.962805 0.288134 0.437265
O O4 0.853829 0.347467 0.329704
O O5 0.750000 0.671588 0.250000
O O6 0.491650 0.617085 0.318646
O O7 0.329415 0.877715 0.495934
O O8 0.223463 0.939017 0.392779
O O9 0.000000 0.925917 0.500000
O O10 0.271405 0.000000 0.500000
O O11 0.750000 0.436189 0.250000
#
# Coordination Sequence:
#
# PCOD9327354 Si02
#       5
#    16  16  16   8  16
#     4  10  21  36  55  89 129 168 209 246 303 374
#     4  11  21  36  57  86 132 173 201 249 306 370
#     4  10  22  43  70  88 123 165 211 273 333 379
#     4  10  21  40  62  92 122 166 211 256 312 382
#     4  11  22  37  64  93 124 162 217 259 311 380
#
# _framework density 22.238178000000001
#
# number of rings (size 3 to 8) (size 9 to 14) (size 15 to 20)
#    0.000    1.556    2.222    3.667    0.000    0.889 
#   18.000    0.000   19.556    0.000    0.000    0.000 
#    0.000    0.000    0.000    0.000    0.000    0.000 
#
# Total GULP energy -100379.499590 kJ/mol
# GULP energy per Si atom -5576.638866 kJ/mol
# Density = 2.218756 g / cm^3
# Si number density = 22.238178 Si / 1000 Ang^3
#
#
#
# Elastic Constant Matrix: (Units=GPa)
#
#
# Indices 1 2 3 4 5 6 
#
# 1 79.8303 17.9698 5.1949 0.0000 0.0000 0.0000
# 2 17.9698 21.3825 40.5808 0.0000 0.0000 0.0000
# 3 5.1949 40.5808 185.4938 0.0000 0.0000 0.0000
# 4 0.0000 0.0000 0.0000 25.0119 0.0000 0.0000
# 5 0.0000 0.0000 0.0000 0.0000 12.6142 0.0000
# 6 0.0000 0.0000 0.0000 0.0000 0.0000 11.7762
#
#
#
# Elastic Compliance Matrix: (Units=1/GPa)
#
#
# Indices 1 2 3 4 5 6 
#
# 1 0.017536 -0.023607 0.004673 0.000000 0.000000 0.000000
# 2 -0.023607 0.111749 -0.023786 0.000000 0.000000 0.000000
# 3 0.004673 -0.023786 0.010464 0.000000 0.000000 0.000000
# 4 0.000000 0.000000 0.000000 0.039981 0.000000 0.000000
# 5 0.000000 0.000000 0.000000 0.000000 0.079276 0.000000
# 6 0.000000 0.000000 0.000000 0.000000 0.000000 0.084917
#
#
# Mechanical properties :
#
#
# Convention : Reuss Voigt Hill
#
# Bulk Modulus (GPa) = 18.41288 46.02194 32.21741
# Shear Modulus (GPa) = 11.17402 24.74453 17.95927
#
# Velocity S-wave (km/s) = 2.24402 3.33934 2.84489
# Velocity P-wave (km/s) = 3.87453 5.96726 5.03091
#
# Compressibility (1/GPa) = 0.05430981
#
# Stress axis : x y z
#
# Youngs Moduli (GPa) = 57.02441 8.94860 95.56631
#
# Poissons Ratio (x) = 0.21125 -0.44662
# Poissons Ratio (y) = 1.34617 2.27318
# Poissons Ratio (z) = -0.26650 0.21286
#
# Static dielectric constant tensor:
#      x y z
#    x 1.904570 0.000000 0.000000 
#    y 0.000000 1.804130 0.000000 
#    z 0.000000 0.000000 1.942370 
# 
# From -- ./inp_files/35059.got.cif
#   From: 2010.05.17/outbox.cif.g08.bks.cpg/sg22_18_cif.got.tgz:35059.got - 2010.06.03 23:40:54.
