data_PCOD9327110
_publ_section_title
;
Structure prediction by ZEFSAII (Michael W. Deem and Ramdas Pophale) SiO2 
 PCOD9327110
Probable space group: F 2 2 2
;
_chemical_formula_sum "Si O2"
_cell_formula_units_Z 88
_cell_length_a 20.451719
_cell_length_b 14.868373
_cell_length_c 14.742086
_cell_angle_alpha 90.000000
_cell_angle_beta 90.000000
_cell_angle_gamma 90.000000
_cell_volume 4482.829333
_symmetry_space_group_name_H-M "F 2 2 2"
_symmetry_group_IT_number 22
_symmetry_cell_setting 'orthorhombic'
loop_
_space_group_symop_operation_xyz
x,y,z
-x,-y,z
x,-y,-z
-x,y,-z
x,1/2+y,1/2+z
-x,1/2-y,1/2+z
x,1/2-y,1/2-z
-x,1/2+y,1/2-z
1/2+x,y,1/2+z
1/2-x,-y,1/2+z
1/2+x,-y,1/2-z
1/2-x,y,1/2-z
1/2+x,1/2+y,z
1/2-x,1/2-y,z
1/2+x,1/2-y,-z
1/2-x,1/2+y,-z
loop_
_atom_site_type_symbol
_atom_site_label
_atom_site_fract_x
_atom_site_fract_y
_atom_site_fract_z
Si Si1 0.954109 0.913200 0.802001
Si Si2 0.750000 0.986134 0.750000
Si Si3 0.373985 0.064409 0.862633
Si Si4 0.429496 0.708315 0.848523
Si Si5 0.848256 0.968027 0.100399
Si Si6 0.428018 0.110867 0.043331
O O1 0.998440 0.834534 0.839933
O O2 0.924286 0.888199 0.705195
O O3 0.896878 0.952252 0.865273
O O4 0.000000 0.000000 0.787910
O O5 0.694535 0.936316 0.809899
O O6 0.790191 0.038272 0.826825
O O7 0.403350 0.964038 0.884094
O O8 0.376330 0.107573 0.961096
O O9 0.410027 0.750000 0.750000
O O10 0.386080 0.626508 0.888302
O O11 0.429530 0.792382 0.913825
O O12 0.827966 0.000000 0.000000
O O13 0.500000 0.092477 0.000000
#
# Coordination Sequence:
#
# PCOD9327110 Si02
#       6
#    16   8  16  16  16  16
#     4   9  18  35  57  86 128 159 191 249 318 377
#     4  10  22  42  69  83 118 178 226 250 306 383
#     4  10  20  39  62  91 122 168 214 254 306 379
#     4  11  22  37  61  98 132 159 201 264 330 381
#     4  10  23  40  64  91 128 169 215 259 316 382
#     4  11  22  35  65  98 128 159 209 264 325 383
#
# _framework density 19.630459999999999
#
# number of rings (size 3 to 8) (size 9 to 14) (size 15 to 20)
#    0.000    1.818    0.000    6.545    5.091    2.545 
#    0.000    4.091    0.000    1.091    0.000    0.000 
#    0.000    0.000    0.000    0.000    0.000    0.000 
#
# Total GULP energy -122675.216723 kJ/mol
# GULP energy per Si atom -5576.146215 kJ/mol
# Density = 1.958578 g / cm^3
# Si number density = 19.630460 Si / 1000 Ang^3
#
#
#
# Elastic Constant Matrix: (Units=GPa)
#
#
# Indices 1 2 3 4 5 6 
#
# 1 93.3129 35.8350 49.7180 0.0000 0.0000 0.0000
# 2 35.8350 129.5548 61.7065 0.0000 0.0000 0.0000
# 3 49.7180 61.7065 122.3404 0.0000 0.0000 0.0000
# 4 0.0000 0.0000 0.0000 26.0895 0.0000 0.0000
# 5 0.0000 0.0000 0.0000 0.0000 25.6266 0.0000
# 6 0.0000 0.0000 0.0000 0.0000 0.0000 -4.8153
#
#
#
# Elastic Compliance Matrix: (Units=1/GPa)
#
#
# Indices 1 2 3 4 5 6 
#
# 1 0.013902 -0.001519 -0.004883 0.000000 0.000000 0.000000
# 2 -0.001519 0.010325 -0.004591 0.000000 0.000000 0.000000
# 3 -0.004883 -0.004591 0.012474 0.000000 0.000000 0.000000
# 4 0.000000 0.000000 0.000000 0.038330 0.000000 0.000000
# 5 0.000000 0.000000 0.000000 0.000000 0.039022 0.000000
# 6 0.000000 0.000000 0.000000 0.000000 0.000000 -0.207671
#
#
# Mechanical properties :
#
#
# Convention : Reuss Voigt Hill
#
# Bulk Modulus (GPa) = 67.95853 71.08076 69.51965
# Shear Modulus (GPa) = -74.93287 22.57673 -26.17807
#
# Velocity S-wave (km/s) = -6.18503 3.39497 -3.65573
# Velocity P-wave (km/s) = 4.03882 7.18720 4.20379
#
# Compressibility (1/GPa) = 0.01471486
#
# Stress axis : x y z
#
# Youngs Moduli (GPa) = 71.93216 96.84803 80.16798
#
# Poissons Ratio (x) = 0.14715 0.39148
# Poissons Ratio (y) = 0.10930 0.36801
# Poissons Ratio (z) = 0.35126 0.44458
#
# Static dielectric constant tensor:
#      x y z
#    x 1.724620 0.000000 0.000000 
#    y 0.000000 1.665670 0.000000 
#    z 0.000000 0.000000 1.727370 
# 
# From -- ./inp_files/31421.got.cif
#   From: 2010.05.17/outbox.cif.g08.bks.cpg/sg22_16_cif.got.tgz:31421.got - 2010.06.03 23:40:54.
