data_PCOD9327865
_publ_section_title
;
Structure prediction by ZEFSAII (Michael W. Deem and Ramdas Pophale) SiO2 
 PCOD9327865
Probable space group: F 2 2 2
;
_chemical_formula_sum "Si O2"
_cell_formula_units_Z 80
_cell_length_a 16.878658
_cell_length_b 22.735126
_cell_length_c 9.170915
_cell_angle_alpha 90.000000
_cell_angle_beta 90.000000
_cell_angle_gamma 90.000000
_cell_volume 3519.232398
_symmetry_space_group_name_H-M "F 2 2 2"
_symmetry_group_IT_number 22
_symmetry_cell_setting 'orthorhombic'
loop_
_space_group_symop_operation_xyz
x,y,z
-x,-y,z
x,-y,-z
-x,y,-z
x,1/2+y,1/2+z
-x,1/2-y,1/2+z
x,1/2-y,1/2-z
-x,1/2+y,1/2-z
1/2+x,y,1/2+z
1/2-x,-y,1/2+z
1/2+x,-y,1/2-z
1/2-x,y,1/2-z
1/2+x,1/2+y,z
1/2-x,1/2-y,z
1/2+x,1/2-y,-z
1/2-x,1/2+y,-z
loop_
_atom_site_type_symbol
_atom_site_label
_atom_site_fract_x
_atom_site_fract_y
_atom_site_fract_z
Si Si1 0.164202 0.569671 0.307501
Si Si2 0.908453 0.375555 0.048137
Si Si3 0.582982 0.460708 0.683905
Si Si4 0.589604 0.625705 0.059841
Si Si5 0.588234 0.749207 0.930427
O O1 0.250000 0.585527 0.250000
O O2 0.104093 0.611543 0.217539
O O3 0.141921 0.504303 0.263651
O O4 0.147359 0.582039 0.474026
O O5 0.872614 0.311180 0.021941
O O6 0.882018 0.434804 0.966146
O O7 0.000000 0.374100 0.000000
O O8 0.500000 0.500000 0.673776
O O9 0.580232 0.400299 0.778633
O O10 0.500000 0.621022 0.000000
O O11 0.619710 0.690594 0.010925
O O12 0.586189 0.750000 0.750000
O O13 0.500000 0.751970 0.000000
#
# Coordination Sequence:
#
# PCOD9327865 Si02
#       5
#    16  16  16  16  16
#     4  12  26  43  66 101 138 176 219 274 338 400
#     4  11  22  41  67  94 135 176 222 270 332 393
#     4  12  24  39  65  99 135 179 221 271 328 409
#     4  11  22  41  67  94 135 176 222 270 332 393
#     4  10  22  38  62  98 133 164 226 285 330 385
#
# _framework density 22.732227999999999
#
# number of rings (size 3 to 8) (size 9 to 14) (size 15 to 20)
#    0.000    0.800    6.000    1.200    8.400    3.200 
#    0.000    2.000    0.000    0.000    0.000    4.200 
#    0.000    0.000    0.000    0.000    0.000    0.000 
#
# Total GULP energy -111378.106477 kJ/mol
# GULP energy per Si atom -5568.905324 kJ/mol
# Density = 2.268049 g / cm^3
# Si number density = 22.732228 Si / 1000 Ang^3
#
#
#
# Elastic Constant Matrix: (Units=GPa)
#
#
# Indices 1 2 3 4 5 6 
#
# 1 49.0249 -2.7151 13.5636 0.0000 0.0000 0.0000
# 2 -2.7151 167.2857 49.5959 0.0000 0.0000 0.0000
# 3 13.5636 49.5959 99.4544 0.0000 0.0000 0.0000
# 4 0.0000 0.0000 0.0000 37.0380 0.0000 0.0000
# 5 0.0000 0.0000 0.0000 0.0000 16.0204 0.0000
# 6 0.0000 0.0000 0.0000 0.0000 0.0000 3.4811
#
#
#
# Elastic Compliance Matrix: (Units=1/GPa)
#
#
# Indices 1 2 3 4 5 6 
#
# 1 0.021485 0.001429 -0.003643 0.000000 0.000000 0.000000
# 2 0.001429 0.007110 -0.003740 0.000000 0.000000 0.000000
# 3 -0.003643 -0.003740 0.012417 0.000000 0.000000 0.000000
# 4 0.000000 0.000000 0.000000 0.026999 0.000000 0.000000
# 5 0.000000 0.000000 0.000000 0.000000 0.062420 0.000000
# 6 0.000000 0.000000 0.000000 0.000000 0.000000 0.287265
#
#
# Mechanical properties :
#
#
# Convention : Reuss Voigt Hill
#
# Bulk Modulus (GPa) = 34.36083 48.51707 41.43895
# Shear Modulus (GPa) = 11.38160 28.32928 19.85544
#
# Velocity S-wave (km/s) = 2.24002 3.53401 2.95862
# Velocity P-wave (km/s) = 4.67317 6.16778 5.47175
#
# Compressibility (1/GPa) = 0.02910290
#
# Stress axis : x y z
#
# Youngs Moduli (GPa) = 46.54477 140.64852 80.53541
#
# Poissons Ratio (x) = -0.20093 0.29335
# Poissons Ratio (y) = -0.06649 0.30124
# Poissons Ratio (z) = 0.16954 0.52608
#
# Static dielectric constant tensor:
#      x y z
#    x 1.848770 0.000000 0.000000 
#    y 0.000000 1.984140 0.000000 
#    z 0.000000 0.000000 1.899670 
# 
# From -- ./inp_files/11638.got.cif
#   From: 2010.05.17/outbox.cif.g08.bks.cpg/sg22_6_cif.got.tgz:11638.got - 2010.06.03 23:40:54.
