data_PCOD9327712
_publ_section_title
;
Structure prediction by ZEFSAII (Michael W. Deem and Ramdas Pophale) SiO2 
 PCOD9327712
Probable space group: F 2 2 2
;
_chemical_formula_sum "Si O2"
_cell_formula_units_Z 64
_cell_length_a 17.517382
_cell_length_b 7.439405
_cell_length_c 21.218791
_cell_angle_alpha 90.000000
_cell_angle_beta 90.000000
_cell_angle_gamma 90.000000
_cell_volume 2765.209486
_symmetry_space_group_name_H-M "F 2 2 2"
_symmetry_group_IT_number 22
_symmetry_cell_setting 'orthorhombic'
loop_
_space_group_symop_operation_xyz
x,y,z
-x,-y,z
x,-y,-z
-x,y,-z
x,1/2+y,1/2+z
-x,1/2-y,1/2+z
x,1/2-y,1/2-z
-x,1/2+y,1/2-z
1/2+x,y,1/2+z
1/2-x,-y,1/2+z
1/2+x,-y,1/2-z
1/2-x,y,1/2-z
1/2+x,1/2+y,z
1/2-x,1/2-y,z
1/2+x,1/2-y,-z
1/2-x,1/2+y,-z
loop_
_atom_site_type_symbol
_atom_site_label
_atom_site_fract_x
_atom_site_fract_y
_atom_site_fract_z
Si Si1 0.214373 0.996901 0.818294
Si Si2 0.000000 0.500000 0.173529
Si Si3 0.108977 0.250000 0.750000
Si Si4 0.363281 0.500000 0.000000
Si Si5 0.750000 0.750000 0.577774
Si Si6 0.565973 0.142142 0.624898
O O1 0.250000 0.953089 0.750000
O O2 0.162271 0.169697 0.803323
O O3 0.264568 0.072681 0.876604
O O4 0.148711 0.859117 0.839742
O O5 0.061042 0.592354 0.219225
O O6 0.032806 0.338820 0.132807
O O7 0.313890 0.339225 0.967520
O O8 0.413579 0.584293 0.945094
O O9 0.500000 0.000000 0.647551
#
# Coordination Sequence:
#
# PCOD9327712 Si02
#       6
#    16   8   8   8   8  16
#     4  11  21  42  74 106 144 190 239 308 379 449
#     4  12  26  44  73 108 150 199 238 312 382 442
#     4  12  21  40  68 106 145 186 242 286 381 456
#     4  10  25  44  72 104 145 192 260 312 369 448
#     4  10  21  42  68  98 147 190 238 310 380 432
#     4  11  24  49  73 106 147 198 257 310 368 450
#
# _framework density 23.14472
#
# number of rings (size 3 to 8) (size 9 to 14) (size 15 to 20)
#    0.000    1.000    5.000    1.875    0.000    2.000 
#    0.000    3.750    0.000    0.000    0.000    0.000 
#    0.000    0.000    0.000    0.000    0.000    0.000 
#
# Total GULP energy -89301.092819 kJ/mol
# GULP energy per Si atom -5581.318301 kJ/mol
# Density = 2.309204 g / cm^3
# Si number density = 23.144720 Si / 1000 Ang^3
#
#
#
# Elastic Constant Matrix: (Units=GPa)
#
#
# Indices 1 2 3 4 5 6 
#
# 1 99.2042 65.3747 70.5689 0.0000 0.0000 0.0000
# 2 65.3747 158.2308 48.5515 0.0000 0.0000 0.0000
# 3 70.5689 48.5515 144.7250 0.0000 0.0000 0.0000
# 4 0.0000 0.0000 0.0000 7.8259 0.0000 0.0000
# 5 0.0000 0.0000 0.0000 0.0000 54.0283 0.0000
# 6 0.0000 0.0000 0.0000 0.0000 0.0000 27.8144
#
#
#
# Elastic Compliance Matrix: (Units=1/GPa)
#
#
# Indices 1 2 3 4 5 6 
#
# 1 0.019032 -0.005591 -0.007404 0.000000 0.000000 0.000000
# 2 -0.005591 0.008688 -0.000188 0.000000 0.000000 0.000000
# 3 -0.007404 -0.000188 0.010583 0.000000 0.000000 0.000000
# 4 0.000000 0.000000 0.000000 0.127780 0.000000 0.000000
# 5 0.000000 0.000000 0.000000 0.000000 0.018509 0.000000
# 6 0.000000 0.000000 0.000000 0.000000 0.000000 0.035953
#
#
# Mechanical properties :
#
#
# Convention : Reuss Voigt Hill
#
# Bulk Modulus (GPa) = 83.78562 85.68337 84.73449
# Shear Modulus (GPa) = 19.92903 32.44473 26.18688
#
# Velocity S-wave (km/s) = 2.93757 3.74815 3.36734
# Velocity P-wave (km/s) = 6.91268 7.47212 7.19784
#
# Compressibility (1/GPa) = 0.01193522
#
# Stress axis : x y z
#
# Youngs Moduli (GPa) = 52.54333 115.10506 94.48944
#
# Poissons Ratio (x) = 0.64359 0.69963
# Poissons Ratio (y) = 0.29378 0.01778
# Poissons Ratio (z) = 0.38905 0.02166
#
# Static dielectric constant tensor:
#      x y z
#    x 1.942820 0.000000 0.000000 
#    y 0.000000 1.779540 0.000000 
#    z 0.000000 0.000000 1.916160 
# 
# From -- ./inp_files/11208.got.cif
#   From: 2010.05.17/outbox.cif.g08.bks.cpg/sg22_6_cif.got.tgz:11208.got - 2010.06.03 23:40:54.
