data_PCOD9327168
_publ_section_title
;
Structure prediction by ZEFSAII (Michael W. Deem and Ramdas Pophale) SiO2 
 PCOD9327168
Probable space group: F 2 2 2
;
_chemical_formula_sum "Si O2"
_cell_formula_units_Z 72
_cell_length_a 30.502217
_cell_length_b 16.829770
_cell_length_c 7.096618
_cell_angle_alpha 90.000000
_cell_angle_beta 90.000000
_cell_angle_gamma 90.000000
_cell_volume 3643.015472
_symmetry_space_group_name_H-M "F 2 2 2"
_symmetry_group_IT_number 22
_symmetry_cell_setting 'orthorhombic'
loop_
_space_group_symop_operation_xyz
x,y,z
-x,-y,z
x,-y,-z
-x,y,-z
x,1/2+y,1/2+z
-x,1/2-y,1/2+z
x,1/2-y,1/2-z
-x,1/2+y,1/2-z
1/2+x,y,1/2+z
1/2-x,-y,1/2+z
1/2+x,-y,1/2-z
1/2-x,y,1/2-z
1/2+x,1/2+y,z
1/2-x,1/2-y,z
1/2+x,1/2-y,-z
1/2-x,1/2+y,-z
loop_
_atom_site_type_symbol
_atom_site_label
_atom_site_fract_x
_atom_site_fract_y
_atom_site_fract_z
Si Si1 0.201454 0.154461 0.785951
Si Si2 0.135324 0.143663 0.085022
Si Si3 0.376367 0.678937 0.477631
Si Si4 0.569475 0.500000 0.000000
Si Si5 0.954500 0.571948 0.886566
O O1 0.204930 0.250000 0.750000
O O2 0.250000 0.121802 0.750000
O O3 0.161659 0.136171 0.643412
O O4 0.182913 0.130388 0.990746
O O5 0.134784 0.160229 0.305893
O O6 0.121853 0.225050 0.975748
O O7 0.101578 0.072151 0.057215
O O8 0.422776 0.645922 0.409302
O O9 0.542761 0.538759 0.825759
O O10 0.931777 0.500000 0.000000
O O11 0.000000 0.585427 0.000000
#
# Coordination Sequence:
#
# PCOD9327168 Si02
#       5
#    16  16  16   8  16
#     4   9  18  34  61  93 124 162 210 256 303 368
#     4  10  21  36  65  91 122 169 205 252 316 363
#     4  10  20  40  61  92 127 161 208 258 309 365
#     4  12  22  41  68  88 120 164 208 250 321 374
#     4  11  24  41  65  91 124 158 205 257 313 372
#
# _framework density 19.763846999999998
#
# number of rings (size 3 to 8) (size 9 to 14) (size 15 to 20)
#    0.000    1.778    4.444    0.000    0.000    2.667 
#    0.000    8.889    7.333    0.000    0.000    0.000 
#    0.000    0.000    0.000    0.000    0.000    0.000 
#
# Total GULP energy -100231.079703 kJ/mol
# GULP energy per Si atom -5568.393317 kJ/mol
# Density = 1.971886 g / cm^3
# Si number density = 19.763847 Si / 1000 Ang^3
#
#
#
# Elastic Constant Matrix: (Units=GPa)
#
#
# Indices 1 2 3 4 5 6 
#
# 1 152.7018 43.0427 61.1604 0.0000 0.0000 0.0000
# 2 43.0427 53.3241 23.6971 0.0000 0.0000 0.0000
# 3 61.1604 23.6971 127.1004 -0.0001 -0.0001 0.0001
# 4 0.0000 0.0000 -0.0001 26.9149 0.0000 0.0000
# 5 0.0000 0.0000 -0.0001 0.0000 23.2489 0.0000
# 6 0.0000 0.0000 0.0001 0.0000 0.0000 0.2782
#
#
#
# Elastic Compliance Matrix: (Units=1/GPa)
#
#
# Indices 1 2 3 4 5 6 
#
# 1 0.009727 -0.006293 -0.003507 0.000000 0.000000 0.000001
# 2 -0.006293 0.024519 -0.001543 0.000000 0.000000 -0.000002
# 3 -0.003507 -0.001543 0.009843 0.000000 0.000000 -0.000002
# 4 0.000000 0.000000 0.000000 0.037154 0.000000 -0.000004
# 5 0.000000 0.000000 0.000000 0.000000 0.043013 -0.000003
# 6 0.000001 -0.000002 -0.000002 -0.000004 -0.000003 3.594776
#
#
# Mechanical properties :
#
#
# Convention : Reuss Voigt Hill
#
# Bulk Modulus (GPa) = 46.72471 65.43632 56.08051
# Shear Modulus (GPa) = 1.33374 23.77011 12.55193
#
# Velocity S-wave (km/s) = 0.82238 3.47177 2.52284
# Velocity P-wave (km/s) = 4.95929 7.01797 6.07645
#
# Compressibility (1/GPa) = 0.02140195
#
# Stress axis : x y z
#
# Youngs Moduli (GPa) = 102.80215 40.78501 101.59192
#
# Poissons Ratio (x) = 0.25667 0.35633
# Poissons Ratio (y) = 0.64695 0.15677
# Poissons Ratio (z) = 0.36058 0.06294
#
# Static dielectric constant tensor:
#      x y z
#    x 1.711830 0.000000 0.000000 
#    y 0.000000 1.718370 0.000000 
#    z 0.000000 0.000000 1.759010 
# 
# From -- ./inp_files/5516.got.cif
#   From: 2010.05.17/outbox.cif.g08.bks.cpg/sg22_3_cif.got.tgz:5516.got - 2010.06.03 23:40:54.
