data_PCOD9327221
_publ_section_title
;
Structure prediction by ZEFSAII (Michael W. Deem and Ramdas Pophale) SiO2 
 PCOD9327221
Probable space group: F 2 2 2
;
_chemical_formula_sum "Si O2"
_cell_formula_units_Z 116
_cell_length_a 25.937042
_cell_length_b 24.879418
_cell_length_c 8.626357
_cell_angle_alpha 90.000000
_cell_angle_beta 90.000000
_cell_angle_gamma 90.000000
_cell_volume 5566.575315
_symmetry_space_group_name_H-M "F 2 2 2"
_symmetry_group_IT_number 22
_symmetry_cell_setting 'orthorhombic'
loop_
_space_group_symop_operation_xyz
x,y,z
-x,-y,z
x,-y,-z
-x,y,-z
x,1/2+y,1/2+z
-x,1/2-y,1/2+z
x,1/2-y,1/2-z
-x,1/2+y,1/2-z
1/2+x,y,1/2+z
1/2-x,-y,1/2+z
1/2+x,-y,1/2-z
1/2-x,y,1/2-z
1/2+x,1/2+y,z
1/2-x,1/2-y,z
1/2+x,1/2-y,-z
1/2-x,1/2+y,-z
loop_
_atom_site_type_symbol
_atom_site_label
_atom_site_fract_x
_atom_site_fract_y
_atom_site_fract_z
Si Si1 0.621270 0.846719 0.969608
Si Si2 0.024701 0.193803 0.670239
Si Si3 0.327954 0.048894 0.846330
Si Si4 0.545566 0.597213 0.291188
Si Si5 0.266668 0.309343 0.430643
Si Si6 0.000000 0.500000 0.000000
Si Si7 0.274127 0.418268 0.974526
Si Si8 0.367574 0.961627 0.647033
O O1 0.585967 0.811607 0.856040
O O2 0.635767 0.901481 0.882720
O O3 0.584495 0.866873 0.106697
O O4 0.672798 0.819444 0.036886
O O5 0.011571 0.250000 0.750000
O O6 0.000000 0.196026 0.500000
O O7 0.001243 0.138558 0.743566
O O8 0.301010 0.061851 0.681769
O O9 0.281966 0.053985 0.972061
O O10 0.359479 0.995083 0.806741
O O11 0.527903 0.543791 0.386222
O O12 0.582983 0.576354 0.156516
O O13 0.250000 0.316011 0.250000
O O14 0.250000 0.250000 0.477857
O O15 0.236804 0.355274 0.524600
O O16 0.312795 0.432951 0.112906
O O17 0.375928 0.000000 0.500000
#
# Coordination Sequence:
#
# PCOD9327221 Si02
#       8
#    16  16  16  16  16   4  16  16
#     4  10  20  41  64  90 123 166 221 261 328 399
#     4  10  23  47  67  98 127 172 232 281 344 398
#     4   9  19  37  57  86 126 164 210 253 312 393
#     4  11  22  41  66  94 125 172 221 284 332 398
#     4  10  21  38  60  93 123 164 209 261 318 387
#     4  12  20  40  74  92 128 160 232 280 324 400
#     4   9  19  39  53  85 129 161 205 259 308 394
#     4  10  21  39  58  94 129 170 211 257 337 393
#
# _framework density 20.838664999999999
#
# number of rings (size 3 to 8) (size 9 to 14) (size 15 to 20)
#    0.000    2.069    2.069    1.655    0.000    1.103 
#   54.621    5.172    0.000    0.000    0.000    0.000 
#    0.000    0.000    0.000    0.000    0.000    0.000 
#
# Total GULP energy -161688.555894 kJ/mol
# GULP energy per Si atom -5575.467445 kJ/mol
# Density = 2.079124 g / cm^3
# Si number density = 20.838665 Si / 1000 Ang^3
#
#
#
# Elastic Constant Matrix: (Units=GPa)
#
#
# Indices 1 2 3 4 5 6 
#
# 1 119.2270 58.4811 29.3104 0.0006 -0.0040 -0.0007
# 2 58.4811 144.0852 24.4557 0.0009 -0.0059 -0.0005
# 3 29.3104 24.4557 23.6151 -0.0006 -0.0058 -0.0019
# 4 0.0006 0.0009 -0.0006 22.4854 -0.0036 -0.0016
# 5 -0.0040 -0.0059 -0.0058 -0.0036 -28.0951 0.0006
# 6 -0.0007 -0.0005 -0.0019 -0.0016 0.0006 74.8885
#
#
#
# Elastic Compliance Matrix: (Units=1/GPa)
#
#
# Indices 1 2 3 4 5 6 
#
# 1 0.013126 -0.003109 -0.013072 -0.000001 0.000001 0.000000
# 2 -0.003109 0.009157 -0.005624 0.000000 0.000000 0.000000
# 3 -0.013072 -0.005624 0.064395 0.000002 -0.000010 0.000001
# 4 -0.000001 0.000000 0.000002 0.044473 -0.000006 0.000001
# 5 0.000001 0.000000 -0.000010 -0.000006 -0.035593 0.000000
# 6 0.000000 0.000000 0.000001 0.000001 0.000000 0.013353
#
#
# Mechanical properties :
#
#
# Convention : Reuss Voigt Hill
#
# Bulk Modulus (GPa) = 23.21939 56.82465 40.02202
# Shear Modulus (GPa) = 29.96238 25.50108 27.73173
#
# Velocity S-wave (km/s) = 3.79598 3.50199 3.65195
# Velocity P-wave (km/s) = 5.51174 6.60908 6.08520
#
# Compressibility (1/GPa) = 0.04306745
#
# Stress axis : x y z
#
# Youngs Moduli (GPa) = 76.18593 109.20951 15.52923
#
# Poissons Ratio (x) = 0.33951 0.20300
# Poissons Ratio (y) = 0.23684 0.08734
# Poissons Ratio (z) = 0.99590 0.61421
#
# Static dielectric constant tensor:
#      x y z
#    x 1.800250 0.000000 0.000010 
#    y 0.000000 1.829890 0.000000 
#    z 0.000010 0.000000 1.712570 
# 
# From -- ./inp_files/14968.got.cif
#   From: 2010.05.17/outbox.cif.g08.bks.cpg/sg22_8_cif.got.tgz:14968.got - 2010.06.03 23:40:54.
