data_PCOD9327638
_publ_section_title
;
Structure prediction by ZEFSAII (Michael W. Deem and Ramdas Pophale) SiO2 
 PCOD9327638
Probable space group: F 2 2 2
;
_chemical_formula_sum "Si O2"
_cell_formula_units_Z 96
_cell_length_a 21.840591
_cell_length_b 15.432493
_cell_length_c 14.717589
_cell_angle_alpha 90.000000
_cell_angle_beta 90.000000
_cell_angle_gamma 90.000000
_cell_volume 4960.633542
_symmetry_space_group_name_H-M "F 2 2 2"
_symmetry_group_IT_number 22
_symmetry_cell_setting 'orthorhombic'
loop_
_space_group_symop_operation_xyz
x,y,z
-x,-y,z
x,-y,-z
-x,y,-z
x,1/2+y,1/2+z
-x,1/2-y,1/2+z
x,1/2-y,1/2-z
-x,1/2+y,1/2-z
1/2+x,y,1/2+z
1/2-x,-y,1/2+z
1/2+x,-y,1/2-z
1/2-x,y,1/2-z
1/2+x,1/2+y,z
1/2-x,1/2-y,z
1/2+x,1/2-y,-z
1/2-x,1/2+y,-z
loop_
_atom_site_type_symbol
_atom_site_label
_atom_site_fract_x
_atom_site_fract_y
_atom_site_fract_z
Si Si1 0.120601 0.155729 0.293069
Si Si2 0.299493 0.959326 0.666802
Si Si3 0.997516 0.600420 0.891564
Si Si4 0.718783 0.156195 0.956030
Si Si5 0.686836 0.854964 0.694775
Si Si6 0.364500 0.328235 0.626781
O O1 0.122103 0.250000 0.250000
O O2 0.143005 0.088407 0.214922
O O3 0.169980 0.156268 0.374290
O O4 0.055300 0.140285 0.339745
O O5 0.250000 0.962179 0.750000
O O6 0.271219 0.906522 0.582900
O O7 0.308672 0.058665 0.636826
O O8 0.936471 0.658988 0.883789
O O9 0.000000 0.500000 0.859406
O O10 0.000000 0.594760 0.000000
O O11 0.750000 0.250000 0.969342
O O12 0.678863 0.135907 0.046333
O O13 0.750000 0.837896 0.750000
O O14 0.659276 0.770267 0.646238
O O15 0.645246 0.879830 0.780084
#
# Coordination Sequence:
#
# PCOD9327638 Si02
#       6
#    16  16  16  16  16  16
#     4  11  21  38  63  87 127 166 209 262 322 376
#     4   9  20  36  61  90 127 161 205 258 316 385
#     4  11  24  42  60  91 121 158 217 267 312 371
#     4  11  20  37  63  93 126 167 208 259 321 382
#     4  10  21  41  60  93 127 165 210 253 323 386
#     4  11  22  39  65  85 127 170 208 265 312 380
#
# _framework density 19.352367000000001
#
# number of rings (size 3 to 8) (size 9 to 14) (size 15 to 20)
#    0.000    1.500    3.333    3.000    2.333    0.000 
#    0.000    5.833    0.000    0.000    0.000    1.167 
#    0.000    0.000    0.000    0.000    0.000    0.000 
#
# Total GULP energy -133693.413477 kJ/mol
# GULP energy per Si atom -5570.558895 kJ/mol
# Density = 1.930832 g / cm^3
# Si number density = 19.352367 Si / 1000 Ang^3
#
#
#
# Elastic Constant Matrix: (Units=GPa)
#
#
# Indices 1 2 3 4 5 6 
#
# 1 123.0583 51.1411 41.8622 0.0000 0.0000 0.0000
# 2 51.1411 121.5053 30.8296 0.0000 0.0000 0.0000
# 3 41.8622 30.8296 92.1580 0.0000 0.0000 0.0000
# 4 0.0000 0.0000 0.0000 -5.9830 0.0000 0.0000
# 5 0.0000 0.0000 0.0000 0.0000 19.1095 0.0000
# 6 0.0000 0.0000 0.0000 0.0000 0.0000 22.3772
#
#
#
# Elastic Compliance Matrix: (Units=1/GPa)
#
#
# Indices 1 2 3 4 5 6 
#
# 1 0.010912 -0.003645 -0.003738 0.000000 0.000000 0.000000
# 2 -0.003645 0.010211 -0.001760 0.000000 0.000000 0.000000
# 3 -0.003738 -0.001760 0.013138 0.000000 0.000000 0.000000
# 4 0.000000 0.000000 0.000000 -0.167139 0.000000 0.000000
# 5 0.000000 0.000000 0.000000 0.000000 0.052330 0.000000
# 6 0.000000 0.000000 0.000000 0.000000 0.000000 0.044688
#
#
# Mechanical properties :
#
#
# Convention : Reuss Voigt Hill
#
# Bulk Modulus (GPa) = 62.59521 64.93193 63.76357
# Shear Modulus (GPa) = -408.17272 21.29331 -193.43971
#
# Velocity S-wave (km/s) = -14.53871 3.32067 -10.00868
# Velocity P-wave (km/s) = 15.79294 6.95182 10.02719
#
# Compressibility (1/GPa) = 0.01597566
#
# Stress axis : x y z
#
# Youngs Moduli (GPa) = 91.63929 97.93621 76.11751
#
# Poissons Ratio (x) = 0.35694 0.28450
# Poissons Ratio (y) = 0.33399 0.13399
# Poissons Ratio (z) = 0.34251 0.17239
#
# Static dielectric constant tensor:
#      x y z
#    x 1.774220 0.000000 0.000000 
#    y 0.000000 1.709650 0.000000 
#    z 0.000000 0.000000 1.560240 
# 
# From -- ./inp_files/29346.got.cif
#   From: 2010.05.17/outbox.cif.g08.bks.cpg/sg22_15_cif.got.tgz:29346.got - 2010.06.03 23:40:54.
