data_PCOD9327415
_publ_section_title
;
Structure prediction by ZEFSAII (Michael W. Deem and Ramdas Pophale) SiO2 
 PCOD9327415
Probable space group: F 2 2 2
;
_chemical_formula_sum "Si O2"
_cell_formula_units_Z 116
_cell_length_a 25.305057
_cell_length_b 27.209210
_cell_length_c 8.656061
_cell_angle_alpha 90.000000
_cell_angle_beta 90.000000
_cell_angle_gamma 90.000000
_cell_volume 5959.962960
_symmetry_space_group_name_H-M "F 2 2 2"
_symmetry_group_IT_number 22
_symmetry_cell_setting 'orthorhombic'
loop_
_space_group_symop_operation_xyz
x,y,z
-x,-y,z
x,-y,-z
-x,y,-z
x,1/2+y,1/2+z
-x,1/2-y,1/2+z
x,1/2-y,1/2-z
-x,1/2+y,1/2-z
1/2+x,y,1/2+z
1/2-x,-y,1/2+z
1/2+x,-y,1/2-z
1/2-x,y,1/2-z
1/2+x,1/2+y,z
1/2-x,1/2-y,z
1/2+x,1/2-y,-z
1/2-x,1/2+y,-z
loop_
_atom_site_type_symbol
_atom_site_label
_atom_site_fract_x
_atom_site_fract_y
_atom_site_fract_z
Si Si1 0.844187 0.699009 0.416010
Si Si2 0.421312 0.117768 0.321977
Si Si3 0.250000 0.750000 0.750000
Si Si4 0.022704 0.140153 0.657011
Si Si5 0.603967 0.573903 0.840908
Si Si6 0.187228 0.853320 0.236090
Si Si7 0.110797 0.283900 0.901972
Si Si8 0.437877 0.514592 0.675620
O O1 0.875681 0.658866 0.315559
O O2 0.789130 0.716111 0.347018
O O3 0.830998 0.674790 0.581025
O O4 0.878191 0.747953 0.454862
O O5 0.476283 0.145634 0.282980
O O6 0.413696 0.092440 0.489780
O O7 0.423784 0.071236 0.207712
O O8 0.064681 0.103601 0.729410
O O9 0.055386 0.187759 0.602695
O O10 0.000000 0.118125 0.500000
O O11 0.661688 0.593185 0.791785
O O12 0.594176 0.517684 0.800303
O O13 0.250000 0.852975 0.250000
O O14 0.157818 0.823746 0.374638
O O15 0.110934 0.250000 0.750000
O O16 0.500000 0.500000 0.699037
O O17 0.424585 0.500000 0.500000
#
# Coordination Sequence:
#
# PCOD9327415 Si02
#       8
#    16  16   4  16  16  16  16  16
#     4  10  23  39  58  92 119 164 210 266 311 375
#     4  11  23  39  62  88 129 161 210 259 311 379
#     4  12  24  40  62  84 124 164 212 262 326 368
#     4  11  22  34  55  87 123 167 197 252 302 372
#     4  10  21  37  61  93 122 163 207 251 318 376
#     4   9  18  38  64  87 116 158 211 263 301 366
#     4   9  20  37  57  83 118 159 211 248 309 363
#     4  11  22  39  63  93 125 165 206 252 316 392
#
# _framework density 19.463208000000002
#
# number of rings (size 3 to 8) (size 9 to 14) (size 15 to 20)
#    0.000    1.793    1.379    3.310    1.931    3.586 
#    2.483    0.000    1.517    0.000    0.000    0.000 
#    0.000    0.000    0.000    0.000    0.000    0.000 
#
# Total GULP energy -161756.130160 kJ/mol
# GULP energy per Si atom -5577.797592 kJ/mol
# Density = 1.941891 g / cm^3
# Si number density = 19.463208 Si / 1000 Ang^3
#
#
#
# Elastic Constant Matrix: (Units=GPa)
#
#
# Indices 1 2 3 4 5 6 
#
# 1 114.4189 65.0970 27.6339 -0.0010 0.0047 0.0028
# 2 65.0970 114.9354 41.1023 -0.0037 0.0014 0.0034
# 3 27.6339 41.1023 64.4136 -0.0034 0.0069 0.0084
# 4 -0.0010 -0.0037 -0.0034 13.5995 0.0029 0.0038
# 5 0.0047 0.0014 0.0069 0.0029 13.6164 -0.0068
# 6 0.0028 0.0034 0.0084 0.0038 -0.0068 24.9523
#
#
#
# Elastic Compliance Matrix: (Units=1/GPa)
#
#
# Indices 1 2 3 4 5 6 
#
# 1 0.012959 -0.006934 -0.001135 -0.000001 -0.000003 0.000000
# 2 -0.006934 0.014983 -0.006586 0.000002 0.000004 0.000001
# 3 -0.001135 -0.006586 0.020214 0.000003 -0.000009 -0.000006
# 4 -0.000001 0.000002 0.000003 0.073532 -0.000016 -0.000011
# 5 -0.000003 0.000004 -0.000009 -0.000016 0.073441 0.000020
# 6 0.000000 0.000001 -0.000006 -0.000011 0.000020 0.040076
#
#
# Mechanical properties :
#
#
# Convention : Reuss Voigt Hill
#
# Bulk Modulus (GPa) = 53.06054 62.38159 57.72107
# Shear Modulus (GPa) = 18.46405 21.09596 19.78000
#
# Velocity S-wave (km/s) = 3.08338 3.29582 3.19137
# Velocity P-wave (km/s) = 6.32436 6.82670 6.58032
#
# Compressibility (1/GPa) = 0.01884640
#
# Stress axis : x y z
#
# Youngs Moduli (GPa) = 77.16787 66.74304 49.47047
#
# Poissons Ratio (x) = 0.46277 0.05615
# Poissons Ratio (y) = 0.53506 0.32581
# Poissons Ratio (z) = 0.08759 0.43957
#
# Static dielectric constant tensor:
#      x y z
#    x 1.672650 0.000000 0.000000 
#    y 0.000000 1.788280 0.000000 
#    z 0.000000 0.000000 1.712170 
# 
# From -- ./inp_files/14088.got.cif
#   From: 2010.05.17/outbox.cif.g08.bks.cpg/sg22_8_cif.got.tgz:14088.got - 2010.06.03 23:40:54.
