data_PCOD9327265
_publ_section_title
;
Structure prediction by ZEFSAII (Michael W. Deem and Ramdas Pophale) SiO2 
 PCOD9327265
Probable space group: F 2 2 2
;
_chemical_formula_sum "Si O2"
_cell_formula_units_Z 64
_cell_length_a 7.861736
_cell_length_b 18.571613
_cell_length_c 23.653018
_cell_angle_alpha 90.000000
_cell_angle_beta 90.000000
_cell_angle_gamma 90.000000
_cell_volume 3453.461696
_symmetry_space_group_name_H-M "F 2 2 2"
_symmetry_group_IT_number 22
_symmetry_cell_setting 'orthorhombic'
loop_
_space_group_symop_operation_xyz
x,y,z
-x,-y,z
x,-y,-z
-x,y,-z
x,1/2+y,1/2+z
-x,1/2-y,1/2+z
x,1/2-y,1/2-z
-x,1/2+y,1/2-z
1/2+x,y,1/2+z
1/2-x,-y,1/2+z
1/2+x,-y,1/2-z
1/2-x,y,1/2-z
1/2+x,1/2+y,z
1/2-x,1/2-y,z
1/2+x,1/2-y,-z
1/2-x,1/2+y,-z
loop_
_atom_site_type_symbol
_atom_site_label
_atom_site_fract_x
_atom_site_fract_y
_atom_site_fract_z
Si Si1 0.499104 0.160237 0.325165
Si Si2 0.191356 0.472772 0.063200
Si Si3 0.364712 0.821118 0.551110
Si Si4 0.500000 0.000000 0.354412
Si Si5 0.250000 0.250000 0.250000
Si Si6 0.250000 0.750000 0.250000
O O1 0.474663 0.180066 0.391023
O O2 0.496077 0.074202 0.320503
O O3 0.347386 0.197017 0.291525
O O4 0.654500 0.196889 0.293075
O O5 0.232263 0.387519 0.059548
O O6 0.332412 0.502785 0.106064
O O7 0.000000 0.500000 0.077775
O O8 0.225084 0.500000 0.000000
O O9 0.500000 0.831748 0.500000
O O10 0.250000 0.750000 0.543247
#
# Coordination Sequence:
#
# PCOD9327265 Si02
#       6
#    16  16  16   8   4   4
#     4  10  22  42  63  90 126 163 216 263 322 381
#     4  10  21  38  61  89 130 173 209 258 324 384
#     4  11  24  39  64  99 133 167 217 274 328 397
#     4  10  21  40  62  94 122 162 213 272 314 390
#     4  10  20  44  62  82 124 172 204 264 320 372
#     4  10  24  40  66  90 124 176 212 268 324 384
#
# _framework density 18.532129999999999
#
# number of rings (size 3 to 8) (size 9 to 14) (size 15 to 20)
#    0.000    1.750    1.250    3.375    5.250    3.000 
#    4.500    0.000    0.000    0.000    0.000    0.000 
#    0.000    0.000    0.000    0.000    0.000    0.000 
#
# Total GULP energy -89154.821274 kJ/mol
# GULP energy per Si atom -5572.176330 kJ/mol
# Density = 1.848995 g / cm^3
# Si number density = 18.532130 Si / 1000 Ang^3
#
#
#
# Elastic Constant Matrix: (Units=GPa)
#
#
# Indices 1 2 3 4 5 6 
#
# 1 119.8787 93.5613 61.9448 0.0000 0.0000 0.0000
# 2 93.5613 165.8154 60.5290 0.0000 0.0000 0.0000
# 3 61.9448 60.5290 130.1801 0.0000 0.0000 0.0000
# 4 0.0000 0.0000 0.0000 36.7757 0.0000 0.0000
# 5 0.0000 0.0000 0.0000 0.0000 109.0169 0.0000
# 6 0.0000 0.0000 0.0000 0.0000 0.0000 22.7546
#
#
#
# Elastic Compliance Matrix: (Units=1/GPa)
#
#
# Indices 1 2 3 4 5 6 
#
# 1 0.016683 -0.007848 -0.004290 0.000000 0.000000 0.000000
# 2 -0.007848 0.010955 -0.001360 0.000000 0.000000 0.000000
# 3 -0.004290 -0.001360 0.010355 0.000000 0.000000 0.000000
# 4 0.000000 0.000000 0.000000 0.027192 0.000000 0.000000
# 5 0.000000 0.000000 0.000000 0.000000 0.009173 0.000000
# 6 0.000000 0.000000 0.000000 0.000000 0.000000 0.043947
#
#
# Mechanical properties :
#
#
# Convention : Reuss Voigt Hill
#
# Bulk Modulus (GPa) = 90.91174 94.21607 92.56390
# Shear Modulus (GPa) = 33.56493 47.03205 40.29849
#
# Velocity S-wave (km/s) = 4.26041 5.04319 4.66823
# Velocity P-wave (km/s) = 8.56529 9.21202 8.89454
#
# Compressibility (1/GPa) = 0.01099968
#
# Stress axis : x y z
#
# Youngs Moduli (GPa) = 59.94091 91.28203 96.57188
#
# Poissons Ratio (x) = 0.71634 0.41426
# Poissons Ratio (y) = 0.47039 0.13129
# Poissons Ratio (z) = 0.25713 0.12410
#
# Static dielectric constant tensor:
#      x y z
#    x 1.671210 0.000000 0.000000 
#    y 0.000000 1.620310 0.000000 
#    z 0.000000 0.000000 1.602920 
# 
# From -- ./inp_files/34846.got.cif
#   From: 2010.05.17/outbox.cif.g08.bks.cpg/sg22_18_cif.got.tgz:34846.got - 2010.06.03 23:40:54.
