data_PCOD9327667
_publ_section_title
;
Structure prediction by ZEFSAII (Michael W. Deem and Ramdas Pophale) SiO2 
 PCOD9327667
Probable space group: F 2 2 2
;
_chemical_formula_sum "Si O2"
_cell_formula_units_Z 116
_cell_length_a 8.896348
_cell_length_b 22.029864
_cell_length_c 29.025888
_cell_angle_alpha 90.000000
_cell_angle_beta 90.000000
_cell_angle_gamma 90.000000
_cell_volume 5688.648428
_symmetry_space_group_name_H-M "F 2 2 2"
_symmetry_group_IT_number 22
_symmetry_cell_setting 'orthorhombic'
loop_
_space_group_symop_operation_xyz
x,y,z
-x,-y,z
x,-y,-z
-x,y,-z
x,1/2+y,1/2+z
-x,1/2-y,1/2+z
x,1/2-y,1/2-z
-x,1/2+y,1/2-z
1/2+x,y,1/2+z
1/2-x,-y,1/2+z
1/2+x,-y,1/2-z
1/2-x,y,1/2-z
1/2+x,1/2+y,z
1/2-x,1/2-y,z
1/2+x,1/2-y,-z
1/2-x,1/2+y,-z
loop_
_atom_site_type_symbol
_atom_site_label
_atom_site_fract_x
_atom_site_fract_y
_atom_site_fract_z
Si Si1 0.920524 0.188340 0.229182
Si Si2 0.500000 0.000000 0.500000
Si Si3 0.465572 0.691275 0.872098
Si Si4 0.678502 0.686762 0.499189
Si Si5 0.354916 0.824554 0.895044
Si Si6 0.077093 0.561546 0.235702
Si Si7 0.070008 0.436469 0.874411
Si Si8 0.845518 0.902170 0.933158
O O1 0.990013 0.250000 0.250000
O O2 0.750000 0.187012 0.250000
O O3 0.989662 0.124393 0.244962
O O4 0.934003 0.191330 0.174097
O O5 0.585800 0.045125 0.464879
O O6 0.444458 0.761082 0.888891
O O7 0.291648 0.672300 0.862343
O O8 0.539277 0.644733 0.908605
O O9 0.500000 0.690249 0.500000
O O10 0.750000 0.750000 0.513936
O O11 0.717057 0.675257 0.445966
O O12 0.741133 0.636084 0.532441
O O13 0.466562 0.880332 0.889717
O O14 0.250000 0.558527 0.250000
O O15 0.070252 0.563842 0.180666
O O16 0.000000 0.500000 0.252509
O O17 0.236794 0.428979 0.894070
O O18 0.000000 0.500000 0.890858
#
# Coordination Sequence:
#
# PCOD9327667 Si02
#       8
#    16   4  16  16  16  16  16  16
#     4  10  21  41  68 100 135 172 223 286 342 411
#     4  12  32  44  66 104 144 180 240 300 332 424
#     4  11  24  44  73 102 138 180 227 300 344 414
#     4  12  24  43  69 100 136 179 226 289 338 412
#     4  11  24  45  66 103 140 176 232 285 351 408
#     4  10  22  43  66  97 129 168 223 274 333 408
#     4  11  26  45  68  97 137 185 226 275 343 427
#     4  12  27  45  70  99 137 188 233 286 349 409
#
# _framework density 20.391486
#
# number of rings (size 3 to 8) (size 9 to 14) (size 15 to 20)
#    0.000    0.966    2.759    4.138    4.828    3.310 
#    2.483    4.138    0.000    0.000    0.000    0.000 
#    0.000    0.000    0.000    0.000    0.000    0.000 
#
# Total GULP energy -162000.974289 kJ/mol
# GULP energy per Si atom -5586.240493 kJ/mol
# Density = 2.034507 g / cm^3
# Si number density = 20.391486 Si / 1000 Ang^3
#
#
#
# Elastic Constant Matrix: (Units=GPa)
#
#
# Indices 1 2 3 4 5 6 
#
# 1 95.0671 67.7663 18.2361 0.0000 0.0000 0.0000
# 2 67.7663 186.5406 36.9527 0.0000 0.0000 0.0000
# 3 18.2361 36.9527 74.5562 0.0000 0.0000 0.0000
# 4 0.0000 0.0000 0.0000 75.2430 0.0000 0.0000
# 5 0.0000 0.0000 0.0000 0.0000 23.7853 0.0000
# 6 0.0000 0.0000 0.0000 0.0000 0.0000 29.1306
#
#
#
# Elastic Compliance Matrix: (Units=1/GPa)
#
#
# Indices 1 2 3 4 5 6 
#
# 1 0.014264 -0.004980 -0.001021 0.000000 0.000000 0.000000
# 2 -0.004980 0.007683 -0.002590 0.000000 0.000000 0.000000
# 3 -0.001021 -0.002590 0.014946 0.000000 0.000000 0.000000
# 4 0.000000 0.000000 0.000000 0.013290 0.000000 0.000000
# 5 0.000000 0.000000 0.000000 0.000000 0.042043 0.000000
# 6 0.000000 0.000000 0.000000 0.000000 0.000000 0.034328
#
#
# Mechanical properties :
#
#
# Convention : Reuss Voigt Hill
#
# Bulk Modulus (GPa) = 50.72969 66.89712 58.81340
# Shear Modulus (GPa) = 33.26541 41.17901 37.22221
#
# Velocity S-wave (km/s) = 4.04336 4.49867 4.27708
# Velocity P-wave (km/s) = 6.83596 7.73703 7.30041
#
# Compressibility (1/GPa) = 0.01971232
#
# Stress axis : x y z
#
# Youngs Moduli (GPa) = 70.10466 130.16033 66.90737
#
# Poissons Ratio (x) = 0.64816 0.06830
# Poissons Ratio (y) = 0.34910 0.17328
# Poissons Ratio (z) = 0.07157 0.33710
#
# Static dielectric constant tensor:
#      x y z
#    x 1.741320 0.000000 0.000000 
#    y 0.000000 1.740970 0.000000 
#    z 0.000000 0.000000 1.734750 
# 
# From -- ./inp_files/52144.got.cif
#   From: 2010.05.17/outbox.cif.g08.bks.cpg/sg22_27_cif.got.tgz:52144.got - 2010.06.03 23:40:54.
