data_PCOD9327366
_publ_section_title
;
Structure prediction by ZEFSAII (Michael W. Deem and Ramdas Pophale) SiO2 
 PCOD9327366
Probable space group: F 2 2 2
;
_chemical_formula_sum "Si O2"
_cell_formula_units_Z 88
_cell_length_a 16.976535
_cell_length_b 16.891182
_cell_length_c 15.830861
_cell_angle_alpha 90.000000
_cell_angle_beta 90.000000
_cell_angle_gamma 90.000000
_cell_volume 4539.558637
_symmetry_space_group_name_H-M "F 2 2 2"
_symmetry_group_IT_number 22
_symmetry_cell_setting 'orthorhombic'
loop_
_space_group_symop_operation_xyz
x,y,z
-x,-y,z
x,-y,-z
-x,y,-z
x,1/2+y,1/2+z
-x,1/2-y,1/2+z
x,1/2-y,1/2-z
-x,1/2+y,1/2-z
1/2+x,y,1/2+z
1/2-x,-y,1/2+z
1/2+x,-y,1/2-z
1/2-x,y,1/2-z
1/2+x,1/2+y,z
1/2-x,1/2-y,z
1/2+x,1/2-y,-z
1/2-x,1/2+y,-z
loop_
_atom_site_type_symbol
_atom_site_label
_atom_site_fract_x
_atom_site_fract_y
_atom_site_fract_z
Si Si1 0.992171 0.907529 0.879047
Si Si2 0.252107 0.427901 0.445346
Si Si3 0.416551 0.857649 0.968663
Si Si4 0.423528 0.839036 0.770002
Si Si5 0.250000 0.598364 0.750000
Si Si6 0.883931 0.323552 0.496890
O O1 0.018088 0.894630 0.782796
O O2 0.910809 0.868399 0.910952
O O3 0.057217 0.859255 0.932472
O O4 0.000000 0.000000 0.899506
O O5 0.217629 0.500000 0.500000
O O6 0.339920 0.411278 0.478418
O O7 0.252200 0.442658 0.343608
O O8 0.200909 0.350533 0.469462
O O9 0.427406 0.848721 0.869013
O O10 0.500000 0.888648 0.000000
O O11 0.398398 0.770246 0.006980
O O12 0.446181 0.750000 0.750000
O O13 0.331983 0.853807 0.746072
#
# Coordination Sequence:
#
# PCOD9327366 Si02
#       6
#    16  16  16  16   8  16
#     4  11  21  34  60  93 120 149 194 261 317 352
#     4  11  23  39  61  89 124 159 202 258 309 362
#     4  11  22  40  59  87 122 167 205 237 302 378
#     4  11  19  36  60  87 119 153 196 252 300 357
#     4  10  21  36  60  88 115 150 204 250 309 350
#     4  11  19  38  63  89 120 149 203 257 312 354
#
# _framework density 19.385144
#
# number of rings (size 3 to 8) (size 9 to 14) (size 15 to 20)
#    0.000    1.091    5.455    3.000    0.000    3.273 
#    6.545    0.000    0.000    0.000    0.000    5.091 
#    0.000    0.000    0.000    0.000    0.000    0.000 
#
# Total GULP energy -122681.671238 kJ/mol
# GULP energy per Si atom -5576.439602 kJ/mol
# Density = 1.934102 g / cm^3
# Si number density = 19.385144 Si / 1000 Ang^3
#
#
#
# Elastic Constant Matrix: (Units=GPa)
#
#
# Indices 1 2 3 4 5 6 
#
# 1 88.3055 -0.5094 28.0920 0.0000 0.0000 0.0000
# 2 -0.5094 63.0291 25.1706 0.0000 0.0000 0.0000
# 3 28.0920 25.1706 51.4491 0.0000 0.0000 0.0000
# 4 0.0000 0.0000 0.0000 15.4897 0.0000 0.0000
# 5 0.0000 0.0000 0.0000 0.0000 30.6533 0.0000
# 6 0.0000 0.0000 0.0000 0.0000 0.0000 18.1869
#
#
#
# Elastic Compliance Matrix: (Units=1/GPa)
#
#
# Indices 1 2 3 4 5 6 
#
# 1 0.014501 0.004075 -0.009912 0.000000 0.000000 0.000000
# 2 0.004075 0.020863 -0.012432 0.000000 0.000000 0.000000
# 3 -0.009912 -0.012432 0.030931 0.000000 0.000000 0.000000
# 4 0.000000 0.000000 0.000000 0.064559 0.000000 0.000000
# 5 0.000000 0.000000 0.000000 0.000000 0.032623 0.000000
# 6 0.000000 0.000000 0.000000 0.000000 0.000000 0.054985
#
#
# Mechanical properties :
#
#
# Convention : Reuss Voigt Hill
#
# Bulk Modulus (GPa) = 33.60412 34.25446 33.92929
# Shear Modulus (GPa) = 18.87375 22.86801 20.87088
#
# Velocity S-wave (km/s) = 3.12367 3.43835 3.28478
# Velocity P-wave (km/s) = 5.51202 5.78549 5.65041
#
# Compressibility (1/GPa) = 0.02975826
#
# Stress axis : x y z
#
# Youngs Moduli (GPa) = 68.96112 47.93071 32.33021
#
# Poissons Ratio (x) = -0.19533 0.32044
# Poissons Ratio (y) = -0.28104 0.40194
# Poissons Ratio (z) = 0.68351 0.59589
#
# Static dielectric constant tensor:
#      x y z
#    x 1.715220 0.000000 0.000000 
#    y 0.000000 1.666020 0.000000 
#    z 0.000000 0.000000 1.698440 
# 
# From -- ./inp_files/30614.got.cif
#   From: 2010.05.17/outbox.cif.g08.bks.cpg/sg22_16_cif.got.tgz:30614.got - 2010.06.03 23:40:54.
