data_PCOD9327724
_publ_section_title
;
Structure prediction by ZEFSAII (Michael W. Deem and Ramdas Pophale) SiO2 
 PCOD9327724
Probable space group: F 2 2 2
;
_chemical_formula_sum "Si O2"
_cell_formula_units_Z 108
_cell_length_a 30.855524
_cell_length_b 13.625127
_cell_length_c 11.833298
_cell_angle_alpha 90.000000
_cell_angle_beta 90.000000
_cell_angle_gamma 90.000000
_cell_volume 4974.841938
_symmetry_space_group_name_H-M "F 2 2 2"
_symmetry_group_IT_number 22
_symmetry_cell_setting 'orthorhombic'
loop_
_space_group_symop_operation_xyz
x,y,z
-x,-y,z
x,-y,-z
-x,y,-z
x,1/2+y,1/2+z
-x,1/2-y,1/2+z
x,1/2-y,1/2-z
-x,1/2+y,1/2-z
1/2+x,y,1/2+z
1/2-x,-y,1/2+z
1/2+x,-y,1/2-z
1/2-x,y,1/2-z
1/2+x,1/2+y,z
1/2-x,1/2-y,z
1/2+x,1/2-y,-z
1/2-x,1/2+y,-z
loop_
_atom_site_type_symbol
_atom_site_label
_atom_site_fract_x
_atom_site_fract_y
_atom_site_fract_z
Si Si1 0.153861 0.044222 0.675286
Si Si2 0.525931 0.602653 0.904961
Si Si3 0.162865 0.661755 0.941521
Si Si4 0.193419 0.912592 0.093250
Si Si5 0.060217 0.125625 0.667118
Si Si6 0.394257 0.197488 0.535645
Si Si7 0.750000 0.750000 0.006130
Si Si8 0.500000 0.500000 0.500000
O O1 0.163392 0.118717 0.571066
O O2 0.187189 0.053320 0.778521
O O3 0.103523 0.066203 0.705231
O O4 0.156699 0.933710 0.632242
O O5 0.500000 0.500000 0.894024
O O6 0.530877 0.638150 0.777564
O O7 0.573197 0.606538 0.963375
O O8 0.500000 0.664196 0.000000
O O9 0.122589 0.737040 0.931183
O O10 0.208433 0.715298 0.922901
O O11 0.151113 0.843907 0.079221
O O12 0.233808 0.842080 0.068000
O O13 0.192995 0.000000 0.000000
O O14 0.080460 0.223879 0.613557
O O15 0.031857 0.066572 0.576363
#
# Coordination Sequence:
#
# PCOD9327724 Si02
#       8
#    16  16  16  16  16  16   8   4
#     4  10  21  42  70  97 132 180 230 280 347 419
#     4  11  24  39  63  96 136 175 223 296 347 419
#     4   9  21  41  70  99 134 174 228 290 343 420
#     4  11  25  43  73 102 141 188 231 292 353 431
#     4  11  22  42  66  96 132 176 235 291 346 424
#     4  10  22  43  67  91 131 184 234 278 353 420
#     4  10  24  45  67 110 144 180 237 285 356 430
#     4  12  24  40  66 100 138 184 228 302 372 392
#
# _framework density 21.709232
#
# number of rings (size 3 to 8) (size 9 to 14) (size 15 to 20)
#    0.000    1.630    2.222    2.222    7.259    2.963 
#    0.000    3.704    3.259    0.000    0.000    0.000 
#    0.000    0.000    0.000    0.000    0.000    0.000 
#
# Total GULP energy -150455.577829 kJ/mol
# GULP energy per Si atom -5572.428808 kJ/mol
# Density = 2.165982 g / cm^3
# Si number density = 21.709232 Si / 1000 Ang^3
#
#
#
# Elastic Constant Matrix: (Units=GPa)
#
#
# Indices 1 2 3 4 5 6 
#
# 1 105.8601 47.9278 21.7173 0.0000 0.0000 0.0000
# 2 47.9278 133.7786 40.7960 0.0000 0.0000 0.0000
# 3 21.7173 40.7960 71.6668 0.0000 0.0000 0.0000
# 4 0.0000 0.0000 0.0000 17.0620 0.0000 0.0000
# 5 0.0000 0.0000 0.0000 0.0000 -0.9629 0.0000
# 6 0.0000 0.0000 0.0000 0.0000 0.0000 52.0452
#
#
#
# Elastic Compliance Matrix: (Units=1/GPa)
#
#
# Indices 1 2 3 4 5 6 
#
# 1 0.011385 -0.003662 -0.001365 0.000000 0.000000 0.000000
# 2 -0.003662 0.010223 -0.004710 0.000000 0.000000 0.000000
# 3 -0.001365 -0.004710 0.017048 0.000000 0.000000 0.000000
# 4 0.000000 0.000000 0.000000 0.058610 0.000000 0.000000
# 5 0.000000 0.000000 0.000000 0.000000 -1.038550 0.000000
# 6 0.000000 0.000000 0.000000 0.000000 0.000000 0.019214
#
#
# Mechanical properties :
#
#
# Convention : Reuss Voigt Hill
#
# Bulk Modulus (GPa) = 52.13331 59.13197 55.63264
# Shear Modulus (GPa) = -5.57910 27.01982 10.72036
#
# Velocity S-wave (km/s) = -1.60484 3.53175 2.22461
# Velocity P-wave (km/s) = 4.54230 6.62784 5.68158
#
# Compressibility (1/GPa) = 0.01918160
#
# Stress axis : x y z
#
# Youngs Moduli (GPa) = 87.83780 97.81494 58.65739
#
# Poissons Ratio (x) = 0.35824 0.08007
# Poissons Ratio (y) = 0.32170 0.27626
# Poissons Ratio (z) = 0.11991 0.46069
#
# Static dielectric constant tensor:
#      x y z
#    x 1.846050 0.000000 0.000000 
#    y 0.000000 1.872330 0.000000 
#    z 0.000000 0.000000 1.837780 
# 
# From -- ./inp_files/25448.got.cif
#   From: 2010.05.17/outbox.cif.g08.bks.cpg/sg22_13_cif.got.tgz:25448.got - 2010.06.03 23:40:54.
