data_PCOD9327993
_publ_section_title
;
Structure prediction by ZEFSAII (Michael W. Deem and Ramdas Pophale) SiO2 
 PCOD9327993
Probable space group: F 2 2 2
;
_chemical_formula_sum "Si O2"
_cell_formula_units_Z 64
_cell_length_a 18.218822
_cell_length_b 16.552415
_cell_length_c 9.034004
_cell_angle_alpha 90.000000
_cell_angle_beta 90.000000
_cell_angle_gamma 90.000000
_cell_volume 2724.343956
_symmetry_space_group_name_H-M "F 2 2 2"
_symmetry_group_IT_number 22
_symmetry_cell_setting 'orthorhombic'
loop_
_space_group_symop_operation_xyz
x,y,z
-x,-y,z
x,-y,-z
-x,y,-z
x,1/2+y,1/2+z
-x,1/2-y,1/2+z
x,1/2-y,1/2-z
-x,1/2+y,1/2-z
1/2+x,y,1/2+z
1/2-x,-y,1/2+z
1/2+x,-y,1/2-z
1/2-x,y,1/2-z
1/2+x,1/2+y,z
1/2-x,1/2-y,z
1/2+x,1/2-y,-z
1/2-x,1/2+y,-z
loop_
_atom_site_type_symbol
_atom_site_label
_atom_site_fract_x
_atom_site_fract_y
_atom_site_fract_z
Si Si1 0.836316 0.443031 0.229528
Si Si2 0.167654 0.130067 0.197574
Si Si3 0.369457 0.796029 0.387387
Si Si4 0.920463 0.139130 0.516800
O O1 0.750000 0.421979 0.250000
O O2 0.843331 0.532627 0.295000
O O3 0.889219 0.382566 0.319866
O O4 0.860221 0.418597 0.063077
O O5 0.250000 0.144507 0.250000
O O6 0.107950 0.157067 0.318682
O O7 0.165058 0.175377 0.041367
O O8 0.329094 0.750000 0.250000
O O9 0.424431 0.725124 0.432433
O O10 0.000000 0.100424 0.500000
#
# Coordination Sequence:
#
# PCOD9327993 Si02
#       4
#    16  16  16  16
#     4  10  22  41  66  98 136 180 233 292 352 419
#     4  11  23  41  68 100 135 180 235 293 355 427
#     4  10  23  40  63  93 133 178 229 285 346 415
#     4  11  25  43  65  99 142 183 229 288 355 422
#
# _framework density 23.491893999999998
#
# number of rings (size 3 to 8) (size 9 to 14) (size 15 to 20)
#    0.000    1.500    0.000    3.750    0.000   22.500 
#    0.000    0.000    0.000    7.500    0.000    0.000 
#    0.000    0.000    0.000    0.000    0.000    0.000 
#
# Total GULP energy -89106.682578 kJ/mol
# GULP energy per Si atom -5569.167661 kJ/mol
# Density = 2.343843 g / cm^3
# Si number density = 23.491894 Si / 1000 Ang^3
#
#
#
# Elastic Constant Matrix: (Units=GPa)
#
#
# Indices 1 2 3 4 5 6 
#
# 1 86.9089 16.5289 47.7801 0.0000 0.0000 0.0000
# 2 16.5289 131.5325 47.6362 0.0000 0.0000 0.0000
# 3 47.7801 47.6362 173.3488 0.0000 0.0000 0.0000
# 4 0.0000 0.0000 0.0000 33.3062 0.0000 0.0000
# 5 0.0000 0.0000 0.0000 0.0000 14.9579 0.0000
# 6 0.0000 0.0000 0.0000 0.0000 0.0000 6.5944
#
#
#
# Elastic Compliance Matrix: (Units=1/GPa)
#
#
# Indices 1 2 3 4 5 6 
#
# 1 0.013579 -0.000390 -0.003636 0.000000 0.000000 0.000000
# 2 -0.000390 0.008454 -0.002216 0.000000 0.000000 0.000000
# 3 -0.003636 -0.002216 0.007380 0.000000 0.000000 0.000000
# 4 0.000000 0.000000 0.000000 0.030024 0.000000 0.000000
# 5 0.000000 0.000000 0.000000 0.000000 0.066854 0.000000
# 6 0.000000 0.000000 0.000000 0.000000 0.000000 0.151645
#
#
# Mechanical properties :
#
#
# Convention : Reuss Voigt Hill
#
# Bulk Modulus (GPa) = 59.06444 68.40895 63.73670
# Shear Modulus (GPa) = 16.88833 29.62804 23.25819
#
# Velocity S-wave (km/s) = 2.68414 3.55519 3.14992
# Velocity P-wave (km/s) = 5.89942 6.78498 6.35764
#
# Compressibility (1/GPa) = 0.01693066
#
# Stress axis : x y z
#
# Youngs Moduli (GPa) = 73.64178 118.28544 135.50620
#
# Poissons Ratio (x) = 0.04609 0.49267
# Poissons Ratio (y) = 0.02870 0.30025
# Poissons Ratio (z) = 0.26774 0.26209
#
# Static dielectric constant tensor:
#      x y z
#    x 1.859180 0.000000 0.000000 
#    y 0.000000 1.958840 0.000000 
#    z 0.000000 0.000000 1.995030 
# 
# From -- ./inp_files/11113.got.cif
#   From: 2010.05.17/outbox.cif.g08.bks.cpg/sg22_6_cif.got.tgz:11113.got - 2010.06.03 23:40:54.
