data_PCOD9327311
_publ_section_title
;
Structure prediction by ZEFSAII (Michael W. Deem and Ramdas Pophale) SiO2 
 PCOD9327311
Probable space group: F 2 2 2
;
_chemical_formula_sum "Si O2"
_cell_formula_units_Z 96
_cell_length_a 18.913353
_cell_length_b 24.957873
_cell_length_c 10.174066
_cell_angle_alpha 90.000000
_cell_angle_beta 90.000000
_cell_angle_gamma 90.000000
_cell_volume 4802.536225
_symmetry_space_group_name_H-M "F 2 2 2"
_symmetry_group_IT_number 22
_symmetry_cell_setting 'orthorhombic'
loop_
_space_group_symop_operation_xyz
x,y,z
-x,-y,z
x,-y,-z
-x,y,-z
x,1/2+y,1/2+z
-x,1/2-y,1/2+z
x,1/2-y,1/2-z
-x,1/2+y,1/2-z
1/2+x,y,1/2+z
1/2-x,-y,1/2+z
1/2+x,-y,1/2-z
1/2-x,y,1/2-z
1/2+x,1/2+y,z
1/2-x,1/2-y,z
1/2+x,1/2-y,-z
1/2-x,1/2+y,-z
loop_
_atom_site_type_symbol
_atom_site_label
_atom_site_fract_x
_atom_site_fract_y
_atom_site_fract_z
Si Si1 0.342219 0.943708 0.793574
Si Si2 0.853747 0.935611 0.779076
Si Si3 0.457472 0.211129 0.872839
Si Si4 0.725964 0.099897 0.539149
Si Si5 0.000058 0.087931 0.654263
Si Si6 0.300216 0.827887 0.135152
O O1 0.314315 0.906060 0.676044
O O2 0.299157 0.930902 0.926202
O O3 0.424224 0.931477 0.801301
O O4 0.329238 0.005383 0.759087
O O5 0.823588 0.886498 0.692221
O O6 0.937135 0.934464 0.745231
O O7 0.824538 0.923888 0.925417
O O8 0.466543 0.250000 0.750000
O O9 0.489394 0.152219 0.843327
O O10 0.372871 0.202810 0.894244
O O11 0.500000 0.231384 0.000000
O O12 0.751734 0.157999 0.489750
O O13 0.000000 0.072090 0.500000
O O14 0.250000 0.805757 0.250000
#
# Coordination Sequence:
#
# PCOD9327311 Si02
#       6
#    16  16  16  16  16  16
#     4  11  22  33  57  85 123 166 207 244 296 359
#     4  10  21  34  56  83 121 163 207 248 287 356
#     4  10  21  42  68  92 115 152 206 263 319 377
#     4  10  22  34  51  87 121 162 199 246 292 351
#     4  10  22  42  59  83 117 163 203 252 309 371
#     4   9  20  38  61  85 121 162 199 244 299 369
#
# _framework density 19.989438
#
# number of rings (size 3 to 8) (size 9 to 14) (size 15 to 20)
#    0.000    2.000    0.000    4.000    9.333    3.667 
#    9.000    1.667    0.000    0.000    0.000    0.000 
#    0.000    0.000    0.000    0.000    0.000    0.000 
#
# Total GULP energy -133868.074577 kJ/mol
# GULP energy per Si atom -5577.836441 kJ/mol
# Density = 1.994394 g / cm^3
# Si number density = 19.989438 Si / 1000 Ang^3
#
#
#
# Elastic Constant Matrix: (Units=GPa)
#
#
# Indices 1 2 3 4 5 6 
#
# 1 185.7887 35.0241 74.2307 0.0000 0.0000 0.0000
# 2 35.0241 52.4693 43.9080 0.0000 0.0000 0.0000
# 3 74.2307 43.9080 143.9996 0.0000 0.0000 0.0000
# 4 0.0000 0.0000 0.0000 8.2948 0.0000 0.0000
# 5 0.0000 0.0000 0.0000 0.0000 40.2490 0.0000
# 6 0.0000 0.0000 0.0000 0.0000 0.0000 54.2002
#
#
#
# Elastic Compliance Matrix: (Units=1/GPa)
#
#
# Indices 1 2 3 4 5 6 
#
# 1 0.006964 -0.002208 -0.002917 0.000000 0.000000 0.000000
# 2 -0.002208 0.026288 -0.006878 0.000000 0.000000 0.000000
# 3 -0.002917 -0.006878 0.010545 0.000000 0.000000 0.000000
# 4 0.000000 0.000000 0.000000 0.120558 0.000000 0.000000
# 5 0.000000 0.000000 0.000000 0.000000 0.024845 0.000000
# 6 0.000000 0.000000 0.000000 0.000000 0.000000 0.018450
#
#
# Mechanical properties :
#
#
# Convention : Reuss Voigt Hill
#
# Bulk Modulus (GPa) = 50.52321 76.50926 63.51623
# Shear Modulus (GPa) = 20.98621 35.82180 28.40400
#
# Velocity S-wave (km/s) = 3.24368 4.23784 3.77364
# Velocity P-wave (km/s) = 6.27363 7.89326 7.12959
#
# Compressibility (1/GPa) = 0.01979288
#
# Stress axis : x y z
#
# Youngs Moduli (GPa) = 143.59542 38.04041 94.83104
#
# Poissons Ratio (x) = 0.08399 0.27659
# Poissons Ratio (y) = 0.31703 0.65220
# Poissons Ratio (z) = 0.41882 0.26162
#
# Static dielectric constant tensor:
#      x y z
#    x 1.748190 0.000000 0.000000 
#    y 0.000000 1.698180 0.000000 
#    z 0.000000 0.000000 1.702370 
# 
# From -- ./inp_files/12879.got.cif
#   From: 2010.05.17/outbox.cif.g08.bks.cpg/sg22_7_cif.got.tgz:12879.got - 2010.06.03 23:40:54.
