data_PCOD9327585
_publ_section_title
;
Structure prediction by ZEFSAII (Michael W. Deem and Ramdas Pophale) SiO2 
 PCOD9327585
Probable space group: F 2 2 2
;
_chemical_formula_sum "Si O2"
_cell_formula_units_Z 72
_cell_length_a 14.730715
_cell_length_b 15.623831
_cell_length_c 15.764361
_cell_angle_alpha 90.000000
_cell_angle_beta 90.000000
_cell_angle_gamma 90.000000
_cell_volume 3628.170863
_symmetry_space_group_name_H-M "F 2 2 2"
_symmetry_group_IT_number 22
_symmetry_cell_setting 'orthorhombic'
loop_
_space_group_symop_operation_xyz
x,y,z
-x,-y,z
x,-y,-z
-x,y,-z
x,1/2+y,1/2+z
-x,1/2-y,1/2+z
x,1/2-y,1/2-z
-x,1/2+y,1/2-z
1/2+x,y,1/2+z
1/2-x,-y,1/2+z
1/2+x,-y,1/2-z
1/2-x,y,1/2-z
1/2+x,1/2+y,z
1/2-x,1/2-y,z
1/2+x,1/2-y,-z
1/2-x,1/2+y,-z
loop_
_atom_site_type_symbol
_atom_site_label
_atom_site_fract_x
_atom_site_fract_y
_atom_site_fract_z
Si Si1 0.500000 0.681653 0.000000
Si Si2 0.698797 0.102871 0.501183
Si Si3 0.691917 0.383564 0.667368
Si Si4 0.367226 0.444185 0.588110
Si Si5 0.501892 0.199932 0.164255
O O1 0.596202 0.633265 0.993867
O O2 0.500044 0.737167 0.084774
O O3 0.744635 0.137321 0.587051
O O4 0.779869 0.115780 0.433012
O O5 0.693387 0.000000 0.500000
O O6 0.750000 0.373931 0.750000
O O7 0.661620 0.481755 0.652374
O O8 0.601076 0.330006 0.676152
O O9 0.390486 0.500000 0.500000
O O10 0.442029 0.383239 0.630506
O O11 0.533249 0.250000 0.250000
#
# Coordination Sequence:
#
# PCOD9327585 Si02
#       5
#     8  16  16  16  16
#     4  12  23  40  61  88 134 172 194 260 345 384
#     4   9  21  39  63  87 114 164 219 257 303 378
#     4  10  21  40  63  85 115 161 215 264 307 374
#     4   9  21  43  67  89 118 168 221 261 308 383
#     4  12  26  38  62 100 131 163 209 271 333 387
#
# _framework density 19.844711
#
# number of rings (size 3 to 8) (size 9 to 14) (size 15 to 20)
#    0.000    2.222    0.000    5.000    0.000   12.889 
#    0.000    7.778    0.000    0.000    0.000    0.000 
#    0.000    0.000    0.000    0.000    0.000    0.000 
#
# Total GULP energy -100341.967307 kJ/mol
# GULP energy per Si atom -5574.553739 kJ/mol
# Density = 1.979954 g / cm^3
# Si number density = 19.844711 Si / 1000 Ang^3
#
#
#
# Elastic Constant Matrix: (Units=GPa)
#
#
# Indices 1 2 3 4 5 6 
#
# 1 175.7525 64.0048 60.1183 0.0000 0.0000 0.0000
# 2 64.0048 57.0489 43.0288 0.0000 0.0000 0.0000
# 3 60.1183 43.0288 93.4380 0.0000 0.0000 0.0000
# 4 0.0000 0.0000 0.0000 8.2793 0.0000 0.0000
# 5 0.0000 0.0000 0.0000 0.0000 -1.9284 0.0000
# 6 0.0000 0.0000 0.0000 0.0000 0.0000 -51.9274
#
#
#
# Elastic Compliance Matrix: (Units=1/GPa)
#
#
# Indices 1 2 3 4 5 6 
#
# 1 0.009838 -0.009597 -0.001911 0.000000 0.000000 0.000000
# 2 -0.009597 0.036219 -0.010504 0.000000 0.000000 0.000000
# 3 -0.001911 -0.010504 0.016769 0.000000 0.000000 0.000000
# 4 0.000000 0.000000 0.000000 0.120783 0.000000 0.000000
# 5 0.000000 0.000000 0.000000 0.000000 -0.518557 0.000000
# 6 0.000000 0.000000 0.000000 0.000000 0.000000 -0.019258
#
#
# Mechanical properties :
#
#
# Convention : Reuss Voigt Hill
#
# Bulk Modulus (GPa) = 53.18480 73.39368 63.28924
# Shear Modulus (GPa) = -16.45197 1.49053 -7.48072
#
# Velocity S-wave (km/s) = -2.88242 0.86760 -1.94366
# Velocity P-wave (km/s) = 3.97251 6.16992 5.18887
#
# Compressibility (1/GPa) = 0.01880237
#
# Stress axis : x y z
#
# Youngs Moduli (GPa) = 101.64378 27.61015 59.63441
#
# Poissons Ratio (x) = 0.26497 0.11394
# Poissons Ratio (y) = 0.97546 0.62642
# Poissons Ratio (z) = 0.19420 0.29002
#
# Static dielectric constant tensor:
#      x y z
#    x 1.754280 0.000000 0.000000 
#    y 0.000000 1.916840 0.000000 
#    z 0.000000 0.000000 1.694690 
# 
# From -- ./inp_files/29068.got.cif
#   From: 2010.05.17/outbox.cif.g08.bks.cpg/sg22_15_cif.got.tgz:29068.got - 2010.06.03 23:40:54.
