data_PCOD9327790
_publ_section_title
;
Structure prediction by ZEFSAII (Michael W. Deem and Ramdas Pophale) SiO2 
 PCOD9327790
Probable space group: F 2 2 2
;
_chemical_formula_sum "Si O2"
_cell_formula_units_Z 96
_cell_length_a 14.150619
_cell_length_b 15.251582
_cell_length_c 20.475797
_cell_angle_alpha 90.000000
_cell_angle_beta 90.000000
_cell_angle_gamma 90.000000
_cell_volume 4419.072708
_symmetry_space_group_name_H-M "F 2 2 2"
_symmetry_group_IT_number 22
_symmetry_cell_setting 'orthorhombic'
loop_
_space_group_symop_operation_xyz
x,y,z
-x,-y,z
x,-y,-z
-x,y,-z
x,1/2+y,1/2+z
-x,1/2-y,1/2+z
x,1/2-y,1/2-z
-x,1/2+y,1/2-z
1/2+x,y,1/2+z
1/2-x,-y,1/2+z
1/2+x,-y,1/2-z
1/2-x,y,1/2-z
1/2+x,1/2+y,z
1/2-x,1/2-y,z
1/2+x,1/2-y,-z
1/2-x,1/2+y,-z
loop_
_atom_site_type_symbol
_atom_site_label
_atom_site_fract_x
_atom_site_fract_y
_atom_site_fract_z
Si Si1 0.704504 0.420699 0.954547
Si Si2 0.250000 0.589784 0.250000
Si Si3 0.096707 0.965959 0.823837
Si Si4 0.600223 0.032439 0.900393
Si Si5 0.750000 0.750000 0.530541
Si Si6 0.447149 0.168196 0.212050
Si Si7 0.139761 0.337019 0.855606
O O1 0.658849 0.425416 0.882505
O O2 0.816216 0.439712 0.947066
O O3 0.666337 0.500000 0.000000
O O4 0.700802 0.326054 0.988199
O O5 0.166591 0.529425 0.281712
O O6 0.226410 0.656302 0.192334
O O7 0.051474 0.901918 0.769895
O O8 0.000000 0.000000 0.856671
O O9 0.593875 0.112832 0.848876
O O10 0.500000 0.000000 0.928685
O O11 0.626405 0.941827 0.865248
O O12 0.829758 0.792163 0.577621
O O13 0.399752 0.250000 0.250000
O O14 0.547807 0.198293 0.181984
#
# Coordination Sequence:
#
# PCOD9327790 Si02
#       7
#    16   8  16  16   8  16  16
#     4  12  26  48  71 101 150 204 246 294 371 457
#     4  12  20  43  79 104 134 182 244 311 380 433
#     4  12  23  44  74 104 139 189 241 301 380 451
#     4  10  21  46  74 101 143 197 250 308 374 446
#     4  12  28  45  68 107 148 204 254 290 364 456
#     4  11  24  40  68 114 141 176 246 322 388 428
#     4  11  23  44  71 101 143 185 248 309 370 442
#
# _framework density 21.724015000000001
#
# number of rings (size 3 to 8) (size 9 to 14) (size 15 to 20)
#    0.000    0.667    6.667    0.500    4.667    2.000 
#    0.000    0.833    7.333    0.000    0.000    0.000 
#    0.000    0.000    0.000    0.000    0.000    0.000 
#
# Total GULP energy -133696.984754 kJ/mol
# GULP energy per Si atom -5570.707698 kJ/mol
# Density = 2.167457 g / cm^3
# Si number density = 21.724015 Si / 1000 Ang^3
#
#
#
# Elastic Constant Matrix: (Units=GPa)
#
#
# Indices 1 2 3 4 5 6 
#
# 1 88.3247 30.8187 37.1082 0.0000 0.0000 0.0000
# 2 30.8187 91.4916 55.9319 0.0000 0.0000 0.0000
# 3 37.1082 55.9319 129.4005 0.0000 0.0000 0.0000
# 4 0.0000 0.0000 0.0000 -129.4174 0.0000 0.0000
# 5 0.0000 0.0000 0.0000 0.0000 20.6161 0.0000
# 6 0.0000 0.0000 0.0000 0.0000 0.0000 -3.5803
#
#
#
# Elastic Compliance Matrix: (Units=1/GPa)
#
#
# Indices 1 2 3 4 5 6 
#
# 1 0.013434 -0.002949 -0.002578 0.000000 0.000000 0.000000
# 2 -0.002949 0.015503 -0.005855 0.000000 0.000000 0.000000
# 3 -0.002578 -0.005855 0.010998 0.000000 0.000000 0.000000
# 4 0.000000 0.000000 0.000000 -0.007727 0.000000 0.000000
# 5 0.000000 0.000000 0.000000 0.000000 0.048506 0.000000
# 6 0.000000 0.000000 0.000000 0.000000 0.000000 -0.279309
#
#
# Mechanical properties :
#
#
# Convention : Reuss Voigt Hill
#
# Bulk Modulus (GPa) = 58.23954 61.88157 60.06056
# Shear Modulus (GPa) = -29.39321 -10.11913 -19.75617
#
# Velocity S-wave (km/s) = -3.68234 -2.16059 -3.01892
# Velocity P-wave (km/s) = 2.96437 4.72472 3.94401
#
# Compressibility (1/GPa) = 0.01717046
#
# Stress axis : x y z
#
# Youngs Moduli (GPa) = 74.43843 64.50400 90.92603
#
# Poissons Ratio (x) = 0.19025 0.23437
# Poissons Ratio (y) = 0.21955 0.53239
# Poissons Ratio (z) = 0.19187 0.37768
#
# Static dielectric constant tensor:
#      x y z
#    x 2.459480 0.000000 0.000000 
#    y 0.000000 1.960720 0.000000 
#    z 0.000000 0.000000 1.831750 
# 
# From -- ./inp_files/43507.got.cif
#   From: 2010.05.17/outbox.cif.g08.bks.cpg/sg22_22_cif.got.tgz:43507.got - 2010.06.03 23:40:54.
