data_PCOD9327471
_publ_section_title
;
Structure prediction by ZEFSAII (Michael W. Deem and Ramdas Pophale) SiO2 
 PCOD9327471
Probable space group: F 2 2 2
;
_chemical_formula_sum "Si O2"
_cell_formula_units_Z 56
_cell_length_a 12.176147
_cell_length_b 26.557771
_cell_length_c 9.174846
_cell_angle_alpha 90.000000
_cell_angle_beta 90.000000
_cell_angle_gamma 90.000000
_cell_volume 2966.882096
_symmetry_space_group_name_H-M "F 2 2 2"
_symmetry_group_IT_number 22
_symmetry_cell_setting 'orthorhombic'
loop_
_space_group_symop_operation_xyz
x,y,z
-x,-y,z
x,-y,-z
-x,y,-z
x,1/2+y,1/2+z
-x,1/2-y,1/2+z
x,1/2-y,1/2-z
-x,1/2+y,1/2-z
1/2+x,y,1/2+z
1/2-x,-y,1/2+z
1/2+x,-y,1/2-z
1/2-x,y,1/2-z
1/2+x,1/2+y,z
1/2-x,1/2-y,z
1/2+x,1/2-y,-z
1/2-x,1/2+y,-z
loop_
_atom_site_type_symbol
_atom_site_label
_atom_site_fract_x
_atom_site_fract_y
_atom_site_fract_z
Si Si1 0.835976 0.080980 0.883087
Si Si2 0.500000 0.500000 0.251564
Si Si3 0.250000 0.750000 0.250000
Si Si4 0.750000 0.250000 0.750000
Si Si5 0.676438 0.500000 0.500000
Si Si6 0.874248 0.690636 0.497930
O O1 0.750000 0.093347 0.750000
O O2 0.758195 0.045889 0.978300
O O3 0.942664 0.047001 0.834421
O O4 0.865764 0.130965 0.970633
O O5 0.599464 0.486982 0.362291
O O6 0.181865 0.713457 0.357859
O O7 0.820561 0.284254 0.643254
O O8 0.000000 0.705632 0.500000
#
# Coordination Sequence:
#
# PCOD9327471 Si02
#       6
#    16   8   4   4   8  16
#     4  10  21  38  62  93 121 166 206 248 311 369
#     4   9  20  37  56  84 130 163 201 246 302 370
#     4  10  26  46  60  94 132 158 214 274 308 370
#     4  10  22  46  64  86 128 158 214 274 304 378
#     4   9  20  37  54  86 136 157 194 255 298 372
#     4  11  23  41  67  91 122 166 211 261 321 369
#
# _framework density 18.875033999999999
#
# number of rings (size 3 to 8) (size 9 to 14) (size 15 to 20)
#    0.000    2.000    1.429    0.857    4.000    2.286 
#    2.571    0.000    0.000    0.000    0.000    0.000 
#    0.000    0.000    0.000    0.000    0.000    0.000 
#
# Total GULP energy -78013.781319 kJ/mol
# GULP energy per Si atom -5572.412951 kJ/mol
# Density = 1.883207 g / cm^3
# Si number density = 18.875034 Si / 1000 Ang^3
#
#
#
# Elastic Constant Matrix: (Units=GPa)
#
#
# Indices 1 2 3 4 5 6 
#
# 1 153.7680 82.7740 81.0473 0.0000 0.0000 0.0000
# 2 82.7740 134.0245 81.1444 0.0000 0.0000 0.0000
# 3 81.0473 81.1444 131.4057 0.0000 0.0000 0.0000
# 4 0.0000 0.0000 0.0000 37.0387 0.0000 0.0000
# 5 0.0000 0.0000 0.0000 0.0000 -11.4352 0.0000
# 6 0.0000 0.0000 0.0000 0.0000 0.0000 26.8433
#
#
#
# Elastic Compliance Matrix: (Units=1/GPa)
#
#
# Indices 1 2 3 4 5 6 
#
# 1 0.010987 -0.004285 -0.004131 0.000000 0.000000 0.000000
# 2 -0.004285 0.013588 -0.005748 0.000000 0.000000 0.000000
# 3 -0.004131 -0.005748 0.013707 0.000000 0.000000 0.000000
# 4 0.000000 0.000000 0.000000 0.026999 0.000000 0.000000
# 5 0.000000 0.000000 0.000000 0.000000 -0.087449 0.000000
# 6 0.000000 0.000000 0.000000 0.000000 0.000000 0.037253
#
#
# Mechanical properties :
#
#
# Convention : Reuss Voigt Hill
#
# Bulk Modulus (GPa) = 100.44889 101.01439 100.73164
# Shear Modulus (GPa) = 107.00095 22.10485 64.55290
#
# Velocity S-wave (km/s) = 7.53739 3.42587 5.85443
# Velocity P-wave (km/s) = 11.36147 8.32361 9.95905
#
# Compressibility (1/GPa) = 0.00995531
#
# Stress axis : x y z
#
# Youngs Moduli (GPa) = 91.01742 73.59685 72.95592
#
# Poissons Ratio (x) = 0.31534 0.30135
# Poissons Ratio (y) = 0.38999 0.41933
# Poissons Ratio (z) = 0.37595 0.42302
#
# Static dielectric constant tensor:
#      x y z
#    x 1.641600 0.000000 0.000000 
#    y 0.000000 1.936510 0.000000 
#    z 0.000000 0.000000 1.733830 
# 
# From -- ./inp_files/8409.got.cif
#   From: 2010.05.17/outbox.cif.g08.bks.cpg/sg22_5_cif.got.tgz:8409.got - 2010.06.03 23:40:54.
