data_PCOD9327080
_publ_section_title
;
Structure prediction by ZEFSAII (Michael W. Deem and Ramdas Pophale) SiO2 
 PCOD9327080
Probable space group: F 2 2 2
;
_chemical_formula_sum "Si O2"
_cell_formula_units_Z 108
_cell_length_a 14.315832
_cell_length_b 21.764026
_cell_length_c 15.820083
_cell_angle_alpha 90.000000
_cell_angle_beta 90.000000
_cell_angle_gamma 90.000000
_cell_volume 4929.065473
_symmetry_space_group_name_H-M "F 2 2 2"
_symmetry_group_IT_number 22
_symmetry_cell_setting 'orthorhombic'
loop_
_space_group_symop_operation_xyz
x,y,z
-x,-y,z
x,-y,-z
-x,y,-z
x,1/2+y,1/2+z
-x,1/2-y,1/2+z
x,1/2-y,1/2-z
-x,1/2+y,1/2-z
1/2+x,y,1/2+z
1/2-x,-y,1/2+z
1/2+x,-y,1/2-z
1/2-x,y,1/2-z
1/2+x,1/2+y,z
1/2-x,1/2-y,z
1/2+x,1/2-y,-z
1/2-x,1/2+y,-z
loop_
_atom_site_type_symbol
_atom_site_label
_atom_site_fract_x
_atom_site_fract_y
_atom_site_fract_z
Si Si1 0.113767 0.705402 0.997588
Si Si2 0.618376 0.851125 0.832421
Si Si3 0.250000 0.750000 0.250000
Si Si4 0.890342 0.156427 0.023040
Si Si5 0.372192 0.554889 0.881204
Si Si6 0.404304 0.189430 0.192964
Si Si7 0.582555 0.578107 0.826074
Si Si8 0.250000 0.599036 0.750000
O O1 0.138309 0.652625 0.066375
O O2 0.148404 0.774867 0.015942
O O3 0.138964 0.694839 0.900507
O O4 0.000000 0.707606 0.000000
O O5 0.683150 0.796347 0.800049
O O6 0.510861 0.830850 0.818806
O O7 0.621517 0.910712 0.769242
O O8 0.882389 0.135588 0.119550
O O9 0.860289 0.101342 0.960003
O O10 0.000000 0.161501 0.000000
O O11 0.469473 0.575592 0.834136
O O12 0.388134 0.481555 0.881090
O O13 0.276342 0.559719 0.830090
O O14 0.402612 0.250000 0.250000
O O15 0.339181 0.141070 0.238399
#
# Coordination Sequence:
#
# PCOD9327080 Si02
#       8
#    16  16   4  16  16  16  16   8
#     4   9  20  36  62  93 131 171 201 254 325 396
#     4  11  22  41  62  93 130 172 217 252 322 394
#     4  12  24  38  64  90 128 176 208 268 306 398
#     4   9  17  32  58  93 126 159 206 267 328 377
#     4  10  21  37  61  95 123 163 222 267 322 371
#     4  11  22  40  65  93 132 166 204 263 326 395
#     4  10  20  38  66  87 124 174 210 270 319 373
#     4  12  23  39  64  96 121 163 212 264 318 386
#
# _framework density 21.910848000000001
#
# number of rings (size 3 to 8) (size 9 to 14) (size 15 to 20)
#    0.000    1.778    2.222    2.444    4.148    2.370 
#    8.000    0.000    3.259    0.000    0.000    0.000 
#    0.000    0.000    0.000    0.000    0.000    0.000 
#
# Total GULP energy -150405.255907 kJ/mol
# GULP energy per Si atom -5570.565034 kJ/mol
# Density = 2.186098 g / cm^3
# Si number density = 21.910848 Si / 1000 Ang^3
#
#
#
# Elastic Constant Matrix: (Units=GPa)
#
#
# Indices 1 2 3 4 5 6 
#
# 1 55.5696 11.4617 -12.1784 0.0000 0.0000 0.0000
# 2 11.4617 43.8899 7.5571 0.0000 0.0000 0.0000
# 3 -12.1784 7.5571 77.0379 0.0000 0.0000 0.0000
# 4 0.0000 0.0000 0.0000 39.0630 0.0000 0.0000
# 5 0.0000 0.0000 0.0000 0.0000 16.2711 0.0000
# 6 0.0000 0.0000 0.0000 0.0000 0.0000 537.8089
#
#
#
# Elastic Compliance Matrix: (Units=1/GPa)
#
#
# Indices 1 2 3 4 5 6 
#
# 1 0.020027 -0.005874 0.003742 0.000000 0.000000 0.000000
# 2 -0.005874 0.024899 -0.003371 0.000000 0.000000 0.000000
# 3 0.003742 -0.003371 0.013903 0.000000 0.000000 0.000000
# 4 0.000000 0.000000 0.000000 0.025600 0.000000 0.000000
# 5 0.000000 0.000000 0.000000 0.000000 0.061459 0.000000
# 6 0.000000 0.000000 0.000000 0.000000 0.000000 0.001859
#
#
# Mechanical properties :
#
#
# Convention : Reuss Voigt Hill
#
# Bulk Modulus (GPa) = 20.91071 21.13091 21.02081
# Shear Modulus (GPa) = 28.62149 129.93907 79.28028
#
# Velocity S-wave (km/s) = 3.61816 7.70923 6.02177
# Velocity P-wave (km/s) = 5.19798 9.42910 7.61338
#
# Compressibility (1/GPa) = 0.04782238
#
# Stress axis : x y z
#
# Youngs Moduli (GPa) = 49.93206 40.16259 71.92743
#
# Poissons Ratio (x) = 0.23593 -0.26917
# Poissons Ratio (y) = 0.29332 0.24248
# Poissons Ratio (z) = -0.18686 0.13539
#
# Static dielectric constant tensor:
#      x y z
#    x 1.849150 0.000000 0.000000 
#    y 0.000000 1.769360 0.000000 
#    z 0.000000 0.000000 1.627590 
# 
# From -- ./inp_files/29676.got.cif
#   From: 2010.05.17/outbox.cif.g08.bks.cpg/sg22_15_cif.got.tgz:29676.got - 2010.06.03 23:40:54.
