data_PCOD9327784
_publ_section_title
;
Structure prediction by ZEFSAII (Michael W. Deem and Ramdas Pophale) SiO2 
 PCOD9327784
Probable space group: F 2 2 2
;
_chemical_formula_sum "Si O2"
_cell_formula_units_Z 64
_cell_length_a 26.351390
_cell_length_b 10.224901
_cell_length_c 10.969130
_cell_angle_alpha 90.000000
_cell_angle_beta 90.000000
_cell_angle_gamma 90.000000
_cell_volume 2955.526270
_symmetry_space_group_name_H-M "F 2 2 2"
_symmetry_group_IT_number 22
_symmetry_cell_setting 'orthorhombic'
loop_
_space_group_symop_operation_xyz
x,y,z
-x,-y,z
x,-y,-z
-x,y,-z
x,1/2+y,1/2+z
-x,1/2-y,1/2+z
x,1/2-y,1/2-z
-x,1/2+y,1/2-z
1/2+x,y,1/2+z
1/2-x,-y,1/2+z
1/2+x,-y,1/2-z
1/2-x,y,1/2-z
1/2+x,1/2+y,z
1/2-x,1/2-y,z
1/2+x,1/2-y,-z
1/2-x,1/2+y,-z
loop_
_atom_site_type_symbol
_atom_site_label
_atom_site_fract_x
_atom_site_fract_y
_atom_site_fract_z
Si Si1 0.442666 0.500426 0.645096
Si Si2 0.750000 0.467843 0.250000
Si Si3 0.185576 0.856151 0.047816
Si Si4 0.389510 0.250000 0.750000
Si Si5 0.162229 0.392554 0.110810
O O1 0.500000 0.500000 0.697621
O O2 0.448312 0.500000 0.500000
O O3 0.421123 0.363933 0.690304
O O4 0.395670 0.603373 0.663619
O O5 0.764387 0.384304 0.369889
O O6 0.798012 0.554232 0.209911
O O7 0.145266 0.809786 0.146186
O O8 0.182272 0.744820 0.943950
O O9 0.172390 0.000000 0.000000
O O10 0.162152 0.500000 0.000000
#
# Coordination Sequence:
#
# PCOD9327784 Si02
#       5
#    16   8  16   8  16
#     4  10  21  45  76 100 137 188 232 290 348 412
#     4  12  26  44  70 100 146 188 226 294 352 412
#     4  12  27  44  70 102 141 183 236 289 345 424
#     4  12  22  49  70 102 142 185 226 288 362 406
#     4  11  23  45  70 102 140 187 233 280 356 419
#
# _framework density 21.654347999999999
#
# number of rings (size 3 to 8) (size 9 to 14) (size 15 to 20)
#    0.000    0.750    7.500    0.750    0.000   11.500 
#    4.500    0.000    0.000    0.000    0.000    0.000 
#    0.000    0.000    0.000    0.000    0.000    0.000 
#
# Total GULP energy -89343.805053 kJ/mol
# GULP energy per Si atom -5583.987816 kJ/mol
# Density = 2.160506 g / cm^3
# Si number density = 21.654348 Si / 1000 Ang^3
#
#
#
# Elastic Constant Matrix: (Units=GPa)
#
#
# Indices 1 2 3 4 5 6 
#
# 1 183.4995 55.0026 42.4795 0.0000 0.0000 0.0000
# 2 55.0026 154.8774 54.9919 0.0000 0.0000 0.0000
# 3 42.4795 54.9919 61.0944 0.0000 0.0000 0.0000
# 4 0.0000 0.0000 0.0000 42.5051 0.0000 0.0000
# 5 0.0000 0.0000 0.0000 0.0000 -22.8666 0.0000
# 6 0.0000 0.0000 0.0000 0.0000 0.0000 8.5245
#
#
#
# Elastic Compliance Matrix: (Units=1/GPa)
#
#
# Indices 1 2 3 4 5 6 
#
# 1 0.006610 -0.001052 -0.003649 0.000000 0.000000 0.000000
# 2 -0.001052 0.009657 -0.007961 0.000000 0.000000 0.000000
# 3 -0.003649 -0.007961 0.026071 0.000000 0.000000 0.000000
# 4 0.000000 0.000000 0.000000 0.023527 0.000000 0.000000
# 5 0.000000 0.000000 0.000000 0.000000 -0.043732 0.000000
# 6 0.000000 0.000000 0.000000 0.000000 0.000000 0.117308
#
#
# Mechanical properties :
#
#
# Convention : Reuss Voigt Hill
#
# Bulk Modulus (GPa) = 58.77492 78.26882 68.52187
# Shear Modulus (GPa) = 29.33655 22.09909 25.71782
#
# Velocity S-wave (km/s) = 3.68471 3.19805 3.44997
# Velocity P-wave (km/s) = 6.73082 7.06115 6.89796
#
# Compressibility (1/GPa) = 0.01701406
#
# Stress axis : x y z
#
# Youngs Moduli (GPa) = 151.29546 103.55270 38.35634
#
# Poissons Ratio (x) = 0.10890 0.13997
# Poissons Ratio (y) = 0.15910 0.30536
# Poissons Ratio (z) = 0.55210 0.82440
#
# Static dielectric constant tensor:
#      x y z
#    x 1.893550 0.000000 0.000000 
#    y 0.000000 1.846170 0.000000 
#    z 0.000000 0.000000 1.739260 
# 
# From -- ./inp_files/25030.got.cif
#   From: 2010.05.17/outbox.cif.g08.bks.cpg/sg22_13_cif.got.tgz:25030.got - 2010.06.03 23:40:54.
