data_PCOD9327799
_publ_section_title
;
Structure prediction by ZEFSAII (Michael W. Deem and Ramdas Pophale) SiO2 
 PCOD9327799
Probable space group: F 2 2 2
;
_chemical_formula_sum "Si O2"
_cell_formula_units_Z 80
_cell_length_a 28.336595
_cell_length_b 4.954184
_cell_length_c 23.509950
_cell_angle_alpha 90.000000
_cell_angle_beta 90.000000
_cell_angle_gamma 90.000000
_cell_volume 3300.437409
_symmetry_space_group_name_H-M "F 2 2 2"
_symmetry_group_IT_number 22
_symmetry_cell_setting 'orthorhombic'
loop_
_space_group_symop_operation_xyz
x,y,z
-x,-y,z
x,-y,-z
-x,y,-z
x,1/2+y,1/2+z
-x,1/2-y,1/2+z
x,1/2-y,1/2-z
-x,1/2+y,1/2-z
1/2+x,y,1/2+z
1/2-x,-y,1/2+z
1/2+x,-y,1/2-z
1/2-x,y,1/2-z
1/2+x,1/2+y,z
1/2-x,1/2-y,z
1/2+x,1/2-y,-z
1/2-x,1/2+y,-z
loop_
_atom_site_type_symbol
_atom_site_label
_atom_site_fract_x
_atom_site_fract_y
_atom_site_fract_z
Si Si1 0.919269 0.250000 0.250000
Si Si2 0.250000 0.750000 0.750000
Si Si3 0.808292 0.497333 0.354801
Si Si4 0.750000 0.750000 0.041209
Si Si5 0.539965 0.674626 0.588412
Si Si6 0.500000 0.500000 0.000000
Si Si7 0.867598 0.494403 0.855086
Si Si8 0.500000 0.500000 0.811434
O O1 0.887517 0.386398 0.203017
O O2 0.954123 0.482191 0.273035
O O3 0.220050 0.568051 0.704065
O O4 0.785309 0.609367 0.413114
O O5 0.821366 0.183644 0.363706
O O6 0.855096 0.682057 0.350072
O O7 0.766144 0.500000 0.000000
O O8 0.500000 0.500000 0.557481
O O9 0.590395 0.548412 0.600420
O O10 0.513377 0.760629 0.646103
O O11 0.540330 0.928040 0.547872
#
# Coordination Sequence:
#
# PCOD9327799 Si02
#       8
#     8   4  16   8  16   4  16   8
#     4  10  22  34  61  89 134 180 222 272 330 392
#     4  10  24  46  82  98 152 172 224 270 380 440
#     4  11  25  46  70 109 134 180 220 287 351 430
#     4  11  24  49  76  99 132 179 224 276 352 435
#     4  10  23  42  63  90 133 183 235 288 338 400
#     4  10  22  44  64  86 120 188 246 278 358 390
#     4  11  25  41  66 102 143 169 230 283 337 404
#     4   9  22  35  56  90 118 185 228 269 314 406
#
# _framework density 24.239211999999998
#
# number of rings (size 3 to 8) (size 9 to 14) (size 15 to 20)
#    0.000    1.600    0.000    2.700   14.000    3.200 
#    5.400    0.000    0.000    0.000    0.000    0.000 
#    0.000    0.000    0.000    0.000    0.000    0.000 
#
# Total GULP energy -111436.974500 kJ/mol
# GULP energy per Si atom -5571.848725 kJ/mol
# Density = 2.418404 g / cm^3
# Si number density = 24.239212 Si / 1000 Ang^3
#
#
#
# Elastic Constant Matrix: (Units=GPa)
#
#
# Indices 1 2 3 4 5 6 
#
# 1 65.3224 3.1270 32.0016 -0.0026 -0.0075 -0.0032
# 2 3.1270 76.3807 16.0315 0.0162 -0.0117 0.0209
# 3 32.0016 16.0315 140.4143 -0.0028 0.0005 0.0015
# 4 -0.0026 0.0162 -0.0028 45.5822 -0.0042 0.0064
# 5 -0.0075 -0.0117 0.0005 -0.0042 33.8475 0.0013
# 6 -0.0032 0.0209 0.0015 0.0064 0.0013 35.8210
#
#
#
# Elastic Compliance Matrix: (Units=1/GPa)
#
#
# Indices 1 2 3 4 5 6 
#
# 1 0.017234 0.000122 -0.003942 0.000001 0.000004 0.000002
# 2 0.000122 0.013415 -0.001559 -0.000005 0.000005 -0.000008
# 3 -0.003942 -0.001559 0.008198 0.000001 -0.000002 0.000000
# 4 0.000001 -0.000005 0.000001 0.021938 0.000003 -0.000004
# 5 0.000004 0.000005 -0.000002 0.000003 0.029544 -0.000001
# 6 0.000002 -0.000008 0.000000 -0.000004 -0.000001 0.027917
#
#
# Mechanical properties :
#
#
# Convention : Reuss Voigt Hill
#
# Bulk Modulus (GPa) = 35.60214 42.71529 39.15871
# Shear Modulus (GPa) = 36.13577 38.44730 37.29153
#
# Velocity S-wave (km/s) = 3.86527 3.98698 3.92660
# Velocity P-wave (km/s) = 5.88559 6.23341 6.06199
#
# Compressibility (1/GPa) = 0.02808820
#
# Stress axis : x y z
#
# Youngs Moduli (GPa) = 58.02525 74.54555 121.97876
#
# Poissons Ratio (x) = -0.00908 0.48080
# Poissons Ratio (y) = -0.00707 0.19021
# Poissons Ratio (z) = 0.22872 0.11624
#
# Static dielectric constant tensor:
#      x y z
#    x 1.957800 0.000000 0.000000 
#    y 0.000000 2.354250 0.000160 
#    z 0.000000 0.000160 2.085400 
# 
# From -- ./inp_files/50647.got.cif
#   From: 2010.05.17/outbox.cif.g08.bks.cpg/sg22_26_cif.got.tgz:50647.got - 2010.06.03 23:40:54.
