data_PCOD9327222
_publ_section_title
;
Structure prediction by ZEFSAII (Michael W. Deem and Ramdas Pophale) SiO2 
 PCOD9327222
Probable space group: F 2 2 2
;
_chemical_formula_sum "Si O2"
_cell_formula_units_Z 92
_cell_length_a 23.543194
_cell_length_b 27.443016
_cell_length_c 7.546207
_cell_angle_alpha 90.000000
_cell_angle_beta 90.000000
_cell_angle_gamma 90.000000
_cell_volume 4875.576042
_symmetry_space_group_name_H-M "F 2 2 2"
_symmetry_group_IT_number 22
_symmetry_cell_setting 'orthorhombic'
loop_
_space_group_symop_operation_xyz
x,y,z
-x,-y,z
x,-y,-z
-x,y,-z
x,1/2+y,1/2+z
-x,1/2-y,1/2+z
x,1/2-y,1/2-z
-x,1/2+y,1/2-z
1/2+x,y,1/2+z
1/2-x,-y,1/2+z
1/2+x,-y,1/2-z
1/2-x,y,1/2-z
1/2+x,1/2+y,z
1/2-x,1/2-y,z
1/2+x,1/2-y,-z
1/2-x,1/2+y,-z
loop_
_atom_site_type_symbol
_atom_site_label
_atom_site_fract_x
_atom_site_fract_y
_atom_site_fract_z
Si Si1 0.438949 0.683982 0.559178
Si Si2 0.750000 0.621217 0.750000
Si Si3 0.417750 0.079266 0.166543
Si Si4 0.500000 0.000000 0.000000
Si Si5 0.712741 0.054595 0.926426
Si Si6 0.434707 0.341408 0.058440
Si Si7 0.352528 0.303830 0.748896
O O1 0.500000 0.703373 0.500000
O O2 0.438630 0.624748 0.547026
O O3 0.428607 0.808095 0.733498
O O4 0.389473 0.698922 0.429799
O O5 0.740493 0.588394 0.576800
O O6 0.695328 0.655583 0.755801
O O7 0.459016 0.034153 0.121514
O O8 0.352671 0.068090 0.117002
O O9 0.420249 0.104293 0.363149
O O10 0.750000 0.058387 0.750000
O O11 0.713390 0.000000 0.000000
O O12 0.500000 0.342045 0.000000
O O13 0.396014 0.319716 0.904424
O O14 0.326413 0.250000 0.750000
#
# Coordination Sequence:
#
# PCOD9327222 Si02
#       7
#    16   8  16   4  16  16  16
#     4  10  20  41  64  91 138 171 209 277 346 384
#     4  12  25  46  68  90 144 168 221 288 336 390
#     4  10  21  39  63  93 134 170 211 275 326 386
#     4  12  20  36  74  96 132 178 220 258 346 408
#     4  12  24  42  66  98 126 179 224 265 324 406
#     4  10  21  41  65  93 132 172 218 266 345 390
#     4  12  25  42  69  97 128 178 230 279 345 404
#
# _framework density 18.869565999999999
#
# number of rings (size 3 to 8) (size 9 to 14) (size 15 to 20)
#    1.043    0.000    6.087    1.304    0.000    1.391 
#    0.000    0.435    0.000    3.130    0.000    0.000 
#    0.000    0.000    0.000    0.000    0.000    0.000 
#
# Total GULP energy -128210.279275 kJ/mol
# GULP energy per Si atom -5574.359968 kJ/mol
# Density = 1.882662 g / cm^3
# Si number density = 18.869566 Si / 1000 Ang^3
#
#
#
# Elastic Constant Matrix: (Units=GPa)
#
#
# Indices 1 2 3 4 5 6 
#
# 1 124.2225 30.0533 61.9284 -0.0015 0.0011 0.0116
# 2 30.0533 102.7407 36.9129 0.0016 -0.0001 0.0034
# 3 61.9284 36.9129 135.5947 0.0004 -0.0024 0.0027
# 4 -0.0015 0.0016 0.0004 61.3718 -0.0042 -0.0308
# 5 0.0011 -0.0001 -0.0024 -0.0042 22.8950 0.0110
# 6 0.0116 0.0034 0.0027 -0.0308 0.0110 97.9359
#
#
#
# Elastic Compliance Matrix: (Units=1/GPa)
#
#
# Indices 1 2 3 4 5 6 
#
# 1 0.010631 -0.001513 -0.004444 0.000000 -0.000001 -0.000001
# 2 -0.001513 0.011004 -0.002304 0.000000 0.000000 0.000000
# 3 -0.004444 -0.002304 0.010032 0.000000 0.000001 0.000000
# 4 0.000000 0.000000 0.000000 0.016294 0.000003 0.000005
# 5 -0.000001 0.000000 0.000001 0.000003 0.043678 -0.000005
# 6 -0.000001 0.000000 0.000000 0.000005 -0.000005 0.010211
#
#
# Mechanical properties :
#
#
# Convention : Reuss Voigt Hill
#
# Bulk Modulus (GPa) = 66.03134 68.92745 67.47940
# Shear Modulus (GPa) = 40.51193 52.01809 46.26501
#
# Velocity S-wave (km/s) = 4.63854 5.25614 4.95697
# Velocity P-wave (km/s) = 7.98484 8.56993 8.28255
#
# Compressibility (1/GPa) = 0.01514432
#
# Stress axis : x y z
#
# Youngs Moduli (GPa) = 94.06056 90.87726 99.68400
#
# Poissons Ratio (x) = 0.13753 0.44295
# Poissons Ratio (y) = 0.14235 0.22971
# Poissons Ratio (z) = 0.41797 0.20942
#
# Static dielectric constant tensor:
#      x y z
#    x 1.617870 0.000000 0.000010 
#    y 0.000000 1.675980 0.000000 
#    z 0.000010 0.000000 1.643680 
# 
# From -- ./inp_files/13776.got.cif
#   From: 2010.05.17/outbox.cif.g08.bks.cpg/sg22_7_cif.got.tgz:13776.got - 2010.06.03 23:40:54.
