data_PCOD9327248
_publ_section_title
;
Structure prediction by ZEFSAII (Michael W. Deem and Ramdas Pophale) SiO2 
 PCOD9327248
Probable space group: F 2 2 2
;
_chemical_formula_sum "Si O2"
_cell_formula_units_Z 104
_cell_length_a 18.298813
_cell_length_b 9.624333
_cell_length_c 28.476392
_cell_angle_alpha 90.000000
_cell_angle_beta 90.000000
_cell_angle_gamma 90.000000
_cell_volume 5015.087594
_symmetry_space_group_name_H-M "F 2 2 2"
_symmetry_group_IT_number 22
_symmetry_cell_setting 'orthorhombic'
loop_
_space_group_symop_operation_xyz
x,y,z
-x,-y,z
x,-y,-z
-x,y,-z
x,1/2+y,1/2+z
-x,1/2-y,1/2+z
x,1/2-y,1/2-z
-x,1/2+y,1/2-z
1/2+x,y,1/2+z
1/2-x,-y,1/2+z
1/2+x,-y,1/2-z
1/2-x,y,1/2-z
1/2+x,1/2+y,z
1/2-x,1/2-y,z
1/2+x,1/2-y,-z
1/2-x,1/2+y,-z
loop_
_atom_site_type_symbol
_atom_site_label
_atom_site_fract_x
_atom_site_fract_y
_atom_site_fract_z
Si Si1 0.250000 0.750000 0.346546
Si Si2 0.360795 0.674137 0.626909
Si Si3 0.573755 0.062243 0.656723
Si Si4 0.288527 0.000000 0.500000
Si Si5 0.250000 0.250000 0.443407
Si Si6 0.917177 0.044917 0.446905
Si Si7 0.624676 0.652769 0.918008
Si Si8 0.259044 0.042969 0.304244
O O1 0.315937 0.789451 0.381101
O O2 0.263497 0.615825 0.314860
O O3 0.318861 0.772976 0.589852
O O4 0.378301 0.538859 0.595618
O O5 0.300242 0.630529 0.665421
O O6 0.426803 0.771551 0.645276
O O7 0.579269 0.960452 0.611399
O O8 0.500000 0.000000 0.681231
O O9 0.654503 0.052782 0.681588
O O10 0.241707 0.882681 0.524778
O O11 0.336220 0.924806 0.460724
O O12 0.896646 0.000000 0.500000
O O13 0.912038 0.209746 0.439051
O O14 0.000000 0.000000 0.442042
O O15 0.250000 0.078172 0.250000
#
# Coordination Sequence:
#
# PCOD9327248 Si02
#       8
#     8  16  16   8   8  16  16  16
#     4  10  20  42  68  99 128 171 228 289 351 404
#     4  12  22  44  66  98 135 178 229 286 346 416
#     4  11  24  44  68  95 139 180 220 278 356 429
#     4  12  24  34  61 100 133 176 240 288 334 396
#     4  12  23  38  59  99 126 177 229 291 340 392
#     4  11  25  41  63  93 134 180 228 280 344 417
#     4  11  22  41  61  94 131 178 225 279 338 407
#     4  11  23  43  76 103 132 174 234 295 353 425
#
# _framework density 20.737424000000001
#
# number of rings (size 3 to 8) (size 9 to 14) (size 15 to 20)
#    0.000    0.769    4.615    3.462    3.231    1.231 
#    0.000    0.769    6.769    0.000    0.000    0.000 
#    0.000    0.000    0.000    0.000    0.000    0.000 
#
# Total GULP energy -145057.568227 kJ/mol
# GULP energy per Si atom -5579.137239 kJ/mol
# Density = 2.069022 g / cm^3
# Si number density = 20.737424 Si / 1000 Ang^3
#
#
#
# Elastic Constant Matrix: (Units=GPa)
#
#
# Indices 1 2 3 4 5 6 
#
# 1 102.8576 39.4340 48.2687 0.0000 0.0000 0.0000
# 2 39.4340 146.8149 49.1138 0.0000 0.0000 0.0000
# 3 48.2687 49.1138 129.6685 0.0000 0.0000 0.0000
# 4 0.0000 0.0000 0.0000 3.0457 0.0000 0.0000
# 5 0.0000 0.0000 0.0000 0.0000 18.9060 0.0000
# 6 0.0000 0.0000 0.0000 0.0000 0.0000 33.9770
#
#
#
# Elastic Compliance Matrix: (Units=1/GPa)
#
#
# Indices 1 2 3 4 5 6 
#
# 1 0.012285 -0.002027 -0.003805 0.000000 0.000000 0.000000
# 2 -0.002027 0.008134 -0.002326 0.000000 0.000000 0.000000
# 3 -0.003805 -0.002326 0.010010 0.000000 0.000000 0.000000
# 4 0.000000 0.000000 0.000000 0.328334 0.000000 0.000000
# 5 0.000000 0.000000 0.000000 0.000000 0.052893 0.000000
# 6 0.000000 0.000000 0.000000 0.000000 0.000000 0.029432
#
#
# Mechanical properties :
#
#
# Convention : Reuss Voigt Hill
#
# Bulk Modulus (GPa) = 70.86387 72.55267 71.70827
# Shear Modulus (GPa) = 10.81998 27.35403 19.08701
#
# Velocity S-wave (km/s) = 2.28669 3.63583 3.03712
# Velocity P-wave (km/s) = 6.42013 7.25865 6.85223
#
# Compressibility (1/GPa) = 0.01411156
#
# Stress axis : x y z
#
# Youngs Moduli (GPa) = 81.40033 122.94210 99.90322
#
# Poissons Ratio (x) = 0.24916 0.38017
# Poissons Ratio (y) = 0.16497 0.23242
# Poissons Ratio (z) = 0.30976 0.28601
#
# Static dielectric constant tensor:
#      x y z
#    x 3.351280 0.000000 0.000000 
#    y 0.000000 1.746940 0.000000 
#    z 0.000000 0.000000 1.716980 
# 
# From -- ./inp_files/53962.got.cif
#   From: 2010.05.17/outbox.cif.g08.bks.cpg/sg22_27_cif.got.tgz:53962.got - 2010.06.03 23:40:54.
