data_PCOD9327964
_publ_section_title
;
Structure prediction by ZEFSAII (Michael W. Deem and Ramdas Pophale) SiO2 
 PCOD9327964
Probable space group: F 2 2 2
;
_chemical_formula_sum "Si O2"
_cell_formula_units_Z 56
_cell_length_a 20.175301
_cell_length_b 19.712074
_cell_length_c 6.187306
_cell_angle_alpha 90.000000
_cell_angle_beta 90.000000
_cell_angle_gamma 90.000000
_cell_volume 2460.673197
_symmetry_space_group_name_H-M "F 2 2 2"
_symmetry_group_IT_number 22
_symmetry_cell_setting 'orthorhombic'
loop_
_space_group_symop_operation_xyz
x,y,z
-x,-y,z
x,-y,-z
-x,y,-z
x,1/2+y,1/2+z
-x,1/2-y,1/2+z
x,1/2-y,1/2-z
-x,1/2+y,1/2-z
1/2+x,y,1/2+z
1/2-x,-y,1/2+z
1/2+x,-y,1/2-z
1/2-x,y,1/2-z
1/2+x,1/2+y,z
1/2-x,1/2-y,z
1/2+x,1/2-y,-z
1/2-x,1/2+y,-z
loop_
_atom_site_type_symbol
_atom_site_label
_atom_site_fract_x
_atom_site_fract_y
_atom_site_fract_z
Si Si1 0.569818 0.312484 0.106563
Si Si2 0.681733 0.133756 0.719921
Si Si3 0.401939 0.933532 0.108052
Si Si4 0.821554 0.500000 0.500000
O O1 0.594217 0.250000 0.250000
O O2 0.556608 0.377041 0.263874
O O3 0.500000 0.293635 0.000000
O O4 0.625189 0.331941 0.929108
O O5 0.750000 0.174343 0.750000
O O6 0.709824 0.068875 0.583463
O O7 0.643527 0.106880 0.934144
O O8 0.361004 0.971002 0.296253
O O9 0.433380 0.000000 0.000000
#
# Coordination Sequence:
#
# PCOD9327964 Si02
#       4
#    16  16  16   8
#     4  11  27  47  74  98 141 200 250 298 378 453
#     4  10  22  40  71 108 142 186 237 296 363 440
#     4   9  20  43  69 106 143 180 234 296 361 439
#     4   8  18  34  63 108 148 181 218 286 368 440
#
# _framework density 22.757998000000001
#
# number of rings (size 3 to 8) (size 9 to 14) (size 15 to 20)
#    0.000    2.286    0.000    0.000   10.000    3.429 
#    0.000   37.143    0.000    0.000    0.000    0.000 
#    0.000    0.000    0.000    0.000    0.000    0.000 
#
# Total GULP energy -77997.335270 kJ/mol
# GULP energy per Si atom -5571.238234 kJ/mol
# Density = 2.270620 g / cm^3
# Si number density = 22.757998 Si / 1000 Ang^3
#
#
#
# Elastic Constant Matrix: (Units=GPa)
#
#
# Indices 1 2 3 4 5 6 
#
# 1 123.1577 16.0591 61.9646 0.0021 -0.0021 -0.0021
# 2 16.0591 102.0553 43.9592 0.0092 -0.0067 -0.0040
# 3 61.9646 43.9592 147.2295 0.0146 -0.0128 -0.0124
# 4 0.0021 0.0092 0.0146 43.9597 -0.0094 -0.0076
# 5 -0.0021 -0.0067 -0.0128 -0.0094 9.8456 0.0087
# 6 -0.0021 -0.0040 -0.0124 -0.0076 0.0087 -8.4496
#
#
#
# Elastic Compliance Matrix: (Units=1/GPa)
#
#
# Indices 1 2 3 4 5 6 
#
# 1 0.010308 0.000283 -0.004423 0.000001 -0.000003 0.000004
# 2 0.000283 0.011253 -0.003479 -0.000001 0.000003 0.000000
# 3 -0.004423 -0.003479 0.009692 -0.000002 0.000009 -0.000011
# 4 0.000001 -0.000001 -0.000002 0.022748 0.000022 -0.000020
# 5 -0.000003 0.000003 0.000009 0.000022 0.101568 0.000105
# 6 0.000004 0.000000 -0.000011 -0.000020 0.000105 -0.118348
#
#
# Mechanical properties :
#
#
# Convention : Reuss Voigt Hill
#
# Bulk Modulus (GPa) = 62.43948 68.48984 65.46466
# Shear Modulus (GPa) = 86.51019 25.76844 56.13931
#
# Velocity S-wave (km/s) = 6.17216 3.36859 4.97207
# Velocity P-wave (km/s) = 8.84816 6.72979 7.86066
#
# Compressibility (1/GPa) = 0.01601551
#
# Stress axis : x y z
#
# Youngs Moduli (GPa) = 97.01156 88.86871 103.17483
#
# Poissons Ratio (x) = -0.02516 0.45633
# Poissons Ratio (y) = -0.02746 0.35893
# Poissons Ratio (z) = 0.42907 0.30916
#
# Static dielectric constant tensor:
#      x y z
#    x 1.820410 0.000000 0.000000 
#    y 0.000000 1.898460 0.000000 
#    z 0.000000 0.000000 1.927680 
# 
# From -- ./inp_files/3449.got.cif
#   From: 2010.05.17/outbox.cif.g08.bks.cpg/sg22_2_cif.got.tgz:3449.got - 2010.06.03 23:40:54.
