data_PCOD9327834
_publ_section_title
;
Structure prediction by ZEFSAII (Michael W. Deem and Ramdas Pophale) SiO2 
 PCOD9327834
Probable space group: F 2 2 2
;
_chemical_formula_sum "Si O2"
_cell_formula_units_Z 96
_cell_length_a 12.145735
_cell_length_b 20.852700
_cell_length_c 19.351538
_cell_angle_alpha 90.000000
_cell_angle_beta 90.000000
_cell_angle_gamma 90.000000
_cell_volume 4901.190507
_symmetry_space_group_name_H-M "F 2 2 2"
_symmetry_group_IT_number 22
_symmetry_cell_setting 'orthorhombic'
loop_
_space_group_symop_operation_xyz
x,y,z
-x,-y,z
x,-y,-z
-x,y,-z
x,1/2+y,1/2+z
-x,1/2-y,1/2+z
x,1/2-y,1/2-z
-x,1/2+y,1/2-z
1/2+x,y,1/2+z
1/2-x,-y,1/2+z
1/2+x,-y,1/2-z
1/2-x,y,1/2-z
1/2+x,1/2+y,z
1/2-x,1/2-y,z
1/2+x,1/2-y,-z
1/2-x,1/2+y,-z
loop_
_atom_site_type_symbol
_atom_site_label
_atom_site_fract_x
_atom_site_fract_y
_atom_site_fract_z
Si Si1 0.581305 0.577169 0.654387
Si Si2 0.217369 0.818112 0.829283
Si Si3 0.152415 0.561342 0.892369
Si Si4 0.993388 0.880661 0.809450
Si Si5 0.500000 0.500000 0.101605
Si Si6 0.694915 0.500000 0.000000
Si Si7 0.763330 0.322467 0.333643
O O1 0.640583 0.507035 0.649951
O O2 0.476929 0.578273 0.603274
O O3 0.533088 0.596235 0.730725
O O4 0.670989 0.630509 0.637406
O O5 0.250000 0.815370 0.750000
O O6 0.250000 0.750000 0.862858
O O7 0.282770 0.879648 0.858102
O O8 0.086928 0.828535 0.823302
O O9 0.221607 0.547362 0.961345
O O10 0.882363 0.853231 0.842367
O O11 0.035815 0.942421 0.850007
O O12 0.605608 0.477666 0.057194
O O13 0.750000 0.320801 0.250000
O O14 0.750000 0.250000 0.359001
#
# Coordination Sequence:
#
# PCOD9327834 Si02
#       7
#    16  16  16  16   8   8  16
#     4  10  22  37  63  94 129 165 210 271 342 394
#     4  11  24  37  63 100 138 171 204 267 344 407
#     4  11  22  41  60  92 127 166 222 269 320 383
#     4  11  21  38  64  95 133 163 208 271 337 400
#     4  11  22  38  62  98 120 165 220 276 324 385
#     4  11  24  39  62  90 124 171 225 270 320 368
#     4   9  20  33  54  88 133 173 200 241 317 413
#
# _framework density 19.587078000000002
#
# number of rings (size 3 to 8) (size 9 to 14) (size 15 to 20)
#    0.000    1.500    3.333    2.000    2.333    3.333 
#    0.000    0.000    0.000    4.000    8.667    0.000 
#    0.000    0.000    0.000    0.000    0.000    0.000 
#
# Total GULP energy -133688.685925 kJ/mol
# GULP energy per Si atom -5570.361914 kJ/mol
# Density = 1.954250 g / cm^3
# Si number density = 19.587078 Si / 1000 Ang^3
#
#
#
# Elastic Constant Matrix: (Units=GPa)
#
#
# Indices 1 2 3 4 5 6 
#
# 1 159.0577 70.5670 35.3488 0.0000 0.0000 0.0000
# 2 70.5670 138.2466 24.5427 0.0000 0.0000 0.0000
# 3 35.3488 24.5427 37.3751 0.0000 0.0000 0.0000
# 4 0.0000 0.0000 0.0000 3.1225 0.0000 0.0000
# 5 0.0000 0.0000 0.0000 0.0000 26.5969 0.0000
# 6 0.0000 0.0000 0.0000 0.0000 0.0000 61.7831
#
#
#
# Elastic Compliance Matrix: (Units=1/GPa)
#
#
# Indices 1 2 3 4 5 6 
#
# 1 0.009323 -0.003615 -0.006444 0.000000 0.000000 0.000000
# 2 -0.003615 0.009590 -0.002878 0.000000 0.000000 0.000000
# 3 -0.006444 -0.002878 0.034740 0.000000 0.000000 0.000000
# 4 0.000000 0.000000 0.000000 0.320256 0.000000 0.000000
# 5 0.000000 0.000000 0.000000 0.000000 0.037598 0.000000
# 6 0.000000 0.000000 0.000000 0.000000 0.000000 0.016186
#
#
# Mechanical properties :
#
#
# Convention : Reuss Voigt Hill
#
# Bulk Modulus (GPa) = 35.99838 66.17737 51.08787
# Shear Modulus (GPa) = 10.80320 31.91523 21.35921
#
# Velocity S-wave (km/s) = 2.35105 4.04096 3.30582
# Velocity P-wave (km/s) = 5.07823 7.45869 6.38046
#
# Compressibility (1/GPa) = 0.02777903
#
# Stress axis : x y z
#
# Youngs Moduli (GPa) = 107.26396 104.27981 28.78520
#
# Poissons Ratio (x) = 0.37695 0.18548
# Poissons Ratio (y) = 0.38774 0.08285
# Poissons Ratio (z) = 0.69117 0.30014
#
# Static dielectric constant tensor:
#      x y z
#    x 1.838360 0.000000 0.000000 
#    y 0.000000 1.777690 0.000000 
#    z 0.000000 0.000000 1.692750 
# 
# From -- ./inp_files/42785.got.cif
#   From: 2010.05.17/outbox.cif.g08.bks.cpg/sg22_22_cif.got.tgz:42785.got - 2010.06.03 23:40:54.
