data_PCOD9327184
_publ_section_title
;
Structure prediction by ZEFSAII (Michael W. Deem and Ramdas Pophale) SiO2 
 PCOD9327184
Probable space group: F 2 2 2
;
_chemical_formula_sum "Si O2"
_cell_formula_units_Z 104
_cell_length_a 26.456243
_cell_length_b 20.131250
_cell_length_c 8.640854
_cell_angle_alpha 90.000000
_cell_angle_beta 90.000000
_cell_angle_gamma 90.000000
_cell_volume 4602.095008
_symmetry_space_group_name_H-M "F 2 2 2"
_symmetry_group_IT_number 22
_symmetry_cell_setting 'orthorhombic'
loop_
_space_group_symop_operation_xyz
x,y,z
-x,-y,z
x,-y,-z
-x,y,-z
x,1/2+y,1/2+z
-x,1/2-y,1/2+z
x,1/2-y,1/2-z
-x,1/2+y,1/2-z
1/2+x,y,1/2+z
1/2-x,-y,1/2+z
1/2+x,-y,1/2-z
1/2-x,y,1/2-z
1/2+x,1/2+y,z
1/2-x,1/2-y,z
1/2+x,1/2-y,-z
1/2-x,1/2+y,-z
loop_
_atom_site_type_symbol
_atom_site_label
_atom_site_fract_x
_atom_site_fract_y
_atom_site_fract_z
Si Si1 0.440990 0.490632 0.685144
Si Si2 0.890806 0.250000 0.250000
Si Si3 0.632616 0.910826 0.370873
Si Si4 0.280299 0.934607 0.093947
Si Si5 0.367148 0.897649 0.289063
Si Si6 0.201979 0.333310 0.149912
Si Si7 0.102477 0.240486 0.086562
O O1 0.500000 0.500000 0.713951
O O2 0.433117 0.500000 0.500000
O O3 0.407582 0.542250 0.786639
O O4 0.424301 0.418701 0.751521
O O5 0.859838 0.181465 0.224784
O O6 0.917870 0.240724 0.416939
O O7 0.649366 0.928233 0.545783
O O8 0.676133 0.893200 0.248256
O O9 0.610134 0.838211 0.410110
O O10 0.250000 0.931820 0.250000
O O11 0.337946 0.934127 0.151139
O O12 0.274497 0.866961 0.000239
O O13 0.267875 0.000000 0.000000
O O14 0.250000 0.312082 0.250000
O O15 0.156534 0.281523 0.106646
O O16 0.074122 0.250000 0.250000
#
# Coordination Sequence:
#
# PCOD9327184 Si02
#       7
#    16   8  16  16  16  16  16
#     4  11  25  44  71 100 131 171 223 278 345 419
#     4  10  20  40  65 100 132 174 230 268 345 400
#     4  10  22  39  65  98 128 169 222 280 338 401
#     4  12  25  40  61  95 136 185 230 285 331 396
#     4  11  22  41  70  96 133 178 219 283 341 406
#     4  11  21  39  63  92 137 184 231 273 330 403
#     4   9  20  36  63  91 131 179 220 277 328 404
#
# _framework density 22.598403000000001
#
# number of rings (size 3 to 8) (size 9 to 14) (size 15 to 20)
#    0.000    1.385    1.538    4.154    2.154    5.231 
#    0.000    0.385    5.077    0.000    0.000    0.000 
#    0.000    0.000    0.000    0.000    0.000    0.000 
#
# Total GULP energy -144937.150492 kJ/mol
# GULP energy per Si atom -5574.505788 kJ/mol
# Density = 2.254697 g / cm^3
# Si number density = 22.598403 Si / 1000 Ang^3
#
#
#
# Elastic Constant Matrix: (Units=GPa)
#
#
# Indices 1 2 3 4 5 6 
#
# 1 71.4489 32.1780 20.5437 0.0000 0.0000 0.0000
# 2 32.1780 122.9923 46.8226 0.0000 0.0000 0.0000
# 3 20.5437 46.8226 176.6271 -0.0003 0.0000 0.0000
# 4 0.0000 0.0000 -0.0003 14.7604 0.0000 0.0000
# 5 0.0000 0.0000 0.0000 0.0000 27.1860 0.0000
# 6 0.0000 0.0000 0.0000 0.0000 0.0000 2.2527
#
#
#
# Elastic Compliance Matrix: (Units=1/GPa)
#
#
# Indices 1 2 3 4 5 6 
#
# 1 0.015975 -0.003862 -0.000834 0.000000 0.000000 0.000000
# 2 -0.003862 0.009977 -0.002196 0.000000 0.000000 0.000000
# 3 -0.000834 -0.002196 0.006341 0.000000 0.000000 0.000000
# 4 0.000000 0.000000 0.000000 0.067749 0.000000 0.000000
# 5 0.000000 0.000000 0.000000 0.000000 0.036784 0.000000
# 6 0.000000 0.000000 0.000000 0.000000 0.000000 0.443908
#
#
# Mechanical properties :
#
#
# Convention : Reuss Voigt Hill
#
# Bulk Modulus (GPa) = 54.02759 63.35076 58.68917
# Shear Modulus (GPa) = 8.32382 26.94143 17.63262
#
# Velocity S-wave (km/s) = 1.92129 3.45655 2.79634
# Velocity P-wave (km/s) = 5.37414 6.63509 6.03763
#
# Compressibility (1/GPa) = 0.01850906
#
# Stress axis : x y z
#
# Youngs Moduli (GPa) = 62.59710 100.23238 157.71063
#
# Poissons Ratio (x) = 0.38709 0.13158
# Poissons Ratio (y) = 0.24174 0.34627
# Poissons Ratio (z) = 0.05223 0.22007
#
# Static dielectric constant tensor:
#      x y z
#    x 1.863000 0.000000 0.000000 
#    y 0.000000 1.864860 0.000000 
#    z 0.000000 0.000000 1.981730 
# 
# From -- ./inp_files/14809.got.cif
#   From: 2010.05.17/outbox.cif.g08.bks.cpg/sg22_8_cif.got.tgz:14809.got - 2010.06.03 23:40:54.
