data_PCOD9327038
_publ_section_title
;
Structure prediction by ZEFSAII (Michael W. Deem and Ramdas Pophale) SiO2 
 PCOD9327038
Probable space group: F 2 2 2
;
_chemical_formula_sum "Si O2"
_cell_formula_units_Z 68
_cell_length_a 5.243012
_cell_length_b 30.407177
_cell_length_c 21.571903
_cell_angle_alpha 90.000000
_cell_angle_beta 90.000000
_cell_angle_gamma 90.000000
_cell_volume 3439.104819
_symmetry_space_group_name_H-M "F 2 2 2"
_symmetry_group_IT_number 22
_symmetry_cell_setting 'orthorhombic'
loop_
_space_group_symop_operation_xyz
x,y,z
-x,-y,z
x,-y,-z
-x,y,-z
x,1/2+y,1/2+z
-x,1/2-y,1/2+z
x,1/2-y,1/2-z
-x,1/2+y,1/2-z
1/2+x,y,1/2+z
1/2-x,-y,1/2+z
1/2+x,-y,1/2-z
1/2-x,y,1/2-z
1/2+x,1/2+y,z
1/2-x,1/2-y,z
1/2+x,1/2-y,-z
1/2-x,1/2+y,-z
loop_
_atom_site_type_symbol
_atom_site_label
_atom_site_fract_x
_atom_site_fract_y
_atom_site_fract_z
Si Si1 0.248684 0.886862 0.383437
Si Si2 0.750000 0.103270 0.250000
Si Si3 0.249417 0.797229 0.042129
Si Si4 0.752408 0.447560 0.610308
Si Si5 0.750000 0.543649 0.250000
Si Si6 0.500000 0.000000 0.000000
O O1 0.268208 0.870655 0.312775
O O2 0.257451 0.843391 0.423341
O O3 0.481503 0.920954 0.395225
O O4 0.981945 0.912827 0.388337
O O5 0.504662 0.072101 0.248842
O O6 0.250000 0.750000 0.077559
O O7 0.500000 0.797910 0.000000
O O8 0.000000 0.796226 0.000000
O O9 0.752894 0.473845 0.677564
O O10 0.685592 0.475026 0.548855
#
# Coordination Sequence:
#
# PCOD9327038 Si02
#       6
#    16   8  16  16   8   4
#     4  10  20  38  61  83 112 161 186 238 290 361
#     4   8  16  32  58  84 106 139 206 227 270 348
#     4  10  21  35  55  86 119 151 193 235 282 350
#     4  10  23  38  61  83 123 150 202 237 308 347
#     4   8  16  38  57  80 105 163 188 233 285 374
#     4  12  28  42  56 102 120 148 200 282 292 358
#
# _framework density 19.772586
#
# number of rings (size 3 to 8) (size 9 to 14) (size 15 to 20)
#    0.000    2.353    0.000    1.412    4.941    1.882 
#    0.000    7.647    0.000    0.000    0.000   14.824 
#    0.000    0.000    0.000    0.000    0.000    0.000 
#
# Total GULP energy -94678.607958 kJ/mol
# GULP energy per Si atom -5569.329880 kJ/mol
# Density = 1.972758 g / cm^3
# Si number density = 19.772586 Si / 1000 Ang^3
#
#
#
# Elastic Constant Matrix: (Units=GPa)
#
#
# Indices 1 2 3 4 5 6 
#
# 1 142.9121 28.7791 11.9362 0.0000 0.0000 0.0000
# 2 28.7791 81.2747 61.7970 0.0000 0.0000 0.0000
# 3 11.9362 61.7970 145.2923 0.0000 0.0000 0.0000
# 4 0.0000 0.0000 0.0000 -105.6995 0.0000 0.0000
# 5 0.0000 0.0000 0.0000 0.0000 25.7903 0.0000
# 6 0.0000 0.0000 0.0000 0.0000 0.0000 25.8940
#
#
#
# Elastic Compliance Matrix: (Units=1/GPa)
#
#
# Indices 1 2 3 4 5 6 
#
# 1 0.007592 -0.003272 0.000768 0.000000 0.000000 0.000000
# 2 -0.003272 0.019595 -0.008066 0.000000 0.000000 0.000000
# 3 0.000768 -0.008066 0.010250 0.000000 0.000000 0.000000
# 4 0.000000 0.000000 0.000000 -0.009461 0.000000 0.000000
# 5 0.000000 0.000000 0.000000 0.000000 0.038774 0.000000
# 6 0.000000 0.000000 0.000000 0.000000 0.000000 0.038619
#
#
# Mechanical properties :
#
#
# Convention : Reuss Voigt Hill
#
# Bulk Modulus (GPa) = 61.35788 63.83375 62.59582
# Shear Modulus (GPa) = 37.89525 6.99474 22.44500
#
# Velocity S-wave (km/s) = 4.38260 1.88289 3.37286
# Velocity P-wave (km/s) = 7.53052 6.08942 6.84798
#
# Compressibility (1/GPa) = 0.01629782
#
# Stress axis : x y z
#
# Youngs Moduli (GPa) = 131.71527 51.03238 97.55973
#
# Poissons Ratio (x) = 0.16700 -0.07494
# Poissons Ratio (y) = 0.43102 0.78688
# Poissons Ratio (z) = -0.10117 0.41161
#
# Static dielectric constant tensor:
#      x y z
#    x 1.685060 0.000000 0.000000 
#    y 0.000000 1.676750 0.000000 
#    z 0.000000 0.000000 1.760700 
# 
# From -- ./inp_files/3801.got.cif
#   From: 2010.05.17/outbox.cif.g08.bks.cpg/sg22_2_cif.got.tgz:3801.got - 2010.06.03 23:40:54.
