data_PCOD9327586
_publ_section_title
;
Structure prediction by ZEFSAII (Michael W. Deem and Ramdas Pophale) SiO2 
 PCOD9327586
Probable space group: F 2 2 2
;
_chemical_formula_sum "Si O2"
_cell_formula_units_Z 120
_cell_length_a 24.942890
_cell_length_b 9.514746
_cell_length_c 25.561737
_cell_angle_alpha 90.000000
_cell_angle_beta 90.000000
_cell_angle_gamma 90.000000
_cell_volume 6066.445953
_symmetry_space_group_name_H-M "F 2 2 2"
_symmetry_group_IT_number 22
_symmetry_cell_setting 'orthorhombic'
loop_
_space_group_symop_operation_xyz
x,y,z
-x,-y,z
x,-y,-z
-x,y,-z
x,1/2+y,1/2+z
-x,1/2-y,1/2+z
x,1/2-y,1/2-z
-x,1/2+y,1/2-z
1/2+x,y,1/2+z
1/2-x,-y,1/2+z
1/2+x,-y,1/2-z
1/2-x,y,1/2-z
1/2+x,1/2+y,z
1/2-x,1/2-y,z
1/2+x,1/2-y,-z
1/2-x,1/2+y,-z
loop_
_atom_site_type_symbol
_atom_site_label
_atom_site_fract_x
_atom_site_fract_y
_atom_site_fract_z
Si Si1 0.941052 0.475486 0.364066
Si Si2 0.843058 0.552275 0.710849
Si Si3 0.555501 0.797563 0.529662
Si Si4 0.889330 0.782534 0.071496
Si Si5 0.439152 0.521815 0.409114
Si Si6 0.653596 0.943808 0.832326
Si Si7 0.250000 0.250000 0.832882
Si Si8 0.187302 0.735062 0.657708
O O1 0.895500 0.419774 0.324752
O O2 0.943363 0.379116 0.415797
O O3 0.923942 0.625520 0.388048
O O4 0.000000 0.500000 0.340519
O O5 0.852706 0.587659 0.771109
O O6 0.789952 0.640160 0.695495
O O7 0.831004 0.388421 0.696978
O O8 0.500000 0.828050 0.500000
O O9 0.601755 0.832147 0.487731
O O10 0.557823 0.634091 0.544524
O O11 0.912710 0.625202 0.073890
O O12 0.831323 0.797750 0.098050
O O13 0.500000 0.500000 0.390333
O O14 0.399691 0.583010 0.365148
O O15 0.704318 0.856476 0.856041
O O16 0.663330 0.111309 0.832391
O O17 0.250000 0.750000 0.662156
#
# Coordination Sequence:
#
# PCOD9327586 Si02
#       8
#    16  16  16  16  16  16   8  16
#     4  11  22  38  59  91 122 158 201 248 303 364
#     4  11  23  38  61  90 124 160 200 251 302 360
#     4  12  21  36  62  87 118 158 200 246 298 353
#     4  10  22  35  60  89 118 148 200 250 297 352
#     4  11  22  38  59  91 122 158 201 248 303 364
#     4  11  23  38  61  90 124 160 200 251 302 360
#     4  12  23  38  60  90 120 164 214 242 292 362
#     4  10  21  40  63  88 115 153 202 250 297 354
#
# _framework density 19.780940000000001
#
# number of rings (size 3 to 8) (size 9 to 14) (size 15 to 20)
#    0.000    1.067    4.000    3.200    0.000    1.067 
#    0.000    0.000    5.867    9.600    0.000    0.000 
#    0.000    0.000    0.000    0.000    0.000    0.000 
#
# Total GULP energy -167332.613263 kJ/mol
# GULP energy per Si atom -5577.753775 kJ/mol
# Density = 1.973592 g / cm^3
# Si number density = 19.780940 Si / 1000 Ang^3
#
#
#
# Elastic Constant Matrix: (Units=GPa)
#
#
# Indices 1 2 3 4 5 6 
#
# 1 104.5526 0.8287 55.9884 0.0000 0.0000 0.0000
# 2 0.8287 86.3859 5.1330 0.0000 0.0000 0.0000
# 3 55.9884 5.1330 71.7903 0.0000 0.0000 0.0000
# 4 0.0000 0.0000 0.0000 11.8905 0.0000 0.0000
# 5 0.0000 0.0000 0.0000 0.0000 13.1922 0.0000
# 6 0.0000 0.0000 0.0000 0.0000 0.0000 26.7292
#
#
#
# Elastic Compliance Matrix: (Units=1/GPa)
#
#
# Indices 1 2 3 4 5 6 
#
# 1 0.016455 0.000607 -0.012877 0.000000 0.000000 0.000000
# 2 0.000607 0.011648 -0.001306 0.000000 0.000000 0.000000
# 3 -0.012877 -0.001306 0.024065 0.000000 0.000000 0.000000
# 4 0.000000 0.000000 0.000000 0.084101 0.000000 0.000000
# 5 0.000000 0.000000 0.000000 0.000000 0.075802 0.000000
# 6 0.000000 0.000000 0.000000 0.000000 0.000000 0.037412
#
#
# Mechanical properties :
#
#
# Convention : Reuss Voigt Hill
#
# Bulk Modulus (GPa) = 39.97345 42.95878 41.46612
# Shear Modulus (GPa) = 17.54545 23.74763 20.64654
#
# Velocity S-wave (km/s) = 2.98146 3.46863 3.23423
# Velocity P-wave (km/s) = 5.66605 6.14868 5.91229
#
# Compressibility (1/GPa) = 0.02501660
#
# Stress axis : x y z
#
# Youngs Moduli (GPa) = 60.77072 85.85341 41.55366
#
# Poissons Ratio (x) = -0.05214 0.53507
# Poissons Ratio (y) = -0.03690 0.05429
# Poissons Ratio (z) = 0.78253 0.11216
#
# Static dielectric constant tensor:
#      x y z
#    x 1.705330 0.000000 0.000000 
#    y 0.000000 1.862420 0.000000 
#    z 0.000000 0.000000 1.691010 
# 
# From -- ./inp_files/54373.got.cif
#   From: 2010.05.17/outbox.cif.g08.bks.cpg/sg22_28_cif.got.tgz:54373.got - 2010.06.03 23:40:54.
