data_PCOD9327779
_publ_section_title
;
Structure prediction by ZEFSAII (Michael W. Deem and Ramdas Pophale) SiO2 
 PCOD9327779
Probable space group: F 2 2 2
;
_chemical_formula_sum "Si O2"
_cell_formula_units_Z 104
_cell_length_a 18.374700
_cell_length_b 28.875490
_cell_length_c 8.885012
_cell_angle_alpha 90.000000
_cell_angle_beta 90.000000
_cell_angle_gamma 90.000000
_cell_volume 4714.196038
_symmetry_space_group_name_H-M "F 2 2 2"
_symmetry_group_IT_number 22
_symmetry_cell_setting 'orthorhombic'
loop_
_space_group_symop_operation_xyz
x,y,z
-x,-y,z
x,-y,-z
-x,y,-z
x,1/2+y,1/2+z
-x,1/2-y,1/2+z
x,1/2-y,1/2-z
-x,1/2+y,1/2-z
1/2+x,y,1/2+z
1/2-x,-y,1/2+z
1/2+x,-y,1/2-z
1/2-x,y,1/2-z
1/2+x,1/2+y,z
1/2-x,1/2-y,z
1/2+x,1/2-y,-z
1/2-x,1/2+y,-z
loop_
_atom_site_type_symbol
_atom_site_label
_atom_site_fract_x
_atom_site_fract_y
_atom_site_fract_z
Si Si1 0.951839 0.043562 0.795912
Si Si2 0.078381 0.196977 0.428236
Si Si3 0.611488 0.803073 0.433844
Si Si4 0.395934 0.500000 0.500000
Si Si5 0.265053 0.842892 0.927399
Si Si6 0.500000 0.122745 0.500000
Si Si7 0.725151 0.431709 0.394366
Si Si8 0.662078 0.000000 0.500000
O O1 0.988977 0.090091 0.853983
O O2 0.936110 0.032545 0.622097
O O3 0.881398 0.036175 0.898333
O O4 0.000000 0.000000 0.841202
O O5 0.087742 0.191970 0.244909
O O6 0.087243 0.251107 0.469857
O O7 0.154499 0.173270 0.478922
O O8 0.000000 0.181357 0.500000
O O9 0.695851 0.811930 0.476827
O O10 0.567903 0.843408 0.516985
O O11 0.347997 0.538324 0.411018
O O12 0.250000 0.839578 0.750000
O O13 0.264336 0.896852 0.968949
O O14 0.750000 0.402188 0.250000
O O15 0.787223 0.470355 0.394043
#
# Coordination Sequence:
#
# PCOD9327779 Si02
#       8
#    16  16  16   8  16   8  16   8
#     4  12  24  44  64  98 140 187 232 290 356 422
#     4  10  21  45  68 103 148 183 235 315 385 433
#     4  10  22  42  71 105 138 191 244 298 375 452
#     4  11  27  42  66  98 141 185 232 304 367 413
#     4  10  23  41  71 103 135 187 245 305 362 450
#     4  12  23  40  74 102 136 194 260 293 348 458
#     4  11  24  42  66  95 133 181 237 293 360 432
#     4  11  21  42  64  88 133 183 230 284 356 436
#
# _framework density 22.061025999999998
#
# number of rings (size 3 to 8) (size 9 to 14) (size 15 to 20)
#    0.000    1.231    3.846    1.615    6.462    1.846 
#    8.308    0.000    0.000    0.923    0.000    0.000 
#    0.000    0.000    0.000    0.000    0.000    0.000 
#
# Total GULP energy -144807.621128 kJ/mol
# GULP energy per Si atom -5569.523890 kJ/mol
# Density = 2.201081 g / cm^3
# Si number density = 22.061026 Si / 1000 Ang^3
#
#
#
# Elastic Constant Matrix: (Units=GPa)
#
#
# Indices 1 2 3 4 5 6 
#
# 1 141.9018 46.4555 46.2261 0.0000 0.0000 0.0002
# 2 46.4555 99.6855 19.4574 0.0000 0.0000 0.0002
# 3 46.2261 19.4574 71.8994 -0.0001 0.0002 0.0013
# 4 0.0000 0.0000 -0.0001 11.7349 0.0000 0.0006
# 5 0.0000 0.0000 0.0002 0.0000 41.9730 -0.0006
# 6 0.0002 0.0002 0.0013 0.0006 -0.0006 -329.9455
#
#
#
# Elastic Compliance Matrix: (Units=1/GPa)
#
#
# Indices 1 2 3 4 5 6 
#
# 1 0.010002 -0.003596 -0.005458 0.000000 0.000000 0.000000
# 2 -0.003596 0.011884 -0.000904 0.000000 0.000000 0.000000
# 3 -0.005458 -0.000904 0.017662 0.000000 0.000000 0.000000
# 4 0.000000 0.000000 0.000000 0.085216 0.000000 0.000000
# 5 0.000000 0.000000 0.000000 0.000000 0.023825 0.000000
# 6 0.000000 0.000000 0.000000 0.000000 0.000000 -0.003031
#
#
# Mechanical properties :
#
#
# Convention : Reuss Voigt Hill
#
# Bulk Modulus (GPa) = 50.93553 59.75163 55.34358
# Shear Modulus (GPa) = 29.06681 -41.82435 -6.37877
#
# Velocity S-wave (km/s) = 3.63376 -4.35886 -1.70226
# Velocity P-wave (km/s) = 6.38312 1.34560 4.61275
#
# Compressibility (1/GPa) = 0.01963266
#
# Stress axis : x y z
#
# Youngs Moduli (GPa) = 99.97752 84.14813 56.61935
#
# Poissons Ratio (x) = 0.30260 0.30900
# Poissons Ratio (y) = 0.35952 0.05118
# Poissons Ratio (z) = 0.54564 0.07607
#
# Static dielectric constant tensor:
#      x y z
#    x 1.397470 0.000000 0.000000 
#    y 0.000000 1.758370 0.000000 
#    z 0.000000 0.000000 1.944950 
# 
# From -- ./inp_files/12992.got.cif
#   From: 2010.05.17/outbox.cif.g08.bks.cpg/sg22_7_cif.got.tgz:12992.got - 2010.06.03 23:40:54.
