data_PCOD9327120
_publ_section_title
;
Structure prediction by ZEFSAII (Michael W. Deem and Ramdas Pophale) SiO2 
 PCOD9327120
Probable space group: F 2 2 2
;
_chemical_formula_sum "Si O2"
_cell_formula_units_Z 112
_cell_length_a 26.604236
_cell_length_b 14.644716
_cell_length_c 13.656548
_cell_angle_alpha 90.000000
_cell_angle_beta 90.000000
_cell_angle_gamma 90.000000
_cell_volume 5320.747886
_symmetry_space_group_name_H-M "F 2 2 2"
_symmetry_group_IT_number 22
_symmetry_cell_setting 'orthorhombic'
loop_
_space_group_symop_operation_xyz
x,y,z
-x,-y,z
x,-y,-z
-x,y,-z
x,1/2+y,1/2+z
-x,1/2-y,1/2+z
x,1/2-y,1/2-z
-x,1/2+y,1/2-z
1/2+x,y,1/2+z
1/2-x,-y,1/2+z
1/2+x,-y,1/2-z
1/2-x,y,1/2-z
1/2+x,1/2+y,z
1/2-x,1/2-y,z
1/2+x,1/2-y,-z
1/2-x,1/2+y,-z
loop_
_atom_site_type_symbol
_atom_site_label
_atom_site_fract_x
_atom_site_fract_y
_atom_site_fract_z
Si Si1 0.484809 0.896111 0.713224
Si Si2 0.378871 0.400397 0.120461
Si Si3 0.194291 0.455113 0.722321
Si Si4 0.680698 0.168437 0.456982
Si Si5 0.250000 0.250000 0.391237
Si Si6 0.369565 0.180291 0.842682
Si Si7 0.331627 0.750000 0.750000
Si Si8 0.517284 0.216937 0.112229
O O1 0.436410 0.912989 0.645405
O O2 0.480229 0.840998 0.816284
O O3 0.518570 0.822097 0.652378
O O4 0.500000 0.000000 0.736168
O O5 0.341815 0.472524 0.170474
O O6 0.365146 0.308490 0.178797
O O7 0.364702 0.387360 0.007149
O O8 0.250000 0.487748 0.750000
O O9 0.202166 0.377740 0.639320
O O10 0.161384 0.408027 0.808120
O O11 0.722364 0.177982 0.540123
O O12 0.660063 0.267337 0.427951
O O13 0.292078 0.297753 0.323766
O O14 0.370066 0.250000 0.750000
O O15 0.427691 0.171563 0.873469
O O16 0.500000 0.216016 0.000000
#
# Coordination Sequence:
#
# PCOD9327120 Si02
#       8
#    16  16  16  16   8  16   8  16
#     4  11  24  43  68  97 134 172 218 280 342 399
#     4  11  23  40  63  90 129 167 218 263 327 390
#     4  11  24  39  63  95 131 170 213 269 330 380
#     4  10  21  37  63  89 127 161 215 258 312 388
#     4   9  18  34  59  84 114 162 205 246 304 371
#     4  10  20  39  64  91 128 163 211 263 326 388
#     4   9  20  36  60  82 120 166 208 250 317 374
#     4  11  23  43  71  98 132 173 224 275 343 409
#
# _framework density 21.049672999999999
#
# number of rings (size 3 to 8) (size 9 to 14) (size 15 to 20)
#    0.000    1.571    1.429    3.857    6.000    3.714 
#    2.571    0.000    0.000    0.000    0.000    0.000 
#    0.000    0.000    0.000    0.000    0.000    0.000 
#
# Total GULP energy -156133.711281 kJ/mol
# GULP energy per Si atom -5576.203974 kJ/mol
# Density = 2.100176 g / cm^3
# Si number density = 21.049673 Si / 1000 Ang^3
#
#
#
# Elastic Constant Matrix: (Units=GPa)
#
#
# Indices 1 2 3 4 5 6 
#
# 1 51.7819 7.5918 5.9913 0.0000 0.0000 0.0000
# 2 7.5918 70.5290 14.7350 0.0000 0.0000 0.0000
# 3 5.9913 14.7350 94.2404 0.0000 0.0000 0.0000
# 4 0.0000 0.0000 0.0000 29.8533 0.0000 0.0000
# 5 0.0000 0.0000 0.0000 0.0000 20.2559 0.0000
# 6 0.0000 0.0000 0.0000 0.0000 0.0000 27.1447
#
#
#
# Elastic Compliance Matrix: (Units=1/GPa)
#
#
# Indices 1 2 3 4 5 6 
#
# 1 0.019704 -0.001922 -0.000952 0.000000 0.000000 0.000000
# 2 -0.001922 0.014845 -0.002199 0.000000 0.000000 0.000000
# 3 -0.000952 -0.002199 0.011016 0.000000 0.000000 0.000000
# 4 0.000000 0.000000 0.000000 0.033497 0.000000 0.000000
# 5 0.000000 0.000000 0.000000 0.000000 0.049368 0.000000
# 6 0.000000 0.000000 0.000000 0.000000 0.000000 0.036840
#
#
# Mechanical properties :
#
#
# Convention : Reuss Voigt Hill
#
# Bulk Modulus (GPa) = 28.23423 30.35419 29.29421
# Shear Modulus (GPa) = 26.70637 27.99965 27.35301
#
# Velocity S-wave (km/s) = 3.56579 3.65111 3.60870
# Velocity P-wave (km/s) = 5.51320 5.67677 5.59558
#
# Compressibility (1/GPa) = 0.03541800
#
# Stress axis : x y z
#
# Youngs Moduli (GPa) = 50.75179 67.36347 90.78116
#
# Poissons Ratio (x) = 0.12947 0.08644
# Poissons Ratio (y) = 0.09755 0.19962
# Poissons Ratio (z) = 0.04832 0.14812
#
# Static dielectric constant tensor:
#      x y z
#    x 1.819210 0.000000 0.000000 
#    y 0.000000 1.792620 0.000000 
#    z 0.000000 0.000000 1.771970 
# 
# From -- ./inp_files/33209.got.cif
#   From: 2010.05.17/outbox.cif.g08.bks.cpg/sg22_17_cif.got.tgz:33209.got - 2010.06.03 23:40:54.
