data_PCOD9327330
_publ_section_title
;
Structure prediction by ZEFSAII (Michael W. Deem and Ramdas Pophale) SiO2 
 PCOD9327330
Probable space group: F 2 2 2
;
_chemical_formula_sum "Si O2"
_cell_formula_units_Z 68
_cell_length_a 18.203578
_cell_length_b 25.403305
_cell_length_c 6.989010
_cell_angle_alpha 90.000000
_cell_angle_beta 90.000000
_cell_angle_gamma 90.000000
_cell_volume 3231.935191
_symmetry_space_group_name_H-M "F 2 2 2"
_symmetry_group_IT_number 22
_symmetry_cell_setting 'orthorhombic'
loop_
_space_group_symop_operation_xyz
x,y,z
-x,-y,z
x,-y,-z
-x,y,-z
x,1/2+y,1/2+z
-x,1/2-y,1/2+z
x,1/2-y,1/2-z
-x,1/2+y,1/2-z
1/2+x,y,1/2+z
1/2-x,-y,1/2+z
1/2+x,-y,1/2-z
1/2-x,y,1/2-z
1/2+x,1/2+y,z
1/2-x,1/2-y,z
1/2+x,1/2-y,-z
1/2-x,1/2+y,-z
loop_
_atom_site_type_symbol
_atom_site_label
_atom_site_fract_x
_atom_site_fract_y
_atom_site_fract_z
Si Si1 0.714441 0.835979 0.544510
Si Si2 0.750000 0.750000 0.250000
Si Si3 0.750000 0.584625 0.250000
Si Si4 0.500000 0.413864 0.500000
Si Si5 0.570666 0.901344 0.638713
Si Si6 0.379176 0.486251 0.296247
O O1 0.750000 0.823052 0.750000
O O2 0.706585 0.787596 0.397502
O O3 0.766166 0.877796 0.430651
O O4 0.636930 0.865211 0.570048
O O5 0.680743 0.549228 0.195338
O O6 0.546134 0.381598 0.348564
O O7 0.447552 0.451007 0.369659
O O8 0.500000 0.901259 0.500000
O O9 0.596328 0.961666 0.684709
O O10 0.341827 0.500000 0.500000
#
# Coordination Sequence:
#
# PCOD9327330 Si02
#       6
#    16   4   8   8  16  16
#     4  11  24  44  71  98 125 170 220 286 349 400
#     4  10  26  52  76  94 124 152 224 290 360 408
#     4  11  24  35  58 102 138 177 228 271 302 392
#     4  10  21  38  52  88 144 192 216 254 298 386
#     4  11  23  38  64  97 136 184 221 260 325 394
#     4  10  21  35  56  88 148 188 220 253 301 373
#
# _framework density 21.040026999999998
#
# number of rings (size 3 to 8) (size 9 to 14) (size 15 to 20)
#    0.000    1.412    0.000    7.765    4.941    7.529 
#    0.000    0.000    5.176    0.000    0.000    0.000 
#    0.000    0.000    0.000    0.000    0.000    0.000 
#
# Total GULP energy -94902.525240 kJ/mol
# GULP energy per Si atom -5582.501485 kJ/mol
# Density = 2.099214 g / cm^3
# Si number density = 21.040027 Si / 1000 Ang^3
#
#
#
# Elastic Constant Matrix: (Units=GPa)
#
#
# Indices 1 2 3 4 5 6 
#
# 1 109.7833 61.6402 60.8494 -0.0002 0.0002 0.0001
# 2 61.6402 91.0826 64.9561 -0.0001 0.0001 0.0000
# 3 60.8494 64.9561 151.1571 -0.0003 0.0003 -0.0001
# 4 -0.0002 -0.0001 -0.0003 29.6898 0.0002 0.0000
# 5 0.0002 0.0001 0.0003 0.0002 35.6593 0.0000
# 6 0.0001 0.0000 -0.0001 0.0000 0.0000 33.0630
#
#
#
# Elastic Compliance Matrix: (Units=1/GPa)
#
#
# Indices 1 2 3 4 5 6 
#
# 1 0.015303 -0.008598 -0.002466 0.000000 0.000000 0.000000
# 2 -0.008598 0.020661 -0.005417 0.000000 0.000000 0.000000
# 3 -0.002466 -0.005417 0.009936 0.000000 0.000000 0.000000
# 4 0.000000 0.000000 0.000000 0.033682 0.000000 0.000000
# 5 0.000000 0.000000 0.000000 0.000000 0.028043 0.000000
# 6 0.000000 0.000000 0.000000 0.000000 0.000000 0.030245
#
#
# Mechanical properties :
#
#
# Convention : Reuss Voigt Hill
#
# Bulk Modulus (GPa) = 77.28946 80.76827 79.02887
# Shear Modulus (GPa) = 28.54775 30.65424 29.60099
#
# Velocity S-wave (km/s) = 3.68751 3.82114 3.75492
# Velocity P-wave (km/s) = 7.41246 7.61179 7.51279
#
# Compressibility (1/GPa) = 0.01293837
#
# Stress axis : x y z
#
# Youngs Moduli (GPa) = 65.34697 48.39990 100.64210
#
# Poissons Ratio (x) = 0.41614 0.24814
# Poissons Ratio (y) = 0.56185 0.54523
# Poissons Ratio (z) = 0.16112 0.26221
#
# Static dielectric constant tensor:
#      x y z
#    x 1.766870 0.000000 0.000000 
#    y 0.000000 1.770920 0.000000 
#    z 0.000000 0.000000 1.870590 
# 
# From -- ./inp_files/4016.got.cif
#   From: 2010.05.17/outbox.cif.g08.bks.cpg/sg22_3_cif.got.tgz:4016.got - 2010.06.03 23:40:54.
