data_PCOD9327306
_publ_section_title
;
Structure prediction by ZEFSAII (Michael W. Deem and Ramdas Pophale) SiO2 
 PCOD9327306
Probable space group: F 2 2 2
;
_chemical_formula_sum "Si O2"
_cell_formula_units_Z 96
_cell_length_a 19.508645
_cell_length_b 11.106994
_cell_length_c 21.596650
_cell_angle_alpha 90.000000
_cell_angle_beta 90.000000
_cell_angle_gamma 90.000000
_cell_volume 4679.614018
_symmetry_space_group_name_H-M "F 2 2 2"
_symmetry_group_IT_number 22
_symmetry_cell_setting 'orthorhombic'
loop_
_space_group_symop_operation_xyz
x,y,z
-x,-y,z
x,-y,-z
-x,y,-z
x,1/2+y,1/2+z
-x,1/2-y,1/2+z
x,1/2-y,1/2-z
-x,1/2+y,1/2-z
1/2+x,y,1/2+z
1/2-x,-y,1/2+z
1/2+x,-y,1/2-z
1/2-x,y,1/2-z
1/2+x,1/2+y,z
1/2-x,1/2-y,z
1/2+x,1/2-y,-z
1/2-x,1/2+y,-z
loop_
_atom_site_type_symbol
_atom_site_label
_atom_site_fract_x
_atom_site_fract_y
_atom_site_fract_z
Si Si1 0.112230 0.620586 0.251750
Si Si2 0.322839 0.133879 0.216372
Si Si3 0.577956 0.730883 0.973278
Si Si4 0.581937 0.520563 0.886549
Si Si5 0.624750 0.252836 0.895534
Si Si6 0.981381 0.363653 0.137459
O O1 0.150998 0.750000 0.250000
O O2 0.144505 0.497328 0.224719
O O3 0.094090 0.589094 0.322110
O O4 0.048220 0.643004 0.206187
O O5 0.358516 0.250000 0.250000
O O6 0.250000 0.125239 0.250000
O O7 0.322387 0.176545 0.145209
O O8 0.600690 0.604684 0.944240
O O9 0.571612 0.818767 0.914626
O O10 0.500000 0.718527 0.000000
O O11 0.623302 0.771344 0.031126
O O12 0.500000 0.500000 0.891512
O O13 0.623994 0.396563 0.886461
O O14 0.550297 0.212228 0.869874
O O15 0.000000 0.500000 0.123183
#
# Coordination Sequence:
#
# PCOD9327306 Si02
#       6
#    16  16  16  16  16  16
#     4  12  23  38  61  95 127 165 209 273 328 383
#     4  11  25  45  65  89 112 161 228 277 325 367
#     4  10  21  34  53  91 138 179 204 239 310 407
#     4  12  20  33  57  92 137 173 207 244 313 399
#     4  11  22  37  60  90 127 176 209 260 310 393
#     4  11  21  34  55  94 136 168 207 245 328 396
#
# _framework density 20.514513000000001
#
# number of rings (size 3 to 8) (size 9 to 14) (size 15 to 20)
#    0.000    0.833    8.333    1.000    0.000    4.000 
#    0.000    0.000    0.000    0.000   17.333    0.000 
#    0.000    0.000    0.000    0.000    0.000    0.000 
#
# Total GULP energy -133962.714173 kJ/mol
# GULP energy per Si atom -5581.779757 kJ/mol
# Density = 2.046782 g / cm^3
# Si number density = 20.514513 Si / 1000 Ang^3
#
#
#
# Elastic Constant Matrix: (Units=GPa)
#
#
# Indices 1 2 3 4 5 6 
#
# 1 31.1492 13.5669 29.8309 0.0000 0.0000 0.0000
# 2 13.5669 140.7348 31.4216 0.0000 0.0000 0.0000
# 3 29.8309 31.4216 143.4033 0.0000 0.0000 0.0000
# 4 0.0000 0.0000 0.0000 34.6165 0.0000 0.0000
# 5 0.0000 0.0000 0.0000 0.0000 20.1991 0.0000
# 6 0.0000 0.0000 0.0000 0.0000 0.0000 11.7267
#
#
#
# Elastic Compliance Matrix: (Units=1/GPa)
#
#
# Indices 1 2 3 4 5 6 
#
# 1 0.040693 -0.002137 -0.007997 0.000000 0.000000 0.000000
# 2 -0.002137 0.007583 -0.001217 0.000000 0.000000 0.000000
# 3 -0.007997 -0.001217 0.008903 0.000000 0.000000 0.000000
# 4 0.000000 0.000000 0.000000 0.028888 0.000000 0.000000
# 5 0.000000 0.000000 0.000000 0.000000 0.049507 0.000000
# 6 0.000000 0.000000 0.000000 0.000000 0.000000 0.085276
#
#
# Mechanical properties :
#
#
# Convention : Reuss Voigt Hill
#
# Bulk Modulus (GPa) = 29.00443 51.65845 40.33144
# Shear Modulus (GPa) = 19.60440 29.33964 24.47202
#
# Velocity S-wave (km/s) = 3.09469 3.78589 3.45760
# Velocity P-wave (km/s) = 5.19025 6.65933 5.97015
#
# Compressibility (1/GPa) = 0.03447749
#
# Stress axis : x y z
#
# Youngs Moduli (GPa) = 24.57445 131.86828 112.31589
#
# Poissons Ratio (x) = 0.28185 0.89815
# Poissons Ratio (y) = 0.05253 0.13669
# Poissons Ratio (z) = 0.19651 0.16048
#
# Static dielectric constant tensor:
#      x y z
#    x 1.742830 0.000000 0.000000 
#    y 0.000000 1.804650 0.000000 
#    z 0.000000 0.000000 1.759590 
# 
# From -- ./inp_files/44769.got.cif
#   From: 2010.05.17/outbox.cif.g08.bks.cpg/sg22_23_cif.got.tgz:44769.got - 2010.06.03 23:40:54.
