data_PCOD9327175
_publ_section_title
;
Structure prediction by ZEFSAII (Michael W. Deem and Ramdas Pophale) SiO2 
 PCOD9327175
Probable space group: F 2 2 2
;
_chemical_formula_sum "Si O2"
_cell_formula_units_Z 104
_cell_length_a 16.519080
_cell_length_b 26.796177
_cell_length_c 11.663267
_cell_angle_alpha 90.000000
_cell_angle_beta 90.000000
_cell_angle_gamma 90.000000
_cell_volume 5162.724045
_symmetry_space_group_name_H-M "F 2 2 2"
_symmetry_group_IT_number 22
_symmetry_cell_setting 'orthorhombic'
loop_
_space_group_symop_operation_xyz
x,y,z
-x,-y,z
x,-y,-z
-x,y,-z
x,1/2+y,1/2+z
-x,1/2-y,1/2+z
x,1/2-y,1/2-z
-x,1/2+y,1/2-z
1/2+x,y,1/2+z
1/2-x,-y,1/2+z
1/2+x,-y,1/2-z
1/2-x,y,1/2-z
1/2+x,1/2+y,z
1/2-x,1/2-y,z
1/2+x,1/2-y,-z
1/2-x,1/2+y,-z
loop_
_atom_site_type_symbol
_atom_site_label
_atom_site_fract_x
_atom_site_fract_y
_atom_site_fract_z
Si Si1 0.852889 0.500000 0.000000
Si Si2 0.098419 0.202916 0.835083
Si Si3 0.096418 0.505693 0.369239
Si Si4 0.831515 0.423735 0.804158
Si Si5 0.250000 0.639180 0.250000
Si Si6 0.612876 0.579077 0.671578
Si Si7 0.024941 0.654851 0.821486
Si Si8 0.500000 0.259621 0.500000
O O1 0.813142 0.542274 0.082651
O O2 0.901589 0.467611 0.090660
O O3 0.107111 0.250000 0.750000
O O4 0.179745 0.171067 0.813513
O O5 0.017098 0.172927 0.797127
O O6 0.074785 0.226311 0.956271
O O7 0.126429 0.500000 0.500000
O O8 0.133204 0.462650 0.289404
O O9 0.110696 0.557773 0.301731
O O10 0.000000 0.500000 0.371850
O O11 0.750000 0.402822 0.750000
O O12 0.896401 0.379745 0.820906
O O13 0.299347 0.604226 0.337724
O O14 0.547356 0.619303 0.635690
O O15 0.030368 0.703600 0.899728
#
# Coordination Sequence:
#
# PCOD9327175 Si02
#       8
#     8  16  16  16   8  16  16   8
#     4  10  24  37  60  86 125 172 206 256 301 350
#     4   9  20  40  66  93 121 155 199 264 322 390
#     4  10  21  39  60  85 128 173 214 254 304 365
#     4  11  24  39  58  89 129 168 213 257 305 363
#     4  10  21  38  62  90 132 152 212 260 317 380
#     4  10  21  38  59  93 124 168 211 258 302 371
#     4  10  20  40  63  91 121 159 213 252 312 382
#     4  10  20  40  72  91 118 159 206 258 334 392
#
# _framework density 20.144404000000002
#
# number of rings (size 3 to 8) (size 9 to 14) (size 15 to 20)
#    0.000    2.000    1.538    1.154    5.385    0.615 
#    8.308    0.000    6.769    3.231    0.000    0.000 
#    0.000    0.000    0.000    0.000    0.000    0.000 
#
# Total GULP energy -144848.469054 kJ/mol
# GULP energy per Si atom -5571.094964 kJ/mol
# Density = 2.009855 g / cm^3
# Si number density = 20.144404 Si / 1000 Ang^3
#
#
#
# Elastic Constant Matrix: (Units=GPa)
#
#
# Indices 1 2 3 4 5 6 
#
# 1 115.4449 38.9221 35.1302 0.0000 0.0000 0.0000
# 2 38.9221 86.6096 35.2511 0.0000 0.0000 0.0000
# 3 35.1302 35.2511 104.2132 0.0000 0.0000 0.0000
# 4 0.0000 0.0000 0.0000 25.2855 0.0000 0.0000
# 5 0.0000 0.0000 0.0000 0.0000 13.1359 0.0000
# 6 0.0000 0.0000 0.0000 0.0000 0.0000 -36.7125
#
#
#
# Elastic Compliance Matrix: (Units=1/GPa)
#
#
# Indices 1 2 3 4 5 6 
#
# 1 0.010659 -0.003859 -0.002288 0.000000 0.000000 0.000000
# 2 -0.003859 0.014787 -0.003701 0.000000 0.000000 0.000000
# 3 -0.002288 -0.003701 0.011619 0.000000 0.000000 0.000000
# 4 0.000000 0.000000 0.000000 0.039548 0.000000 0.000000
# 5 0.000000 0.000000 0.000000 0.000000 0.076127 0.000000
# 6 0.000000 0.000000 0.000000 0.000000 0.000000 -0.027239
#
#
# Mechanical properties :
#
#
# Convention : Reuss Voigt Hill
#
# Bulk Modulus (GPa) = 57.57318 58.31938 57.94628
# Shear Modulus (GPa) = 33.11545 13.47275 23.29410
#
# Velocity S-wave (km/s) = 4.05891 2.58894 3.40421
# Velocity P-wave (km/s) = 7.11397 6.16038 6.65428
#
# Compressibility (1/GPa) = 0.01736920
#
# Stress axis : x y z
#
# Youngs Moduli (GPa) = 93.81343 67.62874 86.06747
#
# Poissons Ratio (x) = 0.26099 0.19691
# Poissons Ratio (y) = 0.36204 0.31852
# Poissons Ratio (z) = 0.21464 0.25028
#
# Static dielectric constant tensor:
#      x y z
#    x 1.723550 0.000000 0.000000 
#    y 0.000000 1.751300 0.000000 
#    z 0.000000 0.000000 1.890550 
# 
# From -- ./inp_files/21806.got.cif
#   From: 2010.05.17/outbox.cif.g08.bks.cpg/sg22_11_cif.got.tgz:21806.got - 2010.06.03 23:40:54.
