data_PCOD9327928
_publ_section_title
;
Structure prediction by ZEFSAII (Michael W. Deem and Ramdas Pophale) SiO2 
 PCOD9327928
Probable space group: F 2 2 2
;
_chemical_formula_sum "Si O2"
_cell_formula_units_Z 56
_cell_length_a 33.055584
_cell_length_b 14.650850
_cell_length_c 4.964252
_cell_angle_alpha 90.000000
_cell_angle_beta 90.000000
_cell_angle_gamma 90.000000
_cell_volume 2404.149529
_symmetry_space_group_name_H-M "F 2 2 2"
_symmetry_group_IT_number 22
_symmetry_cell_setting 'orthorhombic'
loop_
_space_group_symop_operation_xyz
x,y,z
-x,-y,z
x,-y,-z
-x,y,-z
x,1/2+y,1/2+z
-x,1/2-y,1/2+z
x,1/2-y,1/2-z
-x,1/2+y,1/2-z
1/2+x,y,1/2+z
1/2-x,-y,1/2+z
1/2+x,-y,1/2-z
1/2-x,y,1/2-z
1/2+x,1/2+y,z
1/2-x,1/2-y,z
1/2+x,1/2-y,-z
1/2-x,1/2+y,-z
loop_
_atom_site_type_symbol
_atom_site_label
_atom_site_fract_x
_atom_site_fract_y
_atom_site_fract_z
Si Si1 0.750000 0.546858 0.750000
Si Si2 0.027285 0.639927 0.253499
Si Si3 0.811734 0.313771 0.020695
Si Si4 0.882586 0.934384 0.750870
O O1 0.774589 0.500000 0.500000
O O2 0.719117 0.601403 0.548387
O O3 0.030933 0.750000 0.250000
O O4 0.072132 0.602104 0.288250
O O5 0.000000 0.611658 0.500000
O O6 0.000000 0.612678 0.000000
O O7 0.814969 0.250000 0.750000
O O8 0.794271 0.250000 0.250000
O O9 0.853265 0.352952 0.149920
O O10 0.883473 0.000000 0.500000
O O11 0.870354 0.000000 0.000000
#
# Coordination Sequence:
#
# PCOD9327928 Si02
#       4
#     8  16  16  16
#     4  12  25  46  73 104 142 178 226 292 357 410
#     4  10  22  40  63  92 130 178 230 282 341 411
#     4  12  26  46  72 102 138 182 233 279 340 421
#     4  12  25  42  66  99 138 179 228 288 351 404
#
# _framework density 23.293060000000001
#
# number of rings (size 3 to 8) (size 9 to 14) (size 15 to 20)
#    0.000    0.571    0.000    8.143    0.000    8.000 
#    0.000    0.000    0.000    0.000    0.000    0.000 
#    0.000    0.000    0.000    0.000    0.000    0.000 
#
# Total GULP energy -78063.885194 kJ/mol
# GULP energy per Si atom -5575.991800 kJ/mol
# Density = 2.324004 g / cm^3
# Si number density = 23.293060 Si / 1000 Ang^3
#
#
#
# Elastic Constant Matrix: (Units=GPa)
#
#
# Indices 1 2 3 4 5 6 
#
# 1 179.7228 48.5476 70.3201 0.0002 -0.0002 0.0003
# 2 48.5476 94.7148 61.8637 0.0002 -0.0002 0.0005
# 3 70.3201 61.8637 234.6066 0.0000 -0.0002 0.0011
# 4 0.0002 0.0002 0.0000 46.9752 0.0002 0.0008
# 5 -0.0002 -0.0002 -0.0002 0.0002 54.8125 -0.0006
# 6 0.0003 0.0005 0.0011 0.0008 -0.0006 89.0993
#
#
#
# Elastic Compliance Matrix: (Units=1/GPa)
#
#
# Indices 1 2 3 4 5 6 
#
# 1 0.006795 -0.002601 -0.001351 0.000000 0.000000 0.000000
# 2 -0.002601 0.013750 -0.002846 0.000000 0.000000 0.000000
# 3 -0.001351 -0.002846 0.005418 0.000000 0.000000 0.000000
# 4 0.000000 0.000000 0.000000 0.021288 0.000000 0.000000
# 5 0.000000 0.000000 0.000000 0.000000 0.018244 0.000000
# 6 0.000000 0.000000 0.000000 0.000000 0.000000 0.011223
#
#
# Mechanical properties :
#
#
# Convention : Reuss Voigt Hill
#
# Bulk Modulus (GPa) = 80.85738 96.72303 88.79021
# Shear Modulus (GPa) = 52.94551 60.06492 56.50521
#
# Velocity S-wave (km/s) = 4.77279 5.08356 4.93062
# Velocity P-wave (km/s) = 8.07224 8.72189 8.40335
#
# Compressibility (1/GPa) = 0.01236745
#
# Stress axis : x y z
#
# Youngs Moduli (GPa) = 147.16232 72.72705 184.57173
#
# Poissons Ratio (x) = 0.18913 0.24936
# Poissons Ratio (y) = 0.38271 0.52534
# Poissons Ratio (z) = 0.19882 0.20700
#
# Static dielectric constant tensor:
#      x y z
#    x 1.961300 0.000010 0.000000 
#    y 0.000010 1.483510 0.000000 
#    z 0.000000 0.000000 1.799140 
# 
# From -- ./inp_files/5992.got.cif
#   From: 2010.05.17/outbox.cif.g08.bks.cpg/sg22_3_cif.got.tgz:5992.got - 2010.06.03 23:40:54.
