data_PCOD9327808
_publ_section_title
;
Structure prediction by ZEFSAII (Michael W. Deem and Ramdas Pophale) SiO2 
 PCOD9327808
Probable space group: F 2 2 2
;
_chemical_formula_sum "Si O2"
_cell_formula_units_Z 84
_cell_length_a 11.969628
_cell_length_b 20.655290
_cell_length_c 16.210618
_cell_angle_alpha 90.000000
_cell_angle_beta 90.000000
_cell_angle_gamma 90.000000
_cell_volume 4007.850581
_symmetry_space_group_name_H-M "F 2 2 2"
_symmetry_group_IT_number 22
_symmetry_cell_setting 'orthorhombic'
loop_
_space_group_symop_operation_xyz
x,y,z
-x,-y,z
x,-y,-z
-x,y,-z
x,1/2+y,1/2+z
-x,1/2-y,1/2+z
x,1/2-y,1/2-z
-x,1/2+y,1/2-z
1/2+x,y,1/2+z
1/2-x,-y,1/2+z
1/2+x,-y,1/2-z
1/2-x,y,1/2-z
1/2+x,1/2+y,z
1/2-x,1/2-y,z
1/2+x,1/2-y,-z
1/2-x,1/2+y,-z
loop_
_atom_site_type_symbol
_atom_site_label
_atom_site_fract_x
_atom_site_fract_y
_atom_site_fract_z
Si Si1 0.750000 0.468314 0.250000
Si Si2 0.991889 0.216405 0.339015
Si Si3 0.885762 0.315187 0.543378
Si Si4 0.646091 0.566019 0.138916
Si Si5 0.000000 0.000000 0.000000
Si Si6 0.014087 0.428304 0.797166
Si Si7 0.750000 0.250000 0.407220
O O1 0.737894 0.516192 0.171455
O O2 0.859344 0.426177 0.236619
O O3 0.015110 0.250000 0.250000
O O4 0.011398 0.139209 0.341189
O O5 0.859729 0.228115 0.357682
O O6 0.067519 0.252617 0.407432
O O7 0.828015 0.362012 0.609747
O O8 0.799358 0.303225 0.470048
O O9 0.000000 0.340926 0.500000
O O10 0.581713 0.537081 0.061609
O O11 0.563553 0.569713 0.216563
O O12 0.000000 0.500000 0.837607
#
# Coordination Sequence:
#
# PCOD9327808 Si02
#       7
#     8  16  16  16   4  16   8
#     4  10  22  36  59  95 128 160 206 268 302 366
#     4  11  22  39  68  92 120 167 214 255 308 371
#     4  10  22  41  62  90 130 163 201 262 318 370
#     4  11  21  38  61  91 125 163 205 254 314 373
#     4  12  20  36  64  88 122 158 198 244 316 372
#     4  10  22  39  59  92 128 161 208 260 306 364
#     4  10  25  38  59  98 126 154 206 262 313 366
#
# _framework density 20.958864999999999
#
# number of rings (size 3 to 8) (size 9 to 14) (size 15 to 20)
#    0.000    1.524    5.714    0.286    2.667    4.571 
#    0.000    0.000    0.000   12.000    0.000    1.333 
#    0.000    0.000    0.000    0.000    0.000    0.000 
#
# Total GULP energy -117081.747010 kJ/mol
# GULP energy per Si atom -5575.321286 kJ/mol
# Density = 2.091116 g / cm^3
# Si number density = 20.958865 Si / 1000 Ang^3
#
#
#
# Elastic Constant Matrix: (Units=GPa)
#
#
# Indices 1 2 3 4 5 6 
#
# 1 33.6486 -16.8525 -0.3743 0.0000 0.0000 0.0000
# 2 -16.8525 110.6604 32.1132 0.0000 0.0000 0.0000
# 3 -0.3743 32.1132 71.1229 0.0000 0.0000 0.0000
# 4 0.0000 0.0000 0.0000 52.1211 0.0000 0.0000
# 5 0.0000 0.0000 0.0000 0.0000 36.6520 0.0000
# 6 0.0000 0.0000 0.0000 0.0000 0.0000 -11.4097
#
#
#
# Elastic Compliance Matrix: (Units=1/GPa)
#
#
# Indices 1 2 3 4 5 6 
#
# 1 0.032518 0.005642 -0.002376 0.000000 0.000000 0.000000
# 2 0.005642 0.011378 -0.005108 0.000000 0.000000 0.000000
# 3 -0.002376 -0.005108 0.016354 0.000000 0.000000 0.000000
# 4 0.000000 0.000000 0.000000 0.019186 0.000000 0.000000
# 5 0.000000 0.000000 0.000000 0.000000 0.027284 0.000000
# 6 0.000000 0.000000 0.000000 0.000000 0.000000 -0.087645
#
#
# Mechanical properties :
#
#
# Convention : Reuss Voigt Hill
#
# Bulk Modulus (GPa) = 17.67853 27.24495 22.46174
# Shear Modulus (GPa) = 120.15088 28.84238 74.49663
#
# Velocity S-wave (km/s) = 7.57967 3.71366 5.96836
# Velocity P-wave (km/s) = 9.22253 5.60499 7.63122
#
# Compressibility (1/GPa) = 0.05656579
#
# Stress axis : x y z
#
# Youngs Moduli (GPa) = 30.75209 87.88836 61.14760
#
# Poissons Ratio (x) = -0.49584 0.14530
# Poissons Ratio (y) = -0.17350 0.31232
# Poissons Ratio (z) = 0.07307 0.44891
#
# Static dielectric constant tensor:
#      x y z
#    x 1.764640 0.000000 0.000000 
#    y 0.000000 1.854060 0.000000 
#    z 0.000000 0.000000 1.710100 
# 
# From -- ./inp_files/21345.got.cif
#   From: 2010.05.17/outbox.cif.g08.bks.cpg/sg22_11_cif.got.tgz:21345.got - 2010.06.03 23:40:54.
