data_PCOD9327742
_publ_section_title
;
Structure prediction by ZEFSAII (Michael W. Deem and Ramdas Pophale) SiO2 
 PCOD9327742
Probable space group: F 2 2 2
;
_chemical_formula_sum "Si O2"
_cell_formula_units_Z 48
_cell_length_a 8.807551
_cell_length_b 7.120603
_cell_length_c 31.713577
_cell_angle_alpha 90.000000
_cell_angle_beta 90.000000
_cell_angle_gamma 90.000000
_cell_volume 1988.919331
_symmetry_space_group_name_H-M "F 2 2 2"
_symmetry_group_IT_number 22
_symmetry_cell_setting 'orthorhombic'
loop_
_space_group_symop_operation_xyz
x,y,z
-x,-y,z
x,-y,-z
-x,y,-z
x,1/2+y,1/2+z
-x,1/2-y,1/2+z
x,1/2-y,1/2-z
-x,1/2+y,1/2-z
1/2+x,y,1/2+z
1/2-x,-y,1/2+z
1/2+x,-y,1/2-z
1/2-x,y,1/2-z
1/2+x,1/2+y,z
1/2-x,1/2-y,z
1/2+x,1/2-y,-z
1/2-x,1/2+y,-z
loop_
_atom_site_type_symbol
_atom_site_label
_atom_site_fract_x
_atom_site_fract_y
_atom_site_fract_z
Si Si1 0.250000 0.750000 0.511376
Si Si2 0.680181 0.461110 0.794175
Si Si3 0.530120 0.292655 0.063509
Si Si4 0.750000 0.750000 0.866246
O O1 0.384329 0.687859 0.543350
O O2 0.356731 0.843098 0.475417
O O3 0.500000 0.500000 0.790399
O O4 0.750000 0.530631 0.750000
O O5 0.750000 0.250000 0.798632
O O6 0.725807 0.576825 0.835243
O O7 0.500000 0.500000 0.081117
O O8 0.615004 0.195699 0.101671
#
# Coordination Sequence:
#
# PCOD9327742 Si02
#       4
#     8  16  16   8
#     4   9  18  38  71  90 146 200 259 306 398 471
#     4  11  28  53  85 118 163 215 272 338 411 512
#     4  10  21  43  66 104 147 200 260 331 389 488
#     4  11  25  48  77 114 162 202 261 338 421 473
#
# _framework density 24.133709
#
# number of rings (size 3 to 8) (size 9 to 14) (size 15 to 20)
#    0.000    1.667    0.000    3.500    9.333    0.000 
#   18.000   26.667    0.000    0.000    0.000    0.000 
#    0.000    0.000    0.000    0.000    0.000    0.000 
#
# Total GULP energy -66816.156405 kJ/mol
# GULP energy per Si atom -5568.013034 kJ/mol
# Density = 2.407878 g / cm^3
# Si number density = 24.133709 Si / 1000 Ang^3
#
#
#
# Elastic Constant Matrix: (Units=GPa)
#
#
# Indices 1 2 3 4 5 6 
#
# 1 189.3210 70.0949 123.0618 0.0000 0.0000 0.0000
# 2 70.0949 87.9923 62.8820 0.0000 0.0000 0.0000
# 3 123.0618 62.8820 248.8496 0.0000 0.0000 0.0000
# 4 0.0000 0.0000 0.0000 3.5908 0.0000 0.0000
# 5 0.0000 0.0000 0.0000 0.0000 35.9713 0.0000
# 6 0.0000 0.0000 0.0000 0.0000 0.0000 24.3489
#
#
#
# Elastic Compliance Matrix: (Units=1/GPa)
#
#
# Indices 1 2 3 4 5 6 
#
# 1 0.009314 -0.005037 -0.003333 0.000000 0.000000 0.000000
# 2 -0.005037 0.016594 -0.001702 0.000000 0.000000 0.000000
# 3 -0.003333 -0.001702 0.006097 0.000000 0.000000 0.000000
# 4 0.000000 0.000000 0.000000 0.278487 0.000000 0.000000
# 5 0.000000 0.000000 0.000000 0.000000 0.027800 0.000000
# 6 0.000000 0.000000 0.000000 0.000000 0.000000 0.041070
#
#
# Mechanical properties :
#
#
# Convention : Reuss Voigt Hill
#
# Bulk Modulus (GPa) = 84.32040 115.36004 99.84022
# Shear Modulus (GPa) = 12.39286 30.79048 21.59167
#
# Velocity S-wave (km/s) = 2.26853 3.57575 2.99435
# Velocity P-wave (km/s) = 6.47119 8.05929 7.30850
#
# Compressibility (1/GPa) = 0.01185953
#
# Stress axis : x y z
#
# Youngs Moduli (GPa) = 107.37100 60.26371 164.02257
#
# Poissons Ratio (x) = 0.30357 0.54666
# Poissons Ratio (y) = 0.54087 0.27916
# Poissons Ratio (z) = 0.35785 0.10257
#
# Static dielectric constant tensor:
#      x y z
#    x 2.043920 0.000000 0.000000 
#    y 0.000000 2.302020 0.000000 
#    z 0.000000 0.000000 1.832440 
# 
# From -- ./inp_files/7446.got.cif
#   From: 2010.05.17/outbox.cif.g08.bks.cpg/sg22_4_cif.got.tgz:7446.got - 2010.06.03 23:40:54.
