data_PCOD9327746
_publ_section_title
;
Structure prediction by ZEFSAII (Michael W. Deem and Ramdas Pophale) SiO2 
 PCOD9327746
Probable space group: F 2 2 2
;
_chemical_formula_sum "Si O2"
_cell_formula_units_Z 104
_cell_length_a 26.912535
_cell_length_b 8.976357
_cell_length_c 21.573740
_cell_angle_alpha 90.000000
_cell_angle_beta 90.000000
_cell_angle_gamma 90.000000
_cell_volume 5211.709074
_symmetry_space_group_name_H-M "F 2 2 2"
_symmetry_group_IT_number 22
_symmetry_cell_setting 'orthorhombic'
loop_
_space_group_symop_operation_xyz
x,y,z
-x,-y,z
x,-y,-z
-x,y,-z
x,1/2+y,1/2+z
-x,1/2-y,1/2+z
x,1/2-y,1/2-z
-x,1/2+y,1/2-z
1/2+x,y,1/2+z
1/2-x,-y,1/2+z
1/2+x,-y,1/2-z
1/2-x,y,1/2-z
1/2+x,1/2+y,z
1/2-x,1/2-y,z
1/2+x,1/2-y,-z
1/2-x,1/2+y,-z
loop_
_atom_site_type_symbol
_atom_site_label
_atom_site_fract_x
_atom_site_fract_y
_atom_site_fract_z
Si Si1 0.564155 0.659301 0.882685
Si Si2 0.171744 0.753292 0.346983
Si Si3 0.047850 0.307545 0.366729
Si Si4 0.800888 0.825212 0.511500
Si Si5 0.885850 0.750000 0.250000
Si Si6 0.911113 0.821698 0.489525
Si Si7 0.195431 0.496403 0.742842
O O1 0.612443 0.725296 0.848765
O O2 0.563949 0.479135 0.880722
O O3 0.510931 0.700173 0.854069
O O4 0.568361 0.728398 0.951932
O O5 0.190233 0.790242 0.415784
O O6 0.195028 0.603006 0.319292
O O7 0.185837 0.883356 0.299672
O O8 0.079596 0.244495 0.310241
O O9 0.058778 0.216725 0.428662
O O10 0.750000 0.750000 0.490081
O O11 0.852994 0.777445 0.480344
O O12 0.795852 0.000000 0.500000
O O13 0.849370 0.610584 0.257025
O O14 0.912464 0.000000 0.500000
O O15 0.250000 0.564839 0.750000
#
# Coordination Sequence:
#
# PCOD9327746 Si02
#       7
#    16  16  16  16   8  16  16
#     4  10  22  43  68  93 129 171 211 265 328 379
#     4  10  21  43  67  93 127 167 219 264 318 395
#     4  11  24  44  62  97 132 174 214 262 323 386
#     4  10  22  39  60  96 129 167 212 270 330 378
#     4  12  27  42  62  98 136 162 215 272 322 378
#     4  10  23  42  66  97 129 168 219 265 314 384
#     4  11  23  43  67  92 124 176 216 263 317 386
#
# _framework density 19.955065999999999
#
# number of rings (size 3 to 8) (size 9 to 14) (size 15 to 20)
#    0.000    1.538    1.538    3.000    6.462    6.154 
#    2.769    0.000    0.000    0.000    0.000    0.000 
#    0.000    0.000    0.000    0.000    0.000    0.000 
#
# Total GULP energy -145268.819303 kJ/mol
# GULP energy per Si atom -5587.262281 kJ/mol
# Density = 1.990965 g / cm^3
# Si number density = 19.955066 Si / 1000 Ang^3
#
#
#
# Elastic Constant Matrix: (Units=GPa)
#
#
# Indices 1 2 3 4 5 6 
#
# 1 141.0722 27.3890 15.3295 0.0000 0.0000 0.0000
# 2 27.3890 50.1892 7.4692 0.0000 0.0000 0.0000
# 3 15.3295 7.4692 46.8662 0.0000 0.0000 0.0000
# 4 0.0000 0.0000 0.0000 17.4536 0.0000 0.0000
# 5 0.0000 0.0000 0.0000 0.0000 20.4497 0.0000
# 6 0.0000 0.0000 0.0000 0.0000 0.0000 36.5575
#
#
#
# Elastic Compliance Matrix: (Units=1/GPa)
#
#
# Indices 1 2 3 4 5 6 
#
# 1 0.008107 -0.004127 -0.001994 0.000000 0.000000 0.000000
# 2 -0.004127 0.022510 -0.002238 0.000000 0.000000 0.000000
# 3 -0.001994 -0.002238 0.022346 0.000000 0.000000 0.000000
# 4 0.000000 0.000000 0.000000 0.057295 0.000000 0.000000
# 5 0.000000 0.000000 0.000000 0.000000 0.048900 0.000000
# 6 0.000000 0.000000 0.000000 0.000000 0.000000 0.027354
#
#
# Mechanical properties :
#
#
# Convention : Reuss Voigt Hill
#
# Bulk Modulus (GPa) = 27.58961 37.61145 32.60053
# Shear Modulus (GPa) = 23.22227 27.42148 25.32188
#
# Velocity S-wave (km/s) = 3.41505 3.71099 3.56609
# Velocity P-wave (km/s) = 5.42272 6.10335 5.77308
#
# Compressibility (1/GPa) = 0.03624553
#
# Stress axis : x y z
#
# Youngs Moduli (GPa) = 123.35774 44.42504 44.75058
#
# Poissons Ratio (x) = 0.18335 0.08922
# Poissons Ratio (y) = 0.50911 0.10013
# Poissons Ratio (z) = 0.24595 0.09940
#
# Static dielectric constant tensor:
#      x y z
#    x 1.710800 0.000000 0.000000 
#    y 0.000000 1.662310 0.000000 
#    z 0.000000 0.000000 1.667790 
# 
# From -- ./inp_files/45768.got.cif
#   From: 2010.05.17/outbox.cif.g08.bks.cpg/sg22_23_cif.got.tgz:45768.got - 2010.06.03 23:40:54.
