data_PCOD9327021
_publ_section_title
;
Structure prediction by ZEFSAII (Michael W. Deem and Ramdas Pophale) SiO2 
 PCOD9327021
Probable space group: F 2 2 2
;
_chemical_formula_sum "Si O2"
_cell_formula_units_Z 56
_cell_length_a 27.708886
_cell_length_b 5.059446
_cell_length_c 21.580224
_cell_angle_alpha 90.000000
_cell_angle_beta 90.000000
_cell_angle_gamma 90.000000
_cell_volume 3025.366399
_symmetry_space_group_name_H-M "F 2 2 2"
_symmetry_group_IT_number 22
_symmetry_cell_setting 'orthorhombic'
loop_
_space_group_symop_operation_xyz
x,y,z
-x,-y,z
x,-y,-z
-x,y,-z
x,1/2+y,1/2+z
-x,1/2-y,1/2+z
x,1/2-y,1/2-z
-x,1/2+y,1/2-z
1/2+x,y,1/2+z
1/2-x,-y,1/2+z
1/2+x,-y,1/2-z
1/2-x,y,1/2-z
1/2+x,1/2+y,z
1/2-x,1/2-y,z
1/2+x,1/2-y,-z
1/2-x,1/2+y,-z
loop_
_atom_site_type_symbol
_atom_site_label
_atom_site_fract_x
_atom_site_fract_y
_atom_site_fract_z
Si Si1 0.530740 0.250217 0.674604
Si Si2 0.857855 0.718280 0.324029
Si Si3 0.693077 0.773919 0.876070
Si Si4 0.718109 0.500000 0.000000
O O1 0.500000 0.500000 0.654090
O O2 0.531621 0.250000 0.750000
O O3 0.586466 0.248248 0.655796
O O4 0.500000 0.000000 0.654185
O O5 0.854674 0.750000 0.250000
O O6 0.838535 0.426517 0.336480
O O7 0.826112 0.934241 0.361049
O O8 0.750000 0.750000 0.860984
O O9 0.689935 0.652809 0.945755
O O10 0.750000 0.750000 0.026120
#
# Coordination Sequence:
#
# PCOD9327021 Si02
#       4
#    16  16  16   8
#     4   9  17  31  50  72 102 139 178 220 260 309
#     4  11  22  34  52  82 114 144 178 215 274 344
#     4  11  22  36  54  77 109 146 182 224 268 319
#     4  10  20  38  58  76 101 142 199 244 266 298
#
# _framework density 18.510155000000001
#
# number of rings (size 3 to 8) (size 9 to 14) (size 15 to 20)
#    0.000    1.714    0.000    6.857    0.000    8.000 
#    0.000    0.000    0.000    0.000    0.000   15.000 
#    0.000    0.000    0.000    0.000    0.000    0.000 
#
# Total GULP energy -78054.739008 kJ/mol
# GULP energy per Si atom -5575.338501 kJ/mol
# Density = 1.846803 g / cm^3
# Si number density = 18.510155 Si / 1000 Ang^3
#
#
#
# Elastic Constant Matrix: (Units=GPa)
#
#
# Indices 1 2 3 4 5 6 
#
# 1 117.3369 16.5094 2.7895 -0.0078 -0.0241 -0.0050
# 2 16.5094 92.5218 -10.0659 -0.0173 -0.1170 -0.0241
# 3 2.7895 -10.0659 46.2899 -0.0066 -0.0264 -0.0041
# 4 -0.0078 -0.0173 -0.0066 63.1242 0.0181 0.0017
# 5 -0.0241 -0.1170 -0.0264 0.0181 152.0207 0.0023
# 6 -0.0050 -0.0241 -0.0041 0.0017 0.0023 22.5775
#
#
#
# Elastic Compliance Matrix: (Units=1/GPa)
#
#
# Indices 1 2 3 4 5 6 
#
# 1 0.008778 -0.001663 -0.000891 0.000001 0.000000 0.000000
# 2 -0.001663 0.011385 0.002576 0.000003 0.000009 0.000012
# 3 -0.000891 0.002576 0.022217 0.000003 0.000006 0.000007
# 4 0.000001 0.000003 0.000003 0.015842 -0.000002 -0.000001
# 5 0.000000 0.000009 0.000006 -0.000002 0.006578 -0.000001
# 6 0.000000 0.000012 0.000007 -0.000001 -0.000001 0.044292
#
#
# Mechanical properties :
#
#
# Convention : Reuss Voigt Hill
#
# Bulk Modulus (GPa) = 23.57145 30.51275 27.04210
# Shear Modulus (GPa) = 40.58824 64.00552 52.29688
#
# Velocity S-wave (km/s) = 4.68777 5.88674 5.32113
# Velocity P-wave (km/s) = 6.48554 7.91991 7.23834
#
# Compressibility (1/GPa) = 0.04242420
#
# Stress axis : x y z
#
# Youngs Moduli (GPa) = 113.92567 87.83249 45.01096
#
# Poissons Ratio (x) = 0.14608 0.04009
# Poissons Ratio (y) = 0.18948 -0.11595
# Poissons Ratio (z) = 0.10146 -0.22626
#
# Static dielectric constant tensor:
#      x y z
#    x 1.627860 0.000000 0.000000 
#    y 0.000000 1.567290 -0.000010 
#    z 0.000000 -0.000010 1.663010 
# 
# From -- ./inp_files/3447.got.cif
#   From: 2010.05.17/outbox.cif.g08.bks.cpg/sg22_2_cif.got.tgz:3447.got - 2010.06.03 23:40:54.
