data_PCOD9327804
_publ_section_title
;
Structure prediction by ZEFSAII (Michael W. Deem and Ramdas Pophale) SiO2 
 PCOD9327804
Probable space group: F 2 2 2
;
_chemical_formula_sum "Si O2"
_cell_formula_units_Z 88
_cell_length_a 37.366397
_cell_length_b 5.617791
_cell_length_c 21.404718
_cell_angle_alpha 90.000000
_cell_angle_beta 90.000000
_cell_angle_gamma 90.000000
_cell_volume 4493.205814
_symmetry_space_group_name_H-M "F 2 2 2"
_symmetry_group_IT_number 22
_symmetry_cell_setting 'orthorhombic'
loop_
_space_group_symop_operation_xyz
x,y,z
-x,-y,z
x,-y,-z
-x,y,-z
x,1/2+y,1/2+z
-x,1/2-y,1/2+z
x,1/2-y,1/2-z
-x,1/2+y,1/2-z
1/2+x,y,1/2+z
1/2-x,-y,1/2+z
1/2+x,-y,1/2-z
1/2-x,y,1/2-z
1/2+x,1/2+y,z
1/2-x,1/2-y,z
1/2+x,1/2-y,-z
1/2-x,1/2+y,-z
loop_
_atom_site_type_symbol
_atom_site_label
_atom_site_fract_x
_atom_site_fract_y
_atom_site_fract_z
Si Si1 0.078871 0.995312 0.075586
Si Si2 0.822146 0.750000 0.250000
Si Si3 0.658928 0.991035 0.374954
Si Si4 0.713083 0.117311 0.170271
Si Si5 0.541576 0.997464 0.075919
Si Si6 0.788905 0.813938 0.452486
O O1 0.059268 0.749373 0.095614
O O2 0.119283 0.979088 0.099943
O O3 0.060665 0.248224 0.095370
O O4 0.078808 0.000000 0.000000
O O5 0.842265 0.817820 0.186056
O O6 0.797554 0.529323 0.231062
O O7 0.684236 0.890521 0.430499
O O8 0.679450 0.223468 0.350639
O O9 0.750000 0.250000 0.177523
O O10 0.719699 0.940733 0.112670
O O11 0.500000 0.000000 0.094824
O O12 0.542656 0.000000 0.000000
O O13 0.750000 0.750000 0.480548
O O14 0.806593 0.000000 0.500000
#
# Coordination Sequence:
#
# PCOD9327804 Si02
#       6
#    16   8  16  16  16  16
#     4  10  22  35  61  95 131 165 199 246 308 376
#     4  10  26  43  60  84 114 154 218 270 322 366
#     4  11  25  40  59  86 120 161 207 261 319 368
#     4  11  23  43  61  84 113 159 218 272 321 366
#     4   9  18  36  60  92 131 167 198 237 295 373
#     4  11  24  38  58  84 120 162 209 252 314 383
#
# _framework density 19.585125999999999
#
# number of rings (size 3 to 8) (size 9 to 14) (size 15 to 20)
#    0.000    1.636    1.818    1.636    7.636    5.091 
#    0.000    0.000    0.000    0.000    0.000    2.545 
#    0.000    0.000    0.000    0.000    0.000    0.000 
#
# Total GULP energy -122830.806030 kJ/mol
# GULP energy per Si atom -5583.218456 kJ/mol
# Density = 1.954055 g / cm^3
# Si number density = 19.585126 Si / 1000 Ang^3
#
#
#
# Elastic Constant Matrix: (Units=GPa)
#
#
# Indices 1 2 3 4 5 6 
#
# 1 167.3964 96.5372 14.7886 0.0021 -0.0012 -0.0019
# 2 96.5372 154.6136 23.6196 0.0061 -0.0061 -0.0016
# 3 14.7886 23.6196 49.1862 0.0026 -0.0019 -0.0012
# 4 0.0021 0.0061 0.0026 39.7567 -0.0023 -0.0009
# 5 -0.0012 -0.0061 -0.0019 -0.0023 15.1536 0.0022
# 6 -0.0019 -0.0016 -0.0012 -0.0009 0.0022 32.9593
#
#
#
# Elastic Compliance Matrix: (Units=1/GPa)
#
#
# Indices 1 2 3 4 5 6 
#
# 1 0.009335 -0.005827 -0.000008 0.000000 -0.000002 0.000000
# 2 -0.005827 0.010617 -0.003346 -0.000001 0.000003 0.000000
# 3 -0.000008 -0.003346 0.021940 -0.000001 0.000001 0.000001
# 4 0.000000 -0.000001 -0.000001 0.025153 0.000004 0.000001
# 5 -0.000002 0.000003 0.000001 0.000004 0.065991 -0.000004
# 6 0.000000 0.000000 0.000001 0.000001 -0.000004 0.030340
#
#
# Mechanical properties :
#
#
# Convention : Reuss Voigt Hill
#
# Bulk Modulus (GPa) = 42.50165 71.23190 56.86677
# Shear Modulus (GPa) = 26.37341 33.32398 29.84870
#
# Velocity S-wave (km/s) = 3.67359 4.12939 3.90814
# Velocity P-wave (km/s) = 6.30411 7.69319 7.03303
#
# Compressibility (1/GPa) = 0.02352850
#
# Stress axis : x y z
#
# Youngs Moduli (GPa) = 107.12070 94.18425 45.57796
#
# Poissons Ratio (x) = 0.54885 0.00038
# Poissons Ratio (y) = 0.62424 0.15253
# Poissons Ratio (z) = 0.00090 0.31519
#
# Static dielectric constant tensor:
#      x y z
#    x 1.644260 0.000000 0.000000 
#    y 0.000000 1.802370 0.000000 
#    z 0.000000 0.000000 1.700230 
# 
# From -- ./inp_files/46699.got.cif
#   From: 2010.05.17/outbox.cif.g08.bks.cpg/sg22_24_cif.got.tgz:46699.got - 2010.06.03 23:40:54.
