data_PCOD9327068
_publ_section_title
;
Structure prediction by ZEFSAII (Michael W. Deem and Ramdas Pophale) SiO2 
 PCOD9327068
Probable space group: F 2 2 2
;
_chemical_formula_sum "Si O2"
_cell_formula_units_Z 120
_cell_length_a 19.028044
_cell_length_b 14.370747
_cell_length_c 23.097209
_cell_angle_alpha 90.000000
_cell_angle_beta 90.000000
_cell_angle_gamma 90.000000
_cell_volume 6315.867273
_symmetry_space_group_name_H-M "F 2 2 2"
_symmetry_group_IT_number 22
_symmetry_cell_setting 'orthorhombic'
loop_
_space_group_symop_operation_xyz
x,y,z
-x,-y,z
x,-y,-z
-x,y,-z
x,1/2+y,1/2+z
-x,1/2-y,1/2+z
x,1/2-y,1/2-z
-x,1/2+y,1/2-z
1/2+x,y,1/2+z
1/2-x,-y,1/2+z
1/2+x,-y,1/2-z
1/2-x,y,1/2-z
1/2+x,1/2+y,z
1/2-x,1/2-y,z
1/2+x,1/2-y,-z
1/2-x,1/2+y,-z
loop_
_atom_site_type_symbol
_atom_site_label
_atom_site_fract_x
_atom_site_fract_y
_atom_site_fract_z
Si Si1 0.131615 0.500000 0.500000
Si Si2 0.168614 0.483340 0.759740
Si Si3 0.821123 0.805650 0.820879
Si Si4 0.537758 0.407223 0.897147
Si Si5 0.070210 0.857918 0.321936
Si Si6 0.939382 0.145346 0.766345
Si Si7 0.462376 0.778622 0.056760
Si Si8 0.814779 0.810319 0.955844
O O1 0.086152 0.456273 0.446743
O O2 0.176706 0.588709 0.482334
O O3 0.250000 0.510977 0.750000
O O4 0.163980 0.398736 0.713899
O O5 0.133363 0.433601 0.816248
O O6 0.118717 0.570062 0.749948
O O7 0.750000 0.750000 0.805252
O O8 0.888163 0.739216 0.813927
O O9 0.809642 0.828339 0.887503
O O10 0.500000 0.500000 0.874563
O O11 0.558569 0.360614 0.836181
O O12 0.495553 0.323318 0.927910
O O13 0.037521 0.843888 0.386125
O O14 0.010949 0.873472 0.272100
O O15 0.919679 0.250000 0.750000
O O16 0.383597 0.752976 0.038214
O O17 0.500000 0.817839 0.000000
O O18 0.750000 0.750000 0.977220
#
# Coordination Sequence:
#
# PCOD9327068 Si02
#       8
#     8  16  16  16  16  16  16  16
#     4  12  21  38  68  94 129 168 220 288 345 396
#     4  12  24  39  64  95 130 178 226 273 333 406
#     4  10  20  38  64  97 131 162 218 286 353 400
#     4  12  21  37  66 104 127 161 224 284 351 400
#     4  11  23  38  65 102 135 171 219 281 347 414
#     4  12  26  42  63  95 139 178 218 275 343 415
#     4  11  21  39  67  97 133 172 222 280 348 406
#     4  10  22  36  60  96 132 167 217 282 344 409
#
# _framework density 18.999765
#
# number of rings (size 3 to 8) (size 9 to 14) (size 15 to 20)
#    0.000    0.800    5.333    3.400    3.733    0.267 
#    0.000    0.000   11.733    1.600    0.000    0.000 
#    0.000    0.000    0.000    0.000    0.000    0.000 
#
# Total GULP energy -167149.940082 kJ/mol
# GULP energy per Si atom -5571.664669 kJ/mol
# Density = 1.895652 g / cm^3
# Si number density = 18.999765 Si / 1000 Ang^3
#
#
#
# Elastic Constant Matrix: (Units=GPa)
#
#
# Indices 1 2 3 4 5 6 
#
# 1 119.7586 60.0702 51.5774 0.0000 0.0000 0.0000
# 2 60.0702 95.5604 46.3119 0.0000 0.0000 0.0000
# 3 51.5774 46.3119 115.0952 0.0000 0.0000 0.0000
# 4 0.0000 0.0000 0.0000 48.7492 0.0000 0.0000
# 5 0.0000 0.0000 0.0000 0.0000 385.3235 0.0000
# 6 0.0000 0.0000 0.0000 0.0000 0.0000 25.3378
#
#
#
# Elastic Compliance Matrix: (Units=1/GPa)
#
#
# Indices 1 2 3 4 5 6 
#
# 1 0.013063 -0.006677 -0.003167 0.000000 0.000000 0.000000
# 2 -0.006677 0.016412 -0.003612 0.000000 0.000000 0.000000
# 3 -0.003167 -0.003612 0.011561 0.000000 0.000000 0.000000
# 4 0.000000 0.000000 0.000000 0.020513 0.000000 0.000000
# 5 0.000000 0.000000 0.000000 0.000000 0.002595 0.000000
# 6 0.000000 0.000000 0.000000 0.000000 0.000000 0.039467
#
#
# Mechanical properties :
#
#
# Convention : Reuss Voigt Hill
#
# Bulk Modulus (GPa) = 70.79863 71.81480 71.30671
# Shear Modulus (GPa) = 36.97361 103.37908 70.17634
#
# Velocity S-wave (km/s) = 4.41614 7.38436 6.08404
# Velocity P-wave (km/s) = 7.95907 10.51594 9.32555
#
# Compressibility (1/GPa) = 0.01412457
#
# Stress axis : x y z
#
# Youngs Moduli (GPa) = 76.55069 60.93106 86.49594
#
# Poissons Ratio (x) = 0.40681 0.27397
# Poissons Ratio (y) = 0.51110 0.31241
# Poissons Ratio (z) = 0.24247 0.22007
#
# Static dielectric constant tensor:
#      x y z
#    x 1.722730 0.000000 0.000000 
#    y 0.000000 1.489710 0.000000 
#    z 0.000000 0.000000 1.761480 
# 
# From -- ./inp_files/50014.got.cif
#   From: 2010.05.17/outbox.cif.g08.bks.cpg/sg22_26_cif.got.tgz:50014.got - 2010.06.03 23:40:54.
