data_PCOD9327578
_publ_section_title
;
Structure prediction by ZEFSAII (Michael W. Deem and Ramdas Pophale) SiO2 
 PCOD9327578
Probable space group: F 2 2 2
;
_chemical_formula_sum "Si O2"
_cell_formula_units_Z 88
_cell_length_a 17.983379
_cell_length_b 8.271288
_cell_length_c 28.999761
_cell_angle_alpha 90.000000
_cell_angle_beta 90.000000
_cell_angle_gamma 90.000000
_cell_volume 4313.589951
_symmetry_space_group_name_H-M "F 2 2 2"
_symmetry_group_IT_number 22
_symmetry_cell_setting 'orthorhombic'
loop_
_space_group_symop_operation_xyz
x,y,z
-x,-y,z
x,-y,-z
-x,y,-z
x,1/2+y,1/2+z
-x,1/2-y,1/2+z
x,1/2-y,1/2-z
-x,1/2+y,1/2-z
1/2+x,y,1/2+z
1/2-x,-y,1/2+z
1/2+x,-y,1/2-z
1/2-x,y,1/2-z
1/2+x,1/2+y,z
1/2-x,1/2-y,z
1/2+x,1/2-y,-z
1/2-x,1/2+y,-z
loop_
_atom_site_type_symbol
_atom_site_label
_atom_site_fract_x
_atom_site_fract_y
_atom_site_fract_z
Si Si1 0.217018 0.073689 0.667791
Si Si2 0.127529 0.094951 0.174737
Si Si3 0.500000 0.500000 0.891414
Si Si4 0.173239 0.842750 0.600322
Si Si5 0.473239 0.825100 0.947512
Si Si6 0.424268 0.063289 0.766438
O O1 0.250000 0.250000 0.669591
O O2 0.148411 0.061625 0.702191
O O3 0.287356 0.961356 0.679999
O O4 0.191444 0.022424 0.616795
O O5 0.135699 0.262197 0.146469
O O6 0.073860 0.995337 0.140256
O O7 0.090299 0.061049 0.223981
O O8 0.499292 0.664382 0.920940
O O9 0.250000 0.750000 0.591141
O O10 0.115599 0.827743 0.559252
O O11 0.500000 0.000000 0.928530
O O12 0.500000 0.815434 0.000000
O O13 0.433057 0.250000 0.750000
O O14 0.500000 0.000000 0.789635
#
# Coordination Sequence:
#
# PCOD9327578 Si02
#       6
#    16  16   8  16  16  16
#     4  11  23  39  64  91 126 175 222 275 326 382
#     4  10  21  40  61  92 126 175 222 270 332 387
#     4  10  21  40  70  98 140 172 220 280 333 414
#     4   9  22  42  66  93 132 172 216 271 333 404
#     4  10  22  40  71 103 135 171 217 273 343 412
#     4  12  26  39  58  89 133 173 229 282 329 386
#
# _framework density 20.400642000000001
#
# number of rings (size 3 to 8) (size 9 to 14) (size 15 to 20)
#    0.000    1.636    2.727    0.818    5.091    0.727 
#    0.000    2.727   24.000    0.000    0.000    0.000 
#    0.000    0.000    0.000    0.000    0.000    0.000 
#
# Total GULP energy -122733.197338 kJ/mol
# GULP energy per Si atom -5578.781697 kJ/mol
# Density = 2.035421 g / cm^3
# Si number density = 20.400642 Si / 1000 Ang^3
#
#
#
# Elastic Constant Matrix: (Units=GPa)
#
#
# Indices 1 2 3 4 5 6 
#
# 1 152.6716 46.4997 64.3120 0.0000 0.0000 0.0000
# 2 46.4997 79.5806 41.7328 0.0000 0.0000 0.0000
# 3 64.3120 41.7328 81.4171 0.0000 0.0000 0.0000
# 4 0.0000 0.0000 0.0000 15.9675 0.0000 0.0000
# 5 0.0000 0.0000 0.0000 0.0000 52.1100 0.0000
# 6 0.0000 0.0000 0.0000 0.0000 0.0000 26.9770
#
#
#
# Elastic Compliance Matrix: (Units=1/GPa)
#
#
# Indices 1 2 3 4 5 6 
#
# 1 0.010129 -0.002356 -0.006794 0.000000 0.000000 0.000000
# 2 -0.002356 0.017733 -0.007229 0.000000 0.000000 0.000000
# 3 -0.006794 -0.007229 0.021354 0.000000 0.000000 0.000000
# 4 0.000000 0.000000 0.000000 0.062627 0.000000 0.000000
# 5 0.000000 0.000000 0.000000 0.000000 0.019190 0.000000
# 6 0.000000 0.000000 0.000000 0.000000 0.000000 0.037069
#
#
# Mechanical properties :
#
#
# Convention : Reuss Voigt Hill
#
# Bulk Modulus (GPa) = 60.75320 68.75093 64.75206
# Shear Modulus (GPa) = 24.23113 29.75254 26.99183
#
# Velocity S-wave (km/s) = 3.45013 3.82306 3.64137
# Velocity P-wave (km/s) = 6.76135 7.29803 7.03481
#
# Compressibility (1/GPa) = 0.01646004
#
# Stress axis : x y z
#
# Youngs Moduli (GPa) = 98.72296 56.39099 46.82964
#
# Poissons Ratio (x) = 0.13286 0.31814
# Poissons Ratio (y) = 0.23260 0.33852
# Poissons Ratio (z) = 0.67068 0.40763
#
# Static dielectric constant tensor:
#      x y z
#    x 1.725970 0.000000 0.000000 
#    y 0.000000 1.773930 0.000000 
#    z 0.000000 0.000000 1.716930 
# 
# From -- ./inp_files/11787.got.cif
#   From: 2010.05.17/outbox.cif.g08.bks.cpg/sg22_6_cif.got.tgz:11787.got - 2010.06.03 23:40:54.
