data_PCOD9327299
_publ_section_title
;
Structure prediction by ZEFSAII (Michael W. Deem and Ramdas Pophale) SiO2 
 PCOD9327299
Probable space group: F 2 2 2
;
_chemical_formula_sum "Si O2"
_cell_formula_units_Z 116
_cell_length_a 26.214639
_cell_length_b 17.400438
_cell_length_c 13.108414
_cell_angle_alpha 90.000000
_cell_angle_beta 90.000000
_cell_angle_gamma 90.000000
_cell_volume 5979.353242
_symmetry_space_group_name_H-M "F 2 2 2"
_symmetry_group_IT_number 22
_symmetry_cell_setting 'orthorhombic'
loop_
_space_group_symop_operation_xyz
x,y,z
-x,-y,z
x,-y,-z
-x,y,-z
x,1/2+y,1/2+z
-x,1/2-y,1/2+z
x,1/2-y,1/2-z
-x,1/2+y,1/2-z
1/2+x,y,1/2+z
1/2-x,-y,1/2+z
1/2+x,-y,1/2-z
1/2-x,y,1/2-z
1/2+x,1/2+y,z
1/2-x,1/2-y,z
1/2+x,1/2-y,-z
1/2-x,1/2+y,-z
loop_
_atom_site_type_symbol
_atom_site_label
_atom_site_fract_x
_atom_site_fract_y
_atom_site_fract_z
Si Si1 0.500000 0.500000 0.000000
Si Si2 0.456570 0.898907 0.324945
Si Si3 0.409804 0.770522 0.452018
Si Si4 0.558885 0.395085 0.502499
Si Si5 0.565977 0.324471 0.820984
Si Si6 0.834080 0.951162 0.592791
Si Si7 0.694342 0.279867 0.366066
Si Si8 0.901598 0.038170 0.714506
O O1 0.466897 0.446806 0.927416
O O2 0.421527 0.828016 0.358984
O O3 0.509825 0.858795 0.296147
O O4 0.435586 0.964241 0.248675
O O5 0.440330 0.690045 0.453601
O O6 0.426893 0.803860 0.560903
O O7 0.350417 0.749960 0.440066
O O8 0.500000 0.420285 0.500000
O O9 0.607205 0.431919 0.443077
O O10 0.575595 0.412784 0.619046
O O11 0.575363 0.250000 0.750000
O O12 0.601366 0.397719 0.800726
O O13 0.808151 0.872331 0.624905
O O14 0.810577 0.000000 0.500000
O O15 0.846026 0.006755 0.686294
O O16 0.684872 0.250000 0.250000
O O17 0.750000 0.250000 0.395364
#
# Coordination Sequence:
#
# PCOD9327299 Si02
#       8
#     4  16  16  16  16  16  16  16
#     4  12  20  32  44  68 106 172 194 236 280 332
#     4  12  22  35  53  78 125 168 208 250 297 354
#     4  11  22  39  59  88 120 163 209 255 314 376
#     4  10  21  33  54  86 125 164 212 251 287 356
#     4  12  23  34  54  84 126 173 209 243 291 373
#     4   9  21  37  60  92 123 158 197 256 311 361
#     4  10  22  44  73  94 114 148 204 272 330 383
#     4  11  22  34  53  84 121 171 207 249 299 348
#
# _framework density 19.400091
#
# number of rings (size 3 to 8) (size 9 to 14) (size 15 to 20)
#    0.000    1.241    4.138    1.655    3.862    3.586 
#    0.000    0.000   10.621    0.414    0.000    0.000 
#    0.000    0.000    0.000    0.000    0.000    0.000 
#
# Total GULP energy -161602.511180 kJ/mol
# GULP energy per Si atom -5572.500386 kJ/mol
# Density = 1.935594 g / cm^3
# Si number density = 19.400091 Si / 1000 Ang^3
#
#
#
# Elastic Constant Matrix: (Units=GPa)
#
#
# Indices 1 2 3 4 5 6 
#
# 1 62.6464 30.7469 3.8856 0.0000 0.0000 0.0000
# 2 30.7469 145.7079 19.9012 0.0000 0.0000 0.0000
# 3 3.8856 19.9012 45.2151 0.0000 0.0000 0.0000
# 4 0.0000 0.0000 0.0000 32.5677 0.0000 0.0000
# 5 0.0000 0.0000 0.0000 0.0000 4.1266 0.0000
# 6 0.0000 0.0000 0.0000 0.0000 0.0000 6.4387
#
#
#
# Elastic Compliance Matrix: (Units=1/GPa)
#
#
# Indices 1 2 3 4 5 6 
#
# 1 0.017808 -0.003776 0.000132 0.000000 0.000000 0.000000
# 2 -0.003776 0.008103 -0.003242 0.000000 0.000000 0.000000
# 3 0.000132 -0.003242 0.023532 0.000000 0.000000 0.000000
# 4 0.000000 0.000000 0.000000 0.030705 0.000000 0.000000
# 5 0.000000 0.000000 0.000000 0.000000 0.242331 0.000000
# 6 0.000000 0.000000 0.000000 0.000000 0.000000 0.155311
#
#
# Mechanical properties :
#
#
# Convention : Reuss Voigt Hill
#
# Bulk Modulus (GPa) = 28.03455 40.29297 34.16376
# Shear Modulus (GPa) = 9.93144 21.89564 15.91354
#
# Velocity S-wave (km/s) = 2.26504 3.36316 2.86716
# Velocity P-wave (km/s) = 4.61764 5.99130 5.34875
#
# Compressibility (1/GPa) = 0.03567028
#
# Stress axis : x y z
#
# Youngs Moduli (GPa) = 56.15600 123.41784 42.49514
#
# Poissons Ratio (x) = 0.46598 -0.00559
# Poissons Ratio (y) = 0.21203 0.13776
# Poissons Ratio (z) = -0.00739 0.40010
#
# Static dielectric constant tensor:
#      x y z
#    x 1.669520 0.000000 0.000000 
#    y 0.000000 1.769140 0.000000 
#    z 0.000000 0.000000 1.766170 
# 
# From -- ./inp_files/32655.got.cif
#   From: 2010.05.17/outbox.cif.g08.bks.cpg/sg22_17_cif.got.tgz:32655.got - 2010.06.03 23:40:54.
