data_PCOD9327666
_publ_section_title
;
Structure prediction by ZEFSAII (Michael W. Deem and Ramdas Pophale) SiO2 
 PCOD9327666
Probable space group: F 2 2 2
;
_chemical_formula_sum "Si O2"
_cell_formula_units_Z 88
_cell_length_a 9.442109
_cell_length_b 18.252141
_cell_length_c 24.033596
_cell_angle_alpha 90.000000
_cell_angle_beta 90.000000
_cell_angle_gamma 90.000000
_cell_volume 4141.918806
_symmetry_space_group_name_H-M "F 2 2 2"
_symmetry_group_IT_number 22
_symmetry_cell_setting 'orthorhombic'
loop_
_space_group_symop_operation_xyz
x,y,z
-x,-y,z
x,-y,-z
-x,y,-z
x,1/2+y,1/2+z
-x,1/2-y,1/2+z
x,1/2-y,1/2-z
-x,1/2+y,1/2-z
1/2+x,y,1/2+z
1/2-x,-y,1/2+z
1/2+x,-y,1/2-z
1/2-x,y,1/2-z
1/2+x,1/2+y,z
1/2-x,1/2-y,z
1/2+x,1/2-y,-z
1/2-x,1/2+y,-z
loop_
_atom_site_type_symbol
_atom_site_label
_atom_site_fract_x
_atom_site_fract_y
_atom_site_fract_z
Si Si1 0.944689 0.082636 0.632977
Si Si2 0.250000 0.250000 0.042861
Si Si3 0.629883 0.641950 0.130536
Si Si4 0.426643 0.078160 0.553049
Si Si5 0.408444 0.569734 0.759505
Si Si6 0.880177 0.124966 0.463562
O O1 0.776850 0.095386 0.620094
O O2 0.962824 0.094539 0.699045
O O3 0.041562 0.135650 0.595347
O O4 0.000000 0.000000 0.621879
O O5 0.347756 0.291161 0.088277
O O6 0.169038 0.305623 0.001065
O O7 0.479823 0.612371 0.109514
O O8 0.611976 0.636237 0.196904
O O9 0.500000 0.117460 0.500000
O O10 0.260934 0.078748 0.545403
O O11 0.500000 0.000000 0.554167
O O12 0.500000 0.500000 0.779853
O O13 0.250000 0.539794 0.750000
O O14 0.000000 0.086262 0.500000
#
# Coordination Sequence:
#
# PCOD9327666 Si02
#       6
#    16   8  16  16  16  16
#     4  10  21  41  67  99 126 166 218 277 344 404
#     4  12  26  42  63  94 137 186 236 260 318 392
#     4  11  22  40  62  94 133 171 224 268 326 389
#     4  11  22  37  59  96 128 164 213 276 338 396
#     4   9  20  39  68  96 132 165 211 275 344 398
#     4  12  25  42  67  91 135 179 221 273 326 393
#
# _framework density 21.246191
#
# number of rings (size 3 to 8) (size 9 to 14) (size 15 to 20)
#    0.000    1.273    3.636    1.636    2.545    4.727 
#    0.000    4.091    0.000    0.000    4.727    0.000 
#    0.000    0.000    0.000    0.000    0.000    0.000 
#
# Total GULP energy -122484.376970 kJ/mol
# GULP energy per Si atom -5567.471680 kJ/mol
# Density = 2.119783 g / cm^3
# Si number density = 21.246191 Si / 1000 Ang^3
#
#
#
# Elastic Constant Matrix: (Units=GPa)
#
#
# Indices 1 2 3 4 5 6 
#
# 1 149.8783 29.3363 50.4571 0.0000 0.0000 0.0000
# 2 29.3363 71.4150 53.2261 0.0000 0.0000 0.0000
# 3 50.4571 53.2261 147.0153 0.0000 0.0000 0.0000
# 4 0.0000 0.0000 0.0000 -26.2940 0.0000 0.0000
# 5 0.0000 0.0000 0.0000 0.0000 42.9325 0.0000
# 6 0.0000 0.0000 0.0000 0.0000 0.0000 11.9793
#
#
#
# Elastic Compliance Matrix: (Units=1/GPa)
#
#
# Indices 1 2 3 4 5 6 
#
# 1 0.007680 -0.001630 -0.002046 0.000000 0.000000 0.000000
# 2 -0.001630 0.019523 -0.006509 0.000000 0.000000 0.000000
# 3 -0.002046 -0.006509 0.009861 0.000000 0.000000 0.000000
# 4 0.000000 0.000000 0.000000 -0.038032 0.000000 0.000000
# 5 0.000000 0.000000 0.000000 0.000000 0.023292 0.000000
# 6 0.000000 0.000000 0.000000 0.000000 0.000000 0.083478
#
#
# Mechanical properties :
#
#
# Convention : Reuss Voigt Hill
#
# Bulk Modulus (GPa) = 59.89974 70.48306 65.19140
# Shear Modulus (GPa) = 37.95464 21.40950 29.68207
#
# Velocity S-wave (km/s) = 4.23119 3.17785 3.74177
# Velocity P-wave (km/s) = 7.21977 6.83458 7.02981
#
# Compressibility (1/GPa) = 0.01669456
#
# Stress axis : x y z
#
# Youngs Moduli (GPa) = 130.21141 51.22062 101.41392
#
# Poissons Ratio (x) = 0.08350 0.20745
# Poissons Ratio (y) = 0.21227 0.66009
# Poissons Ratio (z) = 0.26636 0.33339
#
# Static dielectric constant tensor:
#      x y z
#    x 1.787650 0.000000 0.000000 
#    y 0.000000 1.824470 0.000000 
#    z 0.000000 0.000000 1.864390 
# 
# From -- ./inp_files/47256.got.cif
#   From: 2010.05.17/outbox.cif.g08.bks.cpg/sg22_24_cif.got.tgz:47256.got - 2010.06.03 23:40:54.
