data_PCOD9327846
_publ_section_title
;
Structure prediction by ZEFSAII (Michael W. Deem and Ramdas Pophale) SiO2 
 PCOD9327846
Probable space group: F 2 2 2
;
_chemical_formula_sum "Si O2"
_cell_formula_units_Z 84
_cell_length_a 10.433594
_cell_length_b 13.986196
_cell_length_c 21.123567
_cell_angle_alpha 90.000000
_cell_angle_beta 90.000000
_cell_angle_gamma 90.000000
_cell_volume 3082.483778
_symmetry_space_group_name_H-M "F 2 2 2"
_symmetry_group_IT_number 22
_symmetry_cell_setting 'orthorhombic'
loop_
_space_group_symop_operation_xyz
x,y,z
-x,-y,z
x,-y,-z
-x,y,-z
x,1/2+y,1/2+z
-x,1/2-y,1/2+z
x,1/2-y,1/2-z
-x,1/2+y,1/2-z
1/2+x,y,1/2+z
1/2-x,-y,1/2+z
1/2+x,-y,1/2-z
1/2-x,y,1/2-z
1/2+x,1/2+y,z
1/2-x,1/2-y,z
1/2+x,1/2-y,-z
1/2-x,1/2+y,-z
loop_
_atom_site_type_symbol
_atom_site_label
_atom_site_fract_x
_atom_site_fract_y
_atom_site_fract_z
Si Si1 0.028768 0.885687 0.266977
Si Si2 0.644486 0.459433 0.151386
Si Si3 0.000000 0.500000 0.000000
Si Si4 0.750000 0.250000 0.922103
Si Si5 0.134616 0.138649 0.972110
Si Si6 0.472136 0.676509 0.401700
Si Si7 0.250000 0.601556 0.750000
O O1 0.081116 0.847302 0.332475
O O2 0.117247 0.878953 0.205115
O O3 0.885949 0.848239 0.254016
O O4 0.000000 0.000000 0.274094
O O5 0.500000 0.500000 0.140668
O O6 0.689222 0.426610 0.083047
O O7 0.731739 0.536513 0.186851
O O8 0.028067 0.416649 0.945864
O O9 0.616210 0.220647 0.890752
O O10 0.779254 0.159813 0.967644
O O11 0.101594 0.239571 0.938450
O O12 0.000000 0.103701 0.000000
#
# Coordination Sequence:
#
# PCOD9327846 Si02
#       7
#    16  16   4   8  16  16   8
#     4   9  19  36  60  84 117 154 207 252 291 363
#     4   9  20  38  60  84 119 161 197 244 310 359
#     4  12  20  40  68  88 112 168 206 236 304 376
#     4  10  22  38  56  90 122 154 190 272 292 348
#     4  10  22  40  57  83 127 155 199 255 304 357
#     4  11  22  39  62  90 121 157 208 251 307 359
#     4   8  18  34  56  90 112 150 202 256 282 367
#
# _framework density 27.25075
#
# number of rings (size 3 to 8) (size 9 to 14) (size 15 to 20)
#    0.000    2.667    3.810    0.000    0.000   11.810 
#    0.000    0.000    0.000    0.000    0.000    0.000 
#    0.000    0.000    0.000    0.000    0.000    0.000 
#
# Total GULP energy -117418.909453 kJ/mol
# GULP energy per Si atom -5591.376641 kJ/mol
# Density = 2.718873 g / cm^3
# Si number density = 27.250750 Si / 1000 Ang^3
#
#
#
# Elastic Constant Matrix: (Units=GPa)
#
#
# Indices 1 2 3 4 5 6 
#
# 1 118.4971 3.4010 5.7932 0.0000 0.0000 0.0000
# 2 3.4010 144.5315 38.1898 0.0000 0.0000 0.0000
# 3 5.7932 38.1898 156.5706 0.0000 0.0000 0.0000
# 4 0.0000 0.0000 0.0000 36.9449 0.0000 0.0000
# 5 0.0000 0.0000 0.0000 0.0000 14.1467 0.0000
# 6 0.0000 0.0000 0.0000 0.0000 0.0000 -12.7297
#
#
#
# Elastic Compliance Matrix: (Units=1/GPa)
#
#
# Indices 1 2 3 4 5 6 
#
# 1 0.008456 -0.000124 -0.000283 0.000000 0.000000 0.000000
# 2 -0.000124 0.007397 -0.001800 0.000000 0.000000 0.000000
# 3 -0.000283 -0.001800 0.006836 0.000000 0.000000 0.000000
# 4 0.000000 0.000000 0.000000 0.027067 0.000000 0.000000
# 5 0.000000 0.000000 0.000000 0.000000 0.070688 0.000000
# 6 0.000000 0.000000 0.000000 0.000000 0.000000 -0.078557
#
#
# Mechanical properties :
#
#
# Convention : Reuss Voigt Hill
#
# Bulk Modulus (GPa) = 54.71393 57.15190 55.93292
# Shear Modulus (GPa) = 95.43031 32.48673 63.95852
#
# Velocity S-wave (km/s) = 5.92413 3.45648 4.84988
# Velocity P-wave (km/s) = 8.18018 6.07847 7.20636
#
# Compressibility (1/GPa) = 0.01827688
#
# Stress axis : x y z
#
# Youngs Moduli (GPa) = 118.25349 135.18309 146.27737
#
# Poissons Ratio (x) = 0.01681 0.04133
# Poissons Ratio (y) = 0.01470 0.26326
# Poissons Ratio (z) = 0.03341 0.24329
#
# Static dielectric constant tensor:
#      x y z
#    x 2.187510 0.000000 0.000000 
#    y 0.000000 2.188430 0.000000 
#    z 0.000000 0.000000 2.069250 
# 
# From -- ./inp_files/48077.got.cif
#   From: 2010.05.17/outbox.cif.g08.bks.cpg/sg22_25_cif.got.tgz:48077.got - 2010.06.03 23:40:54.
