data_PCOD9327949
_publ_section_title
;
Structure prediction by ZEFSAII (Michael W. Deem and Ramdas Pophale) SiO2 
 PCOD9327949
Probable space group: F 2 2 2
;
_chemical_formula_sum "Si O2"
_cell_formula_units_Z 64
_cell_length_a 8.800423
_cell_length_b 12.355535
_cell_length_c 27.983870
_cell_angle_alpha 90.000000
_cell_angle_beta 90.000000
_cell_angle_gamma 90.000000
_cell_volume 3042.796285
_symmetry_space_group_name_H-M "F 2 2 2"
_symmetry_group_IT_number 22
_symmetry_cell_setting 'orthorhombic'
loop_
_space_group_symop_operation_xyz
x,y,z
-x,-y,z
x,-y,-z
-x,y,-z
x,1/2+y,1/2+z
-x,1/2-y,1/2+z
x,1/2-y,1/2-z
-x,1/2+y,1/2-z
1/2+x,y,1/2+z
1/2-x,-y,1/2+z
1/2+x,-y,1/2-z
1/2-x,y,1/2-z
1/2+x,1/2+y,z
1/2-x,1/2-y,z
1/2+x,1/2-y,-z
1/2-x,1/2+y,-z
loop_
_atom_site_type_symbol
_atom_site_label
_atom_site_fract_x
_atom_site_fract_y
_atom_site_fract_z
Si Si1 0.250000 0.250000 0.333619
Si Si2 0.247789 0.878721 0.438576
Si Si3 0.250000 0.432398 0.750000
Si Si4 0.819025 0.019535 0.850862
Si Si5 0.004256 0.750000 0.750000
Si Si6 0.000000 0.000000 0.500000
Si Si7 0.500000 0.000000 0.500000
O O1 0.226368 0.358202 0.364410
O O2 0.393315 0.253881 0.297466
O O3 0.250000 0.750000 0.436204
O O4 0.104771 0.924251 0.467424
O O5 0.248641 0.931986 0.386271
O O6 0.394241 0.925936 0.466530
O O7 0.242655 0.503273 0.702605
O O8 0.103674 0.354631 0.749170
O O9 0.000000 0.000000 0.850961
#
# Coordination Sequence:
#
# PCOD9327949 Si02
#       7
#     8  16   8  16   8   4   4
#     4  11  24  42  64  96 144 186 238 290 346 405
#     4  11  25  47  77 107 143 181 237 293 360 427
#     4  11  24  41  66 100 146 187 243 284 344 416
#     4  12  26  44  68 107 144 192 240 286 354 421
#     4  10  22  40  66  92 134 198 236 296 340 396
#     4  10  26  50  72 118 132 180 236 298 370 420
#     4  10  22  50  76 102 144 184 224 302 362 428
#
# _framework density 21.033284999999999
#
# number of rings (size 3 to 8) (size 9 to 14) (size 15 to 20)
#    0.000    1.000    3.750    2.250    3.500    4.000 
#    9.000    0.000    0.000    0.000    0.000    0.000 
#    0.000    0.000    0.000    0.000    0.000    0.000 
#
# Total GULP energy -89603.220785 kJ/mol
# GULP energy per Si atom -5600.201299 kJ/mol
# Density = 2.098541 g / cm^3
# Si number density = 21.033285 Si / 1000 Ang^3
#
#
#
# Elastic Constant Matrix: (Units=GPa)
#
#
# Indices 1 2 3 4 5 6 
#
# 1 109.8231 56.6573 32.3193 0.0000 0.0000 0.0000
# 2 56.6573 213.9759 58.1762 0.0000 0.0000 0.0000
# 3 32.3193 58.1762 114.0917 0.0000 0.0000 0.0000
# 4 0.0000 0.0000 0.0000 33.8219 0.0000 0.0000
# 5 0.0000 0.0000 0.0000 0.0000 11.9351 0.0000
# 6 0.0000 0.0000 0.0000 0.0000 0.0000 5.6176
#
#
#
# Elastic Compliance Matrix: (Units=1/GPa)
#
#
# Indices 1 2 3 4 5 6 
#
# 1 0.010880 -0.002372 -0.001873 0.000000 0.000000 0.000000
# 2 -0.002372 0.005943 -0.002358 0.000000 0.000000 0.000000
# 3 -0.001873 -0.002358 0.010498 0.000000 0.000000 0.000000
# 4 0.000000 0.000000 0.000000 0.029567 0.000000 0.000000
# 5 0.000000 0.000000 0.000000 0.000000 0.083786 0.000000
# 6 0.000000 0.000000 0.000000 0.000000 0.000000 0.178011
#
#
# Mechanical properties :
#
#
# Convention : Reuss Voigt Hill
#
# Bulk Modulus (GPa) = 70.84584 81.35514 76.10049
# Shear Modulus (GPa) = 14.85463 29.65746 22.25604
#
# Velocity S-wave (km/s) = 2.66041 3.75910 3.25643
# Velocity P-wave (km/s) = 6.57213 7.58975 7.09920
#
# Compressibility (1/GPa) = 0.01411515
#
# Stress axis : x y z
#
# Youngs Moduli (GPa) = 91.90972 168.27628 95.25716
#
# Poissons Ratio (x) = 0.39911 0.17839
# Poissons Ratio (y) = 0.21799 0.22465
# Poissons Ratio (z) = 0.17212 0.39685
#
# Static dielectric constant tensor:
#      x y z
#    x 1.746590 0.000000 0.000000 
#    y 0.000000 1.746200 0.000000 
#    z 0.000000 0.000000 1.729820 
# 
# From -- ./inp_files/8594.got.cif
#   From: 2010.05.17/outbox.cif.g08.bks.cpg/sg22_5_cif.got.tgz:8594.got - 2010.06.03 23:40:54.
