data_PCOD9327815
_publ_section_title
;
Structure prediction by ZEFSAII (Michael W. Deem and Ramdas Pophale) SiO2 
 PCOD9327815
Probable space group: F 2 2 2
;
_chemical_formula_sum "Si O2"
_cell_formula_units_Z 80
_cell_length_a 18.203281
_cell_length_b 23.020187
_cell_length_c 8.716413
_cell_angle_alpha 90.000000
_cell_angle_beta 90.000000
_cell_angle_gamma 90.000000
_cell_volume 3652.551266
_symmetry_space_group_name_H-M "F 2 2 2"
_symmetry_group_IT_number 22
_symmetry_cell_setting 'orthorhombic'
loop_
_space_group_symop_operation_xyz
x,y,z
-x,-y,z
x,-y,-z
-x,y,-z
x,1/2+y,1/2+z
-x,1/2-y,1/2+z
x,1/2-y,1/2-z
-x,1/2+y,1/2-z
1/2+x,y,1/2+z
1/2-x,-y,1/2+z
1/2+x,-y,1/2-z
1/2-x,y,1/2-z
1/2+x,1/2+y,z
1/2-x,1/2-y,z
1/2+x,1/2-y,-z
1/2-x,1/2+y,-z
loop_
_atom_site_type_symbol
_atom_site_label
_atom_site_fract_x
_atom_site_fract_y
_atom_site_fract_z
Si Si1 0.192929 0.379914 0.970920
Si Si2 0.500000 0.000000 0.252852
Si Si3 0.490888 0.250000 0.250000
Si Si4 0.500000 0.595962 0.000000
Si Si5 0.391356 0.268569 0.521523
Si Si6 0.652439 0.851115 0.617568
Si Si7 0.879729 0.500000 0.000000
O O1 0.151801 0.323867 0.042034
O O2 0.280519 0.376047 0.982222
O O3 0.170398 0.371589 0.790666
O O4 0.165865 0.441794 0.029648
O O5 0.521401 0.946244 0.360002
O O6 0.432146 0.985865 0.143234
O O7 0.435461 0.235459 0.386541
O O8 0.548409 0.288552 0.349436
O O9 0.571844 0.629504 0.938811
O O10 0.342632 0.218599 0.597908
#
# Coordination Sequence:
#
# PCOD9327815 Si02
#       7
#    16   8   8   8  16  16   8
#     4  11  24  43  66  99 136 182 223 282 343 416
#     4  10  24  42  68  92 132 174 226 274 338 394
#     4  10  22  36  68 102 138 174 220 272 350 407
#     4  11  22  44  66  98 124 175 222 286 326 415
#     4  11  22  41  66 102 137 176 219 285 338 415
#     4  11  23  42  71  98 134 175 229 283 351 408
#     4  11  24  44  64  95 130 178 222 275 328 416
#
# _framework density 21.902498000000001
#
# number of rings (size 3 to 8) (size 9 to 14) (size 15 to 20)
#    0.000    1.200    4.000    1.800    0.000    9.600 
#    0.000    4.000    0.000    0.000    0.000    0.000 
#    0.000    0.000    0.000    0.000    0.000    0.000 
#
# Total GULP energy -111489.170727 kJ/mol
# GULP energy per Si atom -5574.458536 kJ/mol
# Density = 2.185265 g / cm^3
# Si number density = 21.902498 Si / 1000 Ang^3
#
#
#
# Elastic Constant Matrix: (Units=GPa)
#
#
# Indices 1 2 3 4 5 6 
#
# 1 111.2878 22.4162 13.1061 0.0000 0.0000 0.0000
# 2 22.4162 91.3079 1.8252 0.0000 0.0000 0.0000
# 3 13.1061 1.8252 66.0324 0.0000 0.0000 0.0000
# 4 0.0000 0.0000 0.0000 19.7484 0.0000 0.0000
# 5 0.0000 0.0000 0.0000 0.0000 20.0452 0.0000
# 6 0.0000 0.0000 0.0000 0.0000 0.0000 27.5352
#
#
#
# Elastic Compliance Matrix: (Units=1/GPa)
#
#
# Indices 1 2 3 4 5 6 
#
# 1 0.009675 -0.002338 -0.001856 0.000000 0.000000 0.000000
# 2 -0.002338 0.011523 0.000146 0.000000 0.000000 0.000000
# 3 -0.001856 0.000146 0.015508 0.000000 0.000000 0.000000
# 4 0.000000 0.000000 0.000000 0.050637 0.000000 0.000000
# 5 0.000000 0.000000 0.000000 0.000000 0.049887 0.000000
# 6 0.000000 0.000000 0.000000 0.000000 0.000000 0.036317
#
#
# Mechanical properties :
#
#
# Convention : Reuss Voigt Hill
#
# Bulk Modulus (GPa) = 34.95277 38.14701 36.54989
# Shear Modulus (GPa) = 26.15319 28.88447 27.51883
#
# Velocity S-wave (km/s) = 3.45929 3.63543 3.54845
# Velocity P-wave (km/s) = 5.65230 5.92253 5.78900
#
# Compressibility (1/GPa) = 0.02861004
#
# Stress axis : x y z
#
# Youngs Moduli (GPa) = 103.35674 86.78242 64.48125
#
# Poissons Ratio (x) = 0.20291 0.11966
# Poissons Ratio (y) = 0.24167 -0.00939
# Poissons Ratio (z) = 0.19180 -0.01263
#
# Static dielectric constant tensor:
#      x y z
#    x 1.819370 0.000000 0.000000 
#    y 0.000000 1.802420 0.000000 
#    z 0.000000 0.000000 1.837010 
# 
# From -- ./inp_files/11700.got.cif
#   From: 2010.05.17/outbox.cif.g08.bks.cpg/sg22_6_cif.got.tgz:11700.got - 2010.06.03 23:40:54.
