data_PCOD9327090
_publ_section_title
;
Structure prediction by ZEFSAII (Michael W. Deem and Ramdas Pophale) SiO2 
 PCOD9327090
Probable space group: F 2 2 2
;
_chemical_formula_sum "Si O2"
_cell_formula_units_Z 116
_cell_length_a 22.539337
_cell_length_b 27.945441
_cell_length_c 9.556151
_cell_angle_alpha 90.000000
_cell_angle_beta 90.000000
_cell_angle_gamma 90.000000
_cell_volume 6019.149193
_symmetry_space_group_name_H-M "F 2 2 2"
_symmetry_group_IT_number 22
_symmetry_cell_setting 'orthorhombic'
loop_
_space_group_symop_operation_xyz
x,y,z
-x,-y,z
x,-y,-z
-x,y,-z
x,1/2+y,1/2+z
-x,1/2-y,1/2+z
x,1/2-y,1/2-z
-x,1/2+y,1/2-z
1/2+x,y,1/2+z
1/2-x,-y,1/2+z
1/2+x,-y,1/2-z
1/2-x,y,1/2-z
1/2+x,1/2+y,z
1/2-x,1/2-y,z
1/2+x,1/2-y,-z
1/2-x,1/2+y,-z
loop_
_atom_site_type_symbol
_atom_site_label
_atom_site_fract_x
_atom_site_fract_y
_atom_site_fract_z
Si Si1 0.750000 0.750000 0.750000
Si Si2 0.683076 0.327931 0.072588
Si Si3 0.405502 0.389855 0.785170
Si Si4 0.781196 0.122240 0.607508
Si Si5 0.116037 0.557057 0.015353
Si Si6 0.632947 0.806882 0.265176
Si Si7 0.542316 0.111019 0.801829
Si Si8 0.430792 0.551073 0.958244
O O1 0.712714 0.717294 0.855251
O O2 0.639962 0.346912 0.196368
O O3 0.734960 0.363413 0.014352
O O4 0.649068 0.315909 0.927824
O O5 0.382921 0.429535 0.678068
O O6 0.473726 0.381131 0.739849
O O7 0.403705 0.409925 0.941527
O O8 0.750000 0.104465 0.750000
O O9 0.827065 0.082250 0.555016
O O10 0.816397 0.169773 0.663923
O O11 0.061112 0.587094 0.948157
O O12 0.111162 0.500000 0.000000
O O13 0.626300 0.750000 0.250000
O O14 0.576061 0.839075 0.224088
O O15 0.569753 0.070624 0.697314
O O16 0.404742 0.500000 0.000000
O O17 0.500000 0.548860 0.000000
#
# Coordination Sequence:
#
# PCOD9327090 Si02
#       8
#     4  16  16  16  16  16  16  16
#     4  12  24  36  58  88 120 156 216 262 326 368
#     4  11  22  40  61  87 124 162 208 276 314 376
#     4  11  22  37  61  89 128 165 196 264 323 363
#     4   9  21  42  64  87 122 162 214 265 316 378
#     4  11  23  40  62  95 127 168 213 256 319 382
#     4  10  20  38  67  91 118 167 217 255 321 387
#     4  10  21  39  61  88 131 166 206 254 312 391
#     4   9  17  32  56  84 114 157 203 242 298 371
#
# _framework density 19.271826000000001
#
# number of rings (size 3 to 8) (size 9 to 14) (size 15 to 20)
#    0.000    1.793    1.379    2.897    0.000    5.241 
#    3.724    0.000    3.034    0.000    0.000    0.000 
#    0.000    0.000    0.000    0.000    0.000    0.000 
#
# Total GULP energy -161570.594040 kJ/mol
# GULP energy per Si atom -5571.399794 kJ/mol
# Density = 1.922796 g / cm^3
# Si number density = 19.271826 Si / 1000 Ang^3
#
#
#
# Elastic Constant Matrix: (Units=GPa)
#
#
# Indices 1 2 3 4 5 6 
#
# 1 101.7553 55.7203 22.6269 0.0002 -0.0001 0.0000
# 2 55.7203 123.4432 19.2542 0.0002 -0.0001 0.0000
# 3 22.6269 19.2542 72.3290 0.0008 -0.0005 0.0002
# 4 0.0002 0.0002 0.0008 11.0089 -0.0003 0.0001
# 5 -0.0001 -0.0001 -0.0005 -0.0003 25.0989 -0.0001
# 6 0.0000 0.0000 0.0002 0.0001 -0.0001 -8.4515
#
#
#
# Elastic Compliance Matrix: (Units=1/GPa)
#
#
# Indices 1 2 3 4 5 6 
#
# 1 0.013550 -0.005691 -0.002724 0.000000 0.000000 0.000000
# 2 -0.005691 0.010842 -0.001106 0.000000 0.000000 0.000000
# 3 -0.002724 -0.001106 0.014972 -0.000001 0.000000 0.000000
# 4 0.000000 0.000000 -0.000001 0.090836 0.000001 0.000001
# 5 0.000000 0.000000 0.000000 0.000001 0.039842 -0.000001
# 6 0.000000 0.000000 0.000000 0.000001 -0.000001 -0.118322
#
#
# Mechanical properties :
#
#
# Convention : Reuss Voigt Hill
#
# Bulk Modulus (GPa) = 49.20672 54.74782 51.97727
# Shear Modulus (GPa) = 64.48643 18.85967 41.67305
#
# Velocity S-wave (km/s) = 5.79087 3.13167 4.65519
# Velocity P-wave (km/s) = 8.38455 6.44565 7.47820
#
# Compressibility (1/GPa) = 0.02032243
#
# Stress axis : x y z
#
# Youngs Moduli (GPa) = 73.80267 92.23123 66.79061
#
# Poissons Ratio (x) = 0.52491 0.18192
# Poissons Ratio (y) = 0.42003 0.07386
# Poissons Ratio (z) = 0.20102 0.10199
#
# Static dielectric constant tensor:
#      x y z
#    x 1.786280 0.000000 0.000000 
#    y 0.000000 1.702240 0.000000 
#    z 0.000000 0.000000 1.692070 
# 
# From -- ./inp_files/14097.got.cif
#   From: 2010.05.17/outbox.cif.g08.bks.cpg/sg22_8_cif.got.tgz:14097.got - 2010.06.03 23:40:54.
