data_PCOD9327927
_publ_section_title
;
Structure prediction by ZEFSAII (Michael W. Deem and Ramdas Pophale) SiO2 
 PCOD9327927
Probable space group: F 2 2 2
;
_chemical_formula_sum "Si O2"
_cell_formula_units_Z 116
_cell_length_a 16.267022
_cell_length_b 18.534676
_cell_length_c 18.060840
_cell_angle_alpha 90.000000
_cell_angle_beta 90.000000
_cell_angle_gamma 90.000000
_cell_volume 5445.415183
_symmetry_space_group_name_H-M "F 2 2 2"
_symmetry_group_IT_number 22
_symmetry_cell_setting 'orthorhombic'
loop_
_space_group_symop_operation_xyz
x,y,z
-x,-y,z
x,-y,-z
-x,y,-z
x,1/2+y,1/2+z
-x,1/2-y,1/2+z
x,1/2-y,1/2-z
-x,1/2+y,1/2-z
1/2+x,y,1/2+z
1/2-x,-y,1/2+z
1/2+x,-y,1/2-z
1/2-x,y,1/2-z
1/2+x,1/2+y,z
1/2-x,1/2-y,z
1/2+x,1/2-y,-z
1/2-x,1/2+y,-z
loop_
_atom_site_type_symbol
_atom_site_label
_atom_site_fract_x
_atom_site_fract_y
_atom_site_fract_z
Si Si1 0.907401 0.644899 0.379661
Si Si2 0.453121 0.933096 0.314021
Si Si3 0.198339 0.531469 0.676897
Si Si4 0.383720 0.642970 0.319724
Si Si5 0.804425 0.676138 0.527437
Si Si6 0.691214 0.461593 0.429171
Si Si7 0.535416 0.255336 0.083283
Si Si8 0.750000 0.250000 0.250000
O O1 0.849557 0.607149 0.320031
O O2 0.852425 0.655742 0.451986
O O3 0.986096 0.589877 0.380728
O O4 0.958808 0.717059 0.368093
O O5 0.435277 0.871511 0.254429
O O6 0.500000 0.000000 0.275686
O O7 0.366081 0.966570 0.334616
O O8 0.250000 0.519927 0.750000
O O9 0.253251 0.525354 0.604302
O O10 0.357497 0.568253 0.357980
O O11 0.435147 0.681368 0.383276
O O12 0.308010 0.695863 0.297390
O O13 0.750000 0.750000 0.520717
O O14 0.745968 0.609214 0.549244
O O15 0.881741 0.694930 0.581698
O O16 0.649558 0.500000 0.500000
O O17 0.500000 0.251901 0.000000
#
# Coordination Sequence:
#
# PCOD9327927 Si02
#       8
#    16  16  16  16  16  16  16   4
#     4  10  22  41  62  94 130 180 226 280 359 415
#     4  10  22  40  63  91 134 180 222 284 345 418
#     4  11  21  41  66  98 139 176 232 292 352 428
#     4  12  22  42  63 101 131 174 232 286 347 419
#     4  11  21  41  66  98 139 176 232 292 352 428
#     4  12  23  39  67 105 132 178 227 296 347 426
#     4  10  22  40  63  91 134 180 222 284 345 418
#     4  12  24  36  76 100 128 164 222 316 352 388
#
# _framework density 21.302323999999999
#
# number of rings (size 3 to 8) (size 9 to 14) (size 15 to 20)
#    0.000    1.103    4.138    3.310    0.000    0.000 
#    2.483    6.897    0.000    0.000    0.000    0.000 
#    0.000    0.000    0.000    0.000    0.000    0.000 
#
# Total GULP energy -161536.572241 kJ/mol
# GULP energy per Si atom -5570.226629 kJ/mol
# Density = 2.125384 g / cm^3
# Si number density = 21.302324 Si / 1000 Ang^3
#
#
#
# Elastic Constant Matrix: (Units=GPa)
#
#
# Indices 1 2 3 4 5 6 
#
# 1 65.7977 28.4277 21.3460 0.0000 0.0000 0.0000
# 2 28.4277 70.4795 22.6142 0.0000 0.0000 0.0000
# 3 21.3460 22.6142 53.2802 0.0000 0.0000 0.0000
# 4 0.0000 0.0000 0.0000 44.6320 0.0000 0.0000
# 5 0.0000 0.0000 0.0000 0.0000 27.8173 0.0000
# 6 0.0000 0.0000 0.0000 0.0000 0.0000 32.5873
#
#
#
# Elastic Compliance Matrix: (Units=1/GPa)
#
#
# Indices 1 2 3 4 5 6 
#
# 1 0.019575 -0.006227 -0.005199 0.000000 0.000000 0.000000
# 2 -0.006227 0.018407 -0.005318 0.000000 0.000000 0.000000
# 3 -0.005199 -0.005318 0.023109 0.000000 0.000000 0.000000
# 4 0.000000 0.000000 0.000000 0.022405 0.000000 0.000000
# 5 0.000000 0.000000 0.000000 0.000000 0.035949 0.000000
# 6 0.000000 0.000000 0.000000 0.000000 0.000000 0.030687
#
#
# Mechanical properties :
#
#
# Convention : Reuss Voigt Hill
#
# Bulk Modulus (GPa) = 36.22935 37.14812 36.68874
# Shear Modulus (GPa) = 25.93077 28.81864 27.37470
#
# Velocity S-wave (km/s) = 3.49273 3.68209 3.58866
# Velocity P-wave (km/s) = 5.77146 5.96267 5.86784
#
# Compressibility (1/GPa) = 0.02760193
#
# Stress axis : x y z
#
# Youngs Moduli (GPa) = 51.08451 54.32859 43.27367
#
# Poissons Ratio (x) = 0.33832 0.22500
# Poissons Ratio (y) = 0.31812 0.23011
# Poissons Ratio (z) = 0.26561 0.28889
#
# Static dielectric constant tensor:
#      x y z
#    x 1.787240 0.000000 0.000000 
#    y 0.000000 1.801970 0.000000 
#    z 0.000000 0.000000 1.741770 
# 
# From -- ./inp_files/38166.got.cif
#   From: 2010.05.17/outbox.cif.g08.bks.cpg/sg22_20_cif.got.tgz:38166.got - 2010.06.03 23:40:54.
