data_PCOD9327333
_publ_section_title
;
Structure prediction by ZEFSAII (Michael W. Deem and Ramdas Pophale) SiO2 
 PCOD9327333
Probable space group: F 2 2 2
;
_chemical_formula_sum "Si O2"
_cell_formula_units_Z 72
_cell_length_a 14.554420
_cell_length_b 9.023968
_cell_length_c 24.949741
_cell_angle_alpha 90.000000
_cell_angle_beta 90.000000
_cell_angle_gamma 90.000000
_cell_volume 3276.864561
_symmetry_space_group_name_H-M "F 2 2 2"
_symmetry_group_IT_number 22
_symmetry_cell_setting 'orthorhombic'
loop_
_space_group_symop_operation_xyz
x,y,z
-x,-y,z
x,-y,-z
-x,y,-z
x,1/2+y,1/2+z
-x,1/2-y,1/2+z
x,1/2-y,1/2-z
-x,1/2+y,1/2-z
1/2+x,y,1/2+z
1/2-x,-y,1/2+z
1/2+x,-y,1/2-z
1/2-x,y,1/2-z
1/2+x,1/2+y,z
1/2-x,1/2-y,z
1/2+x,1/2-y,-z
1/2-x,1/2+y,-z
loop_
_atom_site_type_symbol
_atom_site_label
_atom_site_fract_x
_atom_site_fract_y
_atom_site_fract_z
Si Si1 0.750000 0.988853 0.750000
Si Si2 0.898671 0.070125 0.445877
Si Si3 0.256878 0.420868 0.370256
Si Si4 0.582071 0.886488 0.591482
Si Si5 0.060369 0.855700 0.208210
O O1 0.733059 0.073788 0.805703
O O2 0.840833 0.896451 0.766471
O O3 0.900653 0.249609 0.448334
O O4 0.856850 0.000000 0.500000
O O5 0.840492 0.008355 0.396650
O O6 0.000000 0.000000 0.441832
O O7 0.250000 0.250000 0.386970
O O8 0.167915 0.510619 0.391762
O O9 0.563313 0.799321 0.647638
O O10 0.500000 0.000000 0.576967
O O11 0.011968 0.750000 0.250000
O O12 0.000000 0.000000 0.203643
#
# Coordination Sequence:
#
# PCOD9327333 Si02
#       5
#     8  16  16  16  16
#     4  10  22  38  60  92 134 174 214 260 316 382
#     4  11  25  45  67  95 127 168 219 272 329 385
#     4  11  23  40  65  97 133 174 218 266 322 384
#     4  10  22  42  65  91 127 168 213 267 324 384
#     4  10  21  35  57  89 125 169 213 257 315 379
#
# _framework density 21.972225000000002
#
# number of rings (size 3 to 8) (size 9 to 14) (size 15 to 20)
#    0.000    1.556    0.000    4.000    0.000   14.222 
#    0.000    6.667    0.000    0.000    0.000    0.000 
#    0.000    0.000    0.000    0.000    0.000    0.000 
#
# Total GULP energy -100485.272465 kJ/mol
# GULP energy per Si atom -5582.515137 kJ/mol
# Density = 2.192221 g / cm^3
# Si number density = 21.972225 Si / 1000 Ang^3
#
#
#
# Elastic Constant Matrix: (Units=GPa)
#
#
# Indices 1 2 3 4 5 6 
#
# 1 65.5271 14.4786 25.3913 0.0000 0.0000 0.0000
# 2 14.4786 139.8319 58.4071 0.0000 0.0000 0.0000
# 3 25.3913 58.4071 80.8033 0.0000 0.0000 0.0000
# 4 0.0000 0.0000 0.0000 99.6758 0.0000 0.0000
# 5 0.0000 0.0000 0.0000 0.0000 17.4452 0.0000
# 6 0.0000 0.0000 0.0000 0.0000 0.0000 18.6157
#
#
#
# Elastic Compliance Matrix: (Units=1/GPa)
#
#
# Indices 1 2 3 4 5 6 
#
# 1 0.017423 0.000692 -0.005975 0.000000 0.000000 0.000000
# 2 0.000692 0.010272 -0.007642 0.000000 0.000000 0.000000
# 3 -0.005975 -0.007642 0.019777 0.000000 0.000000 0.000000
# 4 0.000000 0.000000 0.000000 0.010033 0.000000 0.000000
# 5 0.000000 0.000000 0.000000 0.000000 0.057322 0.000000
# 6 0.000000 0.000000 0.000000 0.000000 0.000000 0.053718
#
#
# Mechanical properties :
#
#
# Convention : Reuss Voigt Hill
#
# Bulk Modulus (GPa) = 46.25029 53.63514 49.94271
# Shear Modulus (GPa) = 24.80115 39.67304 32.23710
#
# Velocity S-wave (km/s) = 3.36333 4.25384 3.83453
# Velocity P-wave (km/s) = 6.01480 6.97068 6.51031
#
# Compressibility (1/GPa) = 0.02162149
#
# Stress axis : x y z
#
# Youngs Moduli (GPa) = 57.39441 97.35251 50.56298
#
# Poissons Ratio (x) = -0.06733 0.30211
# Poissons Ratio (y) = -0.03970 0.38641
# Poissons Ratio (z) = 0.34293 0.74399
#
# Static dielectric constant tensor:
#      x y z
#    x 1.816090 0.000000 0.000000 
#    y 0.000000 1.828910 0.000000 
#    z 0.000000 0.000000 2.811140 
# 
# From -- ./inp_files/14494.got.cif
#   From: 2010.05.17/outbox.cif.g08.bks.cpg/sg22_8_cif.got.tgz:14494.got - 2010.06.03 23:40:54.
