data_PCOD9327733
_publ_section_title
;
Structure prediction by ZEFSAII (Michael W. Deem and Ramdas Pophale) SiO2 
 PCOD9327733
Probable space group: F 2 2 2
;
_chemical_formula_sum "Si O2"
_cell_formula_units_Z 44
_cell_length_a 19.500752
_cell_length_b 18.099059
_cell_length_c 4.790934
_cell_angle_alpha 90.000000
_cell_angle_beta 90.000000
_cell_angle_gamma 90.000000
_cell_volume 1690.937451
_symmetry_space_group_name_H-M "F 2 2 2"
_symmetry_group_IT_number 22
_symmetry_cell_setting 'orthorhombic'
loop_
_space_group_symop_operation_xyz
x,y,z
-x,-y,z
x,-y,-z
-x,y,-z
x,1/2+y,1/2+z
-x,1/2-y,1/2+z
x,1/2-y,1/2-z
-x,1/2+y,1/2-z
1/2+x,y,1/2+z
1/2-x,-y,1/2+z
1/2+x,-y,1/2-z
1/2-x,y,1/2-z
1/2+x,1/2+y,z
1/2-x,1/2-y,z
1/2+x,1/2-y,-z
1/2-x,1/2+y,-z
loop_
_atom_site_type_symbol
_atom_site_label
_atom_site_fract_x
_atom_site_fract_y
_atom_site_fract_z
Si Si1 0.402617 0.905002 0.894696
Si Si2 0.000000 0.500000 0.500000
Si Si3 0.819711 0.120572 0.083577
Si Si4 0.376159 0.250000 0.250000
O O1 0.458692 0.949072 0.722455
O O2 0.332953 0.918303 0.712491
O O3 0.418717 0.817794 0.869859
O O4 0.379397 0.910962 0.213051
O O5 0.750000 0.114146 0.250000
O O6 0.832057 0.205856 0.982611
#
# Coordination Sequence:
#
# PCOD9327733 Si02
#       4
#    16   4  16   8
#     4  10  24  42  73 110 156 216 261 325 400 468
#     4  12  28  54  76 110 176 220 288 324 372 470
#     4  10  21  42  74 119 152 198 260 339 408 485
#     4   8  22  41  70 114 150 194 267 310 424 460
#
# _framework density 26.021070000000002
#
# number of rings (size 3 to 8) (size 9 to 14) (size 15 to 20)
#    2.182    0.000    0.000    2.182    0.000    8.727 
#    0.000    7.273    0.000    0.000    0.000    0.000 
#    0.000    0.000    0.000    0.000    0.000    0.000 
#
# Total GULP energy -61285.628632 kJ/mol
# GULP energy per Si atom -5571.420785 kJ/mol
# Density = 2.596185 g / cm^3
# Si number density = 26.021070 Si / 1000 Ang^3
#
#
#
# Elastic Constant Matrix: (Units=GPa)
#
#
# Indices 1 2 3 4 5 6 
#
# 1 109.4714 38.3113 38.0471 0.0007 0.0015 0.0016
# 2 38.3113 118.5228 16.8102 -0.0152 0.0074 0.0012
# 3 38.0471 16.8102 185.3424 -0.0076 -0.0016 -0.0005
# 4 0.0007 -0.0152 -0.0076 25.5997 0.0042 -0.0033
# 5 0.0015 0.0074 -0.0016 0.0042 28.5149 -0.0028
# 6 0.0016 0.0012 -0.0005 -0.0033 -0.0028 26.3100
#
#
#
# Elastic Compliance Matrix: (Units=1/GPa)
#
#
# Indices 1 2 3 4 5 6 
#
# 1 0.010956 -0.003264 -0.001953 -0.000003 0.000000 -0.000001
# 2 -0.003264 0.009520 -0.000193 0.000006 -0.000002 0.000000
# 3 -0.001953 -0.000193 0.005814 0.000002 0.000000 0.000000
# 4 -0.000003 0.000006 0.000002 0.039063 -0.000006 0.000005
# 5 0.000000 -0.000002 0.000000 -0.000006 0.035069 0.000004
# 6 -0.000001 0.000000 0.000000 0.000005 0.000004 0.038008
#
#
# Mechanical properties :
#
#
# Convention : Reuss Voigt Hill
#
# Bulk Modulus (GPa) = 64.64849 66.63040 65.63944
# Shear Modulus (GPa) = 32.38177 37.42945 34.90561
#
# Velocity S-wave (km/s) = 3.53149 3.79678 3.66654
# Velocity P-wave (km/s) = 6.44416 6.69945 6.57304
#
# Compressibility (1/GPa) = 0.01546827
#
# Stress axis : x y z
#
# Youngs Moduli (GPa) = 91.27416 105.04415 172.00281
#
# Poissons Ratio (x) = 0.34291 0.33592
# Poissons Ratio (y) = 0.29796 0.03325
# Poissons Ratio (z) = 0.17826 0.02031
#
# Static dielectric constant tensor:
#      x y z
#    x 2.119390 0.000000 0.000020 
#    y 0.000000 2.112230 0.000000 
#    z 0.000020 0.000000 1.960130 
# 
# From -- ./inp_files/3383.got.cif
#   From: 2010.05.17/outbox.cif.g08.bks.cpg/sg22_2_cif.got.tgz:3383.got - 2010.06.03 23:40:54.
