data_PCOD9327506
_publ_section_title
;
Structure prediction by ZEFSAII (Michael W. Deem and Ramdas Pophale) SiO2 
 PCOD9327506
Probable space group: F 2 2 2
;
_chemical_formula_sum "Si O2"
_cell_formula_units_Z 104
_cell_length_a 30.507655
_cell_length_b 9.407049
_cell_length_c 18.837647
_cell_angle_alpha 90.000000
_cell_angle_beta 90.000000
_cell_angle_gamma 90.000000
_cell_volume 5406.159902
_symmetry_space_group_name_H-M "F 2 2 2"
_symmetry_group_IT_number 22
_symmetry_cell_setting 'orthorhombic'
loop_
_space_group_symop_operation_xyz
x,y,z
-x,-y,z
x,-y,-z
-x,y,-z
x,1/2+y,1/2+z
-x,1/2-y,1/2+z
x,1/2-y,1/2-z
-x,1/2+y,1/2-z
1/2+x,y,1/2+z
1/2-x,-y,1/2+z
1/2+x,-y,1/2-z
1/2-x,y,1/2-z
1/2+x,1/2+y,z
1/2-x,1/2-y,z
1/2+x,1/2-y,-z
1/2-x,1/2+y,-z
loop_
_atom_site_type_symbol
_atom_site_label
_atom_site_fract_x
_atom_site_fract_y
_atom_site_fract_z
Si Si1 0.003020 0.160809 0.132306
Si Si2 0.927729 0.777612 0.460511
Si Si3 0.640171 0.035518 0.579843
Si Si4 0.699222 0.756590 0.164527
Si Si5 0.069783 0.750000 0.750000
Si Si6 0.876845 0.456012 0.852154
Si Si7 0.091906 0.758486 0.125373
O O1 0.023966 0.261935 0.072137
O O2 0.037948 0.170089 0.195583
O O3 0.955153 0.206253 0.158868
O O4 0.000000 0.000000 0.104429
O O5 0.901851 0.636324 0.433927
O O6 0.902662 0.906504 0.422783
O O7 0.921988 0.776870 0.544085
O O8 0.673357 0.127194 0.627134
O O9 0.657116 0.000000 0.500000
O O10 0.623393 0.894595 0.619165
O O11 0.697192 0.750000 0.250000
O O12 0.750000 0.750000 0.143471
O O13 0.672699 0.898973 0.142823
O O14 0.099829 0.636985 0.790847
O O15 0.884267 0.622268 0.841983
#
# Coordination Sequence:
#
# PCOD9327506 Si02
#       7
#    16  16  16  16   8  16  16
#     4  11  22  34  53  81 118 167 204 249 287 346
#     4   9  19  36  56  81 121 160 205 244 298 355
#     4   9  19  38  60  91 124 156 197 252 313 367
#     4  10  21  42  69  89 115 160 203 241 314 398
#     4  10  24  38  51  76 126 154 205 238 302 352
#     4  10  21  39  59  85 117 158 194 254 301 367
#     4  11  21  34  60  89 114 157 206 255 298 340
#
# _framework density 19.237316
#
# number of rings (size 3 to 8) (size 9 to 14) (size 15 to 20)
#    0.000    2.000    2.308    0.923    2.154    2.462 
#    0.000    8.462    0.000    1.846    0.000    0.000 
#    0.000    0.000    0.000    0.000    0.000    0.000 
#
# Total GULP energy -145163.560520 kJ/mol
# GULP energy per Si atom -5583.213866 kJ/mol
# Density = 1.919353 g / cm^3
# Si number density = 19.237316 Si / 1000 Ang^3
#
#
#
# Elastic Constant Matrix: (Units=GPa)
#
#
# Indices 1 2 3 4 5 6 
#
# 1 138.2273 55.3990 26.6301 0.0000 0.0000 0.0000
# 2 55.3990 119.3644 6.7562 0.0000 0.0000 0.0000
# 3 26.6301 6.7562 61.5660 0.0000 0.0000 0.0000
# 4 0.0000 0.0000 0.0000 20.4916 0.0000 0.0000
# 5 0.0000 0.0000 0.0000 0.0000 20.4119 0.0000
# 6 0.0000 0.0000 0.0000 0.0000 0.0000 12.1357
#
#
#
# Elastic Compliance Matrix: (Units=1/GPa)
#
#
# Indices 1 2 3 4 5 6 
#
# 1 0.009662 -0.004274 -0.003710 0.000000 0.000000 0.000000
# 2 -0.004274 0.010321 0.000716 0.000000 0.000000 0.000000
# 3 -0.003710 0.000716 0.017769 0.000000 0.000000 0.000000
# 4 0.000000 0.000000 0.000000 0.048800 0.000000 0.000000
# 5 0.000000 0.000000 0.000000 0.000000 0.048991 0.000000
# 6 0.000000 0.000000 0.000000 0.000000 0.000000 0.082401
#
#
# Mechanical properties :
#
#
# Convention : Reuss Voigt Hill
#
# Bulk Modulus (GPa) = 43.07490 55.19203 49.13346
# Shear Modulus (GPa) = 20.81420 25.96602 23.39011
#
# Velocity S-wave (km/s) = 3.29290 3.67791 3.49072
# Velocity P-wave (km/s) = 6.07433 6.84021 6.46861
#
# Compressibility (1/GPa) = 0.02321538
#
# Stress axis : x y z
#
# Youngs Moduli (GPa) = 103.49387 96.88972 56.27767
#
# Poissons Ratio (x) = 0.41415 0.20881
# Poissons Ratio (y) = 0.44238 -0.04031
# Poissons Ratio (z) = 0.38400 -0.06940
#
# Static dielectric constant tensor:
#      x y z
#    x 1.655280 0.000000 0.000000 
#    y 0.000000 1.686250 0.000000 
#    z 0.000000 0.000000 1.726130 
# 
# From -- ./inp_files/46030.got.cif
#   From: 2010.05.17/outbox.cif.g08.bks.cpg/sg22_24_cif.got.tgz:46030.got - 2010.06.03 23:40:54.
