data_PCOD9327499
_publ_section_title
;
Structure prediction by ZEFSAII (Michael W. Deem and Ramdas Pophale) SiO2 
 PCOD9327499
Probable space group: F 2 2 2
;
_chemical_formula_sum "Si O2"
_cell_formula_units_Z 96
_cell_length_a 20.529548
_cell_length_b 13.358916
_cell_length_c 14.305528
_cell_angle_alpha 90.000000
_cell_angle_beta 90.000000
_cell_angle_gamma 90.000000
_cell_volume 3923.326922
_symmetry_space_group_name_H-M "F 2 2 2"
_symmetry_group_IT_number 22
_symmetry_cell_setting 'orthorhombic'
loop_
_space_group_symop_operation_xyz
x,y,z
-x,-y,z
x,-y,-z
-x,y,-z
x,1/2+y,1/2+z
-x,1/2-y,1/2+z
x,1/2-y,1/2-z
-x,1/2+y,1/2-z
1/2+x,y,1/2+z
1/2-x,-y,1/2+z
1/2+x,-y,1/2-z
1/2-x,y,1/2-z
1/2+x,1/2+y,z
1/2-x,1/2-y,z
1/2+x,1/2-y,-z
1/2-x,1/2+y,-z
loop_
_atom_site_type_symbol
_atom_site_label
_atom_site_fract_x
_atom_site_fract_y
_atom_site_fract_z
Si Si1 0.962393 0.597909 0.724792
Si Si2 0.512816 0.268433 0.607740
Si Si3 0.677600 0.064862 0.211474
Si Si4 0.181150 0.726490 0.064551
Si Si5 0.264466 0.583257 0.581893
Si Si6 0.620748 0.393237 0.954033
O O1 0.887512 0.563759 0.729722
O O2 0.000000 0.500000 0.690894
O O3 0.002197 0.639212 0.818606
O O4 0.963591 0.689928 0.653898
O O5 0.500000 0.299928 0.500000
O O6 0.573796 0.188687 0.596662
O O7 0.750000 0.091603 0.250000
O O8 0.653024 0.143271 0.131577
O O9 0.692177 0.958911 0.164108
O O10 0.250000 0.750000 0.110314
O O11 0.199728 0.675911 0.965652
O O12 0.147660 0.829203 0.041653
O O13 0.264219 0.500000 0.500000
O O14 0.188010 0.592714 0.604876
O O15 0.597862 0.500000 0.000000
#
# Coordination Sequence:
#
# PCOD9327499 Si02
#       6
#    16  16  16  16  16  16
#     4  11  29  50  72 111 157 194 256 319 373 470
#     4  11  27  49  74 108 147 205 256 306 389 452
#     4  11  24  42  72 104 145 185 246 308 388 433
#     4   9  19  39  66 104 144 184 241 312 368 449
#     4   8  18  37  66 104 138 183 235 301 370 446
#     4  10  21  38  71 105 142 190 255 305 373 459
#
# _framework density 24.46903
#
# number of rings (size 3 to 8) (size 9 to 14) (size 15 to 20)
#    0.000    2.000    0.000    2.000    7.000    7.333 
#    3.000    0.000    0.000    3.500    0.000    0.000 
#    0.000    0.000    0.000    0.000    0.000    0.000 
#
# Total GULP energy -133665.553511 kJ/mol
# GULP energy per Si atom -5569.398063 kJ/mol
# Density = 2.441334 g / cm^3
# Si number density = 24.469030 Si / 1000 Ang^3
#
#
#
# Elastic Constant Matrix: (Units=GPa)
#
#
# Indices 1 2 3 4 5 6 
#
# 1 117.5347 6.7547 9.8002 0.0000 0.0000 0.0000
# 2 6.7547 101.3720 10.6128 0.0000 0.0000 0.0000
# 3 9.8002 10.6128 65.8264 0.0000 0.0000 0.0000
# 4 0.0000 0.0000 0.0000 41.0568 0.0000 0.0000
# 5 0.0000 0.0000 0.0000 0.0000 15.9349 0.0000
# 6 0.0000 0.0000 0.0000 0.0000 0.0000 14.4476
#
#
#
# Elastic Compliance Matrix: (Units=1/GPa)
#
#
# Indices 1 2 3 4 5 6 
#
# 1 0.008635 -0.000448 -0.001213 0.000000 0.000000 0.000000
# 2 -0.000448 0.010057 -0.001555 0.000000 0.000000 0.000000
# 3 -0.001213 -0.001555 0.015623 0.000000 0.000000 0.000000
# 4 0.000000 0.000000 0.000000 0.024356 0.000000 0.000000
# 5 0.000000 0.000000 0.000000 0.000000 0.062755 0.000000
# 6 0.000000 0.000000 0.000000 0.000000 0.000000 0.069216
#
#
# Mechanical properties :
#
#
# Convention : Reuss Voigt Hill
#
# Bulk Modulus (GPa) = 35.86497 37.67429 36.76963
# Shear Modulus (GPa) = 24.22837 31.45888 27.84362
#
# Velocity S-wave (km/s) = 3.15010 3.58950 3.37696
# Velocity P-wave (km/s) = 5.28393 5.71047 5.50134
#
# Compressibility (1/GPa) = 0.02788236
#
# Stress axis : x y z
#
# Youngs Moduli (GPa) = 115.80697 99.43024 64.00914
#
# Poissons Ratio (x) = 0.04458 0.07766
# Poissons Ratio (y) = 0.05192 0.09952
# Poissons Ratio (z) = 0.14051 0.15459
#
# Static dielectric constant tensor:
#      x y z
#    x 1.864390 0.000000 0.000000 
#    y 0.000000 1.961140 0.000000 
#    z 0.000000 0.000000 2.000060 
# 
# From -- ./inp_files/31536.got.cif
#   From: 2010.05.17/outbox.cif.g08.bks.cpg/sg22_16_cif.got.tgz:31536.got - 2010.06.03 23:40:54.
