data_PCOD9327484
_publ_section_title
;
Structure prediction by ZEFSAII (Michael W. Deem and Ramdas Pophale) SiO2 
 PCOD9327484
Probable space group: F 2 2 2
;
_chemical_formula_sum "Si O2"
_cell_formula_units_Z 116
_cell_length_a 13.145214
_cell_length_b 16.823036
_cell_length_c 24.590452
_cell_angle_alpha 90.000000
_cell_angle_beta 90.000000
_cell_angle_gamma 90.000000
_cell_volume 5437.991778
_symmetry_space_group_name_H-M "F 2 2 2"
_symmetry_group_IT_number 22
_symmetry_cell_setting 'orthorhombic'
loop_
_space_group_symop_operation_xyz
x,y,z
-x,-y,z
x,-y,-z
-x,y,-z
x,1/2+y,1/2+z
-x,1/2-y,1/2+z
x,1/2-y,1/2-z
-x,1/2+y,1/2-z
1/2+x,y,1/2+z
1/2-x,-y,1/2+z
1/2+x,-y,1/2-z
1/2-x,y,1/2-z
1/2+x,1/2+y,z
1/2-x,1/2-y,z
1/2+x,1/2-y,-z
1/2-x,1/2+y,-z
loop_
_atom_site_type_symbol
_atom_site_label
_atom_site_fract_x
_atom_site_fract_y
_atom_site_fract_z
Si Si1 0.914896 0.357209 0.710194
Si Si2 0.839252 0.861386 0.494983
Si Si3 0.852718 0.532549 0.727754
Si Si4 0.504840 0.588839 0.586813
Si Si5 0.066726 0.667991 0.194603
Si Si6 0.384334 0.176959 0.518996
Si Si7 0.106327 0.671707 0.351533
Si Si8 0.750000 0.750000 0.250000
O O1 0.913317 0.452463 0.714317
O O2 0.811495 0.309744 0.711043
O O3 0.971488 0.326932 0.764885
O O4 0.985531 0.336115 0.659350
O O5 0.898198 0.891952 0.442046
O O6 0.716775 0.869674 0.497508
O O7 0.867016 0.768096 0.500741
O O8 0.902141 0.903509 0.543864
O O9 0.750000 0.495658 0.750000
O O10 0.879843 0.592776 0.777150
O O11 0.847555 0.593023 0.676728
O O12 0.500000 0.500000 0.608724
O O13 0.527979 0.647693 0.635155
O O14 0.130164 0.748897 0.184174
O O15 0.500000 0.153385 0.500000
O O16 0.373684 0.176610 0.584783
#
# Coordination Sequence:
#
# PCOD9327484 Si02
#       8
#    16  16  16  16  16  16  16   4
#     4  11  22  43  61  93 130 168 214 267 323 387
#     4  10  21  38  64  95 126 167 221 274 337 386
#     4  11  24  37  63  96 131 169 213 264 325 398
#     4  11  21  41  69  95 131 167 220 290 337 385
#     4  11  21  39  62  96 128 170 213 263 333 398
#     4  11  22  42  64  93 132 176 224 277 326 401
#     4  11  22  40  65  88 133 171 213 264 329 390
#     4  12  20  40  68  88 120 176 212 268 308 380
#
# _framework density 21.331403999999999
#
# number of rings (size 3 to 8) (size 9 to 14) (size 15 to 20)
#    0.000    1.103    4.828    4.552    1.931    1.103 
#    2.483    0.000    9.103    0.000    0.000    0.000 
#    0.000    0.000    0.000    0.000    0.000    0.000 
#
# Total GULP energy -161654.472962 kJ/mol
# GULP energy per Si atom -5574.292171 kJ/mol
# Density = 2.128285 g / cm^3
# Si number density = 21.331404 Si / 1000 Ang^3
#
#
#
# Elastic Constant Matrix: (Units=GPa)
#
#
# Indices 1 2 3 4 5 6 
#
# 1 107.4378 21.9788 1.6903 0.0000 0.0000 0.0000
# 2 21.9788 124.4338 10.2825 0.0000 0.0000 0.0000
# 3 1.6903 10.2825 71.0517 0.0000 0.0000 0.0000
# 4 0.0000 0.0000 0.0000 16.1004 0.0000 0.0000
# 5 0.0000 0.0000 0.0000 0.0000 -43.3266 0.0000
# 6 0.0000 0.0000 0.0000 0.0000 0.0000 20.7692
#
#
#
# Elastic Compliance Matrix: (Units=1/GPa)
#
#
# Indices 1 2 3 4 5 6 
#
# 1 0.009657 -0.001707 0.000017 0.000000 0.000000 0.000000
# 2 -0.001707 0.008435 -0.001180 0.000000 0.000000 0.000000
# 3 0.000017 -0.001180 0.014245 0.000000 0.000000 0.000000
# 4 0.000000 0.000000 0.000000 0.062110 0.000000 0.000000
# 5 0.000000 0.000000 0.000000 0.000000 -0.023081 0.000000
# 6 0.000000 0.000000 0.000000 0.000000 0.000000 0.048148
#
#
# Mechanical properties :
#
#
# Convention : Reuss Voigt Hill
#
# Bulk Modulus (GPa) = 37.59836 41.20293 39.40065
# Shear Modulus (GPa) = 37.28003 16.64006 26.96005
#
# Velocity S-wave (km/s) = 4.18504 2.79601 3.55895
# Velocity P-wave (km/s) = 6.40444 5.45721 5.94970
#
# Compressibility (1/GPa) = 0.02659690
#
# Stress axis : x y z
#
# Youngs Moduli (GPa) = 103.55546 118.54742 70.20185
#
# Poissons Ratio (x) = 0.20237 -0.00122
# Poissons Ratio (y) = 0.17678 0.08285
# Poissons Ratio (z) = -0.00179 0.13990
#
# Static dielectric constant tensor:
#      x y z
#    x 1.905230 0.000000 0.000000 
#    y 0.000000 1.837710 0.000000 
#    z 0.000000 0.000000 1.742890 
# 
# From -- ./inp_files/49068.got.cif
#   From: 2010.05.17/outbox.cif.g08.bks.cpg/sg22_25_cif.got.tgz:49068.got - 2010.06.03 23:40:54.
