data_PCOD9327913
_publ_section_title
;
Structure prediction by ZEFSAII (Michael W. Deem and Ramdas Pophale) SiO2 
 PCOD9327913
Probable space group: F 2 2 2
;
_chemical_formula_sum "Si O2"
_cell_formula_units_Z 80
_cell_length_a 16.694678
_cell_length_b 10.527827
_cell_length_c 18.789822
_cell_angle_alpha 90.000000
_cell_angle_beta 90.000000
_cell_angle_gamma 90.000000
_cell_volume 3302.474346
_symmetry_space_group_name_H-M "F 2 2 2"
_symmetry_group_IT_number 22
_symmetry_cell_setting 'orthorhombic'
loop_
_space_group_symop_operation_xyz
x,y,z
-x,-y,z
x,-y,-z
-x,y,-z
x,1/2+y,1/2+z
-x,1/2-y,1/2+z
x,1/2-y,1/2-z
-x,1/2+y,1/2-z
1/2+x,y,1/2+z
1/2-x,-y,1/2+z
1/2+x,-y,1/2-z
1/2-x,y,1/2-z
1/2+x,1/2+y,z
1/2-x,1/2-y,z
1/2+x,1/2-y,-z
1/2-x,1/2+y,-z
loop_
_atom_site_type_symbol
_atom_site_label
_atom_site_fract_x
_atom_site_fract_y
_atom_site_fract_z
Si Si1 0.140914 0.635776 0.968114
Si Si2 0.533502 0.141735 0.844535
Si Si3 0.342160 0.034079 0.267864
Si Si4 0.095537 0.250000 0.750000
Si Si5 0.197602 0.519394 0.583050
Si Si6 0.750000 0.750000 0.921615
O O1 0.075333 0.687999 0.915959
O O2 0.223405 0.605691 0.925667
O O3 0.115879 0.500000 0.000000
O O4 0.171035 0.723344 0.031337
O O5 0.463342 0.231675 0.817174
O O6 0.500000 0.000000 0.859294
O O7 0.598563 0.113295 0.782632
O O8 0.250000 0.063943 0.250000
O O9 0.358714 0.883648 0.254188
O O10 0.356580 0.063198 0.351743
O O11 0.170639 0.500000 0.500000
O O12 0.231915 0.384351 0.612382
#
# Coordination Sequence:
#
# PCOD9327913 Si02
#       6
#    16  16  16   8  16   8
#     4   9  18  35  55  81 112 150 187 232 291 341
#     4  10  22  40  55  82 121 155 186 241 294 341
#     4  11  21  38  64  86 111 154 203 235 281 347
#     4  10  25  36  57  88 124 148 192 242 293 336
#     4   9  19  34  56  88 112 143 189 249 282 325
#     4   8  18  30  55  85 118 132 188 252 282 320
#
# _framework density 24.224260999999998
#
# number of rings (size 3 to 8) (size 9 to 14) (size 15 to 20)
#    0.000    2.800    2.000    0.300    2.800    5.200 
#    0.000    0.000    0.000   12.600    0.000    0.000 
#    0.000    0.000    0.000    0.000    0.000    0.000 
#
# Total GULP energy -111728.292606 kJ/mol
# GULP energy per Si atom -5586.414630 kJ/mol
# Density = 2.416913 g / cm^3
# Si number density = 24.224261 Si / 1000 Ang^3
#
#
#
# Elastic Constant Matrix: (Units=GPa)
#
#
# Indices 1 2 3 4 5 6 
#
# 1 64.0628 0.5192 40.9103 0.0000 0.0000 0.0000
# 2 0.5192 80.7787 -23.4774 0.0000 0.0000 0.0000
# 3 40.9103 -23.4774 124.4943 0.0000 0.0000 0.0000
# 4 0.0000 0.0000 0.0000 -16.2254 0.0000 0.0000
# 5 0.0000 0.0000 0.0000 0.0000 44.1238 0.0000
# 6 0.0000 0.0000 0.0000 0.0000 0.0000 -0.7687
#
#
#
# Elastic Compliance Matrix: (Units=1/GPa)
#
#
# Indices 1 2 3 4 5 6 
#
# 1 0.020108 -0.002169 -0.007017 0.000000 0.000000 0.000000
# 2 -0.002169 0.013331 0.003227 0.000000 0.000000 0.000000
# 3 -0.007017 0.003227 0.010947 0.000000 0.000000 0.000000
# 4 0.000000 0.000000 0.000000 -0.061632 0.000000 0.000000
# 5 0.000000 0.000000 0.000000 0.000000 0.022664 0.000000
# 6 0.000000 0.000000 0.000000 0.000000 0.000000 -1.300859
#
#
# Mechanical properties :
#
#
# Convention : Reuss Voigt Hill
#
# Bulk Modulus (GPa) = 30.79879 33.91557 32.35718
# Shear Modulus (GPa) = -3.92865 22.18484 9.12809
#
# Velocity S-wave (km/s) = -1.27487 3.02952 1.94328
# Velocity P-wave (km/s) = 3.25185 5.12527 4.29202
#
# Compressibility (1/GPa) = 0.03246880
#
# Stress axis : x y z
#
# Youngs Moduli (GPa) = 49.73119 75.01188 91.35114
#
# Poissons Ratio (x) = 0.16267 0.64099
# Poissons Ratio (y) = 0.10785 -0.29476
# Poissons Ratio (z) = 0.34895 -0.24204
#
# Static dielectric constant tensor:
#      x y z
#    x 1.886390 0.000000 0.000000 
#    y 0.000000 1.972980 0.000000 
#    z 0.000000 0.000000 1.988430 
# 
# From -- ./inp_files/38709.got.cif
#   From: 2010.05.17/outbox.cif.g08.bks.cpg/sg22_20_cif.got.tgz:38709.got - 2010.06.03 23:40:54.
