data_PCOD9327607
_publ_section_title
;
Structure prediction by ZEFSAII (Michael W. Deem and Ramdas Pophale) SiO2 
 PCOD9327607
Probable space group: F 2 2 2
;
_chemical_formula_sum "Si O2"
_cell_formula_units_Z 80
_cell_length_a 23.784183
_cell_length_b 16.880251
_cell_length_c 9.293156
_cell_angle_alpha 90.000000
_cell_angle_beta 90.000000
_cell_angle_gamma 90.000000
_cell_volume 3731.043954
_symmetry_space_group_name_H-M "F 2 2 2"
_symmetry_group_IT_number 22
_symmetry_cell_setting 'orthorhombic'
loop_
_space_group_symop_operation_xyz
x,y,z
-x,-y,z
x,-y,-z
-x,y,-z
x,1/2+y,1/2+z
-x,1/2-y,1/2+z
x,1/2-y,1/2-z
-x,1/2+y,1/2-z
1/2+x,y,1/2+z
1/2-x,-y,1/2+z
1/2+x,-y,1/2-z
1/2-x,y,1/2-z
1/2+x,1/2+y,z
1/2-x,1/2-y,z
1/2+x,1/2-y,-z
1/2-x,1/2+y,-z
loop_
_atom_site_type_symbol
_atom_site_label
_atom_site_fract_x
_atom_site_fract_y
_atom_site_fract_z
Si Si1 0.835694 0.751804 0.415911
Si Si2 0.656884 0.082277 0.458333
Si Si3 0.962322 0.579207 0.382632
Si Si4 0.538361 0.693296 0.366564
Si Si5 0.314041 0.335055 0.694982
O O1 0.817115 0.750000 0.250000
O O2 0.820269 0.665775 0.480405
O O3 0.903329 0.764856 0.410794
O O4 0.815264 0.821640 0.523321
O O5 0.597237 0.074383 0.538368
O O6 0.653775 0.097175 0.285653
O O7 0.687555 0.000000 0.500000
O O8 0.950438 0.616285 0.228795
O O9 0.000000 0.500000 0.360698
O O10 0.000000 0.627101 0.500000
O O11 0.500000 0.675783 0.500000
O O12 0.508638 0.750000 0.250000
O O13 0.337251 0.250000 0.750000
O O14 0.250000 0.342277 0.750000
#
# Coordination Sequence:
#
# PCOD9327607 Si02
#       5
#    16  16  16  16  16
#     4  10  21  40  65  93 128 167 221 276 327 390
#     4  11  21  39  63  90 130 170 214 266 331 394
#     4  11  22  37  57  87 129 170 208 252 319 385
#     4  11  23  35  58  87 123 163 215 257 313 380
#     4   9  21  42  68  95 124 171 226 275 335 397
#
# _framework density 21.44172
#
# number of rings (size 3 to 8) (size 9 to 14) (size 15 to 20)
#    0.000    1.600    6.000    0.600    2.800    1.200 
#    0.000   11.000    0.000    0.000    0.000    0.000 
#    0.000    0.000    0.000    0.000    0.000    0.000 
#
# Total GULP energy -111335.140861 kJ/mol
# GULP energy per Si atom -5566.757043 kJ/mol
# Density = 2.139292 g / cm^3
# Si number density = 21.441720 Si / 1000 Ang^3
#
#
#
# Elastic Constant Matrix: (Units=GPa)
#
#
# Indices 1 2 3 4 5 6 
#
# 1 61.0414 17.0359 48.6663 0.0000 0.0000 0.0000
# 2 17.0359 96.4054 54.3952 0.0000 0.0000 0.0000
# 3 48.6663 54.3952 187.4767 0.0000 0.0000 0.0000
# 4 0.0000 0.0000 0.0000 18.4139 0.0000 0.0000
# 5 0.0000 0.0000 0.0000 0.0000 25.4671 0.0000
# 6 0.0000 0.0000 0.0000 0.0000 0.0000 5.6751
#
#
#
# Elastic Compliance Matrix: (Units=1/GPa)
#
#
# Indices 1 2 3 4 5 6 
#
# 1 0.020703 -0.000749 -0.005157 0.000000 0.000000 0.000000
# 2 -0.000749 0.012430 -0.003412 0.000000 0.000000 0.000000
# 3 -0.005157 -0.003412 0.007663 0.000000 0.000000 0.000000
# 4 0.000000 0.000000 0.000000 0.054307 0.000000 0.000000
# 5 0.000000 0.000000 0.000000 0.000000 0.039266 0.000000
# 6 0.000000 0.000000 0.000000 0.000000 0.000000 0.176209
#
#
# Mechanical properties :
#
#
# Convention : Reuss Voigt Hill
#
# Bulk Modulus (GPa) = 45.12609 65.01314 55.06961
# Shear Modulus (GPa) = 14.85440 24.89961 19.87701
#
# Velocity S-wave (km/s) = 2.63493 3.41144 3.04801
# Velocity P-wave (km/s) = 5.50897 6.77524 6.17465
#
# Compressibility (1/GPa) = 0.02216013
#
# Stress axis : x y z
#
# Youngs Moduli (GPa) = 48.30290 80.44737 130.50223
#
# Poissons Ratio (x) = 0.06023 0.67299
# Poissons Ratio (y) = 0.03616 0.44531
# Poissons Ratio (z) = 0.24909 0.27451
#
# Static dielectric constant tensor:
#      x y z
#    x 1.825510 0.000000 0.000000 
#    y 0.000000 1.906290 0.000000 
#    z 0.000000 0.000000 1.859510 
# 
# From -- ./inp_files/14666.got.cif
#   From: 2010.05.17/outbox.cif.g08.bks.cpg/sg22_8_cif.got.tgz:14666.got - 2010.06.03 23:40:54.
