data_PCOD9327403
_publ_section_title
;
Structure prediction by ZEFSAII (Michael W. Deem and Ramdas Pophale) SiO2 
 PCOD9327403
Probable space group: F 2 2 2
;
_chemical_formula_sum "Si O2"
_cell_formula_units_Z 116
_cell_length_a 27.827229
_cell_length_b 17.318094
_cell_length_c 12.203811
_cell_angle_alpha 90.000000
_cell_angle_beta 90.000000
_cell_angle_gamma 90.000000
_cell_volume 5881.194301
_symmetry_space_group_name_H-M "F 2 2 2"
_symmetry_group_IT_number 22
_symmetry_cell_setting 'orthorhombic'
loop_
_space_group_symop_operation_xyz
x,y,z
-x,-y,z
x,-y,-z
-x,y,-z
x,1/2+y,1/2+z
-x,1/2-y,1/2+z
x,1/2-y,1/2-z
-x,1/2+y,1/2-z
1/2+x,y,1/2+z
1/2-x,-y,1/2+z
1/2+x,-y,1/2-z
1/2-x,y,1/2-z
1/2+x,1/2+y,z
1/2-x,1/2-y,z
1/2+x,1/2-y,-z
1/2-x,1/2+y,-z
loop_
_atom_site_type_symbol
_atom_site_label
_atom_site_fract_x
_atom_site_fract_y
_atom_site_fract_z
Si Si1 0.870012 0.688895 0.334024
Si Si2 0.500000 0.000000 0.500000
Si Si3 0.972932 0.824308 0.690769
Si Si4 0.575517 0.060786 0.332050
Si Si5 0.603461 0.311898 0.494335
Si Si6 0.930962 0.915777 0.325448
Si Si7 0.804142 0.238144 0.120579
Si Si8 0.168704 0.919153 0.021165
O O1 0.844540 0.750000 0.250000
O O2 0.898541 0.743208 0.417620
O O3 0.906223 0.639095 0.263611
O O4 0.840935 0.627602 0.407934
O O5 0.532440 0.048451 0.417423
O O6 0.995123 0.750000 0.750000
O O7 0.933440 0.857756 0.775360
O O8 0.941937 0.805047 0.584687
O O9 0.013839 0.887736 0.666059
O O10 0.621804 0.055360 0.408828
O O11 0.573913 0.999343 0.231547
O O12 0.596362 0.392478 0.561465
O O13 0.654461 0.292001 0.435026
O O14 0.806215 0.250000 0.250000
O O15 0.750000 0.250000 0.078383
O O16 0.811299 0.147968 0.096871
O O17 0.195491 0.000000 0.000000
#
# Coordination Sequence:
#
# PCOD9327403 Si02
#       8
#    16   4  16  16  16  16  16  16
#     4   9  18  35  57  86 122 164 211 255 312 375
#     4  12  20  40  56  86 124 164 222 256 300 358
#     4  12  23  36  53  85 127 170 218 255 305 385
#     4  12  23  37  58  89 126 168 220 264 314 372
#     4  10  21  37  60  87 120 168 209 257 322 392
#     4  11  21  37  55  87 128 170 207 259 311 378
#     4  10  22  44  73  93 123 162 220 280 342 405
#     4  11  20  36  68  96 124 168 213 274 329 392
#
# _framework density 19.723884999999999
#
# number of rings (size 3 to 8) (size 9 to 14) (size 15 to 20)
#    0.000    1.241    3.448    4.552    0.000    0.552 
#    2.483    1.379    9.103   26.483    0.000    0.000 
#    0.000    0.000    0.000    0.000    0.000    0.000 
#
# Total GULP energy -161578.122812 kJ/mol
# GULP energy per Si atom -5571.659407 kJ/mol
# Density = 1.967899 g / cm^3
# Si number density = 19.723885 Si / 1000 Ang^3
#
#
#
# Elastic Constant Matrix: (Units=GPa)
#
#
# Indices 1 2 3 4 5 6 
#
# 1 56.0167 19.5269 6.3367 0.0000 0.0000 0.0000
# 2 19.5269 105.3541 40.6435 0.0000 0.0000 0.0000
# 3 6.3367 40.6435 80.5793 0.0000 0.0000 0.0000
# 4 0.0000 0.0000 0.0000 22.9914 0.0000 0.0000
# 5 0.0000 0.0000 0.0000 0.0000 3.1965 0.0000
# 6 0.0000 0.0000 0.0000 0.0000 0.0000-3607.9121
#
#
#
# Elastic Compliance Matrix: (Units=1/GPa)
#
#
# Indices 1 2 3 4 5 6 
#
# 1 0.019093 -0.003675 0.000352 0.000000 0.000000 0.000000
# 2 -0.003675 0.012492 -0.006012 0.000000 0.000000 0.000000
# 3 0.000352 -0.006012 0.015415 0.000000 0.000000 0.000000
# 4 0.000000 0.000000 0.000000 0.043494 0.000000 0.000000
# 5 0.000000 0.000000 0.000000 0.000000 0.312840 0.000000
# 6 0.000000 0.000000 0.000000 0.000000 0.000000 -0.000277
#
#
# Mechanical properties :
#
#
# Convention : Reuss Voigt Hill
#
# Bulk Modulus (GPa) = 35.29729 41.66269 38.47999
# Shear Modulus (GPa) = 11.59636 -704.64861 -346.52613
#
# Velocity S-wave (km/s) = 2.42737 -18.92174 -13.26914
# Velocity P-wave (km/s) = 5.07845 21.35901 14.66998
#
# Compressibility (1/GPa) = 0.02833079
#
# Stress axis : x y z
#
# Youngs Moduli (GPa) = 52.37542 80.05020 64.87256
#
# Poissons Ratio (x) = 0.29415 -0.02283
# Poissons Ratio (y) = 0.19246 0.39001
# Poissons Ratio (z) = -0.01843 0.48126
#
# Static dielectric constant tensor:
#      x y z
#    x 1.694460 0.000000 0.000000 
#    y 0.000000 1.718150 0.000000 
#    z 0.000000 0.000000 3.519910 
# 
# From -- ./inp_files/25494.got.cif
#   From: 2010.05.17/outbox.cif.g08.bks.cpg/sg22_13_cif.got.tgz:25494.got - 2010.06.03 23:40:54.
