data_PCOD9327033
_publ_section_title
;
Structure prediction by ZEFSAII (Michael W. Deem and Ramdas Pophale) SiO2 
 PCOD9327033
Probable space group: F 2 2 2
;
_chemical_formula_sum "Si O2"
_cell_formula_units_Z 92
_cell_length_a 22.107260
_cell_length_b 21.594765
_cell_length_c 9.299436
_cell_angle_alpha 90.000000
_cell_angle_beta 90.000000
_cell_angle_gamma 90.000000
_cell_volume 4439.560832
_symmetry_space_group_name_H-M "F 2 2 2"
_symmetry_group_IT_number 22
_symmetry_cell_setting 'orthorhombic'
loop_
_space_group_symop_operation_xyz
x,y,z
-x,-y,z
x,-y,-z
-x,y,-z
x,1/2+y,1/2+z
-x,1/2-y,1/2+z
x,1/2-y,1/2-z
-x,1/2+y,1/2-z
1/2+x,y,1/2+z
1/2-x,-y,1/2+z
1/2+x,-y,1/2-z
1/2-x,y,1/2-z
1/2+x,1/2+y,z
1/2-x,1/2-y,z
1/2+x,1/2-y,-z
1/2-x,1/2+y,-z
loop_
_atom_site_type_symbol
_atom_site_label
_atom_site_fract_x
_atom_site_fract_y
_atom_site_fract_z
Si Si1 0.000000 0.000000 0.500000
Si Si2 0.403876 0.099756 0.984575
Si Si3 0.317348 0.378181 0.276288
Si Si4 0.421673 0.370329 0.072274
Si Si5 0.318250 0.526056 0.267808
Si Si6 0.536251 0.677312 0.770053
Si Si7 0.399282 0.000000 0.500000
O O1 0.950547 0.949512 0.439529
O O2 0.356801 0.060814 0.887494
O O3 0.441683 0.141202 0.871588
O O4 0.362332 0.139384 0.093225
O O5 0.250000 0.353896 0.250000
O O6 0.354798 0.365535 0.132899
O O7 0.312918 0.452691 0.299626
O O8 0.467950 0.338524 0.181935
O O9 0.436156 0.443731 0.067139
O O10 0.428091 0.344013 0.912868
O O11 0.250000 0.550340 0.250000
O O12 0.356063 0.529096 0.120896
O O13 0.543016 0.750000 0.750000
#
# Coordination Sequence:
#
# PCOD9327033 Si02
#       7
#     4  16  16  16  16  16   8
#     4  12  24  34  56 102 134 156 208 258 332 372
#     4  12  23  39  62  97 131 172 211 271 321 393
#     4  10  22  39  64  97 136 165 205 260 335 405
#     4  10  23  42  65  98 127 169 210 270 327 392
#     4  10  21  34  60  94 136 173 205 254 325 407
#     4  11  26  44  66  87 125 179 225 267 318 386
#     4  10  20  38  60 104 133 161 204 266 340 388
#
# _framework density 20.722770000000001
#
# number of rings (size 3 to 8) (size 9 to 14) (size 15 to 20)
#    0.000    1.391    3.478    1.043    9.739    5.565 
#    0.000    0.000    0.000    8.348    0.000    0.000 
#    0.000    0.000    0.000    0.000    0.000    0.000 
#
# Total GULP energy -128298.629257 kJ/mol
# GULP energy per Si atom -5578.201272 kJ/mol
# Density = 2.067560 g / cm^3
# Si number density = 20.722770 Si / 1000 Ang^3
#
#
#
# Elastic Constant Matrix: (Units=GPa)
#
#
# Indices 1 2 3 4 5 6 
#
# 1 128.7228 36.1891 48.5555 0.0000 0.0000 0.0000
# 2 36.1891 81.7147 29.1036 0.0000 0.0000 0.0000
# 3 48.5555 29.1036 106.5411 -0.0003 -0.0002 0.0007
# 4 0.0000 0.0000 -0.0003 33.6684 0.0000 -0.0002
# 5 0.0000 0.0000 -0.0002 0.0000 26.4116 0.0000
# 6 0.0000 0.0000 0.0007 -0.0002 0.0000 -129.0120
#
#
#
# Elastic Compliance Matrix: (Units=1/GPa)
#
#
# Indices 1 2 3 4 5 6 
#
# 1 0.010053 -0.003124 -0.003728 0.000000 0.000000 0.000000
# 2 -0.003124 0.014528 -0.002545 0.000000 0.000000 0.000000
# 3 -0.003728 -0.002545 0.011780 0.000000 0.000000 0.000000
# 4 0.000000 0.000000 0.000000 0.029701 0.000000 0.000000
# 5 0.000000 0.000000 0.000000 0.000000 0.037862 0.000000
# 6 0.000000 0.000000 0.000000 0.000000 0.000000 -0.007751
#
#
# Mechanical properties :
#
#
# Convention : Reuss Voigt Hill
#
# Bulk Modulus (GPa) = 56.92559 60.51943 58.72251
# Shear Modulus (GPa) = 41.38252 -0.24438 20.56907
#
# Velocity S-wave (km/s) = 4.47358 -0.34378 3.15395
# Velocity P-wave (km/s) = 7.36299 5.39538 6.45460
#
# Compressibility (1/GPa) = 0.01756679
#
# Stress axis : x y z
#
# Youngs Moduli (GPa) = 99.46888 68.83394 84.88766
#
# Poissons Ratio (x) = 0.21507 0.31648
# Poissons Ratio (y) = 0.31079 0.21600
# Poissons Ratio (z) = 0.37085 0.17515
#
# Static dielectric constant tensor:
#      x y z
#    x 1.768540 0.000000 0.000000 
#    y 0.000000 1.729530 0.000000 
#    z 0.000000 0.000000 1.787190 
# 
# From -- ./inp_files/13766.got.cif
#   From: 2010.05.17/outbox.cif.g08.bks.cpg/sg22_7_cif.got.tgz:13766.got - 2010.06.03 23:40:54.
