data_PCOD9327915
_publ_section_title
;
Structure prediction by ZEFSAII (Michael W. Deem and Ramdas Pophale) SiO2 
 PCOD9327915
Probable space group: F 2 2 2
;
_chemical_formula_sum "Si O2"
_cell_formula_units_Z 84
_cell_length_a 12.133829
_cell_length_b 13.648072
_cell_length_c 23.487895
_cell_angle_alpha 90.000000
_cell_angle_beta 90.000000
_cell_angle_gamma 90.000000
_cell_volume 3889.674609
_symmetry_space_group_name_H-M "F 2 2 2"
_symmetry_group_IT_number 22
_symmetry_cell_setting 'orthorhombic'
loop_
_space_group_symop_operation_xyz
x,y,z
-x,-y,z
x,-y,-z
-x,y,-z
x,1/2+y,1/2+z
-x,1/2-y,1/2+z
x,1/2-y,1/2-z
-x,1/2+y,1/2-z
1/2+x,y,1/2+z
1/2-x,-y,1/2+z
1/2+x,-y,1/2-z
1/2-x,y,1/2-z
1/2+x,1/2+y,z
1/2-x,1/2-y,z
1/2+x,1/2-y,-z
1/2-x,1/2+y,-z
loop_
_atom_site_type_symbol
_atom_site_label
_atom_site_fract_x
_atom_site_fract_y
_atom_site_fract_z
Si Si1 0.623330 0.964935 0.880500
Si Si2 0.380575 0.735353 0.313671
Si Si3 0.000000 0.000000 0.000000
Si Si4 0.741480 0.644423 0.100932
Si Si5 0.155124 0.824621 0.477510
Si Si6 0.982568 0.834779 0.919742
O O1 0.609998 0.875477 0.836559
O O2 0.663507 0.921143 0.940401
O O3 0.500000 0.000000 0.889955
O O4 0.706974 0.052935 0.865881
O O5 0.424353 0.750000 0.250000
O O6 0.250000 0.750000 0.313153
O O7 0.434997 0.812689 0.357466
O O8 0.063421 0.924675 0.042133
O O9 0.750000 0.750000 0.131392
O O10 0.612584 0.639582 0.084032
O O11 0.816431 0.654918 0.043334
O O12 0.250000 0.750000 0.458433
O O13 0.049564 0.765477 0.452575
#
# Coordination Sequence:
#
# PCOD9327915 Si02
#       6
#    16  16   4  16  16  16
#     4  11  23  40  68  96 136 184 238 286 354 427
#     4  10  24  51  76  97 132 185 249 303 355 440
#     4  12  24  32  60 104 148 176 212 286 400 416
#     4  11  23  36  62 100 147 185 231 282 351 423
#     4  10  22  40  57  90 140 194 230 270 337 432
#     4  11  24  38  65 100 141 181 233 297 355 426
#
# _framework density 21.595637
#
# number of rings (size 3 to 8) (size 9 to 14) (size 15 to 20)
#    0.000    1.333    0.000    7.429    8.000    4.571 
#    1.714    0.000    0.000    4.000    0.000    0.000 
#    0.000    0.000    0.000    0.000    0.000    0.000 
#
# Total GULP energy -117146.705541 kJ/mol
# GULP energy per Si atom -5578.414550 kJ/mol
# Density = 2.154648 g / cm^3
# Si number density = 21.595637 Si / 1000 Ang^3
#
#
#
# Elastic Constant Matrix: (Units=GPa)
#
#
# Indices 1 2 3 4 5 6 
#
# 1 121.4674 30.8925 23.0165 0.0000 0.0000 0.0000
# 2 30.8925 153.9664 45.6558 0.0000 0.0000 0.0000
# 3 23.0165 45.6558 139.4677 0.0000 0.0000 0.0000
# 4 0.0000 0.0000 0.0000 19.7666 0.0000 0.0000
# 5 0.0000 0.0000 0.0000 0.0000 36.2151 0.0000
# 6 0.0000 0.0000 0.0000 0.0000 0.0000 40.4060
#
#
#
# Elastic Compliance Matrix: (Units=1/GPa)
#
#
# Indices 1 2 3 4 5 6 
#
# 1 0.008792 -0.001477 -0.000967 0.000000 0.000000 0.000000
# 2 -0.001477 0.007441 -0.002192 0.000000 0.000000 0.000000
# 3 -0.000967 -0.002192 0.008047 0.000000 0.000000 0.000000
# 4 0.000000 0.000000 0.000000 0.050591 0.000000 0.000000
# 5 0.000000 0.000000 0.000000 0.000000 0.027613 0.000000
# 6 0.000000 0.000000 0.000000 0.000000 0.000000 0.024749
#
#
# Mechanical properties :
#
#
# Convention : Reuss Voigt Hill
#
# Bulk Modulus (GPa) = 66.63555 68.22568 67.43061
# Shear Modulus (GPa) = 35.33363 40.29997 37.81680
#
# Velocity S-wave (km/s) = 4.04932 4.32454 4.18919
# Velocity P-wave (km/s) = 7.26537 7.52306 7.39534
#
# Compressibility (1/GPa) = 0.01500701
#
# Stress axis : x y z
#
# Youngs Moduli (GPa) = 113.74446 134.38397 124.26381
#
# Poissons Ratio (x) = 0.19850 0.12021
# Poissons Ratio (y) = 0.16802 0.27241
# Poissons Ratio (z) = 0.11003 0.29460
#
# Static dielectric constant tensor:
#      x y z
#    x 1.912380 0.000000 0.000000 
#    y 0.000000 1.722220 0.000000 
#    z 0.000000 0.000000 1.796140 
# 
# From -- ./inp_files/48054.got.cif
#   From: 2010.05.17/outbox.cif.g08.bks.cpg/sg22_25_cif.got.tgz:48054.got - 2010.06.03 23:40:54.
