data_PCOD9327130
_publ_section_title
;
Structure prediction by ZEFSAII (Michael W. Deem and Ramdas Pophale) SiO2 
 PCOD9327130
Probable space group: F 2 2 2
;
_chemical_formula_sum "Si O2"
_cell_formula_units_Z 116
_cell_length_a 9.172478
_cell_length_b 26.437545
_cell_length_c 24.465036
_cell_angle_alpha 90.000000
_cell_angle_beta 90.000000
_cell_angle_gamma 90.000000
_cell_volume 5932.717404
_symmetry_space_group_name_H-M "F 2 2 2"
_symmetry_group_IT_number 22
_symmetry_cell_setting 'orthorhombic'
loop_
_space_group_symop_operation_xyz
x,y,z
-x,-y,z
x,-y,-z
-x,y,-z
x,1/2+y,1/2+z
-x,1/2-y,1/2+z
x,1/2-y,1/2-z
-x,1/2+y,1/2-z
1/2+x,y,1/2+z
1/2-x,-y,1/2+z
1/2+x,-y,1/2-z
1/2-x,y,1/2-z
1/2+x,1/2+y,z
1/2-x,1/2-y,z
1/2+x,1/2-y,-z
1/2-x,1/2+y,-z
loop_
_atom_site_type_symbol
_atom_site_label
_atom_site_fract_x
_atom_site_fract_y
_atom_site_fract_z
Si Si1 0.340452 0.440021 0.009853
Si Si2 0.211147 0.692229 0.131429
Si Si3 0.825126 0.573813 0.121975
Si Si4 0.877022 0.375006 0.295075
Si Si5 0.408253 0.609303 0.445462
Si Si6 0.250000 0.750000 0.750000
Si Si7 0.671372 0.513323 0.808801
Si Si8 0.429373 0.660239 0.701858
O O1 0.280901 0.423575 0.069333
O O2 0.347805 0.500000 0.000000
O O3 0.500000 0.418319 0.000000
O O4 0.227189 0.422863 0.964664
O O5 0.250000 0.750000 0.121053
O O6 0.352704 0.668312 0.160861
O O7 0.156874 0.660083 0.080059
O O8 0.075849 0.680391 0.172238
O O9 0.765892 0.524238 0.153480
O O10 0.838351 0.620933 0.164295
O O11 0.987484 0.577086 0.095274
O O12 0.750000 0.371231 0.250000
O O13 0.841868 0.427799 0.325001
O O14 0.021552 0.368431 0.258140
O O15 0.500000 0.620717 0.500000
O O16 0.343856 0.711162 0.714648
O O17 0.500000 0.500000 0.804503
O O18 0.750000 0.511666 0.750000
#
# Coordination Sequence:
#
# PCOD9327130 Si02
#       8
#    16  16  16  16  16   4  16  16
#     4  10  23  43  64  97 129 167 218 277 333 396
#     4  10  20  39  66  90 118 165 219 272 329 389
#     4  10  23  41  66  90 134 172 214 271 333 399
#     4   9  20  37  58  87 126 160 213 254 315 387
#     4   9  21  43  65  92 129 165 222 276 333 402
#     4  12  24  36  66  84 132 172 220 266 330 396
#     4  11  24  39  60  95 132 179 209 266 324 409
#     4  10  22  41  58  96 126 175 210 278 320 403
#
# _framework density 19.552592000000001
#
# number of rings (size 3 to 8) (size 9 to 14) (size 15 to 20)
#    0.000    2.069    0.000    1.655    6.759    5.517 
#    9.931    0.690   10.621    0.000    0.000    0.000 
#    0.000    0.000    0.000    0.000    0.000    0.000 
#
# Total GULP energy -161614.862787 kJ/mol
# GULP energy per Si atom -5572.926303 kJ/mol
# Density = 1.950809 g / cm^3
# Si number density = 19.552592 Si / 1000 Ang^3
#
#
#
# Elastic Constant Matrix: (Units=GPa)
#
#
# Indices 1 2 3 4 5 6 
#
# 1 100.4941 65.8833 64.9945 0.0000 0.0000 0.0000
# 2 65.8833 148.3021 65.8621 0.0000 0.0000 0.0000
# 3 64.9945 65.8621 85.4356 0.0000 0.0000 0.0000
# 4 0.0000 0.0000 0.0000 13.8564 0.0000 0.0000
# 5 0.0000 0.0000 0.0000 0.0000 -11.2764 0.0000
# 6 0.0000 0.0000 0.0000 0.0000 0.0000 36.6074
#
#
#
# Elastic Compliance Matrix: (Units=1/GPa)
#
#
# Indices 1 2 3 4 5 6 
#
# 1 0.020620 -0.003336 -0.013115 0.000000 0.000000 0.000000
# 2 -0.003336 0.010793 -0.005782 0.000000 0.000000 0.000000
# 3 -0.013115 -0.005782 0.026139 0.000000 0.000000 0.000000
# 4 0.000000 0.000000 0.000000 0.072169 0.000000 0.000000
# 5 0.000000 0.000000 0.000000 0.000000 -0.088680 0.000000
# 6 0.000000 0.000000 0.000000 0.000000 0.000000 0.027317
#
#
# Mechanical properties :
#
#
# Convention : Reuss Voigt Hill
#
# Bulk Modulus (GPa) = 76.41834 80.85683 78.63759
# Shear Modulus (GPa) = 42.66747 17.00361 29.83554
#
# Velocity S-wave (km/s) = 4.67646 2.95216 3.91053
# Velocity P-wave (km/s) = 8.26604 7.28448 7.79073
#
# Compressibility (1/GPa) = 0.01308586
#
# Stress axis : x y z
#
# Youngs Moduli (GPa) = 48.49717 92.65198 38.25670
#
# Poissons Ratio (x) = 0.30909 0.50172
# Poissons Ratio (y) = 0.16179 0.22122
# Poissons Ratio (z) = 0.63602 0.53576
#
# Static dielectric constant tensor:
#      x y z
#    x 1.745630 0.000000 0.000000 
#    y 0.000000 1.681660 0.000000 
#    z 0.000000 0.000000 1.703750 
# 
# From -- ./inp_files/14966.got.cif
#   From: 2010.05.17/outbox.cif.g08.bks.cpg/sg22_8_cif.got.tgz:14966.got - 2010.06.03 23:40:54.
