data_PCOD9327383
_publ_section_title
;
Structure prediction by ZEFSAII (Michael W. Deem and Ramdas Pophale) SiO2 
 PCOD9327383
Probable space group: F 2 2 2
;
_chemical_formula_sum "Si O2"
_cell_formula_units_Z 60
_cell_length_a 15.324309
_cell_length_b 10.603296
_cell_length_c 18.345146
_cell_angle_alpha 90.000000
_cell_angle_beta 90.000000
_cell_angle_gamma 90.000000
_cell_volume 2980.869465
_symmetry_space_group_name_H-M "F 2 2 2"
_symmetry_group_IT_number 22
_symmetry_cell_setting 'orthorhombic'
loop_
_space_group_symop_operation_xyz
x,y,z
-x,-y,z
x,-y,-z
-x,y,-z
x,1/2+y,1/2+z
-x,1/2-y,1/2+z
x,1/2-y,1/2-z
-x,1/2+y,1/2-z
1/2+x,y,1/2+z
1/2-x,-y,1/2+z
1/2+x,-y,1/2-z
1/2-x,y,1/2-z
1/2+x,1/2+y,z
1/2-x,1/2-y,z
1/2+x,1/2-y,-z
1/2-x,1/2+y,-z
loop_
_atom_site_type_symbol
_atom_site_label
_atom_site_fract_x
_atom_site_fract_y
_atom_site_fract_z
Si Si1 0.142441 0.664093 0.882699
Si Si2 0.250000 0.750000 0.750000
Si Si3 0.000000 0.500000 0.827618
Si Si4 0.846815 0.602647 0.726279
Si Si5 0.678981 0.049825 0.578715
O O1 0.185215 0.676457 0.802574
O O2 0.215630 0.576745 0.921197
O O3 0.141778 0.808719 0.909320
O O4 0.047676 0.604027 0.877113
O O5 0.924393 0.547844 0.774526
O O6 0.851050 0.750000 0.750000
O O7 0.750000 0.564401 0.750000
O O8 0.849761 0.546877 0.643317
O O9 0.652980 0.000000 0.500000
#
# Coordination Sequence:
#
# PCOD9327383 Si02
#       5
#    16   4   8  16  16
#     4  10  21  36  73  98 130 180 225 294 347 420
#     4   8  16  36  64  96 124 168 234 256 346 404
#     4  12  22  42  70 106 132 170 242 302 338 414
#     4  11  25  41  69 103 137 182 238 297 345 414
#     4  10  22  45  70  96 139 191 232 286 369 436
#
# _framework density 20.128354999999999
#
# number of rings (size 3 to 8) (size 9 to 14) (size 15 to 20)
#    0.000    1.867    2.667    3.200    7.467    4.267 
#    0.000    1.333    0.000    0.000    0.000    0.000 
#    0.000    0.000    0.000    0.000    0.000    0.000 
#
# Total GULP energy -83521.266296 kJ/mol
# GULP energy per Si atom -5568.084420 kJ/mol
# Density = 2.008254 g / cm^3
# Si number density = 20.128355 Si / 1000 Ang^3
#
#
#
# Elastic Constant Matrix: (Units=GPa)
#
#
# Indices 1 2 3 4 5 6 
#
# 1 124.4009 62.8267 26.4281 0.0000 0.0000 0.0000
# 2 62.8267 156.7803 83.2694 0.0000 0.0000 0.0000
# 3 26.4281 83.2694 99.9396 0.0000 0.0000 0.0000
# 4 0.0000 0.0000 0.0000 16.1364 0.0000 0.0000
# 5 0.0000 0.0000 0.0000 0.0000 -17.0047 0.0000
# 6 0.0000 0.0000 0.0000 0.0000 0.0000 35.1101
#
#
#
# Elastic Compliance Matrix: (Units=1/GPa)
#
#
# Indices 1 2 3 4 5 6 
#
# 1 0.010167 -0.004747 0.001267 0.000000 0.000000 0.000000
# 2 -0.004747 0.013658 -0.010124 0.000000 0.000000 0.000000
# 3 0.001267 -0.010124 0.018107 0.000000 0.000000 0.000000
# 4 0.000000 0.000000 0.000000 0.061972 0.000000 0.000000
# 5 0.000000 0.000000 0.000000 0.000000 -0.058807 0.000000
# 6 0.000000 0.000000 0.000000 0.000000 0.000000 0.028482
#
#
# Mechanical properties :
#
#
# Convention : Reuss Voigt Hill
#
# Bulk Modulus (GPa) = 67.92581 80.68547 74.30564
# Shear Modulus (GPa) = 47.30612 20.75478 34.03045
#
# Velocity S-wave (km/s) = 4.85317 3.21459 4.11624
# Velocity P-wave (km/s) = 8.07613 7.34511 7.71928
#
# Compressibility (1/GPa) = 0.01472195
#
# Stress axis : x y z
#
# Youngs Moduli (GPa) = 98.35970 73.21793 55.22791
#
# Poissons Ratio (x) = 0.34755 -0.06995
# Poissons Ratio (y) = 0.46690 0.55915
# Poissons Ratio (z) = -0.12457 0.74129
#
# Static dielectric constant tensor:
#      x y z
#    x 1.711800 0.000000 0.000000 
#    y 0.000000 1.905170 0.000000 
#    z 0.000000 0.000000 1.715420 
# 
# From -- ./inp_files/36792.got.cif
#   From: 2010.05.17/outbox.cif.g08.bks.cpg/sg22_19_cif.got.tgz:36792.got - 2010.06.03 23:40:54.
