data_PCOD9327747
_publ_section_title
;
Structure prediction by ZEFSAII (Michael W. Deem and Ramdas Pophale) SiO2 
 PCOD9327747
Probable space group: F 2 2 2
;
_chemical_formula_sum "Si O2"
_cell_formula_units_Z 96
_cell_length_a 16.673063
_cell_length_b 26.750231
_cell_length_c 11.847739
_cell_angle_alpha 90.000000
_cell_angle_beta 90.000000
_cell_angle_gamma 90.000000
_cell_volume 5284.189773
_symmetry_space_group_name_H-M "F 2 2 2"
_symmetry_group_IT_number 22
_symmetry_cell_setting 'orthorhombic'
loop_
_space_group_symop_operation_xyz
x,y,z
-x,-y,z
x,-y,-z
-x,y,-z
x,1/2+y,1/2+z
-x,1/2-y,1/2+z
x,1/2-y,1/2-z
-x,1/2+y,1/2-z
1/2+x,y,1/2+z
1/2-x,-y,1/2+z
1/2+x,-y,1/2-z
1/2-x,y,1/2-z
1/2+x,1/2+y,z
1/2-x,1/2-y,z
1/2+x,1/2-y,-z
1/2-x,1/2+y,-z
loop_
_atom_site_type_symbol
_atom_site_label
_atom_site_fract_x
_atom_site_fract_y
_atom_site_fract_z
Si Si1 0.922309 0.650802 0.814221
Si Si2 0.022537 0.056002 0.365508
Si Si3 0.250000 0.750000 0.071062
Si Si4 0.966012 0.814063 0.120490
Si Si5 0.346898 0.125514 0.229939
Si Si6 0.902469 0.292774 0.953025
Si Si7 0.750000 0.830921 0.750000
O O1 0.828187 0.642359 0.795751
O O2 0.964895 0.597794 0.814526
O O3 0.964714 0.681306 0.714457
O O4 0.935332 0.680122 0.932500
O O5 0.110053 0.074856 0.319463
O O6 0.000000 0.058499 0.500000
O O7 0.000000 0.000000 0.329924
O O8 0.220482 0.794353 0.151172
O O9 0.178912 0.731152 0.997206
O O10 0.892451 0.849772 0.161418
O O11 0.944130 0.755625 0.103088
O O12 0.000000 0.831366 0.000000
O O13 0.250000 0.122379 0.250000
O O14 0.375427 0.165410 0.135294
#
# Coordination Sequence:
#
# PCOD9327747 Si02
#       7
#    16  16   8  16  16  16   8
#     4  10  22  39  60  88 121 164 210 262 310 374
#     4  10  21  43  68  91 118 155 209 267 325 377
#     4   9  18  32  49  78 124 162 195 241 292 354
#     4  11  25  35  56  89 130 175 210 246 307 378
#     4  11  24  41  63  93 127 161 209 267 317 368
#     4  11  21  34  57  86 123 166 206 249 299 371
#     4   9  18  36  50  82 122 160 200 246 297 372
#
# _framework density 18.167401000000002
#
# number of rings (size 3 to 8) (size 9 to 14) (size 15 to 20)
#    0.000    1.667    1.667    2.500    7.000    3.333 
#    1.500    0.000    0.000    8.000    0.000    0.000 
#    0.000    0.000    0.000    0.000    0.000    0.000 
#
# Total GULP energy -133725.647974 kJ/mol
# GULP energy per Si atom -5571.901999 kJ/mol
# Density = 1.812605 g / cm^3
# Si number density = 18.167401 Si / 1000 Ang^3
#
#
#
# Elastic Constant Matrix: (Units=GPa)
#
#
# Indices 1 2 3 4 5 6 
#
# 1 121.7058 55.9752 53.9808 0.0000 0.0000 0.0000
# 2 55.9752 119.5804 46.6095 0.0000 0.0000 0.0000
# 3 53.9808 46.6095 119.2245 0.0000 0.0000 0.0000
# 4 0.0000 0.0000 0.0000 20.5895 0.0000 0.0000
# 5 0.0000 0.0000 0.0000 0.0000 40.6031 0.0000
# 6 0.0000 0.0000 0.0000 0.0000 0.0000 7.4533
#
#
#
# Elastic Compliance Matrix: (Units=1/GPa)
#
#
# Indices 1 2 3 4 5 6 
#
# 1 0.011728 -0.004035 -0.003733 0.000000 0.000000 0.000000
# 2 -0.004035 0.011254 -0.002573 0.000000 0.000000 0.000000
# 3 -0.003733 -0.002573 0.011083 0.000000 0.000000 0.000000
# 4 0.000000 0.000000 0.000000 0.048569 0.000000 0.000000
# 5 0.000000 0.000000 0.000000 0.000000 0.024629 0.000000
# 6 0.000000 0.000000 0.000000 0.000000 0.000000 0.134168
#
#
# Mechanical properties :
#
#
# Convention : Reuss Voigt Hill
#
# Bulk Modulus (GPa) = 74.71203 74.84909 74.78056
# Shear Modulus (GPa) = 18.75663 27.32553 23.04108
#
# Velocity S-wave (km/s) = 3.21664 3.88248 3.56513
# Velocity P-wave (km/s) = 7.41682 7.83500 7.62878
#
# Compressibility (1/GPa) = 0.01338473
#
# Stress axis : x y z
#
# Youngs Moduli (GPa) = 85.26762 88.85638 90.22566
#
# Poissons Ratio (x) = 0.35853 0.33677
# Poissons Ratio (y) = 0.34404 0.23213
# Poissons Ratio (z) = 0.31827 0.22861
#
# Static dielectric constant tensor:
#      x y z
#    x 1.718030 0.000000 0.000000 
#    y 0.000000 1.594600 0.000000 
#    z 0.000000 0.000000 1.772500 
# 
# From -- ./inp_files/21642.got.cif
#   From: 2010.05.17/outbox.cif.g08.bks.cpg/sg22_11_cif.got.tgz:21642.got - 2010.06.03 23:40:54.
