data_PCOD9327337
_publ_section_title
;
Structure prediction by ZEFSAII (Michael W. Deem and Ramdas Pophale) SiO2 
 PCOD9327337
Probable space group: F 2 2 2
;
_chemical_formula_sum "Si O2"
_cell_formula_units_Z 88
_cell_length_a 12.462941
_cell_length_b 14.758319
_cell_length_c 25.766990
_cell_angle_alpha 90.000000
_cell_angle_beta 90.000000
_cell_angle_gamma 90.000000
_cell_volume 4739.375524
_symmetry_space_group_name_H-M "F 2 2 2"
_symmetry_group_IT_number 22
_symmetry_cell_setting 'orthorhombic'
loop_
_space_group_symop_operation_xyz
x,y,z
-x,-y,z
x,-y,-z
-x,y,-z
x,1/2+y,1/2+z
-x,1/2-y,1/2+z
x,1/2-y,1/2-z
-x,1/2+y,1/2-z
1/2+x,y,1/2+z
1/2-x,-y,1/2+z
1/2+x,-y,1/2-z
1/2-x,y,1/2-z
1/2+x,1/2+y,z
1/2-x,1/2-y,z
1/2+x,1/2-y,-z
1/2-x,1/2+y,-z
loop_
_atom_site_type_symbol
_atom_site_label
_atom_site_fract_x
_atom_site_fract_y
_atom_site_fract_z
Si Si1 0.250000 0.250000 0.565677
Si Si2 0.412519 0.232528 0.657013
Si Si3 0.410375 0.377421 0.744429
Si Si4 0.643966 0.189799 0.877557
Si Si5 0.371538 0.607290 0.507786
Si Si6 0.145563 0.417369 0.221577
O O1 0.344240 0.221389 0.605162
O O2 0.300556 0.330514 0.530873
O O3 0.375961 0.313839 0.696344
O O4 0.389020 0.150274 0.696481
O O5 0.534880 0.255514 0.638610
O O6 0.539033 0.371008 0.742674
O O7 0.369775 0.476975 0.732506
O O8 0.750000 0.250000 0.870241
O O9 0.644795 0.148631 0.935012
O O10 0.649883 0.105191 0.838572
O O11 0.345849 0.500000 0.500000
O O12 0.500000 0.616240 0.500000
O O13 0.250000 0.382107 0.250000
#
# Coordination Sequence:
#
# PCOD9327337 Si02
#       6
#     8  16  16  16  16  16
#     4  12  24  41  68  96 127 168 216 274 328 382
#     4  10  22  37  61  90 125 165 206 256 329 382
#     4   9  21  37  54  91 126 161 206 256 314 395
#     4  11  22  40  65  90 128 173 218 269 326 386
#     4  11  25  43  67  96 128 170 230 275 323 393
#     4  10  21  35  59  86 124 163 211 255 314 385
#
# _framework density 18.567847
#
# number of rings (size 3 to 8) (size 9 to 14) (size 15 to 20)
#    0.000    1.636    2.727    1.091    5.091    4.000 
#    0.000    0.000    0.000    3.818    0.000    0.000 
#    0.000    0.000    0.000    0.000    0.000    0.000 
#
# Total GULP energy -122621.576350 kJ/mol
# GULP energy per Si atom -5573.708016 kJ/mol
# Density = 1.852559 g / cm^3
# Si number density = 18.567847 Si / 1000 Ang^3
#
#
#
# Elastic Constant Matrix: (Units=GPa)
#
#
# Indices 1 2 3 4 5 6 
#
# 1 122.7968 43.9634 63.4676 0.0000 0.0000 0.0000
# 2 43.9634 107.0838 68.4303 0.0000 0.0000 0.0000
# 3 63.4676 68.4303 166.9884 0.0000 0.0000 0.0000
# 4 0.0000 0.0000 0.0000 30.5062 0.0000 0.0000
# 5 0.0000 0.0000 0.0000 0.0000 38.4771 0.0000
# 6 0.0000 0.0000 0.0000 0.0000 0.0000 32.5989
#
#
#
# Elastic Compliance Matrix: (Units=1/GPa)
#
#
# Indices 1 2 3 4 5 6 
#
# 1 0.010571 -0.002401 -0.003034 0.000000 0.000000 0.000000
# 2 -0.002401 0.013197 -0.004495 0.000000 0.000000 0.000000
# 3 -0.003034 -0.004495 0.008984 0.000000 0.000000 0.000000
# 4 0.000000 0.000000 0.000000 0.032780 0.000000 0.000000
# 5 0.000000 0.000000 0.000000 0.000000 0.025989 0.000000
# 6 0.000000 0.000000 0.000000 0.000000 0.000000 0.030676
#
#
# Mechanical properties :
#
#
# Convention : Reuss Voigt Hill
#
# Bulk Modulus (GPa) = 77.57353 83.17684 80.37519
# Shear Modulus (GPa) = 34.16338 35.05028 34.60683
#
# Velocity S-wave (km/s) = 4.29408 4.34947 4.32186
# Velocity P-wave (km/s) = 8.15197 8.37360 8.26353
#
# Compressibility (1/GPa) = 0.01289100
#
# Stress axis : x y z
#
# Youngs Moduli (GPa) = 94.59591 75.77465 111.31344
#
# Poissons Ratio (x) = 0.18196 0.33770
# Poissons Ratio (y) = 0.22716 0.50039
# Poissons Ratio (z) = 0.28698 0.34063
#
# Static dielectric constant tensor:
#      x y z
#    x 1.689460 0.000000 0.000000 
#    y 0.000000 1.640550 0.000000 
#    z 0.000000 0.000000 1.624150 
# 
# From -- ./inp_files/23634.got.cif
#   From: 2010.05.17/outbox.cif.g08.bks.cpg/sg22_12_cif.got.tgz:23634.got - 2010.06.03 23:40:54.
