data_PCOD9327976
_publ_section_title
;
Structure prediction by ZEFSAII (Michael W. Deem and Ramdas Pophale) SiO2 
 PCOD9327976
Probable space group: F 2 2 2
;
_chemical_formula_sum "Si O2"
_cell_formula_units_Z 68
_cell_length_a 31.737348
_cell_length_b 9.030946
_cell_length_c 11.330640
_cell_angle_alpha 90.000000
_cell_angle_beta 90.000000
_cell_angle_gamma 90.000000
_cell_volume 3247.568502
_symmetry_space_group_name_H-M "F 2 2 2"
_symmetry_group_IT_number 22
_symmetry_cell_setting 'orthorhombic'
loop_
_space_group_symop_operation_xyz
x,y,z
-x,-y,z
x,-y,-z
-x,y,-z
x,1/2+y,1/2+z
-x,1/2-y,1/2+z
x,1/2-y,1/2-z
-x,1/2+y,1/2-z
1/2+x,y,1/2+z
1/2-x,-y,1/2+z
1/2+x,-y,1/2-z
1/2-x,y,1/2-z
1/2+x,1/2+y,z
1/2-x,1/2-y,z
1/2+x,1/2-y,-z
1/2-x,1/2+y,-z
loop_
_atom_site_type_symbol
_atom_site_label
_atom_site_fract_x
_atom_site_fract_y
_atom_site_fract_z
Si Si1 0.823434 0.092684 0.616132
Si Si2 0.250000 0.250000 0.250000
Si Si3 0.597161 0.428026 0.367161
Si Si4 0.613993 0.335032 0.984377
Si Si5 0.537607 0.598035 0.189942
O O1 0.781684 0.145136 0.678586
O O2 0.850804 0.236271 0.579415
O O3 0.812315 0.000000 0.500000
O O4 0.858161 0.990138 0.681536
O O5 0.592661 0.500000 0.500000
O O6 0.600831 0.254331 0.396982
O O7 0.560723 0.494578 0.287216
O O8 0.572488 0.352381 0.904294
O O9 0.630290 0.500000 0.000000
O O10 0.500000 0.500000 0.139764
O O11 0.522083 0.750000 0.250000
#
# Coordination Sequence:
#
# PCOD9327976 Si02
#       5
#    16   4  16  16  16
#     4   9  20  39  65  93 122 168 209 243 320 396
#     4  12  20  36  72 100 128 160 192 274 324 374
#     4   9  19  42  64  80 118 176 207 248 319 386
#     4  10  22  41  63  88 122 168 216 259 313 387
#     4  12  24  39  58  91 126 163 220 274 324 373
#
# _framework density 20.938742999999999
#
# number of rings (size 3 to 8) (size 9 to 14) (size 15 to 20)
#    0.000    2.353    4.706    1.412    3.294    1.882 
#    0.000    0.000    0.000    9.176    0.000    0.000 
#    0.000    0.000    0.000    0.000    0.000    0.000 
#
# Total GULP energy -94952.373303 kJ/mol
# GULP energy per Si atom -5585.433724 kJ/mol
# Density = 2.089109 g / cm^3
# Si number density = 20.938743 Si / 1000 Ang^3
#
#
#
# Elastic Constant Matrix: (Units=GPa)
#
#
# Indices 1 2 3 4 5 6 
#
# 1 143.4610 66.7934 61.6280 0.0000 0.0000 0.0000
# 2 66.7934 177.9390 47.3905 0.0000 0.0000 0.0000
# 3 61.6280 47.3905 59.0043 0.0000 0.0000 0.0000
# 4 0.0000 0.0000 0.0000 25.5102 0.0000 0.0000
# 5 0.0000 0.0000 0.0000 0.0000 -97.2037 0.0000
# 6 0.0000 0.0000 0.0000 0.0000 0.0000 14.3759
#
#
#
# Elastic Compliance Matrix: (Units=1/GPa)
#
#
# Indices 1 2 3 4 5 6 
#
# 1 0.012995 -0.001607 -0.012282 0.000000 0.000000 0.000000
# 2 -0.001607 0.007348 -0.004223 0.000000 0.000000 0.000000
# 3 -0.012282 -0.004223 0.033168 0.000000 0.000000 0.000000
# 4 0.000000 0.000000 0.000000 0.039200 0.000000 0.000000
# 5 0.000000 0.000000 0.000000 0.000000 -0.010288 0.000000
# 6 0.000000 0.000000 0.000000 0.000000 0.000000 0.069561
#
#
# Mechanical properties :
#
#
# Convention : Reuss Voigt Hill
#
# Bulk Modulus (GPa) = 57.84889 81.33645 69.59267
# Shear Modulus (GPa) = 25.77707 2.17595 13.97651
#
# Velocity S-wave (km/s) = 3.51247 1.02052 2.58640
# Velocity P-wave (km/s) = 6.64361 6.34964 6.49829
#
# Compressibility (1/GPa) = 0.01728642
#
# Stress axis : x y z
#
# Youngs Moduli (GPa) = 76.95406 136.09419 30.14936
#
# Poissons Ratio (x) = 0.21868 0.37030
# Poissons Ratio (y) = 0.12365 0.12733
# Poissons Ratio (z) = 0.94515 0.57477
#
# Static dielectric constant tensor:
#      x y z
#    x 1.707420 0.000000 0.000000 
#    y 0.000000 1.841780 0.000000 
#    z 0.000000 0.000000 1.827410 
# 
# From -- ./inp_files/32896.got.cif
#   From: 2010.05.17/outbox.cif.g08.bks.cpg/sg22_17_cif.got.tgz:32896.got - 2010.06.03 23:40:54.
