data_PCOD9327478
_publ_section_title
;
Structure prediction by ZEFSAII (Michael W. Deem and Ramdas Pophale) SiO2 
 PCOD9327478
Probable space group: F 2 2 2
;
_chemical_formula_sum "Si O2"
_cell_formula_units_Z 88
_cell_length_a 27.729098
_cell_length_b 10.686518
_cell_length_c 12.806295
_cell_angle_alpha 90.000000
_cell_angle_beta 90.000000
_cell_angle_gamma 90.000000
_cell_volume 3794.857444
_symmetry_space_group_name_H-M "F 2 2 2"
_symmetry_group_IT_number 22
_symmetry_cell_setting 'orthorhombic'
loop_
_space_group_symop_operation_xyz
x,y,z
-x,-y,z
x,-y,-z
-x,y,-z
x,1/2+y,1/2+z
-x,1/2-y,1/2+z
x,1/2-y,1/2-z
-x,1/2+y,1/2-z
1/2+x,y,1/2+z
1/2-x,-y,1/2+z
1/2+x,-y,1/2-z
1/2-x,y,1/2-z
1/2+x,1/2+y,z
1/2-x,1/2-y,z
1/2+x,1/2-y,-z
1/2-x,1/2+y,-z
loop_
_atom_site_type_symbol
_atom_site_label
_atom_site_fract_x
_atom_site_fract_y
_atom_site_fract_z
Si Si1 0.500000 0.500000 0.849583
Si Si2 0.584895 0.000000 0.500000
Si Si3 0.511296 0.750000 0.250000
Si Si4 0.921994 0.910577 0.405862
Si Si5 0.646144 0.297231 0.987514
Si Si6 0.250000 0.963512 0.250000
Si Si7 0.149582 0.900176 0.767054
Si Si8 0.750000 0.750000 0.577641
O O1 0.545460 0.451465 0.915332
O O2 0.484445 0.374887 0.788128
O O3 0.611692 0.117853 0.442478
O O4 0.542132 0.815089 0.154730
O O5 0.881542 0.828808 0.464221
O O6 0.890568 0.963508 0.306965
O O7 0.941082 0.000000 0.500000
O O8 0.644331 0.396019 0.891475
O O9 0.700720 0.265738 0.014183
O O10 0.249044 0.872092 0.349417
O O11 0.202029 0.045539 0.255580
O O12 0.147979 0.750000 0.750000
#
# Coordination Sequence:
#
# PCOD9327478 Si02
#       8
#     8   8   8  16  16   8  16   8
#     4  11  26  46  81 106 154 192 255 312 394 465
#     4  11  22  46  74  98 138 198 238 303 374 462
#     4  12  24  52  68 119 150 189 250 322 388 478
#     4  11  22  42  73 103 146 188 242 310 383 466
#     4  11  22  42  66 100 138 190 248 302 376 453
#     4  11  23  40  52  94 143 185 256 308 352 451
#     4  10  21  38  63  92 134 188 243 305 370 439
#     4  11  26  38  61  98 144 192 243 308 371 444
#
# _framework density 23.189277000000001
#
# number of rings (size 3 to 8) (size 9 to 14) (size 15 to 20)
#    0.000    1.091    4.545    2.455    5.091    1.455 
#    1.636    3.636    0.000    0.000    0.000    0.000 
#    0.000    0.000    0.000    0.000    0.000    0.000 
#
# Total GULP energy -122506.416394 kJ/mol
# GULP energy per Si atom -5568.473472 kJ/mol
# Density = 2.313650 g / cm^3
# Si number density = 23.189277 Si / 1000 Ang^3
#
#
#
# Elastic Constant Matrix: (Units=GPa)
#
#
# Indices 1 2 3 4 5 6 
#
# 1 100.9469 30.3850 11.9171 0.0000 0.0000 0.0000
# 2 30.3850 80.9706 37.1452 0.0000 0.0000 0.0000
# 3 11.9171 37.1452 69.8188 0.0000 0.0000 0.0000
# 4 0.0000 0.0000 0.0000 6.3550 0.0000 0.0000
# 5 0.0000 0.0000 0.0000 0.0000 16.4750 0.0000
# 6 0.0000 0.0000 0.0000 0.0000 0.0000 31.9092
#
#
#
# Elastic Compliance Matrix: (Units=1/GPa)
#
#
# Indices 1 2 3 4 5 6 
#
# 1 0.011177 -0.004391 0.000428 0.000000 0.000000 0.000000
# 2 -0.004391 0.018062 -0.008860 0.000000 0.000000 0.000000
# 3 0.000428 -0.008860 0.018964 0.000000 0.000000 0.000000
# 4 0.000000 0.000000 0.000000 0.157357 0.000000 0.000000
# 5 0.000000 0.000000 0.000000 0.000000 0.060698 0.000000
# 6 0.000000 0.000000 0.000000 0.000000 0.000000 0.031339
#
#
# Mechanical properties :
#
#
# Convention : Reuss Voigt Hill
#
# Bulk Modulus (GPa) = 44.33081 45.62563 44.97822
# Shear Modulus (GPa) = 15.11660 22.43375 18.77518
#
# Velocity S-wave (km/s) = 2.55596 3.11371 2.84852
# Velocity P-wave (km/s) = 5.27911 5.71358 5.50064
#
# Compressibility (1/GPa) = 0.02255767
#
# Stress axis : x y z
#
# Youngs Moduli (GPa) = 89.46715 55.36345 52.73281
#
# Poissons Ratio (x) = 0.24309 -0.02258
# Poissons Ratio (y) = 0.39283 0.46722
# Poissons Ratio (z) = -0.03831 0.49053
#
# Static dielectric constant tensor:
#      x y z
#    x 1.970810 0.000000 0.000000 
#    y 0.000000 0.750960 0.000000 
#    z 0.000000 0.000000 2.338720 
# 
# From -- ./inp_files/33087.got.cif
#   From: 2010.05.17/outbox.cif.g08.bks.cpg/sg22_17_cif.got.tgz:33087.got - 2010.06.03 23:40:54.
