data_PCOD9327117
_publ_section_title
;
Structure prediction by ZEFSAII (Michael W. Deem and Ramdas Pophale) SiO2 
 PCOD9327117
Probable space group: F 2 2 2
;
_chemical_formula_sum "Si O2"
_cell_formula_units_Z 68
_cell_length_a 9.531226
_cell_length_b 21.427974
_cell_length_c 14.444829
_cell_angle_alpha 90.000000
_cell_angle_beta 90.000000
_cell_angle_gamma 90.000000
_cell_volume 2950.137671
_symmetry_space_group_name_H-M "F 2 2 2"
_symmetry_group_IT_number 22
_symmetry_cell_setting 'orthorhombic'
loop_
_space_group_symop_operation_xyz
x,y,z
-x,-y,z
x,-y,-z
-x,y,-z
x,1/2+y,1/2+z
-x,1/2-y,1/2+z
x,1/2-y,1/2-z
-x,1/2+y,1/2-z
1/2+x,y,1/2+z
1/2-x,-y,1/2+z
1/2+x,-y,1/2-z
1/2-x,y,1/2-z
1/2+x,1/2+y,z
1/2-x,1/2-y,z
1/2+x,1/2-y,-z
1/2-x,1/2+y,-z
loop_
_atom_site_type_symbol
_atom_site_label
_atom_site_fract_x
_atom_site_fract_y
_atom_site_fract_z
Si Si1 0.000000 0.500000 0.500000
Si Si2 0.693629 0.665555 0.385836
Si Si3 0.975718 0.570166 0.887277
Si Si4 0.476885 0.780836 0.655807
Si Si5 0.680209 0.113112 0.422735
O O1 0.904297 0.451401 0.441384
O O2 0.595783 0.612473 0.344843
O O3 0.584679 0.722699 0.404355
O O4 0.828939 0.685109 0.328186
O O5 0.762964 0.639766 0.479799
O O6 0.821238 0.596049 0.867327
O O7 0.000000 0.500000 0.857260
O O8 0.000000 0.571766 0.000000
O O9 0.531499 0.750000 0.750000
O O10 0.584207 0.831287 0.616495
#
# Coordination Sequence:
#
# PCOD9327117 Si02
#       5
#     4  16  16  16  16
#     4  12  20  40  66 108 136 168 250 304 356 408
#     4  10  20  39  63  95 133 183 236 284 350 418
#     4   9  19  35  61  97 136 174 222 296 357 409
#     4  11  24  42  65  98 142 188 229 287 364 430
#     4  11  22  38  69 105 139 179 238 301 355 426
#
# _framework density 23.049771
#
# number of rings (size 3 to 8) (size 9 to 14) (size 15 to 20)
#    0.000    1.647    2.353    4.235    0.000   12.235 
#    0.000    3.529    2.588    0.000    0.000    0.000 
#    0.000    0.000    0.000    0.000    0.000    0.000 
#
# Total GULP energy -94938.898354 kJ/mol
# GULP energy per Si atom -5584.641080 kJ/mol
# Density = 2.299731 g / cm^3
# Si number density = 23.049771 Si / 1000 Ang^3
#
#
#
# Elastic Constant Matrix: (Units=GPa)
#
#
# Indices 1 2 3 4 5 6 
#
# 1 161.6553 103.7691 29.4661 0.0000 0.0000 0.0000
# 2 103.7691 205.0226 39.6915 0.0000 0.0000 0.0000
# 3 29.4661 39.6915 42.1386 0.0000 0.0000 0.0000
# 4 0.0000 0.0000 0.0000 868.6406 0.0000 0.0000
# 5 0.0000 0.0000 0.0000 0.0000 9.9833 0.0000
# 6 0.0000 0.0000 0.0000 0.0000 0.0000 47.0530
#
#
#
# Elastic Compliance Matrix: (Units=1/GPa)
#
#
# Indices 1 2 3 4 5 6 
#
# 1 0.009382 -0.004254 -0.002553 0.000000 0.000000 0.000000
# 2 -0.004254 0.007894 -0.004461 0.000000 0.000000 0.000000
# 3 -0.002553 -0.004461 0.029719 0.000000 0.000000 0.000000
# 4 0.000000 0.000000 0.000000 0.001151 0.000000 0.000000
# 5 0.000000 0.000000 0.000000 0.000000 0.100168 0.000000
# 6 0.000000 0.000000 0.000000 0.000000 0.000000 0.021253
#
#
# Mechanical properties :
#
#
# Convention : Reuss Voigt Hill
#
# Bulk Modulus (GPa) = 40.88678 83.85222 62.36950
# Shear Modulus (GPa) = 24.96787 200.86136 112.91461
#
# Velocity S-wave (km/s) = 3.29479 9.34514 7.00669
# Velocity P-wave (km/s) = 5.67902 12.36527 9.62162
#
# Compressibility (1/GPa) = 0.02445778
#
# Stress axis : x y z
#
# Youngs Moduli (GPa) = 106.58226 126.67093 33.64885
#
# Poissons Ratio (x) = 0.53891 0.08592
# Poissons Ratio (y) = 0.45345 0.15011
# Poissons Ratio (z) = 0.27215 0.56508
#
# Static dielectric constant tensor:
#      x y z
#    x 1.253060 0.000000 0.000000 
#    y 0.000000 2.628780 0.000000 
#    z 0.000000 0.000000 1.950050 
# 
# From -- ./inp_files/34860.got.cif
#   From: 2010.05.17/outbox.cif.g08.bks.cpg/sg22_18_cif.got.tgz:34860.got - 2010.06.03 23:40:54.
