data_PCOD9327301
_publ_section_title
;
Structure prediction by ZEFSAII (Michael W. Deem and Ramdas Pophale) SiO2 
 PCOD9327301
Probable space group: F 2 2 2
;
_chemical_formula_sum "Si O2"
_cell_formula_units_Z 112
_cell_length_a 24.423462
_cell_length_b 14.035987
_cell_length_c 15.889594
_cell_angle_alpha 90.000000
_cell_angle_beta 90.000000
_cell_angle_gamma 90.000000
_cell_volume 5447.070329
_symmetry_space_group_name_H-M "F 2 2 2"
_symmetry_group_IT_number 22
_symmetry_cell_setting 'orthorhombic'
loop_
_space_group_symop_operation_xyz
x,y,z
-x,-y,z
x,-y,-z
-x,y,-z
x,1/2+y,1/2+z
-x,1/2-y,1/2+z
x,1/2-y,1/2-z
-x,1/2+y,1/2-z
1/2+x,y,1/2+z
1/2-x,-y,1/2+z
1/2+x,-y,1/2-z
1/2-x,y,1/2-z
1/2+x,1/2+y,z
1/2-x,1/2-y,z
1/2+x,1/2-y,-z
1/2-x,1/2+y,-z
loop_
_atom_site_type_symbol
_atom_site_label
_atom_site_fract_x
_atom_site_fract_y
_atom_site_fract_z
Si Si1 0.186991 0.879638 0.261025
Si Si2 0.011500 0.204282 0.593678
Si Si3 0.311441 0.895767 0.728346
Si Si4 0.361239 0.252826 0.884821
Si Si5 0.073393 0.857135 0.720425
Si Si6 0.960134 0.414412 0.606094
Si Si7 0.157099 0.103569 0.033843
O O1 0.250000 0.851962 0.250000
O O2 0.170540 0.841023 0.352821
O O3 0.149111 0.828096 0.191214
O O4 0.184643 0.991171 0.244448
O O5 0.973293 0.135474 0.650273
O O6 0.989389 0.312765 0.600491
O O7 0.000000 0.171511 0.500000
O O8 0.075991 0.217876 0.609805
O O9 0.250000 0.864199 0.750000
O O10 0.360646 0.858412 0.788635
O O11 0.321580 0.876276 0.628706
O O12 0.339078 0.309177 0.967224
O O13 0.063082 0.750000 0.750000
O O14 0.061297 0.926261 0.798267
O O15 0.907861 0.408986 0.546900
O O16 0.000000 0.500000 0.587928
O O17 0.178205 0.000000 0.000000
#
# Coordination Sequence:
#
# PCOD9327301 Si02
#       7
#    16  16  16  16  16  16  16
#     4  10  23  42  65  94 130 171 222 277 337 399
#     4  11  22  36  56  92 130 167 204 262 320 400
#     4  10  22  43  69  92 125 176 230 284 337 401
#     4  11  21  35  63  92 133 170 209 268 344 399
#     4   9  22  39  59  90 129 164 219 265 326 409
#     4  10  21  33  58  89 121 159 207 266 325 376
#     4  11  20  35  59  97 128 164 219 278 331 398
#
# _framework density 20.561510999999999
#
# number of rings (size 3 to 8) (size 9 to 14) (size 15 to 20)
#    0.000    1.714    2.857    1.714    8.000    0.286 
#    0.000    2.857    0.000    3.000    0.000    0.000 
#    0.000    0.000    0.000    0.000    0.000    0.000 
#
# Total GULP energy -156019.848403 kJ/mol
# GULP energy per Si atom -5572.137443 kJ/mol
# Density = 2.051471 g / cm^3
# Si number density = 20.561511 Si / 1000 Ang^3
#
#
#
# Elastic Constant Matrix: (Units=GPa)
#
#
# Indices 1 2 3 4 5 6 
#
# 1 123.1813 4.9321 65.4404 0.0000 0.0000 0.0000
# 2 4.9321 41.5951 46.3957 0.0000 0.0000 0.0000
# 3 65.4404 46.3957 106.8255 0.0000 0.0000 0.0000
# 4 0.0000 0.0000 0.0000 28.8818 0.0000 0.0000
# 5 0.0000 0.0000 0.0000 0.0000 24.0666 0.0000
# 6 0.0000 0.0000 0.0000 0.0000 0.0000 -32.1774
#
#
#
# Elastic Compliance Matrix: (Units=1/GPa)
#
#
# Indices 1 2 3 4 5 6 
#
# 1 0.017433 0.019095 -0.018972 0.000000 0.000000 0.000000
# 2 0.019095 0.067547 -0.041034 0.000000 0.000000 0.000000
# 3 -0.018972 -0.041034 0.038805 0.000000 0.000000 0.000000
# 4 0.000000 0.000000 0.000000 0.034624 0.000000 0.000000
# 5 0.000000 0.000000 0.000000 0.000000 0.041551 0.000000
# 6 0.000000 0.000000 0.000000 0.000000 0.000000 -0.031078
#
#
# Mechanical properties :
#
#
# Convention : Reuss Voigt Hill
#
# Bulk Modulus (GPa) = 23.83121 56.12649 39.97885
# Shear Modulus (GPa) = 18.88993 14.47643 16.68318
#
# Velocity S-wave (km/s) = 3.03430 2.65628 2.85156
# Velocity P-wave (km/s) = 4.88788 6.06332 5.50705
#
# Compressibility (1/GPa) = 0.04196178
#
# Stress axis : x y z
#
# Youngs Moduli (GPa) = 57.36392 14.80455 25.77004
#
# Poissons Ratio (x) = -0.28269 0.48891
# Poissons Ratio (y) = -1.09535 1.05744
# Poissons Ratio (z) = 1.08832 0.60749
#
# Static dielectric constant tensor:
#      x y z
#    x 1.576590 0.000000 0.000000 
#    y 0.000000 1.757770 0.000000 
#    z 0.000000 0.000000 1.802830 
# 
# From -- ./inp_files/32517.got.cif
#   From: 2010.05.17/outbox.cif.g08.bks.cpg/sg22_17_cif.got.tgz:32517.got - 2010.06.03 23:40:54.
