data_PCOD9327159
_publ_section_title
;
Structure prediction by ZEFSAII (Michael W. Deem and Ramdas Pophale) SiO2 
 PCOD9327159
Probable space group: F 2 2 2
;
_chemical_formula_sum "Si O2"
_cell_formula_units_Z 60
_cell_length_a 10.212708
_cell_length_b 13.805089
_cell_length_c 17.111302
_cell_angle_alpha 90.000000
_cell_angle_beta 90.000000
_cell_angle_gamma 90.000000
_cell_volume 2412.477002
_symmetry_space_group_name_H-M "F 2 2 2"
_symmetry_group_IT_number 22
_symmetry_cell_setting 'orthorhombic'
loop_
_space_group_symop_operation_xyz
x,y,z
-x,-y,z
x,-y,-z
-x,y,-z
x,1/2+y,1/2+z
-x,1/2-y,1/2+z
x,1/2-y,1/2-z
-x,1/2+y,1/2-z
1/2+x,y,1/2+z
1/2-x,-y,1/2+z
1/2+x,-y,1/2-z
1/2-x,y,1/2-z
1/2+x,1/2+y,z
1/2-x,1/2-y,z
1/2+x,1/2-y,-z
1/2-x,1/2+y,-z
loop_
_atom_site_type_symbol
_atom_site_label
_atom_site_fract_x
_atom_site_fract_y
_atom_site_fract_z
Si Si1 0.295597 0.389261 0.975056
Si Si2 0.953486 0.139387 0.372758
Si Si3 0.944930 0.347078 0.622608
Si Si4 0.000000 0.000000 0.240666
Si Si5 0.500000 0.000000 0.000000
O O1 0.177004 0.347607 0.924358
O O2 0.423996 0.386990 0.920385
O O3 0.265863 0.500000 0.000000
O O4 0.338154 0.338886 0.055000
O O5 0.017570 0.240209 0.349030
O O6 0.923905 0.072989 0.298134
O O7 0.044419 0.079143 0.433440
O O8 0.914653 0.427077 0.687822
#
# Coordination Sequence:
#
# PCOD9327159 Si02
#       5
#    16  16  16   8   4
#     4  11  21  43  73 103 138 187 245 291 351 425
#     4  11  24  40  71 105 140 188 242 289 361 427
#     4  11  22  44  71 104 145 190 238 302 357 422
#     4  11  24  44  66 101 156 186 230 301 364 428
#     4  10  20  40  60 102 140 174 224 302 336 412
#
# _framework density 24.870702999999999
#
# number of rings (size 3 to 8) (size 9 to 14) (size 15 to 20)
#    0.000    1.067    4.000    4.000    0.000    1.067 
#    0.000    2.667    0.000    0.000    6.933    0.000 
#    0.000    0.000    0.000    0.000    0.000    0.000 
#
# Total GULP energy -83797.989994 kJ/mol
# GULP energy per Si atom -5586.532666 kJ/mol
# Density = 2.481410 g / cm^3
# Si number density = 24.870703 Si / 1000 Ang^3
#
#
#
# Elastic Constant Matrix: (Units=GPa)
#
#
# Indices 1 2 3 4 5 6 
#
# 1 95.6333 29.1437 27.9418 0.0000 0.0000 0.0000
# 2 29.1437 199.5070 77.1859 0.0000 0.0000 0.0000
# 3 27.9418 77.1859 149.8248 0.0000 0.0000 0.0000
# 4 0.0000 0.0000 0.0000 -36.1473 0.0000 0.0000
# 5 0.0000 0.0000 0.0000 0.0000 13.4710 0.0000
# 6 0.0000 0.0000 0.0000 0.0000 0.0000 26.1791
#
#
#
# Elastic Compliance Matrix: (Units=1/GPa)
#
#
# Indices 1 2 3 4 5 6 
#
# 1 0.011228 -0.001037 -0.001560 0.000000 0.000000 0.000000
# 2 -0.001037 0.006356 -0.003081 0.000000 0.000000 0.000000
# 3 -0.001560 -0.003081 0.008553 0.000000 0.000000 0.000000
# 4 0.000000 0.000000 0.000000 -0.027665 0.000000 0.000000
# 5 0.000000 0.000000 0.000000 0.000000 0.074234 0.000000
# 6 0.000000 0.000000 0.000000 0.000000 0.000000 0.038198
#
#
# Mechanical properties :
#
#
# Convention : Reuss Voigt Hill
#
# Bulk Modulus (GPa) = 67.65244 79.27865 73.46554
# Shear Modulus (GPa) = 39.31233 21.41348 30.36290
#
# Velocity S-wave (km/s) = 3.98007 2.93745 3.49783
# Velocity P-wave (km/s) = 6.95572 6.59169 6.77615
#
# Compressibility (1/GPa) = 0.01478143
#
# Stress axis : x y z
#
# Youngs Moduli (GPa) = 89.06054 157.33716 116.92300
#
# Poissons Ratio (x) = 0.16311 0.18240
# Poissons Ratio (y) = 0.09233 0.36024
# Poissons Ratio (z) = 0.13893 0.48475
#
# Static dielectric constant tensor:
#      x y z
#    x 7.024100 0.000000 0.000000 
#    y 0.000000 1.981520 0.000000 
#    z 0.000000 0.000000 1.947570 
# 
# From -- ./inp_files/35670.got.cif
#   From: 2010.05.17/outbox.cif.g08.bks.cpg/sg22_18_cif.got.tgz:35670.got - 2010.06.03 23:40:54.
