data_PCOD9327559
_publ_section_title
;
Structure prediction by ZEFSAII (Michael W. Deem and Ramdas Pophale) SiO2 
 PCOD9327559
Probable space group: F 2 2 2
;
_chemical_formula_sum "Si O2"
_cell_formula_units_Z 72
_cell_length_a 17.805278
_cell_length_b 14.420435
_cell_length_c 12.415335
_cell_angle_alpha 90.000000
_cell_angle_beta 90.000000
_cell_angle_gamma 90.000000
_cell_volume 3187.759603
_symmetry_space_group_name_H-M "F 2 2 2"
_symmetry_group_IT_number 22
_symmetry_cell_setting 'orthorhombic'
loop_
_space_group_symop_operation_xyz
x,y,z
-x,-y,z
x,-y,-z
-x,y,-z
x,1/2+y,1/2+z
-x,1/2-y,1/2+z
x,1/2-y,1/2-z
-x,1/2+y,1/2-z
1/2+x,y,1/2+z
1/2-x,-y,1/2+z
1/2+x,-y,1/2-z
1/2-x,y,1/2-z
1/2+x,1/2+y,z
1/2-x,1/2-y,z
1/2+x,1/2-y,-z
1/2-x,1/2+y,-z
loop_
_atom_site_type_symbol
_atom_site_label
_atom_site_fract_x
_atom_site_fract_y
_atom_site_fract_z
Si Si1 0.351997 0.335635 0.910976
Si Si2 0.161875 0.512794 0.228882
Si Si3 0.092482 0.166043 0.329444
Si Si4 0.308958 0.362818 0.537892
Si Si5 0.500000 0.240170 0.500000
O O1 0.357428 0.404129 0.810550
O O2 0.328093 0.228664 0.890406
O O3 0.280094 0.372456 0.976871
O O4 0.428947 0.323940 0.974859
O O5 0.250000 0.486290 0.250000
O O6 0.102772 0.429219 0.235075
O O7 0.160621 0.552906 0.107822
O O8 0.108497 0.250000 0.250000
O O9 0.153157 0.156217 0.424589
O O10 0.018054 0.194417 0.396848
#
# Coordination Sequence:
#
# PCOD9327559 Si02
#       5
#    16  16  16  16   8
#     4   9  19  40  67  94 125 167 217 264 319 388
#     4  10  21  39  70 101 123 160 220 277 324 380
#     4  11  25  44  65  97 135 174 219 272 330 392
#     4   9  19  40  69  95 124 165 218 276 325 377
#     4  10  24  44  62  88 136 180 208 256 328 392
#
# _framework density 22.586396000000001
#
# number of rings (size 3 to 8) (size 9 to 14) (size 15 to 20)
#    0.000    2.222    0.000    1.333    0.000   13.778 
#    0.000   26.667    0.000    2.667    0.000    0.000 
#    0.000    0.000    0.000    0.000    0.000    0.000 
#
# Total GULP energy -100476.037413 kJ/mol
# GULP energy per Si atom -5582.002079 kJ/mol
# Density = 2.253499 g / cm^3
# Si number density = 22.586396 Si / 1000 Ang^3
#
#
#
# Elastic Constant Matrix: (Units=GPa)
#
#
# Indices 1 2 3 4 5 6 
#
# 1 95.7960 19.9238 22.4456 0.0000 0.0000 0.0000
# 2 19.9238 117.2573 40.4253 0.0000 0.0000 0.0000
# 3 22.4456 40.4253 89.1249 0.0000 0.0000 0.0000
# 4 0.0000 0.0000 0.0000 36.7025 0.0000 0.0000
# 5 0.0000 0.0000 0.0000 0.0000 25.1314 0.0000
# 6 0.0000 0.0000 0.0000 0.0000 0.0000 11.7899
#
#
#
# Elastic Compliance Matrix: (Units=1/GPa)
#
#
# Indices 1 2 3 4 5 6 
#
# 1 0.011213 -0.001104 -0.002323 0.000000 0.000000 0.000000
# 2 -0.001104 0.010218 -0.004356 0.000000 0.000000 0.000000
# 3 -0.002323 -0.004356 0.013781 0.000000 0.000000 0.000000
# 4 0.000000 0.000000 0.000000 0.027246 0.000000 0.000000
# 5 0.000000 0.000000 0.000000 0.000000 0.039791 0.000000
# 6 0.000000 0.000000 0.000000 0.000000 0.000000 0.084818
#
#
# Mechanical properties :
#
#
# Convention : Reuss Voigt Hill
#
# Bulk Modulus (GPa) = 50.90543 51.97419 51.43981
# Shear Modulus (GPa) = 23.90255 29.35032 26.62644
#
# Velocity S-wave (km/s) = 3.25664 3.60873 3.43719
# Velocity P-wave (km/s) = 6.06036 6.35807 6.21100
#
# Compressibility (1/GPa) = 0.01964427
#
# Stress axis : x y z
#
# Youngs Moduli (GPa) = 89.18360 97.86817 72.56238
#
# Poissons Ratio (x) = 0.10808 0.16856
# Poissons Ratio (y) = 0.09849 0.31612
# Poissons Ratio (z) = 0.20717 0.42636
#
# Static dielectric constant tensor:
#      x y z
#    x 1.856930 0.000000 0.000000 
#    y 0.000000 1.869800 0.000000 
#    z 0.000000 0.000000 1.866660 
# 
# From -- ./inp_files/21077.got.cif
#   From: 2010.05.17/outbox.cif.g08.bks.cpg/sg22_11_cif.got.tgz:21077.got - 2010.06.03 23:40:54.
