data_PCOD9327465
_publ_section_title
;
Structure prediction by ZEFSAII (Michael W. Deem and Ramdas Pophale) SiO2 
 PCOD9327465
Probable space group: F 2 2 2
;
_chemical_formula_sum "Si O2"
_cell_formula_units_Z 72
_cell_length_a 8.976471
_cell_length_b 21.128616
_cell_length_c 20.470296
_cell_angle_alpha 90.000000
_cell_angle_beta 90.000000
_cell_angle_gamma 90.000000
_cell_volume 3882.404707
_symmetry_space_group_name_H-M "F 2 2 2"
_symmetry_group_IT_number 22
_symmetry_cell_setting 'orthorhombic'
loop_
_space_group_symop_operation_xyz
x,y,z
-x,-y,z
x,-y,-z
-x,y,-z
x,1/2+y,1/2+z
-x,1/2-y,1/2+z
x,1/2-y,1/2-z
-x,1/2+y,1/2-z
1/2+x,y,1/2+z
1/2-x,-y,1/2+z
1/2+x,-y,1/2-z
1/2-x,y,1/2-z
1/2+x,1/2+y,z
1/2-x,1/2-y,z
1/2+x,1/2-y,-z
1/2-x,1/2+y,-z
loop_
_atom_site_type_symbol
_atom_site_label
_atom_site_fract_x
_atom_site_fract_y
_atom_site_fract_z
Si Si1 0.414524 0.847228 0.843646
Si Si2 0.926258 0.063366 0.248418
Si Si3 0.926969 0.737792 0.430865
Si Si4 0.250000 0.750000 0.750000
Si Si5 0.000000 0.000000 0.000000
Si Si6 0.396587 0.096798 0.385036
O O1 0.531095 0.883041 0.799507
O O2 0.486062 0.802510 0.898459
O O3 0.342110 0.795377 0.796136
O O4 0.279544 0.893094 0.867707
O O5 0.750000 0.056148 0.250000
O O6 0.006756 0.074634 0.177960
O O7 0.000000 0.000000 0.274663
O O8 0.750000 0.750000 0.435376
O O9 0.948069 0.669574 0.397173
O O10 0.000000 0.731026 0.500000
O O11 0.079932 0.950750 0.947485
#
# Coordination Sequence:
#
# PCOD9327465 Si02
#       6
#    16  16  16   4   4  16
#     4  11  21  41  66  93 125 168 214 262 318 378
#     4  12  25  41  65  96 126 165 212 270 326 382
#     4  10  21  38  61  90 128 171 207 253 314 376
#     4  12  16  36  74  88 120 168 210 260 324 372
#     4  12  24  36  68  94 128 168 214 252 304 400
#     4  11  21  40  65  91 126 170 212 251 319 380
#
# _framework density 18.545207999999999
#
# number of rings (size 3 to 8) (size 9 to 14) (size 15 to 20)
#    0.000    0.889    7.778    1.333    0.000    1.778 
#    0.000    3.889    0.000    1.333    0.000    0.000 
#    0.000    0.000    0.000    0.000    0.000    0.000 
#
# Total GULP energy -100247.310580 kJ/mol
# GULP energy per Si atom -5569.295032 kJ/mol
# Density = 1.850300 g / cm^3
# Si number density = 18.545208 Si / 1000 Ang^3
#
#
#
# Elastic Constant Matrix: (Units=GPa)
#
#
# Indices 1 2 3 4 5 6 
#
# 1 60.2031 39.5374 4.7465 0.0000 0.0000 0.0000
# 2 39.5374 100.0094 7.9023 0.0000 0.0000 0.0000
# 3 4.7465 7.9023 37.9607 0.0000 0.0000 0.0000
# 4 0.0000 0.0000 0.0000 44.9987 0.0000 0.0000
# 5 0.0000 0.0000 0.0000 0.0000 18.7229 0.0000
# 6 0.0000 0.0000 0.0000 0.0000 0.0000 28.9236
#
#
#
# Elastic Compliance Matrix: (Units=1/GPa)
#
#
# Indices 1 2 3 4 5 6 
#
# 1 0.022471 -0.008806 -0.000976 0.000000 0.000000 0.000000
# 2 -0.008806 0.013618 -0.001734 0.000000 0.000000 0.000000
# 3 -0.000976 -0.001734 0.026826 0.000000 0.000000 0.000000
# 4 0.000000 0.000000 0.000000 0.022223 0.000000 0.000000
# 5 0.000000 0.000000 0.000000 0.000000 0.053411 0.000000
# 6 0.000000 0.000000 0.000000 0.000000 0.000000 0.034574
#
#
# Mechanical properties :
#
#
# Convention : Reuss Voigt Hill
#
# Bulk Modulus (GPa) = 25.07435 33.61619 29.34527
# Shear Modulus (GPa) = 23.87220 28.26149 26.06685
#
# Velocity S-wave (km/s) = 3.59171 3.90798 3.75318
# Velocity P-wave (km/s) = 5.54532 6.20718 5.88556
#
# Compressibility (1/GPa) = 0.03988139
#
# Stress axis : x y z
#
# Youngs Moduli (GPa) = 44.50199 73.43465 37.27728
#
# Poissons Ratio (x) = 0.64670 0.03640
# Poissons Ratio (y) = 0.39190 0.06463
# Poissons Ratio (z) = 0.04345 0.12731
#
# Static dielectric constant tensor:
#      x y z
#    x 1.618130 0.000000 0.000000 
#    y 0.000000 1.684740 0.000000 
#    z 0.000000 0.000000 1.590080 
# 
# From -- ./inp_files/47187.got.cif
#   From: 2010.05.17/outbox.cif.g08.bks.cpg/sg22_24_cif.got.tgz:47187.got - 2010.06.03 23:40:54.
