data_PCOD9327104
_publ_section_title
;
Structure prediction by ZEFSAII (Michael W. Deem and Ramdas Pophale) SiO2 
 PCOD9327104
Probable space group: F 2 2 2
;
_chemical_formula_sum "Si O2"
_cell_formula_units_Z 88
_cell_length_a 13.492117
_cell_length_b 14.884272
_cell_length_c 19.899618
_cell_angle_alpha 90.000000
_cell_angle_beta 90.000000
_cell_angle_gamma 90.000000
_cell_volume 3996.248038
_symmetry_space_group_name_H-M "F 2 2 2"
_symmetry_group_IT_number 22
_symmetry_cell_setting 'orthorhombic'
loop_
_space_group_symop_operation_xyz
x,y,z
-x,-y,z
x,-y,-z
-x,y,-z
x,1/2+y,1/2+z
-x,1/2-y,1/2+z
x,1/2-y,1/2-z
-x,1/2+y,1/2-z
1/2+x,y,1/2+z
1/2-x,-y,1/2+z
1/2+x,-y,1/2-z
1/2-x,y,1/2-z
1/2+x,1/2+y,z
1/2-x,1/2-y,z
1/2+x,1/2-y,-z
1/2-x,1/2+y,-z
loop_
_atom_site_type_symbol
_atom_site_label
_atom_site_fract_x
_atom_site_fract_y
_atom_site_fract_z
Si Si1 0.120409 0.896146 1.000000
Si Si2 0.620088 0.901593 0.922235
Si Si3 0.879912 0.098407 0.577765
Si Si4 0.118408 0.207956 0.135483
Si Si5 0.750000 0.250000 0.750000
Si Si6 0.881592 0.707956 0.635483
Si Si7 0.250000 0.750000 0.250000
O O1 0.149293 0.847836 0.069434
O O2 0.149292 0.847836 0.930566
O O3 0.000000 0.891014 0.000000
O O4 0.148409 0.000000 0.000000
O O5 0.500000 0.904813 0.924042
O O6 0.641151 0.812389 0.880931
O O7 0.654471 0.000000 0.898138
O O8 0.651741 0.890096 0.000000
O O9 0.858849 0.187611 0.619069
O O10 0.178058 0.190266 0.203234
O O11 1.000000 0.196953 0.144469
O O12 0.821942 0.690266 0.703234
#
# Coordination Sequence:
#
# PCOD9327104 Si02
#       7
#    16  16  16  16   4  16   4
#     4   9  18  37  67  91 110 151 207 256 299 343
#     4   8  13  26  54  87 112 139 182 239 298 343
#     4   8  13  26  54  87 112 139 182 239 298 343
#     4  10  20  39  61  86 120 156 197 248 297 347
#     4  12  26  38  58  86 128 168 198 228 294 376
#     4  10  20  39  61  86 120 156 197 248 297 347
#     4  12  26  38  58  86 128 168 198 228 294 376
#
# _framework density 22.020655999999999
#
# number of rings (size 3 to 8) (size 9 to 14) (size 15 to 20)
#    0.000    2.727    1.818    1.636    0.000    0.727 
#    0.000    5.455    0.000    8.727    0.000    0.000 
#    0.000    0.000    0.000    0.000    0.000    0.000 
#
# Total GULP energy -122907.271722 kJ/mol
# GULP energy per Si atom -5586.694169 kJ/mol
# Density = 2.197054 g / cm^3
# Si number density = 22.020656 Si / 1000 Ang^3
#
#
#
# Elastic Constant Matrix: (Units=GPa)
#
#
# Indices 1 2 3 4 5 6 
#
# 1 115.7825 18.1440 67.7847 0.0000 0.0000 0.0000
# 2 18.1440 124.8321 62.2545 0.0000 0.0000 0.0000
# 3 67.7847 62.2545 147.8326 0.0000 0.0000 0.0000
# 4 0.0000 0.0000 0.0000 -0.0981 0.0000 0.0000
# 5 0.0000 0.0000 0.0000 0.0000 58.9941 0.0000
# 6 0.0000 0.0000 0.0000 0.0000 0.0000 9.9239
#
#
#
# Elastic Compliance Matrix: (Units=1/GPa)
#
#
# Indices 1 2 3 4 5 6 
#
# 1 0.011961 0.001262 -0.006016 0.000000 0.000000 0.000000
# 2 0.001262 0.010273 -0.004905 0.000000 0.000000 0.000000
# 3 -0.006016 -0.004905 0.011588 0.000000 0.000000 0.000000
# 4 0.000000 0.000000 0.000000-10.192519 0.000000 0.000000
# 5 0.000000 0.000000 0.000000 0.000000 0.016951 0.000000
# 6 0.000000 0.000000 0.000000 0.000000 0.000000 0.100767
#
#
# Mechanical properties :
#
#
# Convention : Reuss Voigt Hill
#
# Bulk Modulus (GPa) = 68.94206 76.09038 72.51622
# Shear Modulus (GPa) = -0.49916 29.78159 14.64121
#
# Velocity S-wave (km/s) = -0.47662 3.68154 2.58133
# Velocity P-wave (km/s) = 5.57431 7.25953 6.47201
#
# Compressibility (1/GPa) = 0.01450493
#
# Stress axis : x y z
#
# Youngs Moduli (GPa) = 83.60463 97.33864 86.29474
#
# Poissons Ratio (x) = -0.12280 0.51912
# Poissons Ratio (y) = -0.10547 0.42325
# Poissons Ratio (z) = 0.50294 0.47742
#
# Static dielectric constant tensor:
#      x y z
#    x 1.912710 0.000000 0.000000 
#    y 0.000000 1.779230 0.000000 
#    z 0.000000 0.000000 1.813240 
# 
# From -- ./inp_files/43434.got.cif
#   From: 2010.05.17/outbox.cif.g08.bks.cpg/sg22_22_cif.got.tgz:43434.got - 2010.06.03 23:40:54.
