data_PCOD9327909
_publ_section_title
;
Structure prediction by ZEFSAII (Michael W. Deem and Ramdas Pophale) SiO2 
 PCOD9327909
Probable space group: F 2 2 2
;
_chemical_formula_sum "Si O2"
_cell_formula_units_Z 64
_cell_length_a 22.688567
_cell_length_b 19.360421
_cell_length_c 5.752938
_cell_angle_alpha 90.000000
_cell_angle_beta 90.000000
_cell_angle_gamma 90.000000
_cell_volume 2527.036748
_symmetry_space_group_name_H-M "F 2 2 2"
_symmetry_group_IT_number 22
_symmetry_cell_setting 'orthorhombic'
loop_
_space_group_symop_operation_xyz
x,y,z
-x,-y,z
x,-y,-z
-x,y,-z
x,1/2+y,1/2+z
-x,1/2-y,1/2+z
x,1/2-y,1/2-z
-x,1/2+y,1/2-z
1/2+x,y,1/2+z
1/2-x,-y,1/2+z
1/2+x,-y,1/2-z
1/2-x,y,1/2-z
1/2+x,1/2+y,z
1/2-x,1/2-y,z
1/2+x,1/2-y,-z
1/2-x,1/2+y,-z
loop_
_atom_site_type_symbol
_atom_site_label
_atom_site_fract_x
_atom_site_fract_y
_atom_site_fract_z
Si Si1 0.750000 0.365336 0.750000
Si Si2 0.856759 0.250000 0.250000
Si Si3 0.323679 0.101528 0.853975
Si Si4 0.351477 0.750000 0.750000
Si Si5 0.385357 0.500000 0.000000
Si Si6 0.558275 0.423975 0.610892
O O1 0.731903 0.409807 0.523655
O O2 0.694222 0.314219 0.767474
O O3 0.819034 0.179396 0.256905
O O4 0.886602 0.253107 0.505736
O O5 0.343742 0.041233 0.679200
O O6 0.382470 0.107189 0.011945
O O7 0.427963 0.442566 0.120939
O O8 0.557054 0.500000 0.500000
O O9 0.500000 0.389665 0.500000
#
# Coordination Sequence:
#
# PCOD9327909 Si02
#       6
#     8   8  16   8   8  16
#     4   9  20  38  64  96 132 180 236 295 354 423
#     4  10  22  39  68 100 130 188 242 303 352 430
#     4  10  22  39  68 104 141 182 245 305 362 440
#     4   9  20  38  62  98 126 180 254 288 338 431
#     4  10  22  41  72 106 140 192 244 307 368 446
#     4   9  20  40  68  99 135 180 240 292 363 440
#
# _framework density 25.326104999999998
#
# number of rings (size 3 to 8) (size 9 to 14) (size 15 to 20)
#    0.000    2.500    0.000    0.000    7.000   16.000 
#    0.000    0.000   13.750    0.000    0.000    0.000 
#    0.000    0.000    0.000    0.000    0.000    0.000 
#
# Total GULP energy -89095.451058 kJ/mol
# GULP energy per Si atom -5568.465691 kJ/mol
# Density = 2.526846 g / cm^3
# Si number density = 25.326105 Si / 1000 Ang^3
#
#
#
# Elastic Constant Matrix: (Units=GPa)
#
#
# Indices 1 2 3 4 5 6 
#
# 1 135.1248 41.2152 44.5066 -0.0005 0.0000 0.0002
# 2 41.2152 93.8260 30.7104 0.0008 0.0004 0.0001
# 3 44.5066 30.7104 213.8161 0.0036 0.0003 -0.0005
# 4 -0.0005 0.0008 0.0036 21.8184 0.0005 -0.0002
# 5 0.0000 0.0004 0.0003 0.0005 -15.6668 -0.0006
# 6 0.0002 0.0001 -0.0005 -0.0002 -0.0006 15.5032
#
#
#
# Elastic Compliance Matrix: (Units=1/GPa)
#
#
# Indices 1 2 3 4 5 6 
#
# 1 0.008905 -0.003468 -0.001355 0.000001 0.000000 0.000000
# 2 -0.003468 0.012534 -0.001078 0.000000 0.000000 0.000000
# 3 -0.001355 -0.001078 0.005114 -0.000001 0.000000 0.000000
# 4 0.000001 0.000000 -0.000001 0.045833 0.000002 0.000001
# 5 0.000000 0.000000 0.000000 0.000002 -0.063829 -0.000003
# 6 0.000000 0.000000 0.000000 0.000001 -0.000003 0.064503
#
#
# Mechanical properties :
#
#
# Convention : Reuss Voigt Hill
#
# Bulk Modulus (GPa) = 67.79940 75.07017 71.43479
# Shear Modulus (GPa) = 55.69180 26.08661 40.88921
#
# Velocity S-wave (km/s) = 4.69442 3.21289 4.02245
# Velocity P-wave (km/s) = 7.49748 6.59313 7.05980
#
# Compressibility (1/GPa) = 0.01474939
#
# Stress axis : x y z
#
# Youngs Moduli (GPa) = 112.29890 79.78046 195.54327
#
# Poissons Ratio (x) = 0.27668 0.26505
# Poissons Ratio (y) = 0.38945 0.21088
# Poissons Ratio (z) = 0.15222 0.08604
#
# Static dielectric constant tensor:
#      x y z
#    x 2.013820 0.000000 0.000000 
#    y 0.000000 2.351490 0.000000 
#    z 0.000000 0.000000 2.303290 
# 
# From -- ./inp_files/5363.got.cif
#   From: 2010.05.17/outbox.cif.g08.bks.cpg/sg22_3_cif.got.tgz:5363.got - 2010.06.03 23:40:54.
