data_PCOD9327899
_publ_section_title
;
Structure prediction by ZEFSAII (Michael W. Deem and Ramdas Pophale) SiO2 
 PCOD9327899
Probable space group: F 2 2 2
;
_chemical_formula_sum "Si O2"
_cell_formula_units_Z 52
_cell_length_a 10.892342
_cell_length_b 22.806030
_cell_length_c 10.312563
_cell_angle_alpha 90.000000
_cell_angle_beta 90.000000
_cell_angle_gamma 90.000000
_cell_volume 2561.754896
_symmetry_space_group_name_H-M "F 2 2 2"
_symmetry_group_IT_number 22
_symmetry_cell_setting 'orthorhombic'
loop_
_space_group_symop_operation_xyz
x,y,z
-x,-y,z
x,-y,-z
-x,y,-z
x,1/2+y,1/2+z
-x,1/2-y,1/2+z
x,1/2-y,1/2-z
-x,1/2+y,1/2-z
1/2+x,y,1/2+z
1/2-x,-y,1/2+z
1/2+x,-y,1/2-z
1/2-x,y,1/2-z
1/2+x,1/2+y,z
1/2-x,1/2-y,z
1/2+x,1/2-y,-z
1/2-x,1/2+y,-z
loop_
_atom_site_type_symbol
_atom_site_label
_atom_site_fract_x
_atom_site_fract_y
_atom_site_fract_z
Si Si1 0.750000 0.750000 0.750000
Si Si2 0.200783 0.500000 0.500000
Si Si3 0.351690 0.595535 0.637758
Si Si4 0.869409 0.716751 0.998976
Si Si5 0.500000 0.500000 0.780603
O O1 0.830784 0.788817 0.652037
O O2 0.284694 0.555372 0.531299
O O3 0.114583 0.511809 0.375978
O O4 0.250000 0.605027 0.750000
O O5 0.387195 0.657030 0.576338
O O6 0.461268 0.556106 0.695956
O O7 0.750000 0.750000 0.055493
O O8 0.000000 0.749819 0.000000
#
# Coordination Sequence:
#
# PCOD9327899 Si02
#       5
#     4   8  16  16   8
#     4   8  24  48  60 100 136 176 230 290 338 396
#     4   9  20  39  58  98 140 173 201 268 348 400
#     4  10  22  39  66 100 130 175 226 277 332 413
#     4  10  24  46  69  97 134 184 232 286 346 401
#     4   9  20  39  60  96 136 167 215 266 338 402
#
# _framework density 20.298586
#
# number of rings (size 3 to 8) (size 9 to 14) (size 15 to 20)
#    0.923    1.538    0.000    0.000    4.308    5.538 
#   13.846    0.000    0.000    0.000    0.000    0.000 
#    0.000    0.000    0.000    0.000    0.000    0.000 
#
# Total GULP energy -72467.466329 kJ/mol
# GULP energy per Si atom -5574.420487 kJ/mol
# Density = 2.025239 g / cm^3
# Si number density = 20.298586 Si / 1000 Ang^3
#
#
#
# Elastic Constant Matrix: (Units=GPa)
#
#
# Indices 1 2 3 4 5 6 
#
# 1 123.4853 40.4781 30.7786 0.0000 0.0000 0.0000
# 2 40.4781 84.2566 43.2875 0.0000 0.0000 0.0000
# 3 30.7786 43.2875 82.9955 0.0000 0.0000 0.0000
# 4 0.0000 0.0000 0.0000 22.6641 0.0000 0.0000
# 5 0.0000 0.0000 0.0000 0.0000 16.2633 0.0000
# 6 0.0000 0.0000 0.0000 0.0000 0.0000 25.8074
#
#
#
# Elastic Compliance Matrix: (Units=1/GPa)
#
#
# Indices 1 2 3 4 5 6 
#
# 1 0.009766 -0.003867 -0.001605 0.000000 0.000000 0.000000
# 2 -0.003867 0.017744 -0.007821 0.000000 0.000000 0.000000
# 3 -0.001605 -0.007821 0.016723 0.000000 0.000000 0.000000
# 4 0.000000 0.000000 0.000000 0.044123 0.000000 0.000000
# 5 0.000000 0.000000 0.000000 0.000000 0.061488 0.000000
# 6 0.000000 0.000000 0.000000 0.000000 0.000000 0.038749
#
#
# Mechanical properties :
#
#
# Convention : Reuss Voigt Hill
#
# Bulk Modulus (GPa) = 56.66367 57.75841 57.21104
# Shear Modulus (GPa) = 22.61832 24.69318 23.65575
#
# Velocity S-wave (km/s) = 3.34171 3.49162 3.41748
# Velocity P-wave (km/s) = 6.54714 6.69114 6.61953
#
# Compressibility (1/GPa) = 0.01764799
#
# Stress axis : x y z
#
# Youngs Moduli (GPa) = 102.39879 56.35613 59.79842
#
# Poissons Ratio (x) = 0.21794 0.09595
# Poissons Ratio (y) = 0.39600 0.46766
# Poissons Ratio (z) = 0.16431 0.44074
#
# Static dielectric constant tensor:
#      x y z
#    x 1.772900 0.000000 0.000000 
#    y 0.000000 1.735080 0.000000 
#    z 0.000000 0.000000 1.728240 
# 
# From -- ./inp_files/17699.got.cif
#   From: 2010.05.17/outbox.cif.g08.bks.cpg/sg22_9_cif.got.tgz:17699.got - 2010.06.03 23:40:54.
