data_PCOD9327977
_publ_section_title
;
Structure prediction by ZEFSAII (Michael W. Deem and Ramdas Pophale) SiO2 
 PCOD9327977
Probable space group: F 2 2 2
;
_chemical_formula_sum "Si O2"
_cell_formula_units_Z 88
_cell_length_a 25.207296
_cell_length_b 14.251488
_cell_length_c 12.895394
_cell_angle_alpha 90.000000
_cell_angle_beta 90.000000
_cell_angle_gamma 90.000000
_cell_volume 4632.560380
_symmetry_space_group_name_H-M "F 2 2 2"
_symmetry_group_IT_number 22
_symmetry_cell_setting 'orthorhombic'
loop_
_space_group_symop_operation_xyz
x,y,z
-x,-y,z
x,-y,-z
-x,y,-z
x,1/2+y,1/2+z
-x,1/2-y,1/2+z
x,1/2-y,1/2-z
-x,1/2+y,1/2-z
1/2+x,y,1/2+z
1/2-x,-y,1/2+z
1/2+x,-y,1/2-z
1/2-x,y,1/2-z
1/2+x,1/2+y,z
1/2-x,1/2-y,z
1/2+x,1/2-y,-z
1/2-x,1/2+y,-z
loop_
_atom_site_type_symbol
_atom_site_label
_atom_site_fract_x
_atom_site_fract_y
_atom_site_fract_z
Si Si1 0.307112 0.237579 0.019785
Si Si2 0.861747 0.352403 0.797483
Si Si3 0.184857 0.947469 0.896323
Si Si4 0.060338 0.504284 0.875954
Si Si5 0.860462 0.836304 0.679253
Si Si6 0.250000 0.568829 0.250000
O O1 0.250000 0.250000 0.966973
O O2 0.315415 0.166785 0.117045
O O3 0.310799 0.340899 0.066567
O O4 0.348228 0.206048 0.933952
O O5 0.871939 0.250000 0.750000
O O6 0.847294 0.428180 0.709450
O O7 0.912731 0.396636 0.850061
O O8 0.234991 0.005679 0.851204
O O9 0.164642 0.000000 0.000000
O O10 0.097153 0.419805 0.832962
O O11 0.000000 0.500000 0.837118
O O12 0.059942 0.500000 0.000000
O O13 0.879049 0.750000 0.750000
O O14 0.803720 0.873640 0.724488
#
# Coordination Sequence:
#
# PCOD9327977 Si02
#       6
#    16  16  16  16  16   8
#     4  11  22  36  56  91 131 170 213 256 320 400
#     4  10  22  41  63  89 126 168 219 271 332 393
#     4  11  22  35  58  90 127 171 214 258 320 394
#     4  11  24  45  71  94 122 172 233 280 332 403
#     4  12  24  40  62  98 136 172 215 273 344 405
#     4  12  23  38  61  94 136 176 209 254 331 410
#
# _framework density 18.995975000000001
#
# number of rings (size 3 to 8) (size 9 to 14) (size 15 to 20)
#    0.000    0.909    3.636    4.636    0.000    4.000 
#    0.000    0.000    0.000    0.545    0.000    0.000 
#    0.000    0.000    0.000    0.000    0.000    0.000 
#
# Total GULP energy -122540.953425 kJ/mol
# GULP energy per Si atom -5570.043337 kJ/mol
# Density = 1.895274 g / cm^3
# Si number density = 18.995975 Si / 1000 Ang^3
#
#
#
# Elastic Constant Matrix: (Units=GPa)
#
#
# Indices 1 2 3 4 5 6 
#
# 1 94.4348 44.2753 17.8375 0.0000 0.0000 0.0000
# 2 44.2753 84.4143 34.3201 0.0000 0.0000 0.0000
# 3 17.8375 34.3201 93.4895 0.0000 0.0000 0.0000
# 4 0.0000 0.0000 0.0000 40.2610 0.0000 0.0000
# 5 0.0000 0.0000 0.0000 0.0000 15.7150 0.0000
# 6 0.0000 0.0000 0.0000 0.0000 0.0000 15.5278
#
#
#
# Elastic Compliance Matrix: (Units=1/GPa)
#
#
# Indices 1 2 3 4 5 6 
#
# 1 0.014043 -0.007377 0.000029 0.000000 0.000000 0.000000
# 2 -0.007377 0.017800 -0.005127 0.000000 0.000000 0.000000
# 3 0.000029 -0.005127 0.012573 0.000000 0.000000 0.000000
# 4 0.000000 0.000000 0.000000 0.024838 0.000000 0.000000
# 5 0.000000 0.000000 0.000000 0.000000 0.063633 0.000000
# 6 0.000000 0.000000 0.000000 0.000000 0.000000 0.064401
#
#
# Mechanical properties :
#
#
# Convention : Reuss Voigt Hill
#
# Bulk Modulus (GPa) = 51.37331 51.68939 51.53135
# Shear Modulus (GPa) = 21.86021 26.02782 23.94401
#
# Velocity S-wave (km/s) = 3.39600 3.70560 3.55417
# Velocity P-wave (km/s) = 6.51767 6.75118 6.63545
#
# Compressibility (1/GPa) = 0.01946536
#
# Stress axis : x y z
#
# Youngs Moduli (GPa) = 71.21202 56.17966 79.53572
#
# Poissons Ratio (x) = 0.41444 -0.00229
# Poissons Ratio (y) = 0.52534 0.40777
# Poissons Ratio (z) = -0.00205 0.28803
#
# Static dielectric constant tensor:
#      x y z
#    x 1.683460 0.000000 0.000000 
#    y 0.000000 1.686850 0.000000 
#    z 0.000000 0.000000 1.711950 
# 
# From -- ./inp_files/19951.got.cif
#   From: 2010.05.17/outbox.cif.g08.bks.cpg/sg22_10_cif.got.tgz:19951.got - 2010.06.03 23:40:54.
