data_PCOD9327563
_publ_section_title
;
Structure prediction by ZEFSAII (Michael W. Deem and Ramdas Pophale) SiO2 
 PCOD9327563
Probable space group: F 2 2 2
;
_chemical_formula_sum "Si O2"
_cell_formula_units_Z 88
_cell_length_a 22.561754
_cell_length_b 13.830084
_cell_length_c 11.929450
_cell_angle_alpha 90.000000
_cell_angle_beta 90.000000
_cell_angle_gamma 90.000000
_cell_volume 3722.357652
_symmetry_space_group_name_H-M "F 2 2 2"
_symmetry_group_IT_number 22
_symmetry_cell_setting 'orthorhombic'
loop_
_space_group_symop_operation_xyz
x,y,z
-x,-y,z
x,-y,-z
-x,y,-z
x,1/2+y,1/2+z
-x,1/2-y,1/2+z
x,1/2-y,1/2-z
-x,1/2+y,1/2-z
1/2+x,y,1/2+z
1/2-x,-y,1/2+z
1/2+x,-y,1/2-z
1/2-x,y,1/2-z
1/2+x,1/2+y,z
1/2-x,1/2-y,z
1/2+x,1/2-y,-z
1/2-x,1/2+y,-z
loop_
_atom_site_type_symbol
_atom_site_label
_atom_site_fract_x
_atom_site_fract_y
_atom_site_fract_z
Si Si1 0.750000 0.250000 0.494838
Si Si2 0.349851 0.611462 0.972920
Si Si3 0.056992 0.105863 0.446443
Si Si4 0.593730 0.641148 0.791953
Si Si5 0.336608 0.402926 0.572341
Si Si6 0.957940 0.360409 0.701054
O O1 0.703351 0.183138 0.563980
O O2 0.717707 0.330645 0.419321
O O3 0.407110 0.618188 0.889853
O O4 0.332210 0.500000 0.000000
O O5 0.369170 0.643594 0.096113
O O6 0.116512 0.152088 0.490530
O O7 0.054590 0.086957 0.317090
O O8 0.000000 0.158156 0.500000
O O9 0.058094 0.000000 0.500000
O O10 0.587188 0.750000 0.750000
O O11 0.629472 0.586998 0.691388
O O12 0.526139 0.612318 0.825399
O O13 0.321412 0.500000 0.500000
O O14 0.955061 0.250000 0.750000
#
# Coordination Sequence:
#
# PCOD9327563 Si02
#       6
#     8  16  16  16  16  16
#     4  12  26  55  73 104 158 212 271 329 362 472
#     4  12  29  48  75 112 158 206 258 324 401 455
#     4  10  21  39  71 106 141 187 244 304 368 459
#     4  11  24  46  77 111 152 202 250 324 391 469
#     4  11  24  44  80 111 141 198 269 314 378 451
#     4  11  25  43  73 114 160 196 241 315 403 467
#
# _framework density 23.640929
#
# number of rings (size 3 to 8) (size 9 to 14) (size 15 to 20)
#    0.000    0.909    3.636    2.182    5.091    2.909 
#    0.000    4.091    0.000    0.000    0.000    0.000 
#    0.000    0.000    0.000    0.000    0.000    0.000 
#
# Total GULP energy -122764.224672 kJ/mol
# GULP energy per Si atom -5580.192031 kJ/mol
# Density = 2.358712 g / cm^3
# Si number density = 23.640929 Si / 1000 Ang^3
#
#
#
# Elastic Constant Matrix: (Units=GPa)
#
#
# Indices 1 2 3 4 5 6 
#
# 1 135.3576 53.8051 44.3056 0.0000 0.0000 0.0000
# 2 53.8051 132.3091 26.9742 0.0000 0.0000 0.0000
# 3 44.3056 26.9742 105.6334 0.0000 0.0000 0.0000
# 4 0.0000 0.0000 0.0000 28.1860 0.0000 0.0000
# 5 0.0000 0.0000 0.0000 0.0000 31.6933 0.0000
# 6 0.0000 0.0000 0.0000 0.0000 0.0000 22.0855
#
#
#
# Elastic Compliance Matrix: (Units=1/GPa)
#
#
# Indices 1 2 3 4 5 6 
#
# 1 0.009768 -0.003309 -0.003252 0.000000 0.000000 0.000000
# 2 -0.003309 0.009094 -0.000934 0.000000 0.000000 0.000000
# 3 -0.003252 -0.000934 0.011069 0.000000 0.000000 0.000000
# 4 0.000000 0.000000 0.000000 0.035479 0.000000 0.000000
# 5 0.000000 0.000000 0.000000 0.000000 0.031552 0.000000
# 6 0.000000 0.000000 0.000000 0.000000 0.000000 0.045279
#
#
# Mechanical properties :
#
#
# Convention : Reuss Voigt Hill
#
# Bulk Modulus (GPa) = 66.93223 69.27445 68.10334
# Shear Modulus (GPa) = 30.82397 32.94065 31.88231
#
# Velocity S-wave (km/s) = 3.61479 3.73684 3.67632
# Velocity P-wave (km/s) = 6.76726 6.92712 6.84766
#
# Compressibility (1/GPa) = 0.01494048
#
# Stress axis : x y z
#
# Youngs Moduli (GPa) = 102.37897 109.95954 90.34094
#
# Poissons Ratio (x) = 0.36388 0.29377
# Poissons Ratio (y) = 0.33879 0.08441
# Poissons Ratio (z) = 0.33292 0.10274
#
# Static dielectric constant tensor:
#      x y z
#    x 2.104090 0.000000 0.000000 
#    y 0.000000 1.918260 0.000000 
#    z 0.000000 0.000000 1.909750 
# 
# From -- ./inp_files/23652.got.cif
#   From: 2010.05.17/outbox.cif.g08.bks.cpg/sg22_12_cif.got.tgz:23652.got - 2010.06.03 23:40:54.
