data_PCOD9327443
_publ_section_title
;
Structure prediction by ZEFSAII (Michael W. Deem and Ramdas Pophale) SiO2 
 PCOD9327443
Probable space group: F 2 2 2
;
_chemical_formula_sum "Si O2"
_cell_formula_units_Z 80
_cell_length_a 24.578957
_cell_length_b 11.863914
_cell_length_c 13.079633
_cell_angle_alpha 90.000000
_cell_angle_beta 90.000000
_cell_angle_gamma 90.000000
_cell_volume 3814.055409
_symmetry_space_group_name_H-M "F 2 2 2"
_symmetry_group_IT_number 22
_symmetry_cell_setting 'orthorhombic'
loop_
_space_group_symop_operation_xyz
x,y,z
-x,-y,z
x,-y,-z
-x,y,-z
x,1/2+y,1/2+z
-x,1/2-y,1/2+z
x,1/2-y,1/2-z
-x,1/2+y,1/2-z
1/2+x,y,1/2+z
1/2-x,-y,1/2+z
1/2+x,-y,1/2-z
1/2-x,y,1/2-z
1/2+x,1/2+y,z
1/2-x,1/2-y,z
1/2+x,1/2-y,-z
1/2-x,1/2+y,-z
loop_
_atom_site_type_symbol
_atom_site_label
_atom_site_fract_x
_atom_site_fract_y
_atom_site_fract_z
Si Si1 0.215567 0.957668 0.852928
Si Si2 0.345625 0.803183 0.362906
Si Si3 0.179917 0.877655 0.537201
Si Si4 0.562761 0.961801 0.612929
Si Si5 0.883433 0.134257 0.747098
O O1 0.250000 0.978544 0.750000
O O2 0.187749 0.078621 0.876682
O O3 0.257475 0.897838 0.928968
O O4 0.167879 0.870570 0.825053
O O5 0.336083 0.750000 0.250000
O O6 0.328312 0.714362 0.449412
O O7 0.409379 0.839251 0.374787
O O8 0.143174 0.864449 0.636884
O O9 0.162167 0.000000 0.500000
O O10 0.500000 0.000000 0.609994
O O11 0.583794 0.000000 0.500000
O O12 0.583995 0.028270 0.712795
O O13 0.916433 0.250000 0.750000
#
# Coordination Sequence:
#
# PCOD9327443 Si02
#       5
#    16  16  16  16  16
#     4   9  21  37  54  85 127 170 216 260 316 399
#     4  11  23  42  64  91 132 177 221 277 340 407
#     4  11  23  37  59  89 125 169 211 260 322 395
#     4  10  22  42  66  91 120 163 220 280 346 410
#     4  10  21  38  58  87 121 154 204 266 323 387
#
# _framework density 20.975048999999999
#
# number of rings (size 3 to 8) (size 9 to 14) (size 15 to 20)
#    0.000    1.800    0.000    4.800    0.000   13.600 
#    0.000    0.000    0.000    4.200    0.000    0.000 
#    0.000    0.000    0.000    0.000    0.000    0.000 
#
# Total GULP energy -111456.262683 kJ/mol
# GULP energy per Si atom -5572.813134 kJ/mol
# Density = 2.092731 g / cm^3
# Si number density = 20.975049 Si / 1000 Ang^3
#
#
#
# Elastic Constant Matrix: (Units=GPa)
#
#
# Indices 1 2 3 4 5 6 
#
# 1 84.3179 34.5746 46.3836 0.0000 0.0000 0.0000
# 2 34.5746 140.5346 72.3191 0.0000 0.0000 0.0000
# 3 46.3836 72.3191 151.1581 0.0000 0.0000 0.0000
# 4 0.0000 0.0000 0.0000 37.5847 0.0000 0.0000
# 5 0.0000 0.0000 0.0000 0.0000 15.0233 0.0000
# 6 0.0000 0.0000 0.0000 0.0000 0.0000 20.8420
#
#
#
# Elastic Compliance Matrix: (Units=1/GPa)
#
#
# Indices 1 2 3 4 5 6 
#
# 1 0.014569 -0.001703 -0.003656 0.000000 0.000000 0.000000
# 2 -0.001703 0.009639 -0.004089 0.000000 0.000000 0.000000
# 3 -0.003656 -0.004089 0.009694 0.000000 0.000000 0.000000
# 4 0.000000 0.000000 0.000000 0.026607 0.000000 0.000000
# 5 0.000000 0.000000 0.000000 0.000000 0.066563 0.000000
# 6 0.000000 0.000000 0.000000 0.000000 0.000000 0.047980
#
#
# Mechanical properties :
#
#
# Convention : Reuss Voigt Hill
#
# Bulk Modulus (GPa) = 66.63955 75.84059 71.24007
# Shear Modulus (GPa) = 25.13197 29.53888 27.33542
#
# Velocity S-wave (km/s) = 3.46523 3.75679 3.61395
# Velocity P-wave (km/s) = 6.91739 7.41983 7.17301
#
# Compressibility (1/GPa) = 0.01500610
#
# Stress axis : x y z
#
# Youngs Moduli (GPa) = 68.63737 103.74683 103.15975
#
# Poissons Ratio (x) = 0.17669 0.37714
# Poissons Ratio (y) = 0.11689 0.42182
# Poissons Ratio (z) = 0.25093 0.42422
#
# Static dielectric constant tensor:
#      x y z
#    x 1.829030 0.000000 0.000000 
#    y 0.000000 1.779450 0.000000 
#    z 0.000000 0.000000 1.820930 
# 
# From -- ./inp_files/32256.got.cif
#   From: 2010.05.17/outbox.cif.g08.bks.cpg/sg22_17_cif.got.tgz:32256.got - 2010.06.03 23:40:54.
