data_PCOD9327906
_publ_section_title
;
Structure prediction by ZEFSAII (Michael W. Deem and Ramdas Pophale) SiO2 
 PCOD9327906
Probable space group: F 2 2 2
;
_chemical_formula_sum "Si O2"
_cell_formula_units_Z 52
_cell_length_a 33.578527
_cell_length_b 4.897458
_cell_length_c 14.573398
_cell_angle_alpha 90.000000
_cell_angle_beta 90.000000
_cell_angle_gamma 90.000000
_cell_volume 2396.586931
_symmetry_space_group_name_H-M "F 2 2 2"
_symmetry_group_IT_number 22
_symmetry_cell_setting 'orthorhombic'
loop_
_space_group_symop_operation_xyz
x,y,z
-x,-y,z
x,-y,-z
-x,y,-z
x,1/2+y,1/2+z
-x,1/2-y,1/2+z
x,1/2-y,1/2-z
-x,1/2+y,1/2-z
1/2+x,y,1/2+z
1/2-x,-y,1/2+z
1/2+x,-y,1/2-z
1/2-x,y,1/2-z
1/2+x,1/2+y,z
1/2-x,1/2-y,z
1/2+x,1/2-y,-z
1/2-x,1/2+y,-z
loop_
_atom_site_type_symbol
_atom_site_label
_atom_site_fract_x
_atom_site_fract_y
_atom_site_fract_z
Si Si1 0.500000 0.000000 0.312573
Si Si2 0.696438 0.750000 0.250000
Si Si3 0.415413 0.990366 0.608969
Si Si4 0.750000 0.750000 0.750000
Si Si5 0.134649 0.990807 0.388860
O O1 0.488089 0.250000 0.250000
O O2 0.459855 0.924758 0.365569
O O3 0.720804 0.486724 0.207613
O O4 0.670890 0.888380 0.169034
O O5 0.402947 0.685598 0.634290
O O6 0.413734 0.000000 0.500000
O O7 0.380401 0.192916 0.640466
O O8 0.141758 0.000000 0.500000
#
# Coordination Sequence:
#
# PCOD9327906 Si02
#       5
#     8   8  16   4  16
#     4  12  25  36  55  88 126 164 218 266 319 374
#     4  11  22  42  68  92 137 160 207 264 316 396
#     4  10  22  40  58  85 124 169 215 264 316 369
#     4  10  24  42  64 102 126 172 198 242 340 398
#     4  10  22  39  66  94 121 167 217 258 317 377
#
# _framework density 21.697520999999998
#
# number of rings (size 3 to 8) (size 9 to 14) (size 15 to 20)
#    0.000    1.538    0.000    4.154    6.462    0.000 
#    0.000    9.231    0.000    0.000    0.000    0.000 
#    0.000    0.000    0.000    0.000    0.000    0.000 
#
# Total GULP energy -72439.491316 kJ/mol
# GULP energy per Si atom -5572.268563 kJ/mol
# Density = 2.164814 g / cm^3
# Si number density = 21.697521 Si / 1000 Ang^3
#
#
#
# Elastic Constant Matrix: (Units=GPa)
#
#
# Indices 1 2 3 4 5 6 
#
# 1 108.9955 31.9733 37.0890 -0.0001 0.0001 0.0000
# 2 31.9733 124.6304 21.9212 -0.0001 0.0002 0.0000
# 3 37.0890 21.9212 74.8994 -0.0001 0.0000 0.0000
# 4 -0.0001 -0.0001 -0.0001 15.8477 0.0001 0.0000
# 5 0.0001 0.0002 0.0000 0.0001 -6.0485 0.0000
# 6 0.0000 0.0000 0.0000 0.0000 0.0000 39.7295
#
#
#
# Elastic Compliance Matrix: (Units=1/GPa)
#
#
# Indices 1 2 3 4 5 6 
#
# 1 0.011513 -0.002057 -0.005099 0.000000 0.000000 0.000000
# 2 -0.002057 0.008827 -0.001565 0.000000 0.000000 0.000000
# 3 -0.005099 -0.001565 0.016334 0.000000 0.000000 0.000000
# 4 0.000000 0.000000 0.000000 0.063101 0.000001 0.000000
# 5 0.000000 0.000000 0.000000 0.000001 -0.165331 0.000000
# 6 0.000000 0.000000 0.000000 0.000000 0.000000 0.025170
#
#
# Mechanical properties :
#
#
# Convention : Reuss Voigt Hill
#
# Bulk Modulus (GPa) = 51.99539 54.49915 53.24727
# Shear Modulus (GPa) = -302.42190 24.40853 -139.00669
#
# Velocity S-wave (km/s) = -11.81877 3.35766 -8.01279
# Velocity P-wave (km/s) = 12.73691 6.34067 7.81104
#
# Compressibility (1/GPa) = 0.01923247
#
# Stress axis : x y z
#
# Youngs Moduli (GPa) = 86.85691 113.29364 61.22094
#
# Poissons Ratio (x) = 0.23302 0.31218
# Poissons Ratio (y) = 0.17864 0.09580
# Poissons Ratio (z) = 0.44290 0.17729
#
# Static dielectric constant tensor:
#      x y z
#    x 1.820040 0.000000 0.000000 
#    y 0.000000 1.873740 0.000000 
#    z 0.000000 0.000000 1.788130 
# 
# From -- ./inp_files/40145.got.cif
#   From: 2010.05.17/outbox.cif.g08.bks.cpg/sg22_21_cif.got.tgz:40145.got - 2010.06.03 23:40:54.
