data_PCOD9327734
_publ_section_title
;
Structure prediction by ZEFSAII (Michael W. Deem and Ramdas Pophale) SiO2 
 PCOD9327734
Probable space group: F 2 2 2
;
_chemical_formula_sum "Si O2"
_cell_formula_units_Z 40
_cell_length_a 7.361581
_cell_length_b 17.095385
_cell_length_c 12.410691
_cell_angle_alpha 90.000000
_cell_angle_beta 90.000000
_cell_angle_gamma 90.000000
_cell_volume 1561.873814
_symmetry_space_group_name_H-M "F 2 2 2"
_symmetry_group_IT_number 22
_symmetry_cell_setting 'orthorhombic'
loop_
_space_group_symop_operation_xyz
x,y,z
-x,-y,z
x,-y,-z
-x,y,-z
x,1/2+y,1/2+z
-x,1/2-y,1/2+z
x,1/2-y,1/2-z
-x,1/2+y,1/2-z
1/2+x,y,1/2+z
1/2-x,-y,1/2+z
1/2+x,-y,1/2-z
1/2-x,y,1/2-z
1/2+x,1/2+y,z
1/2-x,1/2-y,z
1/2+x,1/2-y,-z
1/2-x,1/2+y,-z
loop_
_atom_site_type_symbol
_atom_site_label
_atom_site_fract_x
_atom_site_fract_y
_atom_site_fract_z
Si Si1 0.500000 0.710770 0.000000
Si Si2 0.005050 0.908670 0.157124
Si Si3 0.924001 0.132435 0.389333
O O1 0.605320 0.649373 0.077882
O O2 0.434863 0.774627 0.087584
O O3 0.969054 0.893734 0.282816
O O4 0.214736 0.886234 0.133801
O O5 0.000000 0.000000 0.132938
O O6 0.000000 0.095907 0.500000
#
# Coordination Sequence:
#
# PCOD9327734 Si02
#       3
#     8  16  16
#     4  10  21  42  75 102 140 200 236 292 359 436
#     4  11  22  45  70 111 147 185 241 306 357 418
#     4   9  23  45  75 100 146 191 245 282 365 433
#
# _framework density 25.610264999999998
#
# number of rings (size 3 to 8) (size 9 to 14) (size 15 to 20)
#    1.200    0.800    0.000    3.000    0.000    4.000 
#   28.800    0.000    8.800    0.000    0.000    0.000 
#    0.000    0.000    0.000    0.000    0.000    0.000 
#
# Total GULP energy -55775.756490 kJ/mol
# GULP energy per Si atom -5577.575649 kJ/mol
# Density = 2.555197 g / cm^3
# Si number density = 25.610265 Si / 1000 Ang^3
#
#
#
# Elastic Constant Matrix: (Units=GPa)
#
#
# Indices 1 2 3 4 5 6 
#
# 1 40.8251 14.1038 15.8943 0.0000 0.0000 0.0000
# 2 14.1038 254.5247 59.9626 0.0000 0.0000 0.0000
# 3 15.8943 59.9626 214.9298 0.0000 0.0000 0.0000
# 4 0.0000 0.0000 0.0000 59.2429 0.0000 0.0000
# 5 0.0000 0.0000 0.0000 0.0000 29.6550 0.0000
# 6 0.0000 0.0000 0.0000 0.0000 0.0000 23.7270
#
#
#
# Elastic Compliance Matrix: (Units=1/GPa)
#
#
# Indices 1 2 3 4 5 6 
#
# 1 0.025474 -0.001036 -0.001595 0.000000 0.000000 0.000000
# 2 -0.001036 0.004247 -0.001108 0.000000 0.000000 0.000000
# 3 -0.001595 -0.001108 0.005080 0.000000 0.000000 0.000000
# 4 0.000000 0.000000 0.000000 0.016880 0.000000 0.000000
# 5 0.000000 0.000000 0.000000 0.000000 0.033721 0.000000
# 6 0.000000 0.000000 0.000000 0.000000 0.000000 0.042146
#
#
# Mechanical properties :
#
#
# Convention : Reuss Voigt Hill
#
# Bulk Modulus (GPa) = 36.59955 76.68899 56.64427
# Shear Modulus (GPa) = 34.69013 50.54624 42.61818
#
# Velocity S-wave (km/s) = 3.68440 4.44742 4.08377
# Velocity P-wave (km/s) = 5.69401 7.50882 6.66349
#
# Compressibility (1/GPa) = 0.02732274
#
# Stress axis : x y z
#
# Youngs Moduli (GPa) = 39.25646 235.43778 196.85655
#
# Poissons Ratio (x) = 0.24387 0.31395
# Poissons Ratio (y) = 0.04066 0.21819
# Poissons Ratio (z) = 0.06261 0.26095
#
# Static dielectric constant tensor:
#      x y z
#    x 2.333700 0.000000 0.000000 
#    y 0.000000 1.953840 0.000000 
#    z 0.000000 0.000000 2.102280 
# 
# From -- ./inp_files/8904.got.cif
#   From: 2010.05.17/outbox.cif.g08.bks.cpg/sg22_5_cif.got.tgz:8904.got - 2010.06.03 23:40:54.
