data_PCOD9327947
_publ_section_title
;
Structure prediction by ZEFSAII (Michael W. Deem and Ramdas Pophale) SiO2 
 PCOD9327947
Probable space group: F 2 2 2
;
_chemical_formula_sum "Si O2"
_cell_formula_units_Z 84
_cell_length_a 24.433102
_cell_length_b 8.519981
_cell_length_c 20.272151
_cell_angle_alpha 90.000000
_cell_angle_beta 90.000000
_cell_angle_gamma 90.000000
_cell_volume 4220.044851
_symmetry_space_group_name_H-M "F 2 2 2"
_symmetry_group_IT_number 22
_symmetry_cell_setting 'orthorhombic'
loop_
_space_group_symop_operation_xyz
x,y,z
-x,-y,z
x,-y,-z
-x,y,-z
x,1/2+y,1/2+z
-x,1/2-y,1/2+z
x,1/2-y,1/2-z
-x,1/2+y,1/2-z
1/2+x,y,1/2+z
1/2-x,-y,1/2+z
1/2+x,-y,1/2-z
1/2-x,y,1/2-z
1/2+x,1/2+y,z
1/2-x,1/2-y,z
1/2+x,1/2-y,-z
1/2-x,1/2+y,-z
loop_
_atom_site_type_symbol
_atom_site_label
_atom_site_fract_x
_atom_site_fract_y
_atom_site_fract_z
Si Si1 0.241393 0.432600 0.827927
Si Si2 0.290921 0.106492 0.440661
Si Si3 0.500000 0.500000 0.000000
Si Si4 0.909560 0.612787 0.403694
Si Si5 0.440088 0.077329 0.717814
Si Si6 0.862282 0.866638 0.306149
O O1 0.250000 0.440803 0.750000
O O2 0.250000 0.250000 0.846673
O O3 0.285773 0.525307 0.869708
O O4 0.184220 0.525310 0.840081
O O5 0.250000 0.250000 0.439281
O O6 0.355350 0.129481 0.448255
O O7 0.270797 0.000000 0.500000
O O8 0.461313 0.396408 0.047880
O O9 0.915529 0.459106 0.355547
O O10 0.899509 0.759455 0.354165
O O11 0.443098 0.250000 0.750000
O O12 0.500000 0.000000 0.716003
O O13 0.401546 0.981781 0.766874
O O14 0.837290 0.750000 0.250000
#
# Coordination Sequence:
#
# PCOD9327947 Si02
#       6
#    16  16   4  16  16  16
#     4  11  24  39  66 103 140 177 228 284 348 423
#     4  12  25  45  68  97 138 188 230 285 356 424
#     4  12  24  44  76  98 136 188 242 276 344 412
#     4  11  23  43  70  99 136 180 232 286 344 420
#     4  11  23  40  70 101 135 176 227 290 350 412
#     4  10  22  40  66 101 137 178 221 283 351 406
#
# _framework density 19.905002
#
# number of rings (size 3 to 8) (size 9 to 14) (size 15 to 20)
#    0.000    0.952    3.810    4.571    5.333    0.000 
#    0.000    0.000    0.000    1.143    0.000    0.000 
#    0.000    0.000    0.000    0.000    0.000    0.000 
#
# Total GULP energy -117073.975896 kJ/mol
# GULP energy per Si atom -5574.951233 kJ/mol
# Density = 1.985970 g / cm^3
# Si number density = 19.905002 Si / 1000 Ang^3
#
#
#
# Elastic Constant Matrix: (Units=GPa)
#
#
# Indices 1 2 3 4 5 6 
#
# 1 124.6809 46.2165 20.6238 0.0000 0.0000 0.0000
# 2 46.2165 126.4662 39.8631 0.0000 -0.0001 0.0000
# 3 20.6238 39.8631 75.1880 0.0000 0.0000 0.0000
# 4 0.0000 0.0000 0.0000 23.5460 0.0000 0.0000
# 5 0.0000 -0.0001 0.0000 0.0000 -164.5301 0.0001
# 6 0.0000 0.0000 0.0000 0.0000 0.0001 29.8628
#
#
#
# Elastic Compliance Matrix: (Units=1/GPa)
#
#
# Indices 1 2 3 4 5 6 
#
# 1 0.009328 -0.003124 -0.000902 0.000000 0.000000 0.000000
# 2 -0.003124 0.010540 -0.004731 0.000000 0.000000 0.000000
# 3 -0.000902 -0.004731 0.016056 0.000000 0.000000 0.000000
# 4 0.000000 0.000000 0.000000 0.042470 0.000000 0.000000
# 5 0.000000 0.000000 0.000000 0.000000 -0.006078 0.000000
# 6 0.000000 0.000000 0.000000 0.000000 0.000000 0.033486
#
#
# Mechanical properties :
#
#
# Convention : Reuss Voigt Hill
#
# Bulk Modulus (GPa) = 54.32276 59.97132 57.14704
# Shear Modulus (GPa) = 38.62357 -7.58216 15.52071
#
# Velocity S-wave (km/s) = 4.40977 -1.95383 2.79541
# Velocity P-wave (km/s) = 7.29920 5.01041 6.26030
#
# Compressibility (1/GPa) = 0.01840849
#
# Stress axis : x y z
#
# Youngs Moduli (GPa) = 107.20560 94.87283 62.28259
#
# Poissons Ratio (x) = 0.29643 0.05618
# Poissons Ratio (y) = 0.33496 0.29468
# Poissons Ratio (z) = 0.09670 0.44887
#
# Static dielectric constant tensor:
#      x y z
#    x 1.737260 0.000000 0.000000 
#    y 0.000000 1.736470 0.000000 
#    z 0.000000 0.000000 1.741140 
# 
# From -- ./inp_files/41794.got.cif
#   From: 2010.05.17/outbox.cif.g08.bks.cpg/sg22_21_cif.got.tgz:41794.got - 2010.06.03 23:40:54.
