data_PCOD9327627
_publ_section_title
;
Structure prediction by ZEFSAII (Michael W. Deem and Ramdas Pophale) SiO2 
 PCOD9327627
Probable space group: F 2 2 2
;
_chemical_formula_sum "Si O2"
_cell_formula_units_Z 108
_cell_length_a 13.995156
_cell_length_b 15.390381
_cell_length_c 24.469549
_cell_angle_alpha 90.000000
_cell_angle_beta 90.000000
_cell_angle_gamma 90.000000
_cell_volume 5270.515319
_symmetry_space_group_name_H-M "F 2 2 2"
_symmetry_group_IT_number 22
_symmetry_cell_setting 'orthorhombic'
loop_
_space_group_symop_operation_xyz
x,y,z
-x,-y,z
x,-y,-z
-x,y,-z
x,1/2+y,1/2+z
-x,1/2-y,1/2+z
x,1/2-y,1/2-z
-x,1/2+y,1/2-z
1/2+x,y,1/2+z
1/2-x,-y,1/2+z
1/2+x,-y,1/2-z
1/2-x,y,1/2-z
1/2+x,1/2+y,z
1/2-x,1/2-y,z
1/2+x,1/2-y,-z
1/2-x,1/2+y,-z
loop_
_atom_site_type_symbol
_atom_site_label
_atom_site_fract_x
_atom_site_fract_y
_atom_site_fract_z
Si Si1 0.750000 0.750000 0.613594
Si Si2 0.714274 0.007597 0.193333
Si Si3 0.399670 0.317168 0.699753
Si Si4 0.106816 0.011338 0.122941
Si Si5 0.750000 0.750000 0.250000
Si Si6 0.090158 0.193234 0.077318
Si Si7 0.879407 0.139416 0.045834
Si Si8 0.115769 0.341073 0.160575
O O1 0.662266 0.725179 0.651757
O O2 0.784891 0.672956 0.575077
O O3 0.750000 0.966428 0.250000
O O4 0.653983 0.091907 0.210215
O O5 0.810273 0.028361 0.159763
O O6 0.651830 0.940232 0.158001
O O7 0.398853 0.250000 0.750000
O O8 0.506695 0.335607 0.680442
O O9 0.122606 0.113774 0.115970
O O10 0.107134 0.960505 0.064763
O O11 0.000000 0.000000 0.146349
O O12 0.819794 0.700713 0.207968
O O13 0.121533 0.282983 0.105324
O O14 0.974923 0.185553 0.070421
O O15 0.125874 0.167275 0.017043
#
# Coordination Sequence:
#
# PCOD9327627 Si02
#       8
#     8  16  16  16   4  16  16  16
#     4  12  21  41  68 102 129 177 226 288 342 408
#     4  12  26  44  65 103 139 183 237 282 350 425
#     4  12  26  45  70  98 137 182 228 284 353 412
#     4  10  22  41  68  98 143 178 232 290 345 398
#     4  12  24  46  68  98 136 184 232 268 342 430
#     4  10  22  41  68 101 137 187 225 286 347 400
#     4  10  21  40  69 101 137 176 239 287 340 403
#     4  12  25  45  69 100 142 184 226 284 347 424
#
# _framework density 20.491354999999999
#
# number of rings (size 3 to 8) (size 9 to 14) (size 15 to 20)
#    0.000    0.889    4.444    2.889    0.000    4.741 
#    0.000    0.000    0.000    0.000    0.000    0.000 
#    0.000    0.000    0.000    0.000    0.000    0.000 
#
# Total GULP energy -150785.621556 kJ/mol
# GULP energy per Si atom -5584.652650 kJ/mol
# Density = 2.044472 g / cm^3
# Si number density = 20.491355 Si / 1000 Ang^3
#
#
#
# Elastic Constant Matrix: (Units=GPa)
#
#
# Indices 1 2 3 4 5 6 
#
# 1 131.9475 31.6805 43.5460 0.0000 0.0000 0.0000
# 2 31.6805 106.6604 33.2881 0.0000 0.0000 0.0000
# 3 43.5460 33.2881 91.3667 0.0000 0.0000 0.0000
# 4 0.0000 0.0000 0.0000 22.2995 0.0000 0.0000
# 5 0.0000 0.0000 0.0000 0.0000 -33.5041 0.0000
# 6 0.0000 0.0000 0.0000 0.0000 0.0000 31.9712
#
#
#
# Elastic Compliance Matrix: (Units=1/GPa)
#
#
# Indices 1 2 3 4 5 6 
#
# 1 0.009213 -0.001541 -0.003829 0.000000 0.000000 0.000000
# 2 -0.001541 0.010836 -0.003213 0.000000 0.000000 0.000000
# 3 -0.003829 -0.003213 0.013941 0.000000 0.000000 0.000000
# 4 0.000000 0.000000 0.000000 0.044844 0.000000 0.000000
# 5 0.000000 0.000000 0.000000 0.000000 -0.029847 0.000000
# 6 0.000000 0.000000 0.000000 0.000000 0.000000 0.031278
#
#
# Mechanical properties :
#
#
# Convention : Reuss Voigt Hill
#
# Bulk Modulus (GPa) = 59.44724 60.77820 60.11272
# Shear Modulus (GPa) = 48.52492 18.91731 33.72111
#
# Velocity S-wave (km/s) = 4.87156 3.04169 4.06103
# Velocity P-wave (km/s) = 7.79209 6.48542 7.16859
#
# Compressibility (1/GPa) = 0.01682164
#
# Stress axis : x y z
#
# Youngs Moduli (GPa) = 108.54727 92.28300 71.73223
#
# Poissons Ratio (x) = 0.14223 0.27468
# Poissons Ratio (y) = 0.16730 0.23051
# Poissons Ratio (z) = 0.41565 0.29655
#
# Static dielectric constant tensor:
#      x y z
#    x 1.726030 0.000000 0.000000 
#    y 0.000000 1.792670 0.000000 
#    z 0.000000 0.000000 1.728060 
# 
# From -- ./inp_files/48985.got.cif
#   From: 2010.05.17/outbox.cif.g08.bks.cpg/sg22_25_cif.got.tgz:48985.got - 2010.06.03 23:40:54.
