data_PCOD9327404
_publ_section_title
;
Structure prediction by ZEFSAII (Michael W. Deem and Ramdas Pophale) SiO2 
 PCOD9327404
Probable space group: F 2 2 2
;
_chemical_formula_sum "Si O2"
_cell_formula_units_Z 96
_cell_length_a 8.715580
_cell_length_b 25.859933
_cell_length_c 23.990513
_cell_angle_alpha 90.000000
_cell_angle_beta 90.000000
_cell_angle_gamma 90.000000
_cell_volume 5407.085336
_symmetry_space_group_name_H-M "F 2 2 2"
_symmetry_group_IT_number 22
_symmetry_cell_setting 'orthorhombic'
loop_
_space_group_symop_operation_xyz
x,y,z
-x,-y,z
x,-y,-z
-x,y,-z
x,1/2+y,1/2+z
-x,1/2-y,1/2+z
x,1/2-y,1/2-z
-x,1/2+y,1/2-z
1/2+x,y,1/2+z
1/2-x,-y,1/2+z
1/2+x,-y,1/2-z
1/2-x,y,1/2-z
1/2+x,1/2+y,z
1/2-x,1/2-y,z
1/2+x,1/2-y,-z
1/2-x,1/2+y,-z
loop_
_atom_site_type_symbol
_atom_site_label
_atom_site_fract_x
_atom_site_fract_y
_atom_site_fract_z
Si Si1 0.184041 0.938716 0.501821
Si Si2 0.317059 0.593193 0.880064
Si Si3 0.185150 0.095596 0.885450
Si Si4 0.315993 0.306517 0.810786
Si Si5 0.683413 0.997359 0.811770
Si Si6 0.683293 0.694198 0.188886
O O1 0.247419 0.915562 0.559057
O O2 0.256475 0.910892 0.448306
O O3 0.000000 0.934600 0.500000
O O4 0.223217 0.000000 0.500000
O O5 0.501386 0.588704 0.882993
O O6 0.250672 0.548947 0.839884
O O7 0.277650 0.648827 0.854015
O O8 0.222821 0.150262 0.856469
O O9 0.263568 0.050572 0.849416
O O10 0.250000 0.321534 0.750000
O O11 0.250000 0.250000 0.824364
O O12 0.499627 0.302682 0.806536
O O13 0.750000 0.991509 0.750000
O O14 0.500000 0.000000 0.810173
O O15 0.750000 0.681688 0.250000
O O16 0.750000 0.750000 0.172568
#
# Coordination Sequence:
#
# PCOD9327404 Si02
#       6
#    16  16  16  16  16  16
#     4  11  23  39  60  87 115 154 199 239 290 346
#     4  11  23  39  60  86 116 153 195 240 290 345
#     4  11  23  39  60  86 116 153 195 240 290 345
#     4  10  21  37  60  88 117 153 193 235 290 345
#     4  12  24  37  56  85 118 152 190 236 292 348
#     4  10  21  37  60  88 117 153 193 235 290 345
#
# _framework density 17.754481999999999
#
# number of rings (size 3 to 8) (size 9 to 14) (size 15 to 20)
#    0.000    1.167    1.667    6.000    0.000    8.667 
#    0.000    0.833    0.000    0.000    0.000    0.000 
#    0.000    0.000    0.000    0.000    0.000    0.000 
#
# Total GULP energy -134202.211170 kJ/mol
# GULP energy per Si atom -5591.758799 kJ/mol
# Density = 1.771407 g / cm^3
# Si number density = 17.754482 Si / 1000 Ang^3
#
#
#
# Elastic Constant Matrix: (Units=GPa)
#
#
# Indices 1 2 3 4 5 6 
#
# 1 59.0488 27.2482 -2.2885 0.0000 0.0000 0.0000
# 2 27.2482 82.4675 12.5606 0.0000 0.0000 0.0000
# 3 -2.2885 12.5606 24.5694 0.0000 0.0000 0.0000
# 4 0.0000 0.0000 0.0000 -59.1098 0.0000 0.0000
# 5 0.0000 0.0000 0.0000 0.0000 32.6530 0.0000
# 6 0.0000 0.0000 0.0000 0.0000 0.0000 24.5068
#
#
#
# Elastic Compliance Matrix: (Units=1/GPa)
#
#
# Indices 1 2 3 4 5 6 
#
# 1 0.020740 -0.007750 0.005894 0.000000 0.000000 0.000000
# 2 -0.007750 0.016046 -0.008925 0.000000 0.000000 0.000000
# 3 0.005894 -0.008925 0.045813 0.000000 0.000000 0.000000
# 4 0.000000 0.000000 0.000000 -0.016918 0.000000 0.000000
# 5 0.000000 0.000000 0.000000 0.000000 0.030625 0.000000
# 6 0.000000 0.000000 0.000000 0.000000 0.000000 0.040805
#
#
# Mechanical properties :
#
#
# Convention : Reuss Voigt Hill
#
# Bulk Modulus (GPa) = 16.38375 26.79179 21.58777
# Shear Modulus (GPa) = 27.92982 8.18102 18.05542
#
# Velocity S-wave (km/s) = 3.97055 2.14892 3.19242
# Velocity P-wave (km/s) = 5.50167 4.61303 5.07683
#
# Compressibility (1/GPa) = 0.06103608
#
# Stress axis : x y z
#
# Youngs Moduli (GPa) = 48.21587 62.31997 21.82790
#
# Poissons Ratio (x) = 0.48301 -0.12866
# Poissons Ratio (y) = 0.37370 0.19482
# Poissons Ratio (z) = -0.28419 0.55622
#
# Static dielectric constant tensor:
#      x y z
#    x 1.597560 0.000000 0.000000 
#    y 0.000000 1.591240 0.000000 
#    z 0.000000 0.000000 1.574640 
# 
# From -- ./inp_files/47390.got.cif
#   From: 2010.05.17/outbox.cif.g08.bks.cpg/sg22_24_cif.got.tgz:47390.got - 2010.06.03 23:40:54.
