data_PCOD9327730
_publ_section_title
;
Structure prediction by ZEFSAII (Michael W. Deem and Ramdas Pophale) SiO2 
 PCOD9327730
Probable space group: F 2 2 2
;
_chemical_formula_sum "Si O2"
_cell_formula_units_Z 80
_cell_length_a 9.578316
_cell_length_b 24.122233
_cell_length_c 16.986007
_cell_angle_alpha 90.000000
_cell_angle_beta 90.000000
_cell_angle_gamma 90.000000
_cell_volume 3924.623207
_symmetry_space_group_name_H-M "F 2 2 2"
_symmetry_group_IT_number 22
_symmetry_cell_setting 'orthorhombic'
loop_
_space_group_symop_operation_xyz
x,y,z
-x,-y,z
x,-y,-z
-x,y,-z
x,1/2+y,1/2+z
-x,1/2-y,1/2+z
x,1/2-y,1/2-z
-x,1/2+y,1/2-z
1/2+x,y,1/2+z
1/2-x,-y,1/2+z
1/2+x,-y,1/2-z
1/2-x,y,1/2-z
1/2+x,1/2+y,z
1/2-x,1/2-y,z
1/2+x,1/2-y,-z
1/2-x,1/2+y,-z
loop_
_atom_site_type_symbol
_atom_site_label
_atom_site_fract_x
_atom_site_fract_y
_atom_site_fract_z
Si Si1 0.319190 0.871309 0.174756
Si Si2 0.065500 0.708416 0.824661
Si Si3 0.812859 0.839577 0.074267
Si Si4 0.834342 0.063425 0.487153
Si Si5 0.898838 0.800762 0.905812
O O1 0.250000 0.899226 0.250000
O O2 0.472052 0.846071 0.190978
O O3 0.311718 0.910967 0.099396
O O4 0.219100 0.818616 0.155039
O O5 0.075972 0.750000 0.750000
O O6 0.211473 0.689840 0.863236
O O7 0.975604 0.743218 0.888578
O O8 0.972356 0.843985 0.102362
O O9 0.744471 0.896866 0.048145
O O10 0.832685 0.805540 0.992383
O O11 0.000000 0.067337 0.500000
O O12 0.791655 0.000000 0.500000
#
# Coordination Sequence:
#
# PCOD9327730 Si02
#       5
#    16  16  16  16  16
#     4  11  22  41  64  95 131 168 219 267 325 397
#     4  12  23  39  62  96 133 182 213 261 325 397
#     4  10  23  41  59  93 128 168 220 272 316 391
#     4  10  21  42  73  94 118 169 228 279 327 389
#     4  10  23  37  60  91 133 173 212 258 325 393
#
# _framework density 20.384122000000001
#
# number of rings (size 3 to 8) (size 9 to 14) (size 15 to 20)
#    0.000    1.400    4.000    1.200    0.000   12.800 
#    0.000    8.000   13.200    0.000    0.000    0.000 
#    0.000    0.000    0.000    0.000    0.000    0.000 
#
# Total GULP energy -111733.030351 kJ/mol
# GULP energy per Si atom -5586.651518 kJ/mol
# Density = 2.033773 g / cm^3
# Si number density = 20.384122 Si / 1000 Ang^3
#
#
#
# Elastic Constant Matrix: (Units=GPa)
#
#
# Indices 1 2 3 4 5 6 
#
# 1 123.9250 41.3202 37.9050 0.0000 0.0000 0.0000
# 2 41.3202 115.2647 37.9563 0.0000 0.0000 0.0000
# 3 37.9050 37.9563 98.7846 0.0000 0.0000 0.0000
# 4 0.0000 0.0000 0.0000 22.1590 0.0000 0.0000
# 5 0.0000 0.0000 0.0000 0.0000 37.6272 0.0000
# 6 0.0000 0.0000 0.0000 0.0000 0.0000 28.9122
#
#
#
# Elastic Compliance Matrix: (Units=1/GPa)
#
#
# Indices 1 2 3 4 5 6 
#
# 1 0.009778 -0.002599 -0.002754 0.000000 0.000000 0.000000
# 2 -0.002599 0.010623 -0.003085 0.000000 0.000000 0.000000
# 3 -0.002754 -0.003085 0.012365 0.000000 0.000000 0.000000
# 4 0.000000 0.000000 0.000000 0.045128 0.000000 0.000000
# 5 0.000000 0.000000 0.000000 0.000000 0.026576 0.000000
# 6 0.000000 0.000000 0.000000 0.000000 0.000000 0.034588
#
#
# Mechanical properties :
#
#
# Convention : Reuss Voigt Hill
#
# Bulk Modulus (GPa) = 62.92276 63.59304 63.25790
# Shear Modulus (GPa) = 31.01177 32.45919 31.73548
#
# Velocity S-wave (km/s) = 3.90470 3.99479 3.95000
# Velocity P-wave (km/s) = 7.15992 7.24864 7.20442
#
# Compressibility (1/GPa) = 0.01589250
#
# Stress axis : x y z
#
# Youngs Moduli (GPa) = 102.26996 94.13581 80.87470
#
# Poissons Ratio (x) = 0.24461 0.22269
# Poissons Ratio (y) = 0.26575 0.24947
# Poissons Ratio (z) = 0.28160 0.29037
#
# Static dielectric constant tensor:
#      x y z
#    x 1.758170 0.000000 0.000000 
#    y 0.000000 1.727200 0.000000 
#    z 0.000000 0.000000 1.790390 
# 
# From -- ./inp_files/35103.got.cif
#   From: 2010.05.17/outbox.cif.g08.bks.cpg/sg22_18_cif.got.tgz:35103.got - 2010.06.03 23:40:54.
