data_PCOD9327805
_publ_section_title
;
Structure prediction by ZEFSAII (Michael W. Deem and Ramdas Pophale) SiO2 
 PCOD9327805
Probable space group: F 2 2 2
;
_chemical_formula_sum "Si O2"
_cell_formula_units_Z 116
_cell_length_a 25.602231
_cell_length_b 24.429412
_cell_length_c 8.124637
_cell_angle_alpha 90.000000
_cell_angle_beta 90.000000
_cell_angle_gamma 90.000000
_cell_volume 5081.533487
_symmetry_space_group_name_H-M "F 2 2 2"
_symmetry_group_IT_number 22
_symmetry_cell_setting 'orthorhombic'
loop_
_space_group_symop_operation_xyz
x,y,z
-x,-y,z
x,-y,-z
-x,y,-z
x,1/2+y,1/2+z
-x,1/2-y,1/2+z
x,1/2-y,1/2-z
-x,1/2+y,1/2-z
1/2+x,y,1/2+z
1/2-x,-y,1/2+z
1/2+x,-y,1/2-z
1/2-x,y,1/2-z
1/2+x,1/2+y,z
1/2-x,1/2-y,z
1/2+x,1/2-y,-z
1/2-x,1/2+y,-z
loop_
_atom_site_type_symbol
_atom_site_label
_atom_site_fract_x
_atom_site_fract_y
_atom_site_fract_z
Si Si1 0.602944 0.065228 0.722966
Si Si2 0.455290 0.212790 0.895068
Si Si3 0.883056 0.055365 0.297787
Si Si4 0.251166 0.172347 0.449659
Si Si5 0.367229 0.349306 0.448066
Si Si6 0.750000 0.750000 0.750000
Si Si7 0.694418 0.058874 0.470963
Si Si8 0.488946 0.891376 0.314801
O O1 0.638858 0.053940 0.565059
O O2 0.540762 0.073523 0.722208
O O3 0.613078 0.009351 0.822802
O O4 0.626041 0.124877 0.770170
O O5 0.434733 0.250000 0.750000
O O6 0.408703 0.196532 0.013062
O O7 0.481042 0.158856 0.811163
O O8 0.500000 0.241257 0.000000
O O9 0.883254 0.097357 0.447424
O O10 0.935654 0.073553 0.198309
O O11 0.826626 0.065802 0.213176
O O12 0.250000 0.187764 0.250000
O O13 0.189927 0.170047 0.489354
O O14 0.274434 0.208702 0.604978
O O15 0.274227 0.111156 0.466098
O O16 0.721754 0.000000 0.500000
O O17 0.500000 0.871677 0.500000
#
# Coordination Sequence:
#
# PCOD9327805 Si02
#       8
#    16  16  16  16  16   4  16  16
#     4  11  20  38  63 100 139 183 226 279 347 431
#     4  11  24  44  66  95 131 174 230 291 362 428
#     4  10  22  35  63 100 142 188 227 276 355 422
#     4  12  26  51  77 109 145 193 253 305 375 441
#     4  11  24  43  65  99 138 177 230 290 350 424
#     4  12  30  52  80 102 144 184 250 318 368 430
#     4  10  22  42  69 104 145 186 238 295 359 436
#     4  11  21  37  62  94 138 182 226 282 342 424
#
# _framework density 22.827755
#
# number of rings (size 3 to 8) (size 9 to 14) (size 15 to 20)
#    0.000    1.103    4.138    2.276    0.966    1.655 
#    1.241    2.759    0.000    0.000    0.000    0.000 
#    0.000    0.000    0.000    0.000    0.000    0.000 
#
# Total GULP energy -161510.193547 kJ/mol
# GULP energy per Si atom -5569.317019 kJ/mol
# Density = 2.277580 g / cm^3
# Si number density = 22.827755 Si / 1000 Ang^3
#
#
#
# Elastic Constant Matrix: (Units=GPa)
#
#
# Indices 1 2 3 4 5 6 
#
# 1 86.2511 19.9296 -1.2106 -0.0051 0.0022 0.0045
# 2 19.9296 100.1868 21.3966 -0.0144 0.0060 0.0124
# 3 -1.2106 21.3966 65.4559 -0.0244 0.0108 0.0222
# 4 -0.0051 -0.0144 -0.0244 37.0465 0.0077 0.0162
# 5 0.0022 0.0060 0.0108 0.0077 16.9469 -0.0036
# 6 0.0045 0.0124 0.0222 0.0162 -0.0036 10.3643
#
#
#
# Elastic Compliance Matrix: (Units=1/GPa)
#
#
# Indices 1 2 3 4 5 6 
#
# 1 0.012226 -0.002666 0.001098 0.000001 -0.000001 -0.000004
# 2 -0.002666 0.011312 -0.003747 0.000002 -0.000001 -0.000004
# 3 0.001098 -0.003747 0.016523 0.000010 -0.000009 -0.000031
# 4 0.000001 0.000002 0.000010 0.026993 -0.000012 -0.000042
# 5 -0.000001 -0.000001 -0.000009 -0.000012 0.059008 0.000020
# 6 -0.000004 -0.000004 -0.000031 -0.000042 0.000020 0.096485
#
#
# Mechanical properties :
#
#
# Convention : Reuss Voigt Hill
#
# Bulk Modulus (GPa) = 33.98035 36.90278 35.44157
# Shear Modulus (GPa) = 20.57721 26.99011 23.78366
#
# Velocity S-wave (km/s) = 3.00561 3.44224 3.23131
# Velocity P-wave (km/s) = 5.19257 5.65682 5.42966
#
# Compressibility (1/GPa) = 0.02942877
#
# Stress axis : x y z
#
# Youngs Moduli (GPa) = 81.79578 88.40163 60.52305
#
# Poissons Ratio (x) = 0.23571 -0.06644
# Poissons Ratio (y) = 0.21810 0.22678
# Poissons Ratio (z) = -0.08979 0.33124
#
# Static dielectric constant tensor:
#      x y z
#    x 1.819790 -0.000010 0.000000 
#    y -0.000010 1.890530 0.000000 
#    z 0.000000 0.000000 1.972500 
# 
# From -- ./inp_files/14109.got.cif
#   From: 2010.05.17/outbox.cif.g08.bks.cpg/sg22_8_cif.got.tgz:14109.got - 2010.06.03 23:40:54.
