data_PCOD9327684
_publ_section_title
;
Structure prediction by ZEFSAII (Michael W. Deem and Ramdas Pophale) SiO2 
 PCOD9327684
Probable space group: F 2 2 2
;
_chemical_formula_sum "Si O2"
_cell_formula_units_Z 56
_cell_length_a 13.895050
_cell_length_b 14.225162
_cell_length_c 12.446829
_cell_angle_alpha 90.000000
_cell_angle_beta 90.000000
_cell_angle_gamma 90.000000
_cell_volume 2460.231971
_symmetry_space_group_name_H-M "F 2 2 2"
_symmetry_group_IT_number 22
_symmetry_cell_setting 'orthorhombic'
loop_
_space_group_symop_operation_xyz
x,y,z
-x,-y,z
x,-y,-z
-x,y,-z
x,1/2+y,1/2+z
-x,1/2-y,1/2+z
x,1/2-y,1/2-z
-x,1/2+y,1/2-z
1/2+x,y,1/2+z
1/2-x,-y,1/2+z
1/2+x,-y,1/2-z
1/2-x,y,1/2-z
1/2+x,1/2+y,z
1/2-x,1/2-y,z
1/2+x,1/2-y,-z
1/2-x,1/2+y,-z
loop_
_atom_site_type_symbol
_atom_site_label
_atom_site_fract_x
_atom_site_fract_y
_atom_site_fract_z
Si Si1 0.205564 0.588872 0.923291
Si Si2 0.108772 0.079013 0.205251
Si Si3 0.433532 0.873031 0.389983
Si Si4 0.750000 0.250000 0.434145
O O1 0.133002 0.562272 0.828915
O O2 0.404482 0.479986 0.857938
O O3 0.221024 0.500000 0.000000
O O4 0.185477 0.677251 0.997584
O O5 0.016300 0.144731 0.197080
O O6 0.198633 0.120209 0.140870
O O7 0.500000 0.868800 0.500000
O O8 0.335079 0.813756 0.382168
#
# Coordination Sequence:
#
# PCOD9327684 Si02
#       4
#    16  16  16   8
#     4  11  22  44  71 112 149 198 249 318 371 440
#     4  10  21  41  80 101 149 200 251 294 383 446
#     4  11  21  45  74 110 141 202 253 301 371 449
#     4  12  24  41  81 110 152 190 252 322 368 446
#
# _framework density 22.762080999999998
#
# number of rings (size 3 to 8) (size 9 to 14) (size 15 to 20)
#    0.000    1.143    5.714    1.714    0.000    2.286 
#    0.000   14.286    6.286    0.000    0.000    0.000 
#    0.000    0.000    0.000    0.000    0.000    0.000 
#
# Total GULP energy -77943.204580 kJ/mol
# GULP energy per Si atom -5567.371756 kJ/mol
# Density = 2.271027 g / cm^3
# Si number density = 22.762081 Si / 1000 Ang^3
#
#
#
# Elastic Constant Matrix: (Units=GPa)
#
#
# Indices 1 2 3 4 5 6 
#
# 1 150.2211 38.4555 65.4770 0.0000 0.0000 0.0000
# 2 38.4555 106.9704 27.0691 0.0000 0.0000 0.0000
# 3 65.4770 27.0691 82.1698 0.0000 0.0000 0.0000
# 4 0.0000 0.0000 0.0000 15.2300 0.0000 0.0000
# 5 0.0000 0.0000 0.0000 0.0000 19.2523 0.0000
# 6 0.0000 0.0000 0.0000 0.0000 0.0000 41.5204
#
#
#
# Elastic Compliance Matrix: (Units=1/GPa)
#
#
# Indices 1 2 3 4 5 6 
#
# 1 0.010511 -0.001810 -0.007779 0.000000 0.000000 0.000000
# 2 -0.001810 0.010510 -0.002020 0.000000 0.000000 0.000000
# 3 -0.007779 -0.002020 0.019034 0.000000 0.000000 0.000000
# 4 0.000000 0.000000 0.000000 0.065660 0.000000 0.000000
# 5 0.000000 0.000000 0.000000 0.000000 0.051942 0.000000
# 6 0.000000 0.000000 0.000000 0.000000 0.000000 0.024085
#
#
# Mechanical properties :
#
#
# Convention : Reuss Voigt Hill
#
# Bulk Modulus (GPa) = 59.39423 66.81829 63.10626
# Shear Modulus (GPa) = 23.74472 29.09120 26.41796
#
# Velocity S-wave (km/s) = 3.23332 3.57887 3.41047
# Velocity P-wave (km/s) = 6.33161 6.81884 6.57973
#
# Compressibility (1/GPa) = 0.01683665
#
# Stress axis : x y z
#
# Youngs Moduli (GPa) = 95.13802 95.14504 52.53647
#
# Poissons Ratio (x) = 0.17222 0.40870
# Poissons Ratio (y) = 0.17221 0.10612
# Poissons Ratio (z) = 0.74012 0.19219
#
# Static dielectric constant tensor:
#      x y z
#    x 1.969560 0.000000 0.000000 
#    y 0.000000 1.853310 0.000000 
#    z 0.000000 0.000000 1.906910 
# 
# From -- ./inp_files/19060.got.cif
#   From: 2010.05.17/outbox.cif.g08.bks.cpg/sg22_10_cif.got.tgz:19060.got - 2010.06.03 23:40:54.
