data_PCOD9327797
_publ_section_title
;
Structure prediction by ZEFSAII (Michael W. Deem and Ramdas Pophale) SiO2 
 PCOD9327797
Probable space group: F 2 2 2
;
_chemical_formula_sum "Si O2"
_cell_formula_units_Z 64
_cell_length_a 30.699394
_cell_length_b 5.335379
_cell_length_c 19.442677
_cell_angle_alpha 90.000000
_cell_angle_beta 90.000000
_cell_angle_gamma 90.000000
_cell_volume 3184.572490
_symmetry_space_group_name_H-M "F 2 2 2"
_symmetry_group_IT_number 22
_symmetry_cell_setting 'orthorhombic'
loop_
_space_group_symop_operation_xyz
x,y,z
-x,-y,z
x,-y,-z
-x,y,-z
x,1/2+y,1/2+z
-x,1/2-y,1/2+z
x,1/2-y,1/2-z
-x,1/2+y,1/2-z
1/2+x,y,1/2+z
1/2-x,-y,1/2+z
1/2+x,-y,1/2-z
1/2-x,y,1/2-z
1/2+x,1/2+y,z
1/2-x,1/2-y,z
1/2+x,1/2-y,-z
1/2-x,1/2+y,-z
loop_
_atom_site_type_symbol
_atom_site_label
_atom_site_fract_x
_atom_site_fract_y
_atom_site_fract_z
Si Si1 0.543646 0.335716 0.103209
Si Si2 0.224464 0.998578 0.915969
Si Si3 0.585490 0.500000 0.500000
Si Si4 0.372198 0.890198 0.578218
Si Si5 0.000000 0.000000 0.292844
O O1 0.500000 0.500000 0.103232
O O2 0.586578 0.498002 0.117915
O O3 0.536857 0.111775 0.157262
O O4 0.553833 0.210471 0.029930
O O5 0.250000 0.750000 0.894670
O O6 0.174490 0.964330 0.892641
O O7 0.250000 0.250000 0.894861
O O8 0.223671 0.000000 0.000000
O O9 0.616559 0.398752 0.560836
O O10 0.371872 0.000000 0.500000
O O11 0.986962 0.750000 0.250000
#
# Coordination Sequence:
#
# PCOD9327797 Si02
#       5
#    16  16   8  16   8
#     4  11  23  39  57  85 117 160 191 247 286 348
#     4   9  18  29  47  70 106 154 195 229 273 325
#     4  10  22  33  58  86 126 156 206 230 297 334
#     4   9  20  32  50  79 115 154 200 238 274 344
#     4  12  26  45  62  81 110 154 200 242 294 348
#
# _framework density 20.096890999999999
#
# number of rings (size 3 to 8) (size 9 to 14) (size 15 to 20)
#    0.000    2.000    1.250    1.500   12.250   12.000 
#    0.000    0.000    0.000    0.000    0.000    0.000 
#    0.000    1.000   12.000    0.000    0.000    0.000 
#
# Total GULP energy -89169.735798 kJ/mol
# GULP energy per Si atom -5573.108487 kJ/mol
# Density = 2.005115 g / cm^3
# Si number density = 20.096891 Si / 1000 Ang^3
#
#
#
# Elastic Constant Matrix: (Units=GPa)
#
#
# Indices 1 2 3 4 5 6 
#
# 1 209.4220 94.3041 24.3565 0.0010 -0.0002 -0.0005
# 2 94.3041 150.1620 19.6818 0.0058 -0.0008 -0.0018
# 3 24.3565 19.6818 19.1768 0.0028 -0.0005 -0.0008
# 4 0.0010 0.0058 0.0028 33.5539 -0.0006 -0.0012
# 5 -0.0002 -0.0008 -0.0005 -0.0006 0.6317 0.0007
# 6 -0.0005 -0.0018 -0.0008 -0.0012 0.0007 24.8768
#
#
#
# Elastic Compliance Matrix: (Units=1/GPa)
#
#
# Indices 1 2 3 4 5 6 
#
# 1 0.007066 -0.003768 -0.005107 0.000001 -0.000007 0.000000
# 2 -0.003768 0.009704 -0.005174 -0.000001 0.000007 0.000000
# 3 -0.005107 -0.005174 0.063943 -0.000004 0.000044 0.000002
# 4 0.000001 -0.000001 -0.000004 0.029803 0.000028 0.000001
# 5 -0.000007 0.000007 0.000044 0.000028 1.582937 -0.000046
# 6 0.000000 0.000000 0.000002 0.000001 -0.000046 0.040198
#
#
# Mechanical properties :
#
#
# Convention : Reuss Voigt Hill
#
# Bulk Modulus (GPa) = 19.00602 72.82731 45.91666
# Shear Modulus (GPa) = 2.81012 27.84037 15.32524
#
# Velocity S-wave (km/s) = 1.18377 3.72601 2.76446
# Velocity P-wave (km/s) = 3.36840 7.40457 5.75212
#
# Compressibility (1/GPa) = 0.05261492
#
# Stress axis : x y z
#
# Youngs Moduli (GPa) = 141.52705 103.05039 15.63900
#
# Poissons Ratio (x) = 0.38830 0.07987
# Poissons Ratio (y) = 0.53328 0.08091
# Poissons Ratio (z) = 0.72278 0.53315
#
# Static dielectric constant tensor:
#      x y z
#    x 1.747670 0.000000 0.000000 
#    y 0.000000 1.870930 0.000000 
#    z 0.000000 0.000000 1.738850 
# 
# From -- ./inp_files/4576.got.cif
#   From: 2010.05.17/outbox.cif.g08.bks.cpg/sg22_3_cif.got.tgz:4576.got - 2010.06.03 23:40:54.
