data_PCOD9327940
_publ_section_title
;
Structure prediction by ZEFSAII (Michael W. Deem and Ramdas Pophale) SiO2 
 PCOD9327940
Probable space group: F 2 2 2
;
_chemical_formula_sum "Si O2"
_cell_formula_units_Z 92
_cell_length_a 15.292606
_cell_length_b 12.395768
_cell_length_c 22.718103
_cell_angle_alpha 90.000000
_cell_angle_beta 90.000000
_cell_angle_gamma 90.000000
_cell_volume 4306.525301
_symmetry_space_group_name_H-M "F 2 2 2"
_symmetry_group_IT_number 22
_symmetry_cell_setting 'orthorhombic'
loop_
_space_group_symop_operation_xyz
x,y,z
-x,-y,z
x,-y,-z
-x,y,-z
x,1/2+y,1/2+z
-x,1/2-y,1/2+z
x,1/2-y,1/2-z
-x,1/2+y,1/2-z
1/2+x,y,1/2+z
1/2-x,-y,1/2+z
1/2+x,-y,1/2-z
1/2-x,y,1/2-z
1/2+x,1/2+y,z
1/2-x,1/2-y,z
1/2+x,1/2-y,-z
1/2-x,1/2+y,-z
loop_
_atom_site_type_symbol
_atom_site_label
_atom_site_fract_x
_atom_site_fract_y
_atom_site_fract_z
Si Si1 0.657211 0.490176 0.717221
Si Si2 0.607152 0.672259 0.799339
Si Si3 0.244060 0.414978 0.613139
Si Si4 0.585105 0.769672 0.184720
Si Si5 0.140895 0.626887 0.575502
Si Si6 0.250000 0.750000 0.017172
Si Si7 0.500000 0.500000 0.000000
O O1 0.750000 0.458814 0.750000
O O2 0.602478 0.555831 0.766294
O O3 0.687461 0.568576 0.665018
O O4 0.603455 0.396913 0.683874
O O5 0.649125 0.750000 0.750000
O O6 0.664166 0.651068 0.856946
O O7 0.514805 0.727710 0.813568
O O8 0.207066 0.530262 0.592200
O O9 0.279092 0.347670 0.558748
O O10 0.622849 0.750000 0.250000
O O11 0.627157 0.699014 0.133478
O O12 0.176791 0.704077 0.525150
O O13 0.058063 0.570682 0.544784
#
# Coordination Sequence:
#
# PCOD9327940 Si02
#       7
#    16  16  16  16  16   8   4
#     4  10  22  40  67 101 140 180 231 284 355 425
#     4  10  22  40  65 102 139 180 222 283 356 426
#     4  11  22  42  67  97 136 179 228 294 346 423
#     4  11  24  40  67 101 141 177 225 285 355 416
#     4  12  25  43  70 101 138 182 238 293 349 424
#     4  12  24  42  66 100 130 180 238 298 354 412
#     4  12  24  48  72 104 138 190 240 294 344 434
#
# _framework density 21.362929999999999
#
# number of rings (size 3 to 8) (size 9 to 14) (size 15 to 20)
#    0.000    1.043    1.739    5.217    0.000    9.739 
#    0.000    0.000    0.000    0.000    0.000    0.000 
#    0.000    0.000    0.000    0.000    0.000    0.000 
#
# Total GULP energy -128493.538012 kJ/mol
# GULP energy per Si atom -5586.675566 kJ/mol
# Density = 2.131431 g / cm^3
# Si number density = 21.362930 Si / 1000 Ang^3
#
#
#
# Elastic Constant Matrix: (Units=GPa)
#
#
# Indices 1 2 3 4 5 6 
#
# 1 77.6276 64.6666 38.5279 0.0000 0.0000 0.0000
# 2 64.6666 131.2115 63.4404 0.0000 0.0000 0.0000
# 3 38.5279 63.4404 146.9252 0.0000 0.0000 0.0000
# 4 0.0000 0.0000 0.0000 54.5542 0.0000 0.0000
# 5 0.0000 0.0000 0.0000 0.0000 39.0492 0.0000
# 6 0.0000 0.0000 0.0000 0.0000 0.0000 24.0743
#
#
#
# Elastic Compliance Matrix: (Units=1/GPa)
#
#
# Indices 1 2 3 4 5 6 
#
# 1 0.022073 -0.010212 -0.001379 0.000000 0.000000 0.000000
# 2 -0.010212 0.014357 -0.003521 0.000000 0.000000 0.000000
# 3 -0.001379 -0.003521 0.008688 0.000000 0.000000 0.000000
# 4 0.000000 0.000000 0.000000 0.018330 0.000000 0.000000
# 5 0.000000 0.000000 0.000000 0.000000 0.025609 0.000000
# 6 0.000000 0.000000 0.000000 0.000000 0.000000 0.041538
#
#
# Mechanical properties :
#
#
# Convention : Reuss Voigt Hill
#
# Bulk Modulus (GPa) = 67.14044 76.55935 71.84990
# Shear Modulus (GPa) = 30.15973 36.14416 33.15194
#
# Velocity S-wave (km/s) = 3.76144 4.11775 3.94362
# Velocity P-wave (km/s) = 7.09657 7.65004 7.37849
#
# Compressibility (1/GPa) = 0.01489415
#
# Stress axis : x y z
#
# Youngs Moduli (GPa) = 45.30357 69.65409 115.09946
#
# Poissons Ratio (x) = 0.71131 0.15870
# Poissons Ratio (y) = 0.46264 0.40528
# Poissons Ratio (z) = 0.06247 0.24526
#
# Static dielectric constant tensor:
#      x y z
#    x 1.764630 0.000000 0.000000 
#    y 0.000000 1.881280 0.000000 
#    z 0.000000 0.000000 1.792510 
# 
# From -- ./inp_files/42657.got.cif
#   From: 2010.05.17/outbox.cif.g08.bks.cpg/sg22_22_cif.got.tgz:42657.got - 2010.06.03 23:40:54.
