data_PCOD9327690
_publ_section_title
;
Structure prediction by ZEFSAII (Michael W. Deem and Ramdas Pophale) SiO2 
 PCOD9327690
Probable space group: F 2 2 2
;
_chemical_formula_sum "Si O2"
_cell_formula_units_Z 96
_cell_length_a 21.902244
_cell_length_b 14.199400
_cell_length_c 14.765211
_cell_angle_alpha 90.000000
_cell_angle_beta 90.000000
_cell_angle_gamma 90.000000
_cell_volume 4591.961773
_symmetry_space_group_name_H-M "F 2 2 2"
_symmetry_group_IT_number 22
_symmetry_cell_setting 'orthorhombic'
loop_
_space_group_symop_operation_xyz
x,y,z
-x,-y,z
x,-y,-z
-x,y,-z
x,1/2+y,1/2+z
-x,1/2-y,1/2+z
x,1/2-y,1/2-z
-x,1/2+y,1/2-z
1/2+x,y,1/2+z
1/2-x,-y,1/2+z
1/2+x,-y,1/2-z
1/2-x,y,1/2-z
1/2+x,1/2+y,z
1/2-x,1/2-y,z
1/2+x,1/2-y,-z
1/2-x,1/2+y,-z
loop_
_atom_site_type_symbol
_atom_site_label
_atom_site_fract_x
_atom_site_fract_y
_atom_site_fract_z
Si Si1 0.367806 0.363940 0.092473
Si Si2 0.144356 0.750000 0.750000
Si Si3 0.342631 0.000000 0.000000
Si Si4 0.555844 0.073613 0.118755
Si Si5 0.556201 0.716235 0.935846
Si Si6 0.767410 0.901583 0.344537
Si Si7 0.068768 0.463140 0.676791
O O1 0.394710 0.309078 0.179732
O O2 0.295192 0.365906 0.109950
O O3 0.391218 0.470330 0.110593
O O4 0.387314 0.304969 0.004916
O O5 0.187675 0.820134 0.692756
O O6 0.389941 0.929128 0.045931
O O7 0.302155 0.040931 0.079840
O O8 0.538087 0.182978 0.107338
O O9 0.582629 0.040246 0.215919
O O10 0.500000 0.000000 0.101286
O O11 0.568723 0.643102 0.856764
O O12 0.500000 0.686072 0.000000
O O13 0.750000 0.953659 0.250000
O O14 0.000000 0.500000 0.668826
#
# Coordination Sequence:
#
# PCOD9327690 Si02
#       7
#    16   8   8  16  16  16  16
#     4  11  22  38  68  94 130 174 219 276 330 392
#     4  10  21  42  64  98 126 162 230 280 331 388
#     4  12  23  42  66 100 135 168 222 272 338 388
#     4  11  25  44  67  97 134 174 216 274 339 401
#     4  12  24  40  66  95 132 170 224 269 336 399
#     4  10  22  40  66  98 134 171 222 277 327 388
#     4  11  24  43  63  94 134 173 221 268 334 400
#
# _framework density 20.906099000000001
#
# number of rings (size 3 to 8) (size 9 to 14) (size 15 to 20)
#    0.000    1.000    1.667    7.500    2.333    2.667 
#    0.000    0.000    0.000    0.000    4.333    0.000 
#    0.000    0.000    0.000    0.000    0.000    0.000 
#
# Total GULP energy -133827.996194 kJ/mol
# GULP energy per Si atom -5576.166508 kJ/mol
# Density = 2.085852 g / cm^3
# Si number density = 20.906099 Si / 1000 Ang^3
#
#
#
# Elastic Constant Matrix: (Units=GPa)
#
#
# Indices 1 2 3 4 5 6 
#
# 1 47.8456 15.9739 33.3103 0.0000 0.0000 0.0000
# 2 15.9739 114.3503 38.3974 0.0000 0.0000 0.0000
# 3 33.3103 38.3974 103.8047 0.0000 0.0000 0.0000
# 4 0.0000 0.0000 0.0000 36.4626 0.0000 0.0000
# 5 0.0000 0.0000 0.0000 0.0000 -0.6621 0.0000
# 6 0.0000 0.0000 0.0000 0.0000 0.0000 15.4431
#
#
#
# Elastic Compliance Matrix: (Units=1/GPa)
#
#
# Indices 1 2 3 4 5 6 
#
# 1 0.027010 -0.000985 -0.008303 0.000000 0.000000 0.000000
# 2 -0.000985 0.010021 -0.003391 0.000000 0.000000 0.000000
# 3 -0.008303 -0.003391 0.013552 0.000000 0.000000 0.000000
# 4 0.000000 0.000000 0.000000 0.027425 0.000000 0.000000
# 5 0.000000 0.000000 0.000000 0.000000 -1.510275 0.000000
# 6 0.000000 0.000000 0.000000 0.000000 0.000000 0.064754
#
#
# Mechanical properties :
#
#
# Convention : Reuss Voigt Hill
#
# Bulk Modulus (GPa) = 39.64206 49.04043 44.34125
# Shear Modulus (GPa) = -3.74884 22.13664 9.19390
#
# Velocity S-wave (km/s) = -1.34055 3.25754 2.09935
# Velocity P-wave (km/s) = 4.07517 6.13655 5.20885
#
# Compressibility (1/GPa) = 0.02522573
#
# Stress axis : x y z
#
# Youngs Moduli (GPa) = 37.02333 99.78809 73.78928
#
# Poissons Ratio (x) = 0.09830 0.61267
# Poissons Ratio (y) = 0.03647 0.25020
# Poissons Ratio (z) = 0.30740 0.33836
#
# Static dielectric constant tensor:
#      x y z
#    x 1.764500 0.000000 0.000000 
#    y 0.000000 2.002610 0.000000 
#    z 0.000000 0.000000 1.810230 
# 
# From -- ./inp_files/31564.got.cif
#   From: 2010.05.17/outbox.cif.g08.bks.cpg/sg22_16_cif.got.tgz:31564.got - 2010.06.03 23:40:54.
