data_PCOD9327392
_publ_section_title
;
Structure prediction by ZEFSAII (Michael W. Deem and Ramdas Pophale) SiO2 
 PCOD9327392
Probable space group: F 2 2 2
;
_chemical_formula_sum "Si O2"
_cell_formula_units_Z 80
_cell_length_a 26.220230
_cell_length_b 18.738079
_cell_length_c 8.650231
_cell_angle_alpha 90.000000
_cell_angle_beta 90.000000
_cell_angle_gamma 90.000000
_cell_volume 4250.003305
_symmetry_space_group_name_H-M "F 2 2 2"
_symmetry_group_IT_number 22
_symmetry_cell_setting 'orthorhombic'
loop_
_space_group_symop_operation_xyz
x,y,z
-x,-y,z
x,-y,-z
-x,y,-z
x,1/2+y,1/2+z
-x,1/2-y,1/2+z
x,1/2-y,1/2-z
-x,1/2+y,1/2-z
1/2+x,y,1/2+z
1/2-x,-y,1/2+z
1/2+x,-y,1/2-z
1/2-x,y,1/2-z
1/2+x,1/2+y,z
1/2-x,1/2-y,z
1/2+x,1/2-y,-z
1/2-x,1/2+y,-z
loop_
_atom_site_type_symbol
_atom_site_label
_atom_site_fract_x
_atom_site_fract_y
_atom_site_fract_z
Si Si1 0.250000 0.920121 0.063353
Si Si2 0.555372 0.579170 0.065602
Si Si3 0.649263 0.333187 0.436736
Si Si4 0.555372 0.420830 0.565602
Si Si5 0.350737 0.333187 0.936736
O O1 0.250000 0.922688 0.250000
O O2 0.300682 0.877423 0.015217
O O3 0.199318 0.877423 0.015217
O O4 0.250000 0.000000 0.000000
O O5 0.553004 0.575609 0.250000
O O6 0.566502 0.500000 0.000000
O O7 0.500000 0.600358 0.000000
O O8 0.599335 0.632169 0.010744
O O9 0.599335 0.367831 0.510744
O O10 0.645124 0.338079 0.250000
O O11 0.654569 0.250000 0.476960
O O12 0.566502 0.500000 0.500000
O O13 0.500000 0.399642 0.500000
#
# Coordination Sequence:
#
# PCOD9327392 Si02
#       5
#    16  16  16  16  16
#     4  10  21  37  59  85 113 150 191 232 280 334
#     4  11  22  38  60  85 114 149 191 236 283 336
#     4  10  21  38  59  84 116 152 190 233 282 336
#     4  11  22  38  60  85 114 149 191 236 283 336
#     4  10  21  38  59  84 116 152 190 233 282 336
#
# _framework density 18.823513999999999
#
# number of rings (size 3 to 8) (size 9 to 14) (size 15 to 20)
#    0.000    1.600    0.000    6.600    0.000    8.800 
#    0.000    0.000    0.000    3.600    0.000    0.000 
#    0.000    0.000    0.000    0.000    0.000    0.000 
#
# Total GULP energy -111819.660544 kJ/mol
# GULP energy per Si atom -5590.983027 kJ/mol
# Density = 1.878067 g / cm^3
# Si number density = 18.823514 Si / 1000 Ang^3
#
#
#
# Elastic Constant Matrix: (Units=GPa)
#
#
# Indices 1 2 3 4 5 6 
#
# 1 165.8214 137.2024 64.2868 0.0000 0.0000 -0.0001
# 2 137.2024 172.7835 67.2348 0.0000 0.0000 0.0000
# 3 64.2868 67.2348 75.0052 -0.0001 0.0000 0.0000
# 4 0.0000 0.0000 -0.0001 29.2393 0.0000 0.0000
# 5 0.0000 0.0000 0.0000 0.0000 27.7620 0.0000
# 6 -0.0001 0.0000 0.0000 0.0000 0.0000 -130.7668
#
#
#
# Elastic Compliance Matrix: (Units=1/GPa)
#
#
# Indices 1 2 3 4 5 6 
#
# 1 0.018368 -0.012991 -0.004098 0.000000 0.000000 0.000000
# 2 -0.012991 0.018076 -0.005068 0.000000 0.000000 0.000000
# 3 -0.004098 -0.005068 0.021388 0.000000 0.000000 0.000000
# 4 0.000000 0.000000 0.000000 0.034201 0.000000 0.000000
# 5 0.000000 0.000000 0.000000 0.000000 0.036020 0.000000
# 6 0.000000 0.000000 0.000000 0.000000 0.000000 -0.007647
#
#
# Mechanical properties :
#
#
# Convention : Reuss Voigt Hill
#
# Bulk Modulus (GPa) = 73.98170 105.67312 89.82741
# Shear Modulus (GPa) = 29.54600 -5.09404 12.22598
#
# Velocity S-wave (km/s) = 3.96616 -1.64684 2.55131
# Velocity P-wave (km/s) = 7.76930 7.25566 7.51687
#
# Compressibility (1/GPa) = 0.01351686
#
# Stress axis : x y z
#
# Youngs Moduli (GPa) = 54.44138 55.32293 46.75421
#
# Poissons Ratio (x) = 0.71870 0.19161
# Poissons Ratio (y) = 0.70725 0.23697
# Poissons Ratio (z) = 0.22312 0.28040
#
# Static dielectric constant tensor:
#      x y z
#    x 1.628220 0.000000 0.000000 
#    y 0.000000 1.618830 0.000000 
#    z 0.000000 0.000000 1.638700 
# 
# From -- ./inp_files/11667.got.cif
#   From: 2010.05.17/outbox.cif.g08.bks.cpg/sg22_6_cif.got.tgz:11667.got - 2010.06.03 23:40:54.
