data_PCOD9327313
_publ_section_title
;
Structure prediction by ZEFSAII (Michael W. Deem and Ramdas Pophale) SiO2 
 PCOD9327313
Probable space group: F 2 2 2
;
_chemical_formula_sum "Si O2"
_cell_formula_units_Z 120
_cell_length_a 15.011034
_cell_length_b 19.951044
_cell_length_c 22.044768
_cell_angle_alpha 90.000000
_cell_angle_beta 90.000000
_cell_angle_gamma 90.000000
_cell_volume 6602.094976
_symmetry_space_group_name_H-M "F 2 2 2"
_symmetry_group_IT_number 22
_symmetry_cell_setting 'orthorhombic'
loop_
_space_group_symop_operation_xyz
x,y,z
-x,-y,z
x,-y,-z
-x,y,-z
x,1/2+y,1/2+z
-x,1/2-y,1/2+z
x,1/2-y,1/2-z
-x,1/2+y,1/2-z
1/2+x,y,1/2+z
1/2-x,-y,1/2+z
1/2+x,-y,1/2-z
1/2-x,y,1/2-z
1/2+x,1/2+y,z
1/2-x,1/2-y,z
1/2+x,1/2-y,-z
1/2-x,1/2+y,-z
loop_
_atom_site_type_symbol
_atom_site_label
_atom_site_fract_x
_atom_site_fract_y
_atom_site_fract_z
Si Si1 0.948614 0.172545 0.936619
Si Si2 0.931803 0.444037 0.119168
Si Si3 0.248126 0.881162 0.569504
Si Si4 0.671773 0.000000 0.000000
Si Si5 0.500549 0.081362 0.330772
Si Si6 0.842040 0.076587 0.254015
Si Si7 0.691321 0.928225 0.301111
Si Si8 0.046787 0.175780 0.433261
O O1 0.841847 0.157344 0.941346
O O2 0.997167 0.117679 0.894952
O O3 0.959991 0.247812 0.911387
O O4 0.000000 0.171033 0.000000
O O5 0.866281 0.432653 0.175566
O O6 0.000000 0.500000 0.142099
O O7 0.989851 0.378389 0.104147
O O8 0.887395 0.474038 0.057340
O O9 0.261978 0.917684 0.634468
O O10 0.152637 0.842705 0.567158
O O11 0.233244 0.939084 0.520571
O O12 0.577291 0.104094 0.285473
O O13 0.406247 0.101629 0.302653
O O14 0.500000 0.000000 0.337638
O O15 0.750000 0.115994 0.250000
O O16 0.823633 0.005218 0.219666
O O17 0.750000 0.894580 0.250000
O O18 0.000000 0.172486 0.500000
#
# Coordination Sequence:
#
# PCOD9327313 Si02
#       8
#    16  16  16   8  16  16  16  16
#     4  10  24  41  61  82 120 173 203 249 314 377
#     4  12  21  35  61  90 122 163 197 260 316 357
#     4  11  22  36  61  90 126 155 202 256 309 368
#     4  12  21  34  59 104 126 148 205 274 305 366
#     4   9  19  37  58  83 115 148 204 256 289 373
#     4  10  21  34  56  87 120 156 193 244 315 372
#     4   9  18  33  54  85 116 153 185 238 298 367
#     4  11  22  41  60  89 125 157 207 257 314 375
#
# _framework density 18.176048999999999
#
# number of rings (size 3 to 8) (size 9 to 14) (size 15 to 20)
#    0.000    1.600    2.667    3.400    1.867    4.533 
#    0.000    0.667    0.000    1.600    0.000    0.000 
#    0.000    0.000    0.000    0.000    0.000    0.000 
#
# Total GULP energy -167060.929469 kJ/mol
# GULP energy per Si atom -5568.697649 kJ/mol
# Density = 1.813468 g / cm^3
# Si number density = 18.176049 Si / 1000 Ang^3
#
#
#
# Elastic Constant Matrix: (Units=GPa)
#
#
# Indices 1 2 3 4 5 6 
#
# 1 106.5433 23.8875 62.8046 0.0000 0.0000 0.0000
# 2 23.8875 68.2555 20.2574 0.0000 0.0000 0.0000
# 3 62.8046 20.2574 68.3882 0.0000 0.0000 0.0000
# 4 0.0000 0.0000 0.0000 1.7190 0.0000 0.0000
# 5 0.0000 0.0000 0.0000 0.0000 35.5796 0.0000
# 6 0.0000 0.0000 0.0000 0.0000 0.0000 21.4011
#
#
#
# Elastic Compliance Matrix: (Units=1/GPa)
#
#
# Indices 1 2 3 4 5 6 
#
# 1 0.020653 -0.001753 -0.018448 0.000000 0.000000 0.000000
# 2 -0.001753 0.016212 -0.003192 0.000000 0.000000 0.000000
# 3 -0.018448 -0.003192 0.032510 0.000000 0.000000 0.000000
# 4 0.000000 0.000000 0.000000 0.581748 0.000000 0.000000
# 5 0.000000 0.000000 0.000000 0.000000 0.028106 0.000000
# 6 0.000000 0.000000 0.000000 0.000000 0.000000 0.046727
#
#
# Mechanical properties :
#
#
# Convention : Reuss Voigt Hill
#
# Bulk Modulus (GPa) = 44.27013 50.78733 47.52873
# Shear Modulus (GPa) = 6.40803 20.82245 13.61524
#
# Velocity S-wave (km/s) = 1.87968 3.38834 2.73989
# Velocity P-wave (km/s) = 5.39630 6.58106 6.01791
#
# Compressibility (1/GPa) = 0.02258859
#
# Stress axis : x y z
#
# Youngs Moduli (GPa) = 48.41799 61.68367 30.76004
#
# Poissons Ratio (x) = 0.10813 0.56746
# Poissons Ratio (y) = 0.08488 0.09819
# Poissons Ratio (z) = 0.89321 0.19691
#
# Static dielectric constant tensor:
#      x y z
#    x 1.744390 0.000000 0.000000 
#    y 0.000000 1.635510 0.000000 
#    z 0.000000 0.000000 1.717290 
# 
# From -- ./inp_files/43768.got.cif
#   From: 2010.05.17/outbox.cif.g08.bks.cpg/sg22_22_cif.got.tgz:43768.got - 2010.06.03 23:40:54.
