data_PCOD9327826
_publ_section_title
;
Structure prediction by ZEFSAII (Michael W. Deem and Ramdas Pophale) SiO2 
 PCOD9327826
Probable space group: F 2 2 2
;
_chemical_formula_sum "Si O2"
_cell_formula_units_Z 112
_cell_length_a 14.860079
_cell_length_b 28.065625
_cell_length_c 14.860079
_cell_angle_alpha 90.000000
_cell_angle_beta 90.000000
_cell_angle_gamma 90.000000
_cell_volume 6197.505981
_symmetry_space_group_name_H-M "F 2 2 2"
_symmetry_group_IT_number 22
_symmetry_cell_setting 'orthorhombic'
loop_
_space_group_symop_operation_xyz
x,y,z
-x,-y,z
x,-y,-z
-x,y,-z
x,1/2+y,1/2+z
-x,1/2-y,1/2+z
x,1/2-y,1/2-z
-x,1/2+y,1/2-z
1/2+x,y,1/2+z
1/2-x,-y,1/2+z
1/2+x,-y,1/2-z
1/2-x,y,1/2-z
1/2+x,1/2+y,z
1/2-x,1/2-y,z
1/2+x,1/2-y,-z
1/2-x,1/2+y,-z
loop_
_atom_site_type_symbol
_atom_site_label
_atom_site_fract_x
_atom_site_fract_y
_atom_site_fract_z
Si Si1 0.950326 0.806060 0.404951
Si Si2 0.655811 0.555723 0.699195
Si Si3 0.104598 0.557388 0.999698
Si Si4 0.502163 0.375000 0.247837
Si Si5 0.750302 0.692612 0.145402
Si Si6 0.654951 0.056060 0.799674
Si Si7 0.449195 0.694277 0.905811
O O1 0.844150 0.819621 0.403042
O O2 0.954350 0.750094 0.377593
O O3 0.000000 0.810293 0.500000
O O4 0.997383 0.840132 0.333505
O O5 0.750000 0.559364 0.750000
O O6 0.653303 0.569949 0.593217
O O7 0.586631 0.590543 0.747279
O O8 0.627593 0.499906 0.704350
O O9 0.153042 0.569621 0.905850
O O10 0.100142 0.500000 0.000000
O O11 0.000000 0.574408 0.000000
O O12 0.416495 0.409868 0.252617
O O13 0.497279 0.340543 0.163369
O O14 0.750000 0.675592 0.250000
O O15 0.750000 0.750000 0.149858
O O16 0.656783 0.680051 0.096697
O O17 0.750000 0.060293 0.750000
O O18 0.500000 0.690636 0.000000
#
# Coordination Sequence:
#
# PCOD9327826 Si02
#       7
#    16  16  16  16  16  16  16
#     4  10  22  37  61  93 121 152 198 254 299 349
#     4  10  22  41  59  85 126 162 192 244 309 355
#     4   9  16  34  62  84 111 149 191 242 294 345
#     4  12  22  36  62  90 116 160 200 254 286 366
#     4   9  16  34  62  84 111 149 191 242 294 345
#     4  10  22  37  61  93 121 152 198 254 299 349
#     4  10  22  41  59  85 126 162 192 244 309 355
#
# _framework density 18.071787
#
# number of rings (size 3 to 8) (size 9 to 14) (size 15 to 20)
#    0.000    2.000    2.857    0.857    4.000    0.000 
#    5.143    0.000    0.000    1.714    0.000    0.000 
#    0.000    0.000    0.000    0.000    0.000    0.000 
#
# Total GULP energy -156210.504596 kJ/mol
# GULP energy per Si atom -5578.946593 kJ/mol
# Density = 1.803065 g / cm^3
# Si number density = 18.071787 Si / 1000 Ang^3
#
#
#
# Elastic Constant Matrix: (Units=GPa)
#
#
# Indices 1 2 3 4 5 6 
#
# 1 104.5949 49.5837 71.3839 0.0000 0.0000 0.0000
# 2 49.5837 121.5278 49.5837 0.0000 0.0000 0.0000
# 3 71.3839 49.5837 104.5949 0.0000 0.0000 0.0000
# 4 0.0000 0.0000 0.0000 13.4396 0.0000 0.0000
# 5 0.0000 0.0000 0.0000 0.0000 31.2218 0.0000
# 6 0.0000 0.0000 0.0000 0.0000 0.0000 13.4396
#
#
#
# Elastic Compliance Matrix: (Units=1/GPa)
#
#
# Indices 1 2 3 4 5 6 
#
# 1 0.018745 -0.003011 -0.011366 0.000000 0.000000 0.000000
# 2 -0.003011 0.010685 -0.003011 0.000000 0.000000 0.000000
# 3 -0.011366 -0.003011 0.018745 0.000000 0.000000 0.000000
# 4 0.000000 0.000000 0.000000 0.074407 0.000000 0.000000
# 5 0.000000 0.000000 0.000000 0.000000 0.032029 0.000000
# 6 0.000000 0.000000 0.000000 0.000000 0.000000 0.074407
#
#
# Mechanical properties :
#
#
# Convention : Reuss Voigt Hill
#
# Bulk Modulus (GPa) = 74.62286 74.64671 74.63479
# Shear Modulus (GPa) = 18.63872 22.29795 20.46833
#
# Velocity S-wave (km/s) = 3.21498 3.51644 3.36908
# Velocity P-wave (km/s) = 7.42722 7.60805 7.51818
#
# Compressibility (1/GPa) = 0.01340072
#
# Stress axis : x y z
#
# Youngs Moduli (GPa) = 53.34821 93.58637 53.34821
#
# Poissons Ratio (x) = 0.28176 0.60634
# Poissons Ratio (y) = 0.16062 0.16062
# Poissons Ratio (z) = 0.60634 0.28176
#
# Static dielectric constant tensor:
#      x y z
#    x 1.616520 0.000000 0.000000 
#    y 0.000000 1.646250 0.000000 
#    z 0.000000 0.000000 1.616520 
# 
# From -- ./inp_files/29757.got.cif
#   From: 2010.05.17/outbox.cif.g08.bks.cpg/sg22_15_cif.got.tgz:29757.got - 2010.06.03 23:40:54.
