data_PCOD9327885
_publ_section_title
;
Structure prediction by ZEFSAII (Michael W. Deem and Ramdas Pophale) SiO2 
 PCOD9327885
Probable space group: F 2 2 2
;
_chemical_formula_sum "Si O2"
_cell_formula_units_Z 96
_cell_length_a 22.104672
_cell_length_b 19.073391
_cell_length_c 10.220268
_cell_angle_alpha 90.000000
_cell_angle_beta 90.000000
_cell_angle_gamma 90.000000
_cell_volume 4308.977943
_symmetry_space_group_name_H-M "F 2 2 2"
_symmetry_group_IT_number 22
_symmetry_cell_setting 'orthorhombic'
loop_
_space_group_symop_operation_xyz
x,y,z
-x,-y,z
x,-y,-z
-x,y,-z
x,1/2+y,1/2+z
-x,1/2-y,1/2+z
x,1/2-y,1/2-z
-x,1/2+y,1/2-z
1/2+x,y,1/2+z
1/2-x,-y,1/2+z
1/2+x,-y,1/2-z
1/2-x,y,1/2-z
1/2+x,1/2+y,z
1/2-x,1/2-y,z
1/2+x,1/2-y,-z
1/2-x,1/2+y,-z
loop_
_atom_site_type_symbol
_atom_site_label
_atom_site_fract_x
_atom_site_fract_y
_atom_site_fract_z
Si Si1 0.767059 0.397702 0.596184
Si Si2 0.043862 0.568629 0.180714
Si Si3 0.636230 0.390936 0.543532
Si Si4 0.035487 0.854081 0.873303
Si Si5 0.343597 0.732545 0.891080
Si Si6 0.882103 0.531138 0.322998
O O1 0.750000 0.386778 0.750000
O O2 0.705720 0.415235 0.518925
O O3 0.799824 0.326219 0.546863
O O4 0.818756 0.456072 0.608575
O O5 0.095367 0.544883 0.284174
O O6 0.000000 0.500000 0.164137
O O7 0.005799 0.631691 0.245827
O O8 0.082080 0.586968 0.052075
O O9 0.643404 0.306790 0.542599
O O10 0.621676 0.424851 0.685273
O O11 0.092647 0.804103 0.859597
O O12 0.065244 0.929993 0.902023
O O13 0.000000 0.829822 0.000000
O O14 0.316650 0.750000 0.750000
#
# Coordination Sequence:
#
# PCOD9327885 Si02
#       6
#    16  16  16  16  16  16
#     4   9  17  32  62  87 122 152 207 263 295 368
#     4  10  23  40  61  93 131 165 205 260 319 380
#     4  11  20  34  62  96 123 156 201 265 326 351
#     4  10  22  39  59  85 124 165 211 250 311 381
#     4  11  19  35  59  95 120 159 208 255 313 374
#     4   9  19  36  60  86 119 158 213 248 306 366
#
# _framework density 22.279064999999999
#
# number of rings (size 3 to 8) (size 9 to 14) (size 15 to 20)
#    0.000    2.000    5.000    1.000    0.000    9.000 
#    0.000    0.000   40.333    0.000    0.000    4.667 
#    0.000    0.000    0.000    0.000    0.000    0.000 
#
# Total GULP energy -133893.734279 kJ/mol
# GULP energy per Si atom -5578.905595 kJ/mol
# Density = 2.222836 g / cm^3
# Si number density = 22.279065 Si / 1000 Ang^3
#
#
#
# Elastic Constant Matrix: (Units=GPa)
#
#
# Indices 1 2 3 4 5 6 
#
# 1 165.1524 40.1487 43.3356 0.0000 0.0000 0.0000
# 2 40.1487 70.2496 22.8828 0.0000 0.0000 0.0000
# 3 43.3356 22.8828 72.4156 0.0000 0.0000 0.0000
# 4 0.0000 0.0000 0.0000 17.8554 0.0000 0.0000
# 5 0.0000 0.0000 0.0000 0.0000 -6.0714 0.0000
# 6 0.0000 0.0000 0.0000 0.0000 0.0000 -11.4935
#
#
#
# Elastic Compliance Matrix: (Units=1/GPa)
#
#
# Indices 1 2 3 4 5 6 
#
# 1 0.007806 -0.003277 -0.003636 0.000000 0.000000 0.000000
# 2 -0.003277 0.017244 -0.003488 0.000000 0.000000 0.000000
# 3 -0.003636 -0.003488 0.017087 0.000000 0.000000 0.000000
# 4 0.000000 0.000000 0.000000 0.056005 0.000000 0.000000
# 5 0.000000 0.000000 0.000000 0.000000 -0.164706 0.000000
# 6 0.000000 0.000000 0.000000 0.000000 0.000000 -0.087005
#
#
# Mechanical properties :
#
#
# Convention : Reuss Voigt Hill
#
# Bulk Modulus (GPa) = 46.87001 57.83910 52.35455
# Shear Modulus (GPa) = -39.79105 13.48812 -13.15146
#
# Velocity S-wave (km/s) = -4.23073 2.46319 -2.43226
# Velocity P-wave (km/s) = 1.66795 5.84015 3.95760
#
# Compressibility (1/GPa) = 0.02133561
#
# Stress axis : x y z
#
# Youngs Moduli (GPa) = 128.11352 57.99170 58.52383
#
# Poissons Ratio (x) = 0.19002 0.21277
# Poissons Ratio (y) = 0.41979 0.20413
# Poissons Ratio (z) = 0.46578 0.20228
#
# Static dielectric constant tensor:
#      x y z
#    x 1.890290 0.000000 0.000000 
#    y 0.000000 1.881380 0.000000 
#    z 0.000000 0.000000 1.912960 
# 
# From -- ./inp_files/23800.got.cif
#   From: 2010.05.17/outbox.cif.g08.bks.cpg/sg22_12_cif.got.tgz:23800.got - 2010.06.03 23:40:54.
