data_PCOD9327689
_publ_section_title
;
Structure prediction by ZEFSAII (Michael W. Deem and Ramdas Pophale) SiO2 
 PCOD9327689
Probable space group: F 2 2 2
;
_chemical_formula_sum "Si O2"
_cell_formula_units_Z 96
_cell_length_a 23.585503
_cell_length_b 14.020869
_cell_length_c 14.846325
_cell_angle_alpha 90.000000
_cell_angle_beta 90.000000
_cell_angle_gamma 90.000000
_cell_volume 4909.520048
_symmetry_space_group_name_H-M "F 2 2 2"
_symmetry_group_IT_number 22
_symmetry_cell_setting 'orthorhombic'
loop_
_space_group_symop_operation_xyz
x,y,z
-x,-y,z
x,-y,-z
-x,y,-z
x,1/2+y,1/2+z
-x,1/2-y,1/2+z
x,1/2-y,1/2-z
-x,1/2+y,1/2-z
1/2+x,y,1/2+z
1/2-x,-y,1/2+z
1/2+x,-y,1/2-z
1/2-x,y,1/2-z
1/2+x,1/2+y,z
1/2-x,1/2-y,z
1/2+x,1/2-y,-z
1/2-x,1/2+y,-z
loop_
_atom_site_type_symbol
_atom_site_label
_atom_site_fract_x
_atom_site_fract_y
_atom_site_fract_z
Si Si1 0.363148 0.380149 0.100724
Si Si2 0.168549 0.750000 0.750000
Si Si3 0.346015 0.000000 0.000000
Si Si4 0.558533 0.056078 0.125722
Si Si5 0.561680 0.730276 0.955734
Si Si6 0.766095 0.847352 0.420774
Si Si7 0.060157 0.451742 0.659744
O O1 0.369111 0.323598 0.194663
O O2 0.295280 0.395128 0.093717
O O3 0.394440 0.480247 0.110873
O O4 0.390958 0.309286 0.026418
O O5 0.204044 0.810463 0.673375
O O6 0.306377 0.910453 0.980933
O O7 0.387772 0.003085 0.915688
O O8 0.562976 0.161520 0.081233
O O9 0.564505 0.053575 0.232862
O O10 0.500000 0.000000 0.103676
O O11 0.564498 0.654987 0.875449
O O12 0.500000 0.718755 0.000000
O O13 0.750000 0.750000 0.470435
O O14 0.000000 0.500000 0.636906
#
# Coordination Sequence:
#
# PCOD9327689 Si02
#       7
#    16   8   8  16  16  16  16
#     4  11  22  38  68  93 128 171 211 264 319 380
#     4  10  21  42  64  98 124 160 218 272 319 368
#     4  12  23  42  64  98 131 162 214 262 318 378
#     4  11  25  43  66  95 129 169 208 264 324 384
#     4  12  24  41  66  92 131 167 214 261 320 383
#     4  10  22  39  65  96 129 162 214 265 313 370
#     4  11  24  42  62  95 130 166 216 257 323 381
#
# _framework density 19.553847000000001
#
# number of rings (size 3 to 8) (size 9 to 14) (size 15 to 20)
#    0.000    1.000    1.667    7.500    2.333    2.667 
#    0.000    0.000    0.000    0.000    4.333    0.000 
#    0.000    0.000    0.000    0.000    0.000    0.000 
#
# Total GULP energy -133898.723869 kJ/mol
# GULP energy per Si atom -5579.113495 kJ/mol
# Density = 1.950934 g / cm^3
# Si number density = 19.553847 Si / 1000 Ang^3
#
#
#
# Elastic Constant Matrix: (Units=GPa)
#
#
# Indices 1 2 3 4 5 6 
#
# 1 89.1538 47.8572 27.6348 0.0000 0.0000 0.0000
# 2 47.8572 118.3589 28.1398 0.0000 0.0000 0.0000
# 3 27.6348 28.1398 70.1993 0.0000 0.0000 0.0000
# 4 0.0000 0.0000 0.0000 35.8650 0.0000 0.0000
# 5 0.0000 0.0000 0.0000 0.0000 22.2404 0.0000
# 6 0.0000 0.0000 0.0000 0.0000 0.0000 29.8212
#
#
#
# Elastic Compliance Matrix: (Units=1/GPa)
#
#
# Indices 1 2 3 4 5 6 
#
# 1 0.015234 -0.005233 -0.003900 0.000000 0.000000 0.000000
# 2 -0.005233 0.011136 -0.002404 0.000000 0.000000 0.000000
# 3 -0.003900 -0.002404 0.016744 0.000000 0.000000 0.000000
# 4 0.000000 0.000000 0.000000 0.027882 0.000000 0.000000
# 5 0.000000 0.000000 0.000000 0.000000 0.044963 0.000000
# 6 0.000000 0.000000 0.000000 0.000000 0.000000 0.033533
#
#
# Mechanical properties :
#
#
# Convention : Reuss Voigt Hill
#
# Bulk Modulus (GPa) = 49.89603 53.88616 51.89110
# Shear Modulus (GPa) = 27.89458 29.19068 28.54263
#
# Velocity S-wave (km/s) = 3.78107 3.86791 3.82474
# Velocity P-wave (km/s) = 6.68091 6.89676 6.78970
#
# Compressibility (1/GPa) = 0.02004167
#
# Stress axis : x y z
#
# Youngs Moduli (GPa) = 65.64190 89.79702 59.72303
#
# Poissons Ratio (x) = 0.46988 0.23289
# Poissons Ratio (y) = 0.34348 0.14358
# Poissons Ratio (z) = 0.25597 0.21588
#
# Static dielectric constant tensor:
#      x y z
#    x 1.729910 0.000000 0.000000 
#    y 0.000000 1.710230 0.000000 
#    z 0.000000 0.000000 1.702760 
# 
# From -- ./inp_files/31563.got.cif
#   From: 2010.05.17/outbox.cif.g08.bks.cpg/sg22_16_cif.got.tgz:31563.got - 2010.06.03 23:40:54.
