data_PCOD9327438
_publ_section_title
;
Structure prediction by ZEFSAII (Michael W. Deem and Ramdas Pophale) SiO2 
 PCOD9327438
Probable space group: F 2 2 2
;
_chemical_formula_sum "Si O2"
_cell_formula_units_Z 96
_cell_length_a 22.049914
_cell_length_b 18.472554
_cell_length_c 11.240001
_cell_angle_alpha 90.000000
_cell_angle_beta 90.000000
_cell_angle_gamma 90.000000
_cell_volume 4578.257279
_symmetry_space_group_name_H-M "F 2 2 2"
_symmetry_group_IT_number 22
_symmetry_cell_setting 'orthorhombic'
loop_
_space_group_symop_operation_xyz
x,y,z
-x,-y,z
x,-y,-z
-x,y,-z
x,1/2+y,1/2+z
-x,1/2-y,1/2+z
x,1/2-y,1/2-z
-x,1/2+y,1/2-z
1/2+x,y,1/2+z
1/2-x,-y,1/2+z
1/2+x,-y,1/2-z
1/2-x,y,1/2-z
1/2+x,1/2+y,z
1/2-x,1/2-y,z
1/2+x,1/2-y,-z
1/2-x,1/2+y,-z
loop_
_atom_site_type_symbol
_atom_site_label
_atom_site_fract_x
_atom_site_fract_y
_atom_site_fract_z
Si Si1 0.961107 0.275322 0.114419
Si Si2 0.659207 0.895882 0.205245
Si Si3 0.775505 0.327974 0.597289
Si Si4 0.663586 0.802045 0.644638
Si Si5 0.410156 0.916961 0.018439
Si Si6 0.678394 0.560101 0.722142
O O1 0.979175 0.250000 0.250000
O O2 0.894385 0.240829 0.097276
O O3 0.951484 0.362154 0.094532
O O4 0.000000 0.251132 0.000000
O O5 0.722472 0.883318 0.133437
O O6 0.666573 0.846548 0.321301
O O7 0.658155 0.978614 0.247612
O O8 0.605860 0.883494 0.110732
O O9 0.750000 0.250000 0.628430
O O10 0.791108 0.322188 0.459900
O O11 0.686813 0.750000 0.750000
O O12 0.645981 0.878582 0.700853
O O13 0.346160 0.924858 0.089529
O O14 0.431378 0.000000 0.000000
O O15 0.750000 0.566788 0.750000
#
# Coordination Sequence:
#
# PCOD9327438 Si02
#       6
#    16  16  16  16  16  16
#     4  11  24  46  69  98 125 164 228 293 351 402
#     4  10  21  38  54  94 132 179 210 251 309 388
#     4  11  22  36  54  85 138 173 223 257 307 385
#     4  11  24  39  60  92 124 168 220 268 328 387
#     4  10  21  39  66  96 132 170 220 267 323 403
#     4  11  20  36  63  92 137 172 210 252 308 390
#
# _framework density 20.968678000000001
#
# number of rings (size 3 to 8) (size 9 to 14) (size 15 to 20)
#    0.000    1.333    5.000    3.000    2.333    2.333 
#    0.000    0.000    0.000    0.000    0.000    0.000 
#    0.000    0.000    0.000    0.000    0.000    0.000 
#
# Total GULP energy -133819.626489 kJ/mol
# GULP energy per Si atom -5575.817770 kJ/mol
# Density = 2.092095 g / cm^3
# Si number density = 20.968678 Si / 1000 Ang^3
#
#
#
# Elastic Constant Matrix: (Units=GPa)
#
#
# Indices 1 2 3 4 5 6 
#
# 1 54.6937 8.3536 27.8557 0.0000 0.0000 0.0000
# 2 8.3536 138.2607 62.4998 0.0000 0.0000 0.0000
# 3 27.8557 62.4998 142.1317 0.0000 0.0000 0.0000
# 4 0.0000 0.0000 0.0000 40.9603 0.0000 0.0000
# 5 0.0000 0.0000 0.0000 0.0000 29.9951 0.0000
# 6 0.0000 0.0000 0.0000 0.0000 0.0000 1.0802
#
#
#
# Elastic Compliance Matrix: (Units=1/GPa)
#
#
# Indices 1 2 3 4 5 6 
#
# 1 0.020368 0.000716 -0.004307 0.000000 0.000000 0.000000
# 2 0.000716 0.009052 -0.004121 0.000000 0.000000 0.000000
# 3 -0.004307 -0.004121 0.009692 0.000000 0.000000 0.000000
# 4 0.000000 0.000000 0.000000 0.024414 0.000000 0.000000
# 5 0.000000 0.000000 0.000000 0.000000 0.033339 0.000000
# 6 0.000000 0.000000 0.000000 0.000000 0.000000 0.925738
#
#
# Mechanical properties :
#
#
# Convention : Reuss Voigt Hill
#
# Bulk Modulus (GPa) = 42.21373 59.16716 50.69044
# Shear Modulus (GPa) = 4.78047 30.16560 17.47303
#
# Velocity S-wave (km/s) = 1.51154 3.79701 2.88981
# Velocity P-wave (km/s) = 4.81891 6.89211 5.94656
#
# Compressibility (1/GPa) = 0.02368898
#
# Stress axis : x y z
#
# Youngs Moduli (GPa) = 49.09741 110.46944 103.17914
#
# Poissons Ratio (x) = -0.07912 0.44436
# Poissons Ratio (y) = -0.03516 0.42519
# Poissons Ratio (z) = 0.21145 0.45524
#
# Static dielectric constant tensor:
#      x y z
#    x 1.776020 0.000000 0.000000 
#    y 0.000000 1.712810 0.000000 
#    z 0.000000 0.000000 1.823380 
# 
# From -- ./inp_files/24632.got.cif
#   From: 2010.05.17/outbox.cif.g08.bks.cpg/sg22_13_cif.got.tgz:24632.got - 2010.06.03 23:40:54.
