data_PCOD9327128
_publ_section_title
;
Structure prediction by ZEFSAII (Michael W. Deem and Ramdas Pophale) SiO2 
 PCOD9327128
Probable space group: F 2 2 2
;
_chemical_formula_sum "Si O2"
_cell_formula_units_Z 116
_cell_length_a 22.843818
_cell_length_b 28.626843
_cell_length_c 7.845897
_cell_angle_alpha 90.000000
_cell_angle_beta 90.000000
_cell_angle_gamma 90.000000
_cell_volume 5130.796030
_symmetry_space_group_name_H-M "F 2 2 2"
_symmetry_group_IT_number 22
_symmetry_cell_setting 'orthorhombic'
loop_
_space_group_symop_operation_xyz
x,y,z
-x,-y,z
x,-y,-z
-x,y,-z
x,1/2+y,1/2+z
-x,1/2-y,1/2+z
x,1/2-y,1/2-z
-x,1/2+y,1/2-z
1/2+x,y,1/2+z
1/2-x,-y,1/2+z
1/2+x,-y,1/2-z
1/2-x,y,1/2-z
1/2+x,1/2+y,z
1/2-x,1/2-y,z
1/2+x,1/2-y,-z
1/2-x,1/2+y,-z
loop_
_atom_site_type_symbol
_atom_site_label
_atom_site_fract_x
_atom_site_fract_y
_atom_site_fract_z
Si Si1 0.750000 0.750000 0.750000
Si Si2 0.170095 0.068347 0.184939
Si Si3 0.158776 0.815702 0.333890
Si Si4 0.436516 0.787651 0.903647
Si Si5 0.266333 0.895380 0.015051
Si Si6 0.842191 0.026431 0.318949
Si Si7 0.575238 0.395419 0.186766
Si Si8 0.444870 0.114795 0.287569
O O1 0.801740 0.787166 0.801887
O O2 0.197788 0.093887 0.019740
O O3 0.201973 0.093867 0.338444
O O4 0.102608 0.074457 0.234803
O O5 0.182120 0.013630 0.194639
O O6 0.117228 0.785323 0.460836
O O7 0.208987 0.845401 0.431611
O O8 0.114211 0.854023 0.262616
O O9 0.434242 0.750000 0.750000
O O10 0.429901 0.838231 0.813617
O O11 0.500000 0.784234 0.000000
O O12 0.295077 0.934356 0.134148
O O13 0.894236 0.055154 0.227861
O O14 0.856064 0.000000 0.500000
O O15 0.510361 0.397454 0.264142
O O16 0.562821 0.380553 0.991721
#
# Coordination Sequence:
#
# PCOD9327128 Si02
#       8
#     4  16  16  16  16  16  16  16
#     4  12  32  44  78 104 144 188 238 302 360 444
#     4  10  20  39  65  98 137 184 241 284 349 419
#     4  11  25  50  69 103 143 184 239 288 369 430
#     4  12  28  45  77 111 142 182 240 303 368 442
#     4   9  20  42  63  92 140 186 232 286 344 428
#     4   9  20  42  63 102 141 190 244 290 351 416
#     4  10  24  45  72 100 146 186 236 297 359 429
#     4  11  24  44  71 104 140 189 233 296 369 421
#
# _framework density 22.608578999999999
#
# number of rings (size 3 to 8) (size 9 to 14) (size 15 to 20)
#    0.000    1.655    2.759    0.000    6.759    1.103 
#   14.897    3.448    0.000    0.000    0.000    0.000 
#    0.000    0.000    0.000    0.000    0.000    0.000 
#
# Total GULP energy -161504.104467 kJ/mol
# GULP energy per Si atom -5569.107051 kJ/mol
# Density = 2.255712 g / cm^3
# Si number density = 22.608579 Si / 1000 Ang^3
#
#
#
# Elastic Constant Matrix: (Units=GPa)
#
#
# Indices 1 2 3 4 5 6 
#
# 1 161.8048 50.0657 30.4250 -0.0011 -0.0039 -0.0010
# 2 50.0657 54.5220 18.1051 -0.0039 0.0007 0.0003
# 3 30.4250 18.1051 83.3822 -0.0066 -0.0011 -0.0011
# 4 -0.0011 -0.0039 -0.0066 -21.9866 0.0037 0.0016
# 5 -0.0039 0.0007 -0.0011 0.0037 32.5638 0.0016
# 6 -0.0010 0.0003 -0.0011 0.0016 0.0016 25.1235
#
#
#
# Elastic Compliance Matrix: (Units=1/GPa)
#
#
# Indices 1 2 3 4 5 6 
#
# 1 0.008821 -0.007577 -0.001573 0.000001 0.000001 0.000000
# 2 -0.007577 0.026276 -0.002940 -0.000003 -0.000002 -0.000001
# 3 -0.001573 -0.002940 0.013206 -0.000003 0.000000 0.000001
# 4 0.000001 -0.000003 -0.000003 -0.045482 0.000005 0.000003
# 5 0.000001 -0.000002 0.000000 0.000005 0.030709 -0.000002
# 6 0.000000 -0.000001 0.000001 0.000003 -0.000002 0.039803
#
#
# Mechanical properties :
#
#
# Convention : Reuss Voigt Hill
#
# Bulk Modulus (GPa) = 41.45978 55.21119 48.33549
# Shear Modulus (GPa) = 47.36912 20.54768 33.95840
#
# Velocity S-wave (km/s) = 4.58228 3.01798 3.87979
# Velocity P-wave (km/s) = 6.80987 6.05126 6.44174
#
# Compressibility (1/GPa) = 0.02411976
#
# Stress axis : x y z
#
# Youngs Moduli (GPa) = 113.36981 38.05800 75.72596
#
# Poissons Ratio (x) = 0.28838 0.11914
# Poissons Ratio (y) = 0.85904 0.22267
# Poissons Ratio (z) = 0.17836 0.11191
#
# Static dielectric constant tensor:
#      x y z
#    x 2.038810 0.000000 -0.000010 
#    y 0.000000 1.822380 0.000000 
#    z -0.000010 0.000000 1.940480 
# 
# From -- ./inp_files/14107.got.cif
#   From: 2010.05.17/outbox.cif.g08.bks.cpg/sg22_8_cif.got.tgz:14107.got - 2010.06.03 23:40:54.
