data_PCOD9327326
_publ_section_title
;
Structure prediction by ZEFSAII (Michael W. Deem and Ramdas Pophale) SiO2 
 PCOD9327326
Probable space group: F 2 2 2
;
_chemical_formula_sum "Si O2"
_cell_formula_units_Z 80
_cell_length_a 20.162921
_cell_length_b 34.174179
_cell_length_c 5.064388
_cell_angle_alpha 90.000000
_cell_angle_beta 90.000000
_cell_angle_gamma 90.000000
_cell_volume 3489.622990
_symmetry_space_group_name_H-M "F 2 2 2"
_symmetry_group_IT_number 22
_symmetry_cell_setting 'orthorhombic'
loop_
_space_group_symop_operation_xyz
x,y,z
-x,-y,z
x,-y,-z
-x,y,-z
x,1/2+y,1/2+z
-x,1/2-y,1/2+z
x,1/2-y,1/2-z
-x,1/2+y,1/2-z
1/2+x,y,1/2+z
1/2-x,-y,1/2+z
1/2+x,-y,1/2-z
1/2-x,y,1/2-z
1/2+x,1/2+y,z
1/2-x,1/2-y,z
1/2+x,1/2-y,-z
1/2-x,1/2+y,-z
loop_
_atom_site_type_symbol
_atom_site_label
_atom_site_fract_x
_atom_site_fract_y
_atom_site_fract_z
Si Si1 0.176387 0.231695 0.995866
Si Si2 0.309000 0.059954 0.554844
Si Si3 0.930935 0.127503 0.617587
Si Si4 0.151379 0.144088 0.896021
Si Si5 0.391233 0.457012 0.449915
O O1 0.142723 0.250000 0.250000
O O2 0.250000 0.250000 0.998588
O O3 0.139145 0.250000 0.750000
O O4 0.183423 0.185662 0.957453
O O5 0.250000 0.045586 0.750000
O O6 0.303187 0.106894 0.522169
O O7 0.330481 0.041837 0.270916
O O8 0.369638 0.054595 0.754885
O O9 0.873599 0.138888 0.404720
O O10 0.932844 0.080064 0.645477
O O11 0.000000 0.141348 0.500000
O O12 0.910937 0.142329 0.904724
O O13 0.419404 0.500000 0.500000
#
# Coordination Sequence:
#
# PCOD9327326 Si02
#       5
#    16  16  16  16  16
#     4  10  21  36  57  90 120 154 182 236 299 353
#     4  10  21  35  55  83 114 164 195 231 294 363
#     4  10  21  39  63  86 112 160 204 246 303 347
#     4  10  21  38  59  87 123 149 198 247 289 359
#     4  10  21  37  55  84 119 150 201 255 292 344
#
# _framework density 22.925115000000002
#
# number of rings (size 3 to 8) (size 9 to 14) (size 15 to 20)
#    0.000    2.000    0.000    3.000    2.800    2.000 
#    7.200    0.000    0.000   19.200    0.000    0.000 
#    0.000    0.000    0.000    0.000    0.000    0.000 
#
# Total GULP energy -111454.523274 kJ/mol
# GULP energy per Si atom -5572.726164 kJ/mol
# Density = 2.287294 g / cm^3
# Si number density = 22.925115 Si / 1000 Ang^3
#
#
#
# Elastic Constant Matrix: (Units=GPa)
#
#
# Indices 1 2 3 4 5 6 
#
# 1 39.2539 3.5793 -0.2705 -0.0012 -0.0975 0.0273
# 2 3.5793 143.4584 11.4659 -0.0075 0.0307 -0.0085
# 3 -0.2705 11.4659 164.5481 -0.0059 0.1151 -0.0007
# 4 -0.0012 -0.0075 -0.0059 23.8525 -0.0164 0.0083
# 5 -0.0975 0.0307 0.1151 -0.0164 21.0736 -0.0182
# 6 0.0273 -0.0085 -0.0007 0.0083 -0.0182 3.2761
#
#
#
# Elastic Compliance Matrix: (Units=1/GPa)
#
#
# Indices 1 2 3 4 5 6 
#
# 1 0.025535 -0.000644 0.000087 0.000001 0.000118 -0.000214
# 2 -0.000644 0.007026 -0.000491 0.000002 -0.000011 0.000023
# 3 0.000087 -0.000491 0.006112 0.000001 -0.000032 -0.000001
# 4 0.000001 0.000002 0.000001 0.041924 0.000032 -0.000105
# 5 0.000118 -0.000011 -0.000032 0.000032 0.047454 0.000262
# 6 -0.000214 0.000023 -0.000001 -0.000105 0.000262 0.305248
#
#
# Mechanical properties :
#
#
# Convention : Reuss Voigt Hill
#
# Bulk Modulus (GPa) = 27.33988 41.86776 34.60382
# Shear Modulus (GPa) = 11.17101 31.80613 21.48857
#
# Velocity S-wave (km/s) = 2.20984 3.72881 3.06492
# Velocity P-wave (km/s) = 4.29684 6.06970 5.25852
#
# Compressibility (1/GPa) = 0.03657661
#
# Stress axis : x y z
#
# Youngs Moduli (GPa) = 39.16206 142.32954 163.62318
#
# Poissons Ratio (x) = 0.09167 -0.01420
# Poissons Ratio (y) = 0.02522 0.08028
# Poissons Ratio (z) = -0.00340 0.06983
#
# Static dielectric constant tensor:
#      x y z
#    x 1.907300 0.000030 0.000110 
#    y 0.000030 1.919920 0.000070 
#    z 0.000110 0.000070 1.859360 
# 
# From -- ./inp_files/4781.got.cif
#   From: 2010.05.17/outbox.cif.g08.bks.cpg/sg22_3_cif.got.tgz:4781.got - 2010.06.03 23:40:54.
