data_PCOD9327268
_publ_section_title
;
Structure prediction by ZEFSAII (Michael W. Deem and Ramdas Pophale) SiO2 
 PCOD9327268
Probable space group: F 2 2 2
;
_chemical_formula_sum "Si O2"
_cell_formula_units_Z 96
_cell_length_a 13.622161
_cell_length_b 31.434785
_cell_length_c 11.400547
_cell_angle_alpha 90.000000
_cell_angle_beta 90.000000
_cell_angle_gamma 90.000000
_cell_volume 4881.824837
_symmetry_space_group_name_H-M "F 2 2 2"
_symmetry_group_IT_number 22
_symmetry_cell_setting 'orthorhombic'
loop_
_space_group_symop_operation_xyz
x,y,z
-x,-y,z
x,-y,-z
-x,y,-z
x,1/2+y,1/2+z
-x,1/2-y,1/2+z
x,1/2-y,1/2-z
-x,1/2+y,1/2-z
1/2+x,y,1/2+z
1/2-x,-y,1/2+z
1/2+x,-y,1/2-z
1/2-x,y,1/2-z
1/2+x,1/2+y,z
1/2-x,1/2-y,z
1/2+x,1/2-y,-z
1/2-x,1/2+y,-z
loop_
_atom_site_type_symbol
_atom_site_label
_atom_site_fract_x
_atom_site_fract_y
_atom_site_fract_z
Si Si1 0.250000 0.397718 0.250000
Si Si2 0.353274 0.410159 0.694410
Si Si3 0.554351 0.045386 0.393869
Si Si4 0.732543 0.547567 0.486783
Si Si5 0.250000 0.750000 0.750000
Si Si6 0.880503 0.176776 0.641583
Si Si7 0.389490 0.818286 0.135616
Si Si8 0.250000 0.750000 0.250000
O O1 0.243888 0.429715 0.362483
O O2 0.162388 0.364206 0.213502
O O3 0.250000 0.424169 0.750000
O O4 0.438491 0.432066 0.769188
O O5 0.342780 0.423407 0.559945
O O6 0.360237 0.360091 0.706986
O O7 0.500000 0.069523 0.500000
O O8 0.663675 0.042315 0.445574
O O9 0.500000 0.000000 0.380164
O O10 0.689999 0.500000 0.500000
O O11 0.182649 0.781949 0.675622
O O12 0.873127 0.171244 0.501426
O O13 0.995082 0.186952 0.661821
O O14 0.321403 0.779419 0.172715
#
# Coordination Sequence:
#
# PCOD9327268 Si02
#       8
#     8  16  16  16   4  16  16   4
#     4  11  24  41  67  94 132 188 223 279 342 415
#     4  10  22  41  61  87 130 169 213 272 334 393
#     4  10  21  38  61  92 123 166 220 285 320 390
#     4  11  23  38  62  92 126 176 224 272 339 393
#     4  10  20  44  64  92 118 172 208 268 324 418
#     4  10  23  41  67  92 134 164 221 271 340 402
#     4  11  22  42  63  98 129 171 211 283 333 414
#     4  12  24  40  74  96 134 176 222 276 362 410
#
# _framework density 19.664777999999998
#
# number of rings (size 3 to 8) (size 9 to 14) (size 15 to 20)
#    0.000    1.500    4.167    1.000    5.833    0.000 
#    0.000    0.000    3.667    0.000    0.000    0.000 
#    0.000    0.000    0.000    0.000    0.000    0.000 
#
# Total GULP energy -133633.658737 kJ/mol
# GULP energy per Si atom -5568.069114 kJ/mol
# Density = 1.962002 g / cm^3
# Si number density = 19.664778 Si / 1000 Ang^3
#
#
#
# Elastic Constant Matrix: (Units=GPa)
#
#
# Indices 1 2 3 4 5 6 
#
# 1 92.0593 56.7100 56.7905 0.0000 0.0000 0.0000
# 2 56.7100 139.4861 60.5983 0.0000 0.0000 0.0000
# 3 56.7905 60.5983 115.9990 0.0000 0.0000 0.0000
# 4 0.0000 0.0000 0.0000 -135.7904 0.0000 0.0000
# 5 0.0000 0.0000 0.0000 0.0000 26.9999 0.0000
# 6 0.0000 0.0000 0.0000 0.0000 0.0000 28.8601
#
#
#
# Elastic Compliance Matrix: (Units=1/GPa)
#
#
# Indices 1 2 3 4 5 6 
#
# 1 0.017399 -0.004364 -0.006239 0.000000 0.000000 0.000000
# 2 -0.004364 0.010368 -0.003280 0.000000 0.000000 0.000000
# 3 -0.006239 -0.003280 0.013389 0.000000 0.000000 0.000000
# 4 0.000000 0.000000 0.000000 -0.007364 0.000000 0.000000
# 5 0.000000 0.000000 0.000000 0.000000 0.037037 0.000000
# 6 0.000000 0.000000 0.000000 0.000000 0.000000 0.034650
#
#
# Mechanical properties :
#
#
# Convention : Reuss Voigt Hill
#
# Bulk Modulus (GPa) = 74.67521 77.30467 75.98994
# Shear Modulus (GPa) = 36.30887 -4.42305 15.94291
#
# Velocity S-wave (km/s) = 4.30163 -1.50137 2.85043
# Velocity P-wave (km/s) = 7.92013 6.03250 7.03987
#
# Compressibility (1/GPa) = 0.01339133
#
# Stress axis : x y z
#
# Youngs Moduli (GPa) = 57.47398 96.44836 74.69020
#
# Poissons Ratio (x) = 0.42086 0.46597
# Poissons Ratio (y) = 0.25079 0.24499
# Poissons Ratio (z) = 0.35856 0.31636
#
# Static dielectric constant tensor:
#      x y z
#    x 1.754410 0.000000 0.000000 
#    y 0.000000 1.710790 0.000000 
#    z 0.000000 0.000000 1.728660 
# 
# From -- ./inp_files/20271.got.cif
#   From: 2010.05.17/outbox.cif.g08.bks.cpg/sg22_11_cif.got.tgz:20271.got - 2010.06.03 23:40:54.
