data_PCOD9327704
_publ_section_title
;
Structure prediction by ZEFSAII (Michael W. Deem and Ramdas Pophale) SiO2 
 PCOD9327704
Probable space group: F 2 2 2
;
_chemical_formula_sum "Si O2"
_cell_formula_units_Z 68
_cell_length_a 17.960118
_cell_length_b 7.263958
_cell_length_c 20.380258
_cell_angle_alpha 90.000000
_cell_angle_beta 90.000000
_cell_angle_gamma 90.000000
_cell_volume 2658.839902
_symmetry_space_group_name_H-M "F 2 2 2"
_symmetry_group_IT_number 22
_symmetry_cell_setting 'orthorhombic'
loop_
_space_group_symop_operation_xyz
x,y,z
-x,-y,z
x,-y,-z
-x,y,-z
x,1/2+y,1/2+z
-x,1/2-y,1/2+z
x,1/2-y,1/2-z
-x,1/2+y,1/2-z
1/2+x,y,1/2+z
1/2-x,-y,1/2+z
1/2+x,-y,1/2-z
1/2-x,y,1/2-z
1/2+x,1/2+y,z
1/2-x,1/2-y,z
1/2+x,1/2-y,-z
1/2-x,1/2+y,-z
loop_
_atom_site_type_symbol
_atom_site_label
_atom_site_fract_x
_atom_site_fract_y
_atom_site_fract_z
Si Si1 0.950928 0.303814 0.863615
Si Si2 0.560098 0.250000 0.250000
Si Si3 0.891220 0.277272 0.004312
Si Si4 0.000000 0.500000 0.500000
Si Si5 0.750000 0.250000 0.409876
Si Si6 0.816512 0.975320 0.300231
O O1 0.915818 0.228985 0.930981
O O2 0.870081 0.318800 0.827380
O O3 0.000000 0.500000 0.876392
O O4 0.006933 0.212635 0.811909
O O5 0.618423 0.091846 0.234125
O O6 0.950032 0.146525 0.041311
O O7 0.894946 0.500000 0.000000
O O8 0.816449 0.216373 0.039082
O O9 0.780434 0.089619 0.361490
O O10 0.750000 0.942664 0.250000
#
# Coordination Sequence:
#
# PCOD9327704 Si02
#       6
#    16   8  16   4   8  16
#     4  10  23  46  73 105 152 203 249 322 397 454
#     4  10  21  42  67 110 138 198 256 308 383 458
#     4  12  27  51  78 113 162 206 259 328 393 467
#     4  12  30  44  76 122 144 214 266 312 390 470
#     4  12  25  46  78 113 154 216 256 318 408 467
#     4  11  21  43  77 106 146 203 263 317 387 465
#
# _framework density 25.575064000000001
#
# number of rings (size 3 to 8) (size 9 to 14) (size 15 to 20)
#    0.000    0.941    4.706    1.765    4.941    0.000 
#   14.824    0.000    0.000    0.000    0.000    0.000 
#    0.000    0.000    0.000    0.000    0.000    0.000 
#
# Total GULP energy -94644.076065 kJ/mol
# GULP energy per Si atom -5567.298592 kJ/mol
# Density = 2.551685 g / cm^3
# Si number density = 25.575064 Si / 1000 Ang^3
#
#
#
# Elastic Constant Matrix: (Units=GPa)
#
#
# Indices 1 2 3 4 5 6 
#
# 1 278.1499 36.8427 114.8160 0.0000 0.0000 0.0000
# 2 36.8427 83.4029 20.5660 0.0000 0.0000 0.0000
# 3 114.8160 20.5660 201.1661 0.0000 0.0000 0.0000
# 4 0.0000 0.0000 0.0000 -13.4256 0.0000 0.0000
# 5 0.0000 0.0000 0.0000 0.0000 75.8750 0.0000
# 6 0.0000 0.0000 0.0000 0.0000 0.0000 20.3556
#
#
#
# Elastic Compliance Matrix: (Units=1/GPa)
#
#
# Indices 1 2 3 4 5 6 
#
# 1 0.004881 -0.001507 -0.002632 0.000000 0.000000 0.000000
# 2 -0.001507 0.012766 -0.000445 0.000000 0.000000 0.000000
# 3 -0.002632 -0.000445 0.006519 0.000000 0.000000 0.000000
# 4 0.000000 0.000000 0.000000 -0.074485 0.000000 0.000000
# 5 0.000000 0.000000 0.000000 0.000000 0.013180 0.000000
# 6 0.000000 0.000000 0.000000 0.000000 0.000000 0.049126
#
#
# Mechanical properties :
#
#
# Convention : Reuss Voigt Hill
#
# Bulk Modulus (GPa) = 66.67781 100.79647 83.73714
# Shear Modulus (GPa) = 191.17811 42.59396 116.88604
#
# Velocity S-wave (km/s) = 8.65529 4.08542 6.76774
# Velocity P-wave (km/s) = 11.22557 7.85823 9.68930
#
# Compressibility (1/GPa) = 0.01499749
#
# Stress axis : x y z
#
# Youngs Moduli (GPa) = 204.86646 78.33613 153.40626
#
# Poissons Ratio (x) = 0.11807 0.40375
# Poissons Ratio (y) = 0.30879 0.06823
# Poissons Ratio (z) = 0.53918 0.03484
#
# Static dielectric constant tensor:
#      x y z
#    x 2.083370 0.000000 0.000000 
#    y 0.000000 2.198310 0.000000 
#    z 0.000000 0.000000 1.955260 
# 
# From -- ./inp_files/43993.got.cif
#   From: 2010.05.17/outbox.cif.g08.bks.cpg/sg22_22_cif.got.tgz:43993.got - 2010.06.03 23:40:54.
