data_PCOD9327497
_publ_section_title
;
Structure prediction by ZEFSAII (Michael W. Deem and Ramdas Pophale) SiO2 
 PCOD9327497
Probable space group: F 2 2 2
;
_chemical_formula_sum "Si O2"
_cell_formula_units_Z 80
_cell_length_a 15.090203
_cell_length_b 11.609710
_cell_length_c 20.556259
_cell_angle_alpha 90.000000
_cell_angle_beta 90.000000
_cell_angle_gamma 90.000000
_cell_volume 3601.310230
_symmetry_space_group_name_H-M "F 2 2 2"
_symmetry_group_IT_number 22
_symmetry_cell_setting 'orthorhombic'
loop_
_space_group_symop_operation_xyz
x,y,z
-x,-y,z
x,-y,-z
-x,y,-z
x,1/2+y,1/2+z
-x,1/2-y,1/2+z
x,1/2-y,1/2-z
-x,1/2+y,1/2-z
1/2+x,y,1/2+z
1/2-x,-y,1/2+z
1/2+x,-y,1/2-z
1/2-x,y,1/2-z
1/2+x,1/2+y,z
1/2-x,1/2-y,z
1/2+x,1/2-y,-z
1/2-x,1/2+y,-z
loop_
_atom_site_type_symbol
_atom_site_label
_atom_site_fract_x
_atom_site_fract_y
_atom_site_fract_z
Si Si1 0.340806 0.020410 0.276475
Si Si2 0.048851 0.621905 0.437630
Si Si3 0.098660 0.475283 0.137883
Si Si4 0.232900 0.615067 0.394228
Si Si5 0.046088 0.771644 0.824103
O O1 0.250000 0.076402 0.250000
O O2 0.393296 0.978671 0.212794
O O3 0.394638 0.114396 0.316580
O O4 0.308583 0.922486 0.324918
O O5 0.152685 0.598338 0.444845
O O6 0.000000 0.500000 0.427511
O O7 0.000000 0.675016 0.500000
O O8 0.030370 0.701356 0.375365
O O9 0.178773 0.536493 0.099637
O O10 0.101539 0.337425 0.149230
O O11 0.000000 0.500000 0.112593
O O12 0.250000 0.750000 0.394526
O O13 0.015974 0.750000 0.750000
#
# Coordination Sequence:
#
# PCOD9327497 Si02
#       5
#    16  16  16  16  16
#     4   9  20  35  58  95 137 176 230 287 355 423
#     4  11  24  46  71 102 142 192 241 292 356 434
#     4  10  22  37  59 100 139 178 228 294 361 412
#     4  11  23  41  66  96 141 182 239 292 351 426
#     4  10  21  38  69  96 138 182 235 296 359 422
#
# _framework density 22.214137999999998
#
# number of rings (size 3 to 8) (size 9 to 14) (size 15 to 20)
#    0.000    1.800    2.000    1.200    5.600   12.800 
#    3.600    4.000    0.000    4.200    0.000    0.000 
#    0.000    0.000    0.000    0.000    0.000    0.000 
#
# Total GULP energy -111639.461196 kJ/mol
# GULP energy per Si atom -5581.973060 kJ/mol
# Density = 2.216358 g / cm^3
# Si number density = 22.214138 Si / 1000 Ang^3
#
#
#
# Elastic Constant Matrix: (Units=GPa)
#
#
# Indices 1 2 3 4 5 6 
#
# 1 176.7450 49.7223 52.2597 0.0000 0.0000 0.0000
# 2 49.7223 93.4382 21.5398 0.0000 0.0000 0.0000
# 3 52.2597 21.5398 59.4330 0.0000 0.0000 0.0000
# 4 0.0000 0.0000 0.0000 22.5630 0.0000 0.0000
# 5 0.0000 0.0000 0.0000 0.0000 11.6209 0.0000
# 6 0.0000 0.0000 0.0000 0.0000 0.0000 37.6610
#
#
#
# Elastic Compliance Matrix: (Units=1/GPa)
#
#
# Indices 1 2 3 4 5 6 
#
# 1 0.008352 -0.003002 -0.006256 0.000000 0.000000 0.000000
# 2 -0.003002 0.012757 -0.001983 0.000000 0.000000 0.000000
# 3 -0.006256 -0.001983 0.023046 0.000000 0.000000 0.000000
# 4 0.000000 0.000000 0.000000 0.044320 0.000000 0.000000
# 5 0.000000 0.000000 0.000000 0.000000 0.086052 0.000000
# 6 0.000000 0.000000 0.000000 0.000000 0.000000 0.026553
#
#
# Mechanical properties :
#
#
# Convention : Reuss Voigt Hill
#
# Bulk Modulus (GPa) = 46.14431 64.07329 55.10880
# Shear Modulus (GPa) = 21.66494 28.10860 24.88677
#
# Velocity S-wave (km/s) = 3.12633 3.56103 3.35074
# Velocity P-wave (km/s) = 5.81803 6.76861 6.31124
#
# Compressibility (1/GPa) = 0.02167114
#
# Stress axis : x y z
#
# Youngs Moduli (GPa) = 119.72749 78.38704 43.39239
#
# Poissons Ratio (x) = 0.23535 0.27147
# Poissons Ratio (y) = 0.35947 0.08607
# Poissons Ratio (z) = 0.74902 0.15548
#
# Static dielectric constant tensor:
#      x y z
#    x 1.874400 0.000000 0.000000 
#    y 0.000000 1.834600 0.000000 
#    z 0.000000 0.000000 1.848740 
# 
# From -- ./inp_files/48737.got.cif
#   From: 2010.05.17/outbox.cif.g08.bks.cpg/sg22_25_cif.got.tgz:48737.got - 2010.06.03 23:40:54.
