data_PCOD9327616
_publ_section_title
;
Structure prediction by ZEFSAII (Michael W. Deem and Ramdas Pophale) SiO2 
 PCOD9327616
Probable space group: F 2 2 2
;
_chemical_formula_sum "Si O2"
_cell_formula_units_Z 60
_cell_length_a 6.845342
_cell_length_b 14.555330
_cell_length_c 27.190291
_cell_angle_alpha 90.000000
_cell_angle_beta 90.000000
_cell_angle_gamma 90.000000
_cell_volume 2709.137592
_symmetry_space_group_name_H-M "F 2 2 2"
_symmetry_group_IT_number 22
_symmetry_cell_setting 'orthorhombic'
loop_
_space_group_symop_operation_xyz
x,y,z
-x,-y,z
x,-y,-z
-x,y,-z
x,1/2+y,1/2+z
-x,1/2-y,1/2+z
x,1/2-y,1/2-z
-x,1/2+y,1/2-z
1/2+x,y,1/2+z
1/2-x,-y,1/2+z
1/2+x,-y,1/2-z
1/2-x,y,1/2-z
1/2+x,1/2+y,z
1/2-x,1/2-y,z
1/2+x,1/2-y,-z
1/2-x,1/2+y,-z
loop_
_atom_site_type_symbol
_atom_site_label
_atom_site_fract_x
_atom_site_fract_y
_atom_site_fract_z
Si Si1 0.483082 0.646279 0.739317
Si Si2 0.687286 0.148650 0.967839
Si Si3 0.879158 0.415205 0.866318
Si Si4 0.000000 0.500000 0.316809
Si Si5 0.000000 0.500000 0.500000
O O1 0.540446 0.750000 0.750000
O O2 0.250000 0.639851 0.750000
O O3 0.492642 0.619322 0.682248
O O4 0.576036 0.577991 0.779090
O O5 0.750000 0.250000 0.985775
O O6 0.636047 0.156322 0.910140
O O7 0.500000 0.120661 0.000000
O O8 0.855515 0.070941 0.971902
O O9 0.669688 0.453792 0.848723
O O10 0.000000 0.500000 0.887506
#
# Coordination Sequence:
#
# PCOD9327616 Si02
#       5
#    16  16  16   8   4
#     4   9  19  36  62  92 135 176 222 281 339 422
#     4  12  27  49  76 108 144 193 254 310 377 445
#     4  11  23  41  67  96 136 184 230 291 361 431
#     4  10  21  40  66  97 135 180 230 277 358 422
#     4  12  24  52  80 100 148 192 238 326 372 432
#
# _framework density 22.147271
#
# number of rings (size 3 to 8) (size 9 to 14) (size 15 to 20)
#    0.000    1.333    2.667    2.800    7.467    0.000 
#    0.000    2.667    0.000    0.000    0.000    0.000 
#    0.000    0.000    0.000    0.000    0.000    0.000 
#
# Total GULP energy -83817.052419 kJ/mol
# GULP energy per Si atom -5587.803495 kJ/mol
# Density = 2.209686 g / cm^3
# Si number density = 22.147271 Si / 1000 Ang^3
#
#
#
# Elastic Constant Matrix: (Units=GPa)
#
#
# Indices 1 2 3 4 5 6 
#
# 1 106.8499 9.9906 41.9313 0.0000 0.0000 0.0000
# 2 9.9906 114.5922 21.5077 0.0000 0.0000 0.0000
# 3 41.9313 21.5077 116.2043 0.0000 0.0000 0.0000
# 4 0.0000 0.0000 0.0000 83.6588 0.0000 0.0000
# 5 0.0000 0.0000 0.0000 0.0000 -20.6390 0.0000
# 6 0.0000 0.0000 0.0000 0.0000 0.0000 26.7758
#
#
#
# Elastic Compliance Matrix: (Units=1/GPa)
#
#
# Indices 1 2 3 4 5 6 
#
# 1 0.010908 -0.000220 -0.003895 0.000000 0.000000 0.000000
# 2 -0.000220 0.009045 -0.001595 0.000000 0.000000 0.000000
# 3 -0.003895 -0.001595 0.010306 0.000000 0.000000 0.000000
# 4 0.000000 0.000000 0.000000 0.011953 0.000000 0.000000
# 5 0.000000 0.000000 0.000000 0.000000 -0.048452 0.000000
# 6 0.000000 0.000000 0.000000 0.000000 0.000000 0.037347
#
#
# Mechanical properties :
#
#
# Convention : Reuss Voigt Hill
#
# Bulk Modulus (GPa) = 53.08014 53.83395 53.45704
# Shear Modulus (GPa) = 102.44202 35.57357 69.00780
#
# Velocity S-wave (km/s) = 6.80848 4.01213 5.58804
# Velocity P-wave (km/s) = 9.26423 6.76926 8.11323
#
# Compressibility (1/GPa) = 0.01883944
#
# Stress axis : x y z
#
# Youngs Moduli (GPa) = 91.67436 110.55720 97.02768
#
# Poissons Ratio (x) = 0.02431 0.37796
# Poissons Ratio (y) = 0.02016 0.15474
# Poissons Ratio (z) = 0.35711 0.17631
#
# Static dielectric constant tensor:
#      x y z
#    x 1.865620 0.000000 0.000000 
#    y 0.000000 1.844720 0.000000 
#    z 0.000000 0.000000 1.798830 
# 
# From -- ./inp_files/13380.got.cif
#   From: 2010.05.17/outbox.cif.g08.bks.cpg/sg22_7_cif.got.tgz:13380.got - 2010.06.03 23:40:54.
