data_PCOD9327987
_publ_section_title
;
Structure prediction by ZEFSAII (Michael W. Deem and Ramdas Pophale) SiO2 
 PCOD9327987
Probable space group: F 2 2 2
;
_chemical_formula_sum "Si O2"
_cell_formula_units_Z 88
_cell_length_a 13.089620
_cell_length_b 28.332839
_cell_length_c 11.160883
_cell_angle_alpha 90.000000
_cell_angle_beta 90.000000
_cell_angle_gamma 90.000000
_cell_volume 4139.193106
_symmetry_space_group_name_H-M "F 2 2 2"
_symmetry_group_IT_number 22
_symmetry_cell_setting 'orthorhombic'
loop_
_space_group_symop_operation_xyz
x,y,z
-x,-y,z
x,-y,-z
-x,y,-z
x,1/2+y,1/2+z
-x,1/2-y,1/2+z
x,1/2-y,1/2-z
-x,1/2+y,1/2-z
1/2+x,y,1/2+z
1/2-x,-y,1/2+z
1/2+x,-y,1/2-z
1/2-x,y,1/2-z
1/2+x,1/2+y,z
1/2-x,1/2-y,z
1/2+x,1/2-y,-z
1/2-x,1/2+y,-z
loop_
_atom_site_type_symbol
_atom_site_label
_atom_site_fract_x
_atom_site_fract_y
_atom_site_fract_z
Si Si1 0.000000 0.500000 0.798323
Si Si2 0.420286 0.402002 0.235957
Si Si3 0.785732 0.972595 0.614259
Si Si4 0.000405 0.299977 0.685010
Si Si5 0.762059 0.108759 0.551930
Si Si6 0.318848 0.205237 0.501220
O O1 0.018094 0.549045 0.727083
O O2 0.097879 0.488287 0.876895
O O3 0.478722 0.351611 0.243599
O O4 0.344094 0.400288 0.122369
O O5 0.350719 0.405314 0.355453
O O6 0.750000 0.981809 0.750000
O O7 0.772513 0.919207 0.571462
O O8 0.737143 0.000000 0.500000
O O9 0.019418 0.250000 0.750000
O O10 0.100916 0.307715 0.604531
O O11 0.896036 0.289316 0.610878
O O12 0.760093 0.163845 0.527099
O O13 0.250000 0.250000 0.528227
#
# Coordination Sequence:
#
# PCOD9327987 Si02
#       6
#     8  16  16  16  16  16
#     4  12  25  42  67 100 137 178 229 278 345 412
#     4  10  22  42  69  98 133 181 229 281 345 418
#     4  12  26  45  68  98 138 181 231 286 341 409
#     4  10  22  41  67  96 133 173 230 286 343 413
#     4  10  22  43  67  95 136 179 228 281 342 419
#     4  10  22  41  65  97 132 177 228 283 345 410
#
# _framework density 21.260180999999999
#
# number of rings (size 3 to 8) (size 9 to 14) (size 15 to 20)
#    0.000    1.455    1.818    2.455    2.545    3.636 
#    0.000    3.182    0.000    0.000    0.000    0.000 
#    0.000    0.000    0.000    0.000    0.000    0.000 
#
# Total GULP energy -122683.587632 kJ/mol
# GULP energy per Si atom -5576.526711 kJ/mol
# Density = 2.121179 g / cm^3
# Si number density = 21.260181 Si / 1000 Ang^3
#
#
#
# Elastic Constant Matrix: (Units=GPa)
#
#
# Indices 1 2 3 4 5 6 
#
# 1 51.9290 32.4108 18.2299 0.0000 0.0000 0.0000
# 2 32.4108 147.1310 32.0928 0.0000 0.0000 0.0000
# 3 18.2299 32.0928 89.1159 0.0000 0.0000 0.0000
# 4 0.0000 0.0000 0.0000 34.6044 0.0000 0.0000
# 5 0.0000 0.0000 0.0000 0.0000 1.4863 0.0000
# 6 0.0000 0.0000 0.0000 0.0000 0.0000 41.3165
#
#
#
# Elastic Compliance Matrix: (Units=1/GPa)
#
#
# Indices 1 2 3 4 5 6 
#
# 1 0.023109 -0.004406 -0.003141 0.000000 0.000000 0.000000
# 2 -0.004406 0.008216 -0.002058 0.000000 0.000000 0.000000
# 3 -0.003141 -0.002058 0.012605 0.000000 0.000000 0.000000
# 4 0.000000 0.000000 0.000000 0.028898 0.000000 0.000000
# 5 0.000000 0.000000 0.000000 0.000000 0.672825 0.000000
# 6 0.000000 0.000000 0.000000 0.000000 0.000000 0.024203
#
#
# Mechanical properties :
#
#
# Convention : Reuss Voigt Hill
#
# Bulk Modulus (GPa) = 40.44931 50.40476 45.42704
# Shear Modulus (GPa) = 6.27113 29.17758 17.72435
#
# Velocity S-wave (km/s) = 1.71933 3.70862 2.89050
# Velocity P-wave (km/s) = 4.79673 6.48833 5.70557
#
# Compressibility (1/GPa) = 0.02472230
#
# Stress axis : x y z
#
# Youngs Moduli (GPa) = 43.27255 121.71457 79.33483
#
# Poissons Ratio (x) = 0.53622 0.24917
# Poissons Ratio (y) = 0.19064 0.16323
# Poissons Ratio (z) = 0.13591 0.25043
#
# Static dielectric constant tensor:
#      x y z
#    x 1.753070 0.000000 0.000000 
#    y 0.000000 1.839330 0.000000 
#    z 0.000000 0.000000 1.819340 
# 
# From -- ./inp_files/18416.got.cif
#   From: 2010.05.17/outbox.cif.g08.bks.cpg/sg22_10_cif.got.tgz:18416.got - 2010.06.03 23:40:54.
