data_PCOD9327539
_publ_section_title
;
Structure prediction by ZEFSAII (Michael W. Deem and Ramdas Pophale) SiO2 
 PCOD9327539
Probable space group: F 2 2 2
;
_chemical_formula_sum "Si O2"
_cell_formula_units_Z 68
_cell_length_a 25.452022
_cell_length_b 5.503412
_cell_length_c 20.765957
_cell_angle_alpha 90.000000
_cell_angle_beta 90.000000
_cell_angle_gamma 90.000000
_cell_volume 2908.749133
_symmetry_space_group_name_H-M "F 2 2 2"
_symmetry_group_IT_number 22
_symmetry_cell_setting 'orthorhombic'
loop_
_space_group_symop_operation_xyz
x,y,z
-x,-y,z
x,-y,-z
-x,y,-z
x,1/2+y,1/2+z
-x,1/2-y,1/2+z
x,1/2-y,1/2-z
-x,1/2+y,1/2-z
1/2+x,y,1/2+z
1/2-x,-y,1/2+z
1/2+x,-y,1/2-z
1/2-x,y,1/2-z
1/2+x,1/2+y,z
1/2-x,1/2-y,z
1/2+x,1/2-y,-z
1/2-x,1/2+y,-z
loop_
_atom_site_type_symbol
_atom_site_label
_atom_site_fract_x
_atom_site_fract_y
_atom_site_fract_z
Si Si1 0.250000 0.750000 0.250000
Si Si2 0.444185 0.628480 0.320880
Si Si3 0.088209 0.247947 0.959361
Si Si4 0.795118 0.576206 0.930485
Si Si5 0.331980 0.599372 0.685689
O O1 0.292056 0.612672 0.294485
O O2 0.500000 0.500000 0.320801
O O3 0.439133 0.750000 0.250000
O O4 0.440153 0.770521 0.389250
O O5 0.393082 0.456702 0.323334
O O6 0.149653 0.282684 0.940956
O O7 0.074480 0.500000 0.000000
O O8 0.079954 0.000000 0.000000
O O9 0.750000 0.750000 0.906239
O O10 0.809783 0.345377 0.885070
O O11 0.777041 0.500000 0.000000
O O12 0.327467 0.750000 0.750000
#
# Coordination Sequence:
#
# PCOD9327539 Si02
#       5
#     4  16  16  16  16
#     4  12  22  44  64 102 136 192 232 294 372 450
#     4  11  25  46  73 110 147 194 251 313 379 444
#     4  10  24  47  73 106 147 194 249 304 374 455
#     4  10  21  39  65 102 139 187 239 303 371 443
#     4  11  24  43  68 102 143 188 245 302 375 451
#
# _framework density 23.377745999999998
#
# number of rings (size 3 to 8) (size 9 to 14) (size 15 to 20)
#    0.000    1.412    2.353    1.765    0.000    9.882 
#    0.000    1.176    0.000    0.000    0.000    0.000 
#    0.000    0.000    0.000    0.000    0.000    0.000 
#
# Total GULP energy -94699.341650 kJ/mol
# GULP energy per Si atom -5570.549509 kJ/mol
# Density = 2.332454 g / cm^3
# Si number density = 23.377746 Si / 1000 Ang^3
#
#
#
# Elastic Constant Matrix: (Units=GPa)
#
#
# Indices 1 2 3 4 5 6 
#
# 1 112.0689 25.1238 36.8386 -0.0007 -0.0015 0.0006
# 2 25.1238 73.8484 72.6766 0.0022 0.0009 0.0009
# 3 36.8386 72.6766 223.8003 0.0003 -0.0001 0.0000
# 4 -0.0007 0.0022 0.0003 44.2845 0.0015 0.0004
# 5 -0.0015 0.0009 -0.0001 0.0015 -13.8992 0.0009
# 6 0.0006 0.0009 0.0000 0.0004 0.0009 17.8105
#
#
#
# Elastic Compliance Matrix: (Units=1/GPa)
#
#
# Indices 1 2 3 4 5 6 
#
# 1 0.009751 -0.002554 -0.000776 0.000000 -0.000001 0.000000
# 2 -0.002554 0.020570 -0.006260 -0.000001 0.000002 -0.000001
# 3 -0.000776 -0.006260 0.006629 0.000000 0.000000 0.000000
# 4 0.000000 -0.000001 0.000000 0.022581 0.000002 -0.000001
# 5 -0.000001 0.000002 0.000000 0.000002 -0.071947 0.000004
# 6 0.000000 -0.000001 0.000000 -0.000001 0.000004 0.056147
#
#
# Mechanical properties :
#
#
# Convention : Reuss Voigt Hill
#
# Bulk Modulus (GPa) = 56.27033 75.44396 65.85714
# Shear Modulus (GPa) = 72.63968 27.97775 50.30872
#
# Velocity S-wave (km/s) = 5.58029 3.46319 4.64399
# Velocity P-wave (km/s) = 8.10196 6.95222 7.54901
#
# Compressibility (1/GPa) = 0.01777136
#
# Stress axis : x y z
#
# Youngs Moduli (GPa) = 102.55801 48.61355 150.85951
#
# Poissons Ratio (x) = 0.12415 0.11701
# Poissons Ratio (y) = 0.26192 0.94432
# Poissons Ratio (z) = 0.07955 0.30430
#
# Static dielectric constant tensor:
#      x y z
#    x 1.800200 0.000000 0.000000 
#    y 0.000000 2.237350 0.000010 
#    z 0.000000 0.000010 2.100400 
# 
# From -- ./inp_files/3770.got.cif
#   From: 2010.05.17/outbox.cif.g08.bks.cpg/sg22_2_cif.got.tgz:3770.got - 2010.06.03 23:40:54.
