data_PCOD9327252
_publ_section_title
;
Structure prediction by ZEFSAII (Michael W. Deem and Ramdas Pophale) SiO2 
 PCOD9327252
Probable space group: F 2 2 2
;
_chemical_formula_sum "Si O2"
_cell_formula_units_Z 60
_cell_length_a 13.019903
_cell_length_b 15.124319
_cell_length_c 13.164913
_cell_angle_alpha 90.000000
_cell_angle_beta 90.000000
_cell_angle_gamma 90.000000
_cell_volume 2592.397363
_symmetry_space_group_name_H-M "F 2 2 2"
_symmetry_group_IT_number 22
_symmetry_cell_setting 'orthorhombic'
loop_
_space_group_symop_operation_xyz
x,y,z
-x,-y,z
x,-y,-z
-x,y,-z
x,1/2+y,1/2+z
-x,1/2-y,1/2+z
x,1/2-y,1/2-z
-x,1/2+y,1/2-z
1/2+x,y,1/2+z
1/2-x,-y,1/2+z
1/2+x,-y,1/2-z
1/2-x,y,1/2-z
1/2+x,1/2+y,z
1/2-x,1/2-y,z
1/2+x,1/2-y,-z
1/2-x,1/2+y,-z
loop_
_atom_site_type_symbol
_atom_site_label
_atom_site_fract_x
_atom_site_fract_y
_atom_site_fract_z
Si Si1 0.750000 0.750000 0.906386
Si Si2 0.500000 0.500000 0.000000
Si Si3 0.045972 0.334445 0.895124
Si Si4 0.146603 0.500000 0.000000
Si Si5 0.680205 0.382495 0.920719
Si Si6 0.386333 0.750000 0.750000
O O1 0.702062 0.674587 0.978478
O O2 0.849048 0.708603 0.854827
O O3 0.576435 0.438861 0.934057
O O4 0.081890 0.430786 0.933208
O O5 0.958058 0.317044 0.814410
O O6 0.000000 0.292603 0.000000
O O7 0.221821 0.552439 0.922501
O O8 0.670949 0.313947 0.829175
#
# Coordination Sequence:
#
# PCOD9327252 Si02
#       6
#     8   4  16   8  16   8
#     4  10  20  42  70  96 138 186 224 278 348 412
#     4  10  20  44  66  92 144 178 214 280 354 388
#     4  11  22  44  72 100 141 184 227 286 350 412
#     4   9  23  45  73  90 146 186 216 282 362 398
#     4  10  21  41  68 100 130 182 228 277 334 407
#     4  12  24  42  76 104 130 180 244 280 328 414
#
# _framework density 23.144600000000001
#
# number of rings (size 3 to 8) (size 9 to 14) (size 15 to 20)
#    0.000    1.600    2.667    2.000    0.000    1.067 
#    4.800    0.000    5.867    0.000    0.000    0.000 
#    0.000    0.000    0.000    0.000    0.000    0.000 
#
# Total GULP energy -83804.583649 kJ/mol
# GULP energy per Si atom -5586.972243 kJ/mol
# Density = 2.309192 g / cm^3
# Si number density = 23.144600 Si / 1000 Ang^3
#
#
#
# Elastic Constant Matrix: (Units=GPa)
#
#
# Indices 1 2 3 4 5 6 
#
# 1 131.1951 86.5967 52.4500 0.0000 0.0000 0.0000
# 2 86.5967 132.9260 54.2419 0.0000 0.0000 0.0000
# 3 52.4500 54.2419 97.4677 0.0000 0.0000 0.0000
# 4 0.0000 0.0000 0.0000 21.9611 0.0000 0.0000
# 5 0.0000 0.0000 0.0000 0.0000 20.3079 0.0000
# 6 0.0000 0.0000 0.0000 0.0000 0.0000 63.8561
#
#
#
# Elastic Compliance Matrix: (Units=1/GPa)
#
#
# Indices 1 2 3 4 5 6 
#
# 1 0.014106 -0.007882 -0.003204 0.000000 0.000000 0.000000
# 2 -0.007882 0.014137 -0.003626 0.000000 0.000000 0.000000
# 3 -0.003204 -0.003626 0.014002 0.000000 0.000000 0.000000
# 4 0.000000 0.000000 0.000000 0.045535 0.000000 0.000000
# 5 0.000000 0.000000 0.000000 0.000000 0.049242 0.000000
# 6 0.000000 0.000000 0.000000 0.000000 0.000000 0.015660
#
#
# Mechanical properties :
#
#
# Convention : Reuss Voigt Hill
#
# Bulk Modulus (GPa) = 77.99966 83.12956 80.56461
# Shear Modulus (GPa) = 26.82674 32.44503 29.63589
#
# Velocity S-wave (km/s) = 3.40824 3.74818 3.58224
# Velocity P-wave (km/s) = 7.01871 7.39779 7.21074
#
# Compressibility (1/GPa) = 0.01282057
#
# Stress axis : x y z
#
# Youngs Moduli (GPa) = 70.89268 70.73399 71.41731
#
# Poissons Ratio (x) = 0.55752 0.22885
# Poissons Ratio (y) = 0.55877 0.25897
# Poissons Ratio (z) = 0.22717 0.25650
#
# Static dielectric constant tensor:
#      x y z
#    x 1.947740 0.000000 0.000000 
#    y 0.000000 1.908850 0.000000 
#    z 0.000000 0.000000 1.901970 
# 
# From -- ./inp_files/19328.got.cif
#   From: 2010.05.17/outbox.cif.g08.bks.cpg/sg22_10_cif.got.tgz:19328.got - 2010.06.03 23:40:54.
