data_PCOD9327794
_publ_section_title
;
Structure prediction by ZEFSAII (Michael W. Deem and Ramdas Pophale) SiO2 
 PCOD9327794
Probable space group: F 2 2 2
;
_chemical_formula_sum "Si O2"
_cell_formula_units_Z 72
_cell_length_a 9.222733
_cell_length_b 11.582649
_cell_length_c 29.490754
_cell_angle_alpha 90.000000
_cell_angle_beta 90.000000
_cell_angle_gamma 90.000000
_cell_volume 3150.310843
_symmetry_space_group_name_H-M "F 2 2 2"
_symmetry_group_IT_number 22
_symmetry_cell_setting 'orthorhombic'
loop_
_space_group_symop_operation_xyz
x,y,z
-x,-y,z
x,-y,-z
-x,y,-z
x,1/2+y,1/2+z
-x,1/2-y,1/2+z
x,1/2-y,1/2-z
-x,1/2+y,1/2-z
1/2+x,y,1/2+z
1/2-x,-y,1/2+z
1/2+x,-y,1/2-z
1/2-x,y,1/2-z
1/2+x,1/2+y,z
1/2-x,1/2-y,z
1/2+x,1/2-y,-z
1/2-x,1/2+y,-z
loop_
_atom_site_type_symbol
_atom_site_label
_atom_site_fract_x
_atom_site_fract_y
_atom_site_fract_z
Si Si1 0.193013 0.557115 0.825155
Si Si2 0.574326 0.758036 0.952298
Si Si3 0.019333 0.637869 0.638085
Si Si4 0.500000 0.000000 0.910217
Si Si5 0.409564 0.321618 0.704633
O O1 0.331235 0.636489 0.833273
O O2 0.128958 0.533435 0.875557
O O3 0.200382 0.428828 0.803454
O O4 0.067774 0.619364 0.796884
O O5 0.750000 0.750000 0.952722
O O6 0.497375 0.680984 0.913347
O O7 0.539497 0.890066 0.939512
O O8 0.500000 0.729139 0.000000
O O9 0.000000 0.500000 0.637933
O O10 0.916109 0.729230 0.663793
O O11 0.393880 0.250000 0.750000
#
# Coordination Sequence:
#
# PCOD9327794 Si02
#       5
#    16  16  16   8  16
#     4  10  22  44  77 102 144 208 250 307 389 462
#     4  12  28  49  78 114 153 201 265 325 394 470
#     4  12  26  43  73 104 154 198 252 319 392 453
#     4  10  21  48  78  98 152 200 252 304 399 446
#     4  10  23  44  71 107 147 189 260 314 374 459
#
# _framework density 22.854887000000002
#
# number of rings (size 3 to 8) (size 9 to 14) (size 15 to 20)
#    0.000    1.333    4.444    2.333    6.222    2.222 
#    4.000    1.111    0.000    0.000    0.000    0.000 
#    0.000    0.000    0.000    0.000    0.000    0.000 
#
# Total GULP energy -100533.520055 kJ/mol
# GULP energy per Si atom -5585.195559 kJ/mol
# Density = 2.280287 g / cm^3
# Si number density = 22.854887 Si / 1000 Ang^3
#
#
#
# Elastic Constant Matrix: (Units=GPa)
#
#
# Indices 1 2 3 4 5 6 
#
# 1 100.8561 52.1890 22.8079 0.0000 0.0000 0.0000
# 2 52.1890 182.3856 60.4615 0.0000 0.0000 0.0000
# 3 22.8079 60.4615 160.9477 0.0000 0.0000 0.0000
# 4 0.0000 0.0000 0.0000 9.0673 0.0000 0.0000
# 5 0.0000 0.0000 0.0000 0.0000 15.2261 0.0000
# 6 0.0000 0.0000 0.0000 0.0000 0.0000 45.9522
#
#
#
# Elastic Compliance Matrix: (Units=1/GPa)
#
#
# Indices 1 2 3 4 5 6 
#
# 1 0.011668 -0.003187 -0.000456 0.000000 0.000000 0.000000
# 2 -0.003187 0.007134 -0.002228 0.000000 0.000000 0.000000
# 3 -0.000456 -0.002228 0.007115 0.000000 0.000000 0.000000
# 4 0.000000 0.000000 0.000000 0.110286 0.000000 0.000000
# 5 0.000000 0.000000 0.000000 0.000000 0.065676 0.000000
# 6 0.000000 0.000000 0.000000 0.000000 0.000000 0.021762
#
#
# Mechanical properties :
#
#
# Convention : Reuss Voigt Hill
#
# Bulk Modulus (GPa) = 70.55737 79.45624 75.00681
# Shear Modulus (GPa) = 20.82394 34.63121 27.72758
#
# Velocity S-wave (km/s) = 3.02178 3.89686 3.48688
# Velocity P-wave (km/s) = 6.56611 7.42216 7.00722
#
# Compressibility (1/GPa) = 0.01417286
#
# Stress axis : x y z
#
# Youngs Moduli (GPa) = 85.70723 140.18170 140.55150
#
# Poissons Ratio (x) = 0.44683 0.06409
# Poissons Ratio (y) = 0.27319 0.31316
# Poissons Ratio (z) = 0.03908 0.31234
#
# Static dielectric constant tensor:
#      x y z
#    x 2.302130 0.000000 0.000000 
#    y 0.000000 1.863620 0.000000 
#    z 0.000000 0.000000 1.820900 
# 
# From -- ./inp_files/55859.got.cif
#   From: 2010.05.17/outbox.cif.g08.bks.cpg/sg22_28_cif.got.tgz:55859.got - 2010.06.03 23:40:54.
