data_PCOD9327544
_publ_section_title
;
Structure prediction by ZEFSAII (Michael W. Deem and Ramdas Pophale) SiO2 
 PCOD9327544
Probable space group: F 2 2 2
;
_chemical_formula_sum "Si O2"
_cell_formula_units_Z 80
_cell_length_a 32.550801
_cell_length_b 5.014451
_cell_length_c 25.257915
_cell_angle_alpha 90.000000
_cell_angle_beta 90.000000
_cell_angle_gamma 90.000000
_cell_volume 4122.707936
_symmetry_space_group_name_H-M "F 2 2 2"
_symmetry_group_IT_number 22
_symmetry_cell_setting 'orthorhombic'
loop_
_space_group_symop_operation_xyz
x,y,z
-x,-y,z
x,-y,-z
-x,y,-z
x,1/2+y,1/2+z
-x,1/2-y,1/2+z
x,1/2-y,1/2-z
-x,1/2+y,1/2-z
1/2+x,y,1/2+z
1/2-x,-y,1/2+z
1/2+x,-y,1/2-z
1/2-x,y,1/2-z
1/2+x,1/2+y,z
1/2-x,1/2-y,z
1/2+x,1/2-y,-z
1/2-x,1/2+y,-z
loop_
_atom_site_type_symbol
_atom_site_label
_atom_site_fract_x
_atom_site_fract_y
_atom_site_fract_z
Si Si1 0.952892 0.001900 0.788843
Si Si2 0.250000 0.750000 0.338051
Si Si3 0.126138 0.408767 0.355121
Si Si4 0.663370 0.260068 0.536161
Si Si5 0.336811 0.106089 0.803719
Si Si6 0.750000 0.750000 0.410453
O O1 0.948052 0.250000 0.750000
O O2 0.920011 0.037653 0.835353
O O3 0.946434 0.750000 0.750000
O O4 0.000000 0.000000 0.808329
O O5 0.287695 0.627891 0.305409
O O6 0.236948 0.502380 0.374895
O O7 0.134690 0.297293 0.413327
O O8 0.147773 0.695392 0.349479
O O9 0.146864 0.188996 0.315557
O O10 0.648047 0.500000 0.500000
O O11 0.709418 0.326924 0.557047
O O12 0.666624 0.000000 0.500000
O O13 0.351427 0.250000 0.750000
#
# Coordination Sequence:
#
# PCOD9327544 Si02
#       6
#    16   8  16  16  16   8
#     4  10  21  39  65  97 127 156 191 235 302 380
#     4  12  21  39  54  81 118 163 198 249 293 362
#     4  12  23  40  60  88 122 153 201 252 298 357
#     4  12  24  40  60  84 114 160 209 262 309 347
#     4  12  23  37  58  84 121 162 198 239 298 362
#     4  12  22  41  59  77 116 157 215 265 308 336
#
# _framework density 19.404722
#
# number of rings (size 3 to 8) (size 9 to 14) (size 15 to 20)
#    0.000    0.400    4.000    6.900    0.000    0.000 
#    0.000    3.000    0.000    0.600    0.000    1.400 
#    0.000    0.000    0.000    0.000    0.000    0.000 
#
# Total GULP energy -111822.022093 kJ/mol
# GULP energy per Si atom -5591.101105 kJ/mol
# Density = 1.936056 g / cm^3
# Si number density = 19.404722 Si / 1000 Ang^3
#
#
#
# Elastic Constant Matrix: (Units=GPa)
#
#
# Indices 1 2 3 4 5 6 
#
# 1 148.1954 6.4000 38.6311 -0.0038 0.0008 0.0161
# 2 6.4000 98.2302 3.4211 0.0237 -0.0215 -0.0279
# 3 38.6311 3.4211 84.1880 0.0012 -0.0038 0.0359
# 4 -0.0038 0.0237 0.0012 29.7474 -0.0155 -0.0815
# 5 0.0008 -0.0215 -0.0038 -0.0155 2.3109 0.1324
# 6 0.0161 -0.0279 0.0359 -0.0815 0.1324 -0.2496
#
#
#
# Elastic Compliance Matrix: (Units=1/GPa)
#
#
# Indices 1 2 3 4 5 6 
#
# 1 0.007679 -0.000378 -0.003508 0.000001 -0.000013 0.000026
# 2 -0.000378 0.010213 -0.000241 -0.000011 0.000158 -0.001112
# 3 -0.003508 -0.000241 0.013497 0.000004 -0.000076 0.001698
# 4 0.000001 -0.000011 0.000004 0.033588 0.000828 -0.010532
# 5 -0.000013 0.000158 -0.000076 0.000828 0.419989 0.222526
# 6 0.000026 -0.001112 0.001698 -0.010532 0.222526 -3.884800
#
#
# Mechanical properties :
#
#
# Convention : Reuss Voigt Hill
#
# Bulk Modulus (GPa) = 43.22631 47.50199 45.36415
# Shear Modulus (GPa) = -1.47760 25.17250 11.84745
#
# Velocity S-wave (km/s) = -0.87357 3.60562 2.47360
# Velocity P-wave (km/s) = 4.61596 6.47045 5.62022
#
# Compressibility (1/GPa) = 0.02313406
#
# Stress axis : x y z
#
# Youngs Moduli (GPa) = 130.23103 97.91517 74.09045
#
# Poissons Ratio (x) = 0.03702 0.25992
# Poissons Ratio (y) = 0.04924 0.01786
# Poissons Ratio (z) = 0.45687 0.02360
#
# Static dielectric constant tensor:
#      x y z
#    x 1.725060 0.000020 0.000250 
#    y 0.000020 1.668420 -0.000060 
#    z 0.000250 -0.000060 1.821060 
# 
# From -- ./inp_files/50618.got.cif
#   From: 2010.05.17/outbox.cif.g08.bks.cpg/sg22_26_cif.got.tgz:50618.got - 2010.06.03 23:40:54.
