data_PCOD9327149
_publ_section_title
;
Structure prediction by ZEFSAII (Michael W. Deem and Ramdas Pophale) SiO2 
 PCOD9327149
Probable space group: F 2 2 2
;
_chemical_formula_sum "Si O2"
_cell_formula_units_Z 48
_cell_length_a 9.111561
_cell_length_b 18.749130
_cell_length_c 12.145121
_cell_angle_alpha 90.000000
_cell_angle_beta 90.000000
_cell_angle_gamma 90.000000
_cell_volume 2074.797678
_symmetry_space_group_name_H-M "F 2 2 2"
_symmetry_group_IT_number 22
_symmetry_cell_setting 'orthorhombic'
loop_
_space_group_symop_operation_xyz
x,y,z
-x,-y,z
x,-y,-z
-x,y,-z
x,1/2+y,1/2+z
-x,1/2-y,1/2+z
x,1/2-y,1/2-z
-x,1/2+y,1/2-z
1/2+x,y,1/2+z
1/2-x,-y,1/2+z
1/2+x,-y,1/2-z
1/2-x,y,1/2-z
1/2+x,1/2+y,z
1/2-x,1/2-y,z
1/2+x,1/2-y,-z
1/2-x,1/2+y,-z
loop_
_atom_site_type_symbol
_atom_site_label
_atom_site_fract_x
_atom_site_fract_y
_atom_site_fract_z
Si Si1 0.955202 0.173769 0.807810
Si Si2 0.788101 0.333589 0.491618
Si Si3 0.616983 0.938605 0.838437
O O1 0.935539 0.250000 0.750000
O O2 0.080917 0.173308 0.902245
O O3 0.016934 0.120318 0.719974
O O4 0.820725 0.147284 0.881593
O O5 0.750000 0.250000 0.499521
O O6 0.687485 0.395416 0.440469
O O7 0.750000 0.957574 0.750000
O O8 0.500000 0.000000 0.864414
#
# Coordination Sequence:
#
# PCOD9327149 Si02
#       3
#    16  16  16
#     4  10  20  39  73 107 143 191 253 307 365 436
#     4  10  20  39  73 109 139 188 252 311 360 440
#     4  10  22  44  75 104 156 200 242 308 383 440
#
# _framework density 23.134785000000001
#
# number of rings (size 3 to 8) (size 9 to 14) (size 15 to 20)
#    0.000    2.000    3.333    0.000    0.000    0.667 
#    6.000   13.333   14.667    0.000    0.000    0.000 
#    0.000    0.000    0.000    0.000    0.000    0.000 
#
# Total GULP energy -66937.598331 kJ/mol
# GULP energy per Si atom -5578.133194 kJ/mol
# Density = 2.308213 g / cm^3
# Si number density = 23.134785 Si / 1000 Ang^3
#
#
#
# Elastic Constant Matrix: (Units=GPa)
#
#
# Indices 1 2 3 4 5 6 
#
# 1 112.2771 74.7736 68.0422 0.0000 0.0000 0.0000
# 2 74.7736 96.6739 71.8977 0.0000 0.0000 0.0000
# 3 68.0422 71.8977 153.5236 0.0000 0.0000 0.0000
# 4 0.0000 0.0000 0.0000 -80.9067 0.0000 0.0000
# 5 0.0000 0.0000 0.0000 0.0000 20.2929 0.0000
# 6 0.0000 0.0000 0.0000 0.0000 0.0000 47.2552
#
#
#
# Elastic Compliance Matrix: (Units=1/GPa)
#
#
# Indices 1 2 3 4 5 6 
#
# 1 0.018904 -0.012875 -0.002349 0.000000 0.000000 0.000000
# 2 -0.012875 0.024641 -0.005833 0.000000 0.000000 0.000000
# 3 -0.002349 -0.005833 0.010287 0.000000 0.000000 0.000000
# 4 0.000000 0.000000 0.000000 -0.012360 0.000000 0.000000
# 5 0.000000 0.000000 0.000000 0.000000 0.049278 0.000000
# 6 0.000000 0.000000 0.000000 0.000000 0.000000 0.021162
#
#
# Mechanical properties :
#
#
# Convention : Reuss Voigt Hill
#
# Bulk Modulus (GPa) = 85.34526 87.98907 86.66717
# Shear Modulus (GPa) = 31.65915 7.17903 19.41909
#
# Velocity S-wave (km/s) = 3.70329 1.76348 2.90036
# Velocity P-wave (km/s) = 7.43346 6.50095 6.98279
#
# Compressibility (1/GPa) = 0.01171711
#
# Stress axis : x y z
#
# Youngs Moduli (GPa) = 52.89780 40.58327 97.21346
#
# Poissons Ratio (x) = 0.52250 0.22835
# Poissons Ratio (y) = 0.68105 0.56709
# Poissons Ratio (z) = 0.12426 0.23674
#
# Static dielectric constant tensor:
#      x y z
#    x 2.001410 0.000000 0.000000 
#    y 0.000000 2.028430 0.000000 
#    z 0.000000 0.000000 1.878990 
# 
# From -- ./inp_files/9099.got.cif
#   From: 2010.05.17/outbox.cif.g08.bks.cpg/sg22_5_cif.got.tgz:9099.got - 2010.06.03 23:40:54.
