data_PCOD9327633
_publ_section_title
;
Structure prediction by ZEFSAII (Michael W. Deem and Ramdas Pophale) SiO2 
 PCOD9327633
Probable space group: F 2 2 2
;
_chemical_formula_sum "Si O2"
_cell_formula_units_Z 92
_cell_length_a 8.242525
_cell_length_b 26.211124
_cell_length_c 21.180673
_cell_angle_alpha 90.000000
_cell_angle_beta 90.000000
_cell_angle_gamma 90.000000
_cell_volume 4575.996393
_symmetry_space_group_name_H-M "F 2 2 2"
_symmetry_group_IT_number 22
_symmetry_cell_setting 'orthorhombic'
loop_
_space_group_symop_operation_xyz
x,y,z
-x,-y,z
x,-y,-z
-x,y,-z
x,1/2+y,1/2+z
-x,1/2-y,1/2+z
x,1/2-y,1/2-z
-x,1/2+y,1/2-z
1/2+x,y,1/2+z
1/2-x,-y,1/2+z
1/2+x,-y,1/2-z
1/2-x,y,1/2-z
1/2+x,1/2+y,z
1/2-x,1/2-y,z
1/2+x,1/2-y,-z
1/2-x,1/2+y,-z
loop_
_atom_site_type_symbol
_atom_site_label
_atom_site_fract_x
_atom_site_fract_y
_atom_site_fract_z
Si Si1 0.130545 0.797379 0.946444
Si Si2 0.043806 0.833778 0.181269
Si Si3 0.188499 0.399714 0.009630
Si Si4 0.726517 0.542822 0.132885
Si Si5 0.250000 0.250000 0.750000
Si Si6 0.342443 0.931440 0.376706
Si Si7 0.250000 0.886758 0.750000
O O1 0.250000 0.750000 0.934735
O O2 0.226364 0.847184 0.970306
O O3 0.040583 0.815903 0.883423
O O4 0.000000 0.783021 0.000000
O O5 0.139151 0.786525 0.208540
O O6 0.165344 0.880617 0.165288
O O7 0.903608 0.853430 0.228435
O O8 0.200090 0.440450 0.066290
O O9 0.277857 0.419578 0.946724
O O10 0.000000 0.389664 0.000000
O O11 0.534718 0.555673 0.124554
O O12 0.744694 0.482875 0.146281
O O13 0.789964 0.577262 0.190180
#
# Coordination Sequence:
#
# PCOD9327633 Si02
#       7
#    16  16  16  16   4  16   8
#     4  12  25  45  72 101 133 176 228 289 347 402
#     4  11  26  47  70  97 136 179 229 279 346 400
#     4  12  23  40  64 103 140 172 221 281 338 405
#     4  10  21  40  71 100 130 182 222 270 340 411
#     4  12  32  44  68 100 132 184 236 290 334 406
#     4  10  21  43  69  96 134 175 222 280 343 401
#     4  10  22  44  70  96 134 180 228 264 330 422
#
# _framework density 20.104911000000001
#
# number of rings (size 3 to 8) (size 9 to 14) (size 15 to 20)
#    0.000    1.043    5.217    1.565    3.652    6.261 
#    0.000    5.217    0.000    0.000    0.000    0.000 
#    0.000    0.000    0.000    0.000    0.000    0.000 
#
# Total GULP energy -128604.077747 kJ/mol
# GULP energy per Si atom -5591.481641 kJ/mol
# Density = 2.005915 g / cm^3
# Si number density = 20.104911 Si / 1000 Ang^3
#
#
#
# Elastic Constant Matrix: (Units=GPa)
#
#
# Indices 1 2 3 4 5 6 
#
# 1 54.8655 46.6412 47.1817 0.0000 0.0000 0.0000
# 2 46.6412 166.7930 55.7423 0.0000 0.0000 0.0000
# 3 47.1817 55.7423 109.5238 0.0000 0.0000 0.0000
# 4 0.0000 0.0000 0.0000 20.7532 0.0000 0.0000
# 5 0.0000 0.0000 0.0000 0.0000 11.1902 0.0000
# 6 0.0000 0.0000 0.0000 0.0000 0.0000 -6.0160
#
#
#
# Elastic Compliance Matrix: (Units=1/GPa)
#
#
# Indices 1 2 3 4 5 6 
#
# 1 0.032424 -0.005300 -0.011270 0.000000 0.000000 0.000000
# 2 -0.005300 0.008091 -0.001834 0.000000 0.000000 0.000000
# 3 -0.011270 -0.001834 0.014919 0.000000 0.000000 0.000000
# 4 0.000000 0.000000 0.000000 0.048185 0.000000 0.000000
# 5 0.000000 0.000000 0.000000 0.000000 0.089364 0.000000
# 6 0.000000 0.000000 0.000000 0.000000 0.000000 -0.166225
#
#
# Mechanical properties :
#
#
# Convention : Reuss Voigt Hill
#
# Bulk Modulus (GPa) = 53.69477 70.03472 61.86475
# Shear Modulus (GPa) = 71.65646 17.29328 44.47487
#
# Velocity S-wave (km/s) = 5.97651 2.93602 4.70844
# Velocity P-wave (km/s) = 8.62497 6.81204 7.77155
#
# Compressibility (1/GPa) = 0.01862379
#
# Stress axis : x y z
#
# Youngs Moduli (GPa) = 30.84114 123.59877 67.02765
#
# Poissons Ratio (x) = 0.65512 0.75543
# Poissons Ratio (y) = 0.16347 0.12296
# Poissons Ratio (z) = 0.34759 0.22673
#
# Static dielectric constant tensor:
#      x y z
#    x 1.672440 0.000000 0.000000 
#    y 0.000000 1.715260 0.000000 
#    z 0.000000 0.000000 1.692820 
# 
# From -- ./inp_files/41881.got.cif
#   From: 2010.05.17/outbox.cif.g08.bks.cpg/sg22_21_cif.got.tgz:41881.got - 2010.06.03 23:40:54.
