data_PCOD9327769
_publ_section_title
;
Structure prediction by ZEFSAII (Michael W. Deem and Ramdas Pophale) SiO2 
 PCOD9327769
Probable space group: F 2 2 2
;
_chemical_formula_sum "Si O2"
_cell_formula_units_Z 72
_cell_length_a 9.031203
_cell_length_b 12.195795
_cell_length_c 30.997779
_cell_angle_alpha 90.000000
_cell_angle_beta 90.000000
_cell_angle_gamma 90.000000
_cell_volume 3414.179085
_symmetry_space_group_name_H-M "F 2 2 2"
_symmetry_group_IT_number 22
_symmetry_cell_setting 'orthorhombic'
loop_
_space_group_symop_operation_xyz
x,y,z
-x,-y,z
x,-y,-z
-x,y,-z
x,1/2+y,1/2+z
-x,1/2-y,1/2+z
x,1/2-y,1/2-z
-x,1/2+y,1/2-z
1/2+x,y,1/2+z
1/2-x,-y,1/2+z
1/2+x,-y,1/2-z
1/2-x,y,1/2-z
1/2+x,1/2+y,z
1/2-x,1/2-y,z
1/2+x,1/2-y,-z
1/2-x,1/2+y,-z
loop_
_atom_site_type_symbol
_atom_site_label
_atom_site_fract_x
_atom_site_fract_y
_atom_site_fract_z
Si Si1 0.573214 0.770812 0.201627
Si Si2 0.757366 0.001103 0.907009
Si Si3 0.386746 0.333666 0.538926
Si Si4 0.000000 0.500000 0.837541
Si Si5 0.012993 0.177172 0.109218
O O1 0.517279 0.750000 0.250000
O O2 0.750000 0.750000 0.201994
O O3 0.526466 0.893710 0.190860
O O4 0.519054 0.701987 0.160070
O O5 0.675099 0.953749 0.948976
O O6 0.885151 0.911600 0.898895
O O7 0.642728 0.994377 0.868119
O O8 0.835923 0.119288 0.907192
O O9 0.500000 0.332638 0.500000
O O10 0.250000 0.250000 0.530272
O O11 0.469703 0.283575 0.581303
#
# Coordination Sequence:
#
# PCOD9327769 Si02
#       5
#    16  16  16   8  16
#     4  11  24  42  66 100 138 178 226 283 344 404
#     4  10  22  39  69  97 128 177 225 267 347 409
#     4  10  22  41  67  96 135 177 227 279 344 411
#     4  12  22  40  67 100 128 176 227 272 334 412
#     4  10  21  44  66  91 139 178 213 288 341 395
#
# _framework density 21.088524
#
# number of rings (size 3 to 8) (size 9 to 14) (size 15 to 20)
#    0.000    1.556    4.444    0.000    0.000    4.444 
#    0.000   15.000    0.000    0.000    0.000    0.000 
#    0.000    0.000    0.000    0.000    0.000    0.000 
#
# Total GULP energy -100631.746990 kJ/mol
# GULP energy per Si atom -5590.652611 kJ/mol
# Density = 2.104053 g / cm^3
# Si number density = 21.088524 Si / 1000 Ang^3
#
#
#
# Elastic Constant Matrix: (Units=GPa)
#
#
# Indices 1 2 3 4 5 6 
#
# 1 105.4020 39.8529 56.2757 0.0000 0.0000 0.0000
# 2 39.8529 89.6715 34.4380 0.0000 0.0000 0.0000
# 3 56.2757 34.4380 155.5298 0.0000 0.0000 0.0000
# 4 0.0000 0.0000 0.0000 27.9382 0.0000 0.0000
# 5 0.0000 0.0000 0.0000 0.0000 33.8755 0.0000
# 6 0.0000 0.0000 0.0000 0.0000 0.0000 25.0274
#
#
#
# Elastic Compliance Matrix: (Units=1/GPa)
#
#
# Indices 1 2 3 4 5 6 
#
# 1 0.013176 -0.004399 -0.003794 0.000000 0.000000 0.000000
# 2 -0.004399 0.013657 -0.001432 0.000000 0.000000 0.000000
# 3 -0.003794 -0.001432 0.008119 0.000000 0.000000 0.000000
# 4 0.000000 0.000000 0.000000 0.035793 0.000000 0.000000
# 5 0.000000 0.000000 0.000000 0.000000 0.029520 0.000000
# 6 0.000000 0.000000 0.000000 0.000000 0.000000 0.039956
#
#
# Mechanical properties :
#
#
# Convention : Reuss Voigt Hill
#
# Bulk Modulus (GPa) = 63.68251 67.97071 65.82661
# Shear Modulus (GPa) = 30.35717 32.03735 31.19726
#
# Velocity S-wave (km/s) = 3.79821 3.90190 3.85040
# Velocity P-wave (km/s) = 7.03551 7.25265 7.14490
#
# Compressibility (1/GPa) = 0.01570290
#
# Stress axis : x y z
#
# Youngs Moduli (GPa) = 75.89442 73.22287 123.16195
#
# Poissons Ratio (x) = 0.32211 0.46722
# Poissons Ratio (y) = 0.33386 0.17640
# Poissons Ratio (z) = 0.28791 0.10487
#
# Static dielectric constant tensor:
#      x y z
#    x 1.779060 0.000000 0.000000 
#    y 0.000000 1.763030 0.000000 
#    z 0.000000 0.000000 1.730750 
# 
# From -- ./inp_files/51680.got.cif
#   From: 2010.05.17/outbox.cif.g08.bks.cpg/sg22_26_cif.got.tgz:51680.got - 2010.06.03 23:40:54.
