data_PCOD9327828
_publ_section_title
;
Structure prediction by ZEFSAII (Michael W. Deem and Ramdas Pophale) SiO2 
 PCOD9327828
Probable space group: F 2 2 2
;
_chemical_formula_sum "Si O2"
_cell_formula_units_Z 112
_cell_length_a 22.503456
_cell_length_b 11.196249
_cell_length_c 21.294843
_cell_angle_alpha 90.000000
_cell_angle_beta 90.000000
_cell_angle_gamma 90.000000
_cell_volume 5365.327192
_symmetry_space_group_name_H-M "F 2 2 2"
_symmetry_group_IT_number 22
_symmetry_cell_setting 'orthorhombic'
loop_
_space_group_symop_operation_xyz
x,y,z
-x,-y,z
x,-y,-z
-x,y,-z
x,1/2+y,1/2+z
-x,1/2-y,1/2+z
x,1/2-y,1/2-z
-x,1/2+y,1/2-z
1/2+x,y,1/2+z
1/2-x,-y,1/2+z
1/2+x,-y,1/2-z
1/2-x,y,1/2-z
1/2+x,1/2+y,z
1/2-x,1/2-y,z
1/2+x,1/2-y,-z
1/2-x,1/2+y,-z
loop_
_atom_site_type_symbol
_atom_site_label
_atom_site_fract_x
_atom_site_fract_y
_atom_site_fract_z
Si Si1 0.316697 0.803831 0.505046
Si Si2 0.412033 0.203778 0.162032
Si Si3 0.690513 0.001043 0.602733
Si Si4 0.847017 0.888278 0.763206
Si Si5 0.053875 0.936667 0.775063
Si Si6 0.431305 0.140096 0.018310
Si Si7 0.712629 0.582912 0.309930
O O1 0.250000 0.750000 0.516621
O O2 0.337446 0.889038 0.563142
O O3 0.372357 0.712752 0.493206
O O4 0.306379 0.893063 0.446505
O O5 0.456030 0.139389 0.211793
O O6 0.415318 0.343523 0.178397
O O7 0.427143 0.162362 0.092838
O O8 0.345866 0.160041 0.179528
O O9 0.750436 0.064784 0.627461
O O10 0.667128 0.938823 0.666974
O O11 0.846148 0.750000 0.750000
O O12 0.909393 0.950515 0.751197
O O13 0.805220 0.950968 0.712566
O O14 0.000000 0.000000 0.808972
O O15 0.500000 0.175742 0.000000
O O16 0.424992 0.000000 0.000000
O O17 0.750000 0.627580 0.250000
#
# Coordination Sequence:
#
# PCOD9327828 Si02
#       7
#    16  16  16  16  16  16  16
#     4  11  25  41  68 100 137 186 238 304 366 421
#     4  10  22  43  69  98 137 182 243 301 363 443
#     4  10  23  41  62  98 134 175 231 284 365 434
#     4  10  22  37  61  96 132 174 218 276 362 434
#     4  10  23  40  65  96 129 173 227 295 369 427
#     4  11  27  47  70 100 138 197 255 301 364 439
#     4   9  20  40  68  96 137 178 227 295 372 453
#
# _framework density 20.874776000000001
#
# number of rings (size 3 to 8) (size 9 to 14) (size 15 to 20)
#    0.000    1.857    0.000    1.714   10.000    5.429 
#    0.000   17.143    0.000    0.000    0.000    0.000 
#    0.000    0.000    0.000    0.000    0.000    0.000 
#
# Total GULP energy -155909.802247 kJ/mol
# GULP energy per Si atom -5568.207223 kJ/mol
# Density = 2.082726 g / cm^3
# Si number density = 20.874776 Si / 1000 Ang^3
#
#
#
# Elastic Constant Matrix: (Units=GPa)
#
#
# Indices 1 2 3 4 5 6 
#
# 1 111.4272 71.0006 34.0797 0.0000 0.0000 0.0000
# 2 71.0006 160.9051 35.1180 0.0000 0.0000 0.0000
# 3 34.0797 35.1180 112.9078 0.0000 0.0000 0.0000
# 4 0.0000 0.0000 0.0000 35.0002 0.0000 0.0000
# 5 0.0000 0.0000 0.0000 0.0000 16.4473 0.0000
# 6 0.0000 0.0000 0.0000 0.0000 0.0000 7.1347
#
#
#
# Elastic Compliance Matrix: (Units=1/GPa)
#
#
# Indices 1 2 3 4 5 6 
#
# 1 0.013018 -0.005243 -0.002299 0.000000 0.000000 0.000000
# 2 -0.005243 0.008779 -0.001148 0.000000 0.000000 0.000000
# 3 -0.002299 -0.001148 0.009908 0.000000 0.000000 0.000000
# 4 0.000000 0.000000 0.000000 0.028571 0.000000 0.000000
# 5 0.000000 0.000000 0.000000 0.000000 0.060800 0.000000
# 6 0.000000 0.000000 0.000000 0.000000 0.000000 0.140160
#
#
# Mechanical properties :
#
#
# Convention : Reuss Voigt Hill
#
# Bulk Modulus (GPa) = 69.80439 73.95965 71.88202
# Shear Modulus (GPa) = 17.64354 28.05257 22.84805
#
# Velocity S-wave (km/s) = 2.91040 3.66983 3.31196
# Velocity P-wave (km/s) = 6.69374 7.31191 7.00964
#
# Compressibility (1/GPa) = 0.01432575
#
# Stress axis : x y z
#
# Youngs Moduli (GPa) = 76.81620 113.91124 100.93158
#
# Poissons Ratio (x) = 0.59719 0.23201
# Poissons Ratio (y) = 0.40272 0.11588
# Poissons Ratio (z) = 0.17658 0.13078
#
# Static dielectric constant tensor:
#      x y z
#    x 1.905130 0.000000 0.000000 
#    y 0.000000 1.764050 0.000000 
#    z 0.000000 0.000000 1.778530 
# 
# From -- ./inp_files/45341.got.cif
#   From: 2010.05.17/outbox.cif.g08.bks.cpg/sg22_23_cif.got.tgz:45341.got - 2010.06.03 23:40:54.
