data_PCOD9327227
_publ_section_title
;
Structure prediction by ZEFSAII (Michael W. Deem and Ramdas Pophale) SiO2 
 PCOD9327227
Probable space group: F 2 2 2
;
_chemical_formula_sum "Si O2"
_cell_formula_units_Z 104
_cell_length_a 26.838349
_cell_length_b 19.772471
_cell_length_c 8.918961
_cell_angle_alpha 90.000000
_cell_angle_beta 90.000000
_cell_angle_gamma 90.000000
_cell_volume 4732.940101
_symmetry_space_group_name_H-M "F 2 2 2"
_symmetry_group_IT_number 22
_symmetry_cell_setting 'orthorhombic'
loop_
_space_group_symop_operation_xyz
x,y,z
-x,-y,z
x,-y,-z
-x,y,-z
x,1/2+y,1/2+z
-x,1/2-y,1/2+z
x,1/2-y,1/2-z
-x,1/2+y,1/2-z
1/2+x,y,1/2+z
1/2-x,-y,1/2+z
1/2+x,-y,1/2-z
1/2-x,y,1/2-z
1/2+x,1/2+y,z
1/2-x,1/2-y,z
1/2+x,1/2-y,-z
1/2-x,1/2+y,-z
loop_
_atom_site_type_symbol
_atom_site_label
_atom_site_fract_x
_atom_site_fract_y
_atom_site_fract_z
Si Si1 0.594652 0.244959 0.071194
Si Si2 0.700655 0.280765 0.585562
Si Si3 0.473861 0.619153 0.357726
Si Si4 0.104516 0.000000 0.000000
Si Si5 0.933103 0.365871 0.652376
Si Si6 0.876316 0.952367 0.708503
Si Si7 0.352263 0.601915 0.600497
O O1 0.601395 0.250000 0.250000
O O2 0.554526 0.183709 0.068974
O O3 0.649452 0.233552 0.001364
O O4 0.574470 0.309725 0.977180
O O5 0.696793 0.250000 0.750000
O O6 0.750000 0.250000 0.512803
O O7 0.700215 0.361132 0.614984
O O8 0.500000 0.584972 0.500000
O O9 0.513811 0.640789 0.233810
O O10 0.434802 0.566363 0.289372
O O11 0.073641 0.058402 0.085411
O O12 0.137402 0.956397 0.117446
O O13 0.891504 0.360535 0.786465
O O14 0.859014 0.901412 0.580087
O O15 0.860316 0.025517 0.650495
#
# Coordination Sequence:
#
# PCOD9327227 Si02
#       7
#    16  16  16   8  16  16  16
#     4  12  27  43  66 101 147 196 243 317 385 452
#     4  11  23  45  77 107 133 181 249 316 394 457
#     4  12  25  41  66 101 143 202 255 301 369 436
#     4  10  24  41  62  94 140 206 250 300 358 446
#     4  11  24  44  65  97 152 198 258 307 369 450
#     4  10  21  39  64  97 138 191 234 298 362 431
#     4  10  20  41  67 101 135 181 239 310 361 445
#
# _framework density 21.973655000000001
#
# number of rings (size 3 to 8) (size 9 to 14) (size 15 to 20)
#    0.000    1.077    4.615    0.923    2.154    5.231 
#    0.000    0.000    0.000    1.846    8.000    0.000 
#    0.000    0.000    0.000    0.000    0.000    0.000 
#
# Total GULP energy -144837.816208 kJ/mol
# GULP energy per Si atom -5570.685239 kJ/mol
# Density = 2.192364 g / cm^3
# Si number density = 21.973655 Si / 1000 Ang^3
#
#
#
# Elastic Constant Matrix: (Units=GPa)
#
#
# Indices 1 2 3 4 5 6 
#
# 1 97.4371 59.4660 31.7375 0.0000 0.0000 0.0000
# 2 59.4660 131.0729 42.8549 -0.0001 0.0000 0.0001
# 3 31.7375 42.8549 150.5261 -0.0004 -0.0002 0.0003
# 4 0.0000 -0.0001 -0.0004 46.8267 -0.0001 0.0001
# 5 0.0000 0.0000 -0.0002 -0.0001 -9.7824 0.0000
# 6 0.0000 0.0001 0.0003 0.0001 0.0000 29.7609
#
#
#
# Elastic Compliance Matrix: (Units=1/GPa)
#
#
# Indices 1 2 3 4 5 6 
#
# 1 0.014419 -0.006117 -0.001299 0.000000 0.000000 0.000000
# 2 -0.006117 0.011008 -0.001844 0.000000 0.000000 0.000000
# 3 -0.001299 -0.001844 0.007442 0.000000 0.000000 0.000000
# 4 0.000000 0.000000 0.000000 0.021355 0.000000 0.000000
# 5 0.000000 0.000000 0.000000 0.000000 -0.102224 0.000000
# 6 0.000000 0.000000 0.000000 0.000000 0.000000 0.033601
#
#
# Mechanical properties :
#
#
# Convention : Reuss Voigt Hill
#
# Bulk Modulus (GPa) = 69.69043 71.90588 70.79815
# Shear Modulus (GPa) = 561.49345 29.69288 295.59316
#
# Velocity S-wave (km/s) = 16.00266 3.67998 11.61093
# Velocity P-wave (km/s) = 19.31919 7.13100 14.56163
#
# Compressibility (1/GPa) = 0.01434917
#
# Stress axis : x y z
#
# Youngs Moduli (GPa) = 69.35084 90.84624 134.36906
#
# Poissons Ratio (x) = 0.55573 0.17450
# Poissons Ratio (y) = 0.42424 0.24779
# Poissons Ratio (z) = 0.09006 0.16753
#
# Static dielectric constant tensor:
#      x y z
#    x 1.833580 0.000000 0.000000 
#    y 0.000000 1.912950 0.000000 
#    z 0.000000 0.000000 1.854680 
# 
# From -- ./inp_files/14820.got.cif
#   From: 2010.05.17/outbox.cif.g08.bks.cpg/sg22_8_cif.got.tgz:14820.got - 2010.06.03 23:40:54.
