data_PCOD9327879
_publ_section_title
;
Structure prediction by ZEFSAII (Michael W. Deem and Ramdas Pophale) SiO2 
 PCOD9327879
Probable space group: F 2 2 2
;
_chemical_formula_sum "Si O2"
_cell_formula_units_Z 68
_cell_length_a 19.276712
_cell_length_b 31.335159
_cell_length_c 5.594988
_cell_angle_alpha 90.000000
_cell_angle_beta 90.000000
_cell_angle_gamma 90.000000
_cell_volume 3379.590036
_symmetry_space_group_name_H-M "F 2 2 2"
_symmetry_group_IT_number 22
_symmetry_cell_setting 'orthorhombic'
loop_
_space_group_symop_operation_xyz
x,y,z
-x,-y,z
x,-y,-z
-x,y,-z
x,1/2+y,1/2+z
-x,1/2-y,1/2+z
x,1/2-y,1/2-z
-x,1/2+y,1/2-z
1/2+x,y,1/2+z
1/2-x,-y,1/2+z
1/2+x,-y,1/2-z
1/2-x,y,1/2-z
1/2+x,1/2+y,z
1/2-x,1/2-y,z
1/2+x,1/2-y,-z
1/2-x,1/2+y,-z
loop_
_atom_site_type_symbol
_atom_site_label
_atom_site_fract_x
_atom_site_fract_y
_atom_site_fract_z
Si Si1 0.750000 0.915786 0.250000
Si Si2 0.250000 0.862040 0.250000
Si Si3 0.099296 0.156793 0.616839
Si Si4 0.000000 0.775400 0.500000
Si Si5 0.000000 0.124078 0.000000
Si Si6 0.500000 0.500000 0.500000
Si Si7 0.598963 0.070943 0.797258
O O1 0.744179 0.888526 0.498330
O O2 0.678536 0.941435 0.235615
O O3 0.176640 0.837692 0.280807
O O4 0.070390 0.196000 0.464163
O O5 0.037540 0.152742 0.806873
O O6 0.098088 0.110460 0.485867
O O7 0.009579 0.750000 0.250000
O O8 0.937167 0.093373 0.925342
O O9 0.550803 0.531579 0.360430
#
# Coordination Sequence:
#
# PCOD9327879 Si02
#       7
#     8   8  16   8   8   4  16
#     4  10  22  40  61  96 127 169 222 265 327 374
#     4  10  22  38  72  94 122 169 222 263 314 392
#     4  11  22  42  65  95 130 168 219 263 324 383
#     4  12  26  40  68 104 134 167 211 268 323 387
#     4  12  17  39  66  92 120 174 212 274 302 392
#     4  12  22  42  56  98 130 174 222 270 330 374
#     4  11  23  39  63  92 129 171 218 273 317 392
#
# _framework density 20.120785000000001
#
# number of rings (size 3 to 8) (size 9 to 14) (size 15 to 20)
#    0.000    0.941    7.059    0.706    0.000    0.471 
#    0.000    7.647    0.000    4.235    0.000    0.000 
#    0.000    0.000    0.000    0.000    0.000    0.000 
#
# Total GULP energy -94670.559596 kJ/mol
# GULP energy per Si atom -5568.856447 kJ/mol
# Density = 2.007499 g / cm^3
# Si number density = 20.120785 Si / 1000 Ang^3
#
#
#
# Elastic Constant Matrix: (Units=GPa)
#
#
# Indices 1 2 3 4 5 6 
#
# 1 190.7248 43.9661 19.6993 -0.0002 0.0080 -0.0790
# 2 43.9661 74.6152 18.6521 -0.0018 -0.0040 -0.0276
# 3 19.6993 18.6521 72.2512 -0.0066 0.0194 -0.0754
# 4 -0.0002 -0.0018 -0.0066 -15.9005 0.0103 0.0118
# 5 0.0080 -0.0040 0.0194 0.0103 36.7681 -0.0040
# 6 -0.0790 -0.0276 -0.0754 0.0118 -0.0040 -134.7530
#
#
#
# Elastic Compliance Matrix: (Units=1/GPa)
#
#
# Indices 1 2 3 4 5 6 
#
# 1 0.006109 -0.003403 -0.000787 0.000001 -0.000001 -0.000002
# 2 -0.003403 0.016222 -0.003260 0.000000 0.000004 0.000001
# 3 -0.000787 -0.003260 0.014897 -0.000006 -0.000008 -0.000007
# 4 0.000001 0.000000 -0.000006 -0.062891 0.000018 -0.000006
# 5 -0.000001 0.000004 -0.000008 0.000018 0.027197 -0.000001
# 6 -0.000002 0.000001 -0.000007 -0.000006 -0.000001 -0.007421
#
#
# Mechanical properties :
#
#
# Convention : Reuss Voigt Hill
#
# Bulk Modulus (GPa) = 44.78726 55.80289 50.29507
# Shear Modulus (GPa) = 303.84488 -5.75883 149.04303
#
# Velocity S-wave (km/s) = 12.30196 -1.69362 8.61597
# Velocity P-wave (km/s) = 14.96970 4.89589 11.13691
#
# Compressibility (1/GPa) = 0.02232778
#
# Stress axis : x y z
#
# Youngs Moduli (GPa) = 163.69620 61.64427 67.12852
#
# Poissons Ratio (x) = 0.20976 0.05284
# Poissons Ratio (y) = 0.55703 0.21884
# Poissons Ratio (z) = 0.12885 0.20096
#
# Static dielectric constant tensor:
#      x y z
#    x 1.706260 0.000010 0.000010 
#    y 0.000010 1.851870 0.000020 
#    z 0.000010 0.000020 1.920480 
# 
# From -- ./inp_files/3849.got.cif
#   From: 2010.05.17/outbox.cif.g08.bks.cpg/sg22_2_cif.got.tgz:3849.got - 2010.06.03 23:40:54.
