data_PCOD9327008
_publ_section_title
;
Structure prediction by ZEFSAII (Michael W. Deem and Ramdas Pophale) SiO2 
 PCOD9327008
Probable space group: F 2 2 2
;
_chemical_formula_sum "Si O2"
_cell_formula_units_Z 52
_cell_length_a 14.007498
_cell_length_b 17.850772
_cell_length_c 8.501839
_cell_angle_alpha 90.000000
_cell_angle_beta 90.000000
_cell_angle_gamma 90.000000
_cell_volume 2125.839383
_symmetry_space_group_name_H-M "F 2 2 2"
_symmetry_group_IT_number 22
_symmetry_cell_setting 'orthorhombic'
loop_
_space_group_symop_operation_xyz
x,y,z
-x,-y,z
x,-y,-z
-x,y,-z
x,1/2+y,1/2+z
-x,1/2-y,1/2+z
x,1/2-y,1/2-z
-x,1/2+y,1/2-z
1/2+x,y,1/2+z
1/2-x,-y,1/2+z
1/2+x,-y,1/2-z
1/2-x,y,1/2-z
1/2+x,1/2+y,z
1/2-x,1/2-y,z
1/2+x,1/2-y,-z
1/2-x,1/2+y,-z
loop_
_atom_site_type_symbol
_atom_site_label
_atom_site_fract_x
_atom_site_fract_y
_atom_site_fract_z
Si Si1 0.615994 0.859503 0.177678
Si Si2 0.388259 0.169686 0.822244
Si Si3 0.250000 0.250000 0.250000
Si Si4 0.384405 0.987566 0.324543
O O1 0.503901 0.840867 0.185069
O O2 0.644970 0.834635 0.002730
O O3 0.671967 0.810940 0.307796
O O4 0.640647 0.945777 0.205550
O O5 0.363702 0.250000 0.750000
O O6 0.357230 0.094663 0.732558
O O7 0.500000 0.000000 0.331949
O O8 0.347676 0.000000 0.500000
#
# Coordination Sequence:
#
# PCOD9327008 Si02
#       4
#    16  16   4  16
#     4  10  22  38  61  92 133 168 204 260 320 374
#     4  10  20  37  67  96 120 163 222 260 302 372
#     4  12  24  40  62  96 134 166 206 260 324 376
#     4   9  19  35  62  94 125 158 209 265 312 363
#
# _framework density 24.460927000000002
#
# number of rings (size 3 to 8) (size 9 to 14) (size 15 to 20)
#    0.000    2.154    1.538    0.923    4.308    6.154 
#    0.000    3.846    0.000    0.000    0.000    0.000 
#    0.000    0.000    0.000    0.000    0.000    0.000 
#
# Total GULP energy -72525.677439 kJ/mol
# GULP energy per Si atom -5578.898265 kJ/mol
# Density = 2.440525 g / cm^3
# Si number density = 24.460927 Si / 1000 Ang^3
#
#
#
# Elastic Constant Matrix: (Units=GPa)
#
#
# Indices 1 2 3 4 5 6 
#
# 1 102.9414 9.0219 26.8867 0.0000 0.0000 0.0000
# 2 9.0219 287.1333 123.3084 0.0000 0.0000 0.0000
# 3 26.8867 123.3084 151.1116 0.0000 0.0000 0.0000
# 4 0.0000 0.0000 0.0000 45.3963 0.0000 0.0000
# 5 0.0000 0.0000 0.0000 0.0000 9.9784 0.0000
# 6 0.0000 0.0000 0.0000 0.0000 0.0000 -10.6038
#
#
#
# Elastic Compliance Matrix: (Units=1/GPa)
#
#
# Indices 1 2 3 4 5 6 
#
# 1 0.010281 0.000712 -0.002410 0.000000 0.000000 0.000000
# 2 0.000712 0.005411 -0.004542 0.000000 0.000000 0.000000
# 3 -0.002410 -0.004542 0.010753 0.000000 0.000000 0.000000
# 4 0.000000 0.000000 0.000000 0.022028 0.000000 0.000000
# 5 0.000000 0.000000 0.000000 0.000000 0.100217 0.000000
# 6 0.000000 0.000000 0.000000 0.000000 0.000000 -0.094306
#
#
# Mechanical properties :
#
#
# Convention : Reuss Voigt Hill
#
# Bulk Modulus (GPa) = 71.61041 95.51338 83.56189
# Shear Modulus (GPa) = 69.91060 34.41879 52.16469
#
# Velocity S-wave (km/s) = 5.35187 3.75519 4.62299
# Velocity P-wave (km/s) = 8.21761 7.61144 7.92033
#
# Compressibility (1/GPa) = 0.01396445
#
# Stress axis : x y z
#
# Youngs Moduli (GPa) = 97.26279 184.81248 92.99866
#
# Poissons Ratio (x) = -0.13160 0.22417
# Poissons Ratio (y) = -0.06926 0.42240
# Poissons Ratio (z) = 0.23444 0.83942
#
# Static dielectric constant tensor:
#      x y z
#    x 1.973090 0.000000 0.000000 
#    y 0.000000 1.906230 0.000000 
#    z 0.000000 0.000000 2.038280 
# 
# From -- ./inp_files/27882.got.cif
#   From: 2010.05.17/outbox.cif.g08.bks.cpg/sg22_14_cif.got.tgz:27882.got - 2010.06.03 23:40:54.
