data_PCOD9327612
_publ_section_title
;
Structure prediction by ZEFSAII (Michael W. Deem and Ramdas Pophale) SiO2 
 PCOD9327612
Probable space group: F 2 2 2
;
_chemical_formula_sum "Si O2"
_cell_formula_units_Z 60
_cell_length_a 23.493515
_cell_length_b 7.377472
_cell_length_c 14.580674
_cell_angle_alpha 90.000000
_cell_angle_beta 90.000000
_cell_angle_gamma 90.000000
_cell_volume 2527.162501
_symmetry_space_group_name_H-M "F 2 2 2"
_symmetry_group_IT_number 22
_symmetry_cell_setting 'orthorhombic'
loop_
_space_group_symop_operation_xyz
x,y,z
-x,-y,z
x,-y,-z
-x,y,-z
x,1/2+y,1/2+z
-x,1/2-y,1/2+z
x,1/2-y,1/2-z
-x,1/2+y,1/2-z
1/2+x,y,1/2+z
1/2-x,-y,1/2+z
1/2+x,-y,1/2-z
1/2-x,y,1/2-z
1/2+x,1/2+y,z
1/2-x,1/2-y,z
1/2+x,1/2-y,-z
1/2-x,1/2+y,-z
loop_
_atom_site_type_symbol
_atom_site_label
_atom_site_fract_x
_atom_site_fract_y
_atom_site_fract_z
Si Si1 0.686384 0.793364 0.893594
Si Si2 0.599813 0.250000 0.750000
Si Si3 0.000000 0.500000 0.000000
Si Si4 0.066977 0.137562 0.670157
Si Si5 0.813052 0.726341 0.101168
O O1 0.750000 0.750000 0.856473
O O2 0.626915 0.755189 0.844188
O O3 0.680104 0.010258 0.900443
O O4 0.685247 0.711605 0.995954
O O5 0.572175 0.431242 0.707682
O O6 0.640979 0.185992 0.666866
O O7 0.961944 0.381159 0.070096
O O8 0.035984 0.250000 0.750000
O O9 0.750000 0.750000 0.138517
#
# Coordination Sequence:
#
# PCOD9327612 Si02
#       5
#    16   8   4  16  16
#     4   9  19  37  61  97 144 186 235 295 373 442
#     4  10  21  40  66 102 142 180 263 302 366 450
#     4  12  28  56  78 106 164 190 260 346 366 442
#     4  11  26  47  76 105 144 202 251 320 382 447
#     4   9  17  31  56  92 140 192 226 290 360 435
#
# _framework density 23.742042999999999
#
# number of rings (size 3 to 8) (size 9 to 14) (size 15 to 20)
#    0.000    2.133    0.000    3.600    5.600    0.533 
#    0.000    5.333    0.000    0.000    0.000    0.000 
#    0.000    0.000    0.000    0.000    0.000    0.000 
#
# Total GULP energy -83677.475104 kJ/mol
# GULP energy per Si atom -5578.498340 kJ/mol
# Density = 2.368800 g / cm^3
# Si number density = 23.742043 Si / 1000 Ang^3
#
#
#
# Elastic Constant Matrix: (Units=GPa)
#
#
# Indices 1 2 3 4 5 6 
#
# 1 112.2802 30.4458 65.8004 0.0000 0.0000 0.0000
# 2 30.4458 95.9529 35.9871 0.0000 0.0000 0.0000
# 3 65.8004 35.9871 183.1708 0.0000 0.0000 0.0000
# 4 0.0000 0.0000 0.0000 35.6831 0.0000 0.0000
# 5 0.0000 0.0000 0.0000 0.0000 46.1830 0.0000
# 6 0.0000 0.0000 0.0000 0.0000 0.0000 34.6401
#
#
#
# Elastic Compliance Matrix: (Units=1/GPa)
#
#
# Indices 1 2 3 4 5 6 
#
# 1 0.011738 -0.002314 -0.003762 0.000000 0.000000 0.000000
# 2 -0.002314 0.011707 -0.001469 0.000000 0.000000 0.000000
# 3 -0.003762 -0.001469 0.007099 0.000000 0.000000 0.000000
# 4 0.000000 0.000000 0.000000 0.028024 0.000000 0.000000
# 5 0.000000 0.000000 0.000000 0.000000 0.021653 0.000000
# 6 0.000000 0.000000 0.000000 0.000000 0.000000 0.028868
#
#
# Mechanical properties :
#
#
# Convention : Reuss Voigt Hill
#
# Bulk Modulus (GPa) = 64.70284 72.87450 68.78867
# Shear Modulus (GPa) = 38.66030 40.57930 39.61980
#
# Velocity S-wave (km/s) = 4.03966 4.13870 4.08948
# Velocity P-wave (km/s) = 7.00500 7.32116 7.16482
#
# Compressibility (1/GPa) = 0.01545527
#
# Stress axis : x y z
#
# Youngs Moduli (GPa) = 85.19004 85.42060 140.85517
#
# Poissons Ratio (x) = 0.19763 0.52993
# Poissons Ratio (y) = 0.19709 0.20690
# Poissons Ratio (z) = 0.32051 0.12547
#
# Static dielectric constant tensor:
#      x y z
#    x 2.105400 0.000000 0.000000 
#    y 0.000000 1.749390 0.000000 
#    z 0.000000 0.000000 1.905690 
# 
# From -- ./inp_files/13372.got.cif
#   From: 2010.05.17/outbox.cif.g08.bks.cpg/sg22_7_cif.got.tgz:13372.got - 2010.06.03 23:40:54.
