data_PCOD9327543
_publ_section_title
;
Structure prediction by ZEFSAII (Michael W. Deem and Ramdas Pophale) SiO2 
 PCOD9327543
Probable space group: F 2 2 2
;
_chemical_formula_sum "Si O2"
_cell_formula_units_Z 80
_cell_length_a 5.182567
_cell_length_b 22.873932
_cell_length_c 32.892366
_cell_angle_alpha 90.000000
_cell_angle_beta 90.000000
_cell_angle_gamma 90.000000
_cell_volume 3899.248063
_symmetry_space_group_name_H-M "F 2 2 2"
_symmetry_group_IT_number 22
_symmetry_cell_setting 'orthorhombic'
loop_
_space_group_symop_operation_xyz
x,y,z
-x,-y,z
x,-y,-z
-x,y,-z
x,1/2+y,1/2+z
-x,1/2-y,1/2+z
x,1/2-y,1/2-z
-x,1/2+y,1/2-z
1/2+x,y,1/2+z
1/2-x,-y,1/2+z
1/2+x,-y,1/2-z
1/2-x,y,1/2-z
1/2+x,1/2+y,z
1/2-x,1/2-y,z
1/2+x,1/2-y,-z
1/2-x,1/2+y,-z
loop_
_atom_site_type_symbol
_atom_site_label
_atom_site_fract_x
_atom_site_fract_y
_atom_site_fract_z
Si Si1 0.750000 0.750000 0.153380
Si Si2 0.500361 0.181846 0.222616
Si Si3 0.089845 0.939178 0.129195
Si Si4 0.000000 0.710000 0.500000
Si Si5 0.417263 0.187258 0.590966
Si Si6 0.081042 0.557180 0.815381
O O1 0.534368 0.777710 0.182835
O O2 0.643380 0.701762 0.122790
O O3 0.250000 0.190922 0.250000
O O4 0.486196 0.115551 0.208250
O O5 0.750000 0.190506 0.250000
O O6 0.864515 0.934640 0.164236
O O7 0.145849 0.878643 0.105521
O O8 0.363664 0.949148 0.150042
O O9 0.000000 0.000000 0.107158
O O10 0.750000 0.750000 0.496686
O O11 0.982692 0.679136 0.543524
O O12 0.250000 0.250000 0.592803
O O13 0.000000 0.500000 0.789233
#
# Coordination Sequence:
#
# PCOD9327543 Si02
#       6
#     8  16  16   8  16  16
#     4  12  25  42  66  88 124 182 210 256 341 392
#     4  12  27  42  59  90 127 161 217 273 325 382
#     4  10  21  39  65  95 126 169 218 263 319 401
#     4  10  22  40  61 106 133 166 212 284 318 382
#     4  11  23  40  71  97 135 170 225 267 334 405
#     4  10  21  41  65  88 119 165 219 266 321 388
#
# _framework density 20.516774999999999
#
# number of rings (size 3 to 8) (size 9 to 14) (size 15 to 20)
#    0.000    1.200    3.000    2.700    2.800    1.600 
#    0.000    0.500    0.000    0.000    0.000    5.600 
#    0.000    0.000    0.000    0.000    0.000    0.000 
#
# Total GULP energy -111337.201482 kJ/mol
# GULP energy per Si atom -5566.860074 kJ/mol
# Density = 2.047008 g / cm^3
# Si number density = 20.516775 Si / 1000 Ang^3
#
#
#
# Elastic Constant Matrix: (Units=GPa)
#
#
# Indices 1 2 3 4 5 6 
#
# 1 131.5040 28.1744 43.1191 0.0000 0.0000 0.0000
# 2 28.1744 161.3706 43.3679 0.0000 0.0000 0.0000
# 3 43.1191 43.3679 91.5957 0.0000 0.0000 0.0000
# 4 0.0000 0.0000 0.0000 25.9607 0.0000 0.0000
# 5 0.0000 0.0000 0.0000 0.0000 -22.5382 0.0000
# 6 0.0000 0.0000 0.0000 0.0000 0.0000 27.0366
#
#
#
# Elastic Compliance Matrix: (Units=1/GPa)
#
#
# Indices 1 2 3 4 5 6 
#
# 1 0.009027 -0.000497 -0.004014 0.000000 0.000000 0.000000
# 2 -0.000497 0.007128 -0.003141 0.000000 0.000000 0.000000
# 3 -0.004014 -0.003141 0.014294 0.000000 0.000000 0.000000
# 4 0.000000 0.000000 0.000000 0.038520 0.000000 0.000000
# 5 0.000000 0.000000 0.000000 0.000000 -0.044369 0.000000
# 6 0.000000 0.000000 0.000000 0.000000 0.000000 0.036987
#
#
# Mechanical properties :
#
#
# Convention : Reuss Voigt Hill
#
# Bulk Modulus (GPa) = 66.02869 68.19921 67.11395
# Shear Modulus (GPa) = 61.02088 24.07907 42.54998
#
# Velocity S-wave (km/s) = 5.45953 3.42954 4.55896
# Velocity P-wave (km/s) = 8.48497 6.99966 7.77785
#
# Compressibility (1/GPa) = 0.01514493
#
# Stress axis : x y z
#
# Youngs Moduli (GPa) = 110.77799 140.29585 69.95835
#
# Poissons Ratio (x) = 0.06977 0.28082
# Poissons Ratio (y) = 0.05509 0.21972
# Poissons Ratio (z) = 0.44467 0.44063
#
# Static dielectric constant tensor:
#      x y z
#    x 1.766880 0.000000 0.000000 
#    y 0.000000 1.822930 0.000000 
#    z 0.000000 0.000000 1.746100 
# 
# From -- ./inp_files/54956.got.cif
#   From: 2010.05.17/outbox.cif.g08.bks.cpg/sg22_28_cif.got.tgz:54956.got - 2010.06.03 23:40:54.
