data_PCOD9327494
_publ_section_title
;
Structure prediction by ZEFSAII (Michael W. Deem and Ramdas Pophale) SiO2 
 PCOD9327494
Probable space group: F 2 2 2
;
_chemical_formula_sum "Si O2"
_cell_formula_units_Z 112
_cell_length_a 22.498829
_cell_length_b 15.067226
_cell_length_c 17.196264
_cell_angle_alpha 90.000000
_cell_angle_beta 90.000000
_cell_angle_gamma 90.000000
_cell_volume 5829.446505
_symmetry_space_group_name_H-M "F 2 2 2"
_symmetry_group_IT_number 22
_symmetry_cell_setting 'orthorhombic'
loop_
_space_group_symop_operation_xyz
x,y,z
-x,-y,z
x,-y,-z
-x,y,-z
x,1/2+y,1/2+z
-x,1/2-y,1/2+z
x,1/2-y,1/2-z
-x,1/2+y,1/2-z
1/2+x,y,1/2+z
1/2-x,-y,1/2+z
1/2+x,-y,1/2-z
1/2-x,y,1/2-z
1/2+x,1/2+y,z
1/2-x,1/2-y,z
1/2+x,1/2-y,-z
1/2-x,1/2+y,-z
loop_
_atom_site_type_symbol
_atom_site_label
_atom_site_fract_x
_atom_site_fract_y
_atom_site_fract_z
Si Si1 0.085923 0.985843 0.849756
Si Si2 0.068035 0.018080 0.668073
Si Si3 0.320158 0.257631 0.979960
Si Si4 0.009440 0.644474 0.410113
Si Si5 0.835652 0.924635 0.433376
Si Si6 0.200990 0.566455 0.572776
Si Si7 0.094956 0.775414 0.338764
O O1 0.154941 0.971657 0.865526
O O2 0.049665 0.898787 0.875151
O O3 0.072194 0.006618 0.760794
O O4 0.058689 0.066060 0.901023
O O5 0.087658 0.119211 0.651440
O O6 0.113305 0.950807 0.626667
O O7 0.000000 0.000000 0.643676
O O8 0.250000 0.250000 0.961108
O O9 0.357414 0.261632 0.900724
O O10 0.341997 0.170551 0.025828
O O11 0.323398 0.341863 0.036751
O O12 0.033614 0.726859 0.361471
O O13 0.000000 0.666757 0.500000
O O14 0.768730 0.924650 0.398600
O O15 0.837526 0.000000 0.500000
O O16 0.202512 0.500000 0.500000
O O17 0.110060 0.750000 0.250000
#
# Coordination Sequence:
#
# PCOD9327494 Si02
#       7
#    16  16  16  16  16  16  16
#     4  11  20  40  61  93 124 161 207 269 332 378
#     4  12  25  42  62  87 136 179 210 267 328 391
#     4  10  22  42  65  93 127 165 219 275 322 390
#     4  11  22  38  63  91 123 163 216 268 320 385
#     4  10  22  44  61  89 126 169 218 256 314 398
#     4  10  21  38  68  93 122 161 211 274 323 379
#     4  12  23  40  61  93 130 166 216 272 330 398
#
# _framework density 19.212802
#
# number of rings (size 3 to 8) (size 9 to 14) (size 15 to 20)
#    0.000    1.143    4.286    3.429    0.000    3.429 
#    0.000    3.571    0.000    2.571    0.000    0.000 
#    0.000    0.000    0.000    0.000    0.000    0.000 
#
# Total GULP energy -156445.365912 kJ/mol
# GULP energy per Si atom -5587.334497 kJ/mol
# Density = 1.916907 g / cm^3
# Si number density = 19.212802 Si / 1000 Ang^3
#
#
#
# Elastic Constant Matrix: (Units=GPa)
#
#
# Indices 1 2 3 4 5 6 
#
# 1 110.5689 23.5787 45.4452 0.0000 0.0000 0.0000
# 2 23.5787 88.8179 15.6490 0.0000 0.0000 0.0000
# 3 45.4452 15.6490 53.0204 0.0000 0.0000 0.0000
# 4 0.0000 0.0000 0.0000 5.6061 0.0000 0.0000
# 5 0.0000 0.0000 0.0000 0.0000 13.8119 0.0000
# 6 0.0000 0.0000 0.0000 0.0000 0.0000 125.2436
#
#
#
# Elastic Compliance Matrix: (Units=1/GPa)
#
#
# Indices 1 2 3 4 5 6 
#
# 1 0.014207 -0.001715 -0.011671 0.000000 0.000000 0.000000
# 2 -0.001715 0.012084 -0.002096 0.000000 0.000000 0.000000
# 3 -0.011671 -0.002096 0.029483 0.000000 0.000000 0.000000
# 4 0.000000 0.000000 0.000000 0.178379 0.000000 0.000000
# 5 0.000000 0.000000 0.000000 0.000000 0.072401 0.000000
# 6 0.000000 0.000000 0.000000 0.000000 0.000000 0.007984
#
#
# Mechanical properties :
#
#
# Convention : Reuss Voigt Hill
#
# Bulk Modulus (GPa) = 40.30870 46.86146 43.58508
# Shear Modulus (GPa) = 14.13342 40.11461 27.12402
#
# Velocity S-wave (km/s) = 2.71518 4.57432 3.76143
# Velocity P-wave (km/s) = 5.55475 7.23484 6.44974
#
# Compressibility (1/GPa) = 0.02480854
#
# Stress axis : x y z
#
# Youngs Moduli (GPa) = 70.38928 82.75618 33.91817
#
# Poissons Ratio (x) = 0.14194 0.39585
# Poissons Ratio (y) = 0.12073 0.07111
# Poissons Ratio (z) = 0.82149 0.17349
#
# Static dielectric constant tensor:
#      x y z
#    x 1.687240 0.000000 0.000000 
#    y 0.000000 1.684990 0.000000 
#    z 0.000000 0.000000 1.623790 
# 
# From -- ./inp_files/32503.got.cif
#   From: 2010.05.17/outbox.cif.g08.bks.cpg/sg22_17_cif.got.tgz:32503.got - 2010.06.03 23:40:54.
