data_PCOD9327628
_publ_section_title
;
Structure prediction by ZEFSAII (Michael W. Deem and Ramdas Pophale) SiO2 
 PCOD9327628
Probable space group: F 2 2 2
;
_chemical_formula_sum "Si O2"
_cell_formula_units_Z 60
_cell_length_a 5.057033
_cell_length_b 22.982985
_cell_length_c 20.242725
_cell_angle_alpha 90.000000
_cell_angle_beta 90.000000
_cell_angle_gamma 90.000000
_cell_volume 2352.725158
_symmetry_space_group_name_H-M "F 2 2 2"
_symmetry_group_IT_number 22
_symmetry_cell_setting 'orthorhombic'
loop_
_space_group_symop_operation_xyz
x,y,z
-x,-y,z
x,-y,-z
-x,y,-z
x,1/2+y,1/2+z
-x,1/2-y,1/2+z
x,1/2-y,1/2-z
-x,1/2+y,1/2-z
1/2+x,y,1/2+z
1/2-x,-y,1/2+z
1/2+x,-y,1/2-z
1/2-x,y,1/2-z
1/2+x,1/2+y,z
1/2-x,1/2-y,z
1/2+x,1/2-y,-z
1/2-x,1/2+y,-z
loop_
_atom_site_type_symbol
_atom_site_label
_atom_site_fract_x
_atom_site_fract_y
_atom_site_fract_z
Si Si1 0.250000 0.854452 0.750000
Si Si2 0.000000 0.915219 0.500000
Si Si3 0.500000 0.500000 0.000000
Si Si4 0.750000 0.750000 0.952318
Si Si5 0.525802 0.149454 0.124199
Si Si6 0.135356 0.947599 0.183829
O O1 0.393417 0.822509 0.810676
O O2 0.443144 0.897035 0.709004
O O3 0.738543 0.952668 0.520408
O O4 0.115320 0.873261 0.558010
O O5 0.737060 0.805805 0.904609
O O6 0.500000 0.747921 0.000000
O O7 0.634189 0.087998 0.150581
O O8 0.250000 0.976930 0.250000
O O9 0.000000 0.000000 0.144092
#
# Coordination Sequence:
#
# PCOD9327628 Si02
#       6
#     8   8   4   8  16  16
#     4  10  24  46  73 116 156 201 260 326 394 492
#     4  11  26  48  73 116 161 212 263 326 414 484
#     4  10  28  46  70 122 166 202 252 344 398 490
#     4  12  30  56  87 111 152 226 286 350 412 482
#     4  11  27  47  80 112 155 213 275 337 402 491
#     4  10  21  40  69 112 158 204 249 310 401 495
#
# _framework density 25.502341000000001
#
# number of rings (size 3 to 8) (size 9 to 14) (size 15 to 20)
#    0.000    1.333    2.667    0.000   11.200    2.133 
#    0.000    7.333    0.000    0.000    0.000    0.000 
#    0.000    0.000    0.000    0.000    0.000    0.000 
#
# Total GULP energy -83532.604475 kJ/mol
# GULP energy per Si atom -5568.840298 kJ/mol
# Density = 2.544430 g / cm^3
# Si number density = 25.502341 Si / 1000 Ang^3
#
#
#
# Elastic Constant Matrix: (Units=GPa)
#
#
# Indices 1 2 3 4 5 6 
#
# 1 116.3610 6.1201 44.5191 0.0000 0.0000 0.0000
# 2 6.1201 76.6995 41.7673 0.0000 0.0000 0.0000
# 3 44.5191 41.7673 150.1969 0.0000 0.0000 0.0000
# 4 0.0000 0.0000 0.0000 34.2394 0.0000 0.0000
# 5 0.0000 0.0000 0.0000 0.0000 26.8460 0.0000
# 6 0.0000 0.0000 0.0000 0.0000 0.0000 21.4979
#
#
#
# Elastic Compliance Matrix: (Units=1/GPa)
#
#
# Indices 1 2 3 4 5 6 
#
# 1 0.009750 0.000938 -0.003151 0.000000 0.000000 0.000000
# 2 0.000938 0.015455 -0.004576 0.000000 0.000000 0.000000
# 3 -0.003151 -0.004576 0.008864 0.000000 0.000000 0.000000
# 4 0.000000 0.000000 0.000000 0.029206 0.000000 0.000000
# 5 0.000000 0.000000 0.000000 0.000000 0.037249 0.000000
# 6 0.000000 0.000000 0.000000 0.000000 0.000000 0.046516
#
#
# Mechanical properties :
#
#
# Convention : Reuss Voigt Hill
#
# Bulk Modulus (GPa) = 48.80002 58.67450 53.73726
# Shear Modulus (GPa) = 29.85986 33.24006 31.54996
#
# Velocity S-wave (km/s) = 3.42551 3.61420 3.52112
# Velocity P-wave (km/s) = 5.90106 6.36192 6.13582
#
# Compressibility (1/GPa) = 0.02049180
#
# Stress axis : x y z
#
# Youngs Moduli (GPa) = 102.56324 64.70486 112.81272
#
# Poissons Ratio (x) = -0.06068 0.35545
# Poissons Ratio (y) = -0.09618 0.51620
# Poissons Ratio (z) = 0.32315 0.29607
#
# Static dielectric constant tensor:
#      x y z
#    x 2.071110 0.000000 0.000000 
#    y 0.000000 2.001210 0.000000 
#    z 0.000000 0.000000 2.156110 
# 
# From -- ./inp_files/40897.got.cif
#   From: 2010.05.17/outbox.cif.g08.bks.cpg/sg22_21_cif.got.tgz:40897.got - 2010.06.03 23:40:54.
