data_PCOD9327233
_publ_section_title
;
Structure prediction by ZEFSAII (Michael W. Deem and Ramdas Pophale) SiO2 
 PCOD9327233
Probable space group: F 2 2 2
;
_chemical_formula_sum "Si O2"
_cell_formula_units_Z 112
_cell_length_a 24.979416
_cell_length_b 14.658666
_cell_length_c 13.905791
_cell_angle_alpha 90.000000
_cell_angle_beta 90.000000
_cell_angle_gamma 90.000000
_cell_volume 5091.812794
_symmetry_space_group_name_H-M "F 2 2 2"
_symmetry_group_IT_number 22
_symmetry_cell_setting 'orthorhombic'
loop_
_space_group_symop_operation_xyz
x,y,z
-x,-y,z
x,-y,-z
-x,y,-z
x,1/2+y,1/2+z
-x,1/2-y,1/2+z
x,1/2-y,1/2-z
-x,1/2+y,1/2-z
1/2+x,y,1/2+z
1/2-x,-y,1/2+z
1/2+x,-y,1/2-z
1/2-x,y,1/2-z
1/2+x,1/2+y,z
1/2-x,1/2-y,z
1/2+x,1/2-y,-z
1/2-x,1/2+y,-z
loop_
_atom_site_type_symbol
_atom_site_label
_atom_site_fract_x
_atom_site_fract_y
_atom_site_fract_z
Si Si1 0.425831 0.646146 0.418278
Si Si2 0.813312 0.398882 0.519239
Si Si3 0.043328 0.869488 0.636613
Si Si4 0.876852 0.515540 0.783919
Si Si5 0.785070 0.116276 0.658616
Si Si6 0.631482 0.758038 0.359023
Si Si7 0.640405 0.688296 0.843456
O O1 0.441875 0.614576 0.524627
O O2 0.479858 0.632394 0.355118
O O3 0.382204 0.577449 0.378566
O O4 0.402970 0.748286 0.400964
O O5 0.832172 0.500000 0.500000
O O6 0.757940 0.405902 0.576646
O O7 0.855035 0.350496 0.590547
O O8 0.814659 0.339890 0.421190
O O9 0.070051 0.769979 0.643934
O O10 0.076100 0.939129 0.704469
O O11 0.820792 0.463194 0.793333
O O12 0.880035 0.590803 0.699259
O O13 0.750000 0.151012 0.750000
O O14 0.828078 0.180544 0.602399
O O15 0.649000 0.750000 0.250000
O O16 0.655659 0.750000 0.750000
#
# Coordination Sequence:
#
# PCOD9327233 Si02
#       7
#    16  16  16  16  16  16  16
#     4  10  20  41  69 103 137 186 231 297 359 426
#     4  12  25  43  70  99 137 188 229 289 348 408
#     4  10  21  38  70 101 137 174 246 290 360 407
#     4  10  22  39  67  99 139 179 231 295 342 420
#     4  11  23  42  68  99 135 181 242 291 347 410
#     4  11  23  41  68 100 136 181 233 295 346 419
#     4  10  23  45  70  95 147 191 227 283 361 424
#
# _framework density 21.996096000000001
#
# number of rings (size 3 to 8) (size 9 to 14) (size 15 to 20)
#    0.000    1.429    2.857    2.143    2.000    5.143 
#    5.143    0.000    0.000    1.714    0.000    0.000 
#    0.000    0.000    0.000    0.000    0.000    0.000 
#
# Total GULP energy -156044.755271 kJ/mol
# GULP energy per Si atom -5573.026974 kJ/mol
# Density = 2.194603 g / cm^3
# Si number density = 21.996096 Si / 1000 Ang^3
#
#
#
# Elastic Constant Matrix: (Units=GPa)
#
#
# Indices 1 2 3 4 5 6 
#
# 1 78.3735 39.8949 18.1896 0.0000 0.0000 0.0000
# 2 39.8949 120.1283 24.9354 0.0000 0.0000 0.0000
# 3 18.1896 24.9354 78.6661 0.0000 0.0000 0.0000
# 4 0.0000 0.0000 0.0000 36.9042 0.0000 0.0000
# 5 0.0000 0.0000 0.0000 0.0000 22.5299 0.0000
# 6 0.0000 0.0000 0.0000 0.0000 0.0000 -5.7289
#
#
#
# Elastic Compliance Matrix: (Units=1/GPa)
#
#
# Indices 1 2 3 4 5 6 
#
# 1 0.015677 -0.004768 -0.002114 0.000000 0.000000 0.000000
# 2 -0.004768 0.010361 -0.002182 0.000000 0.000000 0.000000
# 3 -0.002114 -0.002182 0.013892 0.000000 0.000000 0.000000
# 4 0.000000 0.000000 0.000000 0.027097 0.000000 0.000000
# 5 0.000000 0.000000 0.000000 0.000000 0.044386 0.000000
# 6 0.000000 0.000000 0.000000 0.000000 0.000000 -0.174552
#
#
# Mechanical properties :
#
#
# Convention : Reuss Voigt Hill
#
# Bulk Modulus (GPa) = 45.86355 49.24530 47.55443
# Shear Modulus (GPa) = -132.46414 23.68421 -54.38996
#
# Velocity S-wave (km/s) = -7.76868 3.28494 -4.97803
# Velocity P-wave (km/s) = 7.71841 6.06833 3.37263
#
# Compressibility (1/GPa) = 0.02180381
#
# Stress axis : x y z
#
# Youngs Moduli (GPa) = 63.78837 96.51927 71.98266
#
# Poissons Ratio (x) = 0.46016 0.15215
# Poissons Ratio (y) = 0.30412 0.15704
# Poissons Ratio (z) = 0.13483 0.21058
#
# Static dielectric constant tensor:
#      x y z
#    x 1.778320 0.000000 0.000000 
#    y 0.000000 1.955880 0.000000 
#    z 0.000000 0.000000 2.025510 
# 
# From -- ./inp_files/32534.got.cif
#   From: 2010.05.17/outbox.cif.g08.bks.cpg/sg22_17_cif.got.tgz:32534.got - 2010.06.03 23:40:54.
