data_PCOD9327218
_publ_section_title
;
Structure prediction by ZEFSAII (Michael W. Deem and Ramdas Pophale) SiO2 
 PCOD9327218
Probable space group: F 2 2 2
;
_chemical_formula_sum "Si O2"
_cell_formula_units_Z 68
_cell_length_a 14.430016
_cell_length_b 13.962324
_cell_length_c 15.776261
_cell_angle_alpha 90.000000
_cell_angle_beta 90.000000
_cell_angle_gamma 90.000000
_cell_volume 3178.546776
_symmetry_space_group_name_H-M "F 2 2 2"
_symmetry_group_IT_number 22
_symmetry_cell_setting 'orthorhombic'
loop_
_space_group_symop_operation_xyz
x,y,z
-x,-y,z
x,-y,-z
-x,y,-z
x,1/2+y,1/2+z
-x,1/2-y,1/2+z
x,1/2-y,1/2-z
-x,1/2+y,1/2-z
1/2+x,y,1/2+z
1/2-x,-y,1/2+z
1/2+x,-y,1/2-z
1/2-x,y,1/2-z
1/2+x,1/2+y,z
1/2-x,1/2-y,z
1/2+x,1/2-y,-z
1/2-x,1/2+y,-z
loop_
_atom_site_type_symbol
_atom_site_label
_atom_site_fract_x
_atom_site_fract_y
_atom_site_fract_z
Si Si1 0.726223 0.883868 0.155742
Si Si2 0.598027 0.266913 0.114518
Si Si3 0.100693 0.461986 0.903010
Si Si4 0.390750 0.204958 0.415319
Si Si5 0.750000 0.750000 0.750000
O O1 0.750000 0.854993 0.250000
O O2 0.659358 0.804168 0.113190
O O3 0.824604 0.881244 0.110320
O O4 0.677586 0.985273 0.151302
O O5 0.603334 0.151220 0.108024
O O6 0.490903 0.296112 0.129579
O O7 0.675656 0.297808 0.183181
O O8 0.610005 0.297589 0.016975
O O9 0.000000 0.500000 0.877162
O O10 0.113789 0.500000 0.000000
#
# Coordination Sequence:
#
# PCOD9327218 Si02
#       5
#    16  16  16  16   4
#     4  11  22  34  64  94 118 159 210 263 300 374
#     4  11  23  40  62  92 123 169 201 263 316 379
#     4  11  20  39  62  88 122 161 205 258 313 377
#     4  10  20  41  63  88 123 165 217 247 311 382
#     4  12  28  36  64  94 134 154 216 264 324 374
#
# _framework density 21.393422999999999
#
# number of rings (size 3 to 8) (size 9 to 14) (size 15 to 20)
#    0.000    1.176    4.706    4.235    4.941    0.000 
#    0.000    0.000    0.000    0.000    0.000    0.000 
#    0.000    0.000    0.000    0.000    0.000    0.000 
#
# Total GULP energy -94849.808551 kJ/mol
# GULP energy per Si atom -5579.400503 kJ/mol
# Density = 2.134473 g / cm^3
# Si number density = 21.393423 Si / 1000 Ang^3
#
#
#
# Elastic Constant Matrix: (Units=GPa)
#
#
# Indices 1 2 3 4 5 6 
#
# 1 164.2418 16.7663 61.2602 0.0000 0.0000 0.0000
# 2 16.7663 38.4006 -0.8407 0.0000 0.0000 0.0000
# 3 61.2602 -0.8407 72.8652 0.0000 0.0000 0.0000
# 4 0.0000 0.0000 0.0000 -20.8578 0.0000 0.0000
# 5 0.0000 0.0000 0.0000 0.0000 38.8716 0.0000
# 6 0.0000 0.0000 0.0000 0.0000 0.0000 28.8911
#
#
#
# Elastic Compliance Matrix: (Units=1/GPa)
#
#
# Indices 1 2 3 4 5 6 
#
# 1 0.009543 -0.004344 -0.008073 0.000000 0.000000 0.000000
# 2 -0.004344 0.028025 0.003975 0.000000 0.000000 0.000000
# 3 -0.008073 0.003975 0.020557 0.000000 0.000000 0.000000
# 4 0.000000 0.000000 0.000000 -0.047944 0.000000 0.000000
# 5 0.000000 0.000000 0.000000 0.000000 0.025726 0.000000
# 6 0.000000 0.000000 0.000000 0.000000 0.000000 0.034613
#
#
# Mechanical properties :
#
#
# Convention : Reuss Voigt Hill
#
# Bulk Modulus (GPa) = 24.24731 47.76437 36.00584
# Shear Modulus (GPa) = 49.43089 22.60243 36.01666
#
# Velocity S-wave (km/s) = 4.81205 3.25393 4.10755
# Velocity P-wave (km/s) = 6.49869 6.04091 6.27398
#
# Compressibility (1/GPa) = 0.04124169
#
# Stress axis : x y z
#
# Youngs Moduli (GPa) = 104.78551 35.68273 48.64405
#
# Poissons Ratio (x) = 0.15499 0.39273
# Poissons Ratio (y) = 0.45514 -0.19336
# Poissons Ratio (z) = 0.84599 -0.14184
#
# Static dielectric constant tensor:
#      x y z
#    x 1.954060 0.000000 0.000000 
#    y 0.000000 1.813240 0.000000 
#    z 0.000000 0.000000 1.850270 
# 
# From -- ./inp_files/30453.got.cif
#   From: 2010.05.17/outbox.cif.g08.bks.cpg/sg22_16_cif.got.tgz:30453.got - 2010.06.03 23:40:54.
