data_PCOD9327556
_publ_section_title
;
Structure prediction by ZEFSAII (Michael W. Deem and Ramdas Pophale) SiO2 
 PCOD9327556
Probable space group: F 2 2 2
;
_chemical_formula_sum "Si O2"
_cell_formula_units_Z 112
_cell_length_a 16.563553
_cell_length_b 23.675287
_cell_length_c 12.768400
_cell_angle_alpha 90.000000
_cell_angle_beta 90.000000
_cell_angle_gamma 90.000000
_cell_volume 5007.088108
_symmetry_space_group_name_H-M "F 2 2 2"
_symmetry_group_IT_number 22
_symmetry_cell_setting 'orthorhombic'
loop_
_space_group_symop_operation_xyz
x,y,z
-x,-y,z
x,-y,-z
-x,y,-z
x,1/2+y,1/2+z
-x,1/2-y,1/2+z
x,1/2-y,1/2-z
-x,1/2+y,1/2-z
1/2+x,y,1/2+z
1/2-x,-y,1/2+z
1/2+x,-y,1/2-z
1/2-x,y,1/2-z
1/2+x,1/2+y,z
1/2-x,1/2-y,z
1/2+x,1/2-y,-z
1/2-x,1/2+y,-z
loop_
_atom_site_type_symbol
_atom_site_label
_atom_site_fract_x
_atom_site_fract_y
_atom_site_fract_z
Si Si1 0.907454 0.562642 0.459658
Si Si2 0.903673 0.066333 0.515829
Si Si3 0.400950 0.877044 0.764721
Si Si4 0.655460 0.264936 0.622772
Si Si5 0.328153 0.830651 0.084023
Si Si6 0.354066 0.173865 0.530725
Si Si7 0.947126 0.309642 0.265872
O O1 0.888231 0.500000 0.500000
O O2 0.892869 0.582990 0.338829
O O3 0.853013 0.607142 0.519347
O O4 0.000000 0.572366 0.500000
O O5 0.880740 0.086040 0.633190
O O6 0.850847 0.104264 0.436675
O O7 0.000000 0.077765 0.500000
O O8 0.890846 0.000000 0.500000
O O9 0.360649 0.813851 0.789084
O O10 0.494920 0.860203 0.764053
O O11 0.750000 0.250000 0.631254
O O12 0.633657 0.299548 0.516799
O O13 0.623507 0.203786 0.579250
O O14 0.234894 0.813522 0.074223
O O15 0.370264 0.810933 0.189766
O O16 0.419969 0.188400 0.615761
O O17 0.991483 0.250000 0.250000
#
# Coordination Sequence:
#
# PCOD9327556 Si02
#       7
#    16  16  16  16  16  16  16
#     4  11  26  46  67  93 132 179 230 285 337 413
#     4  10  21  39  67  99 133 171 227 292 343 393
#     4  11  24  43  70 101 133 179 230 279 350 415
#     4   9  21  41  67  98 140 175 214 279 345 413
#     4  10  21  40  62  99 139 177 220 277 337 412
#     4  11  23  41  66  96 138 180 225 274 342 406
#     4  12  23  37  66  99 136 177 224 275 337 413
#
# _framework density 22.368289999999998
#
# number of rings (size 3 to 8) (size 9 to 14) (size 15 to 20)
#    0.000    1.429    4.286    0.429    2.000    4.571 
#    0.000    8.571    0.000    0.000    0.000    0.000 
#    0.000    0.000    0.000    0.000    0.000    0.000 
#
# Total GULP energy -156015.546922 kJ/mol
# GULP energy per Si atom -5571.983819 kJ/mol
# Density = 2.231738 g / cm^3
# Si number density = 22.368290 Si / 1000 Ang^3
#
#
#
# Elastic Constant Matrix: (Units=GPa)
#
#
# Indices 1 2 3 4 5 6 
#
# 1 40.5773 37.4601 16.5178 0.0000 0.0000 0.0000
# 2 37.4601 166.9207 53.5400 0.0000 0.0000 0.0000
# 3 16.5178 53.5400 145.2723 0.0000 0.0000 0.0000
# 4 0.0000 0.0000 0.0000 26.4664 0.0000 0.0000
# 5 0.0000 0.0000 0.0000 0.0000 16.0091 0.0000
# 6 0.0000 0.0000 0.0000 0.0000 0.0000 31.3084
#
#
#
# Elastic Compliance Matrix: (Units=1/GPa)
#
#
# Indices 1 2 3 4 5 6 
#
# 1 0.031238 -0.006658 -0.001098 0.000000 0.000000 0.000000
# 2 -0.006658 0.008213 -0.002270 0.000000 0.000000 0.000000
# 3 -0.001098 -0.002270 0.007845 0.000000 0.000000 0.000000
# 4 0.000000 0.000000 0.000000 0.037784 0.000000 0.000000
# 5 0.000000 0.000000 0.000000 0.000000 0.062464 0.000000
# 6 0.000000 0.000000 0.000000 0.000000 0.000000 0.031940
#
#
# Mechanical properties :
#
#
# Convention : Reuss Voigt Hill
#
# Bulk Modulus (GPa) = 36.70523 63.08956 49.89740
# Shear Modulus (GPa) = 23.96723 31.10695 27.53709
#
# Velocity S-wave (km/s) = 3.27690 3.73322 3.51248
# Velocity P-wave (km/s) = 5.54640 6.84461 6.22942
#
# Compressibility (1/GPa) = 0.02724407
#
# Stress axis : x y z
#
# Youngs Moduli (GPa) = 32.01226 121.75558 127.46921
#
# Poissons Ratio (x) = 0.81068 0.13995
# Poissons Ratio (y) = 0.21315 0.28934
# Poissons Ratio (z) = 0.03515 0.27637
#
# Static dielectric constant tensor:
#      x y z
#    x 1.858340 0.000000 0.000000 
#    y 0.000000 1.857380 0.000000 
#    z 0.000000 0.000000 1.871380 
# 
# From -- ./inp_files/22975.got.cif
#   From: 2010.05.17/outbox.cif.g08.bks.cpg/sg22_12_cif.got.tgz:22975.got - 2010.06.03 23:40:54.
