data_PCOD9327989
_publ_section_title
;
Structure prediction by ZEFSAII (Michael W. Deem and Ramdas Pophale) SiO2 
 PCOD9327989
Probable space group: F 2 2 2
;
_chemical_formula_sum "Si O2"
_cell_formula_units_Z 84
_cell_length_a 31.124074
_cell_length_b 12.343569
_cell_length_c 11.101363
_cell_angle_alpha 90.000000
_cell_angle_beta 90.000000
_cell_angle_gamma 90.000000
_cell_volume 4264.945561
_symmetry_space_group_name_H-M "F 2 2 2"
_symmetry_group_IT_number 22
_symmetry_cell_setting 'orthorhombic'
loop_
_space_group_symop_operation_xyz
x,y,z
-x,-y,z
x,-y,-z
-x,y,-z
x,1/2+y,1/2+z
-x,1/2-y,1/2+z
x,1/2-y,1/2-z
-x,1/2+y,1/2-z
1/2+x,y,1/2+z
1/2-x,-y,1/2+z
1/2+x,-y,1/2-z
1/2-x,y,1/2-z
1/2+x,1/2+y,z
1/2-x,1/2-y,z
1/2+x,1/2-y,-z
1/2-x,1/2+y,-z
loop_
_atom_site_type_symbol
_atom_site_label
_atom_site_fract_x
_atom_site_fract_y
_atom_site_fract_z
Si Si1 0.500000 0.000000 0.500000
Si Si2 0.703878 0.536062 0.797091
Si Si3 0.939430 0.365889 0.317460
Si Si4 0.145962 0.288351 0.572852
Si Si5 0.873499 0.954386 0.634404
Si Si6 0.791600 0.698374 0.381205
O O1 0.473662 0.923813 0.404781
O O2 0.750000 0.573706 0.750000
O O3 0.680453 0.631881 0.867435
O O4 0.667872 0.493860 0.700776
O O5 0.714069 0.429863 0.874659
O O6 0.951245 0.250000 0.250000
O O7 0.900192 0.339330 0.407372
O O8 0.916704 0.444651 0.216628
O O9 0.142333 0.169968 0.627488
O O10 0.163054 0.275614 0.439580
O O11 0.880715 0.000000 0.500000
O O12 0.791797 0.750000 0.250000
O O13 0.750000 0.750000 0.446298
#
# Coordination Sequence:
#
# PCOD9327989 Si02
#       6
#     4  16  16  16  16  16
#     4  12  24  48  86  98 148 176 216 294 372 418
#     4  11  22  35  56  86 125 173 230 276 328 393
#     4   9  23  48  68 108 134 169 228 276 345 438
#     4  10  23  40  64  85 131 171 219 282 336 405
#     4  10  22  41  66  93 131 174 220 280 342 412
#     4  11  22  37  51  87 126 168 230 282 323 390
#
# _framework density 19.695444999999999
#
# number of rings (size 3 to 8) (size 9 to 14) (size 15 to 20)
#    0.000    1.714    1.905    3.429    8.000    0.762 
#    6.857    0.000    0.000    0.000    0.000    0.000 
#    0.000    0.000    0.000    0.000    0.000    0.000 
#
# Total GULP energy -116984.848880 kJ/mol
# GULP energy per Si atom -5570.707090 kJ/mol
# Density = 1.965062 g / cm^3
# Si number density = 19.695445 Si / 1000 Ang^3
#
#
#
# Elastic Constant Matrix: (Units=GPa)
#
#
# Indices 1 2 3 4 5 6 
#
# 1 118.2031 63.1141 66.1918 0.0000 0.0000 0.0000
# 2 63.1141 102.6033 32.2436 0.0000 0.0000 0.0000
# 3 66.1918 32.2436 112.8227 0.0000 0.0000 0.0000
# 4 0.0000 0.0000 0.0000 17.9258 0.0000 0.0000
# 5 0.0000 0.0000 0.0000 0.0000 27.4974 0.0000
# 6 0.0000 0.0000 0.0000 0.0000 0.0000 17.7016
#
#
#
# Elastic Compliance Matrix: (Units=1/GPa)
#
#
# Indices 1 2 3 4 5 6 
#
# 1 0.017108 -0.008097 -0.007723 0.000000 0.000000 0.000000
# 2 -0.008097 0.014540 0.000595 0.000000 0.000000 0.000000
# 3 -0.007723 0.000595 0.013225 0.000000 0.000000 0.000000
# 4 0.000000 0.000000 0.000000 0.055786 0.000000 0.000000
# 5 0.000000 0.000000 0.000000 0.000000 0.036367 0.000000
# 6 0.000000 0.000000 0.000000 0.000000 0.000000 0.056492
#
#
# Mechanical properties :
#
#
# Convention : Reuss Voigt Hill
#
# Bulk Modulus (GPa) = 69.33581 72.96979 71.15280
# Shear Modulus (GPa) = 21.85562 24.09694 22.97628
#
# Velocity S-wave (km/s) = 3.33480 3.50162 3.41923
# Velocity P-wave (km/s) = 7.07872 7.31286 7.19674
#
# Compressibility (1/GPa) = 0.01442256
#
# Stress axis : x y z
#
# Youngs Moduli (GPa) = 58.45235 68.77702 75.61701
#
# Poissons Ratio (x) = 0.55686 0.58400
# Poissons Ratio (y) = 0.47326 -0.04498
# Poissons Ratio (z) = 0.45144 -0.04091
#
# Static dielectric constant tensor:
#      x y z
#    x 1.716460 0.000000 0.000000 
#    y 0.000000 1.731540 0.000000 
#    z 0.000000 0.000000 1.844310 
# 
# From -- ./inp_files/25214.got.cif
#   From: 2010.05.17/outbox.cif.g08.bks.cpg/sg22_13_cif.got.tgz:25214.got - 2010.06.03 23:40:54.
