data_PCOD9327387
_publ_section_title
;
Structure prediction by ZEFSAII (Michael W. Deem and Ramdas Pophale) SiO2 
 PCOD9327387
Probable space group: F 2 2 2
;
_chemical_formula_sum "Si O2"
_cell_formula_units_Z 104
_cell_length_a 32.732013
_cell_length_b 19.377814
_cell_length_c 7.928954
_cell_angle_alpha 90.000000
_cell_angle_beta 90.000000
_cell_angle_gamma 90.000000
_cell_volume 5029.136186
_symmetry_space_group_name_H-M "F 2 2 2"
_symmetry_group_IT_number 22
_symmetry_cell_setting 'orthorhombic'
loop_
_space_group_symop_operation_xyz
x,y,z
-x,-y,z
x,-y,-z
-x,y,-z
x,1/2+y,1/2+z
-x,1/2-y,1/2+z
x,1/2-y,1/2-z
-x,1/2+y,1/2-z
1/2+x,y,1/2+z
1/2-x,-y,1/2+z
1/2+x,-y,1/2-z
1/2-x,y,1/2-z
1/2+x,1/2+y,z
1/2-x,1/2-y,z
1/2+x,1/2-y,-z
1/2-x,1/2+y,-z
loop_
_atom_site_type_symbol
_atom_site_label
_atom_site_fract_x
_atom_site_fract_y
_atom_site_fract_z
Si Si1 0.688250 0.675636 0.006211
Si Si2 0.500000 0.650703 0.500000
Si Si3 0.522110 0.074053 0.342007
Si Si4 0.414392 0.210798 0.999701
Si Si5 0.328901 0.674467 0.594632
Si Si6 0.897427 0.355192 0.369337
Si Si7 0.760488 0.078853 0.551374
O O1 0.684586 0.675998 0.210389
O O2 0.684933 0.758782 0.982406
O O3 0.729254 0.633641 0.966832
O O4 0.650122 0.637574 0.916139
O O5 0.513085 0.607624 0.662767
O O6 0.459961 0.692873 0.549667
O O7 0.500000 0.110851 0.500000
O O8 0.570750 0.081343 0.377013
O O9 0.500000 0.000000 0.333570
O O10 0.410787 0.292985 0.992278
O O11 0.404243 0.178181 0.815375
O O12 0.377678 0.178118 0.104923
O O13 0.306186 0.607671 0.522096
O O14 0.750000 0.080638 0.750000
O O15 0.755281 0.000000 0.500000
#
# Coordination Sequence:
#
# PCOD9327387 Si02
#       7
#    16   8  16  16  16  16  16
#     4   9  18  35  59  84 108 145 186 239 286 336
#     4  10  21  38  60  82 115 150 196 244 288 336
#     4  10  22  39  56  80 113 157 197 236 283 347
#     4   9  19  35  56  86 112 142 182 241 293 337
#     4   9  18  35  59  83 108 144 191 232 286 347
#     4   9  19  36  55  83 115 141 187 238 286 340
#     4  10  21  37  55  82 115 147 187 231 284 347
#
# _framework density 20.679496
#
# number of rings (size 3 to 8) (size 9 to 14) (size 15 to 20)
#    0.000    2.615    0.000    0.692    3.231    3.077 
#    2.769    3.077    0.000    4.615    0.000    0.000 
#    0.000    0.000    0.000    0.000    0.000    0.000 
#
# Total GULP energy -144778.800648 kJ/mol
# GULP energy per Si atom -5568.415410 kJ/mol
# Density = 2.063243 g / cm^3
# Si number density = 20.679496 Si / 1000 Ang^3
#
#
#
# Elastic Constant Matrix: (Units=GPa)
#
#
# Indices 1 2 3 4 5 6 
#
# 1 116.6915 59.9670 10.9452 0.0000 0.0000 0.0000
# 2 59.9670 65.0054 7.6258 0.0000 0.0000 0.0000
# 3 10.9452 7.6258 44.7197 -0.0001 0.0000 0.0000
# 4 0.0000 0.0000 -0.0001 24.0214 0.0000 0.0000
# 5 0.0000 0.0000 0.0000 0.0000 25.2994 0.0000
# 6 0.0000 0.0000 0.0000 0.0000 0.0000 28.0190
#
#
#
# Elastic Compliance Matrix: (Units=1/GPa)
#
#
# Indices 1 2 3 4 5 6 
#
# 1 0.016387 -0.014945 -0.001462 0.000000 0.000000 0.000000
# 2 -0.014945 0.029328 -0.001343 0.000000 0.000000 0.000000
# 3 -0.001462 -0.001343 0.022948 0.000000 0.000000 0.000000
# 4 0.000000 0.000000 0.000000 0.041630 0.000000 0.000000
# 5 0.000000 0.000000 0.000000 0.000000 0.039527 0.000000
# 6 0.000000 0.000000 0.000000 0.000000 0.000000 0.035690
#
#
# Mechanical properties :
#
#
# Convention : Reuss Voigt Hill
#
# Bulk Modulus (GPa) = 30.15524 42.61030 36.38277
# Shear Modulus (GPa) = 21.54564 25.32652 23.43608
#
# Velocity S-wave (km/s) = 3.23132 3.50339 3.37010
# Velocity P-wave (km/s) = 5.34189 6.08398 5.72497
#
# Compressibility (1/GPa) = 0.03316174
#
# Stress axis : x y z
#
# Youngs Moduli (GPa) = 61.02356 34.09715 43.57599
#
# Poissons Ratio (x) = 0.50960 0.06372
# Poissons Ratio (y) = 0.91202 0.05853
# Poissons Ratio (z) = 0.08923 0.04580
#
# Static dielectric constant tensor:
#      x y z
#    x 1.787490 0.000000 0.000000 
#    y 0.000000 1.769140 0.000000 
#    z 0.000000 0.000000 1.817050 
# 
# From -- ./inp_files/15646.got.cif
#   From: 2010.05.17/outbox.cif.g08.bks.cpg/sg22_8_cif.got.tgz:15646.got - 2010.06.03 23:40:54.
