data_PCOD9327296
_publ_section_title
;
Structure prediction by ZEFSAII (Michael W. Deem and Ramdas Pophale) SiO2 
 PCOD9327296
Probable space group: F 2 2 2
;
_chemical_formula_sum "Si O2"
_cell_formula_units_Z 68
_cell_length_a 14.869119
_cell_length_b 6.971738
_cell_length_c 25.773730
_cell_angle_alpha 90.000000
_cell_angle_beta 90.000000
_cell_angle_gamma 90.000000
_cell_volume 2671.797688
_symmetry_space_group_name_H-M "F 2 2 2"
_symmetry_group_IT_number 22
_symmetry_cell_setting 'orthorhombic'
loop_
_space_group_symop_operation_xyz
x,y,z
-x,-y,z
x,-y,-z
-x,y,-z
x,1/2+y,1/2+z
-x,1/2-y,1/2+z
x,1/2-y,1/2-z
-x,1/2+y,1/2-z
1/2+x,y,1/2+z
1/2-x,-y,1/2+z
1/2+x,-y,1/2-z
1/2-x,y,1/2-z
1/2+x,1/2+y,z
1/2-x,1/2-y,z
1/2+x,1/2-y,-z
1/2-x,1/2+y,-z
loop_
_atom_site_type_symbol
_atom_site_label
_atom_site_fract_x
_atom_site_fract_y
_atom_site_fract_z
Si Si1 0.087011 0.252572 0.400468
Si Si2 0.606339 0.022413 0.306700
Si Si3 0.649009 0.721906 0.506006
Si Si4 0.119635 0.334486 0.879377
Si Si5 0.750000 0.750000 0.250000
O O1 0.109725 0.423652 0.363087
O O2 0.090920 0.314696 0.460474
O O3 0.986662 0.192721 0.386295
O O4 0.143423 0.060161 0.385447
O O5 0.678572 0.898886 0.275768
O O6 0.500000 0.000000 0.288742
O O7 0.636174 0.238637 0.323122
O O8 0.620927 0.500000 0.500000
O O9 0.750000 0.750000 0.486291
O O10 0.652451 0.761867 0.566839
#
# Coordination Sequence:
#
# PCOD9327296 Si02
#       5
#    16  16  16  16   4
#     4   9  19  38  65  93 135 180 226 292 344 428
#     4  10  24  47  74 102 135 181 241 308 377 439
#     4  10  21  31  53  92 137 181 225 279 336 427
#     4   9  19  39  64  95 134 181 232 280 355 430
#     4  12  28  52  82 106 144 190 248 328 390 440
#
# _framework density 25.451028999999998
#
# number of rings (size 3 to 8) (size 9 to 14) (size 15 to 20)
#    0.000    2.353    0.000    0.706    4.941    4.706 
#    8.471    4.706    0.000    0.000    0.000    0.000 
#    0.000    0.000    0.000    0.000    0.000    0.000 
#
# Total GULP energy -94759.370228 kJ/mol
# GULP energy per Si atom -5574.080602 kJ/mol
# Density = 2.539310 g / cm^3
# Si number density = 25.451029 Si / 1000 Ang^3
#
#
#
# Elastic Constant Matrix: (Units=GPa)
#
#
# Indices 1 2 3 4 5 6 
#
# 1 91.2893 29.8133 57.7287 0.0000 0.0000 0.0000
# 2 29.8133 79.3883 21.0296 0.0000 0.0000 0.0000
# 3 57.7287 21.0296 45.4337 0.0000 0.0000 0.0000
# 4 0.0000 0.0000 0.0000 44.7678 0.0000 0.0000
# 5 0.0000 0.0000 0.0000 0.0000 70.0172 0.0000
# 6 0.0000 0.0000 0.0000 0.0000 0.0000 23.5908
#
#
#
# Elastic Compliance Matrix: (Units=1/GPa)
#
#
# Indices 1 2 3 4 5 6 
#
# 1 0.056177 -0.002494 -0.070225 0.000000 0.000000 0.000000
# 2 -0.002494 0.014467 -0.003527 0.000000 0.000000 0.000000
# 3 -0.070225 -0.003527 0.112872 0.000000 0.000000 0.000000
# 4 0.000000 0.000000 0.000000 0.022337 0.000000 0.000000
# 5 0.000000 0.000000 0.000000 0.000000 0.014282 0.000000
# 6 0.000000 0.000000 0.000000 0.000000 0.000000 0.042389
#
#
# Mechanical properties :
#
#
# Convention : Reuss Voigt Hill
#
# Bulk Modulus (GPa) = 32.23383 48.13940 40.18661
# Shear Modulus (GPa) = 11.75477 34.84446 23.29962
#
# Velocity S-wave (km/s) = 2.15142 3.70412 3.02895
# Velocity P-wave (km/s) = 4.34327 6.10324 5.29687
#
# Compressibility (1/GPa) = 0.03102330
#
# Stress axis : x y z
#
# Youngs Moduli (GPa) = 17.80085 69.12117 8.85961
#
# Poissons Ratio (x) = 0.17241 0.62217
# Poissons Ratio (y) = 0.04440 0.03125
# Poissons Ratio (z) = 1.25006 0.24380
#
# Static dielectric constant tensor:
#      x y z
#    x 2.057510 0.000000 0.000000 
#    y 0.000000 1.981240 0.000000 
#    z 0.000000 0.000000 1.998950 
# 
# From -- ./inp_files/53001.got.cif
#   From: 2010.05.17/outbox.cif.g08.bks.cpg/sg22_27_cif.got.tgz:53001.got - 2010.06.03 23:40:54.
