data_PCOD9327243
_publ_section_title
;
Structure prediction by ZEFSAII (Michael W. Deem and Ramdas Pophale) SiO2 
 PCOD9327243
Probable space group: F 2 2 2
;
_chemical_formula_sum "Si O2"
_cell_formula_units_Z 80
_cell_length_a 9.009720
_cell_length_b 17.848436
_cell_length_c 24.409409
_cell_angle_alpha 90.000000
_cell_angle_beta 90.000000
_cell_angle_gamma 90.000000
_cell_volume 3925.262679
_symmetry_space_group_name_H-M "F 2 2 2"
_symmetry_group_IT_number 22
_symmetry_cell_setting 'orthorhombic'
loop_
_space_group_symop_operation_xyz
x,y,z
-x,-y,z
x,-y,-z
-x,y,-z
x,1/2+y,1/2+z
-x,1/2-y,1/2+z
x,1/2-y,1/2-z
-x,1/2+y,1/2-z
1/2+x,y,1/2+z
1/2-x,-y,1/2+z
1/2+x,-y,1/2-z
1/2-x,y,1/2-z
1/2+x,1/2+y,z
1/2-x,1/2-y,z
1/2+x,1/2-y,-z
1/2-x,1/2+y,-z
loop_
_atom_site_type_symbol
_atom_site_label
_atom_site_fract_x
_atom_site_fract_y
_atom_site_fract_z
Si Si1 0.458697 0.317104 0.854166
Si Si2 0.628523 0.687475 0.039456
Si Si3 0.108206 0.854344 0.360592
Si Si4 0.568628 0.919318 0.747119
Si Si5 0.349800 0.583225 0.476590
O O1 0.554539 0.346527 0.905616
O O2 0.283013 0.334103 0.856187
O O3 0.470091 0.227157 0.862134
O O4 0.492600 0.357414 0.796160
O O5 0.750000 0.750000 0.053964
O O6 0.500000 0.718696 0.000000
O O7 0.711810 0.628415 0.000375
O O8 0.035179 0.894986 0.309014
O O9 0.117354 0.908660 0.412537
O O10 0.750000 0.922297 0.750000
O O11 0.500000 0.000000 0.733509
O O12 0.336854 0.500000 0.500000
O O13 0.500000 0.617486 0.500000
#
# Coordination Sequence:
#
# PCOD9327243 Si02
#       5
#    16  16  16  16  16
#     4  10  21  40  67  96 125 172 227 272 328 403
#     4  12  23  40  65  96 136 176 221 281 335 408
#     4  10  20  42  67  91 128 174 222 269 331 403
#     4  10  23  42  68  94 129 173 221 280 336 401
#     4  11  25  41  63  96 132 177 224 273 339 410
#
# _framework density 20.380801999999999
#
# number of rings (size 3 to 8) (size 9 to 14) (size 15 to 20)
#    0.000    1.400    2.000    3.600    2.800    6.000 
#    3.600    0.000    0.000    0.000    0.000    0.000 
#    0.000    0.000    0.000    0.000    0.000    0.000 
#
# Total GULP energy -111374.199671 kJ/mol
# GULP energy per Si atom -5568.709984 kJ/mol
# Density = 2.033441 g / cm^3
# Si number density = 20.380802 Si / 1000 Ang^3
#
#
#
# Elastic Constant Matrix: (Units=GPa)
#
#
# Indices 1 2 3 4 5 6 
#
# 1 61.7699 21.3099 26.7193 0.0000 0.0000 0.0000
# 2 21.3099 108.0846 63.0860 0.0000 0.0000 0.0000
# 3 26.7193 63.0860 184.2802 0.0000 0.0000 0.0000
# 4 0.0000 0.0000 0.0000 27.8288 0.0000 0.0000
# 5 0.0000 0.0000 0.0000 0.0000 12.0052 0.0000
# 6 0.0000 0.0000 0.0000 0.0000 0.0000 19.3879
#
#
#
# Elastic Compliance Matrix: (Units=1/GPa)
#
#
# Indices 1 2 3 4 5 6 
#
# 1 0.017798 -0.002503 -0.001724 0.000000 0.000000 0.000000
# 2 -0.002503 0.011914 -0.003716 0.000000 0.000000 0.000000
# 3 -0.001724 -0.003716 0.006949 0.000000 0.000000 0.000000
# 4 0.000000 0.000000 0.000000 0.035934 0.000000 0.000000
# 5 0.000000 0.000000 0.000000 0.000000 0.083298 0.000000
# 6 0.000000 0.000000 0.000000 0.000000 0.000000 0.051579
#
#
# Mechanical properties :
#
#
# Convention : Reuss Voigt Hill
#
# Bulk Modulus (GPa) = 48.13245 64.04055 56.08650
# Shear Modulus (GPa) = 21.71256 28.04568 24.87912
#
# Velocity S-wave (km/s) = 3.26750 3.71358 3.49766
# Velocity P-wave (km/s) = 6.15656 7.06242 6.62499
#
# Compressibility (1/GPa) = 0.02077600
#
# Stress axis : x y z
#
# Youngs Moduli (GPa) = 56.18529 83.93273 143.91586
#
# Poissons Ratio (x) = 0.21008 0.24808
# Poissons Ratio (y) = 0.14063 0.53476
# Poissons Ratio (z) = 0.09685 0.31188
#
# Static dielectric constant tensor:
#      x y z
#    x 1.739200 0.000000 0.000000 
#    y 0.000000 1.792440 0.000000 
#    z 0.000000 0.000000 2.045150 
# 
# From -- ./inp_files/51770.got.cif
#   From: 2010.05.17/outbox.cif.g08.bks.cpg/sg22_26_cif.got.tgz:51770.got - 2010.06.03 23:40:54.
