data_PCOD9327291
_publ_section_title
;
Structure prediction by ZEFSAII (Michael W. Deem and Ramdas Pophale) SiO2 
 PCOD9327291
Probable space group: F 2 2 2
;
_chemical_formula_sum "Si O2"
_cell_formula_units_Z 32
_cell_length_a 7.556399
_cell_length_b 14.337448
_cell_length_c 10.937746
_cell_angle_alpha 90.000000
_cell_angle_beta 90.000000
_cell_angle_gamma 90.000000
_cell_volume 1184.989689
_symmetry_space_group_name_H-M "F 2 2 2"
_symmetry_group_IT_number 22
_symmetry_cell_setting 'orthorhombic'
loop_
_space_group_symop_operation_xyz
x,y,z
-x,-y,z
x,-y,-z
-x,y,-z
x,1/2+y,1/2+z
-x,1/2-y,1/2+z
x,1/2-y,1/2-z
-x,1/2+y,1/2-z
1/2+x,y,1/2+z
1/2-x,-y,1/2+z
1/2+x,-y,1/2-z
1/2-x,y,1/2-z
1/2+x,1/2+y,z
1/2-x,1/2-y,z
1/2+x,1/2-y,-z
1/2-x,1/2+y,-z
loop_
_atom_site_type_symbol
_atom_site_label
_atom_site_fract_x
_atom_site_fract_y
_atom_site_fract_z
Si Si1 0.500000 0.354115 0.500000
Si Si2 0.332929 0.563266 0.134206
Si Si3 0.997303 0.750000 0.750000
O O1 0.325654 0.410277 0.542951
O O2 0.435169 0.299168 0.376749
O O3 0.500000 0.500000 0.106781
O O4 0.250000 0.511333 0.250000
O O5 0.401395 0.663000 0.183883
#
# Coordination Sequence:
#
# PCOD9327291 Si02
#       3
#     8  16   8
#     4  10  20  46  86 122 170 224 282 354 430 508
#     4  10  22  48  84 124 169 222 283 351 433 517
#     4  10  23  50  85 126 168 218 283 362 437 506
#
# _framework density 27.004458
#
# number of rings (size 3 to 8) (size 9 to 14) (size 15 to 20)
#    0.000    2.000    0.000    6.750    0.000    0.000 
#    0.000   77.500    0.000    0.000    0.000    0.000 
#    0.000    0.000    0.000    0.000    0.000    0.000 
#
# Total GULP energy -44554.976317 kJ/mol
# GULP energy per Si atom -5569.372040 kJ/mol
# Density = 2.694299 g / cm^3
# Si number density = 27.004458 Si / 1000 Ang^3
#
#
#
# Elastic Constant Matrix: (Units=GPa)
#
#
# Indices 1 2 3 4 5 6 
#
# 1 255.9477 112.5325 133.0426 0.0000 0.0000 0.0000
# 2 112.5325 169.4800 91.4280 0.0000 0.0000 0.0000
# 3 133.0426 91.4280 287.2021 0.0000 0.0000 0.0000
# 4 0.0000 0.0000 0.0000 -6.5838 0.0000 0.0000
# 5 0.0000 0.0000 0.0000 0.0000 58.2295 0.0000
# 6 0.0000 0.0000 0.0000 0.0000 0.0000 44.8000
#
#
#
# Elastic Compliance Matrix: (Units=1/GPa)
#
#
# Indices 1 2 3 4 5 6 
#
# 1 0.006280 -0.003140 -0.001910 0.000000 0.000000 0.000000
# 2 -0.003140 0.008693 -0.001313 0.000000 0.000000 0.000000
# 3 -0.001910 -0.001313 0.004785 0.000000 0.000000 0.000000
# 4 0.000000 0.000000 0.000000 -0.151888 0.000000 0.000000
# 5 0.000000 0.000000 0.000000 0.000000 0.017173 0.000000
# 6 0.000000 0.000000 0.000000 0.000000 0.000000 0.022321
#
#
# Mechanical properties :
#
#
# Convention : Reuss Voigt Hill
#
# Bulk Modulus (GPa) = 142.18292 154.07066 148.12679
# Shear Modulus (GPa) = -64.46194 44.33091 -10.06551
#
# Velocity S-wave (km/s) = -4.89108 4.05608 -1.93273
# Velocity P-wave (km/s) = 4.56827 8.89457 7.07045
#
# Compressibility (1/GPa) = 0.00703319
#
# Stress axis : x y z
#
# Youngs Moduli (GPa) = 159.23140 115.02869 209.00797
#
# Poissons Ratio (x) = 0.36116 0.39914
# Poissons Ratio (y) = 0.49995 0.27444
# Poissons Ratio (z) = 0.30408 0.15104
#
# Static dielectric constant tensor:
#      x y z
#    x 2.207050 0.000000 0.000000 
#    y 0.000000 2.095460 0.000000 
#    z 0.000000 0.000000 0.551810 
# 
# From -- ./inp_files/7725.got.cif
#   From: 2010.05.17/outbox.cif.g08.bks.cpg/sg22_4_cif.got.tgz:7725.got - 2010.06.03 23:40:54.
