data_PCOD9327677
_publ_section_title
;
Structure prediction by ZEFSAII (Michael W. Deem and Ramdas Pophale) SiO2 
 PCOD9327677
Probable space group: F 2 2 2
;
_chemical_formula_sum "Si O2"
_cell_formula_units_Z 108
_cell_length_a 11.743728
_cell_length_b 14.448666
_cell_length_c 34.111961
_cell_angle_alpha 90.000000
_cell_angle_beta 90.000000
_cell_angle_gamma 90.000000
_cell_volume 5788.158595
_symmetry_space_group_name_H-M "F 2 2 2"
_symmetry_group_IT_number 22
_symmetry_cell_setting 'orthorhombic'
loop_
_space_group_symop_operation_xyz
x,y,z
-x,-y,z
x,-y,-z
-x,y,-z
x,1/2+y,1/2+z
-x,1/2-y,1/2+z
x,1/2-y,1/2-z
-x,1/2+y,1/2-z
1/2+x,y,1/2+z
1/2-x,-y,1/2+z
1/2+x,-y,1/2-z
1/2-x,y,1/2-z
1/2+x,1/2+y,z
1/2-x,1/2-y,z
1/2+x,1/2-y,-z
1/2-x,1/2+y,-z
loop_
_atom_site_type_symbol
_atom_site_label
_atom_site_fract_x
_atom_site_fract_y
_atom_site_fract_z
Si Si1 0.852064 0.176541 0.637348
Si Si2 0.500000 0.000000 0.399730
Si Si3 0.083673 0.355568 0.463232
Si Si4 0.930913 0.202673 0.790806
Si Si5 0.642806 0.643580 0.450861
Si Si6 0.812700 0.031124 0.832984
Si Si7 0.500000 0.000000 0.000000
Si Si8 0.694623 0.161081 0.292340
O O1 0.750000 0.250000 0.628788
O O2 0.918937 0.227527 0.672199
O O3 0.895233 0.150745 0.594614
O O4 0.799719 0.082958 0.653685
O O5 0.480400 0.090751 0.427313
O O6 0.393761 0.007444 0.369848
O O7 0.220790 0.377939 0.457434
O O8 0.100592 0.244509 0.465399
O O9 0.000000 0.380768 0.500000
O O10 0.890105 0.250000 0.750000
O O11 0.870201 0.107055 0.803842
O O12 0.062085 0.178613 0.786572
O O13 0.577265 0.564424 0.473184
O O14 0.786996 0.934795 0.813308
O O15 0.750000 0.154366 0.250000
O O16 0.750000 0.250000 0.313164
#
# Coordination Sequence:
#
# PCOD9327677 Si02
#       8
#    16   8  16  16  16  16   4  16
#     4  10  21  41  69  94 129 171 217 272 331 389
#     4  12  21  40  70 101 130 164 225 280 324 405
#     4  11  23  41  73 100 126 174 229 271 332 401
#     4  11  22  41  65  94 127 174 220 268 324 404
#     4  11  23  46  64  95 143 175 214 280 341 411
#     4  11  23  40  65  97 126 169 216 270 329 390
#     4  12  28  44  66  92 144 180 210 278 364 410
#     4  11  23  42  59  86 131 169 213 277 335 376
#
# _framework density 18.658783
#
# number of rings (size 3 to 8) (size 9 to 14) (size 15 to 20)
#    0.000    1.037    6.667    1.111    4.148    2.074 
#    2.667    0.000    3.259    0.000    0.000    0.000 
#    0.000    0.000    0.000    0.000    0.000    0.000 
#
# Total GULP energy -150308.041327 kJ/mol
# GULP energy per Si atom -5566.964494 kJ/mol
# Density = 1.861631 g / cm^3
# Si number density = 18.658783 Si / 1000 Ang^3
#
#
#
# Elastic Constant Matrix: (Units=GPa)
#
#
# Indices 1 2 3 4 5 6 
#
# 1 48.7592 35.9140 31.6837 0.0000 0.0000 0.0000
# 2 35.9140 146.2747 68.6686 0.0000 0.0000 0.0000
# 3 31.6837 68.6686 123.5697 0.0000 0.0000 0.0000
# 4 0.0000 0.0000 0.0000 81.8308 0.0000 0.0000
# 5 0.0000 0.0000 0.0000 0.0000 29.3213 0.0000
# 6 0.0000 0.0000 0.0000 0.0000 0.0000 21.7530
#
#
#
# Elastic Compliance Matrix: (Units=1/GPa)
#
#
# Indices 1 2 3 4 5 6 
#
# 1 0.026641 -0.004511 -0.004324 0.000000 0.000000 0.000000
# 2 -0.004511 0.010013 -0.004408 0.000000 0.000000 0.000000
# 3 -0.004324 -0.004408 0.011651 0.000000 0.000000 0.000000
# 4 0.000000 0.000000 0.000000 0.012220 0.000000 0.000000
# 5 0.000000 0.000000 0.000000 0.000000 0.034105 0.000000
# 6 0.000000 0.000000 0.000000 0.000000 0.000000 0.045971
#
#
# Mechanical properties :
#
#
# Convention : Reuss Voigt Hill
#
# Bulk Modulus (GPa) = 45.83069 65.68180 55.75625
# Shear Modulus (GPa) = 28.67622 38.73685 33.70654
#
# Velocity S-wave (km/s) = 3.92455 4.56133 4.25487
# Velocity P-wave (km/s) = 6.71952 7.93845 7.35428
#
# Compressibility (1/GPa) = 0.02181944
#
# Stress axis : x y z
#
# Youngs Moduli (GPa) = 37.53549 99.86733 85.83151
#
# Poissons Ratio (x) = 0.45052 0.37114
# Poissons Ratio (y) = 0.16933 0.37833
# Poissons Ratio (z) = 0.16231 0.44019
#
# Static dielectric constant tensor:
#      x y z
#    x 1.564820 0.000000 0.000000 
#    y 0.000000 1.648850 0.000000 
#    z 0.000000 0.000000 1.688810 
# 
# From -- ./inp_files/56132.got.cif
#   From: 2010.05.17/outbox.cif.g08.bks.cpg/sg22_29_cif.got.tgz:56132.got - 2010.06.03 23:40:54.
