data_PCOD9327493
_publ_section_title
;
Structure prediction by ZEFSAII (Michael W. Deem and Ramdas Pophale) SiO2 
 PCOD9327493
Probable space group: F 2 2 2
;
_chemical_formula_sum "Si O2"
_cell_formula_units_Z 80
_cell_length_a 10.792727
_cell_length_b 22.557610
_cell_length_c 14.510236
_cell_angle_alpha 90.000000
_cell_angle_beta 90.000000
_cell_angle_gamma 90.000000
_cell_volume 3532.634872
_symmetry_space_group_name_H-M "F 2 2 2"
_symmetry_group_IT_number 22
_symmetry_cell_setting 'orthorhombic'
loop_
_space_group_symop_operation_xyz
x,y,z
-x,-y,z
x,-y,-z
-x,y,-z
x,1/2+y,1/2+z
-x,1/2-y,1/2+z
x,1/2-y,1/2-z
-x,1/2+y,1/2-z
1/2+x,y,1/2+z
1/2-x,-y,1/2+z
1/2+x,-y,1/2-z
1/2-x,y,1/2-z
1/2+x,1/2+y,z
1/2-x,1/2-y,z
1/2+x,1/2-y,-z
1/2-x,1/2+y,-z
loop_
_atom_site_type_symbol
_atom_site_label
_atom_site_fract_x
_atom_site_fract_y
_atom_site_fract_z
Si Si1 0.629763 0.485720 0.349581
Si Si2 0.696583 0.661077 0.082548
Si Si3 0.431473 0.274077 0.352156
Si Si4 0.118426 0.035283 0.140839
Si Si5 0.387563 0.364445 0.571276
O O1 0.500000 0.500000 0.395640
O O2 0.751147 0.511376 0.396693
O O3 0.622811 0.517184 0.249413
O O4 0.635096 0.414809 0.352573
O O5 0.612330 0.719546 0.084041
O O6 0.817874 0.678605 0.143715
O O7 0.621920 0.605121 0.122133
O O8 0.762077 0.645865 0.985833
O O9 0.441909 0.250000 0.250000
O O10 0.556130 0.305369 0.384515
O O11 0.000000 0.000000 0.104164
O O12 0.500000 0.381489 0.500000
#
# Coordination Sequence:
#
# PCOD9327493 Si02
#       5
#    16  16  16  16  16
#     4  10  21  38  67  95 142 182 240 294 355 425
#     4  10  21  40  66 103 141 181 234 306 366 432
#     4  10  22  38  74 104 131 186 251 297 360 433
#     4  10  23  39  66 102 143 187 240 291 360 436
#     4  10  22  41  66 101 138 182 240 300 368 422
#
# _framework density 22.645985
#
# number of rings (size 3 to 8) (size 9 to 14) (size 15 to 20)
#    0.000    2.000    0.000    3.600   11.200    2.800 
#    0.000   14.000    0.000    0.000    0.000    0.000 
#    0.000    0.000    0.000    0.000    0.000    0.000 
#
# Total GULP energy -111687.606085 kJ/mol
# GULP energy per Si atom -5584.380304 kJ/mol
# Density = 2.259444 g / cm^3
# Si number density = 22.645985 Si / 1000 Ang^3
#
#
#
# Elastic Constant Matrix: (Units=GPa)
#
#
# Indices 1 2 3 4 5 6 
#
# 1 77.6620 31.8670 -12.0497 0.0000 0.0000 0.0000
# 2 31.8670 147.5991 24.3853 0.0000 0.0000 0.0000
# 3 -12.0497 24.3853 67.8900 0.0000 0.0000 0.0000
# 4 0.0000 0.0000 0.0000 -14.2364 0.0000 0.0000
# 5 0.0000 0.0000 0.0000 0.0000 -6.0375 0.0000
# 6 0.0000 0.0000 0.0000 0.0000 0.0000 40.8042
#
#
#
# Elastic Compliance Matrix: (Units=1/GPa)
#
#
# Indices 1 2 3 4 5 6 
#
# 1 0.015131 -0.003945 0.004103 0.000000 0.000000 0.000000
# 2 -0.003945 0.008231 -0.003657 0.000000 0.000000 0.000000
# 3 0.004103 -0.003657 0.016771 0.000000 0.000000 0.000000
# 4 0.000000 0.000000 0.000000 -0.070243 0.000000 0.000000
# 5 0.000000 0.000000 0.000000 0.000000 -0.165631 0.000000
# 6 0.000000 0.000000 0.000000 0.000000 0.000000 0.024507
#
#
# Mechanical properties :
#
#
# Convention : Reuss Voigt Hill
#
# Bulk Modulus (GPa) = 30.17852 42.39514 36.28683
# Shear Modulus (GPa) = -32.63925 20.70261 -5.96832
#
# Velocity S-wave (km/s) = -3.80054 3.02683 -1.62518
# Velocity P-wave (km/s) = 2.42975 5.56570 3.54072
#
# Compressibility (1/GPa) = 0.03313615
#
# Stress axis : x y z
#
# Youngs Moduli (GPa) = 66.08744 121.49343 59.62576
#
# Poissons Ratio (x) = 0.47926 -0.24462
# Poissons Ratio (y) = 0.26070 0.21803
# Poissons Ratio (z) = -0.27113 0.44425
#
# Static dielectric constant tensor:
#      x y z
#    x 1.870150 0.000000 0.000000 
#    y 0.000000 1.860700 0.000000 
#    z 0.000000 0.000000 1.851760 
# 
# From -- ./inp_files/28094.got.cif
#   From: 2010.05.17/outbox.cif.g08.bks.cpg/sg22_15_cif.got.tgz:28094.got - 2010.06.03 23:40:54.
