data_PCOD9327552
_publ_section_title
;
Structure prediction by ZEFSAII (Michael W. Deem and Ramdas Pophale) SiO2 
 PCOD9327552
Probable space group: F 2 2 2
;
_chemical_formula_sum "Si O2"
_cell_formula_units_Z 72
_cell_length_a 19.291816
_cell_length_b 11.021957
_cell_length_c 16.362507
_cell_angle_alpha 90.000000
_cell_angle_beta 90.000000
_cell_angle_gamma 90.000000
_cell_volume 3479.218219
_symmetry_space_group_name_H-M "F 2 2 2"
_symmetry_group_IT_number 22
_symmetry_cell_setting 'orthorhombic'
loop_
_space_group_symop_operation_xyz
x,y,z
-x,-y,z
x,-y,-z
-x,y,-z
x,1/2+y,1/2+z
-x,1/2-y,1/2+z
x,1/2-y,1/2-z
-x,1/2+y,1/2-z
1/2+x,y,1/2+z
1/2-x,-y,1/2+z
1/2+x,-y,1/2-z
1/2-x,y,1/2-z
1/2+x,1/2+y,z
1/2-x,1/2-y,z
1/2+x,1/2-y,-z
1/2-x,1/2+y,-z
loop_
_atom_site_type_symbol
_atom_site_label
_atom_site_fract_x
_atom_site_fract_y
_atom_site_fract_z
Si Si1 0.500000 0.500000 0.310391
Si Si2 0.250000 0.750000 0.616429
Si Si3 0.250000 0.046144 0.250000
Si Si4 0.892945 0.528880 0.684109
Si Si5 0.896962 0.326465 0.555812
Si Si6 0.461935 0.755959 0.117034
O O1 0.440248 0.454646 0.248174
O O2 0.460496 0.602149 0.362865
O O3 0.232480 0.863421 0.675206
O O4 0.181136 0.719565 0.566185
O O5 0.184373 0.971297 0.218724
O O6 0.896026 0.462606 0.595137
O O7 0.926291 0.661576 0.678474
O O8 0.925874 0.287543 0.467423
O O9 0.955816 0.266362 0.612088
#
# Coordination Sequence:
#
# PCOD9327552 Si02
#       6
#     8   8   8  16  16  16
#     4  12  24  39  65  96 130 170 222 286 342 393
#     4   9  18  38  64  96 133 180 226 280 341 414
#     4   9  20  36  63  98 130 172 226 284 334 412
#     4  11  21  40  67  97 130 178 226 280 340 411
#     4  10  21  39  66  93 131 174 229 278 335 406
#     4  11  23  40  64  96 131 175 229 285 338 408
#
# _framework density 20.694303999999999
#
# number of rings (size 3 to 8) (size 9 to 14) (size 15 to 20)
#    0.000    1.556    2.222    2.667    0.000    5.333 
#    4.000    1.111    4.889    0.000    0.000    0.000 
#    0.000    0.000    0.000    0.000    0.000    0.000 
#
# Total GULP energy -100247.670843 kJ/mol
# GULP energy per Si atom -5569.315047 kJ/mol
# Density = 2.064720 g / cm^3
# Si number density = 20.694304 Si / 1000 Ang^3
#
#
#
# Elastic Constant Matrix: (Units=GPa)
#
#
# Indices 1 2 3 4 5 6 
#
# 1 130.9745 51.0085 44.6872 0.0000 0.0000 0.0000
# 2 51.0085 107.8726 57.1057 0.0000 0.0000 0.0000
# 3 44.6872 57.1057 89.7929 0.0000 0.0000 0.0000
# 4 0.0000 0.0000 0.0000 15.5869 0.0000 0.0000
# 5 0.0000 0.0000 0.0000 0.0000 28.0540 0.0000
# 6 0.0000 0.0000 0.0000 0.0000 0.0000 22.9181
#
#
#
# Elastic Compliance Matrix: (Units=1/GPa)
#
#
# Indices 1 2 3 4 5 6 
#
# 1 0.009842 -0.003107 -0.002922 0.000000 0.000000 0.000000
# 2 -0.003107 0.014956 -0.007965 0.000000 0.000000 0.000000
# 3 -0.002922 -0.007965 0.017657 0.000000 0.000000 0.000000
# 4 0.000000 0.000000 0.000000 0.064156 0.000000 0.000000
# 5 0.000000 0.000000 0.000000 0.000000 0.035646 0.000000
# 6 0.000000 0.000000 0.000000 0.000000 0.000000 0.043634
#
#
# Mechanical properties :
#
#
# Convention : Reuss Voigt Hill
#
# Bulk Modulus (GPa) = 69.12816 70.47143 69.79979
# Shear Modulus (GPa) = 22.86219 25.03436 23.94827
#
# Velocity S-wave (km/s) = 3.32739 3.48188 3.40551
# Velocity P-wave (km/s) = 6.94543 7.09169 7.01894
#
# Compressibility (1/GPa) = 0.01446588
#
# Stress axis : x y z
#
# Youngs Moduli (GPa) = 101.60411 66.86237 56.63546
#
# Poissons Ratio (x) = 0.20774 0.16550
# Poissons Ratio (y) = 0.31568 0.45112
# Poissons Ratio (z) = 0.29690 0.53259
#
# Static dielectric constant tensor:
#      x y z
#    x 1.713610 0.000000 0.000000 
#    y 0.000000 1.796620 0.000000 
#    z 0.000000 0.000000 1.800920 
# 
# From -- ./inp_files/21138.got.cif
#   From: 2010.05.17/outbox.cif.g08.bks.cpg/sg22_11_cif.got.tgz:21138.got - 2010.06.03 23:40:54.
