data_PCOD9327986
_publ_section_title
;
Structure prediction by ZEFSAII (Michael W. Deem and Ramdas Pophale) SiO2 
 PCOD9327986
Probable space group: F 2 2 2
;
_chemical_formula_sum "Si O2"
_cell_formula_units_Z 104
_cell_length_a 22.969435
_cell_length_b 8.044376
_cell_length_c 25.032359
_cell_angle_alpha 90.000000
_cell_angle_beta 90.000000
_cell_angle_gamma 90.000000
_cell_volume 4625.348418
_symmetry_space_group_name_H-M "F 2 2 2"
_symmetry_group_IT_number 22
_symmetry_cell_setting 'orthorhombic'
loop_
_space_group_symop_operation_xyz
x,y,z
-x,-y,z
x,-y,-z
-x,y,-z
x,1/2+y,1/2+z
-x,1/2-y,1/2+z
x,1/2-y,1/2-z
-x,1/2+y,1/2-z
1/2+x,y,1/2+z
1/2-x,-y,1/2+z
1/2+x,-y,1/2-z
1/2-x,y,1/2-z
1/2+x,1/2+y,z
1/2-x,1/2-y,z
1/2+x,1/2-y,-z
1/2-x,1/2+y,-z
loop_
_atom_site_type_symbol
_atom_site_label
_atom_site_fract_x
_atom_site_fract_y
_atom_site_fract_z
Si Si1 0.140752 0.193951 0.307272
Si Si2 0.985110 0.319583 0.658455
Si Si3 0.350087 0.771974 0.412153
Si Si4 0.838665 0.378725 0.925621
Si Si5 0.925774 0.915466 0.055248
Si Si6 0.393856 0.682517 0.308506
Si Si7 0.750000 0.250000 0.494598
O O1 0.166470 0.250000 0.250000
O O2 0.077517 0.276958 0.317142
O O3 0.172342 0.194063 0.365541
O O4 0.124585 0.004059 0.302155
O O5 0.973842 0.342072 0.595175
O O6 0.000000 0.500000 0.681432
O O7 0.040604 0.203217 0.668047
O O8 0.361570 0.571444 0.423596
O O9 0.346537 0.766312 0.347867
O O10 0.298417 0.815407 0.452839
O O11 0.394044 0.926417 0.417930
O O12 0.883093 0.243858 0.951271
O O13 0.782662 0.370136 0.963340
O O14 0.942253 0.000000 0.000000
O O15 0.395396 0.750000 0.250000
#
# Coordination Sequence:
#
# PCOD9327986 Si02
#       7
#    16  16  16  16  16  16   8
#     4  10  22  41  65  95 136 181 227 285 342 407
#     4  11  21  38  62  96 132 174 229 262 339 411
#     4  11  25  43  65 102 134 177 230 289 349 414
#     4  10  25  41  65  99 135 173 233 286 345 416
#     4  11  23  41  66  97 136 180 220 286 338 413
#     4  11  23  43  67  96 138 177 228 287 340 416
#     4  12  24  44  74  98 132 178 240 286 354 432
#
# _framework density 22.484791999999999
#
# number of rings (size 3 to 8) (size 9 to 14) (size 15 to 20)
#    0.000    1.231    3.077    2.308    6.462    0.308 
#    0.000    0.769    0.000    3.692    0.000    0.000 
#    0.000    0.000    0.000    0.000    0.000    0.000 
#
# Total GULP energy -144832.844488 kJ/mol
# GULP energy per Si atom -5570.494019 kJ/mol
# Density = 2.243362 g / cm^3
# Si number density = 22.484792 Si / 1000 Ang^3
#
#
#
# Elastic Constant Matrix: (Units=GPa)
#
#
# Indices 1 2 3 4 5 6 
#
# 1 57.8835 33.6090 59.7054 0.0000 0.0000 0.0000
# 2 33.6090 54.9077 43.1524 0.0000 0.0000 0.0004
# 3 59.7054 43.1524 197.2596 0.0000 0.0000 0.0000
# 4 0.0000 0.0000 0.0000 165.1357 0.0000 0.0005
# 5 0.0000 0.0000 0.0000 0.0000 3.1992 -0.0002
# 6 0.0000 0.0004 0.0000 0.0005 -0.0002 -107.1118
#
#
#
# Elastic Compliance Matrix: (Units=1/GPa)
#
#
# Indices 1 2 3 4 5 6 
#
# 1 0.032759 -0.014804 -0.006677 0.000000 0.000000 0.000000
# 2 -0.014804 0.028684 -0.001794 0.000000 0.000000 0.000000
# 3 -0.006677 -0.001794 0.007483 0.000000 0.000000 0.000000
# 4 0.000000 0.000000 0.000000 0.006056 0.000000 0.000000
# 5 0.000000 0.000000 0.000000 0.000000 0.312580 0.000000
# 6 0.000000 0.000000 0.000000 0.000000 0.000000 -0.009336
#
#
# Mechanical properties :
#
#
# Convention : Reuss Voigt Hill
#
# Bulk Modulus (GPa) = 44.69171 64.77602 54.73386
# Shear Modulus (GPa) = 11.56780 23.81689 17.69234
#
# Velocity S-wave (km/s) = 2.27066 3.25813 2.80814
# Velocity P-wave (km/s) = 5.17630 6.55937 5.90844
#
# Compressibility (1/GPa) = 0.02237552
#
# Stress axis : x y z
#
# Youngs Moduli (GPa) = 30.52618 34.86252 133.64059
#
# Poissons Ratio (x) = 0.51612 0.89227
# Poissons Ratio (y) = 0.45192 0.23975
# Poissons Ratio (z) = 0.20381 0.06254
#
# Static dielectric constant tensor:
#      x y z
#    x 1.757570 0.000000 0.000000 
#    y 0.000000 2.140800 0.000000 
#    z 0.000000 0.000000 3.994780 
# 
# From -- ./inp_files/54165.got.cif
#   From: 2010.05.17/outbox.cif.g08.bks.cpg/sg22_28_cif.got.tgz:54165.got - 2010.06.03 23:40:54.
