data_PCOD9327891
_publ_section_title
;
Structure prediction by ZEFSAII (Michael W. Deem and Ramdas Pophale) SiO2 
 PCOD9327891
Probable space group: F 2 2 2
;
_chemical_formula_sum "Si O2"
_cell_formula_units_Z 96
_cell_length_a 13.505509
_cell_length_b 22.473521
_cell_length_c 15.940673
_cell_angle_alpha 90.000000
_cell_angle_beta 90.000000
_cell_angle_gamma 90.000000
_cell_volume 4838.254728
_symmetry_space_group_name_H-M "F 2 2 2"
_symmetry_group_IT_number 22
_symmetry_cell_setting 'orthorhombic'
loop_
_space_group_symop_operation_xyz
x,y,z
-x,-y,z
x,-y,-z
-x,y,-z
x,1/2+y,1/2+z
-x,1/2-y,1/2+z
x,1/2-y,1/2-z
-x,1/2+y,1/2-z
1/2+x,y,1/2+z
1/2-x,-y,1/2+z
1/2+x,-y,1/2-z
1/2-x,y,1/2-z
1/2+x,1/2+y,z
1/2-x,1/2-y,z
1/2+x,1/2-y,-z
1/2-x,1/2+y,-z
loop_
_atom_site_type_symbol
_atom_site_label
_atom_site_fract_x
_atom_site_fract_y
_atom_site_fract_z
Si Si1 0.536589 0.627049 0.766240
Si Si2 0.318812 0.101720 0.329470
Si Si3 0.140254 0.274478 0.631697
Si Si4 0.609745 0.975523 0.618304
Si Si5 0.213411 0.877049 0.016241
Si Si6 0.431189 0.351718 0.579471
O O1 0.428346 0.625172 0.807488
O O2 0.592092 0.687638 0.793235
O O3 0.596256 0.572460 0.807139
O O4 0.531397 0.620696 0.666545
O O5 0.250000 0.112865 0.250000
O O6 0.281398 0.129304 0.416545
O O7 0.328115 0.031285 0.348849
O O8 0.250000 0.250000 0.652054
O O9 0.153741 0.322461 0.557139
O O10 0.078112 0.218716 0.598852
O O11 0.657912 0.937639 0.543238
O O12 0.500000 0.000000 0.597944
O O13 0.321654 0.875170 0.057489
O O14 0.500000 0.362863 0.500000
#
# Coordination Sequence:
#
# PCOD9327891 Si02
#       6
#    16  16  16  16  16  16
#     4  10  22  39  63  90 125 167 209 269 308 368
#     4  11  23  38  61  89 130 165 210 250 323 384
#     4   9  21  39  64  91 119 158 217 262 312 360
#     4   9  21  39  64  91 119 158 217 262 312 360
#     4  10  22  39  63  90 125 167 209 269 308 368
#     4  11  23  38  61  89 130 165 210 250 323 384
#
# _framework density 19.841866
#
# number of rings (size 3 to 8) (size 9 to 14) (size 15 to 20)
#    0.000    2.000    0.000    2.000    4.667   14.667 
#    0.000    0.000    0.000    0.000    0.000    0.000 
#    0.000    0.000    0.000    0.000    0.000    0.000 
#
# Total GULP energy -134131.003056 kJ/mol
# GULP energy per Si atom -5588.791794 kJ/mol
# Density = 1.979671 g / cm^3
# Si number density = 19.841866 Si / 1000 Ang^3
#
#
#
# Elastic Constant Matrix: (Units=GPa)
#
#
# Indices 1 2 3 4 5 6 
#
# 1 29.8814 16.5746 18.1105 0.0000 0.0000 0.0000
# 2 16.5746 73.0064 29.1089 0.0000 0.0000 0.0000
# 3 18.1105 29.1089 146.6039 0.0000 0.0000 0.0000
# 4 0.0000 0.0000 0.0000 20.2708 0.0000 0.0000
# 5 0.0000 0.0000 0.0000 0.0000 39.0914 0.0000
# 6 0.0000 0.0000 0.0000 0.0000 0.0000 23.6760
#
#
#
# Elastic Compliance Matrix: (Units=1/GPa)
#
#
# Indices 1 2 3 4 5 6 
#
# 1 0.039780 -0.007680 -0.003389 0.000000 0.000000 0.000000
# 2 -0.007680 0.016358 -0.002299 0.000000 0.000000 0.000000
# 3 -0.003389 -0.002299 0.007696 0.000000 0.000000 0.000000
# 4 0.000000 0.000000 0.000000 0.049332 0.000000 0.000000
# 5 0.000000 0.000000 0.000000 0.000000 0.025581 0.000000
# 6 0.000000 0.000000 0.000000 0.000000 0.000000 0.042237
#
#
# Mechanical properties :
#
#
# Convention : Reuss Voigt Hill
#
# Bulk Modulus (GPa) = 26.95623 41.89773 34.42698
# Shear Modulus (GPa) = 22.71841 28.98748 25.85295
#
# Velocity S-wave (km/s) = 3.38742 3.82635 3.61355
# Velocity P-wave (km/s) = 5.37722 6.37832 5.89904
#
# Compressibility (1/GPa) = 0.03709717
#
# Stress axis : x y z
#
# Youngs Moduli (GPa) = 25.13847 61.13329 129.93253
#
# Poissons Ratio (x) = 0.46949 0.44038
# Poissons Ratio (y) = 0.19306 0.29874
# Poissons Ratio (z) = 0.08520 0.14056
#
# Static dielectric constant tensor:
#      x y z
#    x 1.677300 0.000000 0.000000 
#    y 0.000000 1.692390 0.000000 
#    z 0.000000 0.000000 1.704910 
# 
# From -- ./inp_files/29391.got.cif
#   From: 2010.05.17/outbox.cif.g08.bks.cpg/sg22_15_cif.got.tgz:29391.got - 2010.06.03 23:40:54.
