data_PCOD9327857
_publ_section_title
;
Structure prediction by ZEFSAII (Michael W. Deem and Ramdas Pophale) SiO2 
 PCOD9327857
Probable space group: F 2 2 2
;
_chemical_formula_sum "Si O2"
_cell_formula_units_Z 96
_cell_length_a 16.284909
_cell_length_b 17.734961
_cell_length_c 16.112759
_cell_angle_alpha 90.000000
_cell_angle_beta 90.000000
_cell_angle_gamma 90.000000
_cell_volume 4653.561794
_symmetry_space_group_name_H-M "F 2 2 2"
_symmetry_group_IT_number 22
_symmetry_cell_setting 'orthorhombic'
loop_
_space_group_symop_operation_xyz
x,y,z
-x,-y,z
x,-y,-z
-x,y,-z
x,1/2+y,1/2+z
-x,1/2-y,1/2+z
x,1/2-y,1/2-z
-x,1/2+y,1/2-z
1/2+x,y,1/2+z
1/2-x,-y,1/2+z
1/2+x,-y,1/2-z
1/2-x,y,1/2-z
1/2+x,1/2+y,z
1/2-x,1/2-y,z
1/2+x,1/2-y,-z
1/2-x,1/2+y,-z
loop_
_atom_site_type_symbol
_atom_site_label
_atom_site_fract_x
_atom_site_fract_y
_atom_site_fract_z
Si Si1 0.444647 0.219387 0.158881
Si Si2 0.791625 0.672776 0.042969
Si Si3 0.301474 0.930231 0.671501
Si Si4 0.215984 0.432387 0.563953
Si Si5 0.548647 0.357992 0.083765
Si Si6 0.983101 0.078968 0.755815
O O1 0.413519 0.250000 0.250000
O O2 0.372397 0.194527 0.096046
O O3 0.505243 0.280282 0.115430
O O4 0.491745 0.145351 0.190097
O O5 0.750000 0.750000 0.015443
O O6 0.726926 0.628984 0.102178
O O7 0.796658 0.611871 0.968200
O O8 0.250000 0.907616 0.750000
O O9 0.394317 0.921582 0.700280
O O10 0.277972 0.015733 0.645264
O O11 0.191705 0.500000 0.500000
O O12 0.144740 0.369290 0.565854
O O13 0.539365 0.411389 0.163655
O O14 0.500000 0.380393 0.000000
O O15 0.000000 0.000000 0.713756
#
# Coordination Sequence:
#
# PCOD9327857 Si02
#       6
#    16  16  16  16  16  16
#     4  10  22  38  61  95 125 165 208 266 325 376
#     4  11  21  36  61  91 128 155 205 260 322 372
#     4  11  21  37  62  91 123 163 213 263 309 372
#     4  10  22  38  61  95 125 165 208 266 325 376
#     4  11  21  36  61  91 128 155 205 260 322 372
#     4  11  21  37  62  91 123 163 213 263 309 372
#
# _framework density 20.629359000000001
#
# number of rings (size 3 to 8) (size 9 to 14) (size 15 to 20)
#    0.000    1.333    3.333    5.000    0.000    0.000 
#    0.000    3.333    0.000    0.000    0.000    0.000 
#    0.000    0.000    0.000    0.000    0.000    0.000 
#
# Total GULP energy -133665.504281 kJ/mol
# GULP energy per Si atom -5569.396012 kJ/mol
# Density = 2.058241 g / cm^3
# Si number density = 20.629359 Si / 1000 Ang^3
#
#
#
# Elastic Constant Matrix: (Units=GPa)
#
#
# Indices 1 2 3 4 5 6 
#
# 1 43.4127 30.5766 5.0816 0.0000 0.0000 0.0000
# 2 30.5766 112.4998 16.3720 0.0000 0.0000 0.0000
# 3 5.0816 16.3720 36.3401 0.0000 0.0000 0.0000
# 4 0.0000 0.0000 0.0000 17.2325 0.0000 0.0000
# 5 0.0000 0.0000 0.0000 0.0000 19.1805 0.0000
# 6 0.0000 0.0000 0.0000 0.0000 0.0000 33.2355
#
#
#
# Elastic Compliance Matrix: (Units=1/GPa)
#
#
# Indices 1 2 3 4 5 6 
#
# 1 0.028498 -0.007668 -0.000530 0.000000 0.000000 0.000000
# 2 -0.007668 0.011576 -0.004143 0.000000 0.000000 0.000000
# 3 -0.000530 -0.004143 0.029458 0.000000 0.000000 0.000000
# 4 0.000000 0.000000 0.000000 0.058030 0.000000 0.000000
# 5 0.000000 0.000000 0.000000 0.000000 0.052136 0.000000
# 6 0.000000 0.000000 0.000000 0.000000 0.000000 0.030088
#
#
# Mechanical properties :
#
#
# Convention : Reuss Voigt Hill
#
# Bulk Modulus (GPa) = 22.29691 32.92365 27.61028
# Shear Modulus (GPa) = 20.04654 23.27785 21.66220
#
# Velocity S-wave (km/s) = 3.12067 3.36279 3.24399
# Velocity P-wave (km/s) = 4.88022 5.57423 5.23873
#
# Compressibility (1/GPa) = 0.04484925
#
# Stress axis : x y z
#
# Youngs Moduli (GPa) = 35.09045 86.38554 33.94611
#
# Poissons Ratio (x) = 0.66243 0.01800
# Poissons Ratio (y) = 0.26908 0.14064
# Poissons Ratio (z) = 0.01861 0.35789
#
# Static dielectric constant tensor:
#      x y z
#    x 1.499440 0.000000 0.000000 
#    y 0.000000 1.777850 0.000000 
#    z 0.000000 0.000000 1.819710 
# 
# From -- ./inp_files/38054.got.cif
#   From: 2010.05.17/outbox.cif.g08.bks.cpg/sg22_20_cif.got.tgz:38054.got - 2010.06.03 23:40:54.
