data_PCOD9327470
_publ_section_title
;
Structure prediction by ZEFSAII (Michael W. Deem and Ramdas Pophale) SiO2 
 PCOD9327470
Probable space group: F 2 2 2
;
_chemical_formula_sum "Si O2"
_cell_formula_units_Z 92
_cell_length_a 26.876094
_cell_length_b 7.735007
_cell_length_c 22.301455
_cell_angle_alpha 90.000000
_cell_angle_beta 90.000000
_cell_angle_gamma 90.000000
_cell_volume 4636.177563
_symmetry_space_group_name_H-M "F 2 2 2"
_symmetry_group_IT_number 22
_symmetry_cell_setting 'orthorhombic'
loop_
_space_group_symop_operation_xyz
x,y,z
-x,-y,z
x,-y,-z
-x,y,-z
x,1/2+y,1/2+z
-x,1/2-y,1/2+z
x,1/2-y,1/2-z
-x,1/2+y,1/2-z
1/2+x,y,1/2+z
1/2-x,-y,1/2+z
1/2+x,-y,1/2-z
1/2-x,y,1/2-z
1/2+x,1/2+y,z
1/2-x,1/2-y,z
1/2+x,1/2-y,-z
1/2-x,1/2+y,-z
loop_
_atom_site_type_symbol
_atom_site_label
_atom_site_fract_x
_atom_site_fract_y
_atom_site_fract_z
Si Si1 0.299427 0.179381 0.092908
Si Si2 0.000000 0.000000 0.335234
Si Si3 0.130881 0.536229 0.654150
Si Si4 0.000000 0.000000 0.000000
Si Si5 0.761549 0.065381 0.180687
Si Si6 0.631332 0.000000 0.000000
Si Si7 0.066774 0.253719 0.580990
Si Si8 0.434655 0.250000 0.250000
O O1 0.250000 0.250000 0.059354
O O2 0.339879 0.322760 0.113021
O O3 0.272129 0.077219 0.147229
O O4 0.332119 0.058827 0.052231
O O5 0.032082 0.125746 0.292186
O O6 0.963852 0.119173 0.376794
O O7 0.179294 0.448857 0.681241
O O8 0.099743 0.388909 0.619793
O O9 0.098468 0.634822 0.704320
O O10 0.969244 0.875813 0.956755
O O11 0.750000 0.059607 0.250000
O O12 0.750000 0.250000 0.152068
O O13 0.597754 0.854051 0.968422
#
# Coordination Sequence:
#
# PCOD9327470 Si02
#       8
#    16   8  16   4  16   8  16   8
#     4  10  23  40  60  92 130 167 210 260 316 379
#     4  12  26  44  64  94 126 162 210 274 336 390
#     4  11  23  40  64  93 125 166 212 256 317 391
#     4  12  24  44  66  88 120 164 206 268 328 372
#     4  10  21  38  62  92 129 167 208 259 315 377
#     4  12  24  41  65  90 124 168 215 265 316 384
#     4  12  25  43  66  91 124 163 217 267 325 391
#     4  12  24  42  67  92 128 164 207 266 330 394
#
# _framework density 19.843934000000001
#
# number of rings (size 3 to 8) (size 9 to 14) (size 15 to 20)
#    0.000    0.870    0.000    7.304    0.000    8.696 
#    0.000    0.000    0.000    0.000    0.000    0.000 
#    0.000    0.000    0.000    0.000    0.000    0.000 
#
# Total GULP energy -128301.582482 kJ/mol
# GULP energy per Si atom -5578.329673 kJ/mol
# Density = 1.979877 g / cm^3
# Si number density = 19.843934 Si / 1000 Ang^3
#
#
#
# Elastic Constant Matrix: (Units=GPa)
#
#
# Indices 1 2 3 4 5 6 
#
# 1 155.5671 93.6900 83.8886 0.0000 0.0000 0.0000
# 2 93.6900 142.8412 64.9447 0.0000 0.0000 -0.0001
# 3 83.8886 64.9447 93.2203 0.0000 0.0000 0.0000
# 4 0.0000 0.0000 0.0000 30.9996 0.0000 0.0000
# 5 0.0000 0.0000 0.0000 0.0000 85.4689 0.0000
# 6 0.0000 -0.0001 0.0000 0.0000 0.0000 60.1763
#
#
#
# Elastic Compliance Matrix: (Units=1/GPa)
#
#
# Indices 1 2 3 4 5 6 
#
# 1 0.014849 -0.005363 -0.009626 0.000000 0.000000 0.000000
# 2 -0.005363 0.012183 -0.003662 0.000000 0.000000 0.000000
# 3 -0.009626 -0.003662 0.021941 0.000000 0.000000 0.000000
# 4 0.000000 0.000000 0.000000 0.032259 0.000000 0.000000
# 5 0.000000 0.000000 0.000000 0.000000 0.011700 0.000000
# 6 0.000000 0.000000 0.000000 0.000000 0.000000 0.016618
#
#
# Mechanical properties :
#
#
# Convention : Reuss Voigt Hill
#
# Bulk Modulus (GPa) = 85.68025 97.40836 91.54430
# Shear Modulus (GPa) = 33.16950 45.26930 39.21940
#
# Velocity S-wave (km/s) = 4.09286 4.78144 4.45049
# Velocity P-wave (km/s) = 8.09976 8.92618 8.52299
#
# Compressibility (1/GPa) = 0.01167130
#
# Stress axis : x y z
#
# Youngs Moduli (GPa) = 67.34677 82.08127 45.57667
#
# Poissons Ratio (x) = 0.44016 0.43873
# Poissons Ratio (y) = 0.36115 0.16690
# Poissons Ratio (z) = 0.64829 0.30058
#
# Static dielectric constant tensor:
#      x y z
#    x 1.716630 0.000000 0.000000 
#    y 0.000000 1.767900 0.000000 
#    z 0.000000 0.000000 1.616920 
# 
# From -- ./inp_files/13806.got.cif
#   From: 2010.05.17/outbox.cif.g08.bks.cpg/sg22_7_cif.got.tgz:13806.got - 2010.06.03 23:40:54.
