data_PCOD9327040
_publ_section_title
;
Structure prediction by ZEFSAII (Michael W. Deem and Ramdas Pophale) SiO2 
 PCOD9327040
Probable space group: F 2 2 2
;
_chemical_formula_sum "Si O2"
_cell_formula_units_Z 104
_cell_length_a 19.396931
_cell_length_b 11.910996
_cell_length_c 24.660904
_cell_angle_alpha 90.000000
_cell_angle_beta 90.000000
_cell_angle_gamma 90.000000
_cell_volume 5697.575545
_symmetry_space_group_name_H-M "F 2 2 2"
_symmetry_group_IT_number 22
_symmetry_cell_setting 'orthorhombic'
loop_
_space_group_symop_operation_xyz
x,y,z
-x,-y,z
x,-y,-z
-x,y,-z
x,1/2+y,1/2+z
-x,1/2-y,1/2+z
x,1/2-y,1/2-z
-x,1/2+y,1/2-z
1/2+x,y,1/2+z
1/2-x,-y,1/2+z
1/2+x,-y,1/2-z
1/2-x,y,1/2-z
1/2+x,1/2+y,z
1/2-x,1/2-y,z
1/2+x,1/2-y,-z
1/2-x,1/2+y,-z
loop_
_atom_site_type_symbol
_atom_site_label
_atom_site_fract_x
_atom_site_fract_y
_atom_site_fract_z
Si Si1 0.313918 0.507279 0.214062
Si Si2 0.766690 0.950054 0.609547
Si Si3 0.666841 0.095996 0.544818
Si Si4 0.022661 0.186956 0.307203
Si Si5 0.892088 0.465289 0.184685
Si Si6 0.436459 0.411194 0.141374
Si Si7 0.750000 0.750000 0.524922
O O1 0.250000 0.453316 0.250000
O O2 0.280188 0.572558 0.163284
O O3 0.352468 0.575015 0.261108
O O4 0.374980 0.436178 0.185088
O O5 0.841746 0.967541 0.633833
O O6 0.766233 0.853110 0.564879
O O7 0.732329 0.058667 0.581675
O O8 0.601043 0.089526 0.583457
O O9 0.687489 0.209203 0.513550
O O10 0.658538 0.000000 0.500000
O O11 0.014605 0.250000 0.250000
O O12 0.955454 0.117104 0.322833
O O13 0.036817 0.286603 0.348391
O O14 0.081795 0.092136 0.304611
O O15 0.500000 0.500000 0.146539
#
# Coordination Sequence:
#
# PCOD9327040 Si02
#       7
#    16  16  16  16  16  16   8
#     4   9  18  37  58  84 120 152 195 238 282 351
#     4   9  20  37  60  85 118 150 195 252 293 354
#     4   9  21  39  60  88 111 147 202 256 305 350
#     4  11  22  35  56  85 123 164 191 231 291 364
#     4  10  21  37  55  87 123 156 195 231 295 360
#     4  11  22  38  60  87 120 158 200 247 303 358
#     4  10  20  38  61  88 109 150 198 252 316 348
#
# _framework density 18.253378000000001
#
# number of rings (size 3 to 8) (size 9 to 14) (size 15 to 20)
#    0.000    2.154    1.538    0.923    2.154    5.231 
#    0.000    5.000    0.000    0.000    0.000    0.000 
#    0.000    0.000    0.000    0.000    0.000    0.000 
#
# Total GULP energy -144752.182011 kJ/mol
# GULP energy per Si atom -5567.391616 kJ/mol
# Density = 1.821183 g / cm^3
# Si number density = 18.253378 Si / 1000 Ang^3
#
#
#
# Elastic Constant Matrix: (Units=GPa)
#
#
# Indices 1 2 3 4 5 6 
#
# 1 107.4401 54.0909 53.7005 0.0000 0.0000 0.0000
# 2 54.0909 79.6134 39.2351 0.0000 0.0000 0.0000
# 3 53.7005 39.2351 112.5632 0.0000 0.0000 0.0000
# 4 0.0000 0.0000 0.0000 15.1770 0.0000 0.0000
# 5 0.0000 0.0000 0.0000 0.0000 25.9808 0.0000
# 6 0.0000 0.0000 0.0000 0.0000 0.0000 7.5135
#
#
#
# Elastic Compliance Matrix: (Units=1/GPa)
#
#
# Indices 1 2 3 4 5 6 
#
# 1 0.015912 -0.008536 -0.004616 0.000000 0.000000 0.000000
# 2 -0.008536 0.019745 -0.002810 0.000000 0.000000 0.000000
# 3 -0.004616 -0.002810 0.012065 0.000000 0.000000 0.000000
# 4 0.000000 0.000000 0.000000 0.065889 0.000000 0.000000
# 5 0.000000 0.000000 0.000000 0.000000 0.038490 0.000000
# 6 0.000000 0.000000 0.000000 0.000000 0.000000 0.133094
#
#
# Mechanical properties :
#
#
# Convention : Reuss Voigt Hill
#
# Bulk Modulus (GPa) = 63.29661 65.96332 64.62996
# Shear Modulus (GPa) = 15.50934 19.90692 17.70813
#
# Velocity S-wave (km/s) = 2.91807 3.30599 3.11807
# Velocity P-wave (km/s) = 6.79010 7.12663 6.96040
#
# Compressibility (1/GPa) = 0.01579864
#
# Stress axis : x y z
#
# Youngs Moduli (GPa) = 62.84493 50.64504 82.88152
#
# Poissons Ratio (x) = 0.43232 0.38256
# Poissons Ratio (y) = 0.53646 0.23290
# Poissons Ratio (z) = 0.29008 0.14231
#
# Static dielectric constant tensor:
#      x y z
#    x 1.665920 0.000000 0.000000 
#    y 0.000000 1.618470 0.000000 
#    z 0.000000 0.000000 1.651600 
# 
# From -- ./inp_files/49964.got.cif
#   From: 2010.05.17/outbox.cif.g08.bks.cpg/sg22_25_cif.got.tgz:49964.got - 2010.06.03 23:40:54.
