data_PCOD9327476
_publ_section_title
;
Structure prediction by ZEFSAII (Michael W. Deem and Ramdas Pophale) SiO2 
 PCOD9327476
Probable space group: F 2 2 2
;
_chemical_formula_sum "Si O2"
_cell_formula_units_Z 84
_cell_length_a 27.254282
_cell_length_b 12.595884
_cell_length_c 9.425515
_cell_angle_alpha 90.000000
_cell_angle_beta 90.000000
_cell_angle_gamma 90.000000
_cell_volume 3235.701771
_symmetry_space_group_name_H-M "F 2 2 2"
_symmetry_group_IT_number 22
_symmetry_cell_setting 'orthorhombic'
loop_
_space_group_symop_operation_xyz
x,y,z
-x,-y,z
x,-y,-z
-x,y,-z
x,1/2+y,1/2+z
-x,1/2-y,1/2+z
x,1/2-y,1/2-z
-x,1/2+y,1/2-z
1/2+x,y,1/2+z
1/2-x,-y,1/2+z
1/2+x,-y,1/2-z
1/2-x,y,1/2-z
1/2+x,1/2+y,z
1/2-x,1/2-y,z
1/2+x,1/2-y,-z
1/2-x,1/2+y,-z
loop_
_atom_site_type_symbol
_atom_site_label
_atom_site_fract_x
_atom_site_fract_y
_atom_site_fract_z
Si Si1 0.250000 0.750000 0.957851
Si Si2 0.000000 0.000000 0.500000
Si Si3 0.750000 0.447340 0.750000
Si Si4 0.010683 0.676630 0.157363
Si Si5 0.145788 0.060014 0.711751
Si Si6 0.574228 0.908351 0.374918
Si Si7 0.359705 0.753327 0.444136
O O1 0.256675 0.638058 0.875471
O O2 0.301630 0.756799 0.032103
O O3 0.031971 0.932070 0.395951
O O4 0.798296 0.516885 0.782282
O O5 0.044740 0.750000 0.250000
O O6 0.969705 0.858975 0.224849
O O7 0.000000 0.723785 0.000000
O O8 0.140027 0.155492 0.824664
O O9 0.129918 0.127440 0.573937
O O10 0.111925 0.966380 0.770229
O O11 0.603895 0.808331 0.441726
O O12 0.561551 0.000000 0.500000
#
# Coordination Sequence:
#
# PCOD9327476 Si02
#       7
#     8   4   8  16  16  16  16
#     4  11  22  35  56  88 136 201 262 311 362 446
#     4   8  24  48  74 114 148 184 242 296 388 474
#     4  11  22  35  56  88 138 199 258 317 370 426
#     4  10  24  48  78 116 151 191 247 312 385 487
#     4  10  21  38  62  97 143 194 255 316 371 435
#     4  10  22  42  70 107 150 200 250 317 387 457
#     4  10  21  38  62  98 140 198 259 307 376 437
#
# _framework density 25.960364999999999
#
# number of rings (size 3 to 8) (size 9 to 14) (size 15 to 20)
#    0.571    1.333    1.905    1.143    0.000    8.381 
#    0.000    0.000    0.000    0.000    0.000    0.000 
#    0.000    0.000    0.000    0.000    0.000    0.000 
#
# Total GULP energy -116904.837709 kJ/mol
# GULP energy per Si atom -5566.897034 kJ/mol
# Density = 2.590128 g / cm^3
# Si number density = 25.960365 Si / 1000 Ang^3
#
#
#
# Elastic Constant Matrix: (Units=GPa)
#
#
# Indices 1 2 3 4 5 6 
#
# 1 175.7724 63.8165 36.5910 0.0000 0.0000 0.0000
# 2 63.8165 173.6988 64.3618 0.0000 0.0000 0.0000
# 3 36.5910 64.3618 77.9052 0.0000 0.0000 0.0000
# 4 0.0000 0.0000 0.0000 82.6221 0.0000 0.0000
# 5 0.0000 0.0000 0.0000 0.0000 18.1255 0.0000
# 6 0.0000 0.0000 0.0000 0.0000 0.0000 -248.5016
#
#
#
# Elastic Compliance Matrix: (Units=1/GPa)
#
#
# Indices 1 2 3 4 5 6 
#
# 1 0.006701 -0.001867 -0.001605 0.000000 0.000000 0.000000
# 2 -0.001867 0.008817 -0.006407 0.000000 0.000000 0.000000
# 3 -0.001605 -0.006407 0.018883 0.000000 0.000000 0.000000
# 4 0.000000 0.000000 0.000000 0.012103 0.000000 0.000000
# 5 0.000000 0.000000 0.000000 0.000000 0.055171 0.000000
# 6 0.000000 0.000000 0.000000 0.000000 0.000000 -0.004024
#
#
# Mechanical properties :
#
#
# Convention : Reuss Voigt Hill
#
# Bulk Modulus (GPa) = 68.29263 84.10166 76.19714
# Shear Modulus (GPa) = 40.88577 -12.04365 14.42106
#
# Velocity S-wave (km/s) = 3.97284 -2.15623 2.35947
# Velocity P-wave (km/s) = 6.88537 5.12517 6.06942
#
# Compressibility (1/GPa) = 0.01464287
#
# Stress axis : x y z
#
# Youngs Moduli (GPa) = 149.22655 113.41275 52.95681
#
# Poissons Ratio (x) = 0.21179 0.08498
# Poissons Ratio (y) = 0.27867 0.33932
# Poissons Ratio (z) = 0.23946 0.72668
#
# Static dielectric constant tensor:
#      x y z
#    x 1.977620 0.000000 0.000000 
#    y 0.000000 2.282830 0.000000 
#    z 0.000000 0.000000 2.668260 
# 
# From -- ./inp_files/25255.got.cif
#   From: 2010.05.17/outbox.cif.g08.bks.cpg/sg22_13_cif.got.tgz:25255.got - 2010.06.03 23:40:54.
