data_PCOD9327089
_publ_section_title
;
Structure prediction by ZEFSAII (Michael W. Deem and Ramdas Pophale) SiO2 
 PCOD9327089
Probable space group: F 2 2 2
;
_chemical_formula_sum "Si O2"
_cell_formula_units_Z 104
_cell_length_a 20.207512
_cell_length_b 8.801099
_cell_length_c 30.276786
_cell_angle_alpha 90.000000
_cell_angle_beta 90.000000
_cell_angle_gamma 90.000000
_cell_volume 5384.675333
_symmetry_space_group_name_H-M "F 2 2 2"
_symmetry_group_IT_number 22
_symmetry_cell_setting 'orthorhombic'
loop_
_space_group_symop_operation_xyz
x,y,z
-x,-y,z
x,-y,-z
-x,y,-z
x,1/2+y,1/2+z
-x,1/2-y,1/2+z
x,1/2-y,1/2-z
-x,1/2+y,1/2-z
1/2+x,y,1/2+z
1/2-x,-y,1/2+z
1/2+x,-y,1/2-z
1/2-x,y,1/2-z
1/2+x,1/2+y,z
1/2-x,1/2-y,z
1/2+x,1/2-y,-z
1/2-x,1/2+y,-z
loop_
_atom_site_type_symbol
_atom_site_label
_atom_site_fract_x
_atom_site_fract_y
_atom_site_fract_z
Si Si1 0.106639 0.288189 0.114763
Si Si2 0.633320 0.560998 0.549308
Si Si3 0.654299 0.016493 0.361879
Si Si4 0.750000 0.750000 0.909889
Si Si5 0.453274 0.755330 0.389548
Si Si6 0.672479 0.430129 0.759915
Si Si7 0.425768 0.017184 0.810472
O O1 0.129312 0.415009 0.080785
O O2 0.098701 0.370306 0.162099
O O3 0.031576 0.235610 0.105274
O O4 0.156358 0.148342 0.115791
O O5 0.627238 0.500000 0.500000
O O6 0.699808 0.654054 0.560048
O O7 0.575909 0.673856 0.566911
O O8 0.709638 0.132813 0.379042
O O9 0.585367 0.092340 0.377375
O O10 0.658179 0.981199 0.309956
O O11 0.434159 0.645369 0.348103
O O12 0.657891 0.250000 0.750000
O O13 0.750000 0.450931 0.750000
O O14 0.627518 0.533042 0.727770
O O15 0.500000 0.000000 0.791703
#
# Coordination Sequence:
#
# PCOD9327089 Si02
#       7
#    16  16  16   8  16  16  16
#     4  10  20  38  67  88 119 165 205 249 324 376
#     4  10  22  41  67  93 125 160 203 258 313 376
#     4  11  23  40  60  86 129 166 207 262 309 366
#     4  10  26  42  59  94 130 164 214 251 314 384
#     4   9  21  39  61  94 122 156 207 257 313 382
#     4  11  24  37  59  90 121 162 228 267 303 369
#     4   9  19  39  58  84 120 160 210 261 311 373
#
# _framework density 19.314071999999999
#
# number of rings (size 3 to 8) (size 9 to 14) (size 15 to 20)
#    0.000    2.000    1.538    1.846    6.462    4.923 
#    0.000    2.308    0.000    3.692    0.000    0.000 
#    0.000    0.000    0.000    0.000    0.000    0.000 
#
# Total GULP energy -145066.039943 kJ/mol
# GULP energy per Si atom -5579.463075 kJ/mol
# Density = 1.927011 g / cm^3
# Si number density = 19.314072 Si / 1000 Ang^3
#
#
#
# Elastic Constant Matrix: (Units=GPa)
#
#
# Indices 1 2 3 4 5 6 
#
# 1 46.5908 33.7257 54.8017 0.0000 0.0000 -0.0001
# 2 33.7257 96.8868 39.6644 0.0000 0.0000 -0.0002
# 3 54.8017 39.6644 128.8379 0.0000 0.0000 0.0000
# 4 0.0000 0.0000 0.0000 20.1298 0.0000 0.0000
# 5 0.0000 0.0000 0.0000 0.0000 9.8321 0.0000
# 6 -0.0001 -0.0002 0.0000 0.0000 0.0000 18.8354
#
#
#
# Elastic Compliance Matrix: (Units=1/GPa)
#
#
# Indices 1 2 3 4 5 6 
#
# 1 0.050186 -0.009989 -0.018271 0.000000 0.000000 0.000000
# 2 -0.009989 0.013798 0.000001 0.000000 0.000000 0.000000
# 3 -0.018271 0.000001 0.015533 0.000000 0.000000 0.000000
# 4 0.000000 0.000000 0.000000 0.049678 0.000000 0.000000
# 5 0.000000 0.000000 0.000000 0.000000 0.101708 0.000000
# 6 0.000000 0.000000 0.000000 0.000000 0.000000 0.053092
#
#
# Mechanical properties :
#
#
# Convention : Reuss Voigt Hill
#
# Bulk Modulus (GPa) = 43.48223 58.74435 51.11329
# Shear Modulus (GPa) = 14.36041 19.36770 16.86406
#
# Velocity S-wave (km/s) = 2.72972 3.17010 2.95811
# Velocity P-wave (km/s) = 5.70064 6.62425 6.17972
#
# Compressibility (1/GPa) = 0.02299790
#
# Stress axis : x y z
#
# Youngs Moduli (GPa) = 19.92586 72.47375 64.37817
#
# Poissons Ratio (x) = 0.72396 1.17629
# Poissons Ratio (y) = 0.19905 -0.00007
# Poissons Ratio (z) = 0.36408 -0.00008
#
# Static dielectric constant tensor:
#      x y z
#    x 1.681540 0.000000 0.000000 
#    y 0.000000 1.704680 0.000000 
#    z 0.000000 0.000000 1.654300 
# 
# From -- ./inp_files/12928.got.cif
#   From: 2010.05.17/outbox.cif.g08.bks.cpg/sg22_7_cif.got.tgz:12928.got - 2010.06.03 23:40:54.
