data_PCOD9327919
_publ_section_title
;
Structure prediction by ZEFSAII (Michael W. Deem and Ramdas Pophale) SiO2 
 PCOD9327919
Probable space group: F 2 2 2
;
_chemical_formula_sum "Si O2"
_cell_formula_units_Z 104
_cell_length_a 27.388093
_cell_length_b 8.237613
_cell_length_c 23.356093
_cell_angle_alpha 90.000000
_cell_angle_beta 90.000000
_cell_angle_gamma 90.000000
_cell_volume 5269.426788
_symmetry_space_group_name_H-M "F 2 2 2"
_symmetry_group_IT_number 22
_symmetry_cell_setting 'orthorhombic'
loop_
_space_group_symop_operation_xyz
x,y,z
-x,-y,z
x,-y,-z
-x,y,-z
x,1/2+y,1/2+z
-x,1/2-y,1/2+z
x,1/2-y,1/2-z
-x,1/2+y,1/2-z
1/2+x,y,1/2+z
1/2-x,-y,1/2+z
1/2+x,-y,1/2-z
1/2-x,y,1/2-z
1/2+x,1/2+y,z
1/2-x,1/2-y,z
1/2+x,1/2-y,-z
1/2-x,1/2+y,-z
loop_
_atom_site_type_symbol
_atom_site_label
_atom_site_fract_x
_atom_site_fract_y
_atom_site_fract_z
Si Si1 0.866733 0.892524 0.552042
Si Si2 0.367324 0.250000 0.250000
Si Si3 0.307253 0.437741 0.737988
Si Si4 0.053776 0.188003 0.015072
Si Si5 0.779523 0.394792 0.121195
Si Si6 0.885738 0.710219 0.117568
Si Si7 0.791737 0.377360 0.551183
O O1 0.906692 0.777561 0.524912
O O2 0.818975 0.815060 0.579350
O O3 0.846485 0.000000 0.500000
O O4 0.888133 0.023604 0.595852
O O5 0.336831 0.414316 0.235358
O O6 0.391374 0.277406 0.313468
O O7 0.322873 0.250000 0.750000
O O8 0.250000 0.455972 0.750000
O O9 0.310148 0.476916 0.670688
O O10 0.070511 0.208894 0.080734
O O11 0.000000 0.253176 0.000000
O O12 0.054507 0.000000 0.000000
O O13 0.750000 0.250000 0.149495
O O14 0.741395 0.514749 0.093472
O O15 0.835998 0.791291 0.087458
O O16 0.808431 0.500000 0.500000
O O17 0.750000 0.250000 0.529232
#
# Coordination Sequence:
#
# PCOD9327919 Si02
#       7
#    16   8  16  16  16  16  16
#     4  10  22  40  60  93 125 161 220 265 333 400
#     4  12  23  42  64  90 138 176 230 280 317 412
#     4  11  22  38  54  84 123 184 239 271 317 378
#     4  10  24  46  74 101 128 162 213 282 350 421
#     4  12  23  36  56  87 133 175 224 278 320 382
#     4  11  24  40  64  97 128 180 220 265 340 394
#     4  12  24  37  56  90 130 179 220 273 330 383
#
# _framework density 19.736491999999998
#
# number of rings (size 3 to 8) (size 9 to 14) (size 15 to 20)
#    0.000    0.923    4.615    2.538    8.615    2.769 
#    0.000    0.000    0.000    3.692    0.000    0.000 
#    0.000    0.000    0.000    0.000    0.000    0.000 
#
# Total GULP energy -144829.243806 kJ/mol
# GULP energy per Si atom -5570.355531 kJ/mol
# Density = 1.969157 g / cm^3
# Si number density = 19.736492 Si / 1000 Ang^3
#
#
#
# Elastic Constant Matrix: (Units=GPa)
#
#
# Indices 1 2 3 4 5 6 
#
# 1 78.8620 11.2449 36.7651 0.0000 0.0000 0.0000
# 2 11.2449 75.6029 24.2067 -0.0001 0.0000 0.0001
# 3 36.7651 24.2067 127.9161 0.0000 0.0000 0.0000
# 4 0.0000 -0.0001 0.0000 25.4704 0.0000 0.0000
# 5 0.0000 0.0000 0.0000 0.0000 15.1659 0.0000
# 6 0.0000 0.0001 0.0000 0.0000 0.0000 12.6514
#
#
#
# Elastic Compliance Matrix: (Units=1/GPa)
#
#
# Indices 1 2 3 4 5 6 
#
# 1 0.014698 -0.000887 -0.004057 0.000000 0.000000 0.000000
# 2 -0.000887 0.014134 -0.002420 0.000000 0.000000 0.000000
# 3 -0.004057 -0.002420 0.009441 0.000000 0.000000 0.000000
# 4 0.000000 0.000000 0.000000 0.039261 0.000000 0.000000
# 5 0.000000 0.000000 0.000000 0.000000 0.065938 0.000000
# 6 0.000000 0.000000 0.000000 0.000000 0.000000 0.079042
#
#
# Mechanical properties :
#
#
# Convention : Reuss Voigt Hill
#
# Bulk Modulus (GPa) = 42.46964 47.42383 44.94674
# Shear Modulus (GPa) = 20.40066 24.66849 22.53458
#
# Velocity S-wave (km/s) = 3.21853 3.53922 3.38268
# Velocity P-wave (km/s) = 5.94786 6.38608 6.17086
#
# Compressibility (1/GPa) = 0.02354623
#
# Stress axis : x y z
#
# Youngs Moduli (GPa) = 68.03629 70.75291 105.91620
#
# Poissons Ratio (x) = 0.06278 0.42965
# Poissons Ratio (y) = 0.06037 0.25628
# Poissons Ratio (z) = 0.27599 0.17120
#
# Static dielectric constant tensor:
#      x y z
#    x 1.714330 0.000000 0.000000 
#    y 0.000000 1.759190 0.000000 
#    z 0.000000 0.000000 1.890650 
# 
# From -- ./inp_files/50472.got.cif
#   From: 2010.05.17/outbox.cif.g08.bks.cpg/sg22_26_cif.got.tgz:50472.got - 2010.06.03 23:40:54.
