data_PCOD9327480
_publ_section_title
;
Structure prediction by ZEFSAII (Michael W. Deem and Ramdas Pophale) SiO2 
 PCOD9327480
Probable space group: F 2 2 2
;
_chemical_formula_sum "Si O2"
_cell_formula_units_Z 72
_cell_length_a 28.183170
_cell_length_b 9.193535
_cell_length_c 11.173703
_cell_angle_alpha 90.000000
_cell_angle_beta 90.000000
_cell_angle_gamma 90.000000
_cell_volume 2895.139519
_symmetry_space_group_name_H-M "F 2 2 2"
_symmetry_group_IT_number 22
_symmetry_cell_setting 'orthorhombic'
loop_
_space_group_symop_operation_xyz
x,y,z
-x,-y,z
x,-y,-z
-x,y,-z
x,1/2+y,1/2+z
-x,1/2-y,1/2+z
x,1/2-y,1/2-z
-x,1/2+y,1/2-z
1/2+x,y,1/2+z
1/2-x,-y,1/2+z
1/2+x,-y,1/2-z
1/2-x,y,1/2-z
1/2+x,1/2+y,z
1/2-x,1/2-y,z
1/2+x,1/2-y,-z
1/2-x,1/2+y,-z
loop_
_atom_site_type_symbol
_atom_site_label
_atom_site_fract_x
_atom_site_fract_y
_atom_site_fract_z
Si Si1 0.793230 0.331737 0.497183
Si Si2 0.899396 0.530747 0.197892
Si Si3 0.000000 0.250424 0.500000
Si Si4 0.175403 0.750000 0.750000
Si Si5 0.397836 0.242311 0.963575
Si Si6 0.500000 0.500000 0.700660
O O1 0.779845 0.500000 0.500000
O O2 0.750000 0.250000 0.430186
O O3 0.797304 0.247274 0.625343
O O4 0.847987 0.323871 0.454439
O O5 0.857005 0.605785 0.267170
O O6 0.895073 0.369622 0.147347
O O7 0.950155 0.528339 0.263662
O O8 0.899650 0.635963 0.080552
O O9 0.051530 0.322503 0.519341
O O10 0.998064 0.139718 0.386625
#
# Coordination Sequence:
#
# PCOD9327480 Si02
#       6
#    16  16   8   8  16   8
#     4  11  25  42  65  89 122 162 210 258 320 379
#     4   8  14  27  56  84 116 158 198 246 300 370
#     4   7  10  22  49  84 110 152 194 242 294 372
#     4  10  21  38  64  86 124 158 210 258 321 364
#     4   8  15  30  56  86 118 154 203 244 309 373
#     4   7  10  20  44  82 113 150 202 230 285 370
#
# _framework density 24.869268999999999
#
# number of rings (size 3 to 8) (size 9 to 14) (size 15 to 20)
#    0.000    3.333    0.000    3.000    6.222    0.000 
#    0.000    1.667   19.556    0.000    0.000    0.000 
#    0.000    0.000    0.000    0.000    0.000    0.000 
#
# Total GULP energy -100228.465771 kJ/mol
# GULP energy per Si atom -5568.248098 kJ/mol
# Density = 2.481267 g / cm^3
# Si number density = 24.869269 Si / 1000 Ang^3
#
#
#
# Elastic Constant Matrix: (Units=GPa)
#
#
# Indices 1 2 3 4 5 6 
#
# 1 225.8749 60.2667 -5.6018 0.0000 0.0000 0.0000
# 2 60.2667 109.7799 15.8057 0.0000 0.0000 0.0000
# 3 -5.6018 15.8057 43.9238 0.0000 0.0000 0.0000
# 4 0.0000 0.0000 0.0000 31.0712 0.0000 0.0000
# 5 0.0000 0.0000 0.0000 0.0000 19.4550 0.0000
# 6 0.0000 0.0000 0.0000 0.0000 0.0000 18.7450
#
#
#
# Elastic Compliance Matrix: (Units=1/GPa)
#
#
# Indices 1 2 3 4 5 6 
#
# 1 0.005322 -0.003184 0.001825 0.000000 0.000000 0.000000
# 2 -0.003184 0.011512 -0.004549 0.000000 0.000000 0.000000
# 3 0.001825 -0.004549 0.024636 0.000000 0.000000 0.000000
# 4 0.000000 0.000000 0.000000 0.032184 0.000000 0.000000
# 5 0.000000 0.000000 0.000000 0.000000 0.051401 0.000000
# 6 0.000000 0.000000 0.000000 0.000000 0.000000 0.053348
#
#
# Mechanical properties :
#
#
# Convention : Reuss Voigt Hill
#
# Bulk Modulus (GPa) = 33.72271 57.83550 45.77911
# Shear Modulus (GPa) = 24.98692 34.46143 29.72417
#
# Velocity S-wave (km/s) = 3.17319 3.72654 3.46094
# Velocity P-wave (km/s) = 5.19759 6.46703 5.86674
#
# Compressibility (1/GPa) = 0.02965360
#
# Stress axis : x y z
#
# Youngs Moduli (GPa) = 187.89447 86.86414 40.59061
#
# Poissons Ratio (x) = 0.27661 -0.07406
# Poissons Ratio (y) = 0.59834 0.18464
# Poissons Ratio (z) = -0.34284 0.39512
#
# Static dielectric constant tensor:
#      x y z
#    x 2.084080 0.000000 0.000000 
#    y 0.000000 1.810740 0.000000 
#    z 0.000000 0.000000 2.042060 
# 
# From -- ./inp_files/27165.got.cif
#   From: 2010.05.17/outbox.cif.g08.bks.cpg/sg22_14_cif.got.tgz:27165.got - 2010.06.03 23:40:54.
