data_PCOD9327831
_publ_section_title
;
Structure prediction by ZEFSAII (Michael W. Deem and Ramdas Pophale) SiO2 
 PCOD9327831
Probable space group: F 2 2 2
;
_chemical_formula_sum "Si O2"
_cell_formula_units_Z 96
_cell_length_a 20.707721
_cell_length_b 16.706001
_cell_length_c 14.470931
_cell_angle_alpha 90.000000
_cell_angle_beta 90.000000
_cell_angle_gamma 90.000000
_cell_volume 5006.120289
_symmetry_space_group_name_H-M "F 2 2 2"
_symmetry_group_IT_number 22
_symmetry_cell_setting 'orthorhombic'
loop_
_space_group_symop_operation_xyz
x,y,z
-x,-y,z
x,-y,-z
-x,y,-z
x,1/2+y,1/2+z
-x,1/2-y,1/2+z
x,1/2-y,1/2-z
-x,1/2+y,1/2-z
1/2+x,y,1/2+z
1/2-x,-y,1/2+z
1/2+x,-y,1/2-z
1/2-x,y,1/2-z
1/2+x,1/2+y,z
1/2-x,1/2-y,z
1/2+x,1/2-y,-z
1/2-x,1/2+y,-z
loop_
_atom_site_type_symbol
_atom_site_label
_atom_site_fract_x
_atom_site_fract_y
_atom_site_fract_z
Si Si1 0.463213 0.419134 0.356332
Si Si2 0.910890 0.321089 0.179115
Si Si3 0.151380 0.488007 0.777807
Si Si4 0.573268 0.280213 0.520326
Si Si5 0.183499 0.711929 0.645894
Si Si6 0.276984 0.970915 0.606545
O O1 0.500000 0.500000 0.385051
O O2 0.515463 0.355967 0.317306
O O3 0.408318 0.450216 0.286817
O O4 0.432784 0.370831 0.441038
O O5 0.902268 0.250000 0.250000
O O6 0.869354 0.400220 0.191896
O O7 0.895613 0.285268 0.079348
O O8 0.206272 0.520286 0.847456
O O9 0.177223 0.478209 0.674094
O O10 0.500000 0.250246 0.500000
O O11 0.618446 0.234078 0.591519
O O12 0.177686 0.750000 0.750000
O O13 0.250000 0.750000 0.607373
O O14 0.197586 0.618184 0.631262
O O15 0.278228 0.000000 0.500000
#
# Coordination Sequence:
#
# PCOD9327831 Si02
#       6
#    16  16  16  16  16  16
#     4   9  19  38  65  95 123 163 216 270 316 379
#     4  10  23  38  61  92 131 166 208 258 328 402
#     4  10  22  41  64  89 127 166 214 262 332 387
#     4  10  22  37  62  99 129 169 215 270 330 394
#     4  11  23  42  70  97 131 170 230 285 336 398
#     4  11  25  41  64  95 126 170 217 275 331 397
#
# _framework density 19.176527
#
# number of rings (size 3 to 8) (size 9 to 14) (size 15 to 20)
#    0.000    1.833    0.000    4.000    7.000   12.333 
#    0.000    2.500    0.000    0.000    0.000    0.000 
#    0.000    0.000    0.000    0.000    0.000    0.000 
#
# Total GULP energy -133774.044774 kJ/mol
# GULP energy per Si atom -5573.918532 kJ/mol
# Density = 1.913288 g / cm^3
# Si number density = 19.176527 Si / 1000 Ang^3
#
#
#
# Elastic Constant Matrix: (Units=GPa)
#
#
# Indices 1 2 3 4 5 6 
#
# 1 88.4149 37.5707 55.7157 0.0000 0.0000 0.0000
# 2 37.5707 94.4038 48.2727 0.0000 0.0000 0.0000
# 3 55.7157 48.2727 132.3535 0.0000 0.0000 0.0000
# 4 0.0000 0.0000 0.0000 19.7932 0.0000 0.0000
# 5 0.0000 0.0000 0.0000 0.0000 26.5320 0.0000
# 6 0.0000 0.0000 0.0000 0.0000 0.0000 17.5049
#
#
#
# Elastic Compliance Matrix: (Units=1/GPa)
#
#
# Indices 1 2 3 4 5 6 
#
# 1 0.016370 -0.003677 -0.005550 0.000000 0.000000 0.000000
# 2 -0.003677 0.013847 -0.003503 0.000000 0.000000 0.000000
# 3 -0.005550 -0.003503 0.011169 0.000000 0.000000 0.000000
# 4 0.000000 0.000000 0.000000 0.050522 0.000000 0.000000
# 5 0.000000 0.000000 0.000000 0.000000 0.037690 0.000000
# 6 0.000000 0.000000 0.000000 0.000000 0.000000 0.057127
#
#
# Mechanical properties :
#
#
# Convention : Reuss Voigt Hill
#
# Bulk Modulus (GPa) = 62.78470 66.47672 64.63071
# Shear Modulus (GPa) = 22.98902 24.34022 23.66462
#
# Velocity S-wave (km/s) = 3.46614 3.56655 3.51670
# Velocity P-wave (km/s) = 6.98787 7.19036 7.08984
#
# Compressibility (1/GPa) = 0.01592745
#
# Stress axis : x y z
#
# Youngs Moduli (GPa) = 61.08622 72.21700 89.53030
#
# Poissons Ratio (x) = 0.26554 0.49691
# Poissons Ratio (y) = 0.22461 0.31358
# Poissons Ratio (z) = 0.33904 0.25294
#
# Static dielectric constant tensor:
#      x y z
#    x 1.710290 0.000000 0.000000 
#    y 0.000000 1.678250 0.000000 
#    z 0.000000 0.000000 1.675580 
# 
# From -- ./inp_files/29379.got.cif
#   From: 2010.05.17/outbox.cif.g08.bks.cpg/sg22_15_cif.got.tgz:29379.got - 2010.06.03 23:40:54.
