data_PCOD9327013
_publ_section_title
;
Structure prediction by ZEFSAII (Michael W. Deem and Ramdas Pophale) SiO2 
 PCOD9327013
Probable space group: F 2 2 2
;
_chemical_formula_sum "Si O2"
_cell_formula_units_Z 120
_cell_length_a 25.094304
_cell_length_b 26.786102
_cell_length_c 9.805276
_cell_angle_alpha 90.000000
_cell_angle_beta 90.000000
_cell_angle_gamma 90.000000
_cell_volume 6590.896563
_symmetry_space_group_name_H-M "F 2 2 2"
_symmetry_group_IT_number 22
_symmetry_cell_setting 'orthorhombic'
loop_
_space_group_symop_operation_xyz
x,y,z
-x,-y,z
x,-y,-z
-x,y,-z
x,1/2+y,1/2+z
-x,1/2-y,1/2+z
x,1/2-y,1/2-z
-x,1/2+y,1/2-z
1/2+x,y,1/2+z
1/2-x,-y,1/2+z
1/2+x,-y,1/2-z
1/2-x,y,1/2-z
1/2+x,1/2+y,z
1/2-x,1/2-y,z
1/2+x,1/2-y,-z
1/2-x,1/2+y,-z
loop_
_atom_site_type_symbol
_atom_site_label
_atom_site_fract_x
_atom_site_fract_y
_atom_site_fract_z
Si Si1 0.645793 0.807430 0.737848
Si Si2 0.599707 0.881701 0.958199
Si Si3 0.419074 0.397473 0.235700
Si Si4 0.037430 0.927876 0.218802
Si Si5 0.195635 0.954960 0.402231
Si Si6 0.940614 0.163900 0.020126
Si Si7 0.132351 0.503797 0.660306
Si Si8 0.250000 0.126148 0.750000
O O1 0.661388 0.750000 0.750000
O O2 0.619980 0.833441 0.873108
O O3 0.602410 0.809137 0.615489
O O4 0.698286 0.841062 0.715429
O O5 0.553757 0.905173 0.864583
O O6 0.644871 0.924782 0.959984
O O7 0.583762 0.874689 0.113694
O O8 0.473950 0.429113 0.219228
O O9 0.374461 0.438711 0.203866
O O10 0.419131 0.353148 0.126057
O O11 0.050718 0.887612 0.102660
O O12 0.076678 0.973827 0.188533
O O13 0.175631 0.977803 0.258060
O O14 0.237441 0.911336 0.373992
O O15 0.211607 0.000000 0.500000
O O16 0.000000 0.186918 0.000000
O O17 0.143973 0.500000 0.500000
#
# Coordination Sequence:
#
# PCOD9327013 Si02
#       8
#    16  16  16  16  16  16  16   8
#     4  10  21  43  67  86 112 151 205 262 310 368
#     4   9  19  34  52  78 113 152 191 245 300 355
#     4  11  18  29  50  77 117 158 199 240 291 347
#     4   9  18  29  45  75 116 161 205 237 275 349
#     4  10  20  38  52  81 118 149 191 240 292 360
#     4   9  19  35  55  85 119 150 191 248 302 360
#     4  11  20  29  49  77 117 165 208 238 284 342
#     4  10  23  38  66  90 114 148 209 246 306 358
#
# _framework density 18.206931000000001
#
# number of rings (size 3 to 8) (size 9 to 14) (size 15 to 20)
#    0.000    2.133    2.667    1.800    0.000    1.067 
#    0.000    6.000    0.000    2.400    0.000    3.733 
#    0.000    0.000    0.000    0.000    0.000    0.000 
#
# Total GULP energy -167173.944281 kJ/mol
# GULP energy per Si atom -5572.464809 kJ/mol
# Density = 1.816549 g / cm^3
# Si number density = 18.206931 Si / 1000 Ang^3
#
#
#
# Elastic Constant Matrix: (Units=GPa)
#
#
# Indices 1 2 3 4 5 6 
#
# 1 59.7272 35.7649 22.3210 0.0002 -0.0001 -0.0001
# 2 35.7649 86.0227 31.1736 0.0002 -0.0002 -0.0001
# 3 22.3210 31.1736 145.8111 0.0009 -0.0010 -0.0005
# 4 0.0002 0.0002 0.0009 8.0940 -0.0005 -0.0006
# 5 -0.0001 -0.0002 -0.0010 -0.0005 10.4742 0.0003
# 6 -0.0001 -0.0001 -0.0005 -0.0006 0.0003 6.3539
#
#
#
# Elastic Compliance Matrix: (Units=1/GPa)
#
#
# Indices 1 2 3 4 5 6 
#
# 1 0.022621 -0.008835 -0.001574 0.000000 0.000000 0.000000
# 2 -0.008835 0.016051 -0.002079 0.000000 0.000000 0.000000
# 3 -0.001574 -0.002079 0.007544 -0.000001 0.000001 0.000001
# 4 0.000000 0.000000 -0.000001 0.123548 0.000005 0.000012
# 5 0.000000 0.000000 0.000001 0.000005 0.095473 -0.000004
# 6 0.000000 0.000000 0.000001 0.000012 -0.000004 0.157383
#
#
# Mechanical properties :
#
#
# Convention : Reuss Voigt Hill
#
# Bulk Modulus (GPa) = 47.08014 52.23111 49.65562
# Shear Modulus (GPa) = 10.99683 18.47118 14.73401
#
# Velocity S-wave (km/s) = 2.46029 3.18860 2.84782
# Velocity P-wave (km/s) = 5.82968 6.50430 6.17621
#
# Compressibility (1/GPa) = 0.02124038
#
# Stress axis : x y z
#
# Youngs Moduli (GPa) = 44.20618 62.29971 132.56098
#
# Poissons Ratio (x) = 0.55039 0.20867
# Poissons Ratio (y) = 0.39054 0.27563
# Poissons Ratio (z) = 0.06959 0.12954
#
# Static dielectric constant tensor:
#      x y z
#    x 1.665290 0.000000 0.000000 
#    y 0.000000 1.602680 0.000000 
#    z 0.000000 0.000000 1.651170 
# 
# From -- ./inp_files/15066.got.cif
#   From: 2010.05.17/outbox.cif.g08.bks.cpg/sg22_8_cif.got.tgz:15066.got - 2010.06.03 23:40:54.
