data_PCOD9327108
_publ_section_title
;
Structure prediction by ZEFSAII (Michael W. Deem and Ramdas Pophale) SiO2 
 PCOD9327108
Probable space group: F 2 2 2
;
_chemical_formula_sum "Si O2"
_cell_formula_units_Z 104
_cell_length_a 8.095140
_cell_length_b 19.322724
_cell_length_c 31.741991
_cell_angle_alpha 90.000000
_cell_angle_beta 90.000000
_cell_angle_gamma 90.000000
_cell_volume 4965.087183
_symmetry_space_group_name_H-M "F 2 2 2"
_symmetry_group_IT_number 22
_symmetry_cell_setting 'orthorhombic'
loop_
_space_group_symop_operation_xyz
x,y,z
-x,-y,z
x,-y,-z
-x,y,-z
x,1/2+y,1/2+z
-x,1/2-y,1/2+z
x,1/2-y,1/2-z
-x,1/2+y,1/2-z
1/2+x,y,1/2+z
1/2-x,-y,1/2+z
1/2+x,-y,1/2-z
1/2-x,y,1/2-z
1/2+x,1/2+y,z
1/2-x,1/2-y,z
1/2+x,1/2-y,-z
1/2-x,1/2+y,-z
loop_
_atom_site_type_symbol
_atom_site_label
_atom_site_fract_x
_atom_site_fract_y
_atom_site_fract_z
Si Si1 0.552506 0.330814 0.251351
Si Si2 0.035162 0.608894 0.841053
Si Si3 0.364908 0.692576 0.465780
Si Si4 0.431797 0.749540 0.607638
Si Si5 0.000000 0.000000 0.895186
Si Si6 0.654234 0.046400 0.080883
Si Si7 0.914485 0.884503 0.164426
O O1 0.491810 0.250000 0.250000
O O2 0.750000 0.327324 0.250000
O O3 0.515873 0.373419 0.293679
O O4 0.474584 0.370265 0.211511
O O5 0.045474 0.682254 0.864242
O O6 0.227131 0.586603 0.838157
O O7 0.913358 0.565992 0.871647
O O8 0.500000 0.671713 0.500000
O O9 0.250000 0.750000 0.487912
O O10 0.437300 0.741985 0.428880
O O11 0.315343 0.619503 0.443592
O O12 0.250000 0.750000 0.588220
O O13 0.435056 0.813133 0.639253
O O14 0.174448 0.002720 0.919888
O O15 0.018766 0.063863 0.863653
O O16 0.500000 0.000000 0.063717
#
# Coordination Sequence:
#
# PCOD9327108 Si02
#       7
#    16  16  16  16   8  16  16
#     4  11  22  35  55  89 133 173 228 298 355 408
#     4  10  20  39  62  89 126 174 230 287 340 404
#     4  11  24  44  72 107 142 174 220 292 354 414
#     4   9  19  36  65  93 123 167 219 277 335 404
#     4  12  24  42  66  99 132 182 238 276 335 422
#     4  11  24  47  73  99 139 192 236 282 348 433
#     4  11  21  37  61  93 128 175 231 280 341 414
#
# _framework density 20.946259999999999
#
# number of rings (size 3 to 8) (size 9 to 14) (size 15 to 20)
#    0.000    1.385    3.077    2.769    0.000    2.154 
#    4.154    0.000    0.000    0.000    0.000    0.000 
#    0.000    0.000    0.000    0.000    0.000    0.000 
#
# Total GULP energy -144882.825337 kJ/mol
# GULP energy per Si atom -5572.416359 kJ/mol
# Density = 2.089859 g / cm^3
# Si number density = 20.946260 Si / 1000 Ang^3
#
#
#
# Elastic Constant Matrix: (Units=GPa)
#
#
# Indices 1 2 3 4 5 6 
#
# 1 87.1372 32.8576 17.3378 0.0000 0.0000 0.0000
# 2 32.8576 72.0310 4.1575 0.0000 0.0000 0.0000
# 3 17.3378 4.1575 77.1821 0.0000 0.0000 0.0000
# 4 0.0000 0.0000 0.0000 -15.2836 0.0000 0.0000
# 5 0.0000 0.0000 0.0000 0.0000 19.5170 0.0000
# 6 0.0000 0.0000 0.0000 0.0000 0.0000 30.6949
#
#
#
# Elastic Compliance Matrix: (Units=1/GPa)
#
#
# Indices 1 2 3 4 5 6 
#
# 1 0.014482 -0.006438 -0.002906 0.000000 0.000000 0.000000
# 2 -0.006438 0.016789 0.000542 0.000000 0.000000 0.000000
# 3 -0.002906 0.000542 0.013580 0.000000 0.000000 0.000000
# 4 0.000000 0.000000 0.000000 -0.065430 0.000000 0.000000
# 5 0.000000 0.000000 0.000000 0.000000 0.051237 0.000000
# 6 0.000000 0.000000 0.000000 0.000000 0.000000 0.032579
#
#
# Mechanical properties :
#
#
# Convention : Reuss Voigt Hill
#
# Bulk Modulus (GPa) = 36.70382 38.33955 37.52168
# Shear Modulus (GPa) = 55.60196 19.11882 37.36039
#
# Velocity S-wave (km/s) = 5.15778 3.02446 4.22789
# Velocity P-wave (km/s) = 7.28225 5.52630 6.46418
#
# Compressibility (1/GPa) = 0.02724512
#
# Stress axis : x y z
#
# Youngs Moduli (GPa) = 69.05008 59.56432 73.63739
#
# Poissons Ratio (x) = 0.38350 0.21402
# Poissons Ratio (y) = 0.44458 -0.03991
# Poissons Ratio (z) = 0.20069 -0.03228
#
# Static dielectric constant tensor:
#      x y z
#    x 1.919010 0.000000 0.000000 
#    y 0.000000 1.783170 0.000000 
#    z 0.000000 0.000000 1.763260 
# 
# From -- ./inp_files/55607.got.cif
#   From: 2010.05.17/outbox.cif.g08.bks.cpg/sg22_28_cif.got.tgz:55607.got - 2010.06.03 23:40:54.
