data_PCOD9327153
_publ_section_title
;
Structure prediction by ZEFSAII (Michael W. Deem and Ramdas Pophale) SiO2 
 PCOD9327153
Probable space group: F 2 2 2
;
_chemical_formula_sum "Si O2"
_cell_formula_units_Z 104
_cell_length_a 21.865373
_cell_length_b 26.008895
_cell_length_c 8.772726
_cell_angle_alpha 90.000000
_cell_angle_beta 90.000000
_cell_angle_gamma 90.000000
_cell_volume 4988.998311
_symmetry_space_group_name_H-M "F 2 2 2"
_symmetry_group_IT_number 22
_symmetry_cell_setting 'orthorhombic'
loop_
_space_group_symop_operation_xyz
x,y,z
-x,-y,z
x,-y,-z
-x,y,-z
x,1/2+y,1/2+z
-x,1/2-y,1/2+z
x,1/2-y,1/2-z
-x,1/2+y,1/2-z
1/2+x,y,1/2+z
1/2-x,-y,1/2+z
1/2+x,-y,1/2-z
1/2-x,y,1/2-z
1/2+x,1/2+y,z
1/2-x,1/2-y,z
1/2+x,1/2-y,-z
1/2-x,1/2+y,-z
loop_
_atom_site_type_symbol
_atom_site_label
_atom_site_fract_x
_atom_site_fract_y
_atom_site_fract_z
Si Si1 0.000000 0.828187 0.500000
Si Si2 0.387190 0.300471 0.656809
Si Si3 0.398886 0.000000 0.500000
Si Si4 0.304071 0.854860 0.371083
Si Si5 0.081327 0.353518 0.268844
Si Si6 0.188222 0.927034 0.845496
Si Si7 0.000000 0.082223 0.000000
Si Si8 0.660290 0.266493 0.907553
O O1 0.958916 0.799572 0.623642
O O2 0.949109 0.855196 0.397258
O O3 0.370961 0.250000 0.750000
O O4 0.363989 0.346960 0.762705
O O5 0.354900 0.285914 0.497673
O O6 0.354305 0.023239 0.371655
O O7 0.444975 0.044875 0.555740
O O8 0.250000 0.853890 0.250000
O O9 0.301531 0.903333 0.484227
O O10 0.303154 0.805742 0.485061
O O11 0.144632 0.384994 0.266258
O O12 0.100196 0.299625 0.351338
O O13 0.032758 0.382476 0.375957
O O14 0.250000 0.934816 0.750000
O O15 0.688952 0.250000 0.750000
#
# Coordination Sequence:
#
# PCOD9327153 Si02
#       8
#     8  16   8  16  16  16   8  16
#     4  12  24  33  60  84 132 160 219 265 307 366
#     4  10  24  37  54  88 124 175 222 265 312 354
#     4   9  20  42  70 102 114 157 194 254 326 401
#     4  10  24  42  63  86 127 173 218 267 320 373
#     4  10  23  38  60  93 124 176 208 258 316 363
#     4  10  23  44  70  96 128 159 209 262 323 391
#     4   9  20  41  72  89 128 158 207 246 323 407
#     4  10  20  40  56  87 127 170 227 264 310 355
#
# _framework density 20.845869
#
# number of rings (size 3 to 8) (size 9 to 14) (size 15 to 20)
#    0.000    2.000    1.538    0.000   12.923    3.385 
#    0.000    5.385    0.000    6.462    0.000    0.000 
#    0.000    0.000    0.000    0.000    0.000    0.000 
#
# Total GULP energy -144832.282826 kJ/mol
# GULP energy per Si atom -5570.472416 kJ/mol
# Density = 2.079842 g / cm^3
# Si number density = 20.845869 Si / 1000 Ang^3
#
#
#
# Elastic Constant Matrix: (Units=GPa)
#
#
# Indices 1 2 3 4 5 6 
#
# 1 130.7159 37.3351 61.5466 0.0002 -0.0001 -0.0001
# 2 37.3351 68.3806 37.1716 0.0003 -0.0002 -0.0002
# 3 61.5466 37.1716 117.8811 0.0010 -0.0004 -0.0006
# 4 0.0002 0.0003 0.0010 17.2889 -0.0005 -0.0004
# 5 -0.0001 -0.0002 -0.0004 -0.0005 53.8361 0.0003
# 6 -0.0001 -0.0002 -0.0006 -0.0004 0.0003 0.6233
#
#
#
# Elastic Compliance Matrix: (Units=1/GPa)
#
#
# Indices 1 2 3 4 5 6 
#
# 1 0.010763 -0.003406 -0.004546 0.000000 0.000000 -0.000004
# 2 -0.003406 0.018727 -0.004127 0.000000 0.000000 0.000001
# 3 -0.004546 -0.004127 0.012158 -0.000001 0.000000 0.000010
# 4 0.000000 0.000000 -0.000001 0.057841 0.000001 0.000041
# 5 0.000000 0.000000 0.000000 0.000001 0.018575 -0.000008
# 6 -0.000004 0.000001 0.000010 0.000041 -0.000008 1.604491
#
#
# Mechanical properties :
#
#
# Convention : Reuss Voigt Hill
#
# Bulk Modulus (GPa) = 57.17134 65.45380 61.31257
# Shear Modulus (GPa) = 2.85300 26.41126 14.63213
#
# Velocity S-wave (km/s) = 1.17115 3.56333 2.65225
# Velocity P-wave (km/s) = 5.41425 6.95678 6.23341
#
# Compressibility (1/GPa) = 0.01749128
#
# Stress axis : x y z
#
# Youngs Moduli (GPa) = 92.90947 53.39901 82.25140
#
# Poissons Ratio (x) = 0.18185 0.37389
# Poissons Ratio (y) = 0.31641 0.33946
# Poissons Ratio (z) = 0.42233 0.22038
#
# Static dielectric constant tensor:
#      x y z
#    x 1.853650 0.000000 0.000000 
#    y 0.000000 1.795350 0.000000 
#    z 0.000000 0.000000 1.826730 
# 
# From -- ./inp_files/12986.got.cif
#   From: 2010.05.17/outbox.cif.g08.bks.cpg/sg22_7_cif.got.tgz:12986.got - 2010.06.03 23:40:54.
