data_PCOD9327236
_publ_section_title
;
Structure prediction by ZEFSAII (Michael W. Deem and Ramdas Pophale) SiO2 
 PCOD9327236
Probable space group: F 2 2 2
;
_chemical_formula_sum "Si O2"
_cell_formula_units_Z 116
_cell_length_a 18.513911
_cell_length_b 26.942061
_cell_length_c 11.571580
_cell_angle_alpha 90.000000
_cell_angle_beta 90.000000
_cell_angle_gamma 90.000000
_cell_volume 5771.937887
_symmetry_space_group_name_H-M "F 2 2 2"
_symmetry_group_IT_number 22
_symmetry_cell_setting 'orthorhombic'
loop_
_space_group_symop_operation_xyz
x,y,z
-x,-y,z
x,-y,-z
-x,y,-z
x,1/2+y,1/2+z
-x,1/2-y,1/2+z
x,1/2-y,1/2-z
-x,1/2+y,1/2-z
1/2+x,y,1/2+z
1/2-x,-y,1/2+z
1/2+x,-y,1/2-z
1/2-x,y,1/2-z
1/2+x,1/2+y,z
1/2-x,1/2-y,z
1/2+x,1/2-y,-z
1/2-x,1/2+y,-z
loop_
_atom_site_type_symbol
_atom_site_label
_atom_site_fract_x
_atom_site_fract_y
_atom_site_fract_z
Si Si1 0.628366 0.196682 0.691977
Si Si2 0.085098 0.514066 0.868921
Si Si3 0.686964 0.103209 0.828605
Si Si4 0.254981 0.614399 0.413582
Si Si5 0.839791 0.790686 0.926495
Si Si6 0.864047 0.424361 0.273584
Si Si7 0.250000 0.750000 0.250000
Si Si8 0.021787 0.148044 0.873339
O O1 0.624627 0.250000 0.750000
O O2 0.669902 0.155492 0.766750
O O3 0.661672 0.207430 0.564986
O O4 0.549455 0.172219 0.678317
O O5 0.115502 0.568897 0.841550
O O6 0.120944 0.478094 0.775772
O O7 0.000000 0.500000 0.864381
O O8 0.108579 0.500000 0.000000
O O9 0.750000 0.078861 0.750000
O O10 0.718926 0.111547 0.955969
O O11 0.215149 0.666069 0.385964
O O12 0.190695 0.575988 0.381958
O O13 0.320797 0.604247 0.327742
O O14 0.812911 0.744367 0.852526
O O15 0.919355 0.808655 0.892571
O O16 0.936939 0.394818 0.303861
O O17 0.000000 0.128135 0.000000
#
# Coordination Sequence:
#
# PCOD9327236 Si02
#       8
#    16  16  16  16  16  16   4  16
#     4  11  25  43  64  93 137 181 227 275 335 407
#     4  11  24  42  67 102 140 178 219 278 346 412
#     4  12  25  42  70  96 138 183 228 277 344 410
#     4  10  21  41  63 100 123 174 217 279 337 397
#     4  10  22  41  62  93 127 168 219 288 340 389
#     4  10  20  41  72  92 136 167 220 280 337 402
#     4  12  24  36  70  92 128 164 230 294 352 400
#     4   9  20  42  67  90 133 175 216 276 335 394
#
# _framework density 20.097235000000001
#
# number of rings (size 3 to 8) (size 9 to 14) (size 15 to 20)
#    0.000    1.517    2.759    2.483    4.828    0.276 
#    0.000    0.000    0.000    0.000    0.000    0.000 
#    0.000    0.000    0.000    0.000    0.000    0.000 
#
# Total GULP energy -161544.786874 kJ/mol
# GULP energy per Si atom -5570.509892 kJ/mol
# Density = 2.005149 g / cm^3
# Si number density = 20.097235 Si / 1000 Ang^3
#
#
#
# Elastic Constant Matrix: (Units=GPa)
#
#
# Indices 1 2 3 4 5 6 
#
# 1 100.2034 39.6493 52.1898 0.0000 0.0000 0.0000
# 2 39.6493 73.1441 40.0503 0.0000 0.0000 0.0000
# 3 52.1898 40.0503 122.5493 0.0000 0.0000 0.0000
# 4 0.0000 0.0000 0.0000 8.9947 0.0000 0.0000
# 5 0.0000 0.0000 0.0000 0.0000 38.6314 0.0000
# 6 0.0000 0.0000 0.0000 0.0000 0.0000 -2.2410
#
#
#
# Elastic Compliance Matrix: (Units=1/GPa)
#
#
# Indices 1 2 3 4 5 6 
#
# 1 0.014393 -0.005415 -0.004360 0.000000 0.000000 0.000000
# 2 -0.005415 0.018688 -0.003802 0.000000 0.000000 0.000000
# 3 -0.004360 -0.003802 0.011259 0.000000 0.000000 0.000000
# 4 0.000000 0.000000 0.000000 0.111176 0.000000 0.000000
# 5 0.000000 0.000000 0.000000 0.000000 0.025886 0.000000
# 6 0.000000 0.000000 0.000000 0.000000 0.000000 -0.446220
#
#
# Mechanical properties :
#
#
# Convention : Reuss Voigt Hill
#
# Bulk Modulus (GPa) = 58.18003 62.18618 60.18311
# Shear Modulus (GPa) = -21.55774 20.01084 -0.77345
#
# Velocity S-wave (km/s) = -3.27872 3.15890 -0.62104
# Velocity P-wave (km/s) = 3.83129 6.65693 5.43109
#
# Compressibility (1/GPa) = 0.01718803
#
# Stress axis : x y z
#
# Youngs Moduli (GPa) = 69.47777 53.50914 88.81667
#
# Poissons Ratio (x) = 0.28974 0.38724
# Poissons Ratio (y) = 0.37621 0.33764
# Poissons Ratio (z) = 0.30292 0.20342
#
# Static dielectric constant tensor:
#      x y z
#    x 1.770750 0.000000 0.000000 
#    y 0.000000 1.776230 0.000000 
#    z 0.000000 0.000000 1.781830 
# 
# From -- ./inp_files/21824.got.cif
#   From: 2010.05.17/outbox.cif.g08.bks.cpg/sg22_11_cif.got.tgz:21824.got - 2010.06.03 23:40:54.
