data_PCOD9327211
_publ_section_title
;
Structure prediction by ZEFSAII (Michael W. Deem and Ramdas Pophale) SiO2 
 PCOD9327211
Probable space group: F 2 2 2
;
_chemical_formula_sum "Si O2"
_cell_formula_units_Z 96
_cell_length_a 19.033436
_cell_length_b 7.864875
_cell_length_c 28.311958
_cell_angle_alpha 90.000000
_cell_angle_beta 90.000000
_cell_angle_gamma 90.000000
_cell_volume 4238.175397
_symmetry_space_group_name_H-M "F 2 2 2"
_symmetry_group_IT_number 22
_symmetry_cell_setting 'orthorhombic'
loop_
_space_group_symop_operation_xyz
x,y,z
-x,-y,z
x,-y,-z
-x,y,-z
x,1/2+y,1/2+z
-x,1/2-y,1/2+z
x,1/2-y,1/2-z
-x,1/2+y,1/2-z
1/2+x,y,1/2+z
1/2-x,-y,1/2+z
1/2+x,-y,1/2-z
1/2-x,y,1/2-z
1/2+x,1/2+y,z
1/2-x,1/2-y,z
1/2+x,1/2-y,-z
1/2-x,1/2+y,-z
loop_
_atom_site_type_symbol
_atom_site_label
_atom_site_fract_x
_atom_site_fract_y
_atom_site_fract_z
Si Si1 0.356253 0.434532 0.135898
Si Si2 0.575318 0.387640 0.046625
Si Si3 0.023269 0.189028 0.384700
Si Si4 0.209601 0.567690 0.144704
Si Si5 0.088638 0.249675 0.805322
Si Si6 0.814768 0.623475 0.958523
O O1 0.372108 0.530515 0.085895
O O2 0.399460 0.259713 0.129404
O O3 0.273475 0.434325 0.147633
O O4 0.387765 0.563505 0.175275
O O5 0.507722 0.321078 0.076073
O O6 0.614460 0.219591 0.028790
O O7 0.568788 0.500000 0.000000
O O8 0.978665 0.210182 0.336804
O O9 0.000000 0.000000 0.400908
O O10 0.250000 0.750000 0.145181
O O11 0.147860 0.607517 0.181756
O O12 0.175895 0.545640 0.093172
O O13 0.076280 0.250000 0.750000
O O14 0.750000 0.750000 0.955007
O O15 0.795916 0.500000 0.000000
#
# Coordination Sequence:
#
# PCOD9327211 Si02
#       6
#    16  16  16  16  16  16
#     4  10  21  40  66  94 137 180 229 290 364 430
#     4  11  22  41  63  90 129 185 241 291 353 434
#     4  11  25  44  65  97 145 186 245 308 365 449
#     4   9  17  37  63  97 138 169 228 290 349 429
#     4  10  20  40  73 104 137 181 236 297 369 450
#     4  11  20  36  60  98 136 177 232 286 354 433
#
# _framework density 22.651256
#
# number of rings (size 3 to 8) (size 9 to 14) (size 15 to 20)
#    0.000    1.667    6.667    2.500    0.000    7.000 
#    0.000    1.667    0.000    0.000    0.000    9.333 
#    0.000    0.000    0.000    0.000    0.000    0.000 
#
# Total GULP energy -133942.553883 kJ/mol
# GULP energy per Si atom -5580.939745 kJ/mol
# Density = 2.259970 g / cm^3
# Si number density = 22.651256 Si / 1000 Ang^3
#
#
#
# Elastic Constant Matrix: (Units=GPa)
#
#
# Indices 1 2 3 4 5 6 
#
# 1 107.2265 46.0046 18.5964 0.0000 0.0000 -0.0001
# 2 46.0046 123.9419 37.8279 0.0000 0.0000 -0.0002
# 3 18.5964 37.8279 157.8397 0.0000 0.0000 0.0000
# 4 0.0000 0.0000 0.0000 18.2799 0.0000 0.0000
# 5 0.0000 0.0000 0.0000 0.0000 6.9227 0.0000
# 6 -0.0001 -0.0002 0.0000 0.0000 0.0000 33.6546
#
#
#
# Elastic Compliance Matrix: (Units=1/GPa)
#
#
# Indices 1 2 3 4 5 6 
#
# 1 0.011110 -0.004018 -0.000346 0.000000 0.000000 0.000000
# 2 -0.004018 0.010158 -0.001961 0.000000 0.000000 0.000000
# 3 -0.000346 -0.001961 0.006846 0.000000 0.000000 0.000000
# 4 0.000000 0.000000 0.000000 0.054705 0.000000 0.000000
# 5 0.000000 0.000000 0.000000 0.000000 0.144453 0.000000
# 6 0.000000 0.000000 0.000000 0.000000 0.000000 0.029714
#
#
# Mechanical properties :
#
#
# Convention : Reuss Voigt Hill
#
# Bulk Modulus (GPa) = 64.66611 65.98512 65.32561
# Shear Modulus (GPa) = 18.19561 30.87671 24.53616
#
# Velocity S-wave (km/s) = 2.83732 3.69607 3.29479
# Velocity P-wave (km/s) = 6.27251 6.88540 6.58609
#
# Compressibility (1/GPa) = 0.01546405
#
# Stress axis : x y z
#
# Youngs Moduli (GPa) = 90.00868 98.44142 146.06411
#
# Poissons Ratio (x) = 0.39556 0.05053
# Poissons Ratio (y) = 0.36168 0.28645
# Poissons Ratio (z) = 0.03114 0.19306
#
# Static dielectric constant tensor:
#      x y z
#    x 1.943730 0.000000 0.000000 
#    y 0.000000 1.954660 0.000000 
#    z 0.000000 0.000000 1.758730 
# 
# From -- ./inp_files/53856.got.cif
#   From: 2010.05.17/outbox.cif.g08.bks.cpg/sg22_27_cif.got.tgz:53856.got - 2010.06.03 23:40:54.
