data_PCOD9327624
_publ_section_title
;
Structure prediction by ZEFSAII (Michael W. Deem and Ramdas Pophale) SiO2 
 PCOD9327624
Probable space group: F 2 2 2
;
_chemical_formula_sum "Si O2"
_cell_formula_units_Z 92
_cell_length_a 22.455194
_cell_length_b 7.380670
_cell_length_c 27.449334
_cell_angle_alpha 90.000000
_cell_angle_beta 90.000000
_cell_angle_gamma 90.000000
_cell_volume 4549.298261
_symmetry_space_group_name_H-M "F 2 2 2"
_symmetry_group_IT_number 22
_symmetry_cell_setting 'orthorhombic'
loop_
_space_group_symop_operation_xyz
x,y,z
-x,-y,z
x,-y,-z
-x,y,-z
x,1/2+y,1/2+z
-x,1/2-y,1/2+z
x,1/2-y,1/2-z
-x,1/2+y,1/2-z
1/2+x,y,1/2+z
1/2-x,-y,1/2+z
1/2+x,-y,1/2-z
1/2-x,y,1/2-z
1/2+x,1/2+y,z
1/2-x,1/2-y,z
1/2+x,1/2-y,-z
1/2-x,1/2+y,-z
loop_
_atom_site_type_symbol
_atom_site_label
_atom_site_fract_x
_atom_site_fract_y
_atom_site_fract_z
Si Si1 0.753971 0.463770 0.942470
Si Si2 0.548146 0.281533 0.909314
Si Si3 0.863496 0.598441 0.603436
Si Si4 0.549866 0.186677 0.324653
Si Si5 0.109654 0.059371 0.555250
Si Si6 0.500000 0.000000 0.500000
Si Si7 0.000000 0.000000 0.744702
O O1 0.750000 0.750000 0.065376
O O2 0.704350 0.565840 0.910872
O O3 0.821401 0.520805 0.932132
O O4 0.741725 0.500000 0.000000
O O5 0.604270 0.404385 0.893455
O O6 0.494645 0.313892 0.871255
O O7 0.532649 0.363918 0.962188
O O8 0.567365 0.071936 0.913574
O O9 0.884623 0.702773 0.652267
O O10 0.893971 0.725500 0.562175
O O11 0.551191 0.014977 0.286963
O O12 0.521011 0.343618 0.291809
O O13 0.100358 0.000000 0.500000
#
# Coordination Sequence:
#
# PCOD9327624 Si02
#       7
#    16  16  16  16  16   4   8
#     4  11  22  38  60  85 123 176 230 267 299 362
#     4  12  23  39  56  89 131 169 210 252 315 385
#     4  12  22  39  58  85 127 157 209 273 308 378
#     4  11  22  41  62  95 123 158 209 256 333 386
#     4  11  24  38  56  87 122 181 226 254 298 367
#     4  12  22  36  58  84 136 190 194 264 322 376
#     4  10  21  40  68  86 122 154 203 270 312 402
#
# _framework density 20.222899000000002
#
# number of rings (size 3 to 8) (size 9 to 14) (size 15 to 20)
#    0.000    0.696    5.217    4.696    1.217    0.000 
#    0.000    0.000    0.000    0.000    0.000   20.696 
#    0.000    0.000    0.000    0.000    0.000    0.000 
#
# Total GULP energy -128103.952726 kJ/mol
# GULP energy per Si atom -5569.737075 kJ/mol
# Density = 2.017687 g / cm^3
# Si number density = 20.222899 Si / 1000 Ang^3
#
#
#
# Elastic Constant Matrix: (Units=GPa)
#
#
# Indices 1 2 3 4 5 6 
#
# 1 101.0113 33.2911 49.6794 0.0000 -0.0001 0.0000
# 2 33.2911 100.2862 24.1644 0.0000 -0.0001 0.0003
# 3 49.6794 24.1644 118.0916 0.0000 0.0000 0.0000
# 4 0.0000 0.0000 0.0000 33.7318 0.0000 0.0000
# 5 -0.0001 -0.0001 0.0000 0.0000 10.6354 0.0001
# 6 0.0000 0.0003 0.0000 0.0000 0.0001 25.5861
#
#
#
# Elastic Compliance Matrix: (Units=1/GPa)
#
#
# Indices 1 2 3 4 5 6 
#
# 1 0.013422 -0.003256 -0.004980 0.000000 0.000000 0.000000
# 2 -0.003256 0.011278 -0.000938 0.000000 0.000000 0.000000
# 3 -0.004980 -0.000938 0.010755 0.000000 0.000000 0.000000
# 4 0.000000 0.000000 0.000000 0.029646 0.000000 0.000000
# 5 0.000000 0.000000 0.000000 0.000000 0.094025 0.000000
# 6 0.000000 0.000000 0.000000 0.000000 0.000000 0.039084
#
#
# Mechanical properties :
#
#
# Convention : Reuss Voigt Hill
#
# Bulk Modulus (GPa) = 58.45465 59.29544 58.87505
# Shear Modulus (GPa) = 22.49605 28.14095 25.31850
#
# Velocity S-wave (km/s) = 3.33889 3.73438 3.54216
# Velocity P-wave (km/s) = 6.62059 6.92667 6.77536
#
# Compressibility (1/GPa) = 0.01710728
#
# Stress axis : x y z
#
# Youngs Moduli (GPa) = 74.50274 88.66605 92.97856
#
# Poissons Ratio (x) = 0.28866 0.46307
# Poissons Ratio (y) = 0.24255 0.08723
# Poissons Ratio (z) = 0.37105 0.08319
#
# Static dielectric constant tensor:
#      x y z
#    x 1.741320 0.000000 0.000000 
#    y 0.000000 1.878050 0.000000 
#    z 0.000000 0.000000 1.733580 
# 
# From -- ./inp_files/12901.got.cif
#   From: 2010.05.17/outbox.cif.g08.bks.cpg/sg22_7_cif.got.tgz:12901.got - 2010.06.03 23:40:54.
