data_PCOD9327272
_publ_section_title
;
Structure prediction by ZEFSAII (Michael W. Deem and Ramdas Pophale) SiO2 
 PCOD9327272
Probable space group: F 2 2 2
;
_chemical_formula_sum "Si O2"
_cell_formula_units_Z 88
_cell_length_a 28.911374
_cell_length_b 11.103642
_cell_length_c 13.891204
_cell_angle_alpha 90.000000
_cell_angle_beta 90.000000
_cell_angle_gamma 90.000000
_cell_volume 4459.375793
_symmetry_space_group_name_H-M "F 2 2 2"
_symmetry_group_IT_number 22
_symmetry_cell_setting 'orthorhombic'
loop_
_space_group_symop_operation_xyz
x,y,z
-x,-y,z
x,-y,-z
-x,y,-z
x,1/2+y,1/2+z
-x,1/2-y,1/2+z
x,1/2-y,1/2-z
-x,1/2+y,1/2-z
1/2+x,y,1/2+z
1/2-x,-y,1/2+z
1/2+x,-y,1/2-z
1/2-x,y,1/2-z
1/2+x,1/2+y,z
1/2-x,1/2-y,z
1/2+x,1/2-y,-z
1/2-x,1/2+y,-z
loop_
_atom_site_type_symbol
_atom_site_label
_atom_site_fract_x
_atom_site_fract_y
_atom_site_fract_z
Si Si1 0.676083 0.861450 0.887064
Si Si2 0.605473 0.750000 0.750000
Si Si3 0.452516 0.957347 0.334978
Si Si4 0.827114 0.642504 0.110573
Si Si5 0.500000 0.201838 0.500000
Si Si6 0.750000 0.750000 0.750000
Si Si7 0.076234 0.777909 0.858066
Si Si8 0.750000 0.750000 0.250000
O O1 0.636599 0.775579 0.843640
O O2 0.719347 0.832975 0.819179
O O3 0.662155 0.001014 0.876996
O O4 0.685958 0.837783 0.998820
O O5 0.575754 0.867816 0.730787
O O6 0.470972 0.881358 0.426284
O O7 0.500000 0.000000 0.285509
O O8 0.424381 0.076315 0.365282
O O9 0.873319 0.720139 0.129831
O O10 0.784965 0.676437 0.180903
O O11 0.461519 0.268050 0.435419
O O12 0.060103 0.750000 0.750000
#
# Coordination Sequence:
#
# PCOD9327272 Si02
#       8
#    16   8  16  16   8   4  16   4
#     4  10  23  41  66  92 130 163 211 271 324 388
#     4  11  22  39  65  92 122 172 215 263 332 393
#     4  10  22  38  61  90 127 167 222 268 318 388
#     4  11  23  42  64  97 132 168 216 276 330 391
#     4  10  23  40  62  91 128 175 226 268 315 394
#     4  10  20  44  68  92 126 170 214 258 324 384
#     4  11  21  39  65  92 129 171 214 277 327 385
#     4  12  24  40  70  92 130 178 220 256 342 400
#
# _framework density 19.733703999999999
#
# number of rings (size 3 to 8) (size 9 to 14) (size 15 to 20)
#    0.000    1.455    0.909    5.727    5.091    0.000 
#    0.000    0.000    4.000    1.091    0.000    0.000 
#    0.000    0.000    0.000    0.000    0.000    0.000 
#
# Total GULP energy -122817.164628 kJ/mol
# GULP energy per Si atom -5582.598392 kJ/mol
# Density = 1.968879 g / cm^3
# Si number density = 19.733704 Si / 1000 Ang^3
#
#
#
# Elastic Constant Matrix: (Units=GPa)
#
#
# Indices 1 2 3 4 5 6 
#
# 1 129.8049 52.3408 58.0565 0.0000 0.0000 0.0000
# 2 52.3408 69.4917 27.9243 0.0000 0.0000 0.0000
# 3 58.0565 27.9243 114.9765 0.0000 0.0000 0.0000
# 4 0.0000 0.0000 0.0000 29.6051 0.0000 0.0000
# 5 0.0000 0.0000 0.0000 0.0000 -11.8074 0.0000
# 6 0.0000 0.0000 0.0000 0.0000 0.0000 24.0036
#
#
#
# Elastic Compliance Matrix: (Units=1/GPa)
#
#
# Indices 1 2 3 4 5 6 
#
# 1 0.012958 -0.007902 -0.004624 0.000000 0.000000 0.000000
# 2 -0.007902 0.020765 -0.001053 0.000000 0.000000 0.000000
# 3 -0.004624 -0.001053 0.011288 0.000000 0.000000 0.000000
# 4 0.000000 0.000000 0.000000 0.033778 0.000000 0.000000
# 5 0.000000 0.000000 0.000000 0.000000 -0.084692 0.000000
# 6 0.000000 0.000000 0.000000 0.000000 0.000000 0.041660
#
#
# Mechanical properties :
#
#
# Convention : Reuss Voigt Hill
#
# Bulk Modulus (GPa) = 56.01265 65.65737 60.83501
# Shear Modulus (GPa) = 72.60373 20.09037 46.34705
#
# Velocity S-wave (km/s) = 6.07220 3.19419 4.85152
# Velocity P-wave (km/s) = 8.80954 6.85184 7.89163
#
# Compressibility (1/GPa) = 0.01785311
#
# Stress axis : x y z
#
# Youngs Moduli (GPa) = 77.17044 48.15753 88.58903
#
# Poissons Ratio (x) = 0.38054 0.40964
# Poissons Ratio (y) = 0.60980 0.09330
# Poissons Ratio (z) = 0.35684 0.05072
#
# Static dielectric constant tensor:
#      x y z
#    x 1.704240 0.000000 0.000000 
#    y 0.000000 1.726310 0.000000 
#    z 0.000000 0.000000 1.703660 
# 
# From -- ./inp_files/33095.got.cif
#   From: 2010.05.17/outbox.cif.g08.bks.cpg/sg22_17_cif.got.tgz:33095.got - 2010.06.03 23:40:54.
