data_PCOD9327340
_publ_section_title
;
Structure prediction by ZEFSAII (Michael W. Deem and Ramdas Pophale) SiO2 
 PCOD9327340
Probable space group: F 2 2 2
;
_chemical_formula_sum "Si O2"
_cell_formula_units_Z 88
_cell_length_a 21.557375
_cell_length_b 23.436569
_cell_length_c 8.824941
_cell_angle_alpha 90.000000
_cell_angle_beta 90.000000
_cell_angle_gamma 90.000000
_cell_volume 4458.632943
_symmetry_space_group_name_H-M "F 2 2 2"
_symmetry_group_IT_number 22
_symmetry_cell_setting 'orthorhombic'
loop_
_space_group_symop_operation_xyz
x,y,z
-x,-y,z
x,-y,-z
-x,y,-z
x,1/2+y,1/2+z
-x,1/2-y,1/2+z
x,1/2-y,1/2-z
-x,1/2+y,1/2-z
1/2+x,y,1/2+z
1/2-x,-y,1/2+z
1/2+x,-y,1/2-z
1/2-x,y,1/2-z
1/2+x,1/2+y,z
1/2-x,1/2-y,z
1/2+x,1/2-y,-z
1/2-x,1/2+y,-z
loop_
_atom_site_type_symbol
_atom_site_label
_atom_site_fract_x
_atom_site_fract_y
_atom_site_fract_z
Si Si1 0.055369 0.466936 0.661543
Si Si2 0.500000 0.637787 0.000000
Si Si3 0.329067 0.198914 0.867810
Si Si4 0.102730 0.772652 0.909750
Si Si5 0.317533 0.582409 0.187736
Si Si6 0.277639 0.150795 0.411791
O O1 0.062223 0.500000 0.500000
O O2 0.125335 0.459663 0.718451
O O3 0.000000 0.500000 0.747460
O O4 0.026556 0.404870 0.627309
O O5 0.443611 0.678600 0.960514
O O6 0.315518 0.250000 0.750000
O O7 0.336429 0.142104 0.768370
O O8 0.385872 0.222673 0.968094
O O9 0.274715 0.180861 0.984089
O O10 0.080029 0.750000 0.750000
O O11 0.169280 0.802506 0.885779
O O12 0.250000 0.564516 0.250000
O O13 0.306702 0.599441 0.011653
O O14 0.250000 0.133149 0.250000
#
# Coordination Sequence:
#
# PCOD9327340 Si02
#       6
#    16   8  16  16  16  16
#     4   9  19  39  67  81 107 153 199 253 313 362
#     4  10  21  38  52  82 114 152 209 242 276 368
#     4  11  21  31  52  84 125 169 191 240 295 348
#     4  12  23  33  54  85 126 170 205 233 288 350
#     4  10  21  35  60  94 122 152 203 252 311 367
#     4  11  21  33  54  84 127 158 202 239 289 349
#
# _framework density 19.736991
#
# number of rings (size 3 to 8) (size 9 to 14) (size 15 to 20)
#    0.000    1.636    5.455    0.545    5.091    2.182 
#    0.000    0.909    0.000    0.000    0.000   20.364 
#    0.000    0.000    0.000    0.000    0.000    0.000 
#
# Total GULP energy -122698.894105 kJ/mol
# GULP energy per Si atom -5577.222459 kJ/mol
# Density = 1.969207 g / cm^3
# Si number density = 19.736991 Si / 1000 Ang^3
#
#
#
# Elastic Constant Matrix: (Units=GPa)
#
#
# Indices 1 2 3 4 5 6 
#
# 1 121.2887 59.8660 28.7508 0.0000 0.0000 -0.0001
# 2 59.8660 58.4397 21.8735 0.0000 0.0000 -0.0001
# 3 28.7508 21.8735 82.2523 -0.0001 0.0002 -0.0012
# 4 0.0000 0.0000 -0.0001 7.1745 0.0001 -0.0004
# 5 0.0000 0.0000 0.0002 0.0001 15.1484 0.0005
# 6 -0.0001 -0.0001 -0.0012 -0.0004 0.0005 -145.6929
#
#
#
# Elastic Compliance Matrix: (Units=1/GPa)
#
#
# Indices 1 2 3 4 5 6 
#
# 1 0.016830 -0.016701 -0.001441 0.000000 0.000000 0.000000
# 2 -0.016701 0.035576 -0.003623 0.000000 0.000000 0.000000
# 3 -0.001441 -0.003623 0.013625 0.000000 0.000000 0.000000
# 4 0.000000 0.000000 0.000000 0.139383 -0.000001 0.000000
# 5 0.000000 0.000000 0.000000 -0.000001 0.066013 0.000000
# 6 0.000000 0.000000 0.000000 0.000000 0.000000 -0.006864
#
#
# Mechanical properties :
#
#
# Convention : Reuss Voigt Hill
#
# Bulk Modulus (GPa) = 44.44435 53.66238 49.05337
# Shear Modulus (GPa) = 15.84311 -14.57462 0.63424
#
# Velocity S-wave (km/s) = 2.83629 -2.72038 0.56749
# Velocity P-wave (km/s) = 5.77003 4.16899 5.03357
#
# Compressibility (1/GPa) = 0.02250005
#
# Stress axis : x y z
#
# Youngs Moduli (GPa) = 59.41836 28.10853 73.39416
#
# Poissons Ratio (x) = 0.46944 0.10579
# Poissons Ratio (y) = 0.99235 0.26592
# Poissons Ratio (z) = 0.08565 0.10184
#
# Static dielectric constant tensor:
#      x y z
#    x 1.749010 0.000000 0.000000 
#    y 0.000000 1.702760 0.000000 
#    z 0.000000 0.000000 1.734530 
# 
# From -- ./inp_files/12649.got.cif
#   From: 2010.05.17/outbox.cif.g08.bks.cpg/sg22_7_cif.got.tgz:12649.got - 2010.06.03 23:40:54.
