data_PCOD9327073
_publ_section_title
;
Structure prediction by ZEFSAII (Michael W. Deem and Ramdas Pophale) SiO2 
 PCOD9327073
Probable space group: F 2 2 2
;
_chemical_formula_sum "Si O2"
_cell_formula_units_Z 116
_cell_length_a 24.970367
_cell_length_b 13.894977
_cell_length_c 19.756126
_cell_angle_alpha 90.000000
_cell_angle_beta 90.000000
_cell_angle_gamma 90.000000
_cell_volume 6854.638327
_symmetry_space_group_name_H-M "F 2 2 2"
_symmetry_group_IT_number 22
_symmetry_cell_setting 'orthorhombic'
loop_
_space_group_symop_operation_xyz
x,y,z
-x,-y,z
x,-y,-z
-x,y,-z
x,1/2+y,1/2+z
-x,1/2-y,1/2+z
x,1/2-y,1/2-z
-x,1/2+y,1/2-z
1/2+x,y,1/2+z
1/2-x,-y,1/2+z
1/2+x,-y,1/2-z
1/2-x,y,1/2-z
1/2+x,1/2+y,z
1/2-x,1/2-y,z
1/2+x,1/2-y,-z
1/2-x,1/2+y,-z
loop_
_atom_site_type_symbol
_atom_site_label
_atom_site_fract_x
_atom_site_fract_y
_atom_site_fract_z
Si Si1 0.609383 0.006512 0.714449
Si Si2 0.543424 0.184240 0.316506
Si Si3 0.940671 0.470469 0.844626
Si Si4 0.938760 0.824658 0.469548
Si Si5 0.811025 0.853382 0.725132
Si Si6 0.615900 0.663537 0.608029
Si Si7 0.500000 0.500000 0.000000
Si Si8 0.436364 0.868002 0.604288
O O1 0.567197 0.920549 0.699485
O O2 0.660514 0.944278 0.738749
O O3 0.589564 0.068570 0.778836
O O4 0.607019 0.075056 0.649230
O O5 0.539259 0.250000 0.250000
O O6 0.583352 0.241629 0.367321
O O7 0.485499 0.167916 0.348796
O O8 0.941254 0.404227 0.910646
O O9 0.913196 0.571259 0.860946
O O10 0.000000 0.500000 0.825011
O O11 0.896335 0.846565 0.528795
O O12 0.919087 0.726550 0.435421
O O13 0.000000 0.815718 0.500000
O O14 0.833911 0.750000 0.750000
O O15 0.750000 0.855633 0.750000
O O16 0.826167 0.845745 0.645009
O O17 0.462677 0.437399 0.048683
#
# Coordination Sequence:
#
# PCOD9327073 Si02
#       8
#    16  16  16  16  16  16   4  16
#     4  11  22  35  53  83 111 152 195 247 287 339
#     4  12  18  33  51  79 118 152 190 233 280 340
#     4  11  20  32  50  80 116 157 196 229 277 339
#     4  12  23  33  48  79 123 166 193 220 270 359
#     4  10  20  38  65  91 104 136 196 267 318 327
#     4  11  20  34  55  82 119 147 191 244 292 348
#     4  12  20  36  44  72 110 156 194 212 264 344
#     4  12  24  32  50  75 122 166 190 214 270 359
#
# _framework density 16.922847000000001
#
# number of rings (size 3 to 8) (size 9 to 14) (size 15 to 20)
#    0.000    0.690    8.966    1.241    1.931    0.000 
#    0.000    0.000    0.000    0.000   35.862    3.862 
#    0.000    0.000    0.000    0.000    0.000    0.000 
#
# Total GULP energy -161607.218334 kJ/mol
# GULP energy per Si atom -5572.662701 kJ/mol
# Density = 1.688433 g / cm^3
# Si number density = 16.922847 Si / 1000 Ang^3
#
#
#
# Elastic Constant Matrix: (Units=GPa)
#
#
# Indices 1 2 3 4 5 6 
#
# 1 61.5151 14.2112 32.0929 0.0000 0.0000 0.0000
# 2 14.2112 45.0708 19.3160 0.0000 0.0000 0.0000
# 3 32.0929 19.3160 81.0104 0.0000 0.0000 0.0000
# 4 0.0000 0.0000 0.0000 49.9762 0.0000 0.0000
# 5 0.0000 0.0000 0.0000 0.0000 -120.6383 0.0000
# 6 0.0000 0.0000 0.0000 0.0000 0.0000 15.9566
#
#
#
# Elastic Compliance Matrix: (Units=1/GPa)
#
#
# Indices 1 2 3 4 5 6 
#
# 1 0.020948 -0.003395 -0.007489 0.000000 0.000000 0.000000
# 2 -0.003395 0.025263 -0.004679 0.000000 0.000000 0.000000
# 3 -0.007489 -0.004679 0.016426 0.000000 0.000000 0.000000
# 4 0.000000 0.000000 0.000000 0.020010 0.000000 0.000000
# 5 0.000000 0.000000 0.000000 0.000000 -0.008289 0.000000
# 6 0.000000 0.000000 0.000000 0.000000 0.000000 0.062670
#
#
# Mechanical properties :
#
#
# Convention : Reuss Voigt Hill
#
# Bulk Modulus (GPa) = 31.73475 35.42628 33.58052
# Shear Modulus (GPa) = 27.98660 -2.80935 12.58863
#
# Velocity S-wave (km/s) = 4.07108 -1.28984 2.73038
# Velocity P-wave (km/s) = 6.39465 4.33142 5.46135
#
# Compressibility (1/GPa) = 0.03151120
#
# Stress axis : x y z
#
# Youngs Moduli (GPa) = 47.73815 39.58359 60.87747
#
# Poissons Ratio (x) = 0.13440 0.45591
# Poissons Ratio (y) = 0.16209 0.28482
# Poissons Ratio (z) = 0.35751 0.18519
#
# Static dielectric constant tensor:
#      x y z
#    x 1.585890 0.000000 0.000000 
#    y 0.000000 1.727990 0.000000 
#    z 0.000000 0.000000 1.661270 
# 
# From -- ./inp_files/40105.got.cif
#   From: 2010.05.17/outbox.cif.g08.bks.cpg/sg22_21_cif.got.tgz:40105.got - 2010.06.03 23:40:54.
