data_PCOD9327427
_publ_section_title
;
Structure prediction by ZEFSAII (Michael W. Deem and Ramdas Pophale) SiO2 
 PCOD9327427
Probable space group: F 2 2 2
;
_chemical_formula_sum "Si O2"
_cell_formula_units_Z 112
_cell_length_a 26.127472
_cell_length_b 14.066075
_cell_length_c 14.216060
_cell_angle_alpha 90.000000
_cell_angle_beta 90.000000
_cell_angle_gamma 90.000000
_cell_volume 5224.558152
_symmetry_space_group_name_H-M "F 2 2 2"
_symmetry_group_IT_number 22
_symmetry_cell_setting 'orthorhombic'
loop_
_space_group_symop_operation_xyz
x,y,z
-x,-y,z
x,-y,-z
-x,y,-z
x,1/2+y,1/2+z
-x,1/2-y,1/2+z
x,1/2-y,1/2-z
-x,1/2+y,1/2-z
1/2+x,y,1/2+z
1/2-x,-y,1/2+z
1/2+x,-y,1/2-z
1/2-x,y,1/2-z
1/2+x,1/2+y,z
1/2-x,1/2-y,z
1/2+x,1/2-y,-z
1/2-x,1/2+y,-z
loop_
_atom_site_type_symbol
_atom_site_label
_atom_site_fract_x
_atom_site_fract_y
_atom_site_fract_z
Si Si1 0.119377 0.649462 0.801562
Si Si2 0.918374 0.862571 0.742508
Si Si3 0.454102 0.755067 0.939487
Si Si4 0.615636 0.395627 0.048661
Si Si5 0.321652 0.469470 0.696790
Si Si6 0.279051 0.436487 0.906107
Si Si7 0.520066 0.094868 0.699770
O O1 0.132513 0.750000 0.750000
O O2 0.084996 0.674082 0.891132
O O3 0.165519 0.579337 0.825518
O O4 0.078317 0.594085 0.735189
O O5 0.913216 0.750000 0.750000
O O6 0.907249 0.898785 0.847786
O O7 0.873449 0.909380 0.682803
O O8 0.976578 0.892297 0.720004
O O9 0.481815 0.689758 0.861249
O O10 0.500000 0.796980 0.000000
O O11 0.418663 0.679161 0.993621
O O12 0.675657 0.365774 0.059251
O O13 0.614553 0.500000 0.000000
O O14 0.304972 0.473742 0.807657
O O15 0.277604 0.420176 0.634568
O O16 0.272327 0.500000 0.000000
O O17 0.500000 0.000000 0.648627
#
# Coordination Sequence:
#
# PCOD9327427 Si02
#       7
#    16  16  16  16  16  16  16
#     4  10  23  37  61  91 131 170 212 260 323 404
#     4  11  21  37  63  92 127 168 207 261 327 390
#     4  11  22  34  57  98 135 158 209 267 316 388
#     4  10  21  37  63  89 122 161 207 275 326 366
#     4  10  21  44  64  88 127 172 214 274 333 383
#     4   9  21  40  69  88 119 163 223 276 325 378
#     4  11  20  35  59  92 125 171 210 250 328 398
#
# _framework density 21.43722
#
# number of rings (size 3 to 8) (size 9 to 14) (size 15 to 20)
#    0.000    1.714    2.857    2.143   10.000    0.000 
#    2.571    7.143    3.143    0.000    0.000    0.000 
#    0.000    0.000    0.000    0.000    0.000    0.000 
#
# Total GULP energy -155938.364747 kJ/mol
# GULP energy per Si atom -5569.227312 kJ/mol
# Density = 2.138843 g / cm^3
# Si number density = 21.437220 Si / 1000 Ang^3
#
#
#
# Elastic Constant Matrix: (Units=GPa)
#
#
# Indices 1 2 3 4 5 6 
#
# 1 112.9888 18.1242 6.1267 0.0000 0.0000 0.0000
# 2 18.1242 58.4985 -5.8580 0.0000 0.0000 0.0000
# 3 6.1267 -5.8580 51.8470 0.0000 0.0000 0.0000
# 4 0.0000 0.0000 0.0000 16.3258 0.0000 0.0000
# 5 0.0000 0.0000 0.0000 0.0000 22.2748 0.0000
# 6 0.0000 0.0000 0.0000 0.0000 0.0000 15.6575
#
#
#
# Elastic Compliance Matrix: (Units=1/GPa)
#
#
# Indices 1 2 3 4 5 6 
#
# 1 0.009421 -0.003065 -0.001460 0.000000 0.000000 0.000000
# 2 -0.003065 0.018287 0.002428 0.000000 0.000000 0.000000
# 3 -0.001460 0.002428 0.019734 0.000000 0.000000 0.000000
# 4 0.000000 0.000000 0.000000 0.061253 0.000000 0.000000
# 5 0.000000 0.000000 0.000000 0.000000 0.044894 0.000000
# 6 0.000000 0.000000 0.000000 0.000000 0.000000 0.063867
#
#
# Mechanical properties :
#
#
# Convention : Reuss Voigt Hill
#
# Bulk Modulus (GPa) = 23.12123 28.90224 26.01173
# Shear Modulus (GPa) = 21.18052 24.51438 22.84745
#
# Velocity S-wave (km/s) = 3.14670 3.38530 3.26818
# Velocity P-wave (km/s) = 4.90013 5.36581 5.13824
#
# Compressibility (1/GPa) = 0.04325030
#
# Stress axis : x y z
#
# Youngs Moduli (GPa) = 106.14311 54.68283 50.67299
#
# Poissons Ratio (x) = 0.16761 0.07396
# Poissons Ratio (y) = 0.32534 -0.12305
# Poissons Ratio (z) = 0.15493 -0.13279
#
# Static dielectric constant tensor:
#      x y z
#    x 1.861650 0.000000 0.000000 
#    y 0.000000 1.858060 0.000000 
#    z 0.000000 0.000000 1.823650 
# 
# From -- ./inp_files/32520.got.cif
#   From: 2010.05.17/outbox.cif.g08.bks.cpg/sg22_17_cif.got.tgz:32520.got - 2010.06.03 23:40:54.
