data_PCOD9327010
_publ_section_title
;
Structure prediction by ZEFSAII (Michael W. Deem and Ramdas Pophale) SiO2 
 PCOD9327010
Probable space group: F 2 2 2
;
_chemical_formula_sum "Si O2"
_cell_formula_units_Z 100
_cell_length_a 14.201401
_cell_length_b 13.952851
_cell_length_c 23.865973
_cell_angle_alpha 90.000000
_cell_angle_beta 90.000000
_cell_angle_gamma 90.000000
_cell_volume 4729.043317
_symmetry_space_group_name_H-M "F 2 2 2"
_symmetry_group_IT_number 22
_symmetry_cell_setting 'orthorhombic'
loop_
_space_group_symop_operation_xyz
x,y,z
-x,-y,z
x,-y,-z
-x,y,-z
x,1/2+y,1/2+z
-x,1/2-y,1/2+z
x,1/2-y,1/2-z
-x,1/2+y,1/2-z
1/2+x,y,1/2+z
1/2-x,-y,1/2+z
1/2+x,-y,1/2-z
1/2-x,y,1/2-z
1/2+x,1/2+y,z
1/2-x,1/2-y,z
1/2+x,1/2-y,-z
1/2-x,1/2+y,-z
loop_
_atom_site_type_symbol
_atom_site_label
_atom_site_fract_x
_atom_site_fract_y
_atom_site_fract_z
Si Si1 0.682896 0.941726 0.696700
Si Si2 0.132302 0.132225 0.156423
Si Si3 0.750000 0.750000 0.250000
Si Si4 0.318894 0.342227 0.624134
Si Si5 0.218495 0.102796 0.032953
Si Si6 0.612208 0.290525 0.495123
Si Si7 0.041134 0.732465 0.309717
O O1 0.750000 0.954232 0.750000
O O2 0.754589 0.928488 0.644507
O O3 0.621123 0.846662 0.701466
O O4 0.615011 0.029254 0.684210
O O5 0.194002 0.184624 0.204503
O O6 0.177260 0.112148 0.095740
O O7 0.036822 0.192138 0.148616
O O8 0.250000 0.250000 0.626313
O O9 0.361775 0.341516 0.563183
O O10 0.404450 0.323457 0.666476
O O11 0.325460 0.144075 0.036953
O O12 0.158084 0.183702 0.998418
O O13 0.213441 0.000000 0.000000
O O14 0.500000 0.286631 0.500000
O O15 0.994336 0.750000 0.250000
#
# Coordination Sequence:
#
# PCOD9327010 Si02
#       7
#    16  16   4  16  16  16  16
#     4  11  22  40  64  99 126 168 216 278 332 394
#     4  12  25  43  64  92 141 180 223 275 346 417
#     4  12  24  40  64  88 132 196 216 258 356 432
#     4  10  20  37  68  94 125 167 217 277 335 396
#     4  11  25  46  70 100 139 183 236 291 352 412
#     4  11  23  45  69  99 134 177 230 285 351 415
#     4  11  22  39  66 100 128 167 222 276 337 408
#
# _framework density 21.145927
#
# number of rings (size 3 to 8) (size 9 to 14) (size 15 to 20)
#    0.000    0.960    4.800    3.360    2.240    0.640 
#    2.880    0.000    0.000    0.000    0.000    0.000 
#    0.000    0.000    0.000    0.000    0.000    0.000 
#
# Total GULP energy -139410.686128 kJ/mol
# GULP energy per Si atom -5576.427445 kJ/mol
# Density = 2.109780 g / cm^3
# Si number density = 21.145927 Si / 1000 Ang^3
#
#
#
# Elastic Constant Matrix: (Units=GPa)
#
#
# Indices 1 2 3 4 5 6 
#
# 1 120.3991 25.9242 29.7600 0.0000 0.0000 0.0000
# 2 25.9242 65.5205 18.9994 0.0000 0.0000 0.0000
# 3 29.7600 18.9994 99.7560 0.0000 0.0000 0.0000
# 4 0.0000 0.0000 0.0000 18.5145 0.0000 0.0000
# 5 0.0000 0.0000 0.0000 0.0000 23.3416 0.0000
# 6 0.0000 0.0000 0.0000 0.0000 0.0000 12.5204
#
#
#
# Elastic Compliance Matrix: (Units=1/GPa)
#
#
# Indices 1 2 3 4 5 6 
#
# 1 0.009534 -0.003120 -0.002250 0.000000 0.000000 0.000000
# 2 -0.003120 0.017175 -0.002341 0.000000 0.000000 0.000000
# 3 -0.002250 -0.002341 0.011141 0.000000 0.000000 0.000000
# 4 0.000000 0.000000 0.000000 0.054012 0.000000 0.000000
# 5 0.000000 0.000000 0.000000 0.000000 0.042842 0.000000
# 6 0.000000 0.000000 0.000000 0.000000 0.000000 0.079870
#
#
# Mechanical properties :
#
#
# Convention : Reuss Voigt Hill
#
# Bulk Modulus (GPa) = 44.58286 48.33812 46.46049
# Shear Modulus (GPa) = 21.05522 24.94143 22.99832
#
# Velocity S-wave (km/s) = 3.15891 3.43810 3.30146
# Velocity P-wave (km/s) = 5.86806 6.21849 6.04582
#
# Compressibility (1/GPa) = 0.02243015
#
# Stress axis : x y z
#
# Youngs Moduli (GPa) = 104.89245 58.22262 89.75484
#
# Poissons Ratio (x) = 0.18164 0.20195
# Poissons Ratio (y) = 0.32723 0.21007
# Poissons Ratio (z) = 0.23600 0.13627
#
# Static dielectric constant tensor:
#      x y z
#    x 1.762350 0.000000 0.000000 
#    y 0.000000 1.761230 0.000000 
#    z 0.000000 0.000000 1.820000 
# 
# From -- ./inp_files/48920.got.cif
#   From: 2010.05.17/outbox.cif.g08.bks.cpg/sg22_25_cif.got.tgz:48920.got - 2010.06.03 23:40:54.
