data_PCOD9327302
_publ_section_title
;
Structure prediction by ZEFSAII (Michael W. Deem and Ramdas Pophale) SiO2 
 PCOD9327302
Probable space group: F 2 2 2
;
_chemical_formula_sum "Si O2"
_cell_formula_units_Z 68
_cell_length_a 8.051661
_cell_length_b 19.955190
_cell_length_c 23.479265
_cell_angle_alpha 90.000000
_cell_angle_beta 90.000000
_cell_angle_gamma 90.000000
_cell_volume 3772.470446
_symmetry_space_group_name_H-M "F 2 2 2"
_symmetry_group_IT_number 22
_symmetry_cell_setting 'orthorhombic'
loop_
_space_group_symop_operation_xyz
x,y,z
-x,-y,z
x,-y,-z
-x,y,-z
x,1/2+y,1/2+z
-x,1/2-y,1/2+z
x,1/2-y,1/2-z
-x,1/2+y,1/2-z
1/2+x,y,1/2+z
1/2-x,-y,1/2+z
1/2+x,-y,1/2-z
1/2-x,y,1/2-z
1/2+x,1/2+y,z
1/2-x,1/2-y,z
1/2+x,1/2-y,-z
1/2-x,1/2+y,-z
loop_
_atom_site_type_symbol
_atom_site_label
_atom_site_fract_x
_atom_site_fract_y
_atom_site_fract_z
Si Si1 0.667606 0.467467 0.633902
Si Si2 0.543691 0.920465 0.436943
Si Si3 0.750000 0.250000 0.750000
Si Si4 0.992915 0.138757 0.714073
Si Si5 0.165124 0.894704 0.167928
O O1 0.500000 0.500000 0.608284
O O2 0.769893 0.424673 0.587770
O O3 0.607358 0.420760 0.684796
O O4 0.775891 0.527801 0.661010
O O5 0.500000 0.895719 0.500000
O O6 0.433334 0.882440 0.390120
O O7 0.500000 0.000000 0.437416
O O8 0.874016 0.202512 0.715011
O O9 0.048220 0.118127 0.777849
O O10 0.165806 0.146214 0.679602
#
# Coordination Sequence:
#
# PCOD9327302 Si02
#       5
#    16  16   4  16  16
#     4   9  18  32  53  81 107 135 169 209 256 308
#     4   9  17  30  47  74 111 142 165 199 252 310
#     4  12  24  34  48  72 108 138 168 218 268 312
#     4  10  21  34  50  77 104 134 172 212 263 313
#     4   9  19  33  53  77 106 135 167 210 258 314
#
# _framework density 18.025323
#
# number of rings (size 3 to 8) (size 9 to 14) (size 15 to 20)
#    0.000    2.588    0.000    1.412    0.000   23.529 
#    0.000   20.000    0.000    0.000    0.000   26.353 
#    0.000    0.000    0.000    0.000    0.000    0.000 
#
# Total GULP energy -94703.496710 kJ/mol
# GULP energy per Si atom -5570.793924 kJ/mol
# Density = 1.798430 g / cm^3
# Si number density = 18.025323 Si / 1000 Ang^3
#
#
#
# Elastic Constant Matrix: (Units=GPa)
#
#
# Indices 1 2 3 4 5 6 
#
# 1 133.1154 45.9996 87.0947 0.0000 0.0000 0.0000
# 2 45.9996 34.5066 24.7165 0.0000 0.0000 0.0000
# 3 87.0947 24.7165 138.8128 0.0000 0.0000 0.0000
# 4 0.0000 0.0000 0.0000 -4.1297 0.0000 0.0000
# 5 0.0000 0.0000 0.0000 0.0000 13.7524 0.0000
# 6 0.0000 0.0000 0.0000 0.0000 0.0000 34.1335
#
#
#
# Elastic Compliance Matrix: (Units=1/GPa)
#
#
# Indices 1 2 3 4 5 6 
#
# 1 0.021014 -0.021284 -0.009395 0.000000 0.000000 0.000000
# 2 -0.021284 0.054773 0.003601 0.000000 0.000000 0.000000
# 3 -0.009395 0.003601 0.012457 0.000000 0.000000 0.000000
# 4 0.000000 0.000000 0.000000 -0.242147 0.000000 0.000000
# 5 0.000000 0.000000 0.000000 0.000000 0.072715 0.000000
# 6 0.000000 0.000000 0.000000 0.000000 0.000000 0.029297
#
#
# Mechanical properties :
#
#
# Convention : Reuss Voigt Hill
#
# Bulk Modulus (GPa) = 29.33452 69.11738 49.22595
# Shear Modulus (GPa) = 366.89574 18.65949 192.77761
#
# Velocity S-wave (km/s) = 14.28238 3.22091 10.35280
# Velocity P-wave (km/s) = 16.97915 7.22912 13.04898
#
# Compressibility (1/GPa) = 0.03408953
#
# Stress axis : x y z
#
# Youngs Moduli (GPa) = 47.58693 18.25715 80.27317
#
# Poissons Ratio (x) = 0.38858 0.75418
# Poissons Ratio (y) = 1.01283 -0.28909
# Poissons Ratio (z) = 0.44709 -0.06575
#
# Static dielectric constant tensor:
#      x y z
#    x 1.691810 0.000000 0.000000 
#    y 0.000000 1.616920 0.000000 
#    z 0.000000 0.000000 1.614540 
# 
# From -- ./inp_files/11450.got.cif
#   From: 2010.05.17/outbox.cif.g08.bks.cpg/sg22_6_cif.got.tgz:11450.got - 2010.06.03 23:40:54.
