data_PCOD9327520
_publ_section_title
;
Structure prediction by ZEFSAII (Michael W. Deem and Ramdas Pophale) SiO2 
 PCOD9327520
Probable space group: F 2 2 2
;
_chemical_formula_sum "Si O2"
_cell_formula_units_Z 52
_cell_length_a 21.143976
_cell_length_b 23.153953
_cell_length_c 5.103335
_cell_angle_alpha 90.000000
_cell_angle_beta 90.000000
_cell_angle_gamma 90.000000
_cell_volume 2498.422500
_symmetry_space_group_name_H-M "F 2 2 2"
_symmetry_group_IT_number 22
_symmetry_cell_setting 'orthorhombic'
loop_
_space_group_symop_operation_xyz
x,y,z
-x,-y,z
x,-y,-z
-x,y,-z
x,1/2+y,1/2+z
-x,1/2-y,1/2+z
x,1/2-y,1/2-z
-x,1/2+y,1/2-z
1/2+x,y,1/2+z
1/2-x,-y,1/2+z
1/2+x,-y,1/2-z
1/2-x,y,1/2-z
1/2+x,1/2+y,z
1/2-x,1/2-y,z
1/2+x,1/2-y,-z
1/2-x,1/2+y,-z
loop_
_atom_site_type_symbol
_atom_site_label
_atom_site_fract_x
_atom_site_fract_y
_atom_site_fract_z
Si Si1 0.439087 0.811828 0.634794
Si Si2 0.826228 0.465181 0.249125
Si Si3 0.142401 0.666738 0.139001
Si Si4 0.250000 0.750000 0.250000
O O1 0.500000 0.841444 0.500000
O O2 0.460618 0.750000 0.750000
O O3 0.391652 0.805591 0.391961
O O4 0.401903 0.837767 0.882656
O O5 0.849858 0.500000 0.500000
O O6 0.750000 0.468647 0.250000
O O7 0.841737 0.398008 0.229358
O O8 0.850325 0.500000 0.000000
O O9 0.204430 0.706210 0.088943
#
# Coordination Sequence:
#
# PCOD9327520 Si02
#       4
#    16  16  16   4
#     4  12  24  42  64  94 130 181 225 263 322 398
#     4  10  21  39  62  92 130 177 218 258 324 404
#     4  12  24  41  67  97 142 168 213 282 328 402
#     4  12  24  42  60 114 140 174 200 270 368 398
#
# _framework density 20.813134000000002
#
# number of rings (size 3 to 8) (size 9 to 14) (size 15 to 20)
#    0.000    0.615    4.615    4.615    0.000    2.462 
#    0.000    0.000    0.000   13.846    0.000    0.000 
#    0.000    0.000    0.000    0.000    0.000    0.000 
#
# Total GULP energy -72558.121694 kJ/mol
# GULP energy per Si atom -5581.393976 kJ/mol
# Density = 2.076576 g / cm^3
# Si number density = 20.813134 Si / 1000 Ang^3
#
#
#
# Elastic Constant Matrix: (Units=GPa)
#
#
# Indices 1 2 3 4 5 6 
#
# 1 73.4340 31.7109 52.5336 -0.0260 -0.4453 0.1598
# 2 31.7109 136.8582 56.1679 -0.1269 -0.3967 0.0383
# 3 52.5336 56.1679 189.2026 -0.1084 -0.3612 0.1307
# 4 -0.0260 -0.1269 -0.1084 29.0729 -0.2397 0.0277
# 5 -0.4453 -0.3967 -0.3612 -0.2397 -25.7656 0.1063
# 6 0.1598 0.0383 0.1307 0.0277 0.1063 7.4046
#
#
#
# Elastic Compliance Matrix: (Units=1/GPa)
#
#
# Indices 1 2 3 4 5 6 
#
# 1 0.017640 -0.002366 -0.004196 -0.000012 -0.000211 -0.000291
# 2 -0.002366 0.008638 -0.001907 0.000028 -0.000065 0.000041
# 3 -0.004196 -0.001907 0.007017 0.000014 0.000003 -0.000024
# 4 -0.000012 0.000028 0.000014 0.034394 -0.000321 -0.000124
# 5 -0.000211 -0.000065 0.000003 -0.000321 -0.038802 0.000563
# 6 -0.000291 0.000041 -0.000024 -0.000124 0.000563 0.135051
#
#
# Mechanical properties :
#
#
# Convention : Reuss Voigt Hill
#
# Bulk Modulus (GPa) = 61.13868 75.59107 68.36488
# Shear Modulus (GPa) = 26.83438 19.41454 23.12446
#
# Velocity S-wave (km/s) = 3.59458 3.05749 3.33686
# Velocity P-wave (km/s) = 6.83131 6.99015 6.91118
#
# Compressibility (1/GPa) = 0.01635626
#
# Stress axis : x y z
#
# Youngs Moduli (GPa) = 56.68830 115.77157 142.51833
#
# Poissons Ratio (x) = 0.27390 0.59798
# Poissons Ratio (y) = 0.13412 0.27185
# Poissons Ratio (z) = 0.23785 0.22083
#
# Static dielectric constant tensor:
#      x y z
#    x 1.803350 -0.000060 0.000090 
#    y -0.000060 1.808160 0.000100 
#    z 0.000090 0.000100 1.724520 
# 
# From -- ./inp_files/3305.got.cif
#   From: 2010.05.17/outbox.cif.g08.bks.cpg/sg22_2_cif.got.tgz:3305.got - 2010.06.03 23:40:54.
