data_PCOD9327014
_publ_section_title
;
Structure prediction by ZEFSAII (Michael W. Deem and Ramdas Pophale) SiO2 
 PCOD9327014
Probable space group: F 2 2 2
;
_chemical_formula_sum "Si O2"
_cell_formula_units_Z 104
_cell_length_a 25.082510
_cell_length_b 9.699463
_cell_length_c 21.615636
_cell_angle_alpha 90.000000
_cell_angle_beta 90.000000
_cell_angle_gamma 90.000000
_cell_volume 5258.800592
_symmetry_space_group_name_H-M "F 2 2 2"
_symmetry_group_IT_number 22
_symmetry_cell_setting 'orthorhombic'
loop_
_space_group_symop_operation_xyz
x,y,z
-x,-y,z
x,-y,-z
-x,y,-z
x,1/2+y,1/2+z
-x,1/2-y,1/2+z
x,1/2-y,1/2-z
-x,1/2+y,1/2-z
1/2+x,y,1/2+z
1/2-x,-y,1/2+z
1/2+x,-y,1/2-z
1/2-x,y,1/2-z
1/2+x,1/2+y,z
1/2-x,1/2-y,z
1/2+x,1/2-y,-z
1/2-x,1/2+y,-z
loop_
_atom_site_type_symbol
_atom_site_label
_atom_site_fract_x
_atom_site_fract_y
_atom_site_fract_z
Si Si1 0.735079 0.588019 0.939515
Si Si2 0.579373 0.412348 0.561675
Si Si3 0.400443 0.415629 0.748720
Si Si4 0.128707 0.862859 0.121571
Si Si5 0.500000 0.500000 0.336727
Si Si6 0.169309 0.558731 0.142117
Si Si7 0.061567 0.161933 0.989921
O O1 0.750000 0.750000 0.950403
O O2 0.673335 0.568049 0.921461
O O3 0.771297 0.538627 0.881832
O O4 0.748261 0.500000 0.000000
O O5 0.564194 0.500000 0.500000
O O6 0.533246 0.406774 0.614051
O O7 0.629415 0.487613 0.593263
O O8 0.592950 0.260809 0.536408
O O9 0.398113 0.250000 0.750000
O O10 0.393455 0.450253 0.821014
O O11 0.453952 0.446712 0.709792
O O12 0.351633 0.481011 0.709904
O O13 0.158853 0.723246 0.141695
O O14 0.080021 0.811824 0.079648
O O15 0.000000 0.196795 0.000000
O O16 0.068365 0.000000 0.000000
#
# Coordination Sequence:
#
# PCOD9327014 Si02
#       7
#    16  16  16  16   8  16  16
#     4  10  21  36  61  90 117 149 194 244 313 356
#     4  11  19  34  61  85 117 147 202 256 297 356
#     4   9  20  36  55  81 118 149 202 247 291 357
#     4  10  20  38  55  82 122 157 192 246 298 368
#     4  10  21  34  56  88 109 162 210 250 300 348
#     4   9  19  35  59  88 110 150 197 253 295 341
#     4  11  24  36  53  85 122 159 192 238 309 363
#
# _framework density 19.776373
#
# number of rings (size 3 to 8) (size 9 to 14) (size 15 to 20)
#    0.000    2.000    1.538    2.077    6.462    1.846 
#    0.000    3.077    0.000    0.000    0.000    1.077 
#    0.000    0.000    0.000    0.000    0.000    0.000 
#
# Total GULP energy -144788.610641 kJ/mol
# GULP energy per Si atom -5568.792717 kJ/mol
# Density = 1.973136 g / cm^3
# Si number density = 19.776373 Si / 1000 Ang^3
#
#
#
# Elastic Constant Matrix: (Units=GPa)
#
#
# Indices 1 2 3 4 5 6 
#
# 1 89.1321 0.5844 49.8954 0.0000 0.0000 0.0000
# 2 0.5844 50.7658 18.6610 0.0000 0.0000 0.0000
# 3 49.8954 18.6610 129.4478 0.0000 0.0000 0.0000
# 4 0.0000 0.0000 0.0000 24.1780 0.0000 0.0000
# 5 0.0000 0.0000 0.0000 0.0000 24.6621 0.0000
# 6 0.0000 0.0000 0.0000 0.0000 0.0000 6.4560
#
#
#
# Elastic Compliance Matrix: (Units=1/GPa)
#
#
# Indices 1 2 3 4 5 6 
#
# 1 0.014495 0.001992 -0.005874 0.000000 0.000000 0.000000
# 2 0.001992 0.021074 -0.003806 0.000000 0.000000 0.000000
# 3 -0.005874 -0.003806 0.010538 0.000000 0.000000 0.000000
# 4 0.000000 0.000000 0.000000 0.041360 0.000000 0.000000
# 5 0.000000 0.000000 0.000000 0.000000 0.040548 0.000000
# 6 0.000000 0.000000 0.000000 0.000000 0.000000 0.154894
#
#
# Mechanical properties :
#
#
# Convention : Reuss Voigt Hill
#
# Bulk Modulus (GPa) = 32.53996 45.29193 38.91594
# Shear Modulus (GPa) = 16.20598 24.40622 20.30610
#
# Velocity S-wave (km/s) = 2.86573 3.51680 3.20783
# Velocity P-wave (km/s) = 5.23828 6.28031 5.78281
#
# Compressibility (1/GPa) = 0.03073144
#
# Stress axis : x y z
#
# Youngs Moduli (GPa) = 68.99161 47.45093 94.89510
#
# Poissons Ratio (x) = -0.09454 0.55742
# Poissons Ratio (y) = -0.13746 0.36117
# Poissons Ratio (z) = 0.40526 0.18060
#
# Static dielectric constant tensor:
#      x y z
#    x 1.730570 0.000000 0.000000 
#    y 0.000000 1.715260 0.000000 
#    z 0.000000 0.000000 1.792000 
# 
# From -- ./inp_files/45771.got.cif
#   From: 2010.05.17/outbox.cif.g08.bks.cpg/sg22_23_cif.got.tgz:45771.got - 2010.06.03 23:40:54.
