data_PCOD9327154
_publ_section_title
;
Structure prediction by ZEFSAII (Michael W. Deem and Ramdas Pophale) SiO2 
 PCOD9327154
Probable space group: F 2 2 2
;
_chemical_formula_sum "Si O2"
_cell_formula_units_Z 104
_cell_length_a 24.430144
_cell_length_b 16.282380
_cell_length_c 12.665879
_cell_angle_alpha 90.000000
_cell_angle_beta 90.000000
_cell_angle_gamma 90.000000
_cell_volume 5038.244597
_symmetry_space_group_name_H-M "F 2 2 2"
_symmetry_group_IT_number 22
_symmetry_cell_setting 'orthorhombic'
loop_
_space_group_symop_operation_xyz
x,y,z
-x,-y,z
x,-y,-z
-x,y,-z
x,1/2+y,1/2+z
-x,1/2-y,1/2+z
x,1/2-y,1/2-z
-x,1/2+y,1/2-z
1/2+x,y,1/2+z
1/2-x,-y,1/2+z
1/2+x,-y,1/2-z
1/2-x,y,1/2-z
1/2+x,1/2+y,z
1/2-x,1/2-y,z
1/2+x,1/2-y,-z
1/2-x,1/2+y,-z
loop_
_atom_site_type_symbol
_atom_site_label
_atom_site_fract_x
_atom_site_fract_y
_atom_site_fract_z
Si Si1 0.596155 0.204100 0.863256
Si Si2 0.193592 0.367643 0.692389
Si Si3 0.507697 0.309170 0.110257
Si Si4 0.102828 0.750000 0.250000
Si Si5 0.545825 0.562326 0.263866
Si Si6 0.352683 0.532187 0.881184
Si Si7 0.693349 0.204383 0.544199
O O1 0.606461 0.250000 0.750000
O O2 0.539231 0.241308 0.903085
O O3 0.584923 0.108514 0.846380
O O4 0.645425 0.230076 0.936948
O O5 0.250000 0.350949 0.750000
O O6 0.143176 0.327774 0.756198
O O7 0.184421 0.464460 0.676100
O O8 0.194894 0.325504 0.576915
O O9 0.563863 0.269025 0.149656
O O10 0.489182 0.367220 0.205338
O O11 0.500000 0.357010 0.000000
O O12 0.500000 0.500000 0.303781
O O13 0.588676 0.530584 0.176573
O O14 0.325037 0.622546 0.889742
O O15 0.360513 0.500000 0.000000
O O16 0.750000 0.250000 0.572845
#
# Coordination Sequence:
#
# PCOD9327154 Si02
#       7
#    16  16  16   8  16  16  16
#     4  10  20  40  56  94 132 162 227 270 318 415
#     4  11  25  43  64  98 133 170 234 283 333 415
#     4  11  22  36  60  94 130 165 221 277 322 403
#     4  12  21  38  64  90 123 178 214 270 354 378
#     4  11  22  37  60  93 134 174 216 276 336 395
#     4  10  23  39  60  96 134 171 222 281 337 399
#     4  11  22  42  70  96 132 179 222 280 348 402
#
# _framework density 20.642109999999999
#
# number of rings (size 3 to 8) (size 9 to 14) (size 15 to 20)
#    0.000    1.231    5.385    3.000    4.308    1.538 
#    0.000    0.000    0.000    0.462    0.000    0.000 
#    0.000    0.000    0.000    0.000    0.000    0.000 
#
# Total GULP energy -145099.324009 kJ/mol
# GULP energy per Si atom -5580.743231 kJ/mol
# Density = 2.059513 g / cm^3
# Si number density = 20.642110 Si / 1000 Ang^3
#
#
#
# Elastic Constant Matrix: (Units=GPa)
#
#
# Indices 1 2 3 4 5 6 
#
# 1 174.2597 60.7456 45.6729 0.0000 0.0000 0.0000
# 2 60.7456 107.2841 30.5112 0.0000 0.0000 0.0000
# 3 45.6729 30.5112 48.1205 0.0000 0.0000 0.0000
# 4 0.0000 0.0000 0.0000 18.4178 0.0000 0.0000
# 5 0.0000 0.0000 0.0000 0.0000 32.1952 0.0000
# 6 0.0000 0.0000 0.0000 0.0000 0.0000 15.0951
#
#
#
# Elastic Compliance Matrix: (Units=1/GPa)
#
#
# Indices 1 2 3 4 5 6 
#
# 1 0.008374 -0.003027 -0.006029 0.000000 0.000000 0.000000
# 2 -0.003027 0.012466 -0.005031 0.000000 0.000000 0.000000
# 3 -0.006029 -0.005031 0.029693 0.000000 0.000000 0.000000
# 4 0.000000 0.000000 0.000000 0.054295 0.000000 0.000000
# 5 0.000000 0.000000 0.000000 0.000000 0.031061 0.000000
# 6 0.000000 0.000000 0.000000 0.000000 0.000000 0.066247
#
#
# Mechanical properties :
#
#
# Convention : Reuss Voigt Hill
#
# Bulk Modulus (GPa) = 44.72374 67.05819 55.89097
# Shear Modulus (GPa) = 21.02946 25.99059 23.51002
#
# Velocity S-wave (km/s) = 3.19527 3.55224 3.37847
# Velocity P-wave (km/s) = 5.94360 7.02717 6.50798
#
# Compressibility (1/GPa) = 0.02235949
#
# Stress axis : x y z
#
# Youngs Moduli (GPa) = 119.42029 80.22015 33.67765
#
# Poissons Ratio (x) = 0.24281 0.20303
# Poissons Ratio (y) = 0.36146 0.16944
# Poissons Ratio (z) = 0.71995 0.40360
#
# Static dielectric constant tensor:
#      x y z
#    x 1.735430 0.000000 0.000000 
#    y 0.000000 1.787240 0.000000 
#    z 0.000000 0.000000 1.839230 
# 
# From -- ./inp_files/31704.got.cif
#   From: 2010.05.17/outbox.cif.g08.bks.cpg/sg22_16_cif.got.tgz:31704.got - 2010.06.03 23:40:54.
