data_PCOD9327697
_publ_section_title
;
Structure prediction by ZEFSAII (Michael W. Deem and Ramdas Pophale) SiO2 
 PCOD9327697
Probable space group: F 2 2 2
;
_chemical_formula_sum "Si O2"
_cell_formula_units_Z 108
_cell_length_a 30.053440
_cell_length_b 14.817304
_cell_length_c 11.572726
_cell_angle_alpha 90.000000
_cell_angle_beta 90.000000
_cell_angle_gamma 90.000000
_cell_volume 5153.461687
_symmetry_space_group_name_H-M "F 2 2 2"
_symmetry_group_IT_number 22
_symmetry_cell_setting 'orthorhombic'
loop_
_space_group_symop_operation_xyz
x,y,z
-x,-y,z
x,-y,-z
-x,y,-z
x,1/2+y,1/2+z
-x,1/2-y,1/2+z
x,1/2-y,1/2-z
-x,1/2+y,1/2-z
1/2+x,y,1/2+z
1/2-x,-y,1/2+z
1/2+x,-y,1/2-z
1/2-x,y,1/2-z
1/2+x,1/2+y,z
1/2-x,1/2-y,z
1/2+x,1/2-y,-z
1/2-x,1/2+y,-z
loop_
_atom_site_type_symbol
_atom_site_label
_atom_site_fract_x
_atom_site_fract_y
_atom_site_fract_z
Si Si1 0.250000 0.250000 0.537451
Si Si2 0.547264 0.903023 0.445747
Si Si3 0.660358 0.816110 0.847772
Si Si4 0.150712 0.464937 0.684426
Si Si5 0.317850 0.868177 0.552769
Si Si6 0.000000 0.500000 0.000000
Si Si7 0.432148 0.567123 0.697412
Si Si8 0.110812 0.729931 0.933174
O O1 0.293597 0.274218 0.609341
O O2 0.267567 0.162428 0.469352
O O3 0.500000 0.885562 0.500000
O O4 0.538987 0.913805 0.310084
O O5 0.577937 0.814439 0.458112
O O6 0.564248 0.000000 0.500000
O O7 0.640768 0.750000 0.750000
O O8 0.672213 0.908567 0.786315
O O9 0.624706 0.822589 0.949952
O O10 0.175455 0.554181 0.644738
O O11 0.157185 0.403243 0.566662
O O12 0.103815 0.496408 0.745062
O O13 0.343852 0.780912 0.598937
O O14 0.964575 0.455816 0.909393
O O15 0.406714 0.658001 0.658085
#
# Coordination Sequence:
#
# PCOD9327697 Si02
#       8
#     8  16  16  16  16   4  16  16
#     4  10  21  42  66 105 140 170 231 306 339 404
#     4  11  24  44  71 102 133 185 244 299 350 436
#     4  11  22  39  72 100 135 184 233 287 341 428
#     4  11  22  42  69 101 132 195 229 279 351 439
#     4  10  22  41  72  98 141 179 238 287 351 421
#     4  12  28  48  62 104 150 192 224 322 376 420
#     4  12  26  45  69  98 148 179 238 301 366 432
#     4  11  23  43  66 102 133 181 227 295 359 421
#
# _framework density 20.956786999999998
#
# number of rings (size 3 to 8) (size 9 to 14) (size 15 to 20)
#    0.000    1.037    4.444    3.333    1.037    0.000 
#    2.667    8.889    0.000    3.556    0.000    0.000 
#    0.000    0.000    0.000    0.000    0.000    0.000 
#
# Total GULP energy -150342.797840 kJ/mol
# GULP energy per Si atom -5568.251772 kJ/mol
# Density = 2.090909 g / cm^3
# Si number density = 20.956787 Si / 1000 Ang^3
#
#
#
# Elastic Constant Matrix: (Units=GPa)
#
#
# Indices 1 2 3 4 5 6 
#
# 1 57.2664 21.6755 30.1943 0.0000 0.0000 0.0000
# 2 21.6755 76.9576 51.7607 0.0000 0.0000 0.0000
# 3 30.1943 51.7607 134.7002 0.0000 0.0000 0.0000
# 4 0.0000 0.0000 0.0000 55.2147 0.0000 0.0000
# 5 0.0000 0.0000 0.0000 0.0000 16.9792 0.0000
# 6 0.0000 0.0000 0.0000 0.0000 0.0000 26.6538
#
#
#
# Elastic Compliance Matrix: (Units=1/GPa)
#
#
# Indices 1 2 3 4 5 6 
#
# 1 0.020525 -0.003623 -0.003209 0.000000 0.000000 0.000000
# 2 -0.003623 0.018163 -0.006167 0.000000 0.000000 0.000000
# 3 -0.003209 -0.006167 0.010513 0.000000 0.000000 0.000000
# 4 0.000000 0.000000 0.000000 0.018111 0.000000 0.000000
# 5 0.000000 0.000000 0.000000 0.000000 0.058896 0.000000
# 6 0.000000 0.000000 0.000000 0.000000 0.000000 0.037518
#
#
# Mechanical properties :
#
#
# Convention : Reuss Voigt Hill
#
# Bulk Modulus (GPa) = 43.09741 52.90947 48.00344
# Shear Modulus (GPa) = 25.32186 30.78910 28.05548
#
# Velocity S-wave (km/s) = 3.47982 3.83713 3.66284
# Velocity P-wave (km/s) = 6.06259 6.70322 6.39094
#
# Compressibility (1/GPa) = 0.02320325
#
# Stress axis : x y z
#
# Youngs Moduli (GPa) = 48.72013 55.05849 95.12039
#
# Poissons Ratio (x) = 0.19947 0.30522
# Poissons Ratio (y) = 0.17651 0.58662
# Poissons Ratio (z) = 0.15633 0.33955
#
# Static dielectric constant tensor:
#      x y z
#    x 1.757970 0.000000 0.000000 
#    y 0.000000 1.829610 0.000000 
#    z 0.000000 0.000000 1.862070 
# 
# From -- ./inp_files/25431.got.cif
#   From: 2010.05.17/outbox.cif.g08.bks.cpg/sg22_13_cif.got.tgz:25431.got - 2010.06.03 23:40:54.
