data_PCOD9327592
_publ_section_title
;
Structure prediction by ZEFSAII (Michael W. Deem and Ramdas Pophale) SiO2 
 PCOD9327592
Probable space group: F 2 2 2
;
_chemical_formula_sum "Si O2"
_cell_formula_units_Z 96
_cell_length_a 9.010047
_cell_length_b 19.211173
_cell_length_c 29.316259
_cell_angle_alpha 90.000000
_cell_angle_beta 90.000000
_cell_angle_gamma 90.000000
_cell_volume 5074.455978
_symmetry_space_group_name_H-M "F 2 2 2"
_symmetry_group_IT_number 22
_symmetry_cell_setting 'orthorhombic'
loop_
_space_group_symop_operation_xyz
x,y,z
-x,-y,z
x,-y,-z
-x,y,-z
x,1/2+y,1/2+z
-x,1/2-y,1/2+z
x,1/2-y,1/2-z
-x,1/2+y,1/2-z
1/2+x,y,1/2+z
1/2-x,-y,1/2+z
1/2+x,-y,1/2-z
1/2-x,y,1/2-z
1/2+x,1/2+y,z
1/2-x,1/2-y,z
1/2+x,1/2-y,-z
1/2-x,1/2+y,-z
loop_
_atom_site_type_symbol
_atom_site_label
_atom_site_fract_x
_atom_site_fract_y
_atom_site_fract_z
Si Si1 0.334555 0.677628 0.517816
Si Si2 0.813625 0.076943 0.299100
Si Si3 0.842067 0.409709 0.796108
Si Si4 0.068375 0.927008 0.127545
Si Si5 0.279991 0.833481 0.615457
Si Si6 0.656816 0.063898 0.473678
O O1 0.500000 0.686820 0.500000
O O2 0.250000 0.750000 0.519887
O O3 0.305170 0.645828 0.568440
O O4 0.253051 0.631024 0.480841
O O5 0.750000 0.095552 0.250000
O O6 0.698309 0.098561 0.338696
O O7 0.981854 0.103866 0.297541
O O8 0.822326 0.992763 0.302091
O O9 0.750000 0.391146 0.750000
O O10 0.780830 0.369490 0.839444
O O11 0.133994 0.950639 0.079039
O O12 0.947596 0.866553 0.115216
O O13 0.000000 0.000000 0.147444
O O14 0.250000 0.750000 0.619469
O O15 0.500000 0.074008 0.500000
O O16 0.731191 0.000000 0.500000
#
# Coordination Sequence:
#
# PCOD9327592 Si02
#       6
#    16  16  16  16  16  16
#     4  11  25  42  63  86 126 171 215 259 315 391
#     4  10  22  37  65  95 119 165 216 263 318 386
#     4  10  21  40  63  92 128 161 210 267 324 381
#     4  12  21  39  66  92 129 168 216 267 322 388
#     4  11  24  40  61  93 127 169 212 260 328 382
#     4  11  21  39  61  94 125 167 211 259 319 376
#
# _framework density 18.918284
#
# number of rings (size 3 to 8) (size 9 to 14) (size 15 to 20)
#    0.000    1.167    5.000    1.500    7.000    0.667 
#    0.000    0.833    0.000    1.000    0.000    0.000 
#    0.000    0.000    0.000    0.000    0.000    0.000 
#
# Total GULP energy -133758.336157 kJ/mol
# GULP energy per Si atom -5573.264007 kJ/mol
# Density = 1.887523 g / cm^3
# Si number density = 18.918284 Si / 1000 Ang^3
#
#
#
# Elastic Constant Matrix: (Units=GPa)
#
#
# Indices 1 2 3 4 5 6 
#
# 1 117.2460 17.5758 67.0033 0.0000 0.0000 0.0000
# 2 17.5758 41.3855 5.5845 0.0000 0.0000 0.0000
# 3 67.0033 5.5845 124.0351 0.0000 0.0000 0.0000
# 4 0.0000 0.0000 0.0000 11.9992 0.0000 0.0000
# 5 0.0000 0.0000 0.0000 0.0000 -200.2837 0.0000
# 6 0.0000 0.0000 0.0000 0.0000 0.0000 28.4481
#
#
#
# Elastic Compliance Matrix: (Units=1/GPa)
#
#
# Indices 1 2 3 4 5 6 
#
# 1 0.013176 -0.004663 -0.006907 0.000000 0.000000 0.000000
# 2 -0.004663 0.025961 0.001350 0.000000 0.000000 0.000000
# 3 -0.006907 0.001350 0.011733 0.000000 0.000000 0.000000
# 4 0.000000 0.000000 0.000000 0.083339 0.000000 0.000000
# 5 0.000000 0.000000 0.000000 0.000000 -0.004993 0.000000
# 6 0.000000 0.000000 0.000000 0.000000 0.000000 0.035152
#
#
# Mechanical properties :
#
#
# Convention : Reuss Voigt Hill
#
# Bulk Modulus (GPa) = 32.86383 51.44377 42.15380
# Shear Modulus (GPa) = 25.64745 -19.13374 3.25686
#
# Velocity S-wave (km/s) = 3.68597 -3.18368 1.31350
# Velocity P-wave (km/s) = 5.96023 3.70637 4.96294
#
# Compressibility (1/GPa) = 0.03042859
#
# Stress axis : x y z
#
# Youngs Moduli (GPa) = 75.89804 38.51889 85.23112
#
# Poissons Ratio (x) = 0.17963 0.58873
# Poissons Ratio (y) = 0.35394 -0.11509
# Poissons Ratio (z) = 0.52426 -0.05201
#
# Static dielectric constant tensor:
#      x y z
#    x 1.749860 0.000000 0.000000 
#    y 0.000000 2.233780 0.000000 
#    z 0.000000 0.000000 1.671980 
# 
# From -- ./inp_files/12824.got.cif
#   From: 2010.05.17/outbox.cif.g08.bks.cpg/sg22_7_cif.got.tgz:12824.got - 2010.06.03 23:40:54.
