data_PCOD9327396
_publ_section_title
;
Structure prediction by ZEFSAII (Michael W. Deem and Ramdas Pophale) SiO2 
 PCOD9327396
Probable space group: F 2 2 2
;
_chemical_formula_sum "Si O2"
_cell_formula_units_Z 116
_cell_length_a 27.678880
_cell_length_b 7.510373
_cell_length_c 24.817306
_cell_angle_alpha 90.000000
_cell_angle_beta 90.000000
_cell_angle_gamma 90.000000
_cell_volume 5158.989632
_symmetry_space_group_name_H-M "F 2 2 2"
_symmetry_group_IT_number 22
_symmetry_cell_setting 'orthorhombic'
loop_
_space_group_symop_operation_xyz
x,y,z
-x,-y,z
x,-y,-z
-x,y,-z
x,1/2+y,1/2+z
-x,1/2-y,1/2+z
x,1/2-y,1/2-z
-x,1/2+y,1/2-z
1/2+x,y,1/2+z
1/2-x,-y,1/2+z
1/2+x,-y,1/2-z
1/2-x,y,1/2-z
1/2+x,1/2+y,z
1/2-x,1/2-y,z
1/2+x,1/2-y,-z
1/2-x,1/2+y,-z
loop_
_atom_site_type_symbol
_atom_site_label
_atom_site_fract_x
_atom_site_fract_y
_atom_site_fract_z
Si Si1 0.432045 0.678845 0.969677
Si Si2 0.826171 0.714228 0.000625
Si Si3 0.391475 0.182287 0.690154
Si Si4 0.093770 0.188596 0.152286
Si Si5 0.995003 0.712787 0.686652
Si Si6 0.000000 0.000000 0.500000
Si Si7 0.697542 0.222139 0.115813
Si Si8 0.802365 0.301981 0.881547
O O1 0.418292 0.627964 0.908701
O O2 0.449300 0.500000 0.000000
O O3 0.382743 0.739099 0.998778
O O4 0.466236 0.854561 0.969175
O O5 0.804177 0.791531 0.945761
O O6 0.820910 0.500000 0.000000
O O7 0.805346 0.778816 0.057830
O O8 0.381135 0.250000 0.750000
O O9 0.441463 0.265238 0.666420
O O10 0.346539 0.205403 0.650596
O O11 0.403018 0.973509 0.693764
O O12 0.045389 0.297984 0.167183
O O13 0.148342 0.258087 0.149728
O O14 0.992297 0.750000 0.750000
O O15 0.000000 0.500000 0.674822
O O16 0.750000 0.250000 0.140831
O O17 0.693420 0.011695 0.112483
O O18 0.750000 0.250000 0.858271
#
# Coordination Sequence:
#
# PCOD9327396 Si02
#       8
#    16  16  16  16  16   4  16  16
#     4  11  23  40  63  91 134 186 222 280 335 408
#     4   9  19  38  60  89 129 166 219 276 323 393
#     4  10  22  41  64  91 124 162 213 280 328 401
#     4  10  22  41  64  96 126 168 223 269 336 411
#     4   9  20  39  62  88 119 152 206 262 315 389
#     4  12  26  40  56  94 148 176 242 272 344 408
#     4  11  22  37  63  92 122 173 218 267 338 396
#     4  10  21  37  59  91 131 165 209 273 327 393
#
# _framework density 22.485022000000001
#
# number of rings (size 3 to 8) (size 9 to 14) (size 15 to 20)
#    0.000    1.931    0.690    2.276    0.000    9.103 
#    1.241    0.690    0.000    2.897    0.000    0.000 
#    0.000    0.000    0.000    0.000    0.000    0.000 
#
# Total GULP energy -161695.353108 kJ/mol
# GULP energy per Si atom -5575.701831 kJ/mol
# Density = 2.243384 g / cm^3
# Si number density = 22.485022 Si / 1000 Ang^3
#
#
#
# Elastic Constant Matrix: (Units=GPa)
#
#
# Indices 1 2 3 4 5 6 
#
# 1 206.5300 -8.6223 27.5541 0.0000 0.0001 0.0001
# 2 -8.6223 64.7702 -9.2066 -0.0001 0.0005 0.0000
# 3 27.5541 -9.2066 35.3345 0.0000 0.0000 0.0000
# 4 0.0000 -0.0001 0.0000 22.5063 0.0001 0.0000
# 5 0.0001 0.0005 0.0000 0.0001 36.1172 -0.0001
# 6 0.0001 0.0000 0.0000 0.0000 -0.0001 13.8427
#
#
#
# Elastic Compliance Matrix: (Units=1/GPa)
#
#
# Indices 1 2 3 4 5 6 
#
# 1 0.005405 0.000125 -0.004182 0.000000 0.000000 0.000000
# 2 0.000125 0.016036 0.004081 0.000000 0.000000 0.000000
# 3 -0.004182 0.004081 0.032626 0.000000 0.000000 0.000000
# 4 0.000000 0.000000 0.000000 0.044432 0.000000 0.000000
# 5 0.000000 0.000000 0.000000 0.000000 0.027688 0.000000
# 6 0.000000 0.000000 0.000000 0.000000 0.000000 0.072240
#
#
# Mechanical properties :
#
#
# Convention : Reuss Voigt Hill
#
# Bulk Modulus (GPa) = 18.47969 36.23168 27.35569
# Shear Modulus (GPa) = 23.10348 34.28721 28.69535
#
# Velocity S-wave (km/s) = 3.20895 3.90922 3.57627
# Velocity P-wave (km/s) = 4.68682 6.04357 5.40791
#
# Compressibility (1/GPa) = 0.05411345
#
# Stress axis : x y z
#
# Youngs Moduli (GPa) = 185.00976 62.36010 30.65075
#
# Poissons Ratio (x) = -0.00780 0.12819
# Poissons Ratio (y) = -0.02313 -0.12508
# Poissons Ratio (z) = 0.77378 -0.25447
#
# Static dielectric constant tensor:
#      x y z
#    x 1.795360 0.000000 0.000000 
#    y 0.000000 1.817560 0.000000 
#    z 0.000000 0.000000 1.815710 
# 
# From -- ./inp_files/50495.got.cif
#   From: 2010.05.17/outbox.cif.g08.bks.cpg/sg22_26_cif.got.tgz:50495.got - 2010.06.03 23:40:54.
