data_PCOD9327135
_publ_section_title
;
Structure prediction by ZEFSAII (Michael W. Deem and Ramdas Pophale) SiO2 
 PCOD9327135
Probable space group: F 2 2 2
;
_chemical_formula_sum "Si O2"
_cell_formula_units_Z 88
_cell_length_a 10.815482
_cell_length_b 10.971586
_cell_length_c 34.635345
_cell_angle_alpha 90.000000
_cell_angle_beta 90.000000
_cell_angle_gamma 90.000000
_cell_volume 4109.933628
_symmetry_space_group_name_H-M "F 2 2 2"
_symmetry_group_IT_number 22
_symmetry_cell_setting 'orthorhombic'
loop_
_space_group_symop_operation_xyz
x,y,z
-x,-y,z
x,-y,-z
-x,y,-z
x,1/2+y,1/2+z
-x,1/2-y,1/2+z
x,1/2-y,1/2-z
-x,1/2+y,1/2-z
1/2+x,y,1/2+z
1/2-x,-y,1/2+z
1/2+x,-y,1/2-z
1/2-x,y,1/2-z
1/2+x,1/2+y,z
1/2-x,1/2-y,z
1/2+x,1/2-y,-z
1/2-x,1/2+y,-z
loop_
_atom_site_type_symbol
_atom_site_label
_atom_site_fract_x
_atom_site_fract_y
_atom_site_fract_z
Si Si1 0.835974 0.560641 0.959300
Si Si2 0.500000 0.000000 0.395320
Si Si3 0.250000 0.548763 0.250000
Si Si4 0.430276 0.314945 0.960138
Si Si5 0.241424 0.613085 0.890199
Si Si6 0.105659 0.398457 0.189166
Si Si7 0.959028 0.250000 0.250000
O O1 0.704503 0.627034 0.965326
O O2 0.927634 0.671909 0.951360
O O3 0.818662 0.471198 0.923290
O O4 0.865400 0.500000 0.000000
O O5 0.482177 0.885735 0.423720
O O6 0.631600 0.958948 0.376937
O O7 0.210955 0.462567 0.214916
O O8 0.132848 0.636611 0.258780
O O9 0.500000 0.337107 0.000000
O O10 0.250000 0.750000 0.907123
O O11 0.158551 0.632518 0.852335
O O12 0.000000 0.500000 0.184102
O O13 0.044208 0.289731 0.214013
#
# Coordination Sequence:
#
# PCOD9327135 Si02
#       7
#    16   8   8  16  16  16   8
#     4  10  23  40  63  92 127 174 231 282 340 406
#     4  10  23  44  62  94 134 178 224 282 352 404
#     4   9  20  41  70 102 138 177 228 271 350 414
#     4  10  20  39  67  88 120 171 226 288 343 405
#     4  11  26  43  65  98 140 180 228 286 343 410
#     4  10  23  43  69 100 135 174 226 279 337 413
#     4   9  20  41  70 104 136 181 217 282 340 412
#
# _framework density 21.411538
#
# number of rings (size 3 to 8) (size 9 to 14) (size 15 to 20)
#    0.000    2.000    0.000    2.455    7.636    3.273 
#    1.636   12.727    0.000    0.000    0.000    0.000 
#    0.000    0.000    0.000    0.000    0.000    0.000 
#
# Total GULP energy -122877.545930 kJ/mol
# GULP energy per Si atom -5585.342997 kJ/mol
# Density = 2.136280 g / cm^3
# Si number density = 21.411538 Si / 1000 Ang^3
#
#
#
# Elastic Constant Matrix: (Units=GPa)
#
#
# Indices 1 2 3 4 5 6 
#
# 1 84.5947 28.1571 50.9376 0.0000 0.0000 0.0000
# 2 28.1571 129.3724 61.5288 0.0000 0.0000 0.0000
# 3 50.9376 61.5288 106.5803 0.0000 0.0000 0.0000
# 4 0.0000 0.0000 0.0000 32.5840 0.0000 0.0000
# 5 0.0000 0.0000 0.0000 0.0000 -128.6335 0.0000
# 6 0.0000 0.0000 0.0000 0.0000 0.0000 21.6117
#
#
#
# Elastic Compliance Matrix: (Units=1/GPa)
#
#
# Indices 1 2 3 4 5 6 
#
# 1 0.016602 0.000221 -0.008062 0.000000 0.000000 0.000000
# 2 0.000221 0.010658 -0.006258 0.000000 0.000000 0.000000
# 3 -0.008062 -0.006258 0.016849 0.000000 0.000000 0.000000
# 4 0.000000 0.000000 0.000000 0.030690 0.000000 0.000000
# 5 0.000000 0.000000 0.000000 0.000000 -0.007774 0.000000
# 6 0.000000 0.000000 0.000000 0.000000 0.000000 0.046271
#
#
# Mechanical properties :
#
#
# Convention : Reuss Voigt Hill
#
# Bulk Modulus (GPa) = 62.85550 66.86604 64.86077
# Shear Modulus (GPa) = 34.06032 -2.89263 15.58385
#
# Velocity S-wave (km/s) = 3.99274 -1.16357 2.70075
# Velocity P-wave (km/s) = 7.11868 5.43061 6.33116
#
# Compressibility (1/GPa) = 0.01590951
#
# Stress axis : x y z
#
# Youngs Moduli (GPa) = 60.23365 93.82595 59.35167
#
# Poissons Ratio (x) = -0.02073 0.47850
# Poissons Ratio (y) = -0.01331 0.37145
# Poissons Ratio (z) = 0.48561 0.58721
#
# Static dielectric constant tensor:
#      x y z
#    x 1.978070 0.000000 0.000000 
#    y 0.000000 1.801610 0.000000 
#    z 0.000000 0.000000 1.730670 
# 
# From -- ./inp_files/18452.got.cif
#   From: 2010.05.17/outbox.cif.g08.bks.cpg/sg22_10_cif.got.tgz:18452.got - 2010.06.03 23:40:54.
