data_PCOD9327656
_publ_section_title
;
Structure prediction by ZEFSAII (Michael W. Deem and Ramdas Pophale) SiO2 
 PCOD9327656
Probable space group: F 2 2 2
;
_chemical_formula_sum "Si O2"
_cell_formula_units_Z 64
_cell_length_a 19.778805
_cell_length_b 28.431710
_cell_length_c 5.752001
_cell_angle_alpha 90.000000
_cell_angle_beta 90.000000
_cell_angle_gamma 90.000000
_cell_volume 3234.610428
_symmetry_space_group_name_H-M "F 2 2 2"
_symmetry_group_IT_number 22
_symmetry_cell_setting 'orthorhombic'
loop_
_space_group_symop_operation_xyz
x,y,z
-x,-y,z
x,-y,-z
-x,y,-z
x,1/2+y,1/2+z
-x,1/2-y,1/2+z
x,1/2-y,1/2-z
-x,1/2+y,1/2-z
1/2+x,y,1/2+z
1/2-x,-y,1/2+z
1/2+x,-y,1/2-z
1/2-x,y,1/2-z
1/2+x,1/2+y,z
1/2-x,1/2-y,z
1/2+x,1/2-y,-z
1/2-x,1/2+y,-z
loop_
_atom_site_type_symbol
_atom_site_label
_atom_site_fract_x
_atom_site_fract_y
_atom_site_fract_z
Si Si1 0.175802 0.690380 0.354917
Si Si2 0.924481 0.156845 0.540522
Si Si3 0.673934 0.597229 0.159252
Si Si4 0.707753 0.000000 0.500000
Si Si5 0.386267 0.250000 0.250000
O O1 0.250000 0.696607 0.250000
O O2 0.177559 0.641355 0.490763
O O3 0.159198 0.732766 0.532517
O O4 0.115834 0.679667 0.174314
O O5 0.878759 0.115199 0.647300
O O6 0.929134 0.203079 0.704776
O O7 0.000000 0.139919 0.500000
O O8 0.750000 0.592875 0.250000
O O9 0.663087 0.546809 0.040451
O O10 0.750000 0.993128 0.750000
#
# Coordination Sequence:
#
# PCOD9327656 Si02
#       5
#    16  16  16   8   8
#     4  11  22  41  65  90 135 172 227 288 339 400
#     4  11  25  41  64  92 136 178 224 280 342 406
#     4  10  21  41  66 103 129 171 225 281 344 410
#     4  10  22  38  74 113 137 170 232 288 350 418
#     4  10  26  37  60  92 127 180 238 268 343 400
#
# _framework density 19.785997999999999
#
# number of rings (size 3 to 8) (size 9 to 14) (size 15 to 20)
#    0.000    1.500    2.500    1.500    7.000    6.000 
#    0.000    0.000    0.000    4.500    0.000    0.000 
#    0.000    0.000    0.000    0.000    0.000    0.000 
#
# Total GULP energy -89145.601587 kJ/mol
# GULP energy per Si atom -5571.600099 kJ/mol
# Density = 1.974096 g / cm^3
# Si number density = 19.785998 Si / 1000 Ang^3
#
#
#
# Elastic Constant Matrix: (Units=GPa)
#
#
# Indices 1 2 3 4 5 6 
#
# 1 141.8259 41.5176 51.2024 -0.0014 -0.0275 -0.0630
# 2 41.5176 160.1022 36.5297 0.0033 -0.0011 -0.0675
# 3 51.2024 36.5297 88.1473 0.0051 -0.0122 -0.5031
# 4 -0.0014 0.0033 0.0051 19.7314 -0.0157 0.7084
# 5 -0.0275 -0.0011 -0.0122 -0.0157 20.9305 0.1311
# 6 -0.0630 -0.0675 -0.5031 0.7084 0.1311 880.0942
#
#
#
# Elastic Compliance Matrix: (Units=1/GPa)
#
#
# Indices 1 2 3 4 5 6 
#
# 1 0.009154 -0.001282 -0.004786 0.000002 0.000009 -0.000002
# 2 -0.001282 0.007078 -0.002189 -0.000001 -0.000003 -0.000001
# 3 -0.004786 -0.002189 0.015032 -0.000004 0.000002 0.000008
# 4 0.000002 -0.000001 -0.000004 0.050682 0.000038 -0.000041
# 5 0.000009 -0.000003 0.000002 0.000038 0.047777 -0.000007
# 6 -0.000002 -0.000001 0.000008 -0.000041 -0.000007 0.001136
#
#
# Mechanical properties :
#
#
# Convention : Reuss Voigt Hill
#
# Bulk Modulus (GPa) = 67.79400 72.06387 69.92894
# Shear Modulus (GPa) = 32.83224 201.53958 117.18591
#
# Velocity S-wave (km/s) = 4.07795 10.10351 7.70424
# Velocity P-wave (km/s) = 7.51738 13.13805 10.70326
#
# Compressibility (1/GPa) = 0.01475057
#
# Stress axis : x y z
#
# Youngs Moduli (GPa) = 109.24143 141.28758 66.52545
#
# Poissons Ratio (x) = 0.18110 0.31840
# Poissons Ratio (y) = 0.14002 0.14560
# Poissons Ratio (z) = 0.52285 0.30922
#
# Static dielectric constant tensor:
#      x y z
#    x 1.765640 -0.000050 0.003330 
#    y -0.000050 1.756060 0.002850 
#    z 0.003330 0.002850 -3.419440 
# 
# From -- ./inp_files/2876.got.cif
#   From: 2010.05.17/outbox.cif.g08.bks.cpg/sg22_2_cif.got.tgz:2876.got - 2010.06.03 23:40:54.
