data_PCOD9327449
_publ_section_title
;
Structure prediction by ZEFSAII (Michael W. Deem and Ramdas Pophale) SiO2 
 PCOD9327449
Probable space group: F 2 2 2
;
_chemical_formula_sum "Si O2"
_cell_formula_units_Z 64
_cell_length_a 22.386180
_cell_length_b 5.101228
_cell_length_c 25.352599
_cell_angle_alpha 90.000000
_cell_angle_beta 90.000000
_cell_angle_gamma 90.000000
_cell_volume 2895.190957
_symmetry_space_group_name_H-M "F 2 2 2"
_symmetry_group_IT_number 22
_symmetry_cell_setting 'orthorhombic'
loop_
_space_group_symop_operation_xyz
x,y,z
-x,-y,z
x,-y,-z
-x,y,-z
x,1/2+y,1/2+z
-x,1/2-y,1/2+z
x,1/2-y,1/2-z
-x,1/2+y,1/2-z
1/2+x,y,1/2+z
1/2-x,-y,1/2+z
1/2+x,-y,1/2-z
1/2-x,y,1/2-z
1/2+x,1/2+y,z
1/2-x,1/2-y,z
1/2+x,1/2-y,-z
1/2-x,1/2+y,-z
loop_
_atom_site_type_symbol
_atom_site_label
_atom_site_fract_x
_atom_site_fract_y
_atom_site_fract_z
Si Si1 0.070160 0.538233 0.936713
Si Si2 0.367173 0.501873 0.787635
Si Si3 0.250000 0.750000 0.029519
Si Si4 0.643092 0.547985 0.900759
Si Si5 0.000000 0.000000 0.212927
O O1 0.105491 0.315295 0.905194
O O2 0.000000 0.500000 0.922857
O O3 0.101173 0.812721 0.921677
O O4 0.074248 0.500000 0.000000
O O5 0.358143 0.750000 0.750000
O O6 0.331483 0.498234 0.841807
O O7 0.434993 0.513158 0.812111
O O8 0.360577 0.250000 0.750000
O O9 0.300720 0.600003 0.061952
O O10 0.220530 0.500000 0.000000
O O11 0.002841 0.750000 0.250000
#
# Coordination Sequence:
#
# PCOD9327449 Si02
#       5
#    16  16   8  16   8
#     4  11  24  41  64  98 136 171 216 280 351 418
#     4  10  21  38  59  92 134 172 220 271 327 405
#     4  12  26  46  73 100 131 174 238 296 340 404
#     4  12  24  42  69  96 132 179 228 273 348 400
#     4   8  16  30  50  78 117 164 201 250 308 374
#
# _framework density 22.105622
#
# number of rings (size 3 to 8) (size 9 to 14) (size 15 to 20)
#    0.000    1.250    0.000    6.750    3.500    2.000 
#    4.500    0.625    0.000    1.500    0.000    0.000 
#    0.000    0.000    0.000    0.000    0.000    0.000 
#
# Total GULP energy -89351.813175 kJ/mol
# GULP energy per Si atom -5584.488323 kJ/mol
# Density = 2.205531 g / cm^3
# Si number density = 22.105622 Si / 1000 Ang^3
#
#
#
# Elastic Constant Matrix: (Units=GPa)
#
#
# Indices 1 2 3 4 5 6 
#
# 1 67.6461 31.0222 13.6396 -0.0011 -0.0008 -0.0146
# 2 31.0222 164.6196 40.8365 -0.0016 -0.0292 -0.0087
# 3 13.6396 40.8365 114.2953 0.0011 -0.0062 -0.0016
# 4 -0.0011 -0.0016 0.0011 31.8343 -0.0084 0.0031
# 5 -0.0008 -0.0292 -0.0062 -0.0084 32.7941 0.0006
# 6 -0.0146 -0.0087 -0.0016 0.0031 0.0006 24.8197
#
#
#
# Elastic Compliance Matrix: (Units=1/GPa)
#
#
# Indices 1 2 3 4 5 6 
#
# 1 0.016271 -0.002836 -0.000928 0.000000 -0.000002 0.000009
# 2 -0.002836 0.007160 -0.002220 0.000000 0.000006 0.000001
# 3 -0.000928 -0.002220 0.009653 0.000000 0.000000 -0.000001
# 4 0.000000 0.000000 0.000000 0.031413 0.000008 -0.000004
# 5 -0.000002 0.000006 0.000000 0.000008 0.030493 -0.000001
# 6 0.000009 0.000001 -0.000001 -0.000004 -0.000001 0.040291
#
#
# Mechanical properties :
#
#
# Convention : Reuss Voigt Hill
#
# Bulk Modulus (GPa) = 47.35874 57.50639 52.43257
# Shear Modulus (GPa) = 32.40731 35.29380 33.85055
#
# Velocity S-wave (km/s) = 3.83302 4.00008 3.91744
# Velocity P-wave (km/s) = 6.40779 6.88513 6.65074
#
# Compressibility (1/GPa) = 0.02111543
#
# Stress axis : x y z
#
# Youngs Moduli (GPa) = 61.46085 139.67194 103.59347
#
# Poissons Ratio (x) = 0.39609 0.09618
# Poissons Ratio (y) = 0.17429 0.22994
# Poissons Ratio (z) = 0.05706 0.31002
#
# Static dielectric constant tensor:
#      x y z
#    x 1.887570 0.000000 0.000000 
#    y 0.000000 1.745530 0.000000 
#    z 0.000000 0.000000 1.833240 
# 
# From -- ./inp_files/46470.got.cif
#   From: 2010.05.17/outbox.cif.g08.bks.cpg/sg22_24_cif.got.tgz:46470.got - 2010.06.03 23:40:54.
