data_PCOD9327292
_publ_section_title
;
Structure prediction by ZEFSAII (Michael W. Deem and Ramdas Pophale) SiO2 
 PCOD9327292
Probable space group: F 2 2 2
;
_chemical_formula_sum "Si O2"
_cell_formula_units_Z 72
_cell_length_a 27.425212
_cell_length_b 8.274446
_cell_length_c 16.722608
_cell_angle_alpha 90.000000
_cell_angle_beta 90.000000
_cell_angle_gamma 90.000000
_cell_volume 3794.835275
_symmetry_space_group_name_H-M "F 2 2 2"
_symmetry_group_IT_number 22
_symmetry_cell_setting 'orthorhombic'
loop_
_space_group_symop_operation_xyz
x,y,z
-x,-y,z
x,-y,-z
-x,y,-z
x,1/2+y,1/2+z
-x,1/2-y,1/2+z
x,1/2-y,1/2-z
-x,1/2+y,1/2-z
1/2+x,y,1/2+z
1/2-x,-y,1/2+z
1/2+x,-y,1/2-z
1/2-x,y,1/2-z
1/2+x,1/2+y,z
1/2-x,1/2-y,z
1/2+x,1/2-y,-z
1/2-x,1/2+y,-z
loop_
_atom_site_type_symbol
_atom_site_label
_atom_site_fract_x
_atom_site_fract_y
_atom_site_fract_z
Si Si1 0.875324 0.250000 0.250000
Si Si2 0.688456 0.502621 0.647871
Si Si3 0.378827 0.000000 0.000000
Si Si4 0.250000 0.250000 0.540205
Si Si5 0.500000 0.000000 0.500000
Si Si6 0.912928 0.676165 0.583401
Si Si7 0.326738 0.500000 0.000000
Si Si8 0.750000 0.750000 0.250000
O O1 0.841113 0.390036 0.212540
O O2 0.909429 0.299647 0.322900
O O3 0.652803 0.444218 0.576833
O O4 0.724066 0.622317 0.598793
O O5 0.717001 0.364159 0.694082
O O6 0.406161 0.843322 0.034451
O O7 0.210226 0.349373 0.489428
O O8 0.463021 0.100495 0.554616
O O9 0.865216 0.563859 0.565487
#
# Coordination Sequence:
#
# PCOD9327292 Si02
#       8
#     8  16   8   8   4  16   8   4
#     4  10  20  47  60  89 136 170 201 281 338 370
#     4  11  24  39  55  91 131 180 220 265 314 378
#     4  10  21  41  65  87 123 165 208 272 326 390
#     4  12  22  36  62  91 135 180 232 262 299 379
#     4  10  24  46  70 100 112 166 220 262 340 420
#     4  10  23  43  70  94 129 162 217 275 336 392
#     4  11  23  37  62  93 133 181 220 270 304 382
#     4  12  28  32  56  88 136 176 238 264 310 374
#
# _framework density 18.973155999999999
#
# number of rings (size 3 to 8) (size 9 to 14) (size 15 to 20)
#    0.000    1.333    4.444    2.000    3.111    3.111 
#    0.000    4.444    0.000    0.000    0.000    0.000 
#    0.000    0.000    0.000    0.000    0.000    0.000 
#
# Total GULP energy -100453.237334 kJ/mol
# GULP energy per Si atom -5580.735407 kJ/mol
# Density = 1.892997 g / cm^3
# Si number density = 18.973156 Si / 1000 Ang^3
#
#
#
# Elastic Constant Matrix: (Units=GPa)
#
#
# Indices 1 2 3 4 5 6 
#
# 1 142.5723 81.5734 76.2661 0.0000 0.0000 0.0000
# 2 81.5734 124.0158 84.4702 0.0000 0.0000 0.0000
# 3 76.2661 84.4702 164.6645 0.0000 0.0000 0.0000
# 4 0.0000 0.0000 0.0000 30.5547 0.0000 0.0000
# 5 0.0000 0.0000 0.0000 0.0000 9.0116 0.0000
# 6 0.0000 0.0000 0.0000 0.0000 0.0000 16.9633
#
#
#
# Elastic Compliance Matrix: (Units=1/GPa)
#
#
# Indices 1 2 3 4 5 6 
#
# 1 0.011777 -0.006196 -0.002276 0.000000 0.000000 0.000000
# 2 -0.006196 0.015654 -0.005160 0.000000 0.000000 0.000000
# 3 -0.002276 -0.005160 0.009774 0.000000 0.000000 0.000000
# 4 0.000000 0.000000 0.000000 0.032728 0.000000 0.000000
# 5 0.000000 0.000000 0.000000 0.000000 0.110968 0.000000
# 6 0.000000 0.000000 0.000000 0.000000 0.000000 0.058951
#
#
# Mechanical properties :
#
#
# Convention : Reuss Voigt Hill
#
# Bulk Modulus (GPa) = 100.60451 101.76358 101.18405
# Shear Modulus (GPa) = 18.48908 23.90211 21.19560
#
# Velocity S-wave (km/s) = 3.12506 3.55320 3.34598
# Velocity P-wave (km/s) = 8.13395 8.40152 8.26882
#
# Compressibility (1/GPa) = 0.00993991
#
# Stress axis : x y z
#
# Youngs Moduli (GPa) = 84.91463 63.88179 102.30860
#
# Poissons Ratio (x) = 0.39581 0.23285
# Poissons Ratio (y) = 0.52613 0.52796
# Poissons Ratio (z) = 0.19327 0.32966
#
# Static dielectric constant tensor:
#      x y z
#    x 1.650410 0.000000 0.000000 
#    y 0.000000 1.708350 0.000000 
#    z 0.000000 0.000000 1.661630 
# 
# From -- ./inp_files/10209.got.cif
#   From: 2010.05.17/outbox.cif.g08.bks.cpg/sg22_6_cif.got.tgz:10209.got - 2010.06.03 23:40:54.
