data_PCOD9327416
_publ_section_title
;
Structure prediction by ZEFSAII (Michael W. Deem and Ramdas Pophale) SiO2 
 PCOD9327416
Probable space group: F 2 2 2
;
_chemical_formula_sum "Si O2"
_cell_formula_units_Z 88
_cell_length_a 20.696258
_cell_length_b 24.815132
_cell_length_c 8.851450
_cell_angle_alpha 90.000000
_cell_angle_beta 90.000000
_cell_angle_gamma 90.000000
_cell_volume 4545.931003
_symmetry_space_group_name_H-M "F 2 2 2"
_symmetry_group_IT_number 22
_symmetry_cell_setting 'orthorhombic'
loop_
_space_group_symop_operation_xyz
x,y,z
-x,-y,z
x,-y,-z
-x,y,-z
x,1/2+y,1/2+z
-x,1/2-y,1/2+z
x,1/2-y,1/2-z
-x,1/2+y,1/2-z
1/2+x,y,1/2+z
1/2-x,-y,1/2+z
1/2+x,-y,1/2-z
1/2-x,y,1/2-z
1/2+x,1/2+y,z
1/2-x,1/2-y,z
1/2+x,1/2-y,-z
1/2-x,1/2+y,-z
loop_
_atom_site_type_symbol
_atom_site_label
_atom_site_fract_x
_atom_site_fract_y
_atom_site_fract_z
Si Si1 0.864651 0.382963 0.932670
Si Si2 0.456154 0.750000 0.750000
Si Si3 0.119539 0.156426 0.094940
Si Si4 0.000000 0.000000 0.252238
Si Si5 0.749609 0.686300 0.930055
Si Si6 0.000000 0.590169 0.500000
Si Si7 0.889308 0.000000 0.500000
Si Si8 0.000000 0.670385 0.000000
O O1 0.867126 0.374838 0.752041
O O2 0.811508 0.342752 0.998716
O O3 0.851197 0.444274 0.981253
O O4 0.935760 0.365746 0.992679
O O5 0.410453 0.785984 0.643294
O O6 0.496985 0.709097 0.646789
O O7 0.063766 0.126292 0.002858
O O8 0.184664 0.162613 0.002129
O O9 0.001891 0.052065 0.145841
O O10 0.937086 0.002527 0.356607
O O11 0.750000 0.679201 0.750000
O O12 0.750000 0.750000 0.963460
#
# Coordination Sequence:
#
# PCOD9327416 Si02
#       8
#    16   8  16   8  16   8   8   8
#     4  11  24  41  67  94 132 176 221 270 332 394
#     4  10  22  36  61  98 131 170 214 280 326 392
#     4  11  23  42  64  95 132 174 218 271 328 400
#     4  10  22  40  66  98 134 168 218 268 332 386
#     4  11  26  45  67  95 132 176 221 273 334 398
#     4  11  23  40  67 102 129 170 213 279 326 386
#     4  11  22  42  66 100 128 175 220 272 326 403
#     4  10  21  37  61  96 127 169 219 274 332 386
#
# _framework density 19.357970999999999
#
# number of rings (size 3 to 8) (size 9 to 14) (size 15 to 20)
#    0.000    1.273    1.818    4.364    5.091    3.636 
#    0.000    3.636    0.000    0.000    0.000    0.000 
#    0.000    0.000    0.000    0.000    0.000    0.000 
#
# Total GULP energy -123063.765413 kJ/mol
# GULP energy per Si atom -5593.807519 kJ/mol
# Density = 1.931391 g / cm^3
# Si number density = 19.357971 Si / 1000 Ang^3
#
#
#
# Elastic Constant Matrix: (Units=GPa)
#
#
# Indices 1 2 3 4 5 6 
#
# 1 144.5391 63.0987 58.7236 0.0000 0.0000 0.0000
# 2 63.0987 132.4955 49.9816 0.0000 0.0000 0.0000
# 3 58.7236 49.9816 83.3857 -0.0002 0.0000 -0.0001
# 4 0.0000 0.0000 -0.0002 -3.0292 0.0000 0.0000
# 5 0.0000 0.0000 0.0000 0.0000 28.3794 0.0001
# 6 0.0000 0.0000 -0.0001 0.0000 0.0001 -1.3731
#
#
#
# Elastic Compliance Matrix: (Units=1/GPa)
#
#
# Indices 1 2 3 4 5 6 
#
# 1 0.010461 -0.002846 -0.005661 0.000000 0.000000 0.000000
# 2 -0.002846 0.010527 -0.004305 0.000000 0.000000 0.000000
# 3 -0.005661 -0.004305 0.018560 -0.000001 0.000000 -0.000001
# 4 0.000000 0.000000 -0.000001 -0.330116 0.000001 0.000008
# 5 0.000000 0.000000 0.000000 0.000001 0.035237 0.000001
# 6 0.000000 0.000000 -0.000001 0.000008 0.000001 -0.728261
#
#
# Mechanical properties :
#
#
# Convention : Reuss Voigt Hill
#
# Bulk Modulus (GPa) = 71.82658 78.22533 75.02596
# Shear Modulus (GPa) = -5.24480 17.36984 6.06252
#
# Velocity S-wave (km/s) = -1.64780 2.99874 1.77161
# Velocity P-wave (km/s) = 5.79350 7.24483 6.55943
#
# Compressibility (1/GPa) = 0.01392242
#
# Stress axis : x y z
#
# Youngs Moduli (GPa) = 95.59218 94.99265 53.87977
#
# Poissons Ratio (x) = 0.27039 0.30501
# Poissons Ratio (y) = 0.27209 0.23198
# Poissons Ratio (z) = 0.54115 0.40898
#
# Static dielectric constant tensor:
#      x y z
#    x 1.632710 0.000000 0.000000 
#    y 0.000000 1.689960 0.000000 
#    z 0.000000 0.000000 1.669600 
# 
# From -- ./inp_files/12736.got.cif
#   From: 2010.05.17/outbox.cif.g08.bks.cpg/sg22_7_cif.got.tgz:12736.got - 2010.06.03 23:40:54.
