data_PCOD9327995
_publ_section_title
;
Structure prediction by ZEFSAII (Michael W. Deem and Ramdas Pophale) SiO2 
 PCOD9327995
Probable space group: F 2 2 2
;
_chemical_formula_sum "Si O2"
_cell_formula_units_Z 96
_cell_length_a 29.707354
_cell_length_b 5.421199
_cell_length_c 29.891342
_cell_angle_alpha 90.000000
_cell_angle_beta 90.000000
_cell_angle_gamma 90.000000
_cell_volume 4813.985020
_symmetry_space_group_name_H-M "F 2 2 2"
_symmetry_group_IT_number 22
_symmetry_cell_setting 'orthorhombic'
loop_
_space_group_symop_operation_xyz
x,y,z
-x,-y,z
x,-y,-z
-x,y,-z
x,1/2+y,1/2+z
-x,1/2-y,1/2+z
x,1/2-y,1/2-z
-x,1/2+y,1/2-z
1/2+x,y,1/2+z
1/2-x,-y,1/2+z
1/2+x,-y,1/2-z
1/2-x,y,1/2-z
1/2+x,1/2+y,z
1/2-x,1/2-y,z
1/2+x,1/2-y,-z
1/2-x,1/2+y,-z
loop_
_atom_site_type_symbol
_atom_site_label
_atom_site_fract_x
_atom_site_fract_y
_atom_site_fract_z
Si Si1 0.663351 0.750000 0.750000
Si Si2 0.750000 0.750000 0.526861
Si Si3 0.946786 0.489997 0.597918
Si Si4 0.793440 0.908406 0.321839
Si Si5 0.320059 0.829462 0.097080
Si Si6 0.629021 0.522781 0.167013
Si Si7 0.908816 0.002420 0.446353
O O1 0.695744 0.593484 0.717989
O O2 0.632290 0.598557 0.784229
O O3 0.740788 0.500000 0.500000
O O4 0.706992 0.800906 0.557999
O O5 0.919675 0.457829 0.644655
O O6 0.930973 0.743427 0.572942
O O7 0.000000 0.500000 0.604371
O O8 0.933682 0.245379 0.569905
O O9 0.750000 0.750000 0.310462
O O10 0.840591 0.764681 0.328086
O O11 0.785939 0.025347 0.370646
O O12 0.344338 0.645404 0.131216
O O13 0.358527 0.996345 0.074407
O O14 0.907618 0.000000 0.500000
#
# Coordination Sequence:
#
# PCOD9327995 Si02
#       7
#     8   8  16  16  16  16  16
#     4  10  24  41  62 102 126 170 214 276 331 398
#     4  12  28  40  62  93 134 179 236 284 316 390
#     4  11  24  43  69  98 131 177 221 274 346 407
#     4  11  22  40  68  91 132 170 220 270 328 402
#     4  10  23  41  61  93 128 180 226 267 338 393
#     4  10  22  41  67  89 131 168 215 272 336 403
#     4  11  23  41  67  98 136 174 224 282 336 398
#
# _framework density 19.941898999999999
#
# number of rings (size 3 to 8) (size 9 to 14) (size 15 to 20)
#    0.000    1.333    1.667    3.000    3.500    8.667 
#    0.000    0.000    3.667    0.000    0.000    0.000 
#    0.000    0.000    0.000    0.000    0.000    0.000 
#
# Total GULP energy -134071.952976 kJ/mol
# GULP energy per Si atom -5586.331374 kJ/mol
# Density = 1.989651 g / cm^3
# Si number density = 19.941899 Si / 1000 Ang^3
#
#
#
# Elastic Constant Matrix: (Units=GPa)
#
#
# Indices 1 2 3 4 5 6 
#
# 1 104.3362 30.6297 53.4624 -0.0026 0.0134 -0.0120
# 2 30.6297 92.7438 39.5873 -0.0303 0.0476 -0.0151
# 3 53.4624 39.5873 121.7984 -0.0030 -0.0059 -0.0021
# 4 -0.0026 -0.0303 -0.0030 10.0076 0.0118 -0.0101
# 5 0.0134 0.0476 -0.0059 0.0118 34.2962 -0.0142
# 6 -0.0120 -0.0151 -0.0021 -0.0101 -0.0142 24.1398
#
#
#
# Elastic Compliance Matrix: (Units=1/GPa)
#
#
# Indices 1 2 3 4 5 6 
#
# 1 0.012711 -0.002109 -0.004894 -0.000004 -0.000003 0.000005
# 2 -0.002109 0.012869 -0.003257 0.000037 -0.000018 0.000007
# 3 -0.004894 -0.003257 0.011417 -0.000008 0.000008 -0.000003
# 4 -0.000004 0.000037 -0.000008 0.099924 -0.000034 0.000042
# 5 -0.000003 -0.000018 0.000008 -0.000034 0.029158 0.000017
# 6 0.000005 0.000007 -0.000003 0.000042 0.000017 0.041425
#
#
# Mechanical properties :
#
#
# Convention : Reuss Voigt Hill
#
# Bulk Modulus (GPa) = 60.68938 62.91525 61.80232
# Shear Modulus (GPa) = 21.41165 26.70199 24.05682
#
# Velocity S-wave (km/s) = 3.28029 3.66319 3.47702
# Velocity P-wave (km/s) = 6.69674 7.03631 6.86862
#
# Compressibility (1/GPa) = 0.01647735
#
# Stress axis : x y z
#
# Youngs Moduli (GPa) = 78.67036 77.70489 87.58805
#
# Poissons Ratio (x) = 0.16388 0.42866
# Poissons Ratio (y) = 0.16592 0.28528
# Poissons Ratio (z) = 0.38501 0.25309
#
# Static dielectric constant tensor:
#      x y z
#    x 1.693480 0.000010 -0.000010 
#    y 0.000010 1.667250 -0.000030 
#    z -0.000010 -0.000030 1.702730 
# 
# From -- ./inp_files/6666.got.cif
#   From: 2010.05.17/outbox.cif.g08.bks.cpg/sg22_4_cif.got.tgz:6666.got - 2010.06.03 23:40:54.
