data_PCOD9327998
_publ_section_title
;
Structure prediction by ZEFSAII (Michael W. Deem and Ramdas Pophale) SiO2 
 PCOD9327998
Probable space group: F 2 2 2
;
_chemical_formula_sum "Si O2"
_cell_formula_units_Z 80
_cell_length_a 18.500934
_cell_length_b 15.376497
_cell_length_c 10.895966
_cell_angle_alpha 90.000000
_cell_angle_beta 90.000000
_cell_angle_gamma 90.000000
_cell_volume 3099.679571
_symmetry_space_group_name_H-M "F 2 2 2"
_symmetry_group_IT_number 22
_symmetry_cell_setting 'orthorhombic'
loop_
_space_group_symop_operation_xyz
x,y,z
-x,-y,z
x,-y,-z
-x,y,-z
x,1/2+y,1/2+z
-x,1/2-y,1/2+z
x,1/2-y,1/2-z
-x,1/2+y,1/2-z
1/2+x,y,1/2+z
1/2-x,-y,1/2+z
1/2+x,-y,1/2-z
1/2-x,y,1/2-z
1/2+x,1/2+y,z
1/2-x,1/2-y,z
1/2+x,1/2-y,-z
1/2-x,1/2+y,-z
loop_
_atom_site_type_symbol
_atom_site_label
_atom_site_fract_x
_atom_site_fract_y
_atom_site_fract_z
Si Si1 0.152407 0.064638 0.890549
Si Si2 0.687714 0.494002 0.370952
Si Si3 0.624299 0.243741 0.120671
Si Si4 0.158166 0.678705 0.851741
Si Si5 0.998842 0.100222 0.645570
O O1 0.111756 0.154950 0.910043
O O2 0.240948 0.063663 0.893422
O O3 0.145208 0.036633 0.748151
O O4 0.130683 0.000000 0.000000
O O5 0.645781 0.500000 0.500000
O O6 0.707911 0.593823 0.349912
O O7 0.667577 0.250000 0.250000
O O8 0.559409 0.177583 0.156939
O O9 0.657946 0.210540 0.993091
O O10 0.174831 0.750000 0.750000
O O11 0.077782 0.643280 0.819680
O O12 0.000000 0.090501 0.500000
O O13 0.000000 0.000000 0.696105
#
# Coordination Sequence:
#
# PCOD9327998 Si02
#       5
#    16  16  16  16  16
#     4  10  22  43  64  95 138 168 217 275 335 388
#     4  10  22  41  67  93 130 180 217 261 331 399
#     4  11  23  41  68  99 130 171 225 275 325 398
#     4  11  23  41  67  95 131 170 223 273 327 397
#     4   9  21  39  67  96 128 172 223 273 329 394
#
# _framework density 25.809118000000002
#
# number of rings (size 3 to 8) (size 9 to 14) (size 15 to 20)
#    0.000    1.800    0.000    3.000    8.400    0.000 
#    0.000   24.000    0.000    0.000    0.000    0.000 
#    0.000    0.000    0.000    0.000    0.000    0.000 
#
# Total GULP energy -111561.623082 kJ/mol
# GULP energy per Si atom -5578.081154 kJ/mol
# Density = 2.575038 g / cm^3
# Si number density = 25.809118 Si / 1000 Ang^3
#
#
#
# Elastic Constant Matrix: (Units=GPa)
#
#
# Indices 1 2 3 4 5 6 
#
# 1 104.7136 48.9884 47.5386 0.0000 0.0000 0.0000
# 2 48.9884 221.4994 88.8288 0.0000 0.0000 0.0000
# 3 47.5386 88.8288 170.7566 0.0000 0.0000 0.0000
# 4 0.0000 0.0000 0.0000 57.0499 0.0000 0.0000
# 5 0.0000 0.0000 0.0000 0.0000 -220.2390 0.0000
# 6 0.0000 0.0000 0.0000 0.0000 0.0000 50.7897
#
#
#
# Elastic Compliance Matrix: (Units=1/GPa)
#
#
# Indices 1 2 3 4 5 6 
#
# 1 0.011348 -0.001570 -0.002342 0.000000 0.000000 0.000000
# 2 -0.001570 0.005922 -0.002644 0.000000 0.000000 0.000000
# 3 -0.002342 -0.002644 0.007884 0.000000 0.000000 0.000000
# 4 0.000000 0.000000 0.000000 0.017529 0.000000 0.000000
# 5 0.000000 0.000000 0.000000 0.000000 -0.004541 0.000000
# 6 0.000000 0.000000 0.000000 0.000000 0.000000 0.019689
#
#
# Mechanical properties :
#
#
# Convention : Reuss Voigt Hill
#
# Bulk Modulus (GPa) = 83.04893 96.40902 89.72897
# Shear Modulus (GPa) = 66.70490 -1.70564 32.49963
#
# Velocity S-wave (km/s) = 5.08936 -0.81382 3.55241
# Velocity P-wave (km/s) = 8.17211 6.04588 7.18805
#
# Compressibility (1/GPa) = 0.01204109
#
# Stress axis : x y z
#
# Youngs Moduli (GPa) = 88.12167 168.85705 126.84590
#
# Poissons Ratio (x) = 0.26518 0.29711
# Poissons Ratio (y) = 0.13839 0.33532
# Poissons Ratio (z) = 0.20641 0.44638
#
# Static dielectric constant tensor:
#      x y z
#    x 2.139810 0.000000 0.000000 
#    y 0.000000 2.152690 0.000000 
#    z 0.000000 0.000000 2.040850 
# 
# From -- ./inp_files/23563.got.cif
#   From: 2010.05.17/outbox.cif.g08.bks.cpg/sg22_12_cif.got.tgz:23563.got - 2010.06.03 23:40:54.
