data_PCOD9327276
_publ_section_title
;
Structure prediction by ZEFSAII (Michael W. Deem and Ramdas Pophale) SiO2 
 PCOD9327276
Probable space group: F 2 2 2
;
_chemical_formula_sum "Si O2"
_cell_formula_units_Z 60
_cell_length_a 9.903036
_cell_length_b 20.763754
_cell_length_c 11.364419
_cell_angle_alpha 90.000000
_cell_angle_beta 90.000000
_cell_angle_gamma 90.000000
_cell_volume 2336.799603
_symmetry_space_group_name_H-M "F 2 2 2"
_symmetry_group_IT_number 22
_symmetry_cell_setting 'orthorhombic'
loop_
_space_group_symop_operation_xyz
x,y,z
-x,-y,z
x,-y,-z
-x,y,-z
x,1/2+y,1/2+z
-x,1/2-y,1/2+z
x,1/2-y,1/2-z
-x,1/2+y,1/2-z
1/2+x,y,1/2+z
1/2-x,-y,1/2+z
1/2+x,-y,1/2-z
1/2-x,y,1/2-z
1/2+x,1/2+y,z
1/2-x,1/2-y,z
1/2+x,1/2-y,-z
1/2-x,1/2+y,-z
loop_
_atom_site_type_symbol
_atom_site_label
_atom_site_fract_x
_atom_site_fract_y
_atom_site_fract_z
Si Si1 0.250000 0.020252 0.750000
Si Si2 0.409977 0.824629 0.771533
Si Si3 0.860596 0.132168 0.407627
Si Si4 0.250000 0.250000 0.750000
Si Si5 0.620354 0.585000 0.079150
O O1 0.156282 0.067855 0.673636
O O2 0.323120 0.971966 0.660147
O O3 0.436193 0.750000 0.750000
O O4 0.250000 0.833599 0.750000
O O5 0.475020 0.853746 0.890280
O O6 0.460079 0.863580 0.659998
O O7 0.816102 0.198021 0.340214
O O8 0.742979 0.116889 0.504240
O O9 0.500000 0.562453 0.000000
#
# Coordination Sequence:
#
# PCOD9327276 Si02
#       5
#     8  16  16   4  16
#     4  11  26  51  77 126 163 204 284 330 395 526
#     4  11  26  53  77 118 167 206 279 348 394 496
#     4  11  25  45  87 113 158 222 263 338 414 482
#     4  10  20  44  70 126 146 192 286 314 390 506
#     4  12  27  52  83 121 165 222 266 336 426 492
#
# _framework density 25.676141999999999
#
# number of rings (size 3 to 8) (size 9 to 14) (size 15 to 20)
#    0.000    0.800    2.667    4.000    0.000   10.667 
#    0.000    0.000    5.867    0.000    0.000    0.000 
#    0.000    0.000    0.000    0.000    0.000    0.000 
#
# Total GULP energy -83623.485429 kJ/mol
# GULP energy per Si atom -5574.899029 kJ/mol
# Density = 2.561770 g / cm^3
# Si number density = 25.676142 Si / 1000 Ang^3
#
#
#
# Elastic Constant Matrix: (Units=GPa)
#
#
# Indices 1 2 3 4 5 6 
#
# 1 154.1155 43.5078 69.8750 0.0000 0.0000 0.0000
# 2 43.5078 138.6525 17.8857 0.0000 0.0000 0.0000
# 3 69.8750 17.8857 101.7343 0.0000 0.0000 0.0000
# 4 0.0000 0.0000 0.0000 -107.7076 0.0000 0.0000
# 5 0.0000 0.0000 0.0000 0.0000 27.9633 0.0000
# 6 0.0000 0.0000 0.0000 0.0000 0.0000 762.7008
#
#
#
# Elastic Compliance Matrix: (Units=1/GPa)
#
#
# Indices 1 2 3 4 5 6 
#
# 1 0.010108 -0.002329 -0.006533 0.000000 0.000000 0.000000
# 2 -0.002329 0.007916 0.000208 0.000000 0.000000 0.000000
# 3 -0.006533 0.000208 0.014280 0.000000 0.000000 0.000000
# 4 0.000000 0.000000 0.000000 -0.009284 0.000000 0.000000
# 5 0.000000 0.000000 0.000000 0.000000 0.035761 0.000000
# 6 0.000000 0.000000 0.000000 0.000000 0.000000 0.001311
#
#
# Mechanical properties :
#
#
# Convention : Reuss Voigt Hill
#
# Bulk Modulus (GPa) = 66.68435 73.00438 69.84436
# Shear Modulus (GPa) = 60.67934 154.14021 107.40978
#
# Velocity S-wave (km/s) = 4.86661 7.75647 6.47482
# Velocity P-wave (km/s) = 7.58988 10.42648 9.11915
#
# Compressibility (1/GPa) = 0.01499602
#
# Stress axis : x y z
#
# Youngs Moduli (GPa) = 98.92832 126.32161 70.02660
#
# Poissons Ratio (x) = 0.29422 0.45751
# Poissons Ratio (y) = 0.23042 -0.01456
# Poissons Ratio (z) = 0.64633 -0.02627
#
# Static dielectric constant tensor:
#      x y z
#    x 2.332970 0.000000 0.000000 
#    y 0.000000 1.918760 0.000000 
#    z 0.000000 0.000000 -13.733530 
# 
# From -- ./inp_files/17794.got.cif
#   From: 2010.05.17/outbox.cif.g08.bks.cpg/sg22_9_cif.got.tgz:17794.got - 2010.06.03 23:40:54.
