data_PCOD9327143
_publ_section_title
;
Structure prediction by ZEFSAII (Michael W. Deem and Ramdas Pophale) SiO2 
 PCOD9327143
Probable space group: F 2 2 2
;
_chemical_formula_sum "Si O2"
_cell_formula_units_Z 64
_cell_length_a 14.559433
_cell_length_b 7.957844
_cell_length_c 22.186619
_cell_angle_alpha 90.000000
_cell_angle_beta 90.000000
_cell_angle_gamma 90.000000
_cell_volume 2570.579318
_symmetry_space_group_name_H-M "F 2 2 2"
_symmetry_group_IT_number 22
_symmetry_cell_setting 'orthorhombic'
loop_
_space_group_symop_operation_xyz
x,y,z
-x,-y,z
x,-y,-z
-x,y,-z
x,1/2+y,1/2+z
-x,1/2-y,1/2+z
x,1/2-y,1/2-z
-x,1/2+y,1/2-z
1/2+x,y,1/2+z
1/2-x,-y,1/2+z
1/2+x,-y,1/2-z
1/2-x,y,1/2-z
1/2+x,1/2+y,z
1/2-x,1/2-y,z
1/2+x,1/2-y,-z
1/2-x,1/2+y,-z
loop_
_atom_site_type_symbol
_atom_site_label
_atom_site_fract_x
_atom_site_fract_y
_atom_site_fract_z
Si Si1 0.353677 0.799758 0.500279
Si Si2 0.224052 0.514389 0.182392
Si Si3 0.380530 0.302520 0.138724
Si Si4 0.058961 0.827801 0.381904
O O1 0.250000 0.750000 0.484081
O O2 0.367932 0.743715 0.569203
O O3 0.418919 0.719507 0.450524
O O4 0.366142 0.000000 0.500000
O O5 0.250000 0.556324 0.250000
O O6 0.317412 0.465936 0.147047
O O7 0.164503 0.340995 0.180246
O O8 0.155226 0.645213 0.151772
O O9 0.489364 0.306749 0.147352
O O10 0.000000 0.000000 0.378634
#
# Coordination Sequence:
#
# PCOD9327143 Si02
#       4
#    16  16  16  16
#     4  12  25  42  74 110 156 194 245 315 390 459
#     4  10  20  41  75  99 139 202 247 305 376 445
#     4  10  20  39  69 104 140 191 250 299 381 451
#     4  10  24  42  73 108 148 197 252 310 387 456
#
# _framework density 24.897110999999999
#
# number of rings (size 3 to 8) (size 9 to 14) (size 15 to 20)
#    0.000    1.500    2.500    3.750    3.500    5.000 
#    0.000    0.000   60.500    3.000    0.000    0.000 
#    0.000    0.000    0.000    0.000    0.000    0.000 
#
# Total GULP energy -89637.165844 kJ/mol
# GULP energy per Si atom -5602.322865 kJ/mol
# Density = 2.484044 g / cm^3
# Si number density = 24.897111 Si / 1000 Ang^3
#
#
#
# Elastic Constant Matrix: (Units=GPa)
#
#
# Indices 1 2 3 4 5 6 
#
# 1 226.1957 57.5085 74.1044 0.0000 0.0000 0.0000
# 2 57.5085 110.5080 36.1966 0.0000 0.0000 0.0000
# 3 74.1044 36.1966 154.5438 0.0000 0.0000 0.0000
# 4 0.0000 0.0000 0.0000 5.3720 0.0000 0.0000
# 5 0.0000 0.0000 0.0000 0.0000 21.7317 0.0000
# 6 0.0000 0.0000 0.0000 0.0000 0.0000 41.6110
#
#
#
# Elastic Compliance Matrix: (Units=1/GPa)
#
#
# Indices 1 2 3 4 5 6 
#
# 1 0.005719 -0.002251 -0.002215 0.000000 0.000000 0.000000
# 2 -0.002251 0.010687 -0.001424 0.000000 0.000000 0.000000
# 3 -0.002215 -0.001424 0.007866 0.000000 0.000000 0.000000
# 4 0.000000 0.000000 0.000000 0.186149 0.000000 0.000000
# 5 0.000000 0.000000 0.000000 0.000000 0.046016 0.000000
# 6 0.000000 0.000000 0.000000 0.000000 0.000000 0.024032
#
#
# Mechanical properties :
#
#
# Convention : Reuss Voigt Hill
#
# Bulk Modulus (GPa) = 80.04579 91.87404 85.95992
# Shear Modulus (GPa) = 16.86842 35.30548 26.08695
#
# Velocity S-wave (km/s) = 2.60576 3.76979 3.24047
# Velocity P-wave (km/s) = 6.42446 7.47864 6.97150
#
# Compressibility (1/GPa) = 0.01249285
#
# Stress axis : x y z
#
# Youngs Moduli (GPa) = 174.86122 93.57445 127.12478
#
# Poissons Ratio (x) = 0.21059 0.28159
# Poissons Ratio (y) = 0.39353 0.18101
# Poissons Ratio (z) = 0.38733 0.13324
#
# Static dielectric constant tensor:
#      x y z
#    x 1.999700 0.000000 0.000000 
#    y 0.000000 2.012760 0.000000 
#    z 0.000000 0.000000 1.885040 
# 
# From -- ./inp_files/11116.got.cif
#   From: 2010.05.17/outbox.cif.g08.bks.cpg/sg22_6_cif.got.tgz:11116.got - 2010.06.03 23:40:54.
