data_PCOD9327169
_publ_section_title
;
Structure prediction by ZEFSAII (Michael W. Deem and Ramdas Pophale) SiO2 
 PCOD9327169
Probable space group: F 2 2 2
;
_chemical_formula_sum "Si O2"
_cell_formula_units_Z 88
_cell_length_a 17.979423
_cell_length_b 9.825364
_cell_length_c 22.877238
_cell_angle_alpha 90.000000
_cell_angle_beta 90.000000
_cell_angle_gamma 90.000000
_cell_volume 4041.364192
_symmetry_space_group_name_H-M "F 2 2 2"
_symmetry_group_IT_number 22
_symmetry_cell_setting 'orthorhombic'
loop_
_space_group_symop_operation_xyz
x,y,z
-x,-y,z
x,-y,-z
-x,y,-z
x,1/2+y,1/2+z
-x,1/2-y,1/2+z
x,1/2-y,1/2-z
-x,1/2+y,1/2-z
1/2+x,y,1/2+z
1/2-x,-y,1/2+z
1/2+x,-y,1/2-z
1/2-x,y,1/2-z
1/2+x,1/2+y,z
1/2-x,1/2-y,z
1/2+x,1/2-y,-z
1/2-x,1/2+y,-z
loop_
_atom_site_type_symbol
_atom_site_label
_atom_site_fract_x
_atom_site_fract_y
_atom_site_fract_z
Si Si1 0.023753 0.250000 0.250000
Si Si2 0.162568 0.779945 0.318275
Si Si3 0.000000 0.500000 0.500000
Si Si4 0.770885 0.599370 0.051000
Si Si5 0.500000 0.000000 0.678149
Si Si6 0.861121 0.596006 0.167361
Si Si7 0.118472 0.550703 0.406860
Si Si8 0.250000 0.750000 0.750000
O O1 0.070221 0.327095 0.198391
O O2 0.982628 0.128089 0.217965
O O3 0.150093 0.750000 0.250000
O O4 0.250000 0.750000 0.325748
O O5 0.130523 0.685993 0.369672
O O6 0.136120 0.933754 0.327954
O O7 0.059576 0.577741 0.458994
O O8 0.750000 0.750000 0.028342
O O9 0.832041 0.622875 0.101651
O O10 0.695147 0.523848 0.075042
O O11 0.798627 0.500000 0.000000
O O12 0.429690 0.959954 0.638367
O O13 0.795803 0.651344 0.208631
#
# Coordination Sequence:
#
# PCOD9327169 Si02
#       8
#     8  16   4  16   8  16  16   4
#     4  11  26  45  66 104 141 184 237 280 352 421
#     4  11  22  36  67 112 143 169 213 295 367 414
#     4  10  24  48  68  88 134 200 234 266 312 418
#     4  12  26  43  69 103 137 174 229 292 351 407
#     4  11  26  43  68  96 137 196 231 278 334 421
#     4  11  23  40  68  99 142 176 219 293 355 414
#     4  11  24  45  68  98 137 183 237 276 341 414
#     4  10  20  40  62 100 140 176 204 266 378 422
#
# _framework density 21.774826000000001
#
# number of rings (size 3 to 8) (size 9 to 14) (size 15 to 20)
#    0.000    0.909    3.636    3.273    8.909    0.000 
#    0.000    0.000    0.000    0.000    4.727    0.000 
#    0.000    0.000    0.000    0.000    0.000    0.000 
#
# Total GULP energy -122751.690723 kJ/mol
# GULP energy per Si atom -5579.622306 kJ/mol
# Density = 2.172527 g / cm^3
# Si number density = 21.774826 Si / 1000 Ang^3
#
#
#
# Elastic Constant Matrix: (Units=GPa)
#
#
# Indices 1 2 3 4 5 6 
#
# 1 77.7055 7.8042 42.9843 0.0000 0.0000 0.0000
# 2 7.8042 129.8419 44.5150 0.0000 0.0000 0.0000
# 3 42.9843 44.5150 138.2328 0.0000 0.0000 0.0000
# 4 0.0000 0.0000 0.0000 40.7838 0.0000 0.0000
# 5 0.0000 0.0000 0.0000 0.0000 36.4254 0.0000
# 6 0.0000 0.0000 0.0000 0.0000 0.0000 19.7302
#
#
#
# Elastic Compliance Matrix: (Units=1/GPa)
#
#
# Indices 1 2 3 4 5 6 
#
# 1 0.015619 0.000816 -0.005120 0.000000 0.000000 0.000000
# 2 0.000816 0.008700 -0.003056 0.000000 0.000000 0.000000
# 3 -0.005120 -0.003056 0.009810 0.000000 0.000000 0.000000
# 4 0.000000 0.000000 0.000000 0.024520 0.000000 0.000000
# 5 0.000000 0.000000 0.000000 0.000000 0.027453 0.000000
# 6 0.000000 0.000000 0.000000 0.000000 0.000000 0.050684
#
#
# Mechanical properties :
#
#
# Convention : Reuss Voigt Hill
#
# Bulk Modulus (GPa) = 51.51527 59.59859 55.55693
# Shear Modulus (GPa) = 31.65066 36.08634 33.86850
#
# Velocity S-wave (km/s) = 3.81667 4.07535 3.94813
# Velocity P-wave (km/s) = 6.56751 7.04091 6.80833
#
# Compressibility (1/GPa) = 0.01941172
#
# Stress axis : x y z
#
# Youngs Moduli (GPa) = 64.02367 114.94014 101.93461
#
# Poissons Ratio (x) = -0.09385 0.52189
# Poissons Ratio (y) = -0.05227 0.31147
# Poissons Ratio (z) = 0.32779 0.35121
#
# Static dielectric constant tensor:
#      x y z
#    x 1.899770 0.000000 0.000000 
#    y 0.000000 1.745120 0.000000 
#    z 0.000000 0.000000 1.802750 
# 
# From -- ./inp_files/49875.got.cif
#   From: 2010.05.17/outbox.cif.g08.bks.cpg/sg22_25_cif.got.tgz:49875.got - 2010.06.03 23:40:54.
