data_PCOD9327550
_publ_section_title
;
Structure prediction by ZEFSAII (Michael W. Deem and Ramdas Pophale) SiO2 
 PCOD9327550
Probable space group: F 2 2 2
;
_chemical_formula_sum "Si O2"
_cell_formula_units_Z 64
_cell_length_a 5.667580
_cell_length_b 14.252918
_cell_length_c 35.053940
_cell_angle_alpha 90.000000
_cell_angle_beta 90.000000
_cell_angle_gamma 90.000000
_cell_volume 2831.641604
_symmetry_space_group_name_H-M "F 2 2 2"
_symmetry_group_IT_number 22
_symmetry_cell_setting 'orthorhombic'
loop_
_space_group_symop_operation_xyz
x,y,z
-x,-y,z
x,-y,-z
-x,y,-z
x,1/2+y,1/2+z
-x,1/2-y,1/2+z
x,1/2-y,1/2-z
-x,1/2+y,1/2-z
1/2+x,y,1/2+z
1/2-x,-y,1/2+z
1/2+x,-y,1/2-z
1/2-x,y,1/2-z
1/2+x,1/2+y,z
1/2-x,1/2-y,z
1/2+x,1/2-y,-z
1/2-x,1/2+y,-z
loop_
_atom_site_type_symbol
_atom_site_label
_atom_site_fract_x
_atom_site_fract_y
_atom_site_fract_z
Si Si1 0.500000 0.000000 0.378887
Si Si2 0.124809 0.399327 0.078015
Si Si3 0.004790 0.358567 0.235314
Si Si4 0.361959 0.351404 0.651891
Si Si5 0.500000 0.201470 0.000000
O O1 0.384582 0.076756 0.407139
O O2 0.684269 0.060637 0.354172
O O3 0.000000 0.500000 0.076399
O O4 0.006248 0.343996 0.112704
O O5 0.089076 0.353561 0.037335
O O6 0.006245 0.250000 0.250000
O O7 0.750000 0.393899 0.250000
O O8 0.011978 0.368029 0.189730
O O9 0.250000 0.400086 0.250000
O O10 0.250000 0.250000 0.658699
O O11 0.750000 0.250000 0.012208
#
# Coordination Sequence:
#
# PCOD9327550 Si02
#       5
#     8  16  16  16   8
#     4  10  26  44  75 108 148 206 252 312 390 455
#     4  10  25  47  71 104 150 197 246 310 381 448
#     4  10  21  39  66 109 135 187 253 295 368 446
#     4  11  23  43  75 106 146 198 255 316 381 462
#     4  12  29  48  75 116 146 190 258 305 376 461
#
# _framework density 22.601728999999999
#
# number of rings (size 3 to 8) (size 9 to 14) (size 15 to 20)
#    0.000    1.500    2.500    1.125   14.000    0.000 
#    0.000    0.000    8.250    0.000    0.000    0.000 
#    0.000    0.000    0.000    0.000    0.000    0.000 
#
# Total GULP energy -89323.764349 kJ/mol
# GULP energy per Si atom -5582.735272 kJ/mol
# Density = 2.255029 g / cm^3
# Si number density = 22.601729 Si / 1000 Ang^3
#
#
#
# Elastic Constant Matrix: (Units=GPa)
#
#
# Indices 1 2 3 4 5 6 
#
# 1 132.5212 31.7308 50.4452 0.0000 0.0000 0.0000
# 2 31.7308 81.1294 38.3610 0.0000 0.0000 0.0000
# 3 50.4452 38.3610 190.3022 0.0000 0.0000 0.0000
# 4 0.0000 0.0000 0.0000 40.5341 0.0000 0.0000
# 5 0.0000 0.0000 0.0000 0.0000 20.7747 0.0000
# 6 0.0000 0.0000 0.0000 0.0000 0.0000 -8.7899
#
#
#
# Elastic Compliance Matrix: (Units=1/GPa)
#
#
# Indices 1 2 3 4 5 6 
#
# 1 0.008864 -0.002604 -0.001825 0.000000 0.000000 0.000000
# 2 -0.002604 0.014390 -0.002210 0.000000 0.000000 0.000000
# 3 -0.001825 -0.002210 0.006184 0.000000 0.000000 0.000000
# 4 0.000000 0.000000 0.000000 0.024671 0.000000 0.000000
# 5 0.000000 0.000000 0.000000 0.000000 0.048135 0.000000
# 6 0.000000 0.000000 0.000000 0.000000 0.000000 -0.113767
#
#
# Mechanical properties :
#
#
# Convention : Reuss Voigt Hill
#
# Bulk Modulus (GPa) = 61.88342 71.66962 66.77652
# Shear Modulus (GPa) = 700.10817 29.39818 364.75318
#
# Velocity S-wave (km/s) = 17.61906 3.61044 12.71744
# Velocity P-wave (km/s) = 21.00827 7.01135 15.66057
#
# Compressibility (1/GPa) = 0.01615942
#
# Stress axis : x y z
#
# Youngs Moduli (GPa) = 112.81483 69.49457 161.70575
#
# Poissons Ratio (x) = 0.18097 0.29508
# Poissons Ratio (y) = 0.29377 0.35743
# Poissons Ratio (z) = 0.20586 0.15361
#
# Static dielectric constant tensor:
#      x y z
#    x 1.939200 0.000000 0.000000 
#    y 0.000000 1.849130 0.000000 
#    z 0.000000 0.000000 1.794160 
# 
# From -- ./inp_files/54777.got.cif
#   From: 2010.05.17/outbox.cif.g08.bks.cpg/sg22_28_cif.got.tgz:54777.got - 2010.06.03 23:40:54.
