data_PCOD9327441
_publ_section_title
;
Structure prediction by ZEFSAII (Michael W. Deem and Ramdas Pophale) SiO2 
 PCOD9327441
Probable space group: F 2 2 2
;
_chemical_formula_sum "Si O2"
_cell_formula_units_Z 84
_cell_length_a 6.530907
_cell_length_b 26.133760
_cell_length_c 27.639558
_cell_angle_alpha 90.000000
_cell_angle_beta 90.000000
_cell_angle_gamma 90.000000
_cell_volume 4717.441156
_symmetry_space_group_name_H-M "F 2 2 2"
_symmetry_group_IT_number 22
_symmetry_cell_setting 'orthorhombic'
loop_
_space_group_symop_operation_xyz
x,y,z
-x,-y,z
x,-y,-z
-x,y,-z
x,1/2+y,1/2+z
-x,1/2-y,1/2+z
x,1/2-y,1/2-z
-x,1/2+y,1/2-z
1/2+x,y,1/2+z
1/2-x,-y,1/2+z
1/2+x,-y,1/2-z
1/2-x,y,1/2-z
1/2+x,1/2+y,z
1/2-x,1/2-y,z
1/2+x,1/2-y,-z
1/2-x,1/2+y,-z
loop_
_atom_site_type_symbol
_atom_site_label
_atom_site_fract_x
_atom_site_fract_y
_atom_site_fract_z
Si Si1 0.169383 0.535654 0.700884
Si Si2 0.615751 0.052897 0.047987
Si Si3 0.267703 0.809441 0.690887
Si Si4 0.500000 0.500000 0.000000
Si Si5 0.498725 0.599764 0.646501
Si Si6 0.122679 0.372914 0.705662
O O1 0.250000 0.509345 0.750000
O O2 0.344540 0.555708 0.665506
O O3 0.000000 0.500000 0.676503
O O4 0.048107 0.585679 0.720329
O O5 0.565951 0.091188 0.091434
O O6 0.500000 0.000000 0.061011
O O7 0.500000 0.072009 0.000000
O O8 0.846201 0.035394 0.032521
O O9 0.250000 0.814194 0.750000
O O10 0.250000 0.750000 0.678933
O O11 0.110305 0.847028 0.663104
O O12 0.494751 0.829772 0.678755
O O13 0.711001 0.597567 0.674822
O O14 0.250000 0.350467 0.750000
#
# Coordination Sequence:
#
# PCOD9327441 Si02
#       6
#    16  16  16   4  16  16
#     4  11  23  33  48  76 121 162 192 225 272 342
#     4   9  21  39  60  84 117 146 190 238 282 350
#     4  10  21  38  57  83 119 153 194 243 286 344
#     4   8  18  40  60  82 116 152 186 236 296 330
#     4  11  22  37  56  85 112 150 194 237 294 339
#     4  11  19  35  53  77 115 151 193 239 276 337
#
# _framework density 17.806263000000001
#
# number of rings (size 3 to 8) (size 9 to 14) (size 15 to 20)
#    0.000    1.905    3.810    1.714    2.667    6.857 
#    1.714    0.000    0.000    0.000    4.952    0.000 
#    0.000    0.000    0.000    0.000    0.000    0.000 
#
# Total GULP energy -117029.453875 kJ/mol
# GULP energy per Si atom -5572.831137 kJ/mol
# Density = 1.776573 g / cm^3
# Si number density = 17.806263 Si / 1000 Ang^3
#
#
#
# Elastic Constant Matrix: (Units=GPa)
#
#
# Indices 1 2 3 4 5 6 
#
# 1 135.7782 42.8373 45.2595 0.0000 0.0000 0.0000
# 2 42.8373 79.2080 31.2066 0.0000 0.0000 0.0000
# 3 45.2595 31.2066 101.2615 0.0000 0.0000 0.0000
# 4 0.0000 0.0000 0.0000 6.2528 0.0000 0.0000
# 5 0.0000 0.0000 0.0000 0.0000 11.3828 0.0000
# 6 0.0000 0.0000 0.0000 0.0000 0.0000 16.0384
#
#
#
# Elastic Compliance Matrix: (Units=1/GPa)
#
#
# Indices 1 2 3 4 5 6 
#
# 1 0.009657 -0.004009 -0.003081 0.000000 0.000000 0.000000
# 2 -0.004009 0.016034 -0.003150 0.000000 0.000000 0.000000
# 3 -0.003081 -0.003150 0.012223 0.000000 0.000000 0.000000
# 4 0.000000 0.000000 0.000000 0.159928 0.000000 0.000000
# 5 0.000000 0.000000 0.000000 0.000000 0.087852 0.000000
# 6 0.000000 0.000000 0.000000 0.000000 0.000000 0.062350
#
#
# Mechanical properties :
#
#
# Convention : Reuss Voigt Hill
#
# Bulk Modulus (GPa) = 57.35425 61.65048 59.50237
# Shear Modulus (GPa) = 13.35708 19.86441 16.61075
#
# Velocity S-wave (km/s) = 2.74183 3.34366 3.05759
# Velocity P-wave (km/s) = 6.50412 7.04307 6.77895
#
# Compressibility (1/GPa) = 0.01743550
#
# Stress axis : x y z
#
# Youngs Moduli (GPa) = 103.55629 62.36796 81.81314
#
# Poissons Ratio (x) = 0.25002 0.25204
# Poissons Ratio (y) = 0.41513 0.25767
# Poissons Ratio (z) = 0.31902 0.19643
#
# Static dielectric constant tensor:
#      x y z
#    x 1.673890 0.000000 0.000000 
#    y 0.000000 1.646930 0.000000 
#    z 0.000000 0.000000 1.662290 
# 
# From -- ./inp_files/55110.got.cif
#   From: 2010.05.17/outbox.cif.g08.bks.cpg/sg22_28_cif.got.tgz:55110.got - 2010.06.03 23:40:54.
