data_PCOD9327864
_publ_section_title
;
Structure prediction by ZEFSAII (Michael W. Deem and Ramdas Pophale) SiO2 
 PCOD9327864
Probable space group: F 2 2 2
;
_chemical_formula_sum "Si O2"
_cell_formula_units_Z 72
_cell_length_a 19.548928
_cell_length_b 7.659046
_cell_length_c 22.421880
_cell_angle_alpha 90.000000
_cell_angle_beta 90.000000
_cell_angle_gamma 90.000000
_cell_volume 3357.141517
_symmetry_space_group_name_H-M "F 2 2 2"
_symmetry_group_IT_number 22
_symmetry_cell_setting 'orthorhombic'
loop_
_space_group_symop_operation_xyz
x,y,z
-x,-y,z
x,-y,-z
-x,y,-z
x,1/2+y,1/2+z
-x,1/2-y,1/2+z
x,1/2-y,1/2-z
-x,1/2+y,1/2-z
1/2+x,y,1/2+z
1/2-x,-y,1/2+z
1/2+x,-y,1/2-z
1/2-x,y,1/2-z
1/2+x,1/2+y,z
1/2-x,1/2-y,z
1/2+x,1/2-y,-z
1/2-x,1/2+y,-z
loop_
_atom_site_type_symbol
_atom_site_label
_atom_site_fract_x
_atom_site_fract_y
_atom_site_fract_z
Si Si1 0.750000 0.250000 0.862997
Si Si2 0.695718 0.403625 0.132126
Si Si3 0.500000 0.000000 0.108501
Si Si4 0.367375 0.634847 0.545978
Si Si5 0.046335 0.674424 0.315997
Si Si6 0.348322 0.500000 0.000000
O O1 0.720802 0.423099 0.832884
O O2 0.687078 0.179251 0.903023
O O3 0.750000 0.250000 0.140571
O O4 0.619732 0.358997 0.153673
O O5 0.691093 0.449754 0.061189
O O6 0.567197 0.965805 0.070117
O O7 0.490747 0.827156 0.147563
O O8 0.333897 0.500000 0.500000
O O9 0.387048 0.820968 0.516834
O O10 0.056817 0.750000 0.250000
O O11 0.000000 0.500000 0.315518
#
# Coordination Sequence:
#
# PCOD9327864 Si02
#       6
#     8  16   8  16  16   8
#     4  10  22  38  62  97 138 180 225 268 346 418
#     4  11  24  41  69 106 143 180 232 291 351 435
#     4  12  25  46  66 102 136 175 244 302 358 422
#     4  11  23  38  65  98 142 183 221 278 339 427
#     4  12  26  49  75  97 134 191 248 305 373 433
#     4  10  22  38  65 102 142 189 220 270 364 434
#
# _framework density 21.446815999999998
#
# number of rings (size 3 to 8) (size 9 to 14) (size 15 to 20)
#    0.000    0.889    1.111    7.000   12.444    0.444 
#    0.000    9.444    0.000    1.333    0.000    0.000 
#    0.000    0.000    0.000    0.000    0.000    0.000 
#
# Total GULP energy -100606.646815 kJ/mol
# GULP energy per Si atom -5589.258156 kJ/mol
# Density = 2.139800 g / cm^3
# Si number density = 21.446816 Si / 1000 Ang^3
#
#
#
# Elastic Constant Matrix: (Units=GPa)
#
#
# Indices 1 2 3 4 5 6 
#
# 1 125.5536 43.1972 37.0777 0.0000 -0.0001 0.0000
# 2 43.1972 171.2373 34.4374 0.0000 -0.0002 0.0000
# 3 37.0777 34.4374 58.0357 0.0000 0.0000 0.0000
# 4 0.0000 0.0000 0.0000 15.7248 0.0000 0.0000
# 5 -0.0001 -0.0002 0.0000 0.0000 -100.8194 0.0001
# 6 0.0000 0.0000 0.0000 0.0000 0.0001 45.1676
#
#
#
# Elastic Compliance Matrix: (Units=1/GPa)
#
#
# Indices 1 2 3 4 5 6 
#
# 1 0.010113 -0.001421 -0.005617 0.000000 0.000000 0.000000
# 2 -0.001421 0.006831 -0.003145 0.000000 0.000000 0.000000
# 3 -0.005617 -0.003145 0.022686 0.000000 0.000000 0.000000
# 4 0.000000 0.000000 0.000000 0.063594 0.000000 0.000000
# 5 0.000000 0.000000 0.000000 0.000000 -0.009919 0.000000
# 6 0.000000 0.000000 0.000000 0.000000 0.000000 0.022140
#
#
# Mechanical properties :
#
#
# Convention : Reuss Voigt Hill
#
# Bulk Modulus (GPa) = 51.91692 64.91682 58.41687
# Shear Modulus (GPa) = 35.15363 8.02221 21.58792
#
# Velocity S-wave (km/s) = 4.05298 1.93614 3.17611
# Velocity P-wave (km/s) = 6.79427 5.94413 6.38336
#
# Compressibility (1/GPa) = 0.01926154
#
# Stress axis : x y z
#
# Youngs Moduli (GPa) = 98.88626 146.39232 44.08020
#
# Poissons Ratio (x) = 0.20808 0.24761
# Poissons Ratio (y) = 0.14055 0.13865
# Poissons Ratio (z) = 0.55548 0.46045
#
# Static dielectric constant tensor:
#      x y z
#    x 1.747280 0.000000 0.000000 
#    y 0.000000 1.826990 0.000000 
#    z 0.000000 0.000000 1.806720 
# 
# From -- ./inp_files/49281.got.cif
#   From: 2010.05.17/outbox.cif.g08.bks.cpg/sg22_25_cif.got.tgz:49281.got - 2010.06.03 23:40:54.
