data_PCOD9327422
_publ_section_title
;
Structure prediction by ZEFSAII (Michael W. Deem and Ramdas Pophale) SiO2 
 PCOD9327422
Probable space group: F 2 2 2
;
_chemical_formula_sum "Si O2"
_cell_formula_units_Z 100
_cell_length_a 17.994301
_cell_length_b 16.401428
_cell_length_c 16.753261
_cell_angle_alpha 90.000000
_cell_angle_beta 90.000000
_cell_angle_gamma 90.000000
_cell_volume 4944.427317
_symmetry_space_group_name_H-M "F 2 2 2"
_symmetry_group_IT_number 22
_symmetry_cell_setting 'orthorhombic'
loop_
_space_group_symop_operation_xyz
x,y,z
-x,-y,z
x,-y,-z
-x,y,-z
x,1/2+y,1/2+z
-x,1/2-y,1/2+z
x,1/2-y,1/2-z
-x,1/2+y,1/2-z
1/2+x,y,1/2+z
1/2-x,-y,1/2+z
1/2+x,-y,1/2-z
1/2-x,y,1/2-z
1/2+x,1/2+y,z
1/2-x,1/2-y,z
1/2+x,1/2-y,-z
1/2-x,1/2+y,-z
loop_
_atom_site_type_symbol
_atom_site_label
_atom_site_fract_x
_atom_site_fract_y
_atom_site_fract_z
Si Si1 0.485595 0.706061 0.664869
Si Si2 0.623638 0.373269 0.555717
Si Si3 0.500000 0.500000 0.500000
Si Si4 0.197517 0.521521 0.820502
Si Si5 0.560090 0.438307 0.241794
Si Si6 0.782933 0.650797 0.897063
Si Si7 0.630643 0.294380 0.136839
O O1 0.470316 0.750000 0.750000
O O2 0.415769 0.696718 0.607242
O O3 0.518799 0.618788 0.693028
O O4 0.550388 0.755442 0.618983
O O5 0.557754 0.439217 0.542888
O O6 0.686102 0.414265 0.610097
O O7 0.661560 0.352211 0.471937
O O8 0.250000 0.550288 0.750000
O O9 0.118292 0.497594 0.783797
O O10 0.225231 0.436810 0.857471
O O11 0.500000 0.500000 0.202406
O O12 0.605611 0.373693 0.187376
O O13 0.698777 0.676953 0.919415
O O14 0.824206 0.712209 0.834192
#
# Coordination Sequence:
#
# PCOD9327422 Si02
#       7
#    16  16   4  16  16  16  16
#     4  10  21  37  62  95 127 166 219 273 324 380
#     4  12  23  40  63  99 134 173 220 270 332 395
#     4  12  20  32  68  92 136 164 218 280 328 376
#     4  12  22  37  63 100 132 170 215 274 340 391
#     4  11  20  36  64  98 128 160 215 281 331 377
#     4  11  22  39  63  94 137 172 215 278 331 389
#     4  10  22  38  62  95 125 173 217 267 326 386
#
# _framework density 20.224788
#
# number of rings (size 3 to 8) (size 9 to 14) (size 15 to 20)
#    0.000    0.960    6.400    1.920    0.000    0.000 
#    0.000    3.200    3.520    0.000    0.000    0.000 
#    0.000    0.000    0.000    0.000    0.000    0.000 
#
# Total GULP energy -139196.509921 kJ/mol
# GULP energy per Si atom -5567.860397 kJ/mol
# Density = 2.017876 g / cm^3
# Si number density = 20.224788 Si / 1000 Ang^3
#
#
#
# Elastic Constant Matrix: (Units=GPa)
#
#
# Indices 1 2 3 4 5 6 
#
# 1 81.2768 46.2558 49.1296 0.0000 0.0000 0.0000
# 2 46.2558 58.6994 32.5787 0.0000 0.0000 0.0000
# 3 49.1296 32.5787 86.9568 0.0000 0.0000 0.0000
# 4 0.0000 0.0000 0.0000 -356.3822 0.0000 0.0000
# 5 0.0000 0.0000 0.0000 0.0000 31.1925 0.0000
# 6 0.0000 0.0000 0.0000 0.0000 0.0000 32.0037
#
#
#
# Elastic Compliance Matrix: (Units=1/GPa)
#
#
# Indices 1 2 3 4 5 6 
#
# 1 0.027146 -0.016260 -0.009245 0.000000 0.000000 0.000000
# 2 -0.016260 0.031248 -0.002520 0.000000 0.000000 0.000000
# 3 -0.009245 -0.002520 0.017668 0.000000 0.000000 0.000000
# 4 0.000000 0.000000 0.000000 -0.002806 0.000000 0.000000
# 5 0.000000 0.000000 0.000000 0.000000 0.032059 0.000000
# 6 0.000000 0.000000 0.000000 0.000000 0.000000 0.031246
#
#
# Mechanical properties :
#
#
# Convention : Reuss Voigt Hill
#
# Bulk Modulus (GPa) = 49.97475 53.65124 51.81299
# Shear Modulus (GPa) = 25.08998 -52.03925 -13.47463
#
# Velocity S-wave (km/s) = 3.52597 -5.07802 -2.58397
# Velocity P-wave (km/s) = 6.42962 2.79225 4.09532
#
# Compressibility (1/GPa) = 0.02001010
#
# Stress axis : x y z
#
# Youngs Moduli (GPa) = 36.83775 32.00208 56.60053
#
# Poissons Ratio (x) = 0.52036 0.52329
# Poissons Ratio (y) = 0.59899 0.14265
# Poissons Ratio (z) = 0.34057 0.08066
#
# Static dielectric constant tensor:
#      x y z
#    x 1.749880 0.000000 0.000000 
#    y 0.000000 1.880220 0.000000 
#    z 0.000000 0.000000 1.726990 
# 
# From -- ./inp_files/38940.got.cif
#   From: 2010.05.17/outbox.cif.g08.bks.cpg/sg22_20_cif.got.tgz:38940.got - 2010.06.03 23:40:54.
