data_PCOD9327888
_publ_section_title
;
Structure prediction by ZEFSAII (Michael W. Deem and Ramdas Pophale) SiO2 
 PCOD9327888
Probable space group: F 2 2 2
;
_chemical_formula_sum "Si O2"
_cell_formula_units_Z 80
_cell_length_a 34.570880
_cell_length_b 11.714533
_cell_length_c 10.771351
_cell_angle_alpha 90.000000
_cell_angle_beta 90.000000
_cell_angle_gamma 90.000000
_cell_volume 4362.200197
_symmetry_space_group_name_H-M "F 2 2 2"
_symmetry_group_IT_number 22
_symmetry_cell_setting 'orthorhombic'
loop_
_space_group_symop_operation_xyz
x,y,z
-x,-y,z
x,-y,-z
-x,y,-z
x,1/2+y,1/2+z
-x,1/2-y,1/2+z
x,1/2-y,1/2-z
-x,1/2+y,1/2-z
1/2+x,y,1/2+z
1/2-x,-y,1/2+z
1/2+x,-y,1/2-z
1/2-x,y,1/2-z
1/2+x,1/2+y,z
1/2-x,1/2-y,z
1/2+x,1/2-y,-z
1/2-x,1/2+y,-z
loop_
_atom_site_type_symbol
_atom_site_label
_atom_site_fract_x
_atom_site_fract_y
_atom_site_fract_z
Si Si1 0.611247 0.354830 0.169215
Si Si2 0.332739 0.000000 0.500000
Si Si3 0.544560 0.362645 0.985348
Si Si4 0.794889 0.886874 0.234475
Si Si5 0.371179 0.543559 0.638643
Si Si6 0.583826 0.750000 0.250000
O O1 0.626855 0.250000 0.250000
O O2 0.640251 0.407097 0.067870
O O3 0.607376 0.457054 0.267682
O O4 0.572729 0.318936 0.095107
O O5 0.308166 0.931512 0.600420
O O6 0.559463 0.320804 0.851432
O O7 0.547044 0.500000 0.000000
O O8 0.500000 0.328097 0.000000
O O9 0.798451 0.750000 0.250000
O O10 0.750000 0.917166 0.250000
O O11 0.825755 0.946315 0.326602
O O12 0.376297 0.500000 0.500000
O O13 0.389632 0.665677 0.669088
#
# Coordination Sequence:
#
# PCOD9327888 Si02
#       6
#    16   8  16  16  16   8
#     4  11  22  40  64  91 123 160 208 251 304 363
#     4  10  22  42  59  90 120 162 204 254 293 368
#     4  11  23  41  63  89 127 163 199 254 309 362
#     4  10  22  39  61  89 124 161 197 252 307 357
#     4  11  23  38  66  93 120 164 208 252 301 363
#     4  12  22  44  63  90 124 160 208 254 299 370
#
# _framework density 18.339369000000001
#
# number of rings (size 3 to 8) (size 9 to 14) (size 15 to 20)
#    0.000    1.200    4.000    2.400    5.600    0.000 
#    0.000    0.000    0.000    5.400    0.000    0.000 
#    0.000    0.000    0.000    0.000    0.000    0.000 
#
# Total GULP energy -111633.503502 kJ/mol
# GULP energy per Si atom -5581.675175 kJ/mol
# Density = 1.829763 g / cm^3
# Si number density = 18.339369 Si / 1000 Ang^3
#
#
#
# Elastic Constant Matrix: (Units=GPa)
#
#
# Indices 1 2 3 4 5 6 
#
# 1 135.0042 41.5775 86.6437 0.0000 0.0000 0.0000
# 2 41.5775 88.1986 52.8476 0.0000 0.0000 0.0000
# 3 86.6437 52.8476 160.3493 0.0000 0.0000 0.0000
# 4 0.0000 0.0000 0.0000 39.0146 0.0000 0.0000
# 5 0.0000 0.0000 0.0000 0.0000 2.8889 0.0000
# 6 0.0000 0.0000 0.0000 0.0000 0.0000 -24.2711
#
#
#
# Elastic Compliance Matrix: (Units=1/GPa)
#
#
# Indices 1 2 3 4 5 6 
#
# 1 0.011656 -0.002144 -0.005592 0.000000 0.000000 0.000000
# 2 -0.002144 0.014523 -0.003628 0.000000 0.000000 0.000000
# 3 -0.005592 -0.003628 0.010453 0.000000 0.000000 0.000000
# 4 0.000000 0.000000 0.000000 0.025631 0.000000 0.000000
# 5 0.000000 0.000000 0.000000 0.000000 0.346158 0.000000
# 6 0.000000 0.000000 0.000000 0.000000 0.000000 -0.041201
#
#
# Mechanical properties :
#
#
# Convention : Reuss Voigt Hill
#
# Bulk Modulus (GPa) = 71.91715 82.85443 77.38579
# Shear Modulus (GPa) = 12.67164 17.02536 14.84850
#
# Velocity S-wave (km/s) = 2.63145 3.05019 2.84852
# Velocity P-wave (km/s) = 6.96652 7.59483 7.28745
#
# Compressibility (1/GPa) = 0.01390489
#
# Stress axis : x y z
#
# Youngs Moduli (GPa) = 85.79119 68.85845 95.66313
#
# Poissons Ratio (x) = 0.14766 0.53491
# Poissons Ratio (y) = 0.18397 0.34703
# Poissons Ratio (z) = 0.47971 0.24979
#
# Static dielectric constant tensor:
#      x y z
#    x 1.627100 0.000000 0.000000 
#    y 0.000000 1.683780 0.000000 
#    z 0.000000 0.000000 1.638970 
# 
# From -- ./inp_files/25146.got.cif
#   From: 2010.05.17/outbox.cif.g08.bks.cpg/sg22_13_cif.got.tgz:25146.got - 2010.06.03 23:40:54.
