data_PCOD9327315
_publ_section_title
;
Structure prediction by ZEFSAII (Michael W. Deem and Ramdas Pophale) SiO2 
 PCOD9327315
Probable space group: F 2 2 2
;
_chemical_formula_sum "Si O2"
_cell_formula_units_Z 116
_cell_length_a 23.881238
_cell_length_b 25.385966
_cell_length_c 8.963352
_cell_angle_alpha 90.000000
_cell_angle_beta 90.000000
_cell_angle_gamma 90.000000
_cell_volume 5434.016876
_symmetry_space_group_name_H-M "F 2 2 2"
_symmetry_group_IT_number 22
_symmetry_cell_setting 'orthorhombic'
loop_
_space_group_symop_operation_xyz
x,y,z
-x,-y,z
x,-y,-z
-x,y,-z
x,1/2+y,1/2+z
-x,1/2-y,1/2+z
x,1/2-y,1/2-z
-x,1/2+y,1/2-z
1/2+x,y,1/2+z
1/2-x,-y,1/2+z
1/2+x,-y,1/2-z
1/2-x,y,1/2-z
1/2+x,1/2+y,z
1/2-x,1/2-y,z
1/2+x,1/2-y,-z
1/2-x,1/2+y,-z
loop_
_atom_site_type_symbol
_atom_site_label
_atom_site_fract_x
_atom_site_fract_y
_atom_site_fract_z
Si Si1 0.135859 0.830616 0.995379
Si Si2 0.048141 0.860572 0.763922
Si Si3 0.075894 0.638694 0.219840
Si Si4 0.086198 0.555894 0.964940
Si Si5 0.712023 0.050216 0.898742
Si Si6 0.438072 0.270732 0.473958
Si Si7 0.758342 0.848916 0.585012
Si Si8 0.750000 0.750000 0.750000
O O1 0.122776 0.850574 0.160547
O O2 0.109698 0.772680 0.976899
O O3 0.202441 0.834127 0.991386
O O4 0.098217 0.864672 0.881711
O O5 0.051948 0.906678 0.643204
O O6 0.059127 0.805999 0.674736
O O7 0.983204 0.862793 0.808527
O O8 0.070699 0.687670 0.106870
O O9 0.090320 0.588539 0.118883
O O10 0.145191 0.543708 0.882247
O O11 0.060595 0.500000 0.000000
O O12 0.750000 0.052033 0.750000
O O13 0.713932 0.106539 0.984616
O O14 0.730679 0.000000 0.000000
O O15 0.500000 0.246352 0.500000
O O16 0.750000 0.874313 0.750000
O O17 0.781916 0.791510 0.641162
#
# Coordination Sequence:
#
# PCOD9327315 Si02
#       8
#    16  16  16  16  16  16  16   4
#     4  12  21  33  59  86 119 160 197 254 302 367
#     4  10  21  37  55  89 122 153 199 250 301 363
#     4  10  21  34  58  86 120 158 200 244 296 377
#     4  10  22  41  64  84 110 159 204 249 313 382
#     4  11  23  42  68  95 121 160 218 286 333 387
#     4   9  19  34  54  82 120 161 198 237 294 368
#     4  10  23  41  60  88 125 169 214 267 328 395
#     4   8  24  40  62  84 132 172 218 262 344 416
#
# _framework density 21.347009
#
# number of rings (size 3 to 8) (size 9 to 14) (size 15 to 20)
#    0.414    1.379    0.000    5.379    1.931    5.517 
#    0.000    2.414    0.000    1.655    0.000    0.000 
#    0.000    0.000    0.000    0.000    0.000    0.000 
#
# Total GULP energy -161705.862764 kJ/mol
# GULP energy per Si atom -5576.064233 kJ/mol
# Density = 2.129842 g / cm^3
# Si number density = 21.347009 Si / 1000 Ang^3
#
#
#
# Elastic Constant Matrix: (Units=GPa)
#
#
# Indices 1 2 3 4 5 6 
#
# 1 87.4104 16.4912 9.2110 0.0000 -0.0002 0.0000
# 2 16.4912 123.9147 15.9201 -0.0002 -0.0001 0.0001
# 3 9.2110 15.9201 59.4867 0.0004 -0.0010 0.0000
# 4 0.0000 -0.0002 0.0004 21.5490 -0.0003 0.0000
# 5 -0.0002 -0.0001 -0.0010 -0.0003 28.2369 0.0001
# 6 0.0000 0.0001 0.0000 0.0000 0.0001 18.0133
#
#
#
# Elastic Compliance Matrix: (Units=1/GPa)
#
#
# Indices 1 2 3 4 5 6 
#
# 1 0.011857 -0.001390 -0.001464 0.000000 0.000000 0.000000
# 2 -0.001390 0.008520 -0.002065 0.000000 0.000000 0.000000
# 3 -0.001464 -0.002065 0.017590 0.000000 0.000001 0.000000
# 4 0.000000 0.000000 0.000000 0.046406 0.000000 0.000000
# 5 0.000000 0.000000 0.000001 0.000000 0.035415 0.000000
# 6 0.000000 0.000000 0.000000 0.000000 0.000000 0.055515
#
#
# Mechanical properties :
#
#
# Convention : Reuss Voigt Hill
#
# Bulk Modulus (GPa) = 35.55026 39.33961 37.44493
# Shear Modulus (GPa) = 25.70480 28.83913 27.27196
#
# Velocity S-wave (km/s) = 3.47384 3.67954 3.57817
# Velocity P-wave (km/s) = 5.72536 6.04323 5.88644
#
# Compressibility (1/GPa) = 0.02812919
#
# Stress axis : x y z
#
# Youngs Moduli (GPa) = 84.33994 117.36602 56.85103
#
# Poissons Ratio (x) = 0.16312 0.08323
# Poissons Ratio (y) = 0.11722 0.11740
# Poissons Ratio (z) = 0.12347 0.24237
#
# Static dielectric constant tensor:
#      x y z
#    x 1.795260 0.000000 0.000000 
#    y 0.000000 1.764200 0.000000 
#    z 0.000000 0.000000 1.781610 
# 
# From -- ./inp_files/14096.got.cif
#   From: 2010.05.17/outbox.cif.g08.bks.cpg/sg22_8_cif.got.tgz:14096.got - 2010.06.03 23:40:54.
