data_PCOD9327771
_publ_section_title
;
Structure prediction by ZEFSAII (Michael W. Deem and Ramdas Pophale) SiO2 
 PCOD9327771
Probable space group: F 2 2 2
;
_chemical_formula_sum "Si O2"
_cell_formula_units_Z 88
_cell_length_a 10.177275
_cell_length_b 20.798406
_cell_length_c 18.116408
_cell_angle_alpha 90.000000
_cell_angle_beta 90.000000
_cell_angle_gamma 90.000000
_cell_volume 3834.719963
_symmetry_space_group_name_H-M "F 2 2 2"
_symmetry_group_IT_number 22
_symmetry_cell_setting 'orthorhombic'
loop_
_space_group_symop_operation_xyz
x,y,z
-x,-y,z
x,-y,-z
-x,y,-z
x,1/2+y,1/2+z
-x,1/2-y,1/2+z
x,1/2-y,1/2-z
-x,1/2+y,1/2-z
1/2+x,y,1/2+z
1/2-x,-y,1/2+z
1/2+x,-y,1/2-z
1/2-x,y,1/2-z
1/2+x,1/2+y,z
1/2-x,1/2-y,z
1/2+x,1/2-y,-z
1/2-x,1/2+y,-z
loop_
_atom_site_type_symbol
_atom_site_label
_atom_site_fract_x
_atom_site_fract_y
_atom_site_fract_z
Si Si1 0.529318 0.284453 0.827432
Si Si2 0.632895 0.085284 0.694567
Si Si3 0.258470 0.172378 0.665537
Si Si4 0.000000 0.500000 0.800740
Si Si5 0.804078 0.967352 0.419006
Si Si6 0.012629 0.659988 0.915634
O O1 0.491703 0.250000 0.750000
O O2 0.636645 0.338373 0.813910
O O3 0.410868 0.330210 0.859130
O O4 0.566324 0.223720 0.876126
O O5 0.750000 0.067224 0.750000
O O6 0.664042 0.051024 0.616940
O O7 0.512941 0.059438 0.743866
O O8 0.250000 0.149556 0.750000
O O9 0.250000 0.250000 0.664651
O O10 0.133871 0.149447 0.618321
O O11 0.879572 0.509301 0.857471
O O12 0.892238 0.901904 0.414951
O O13 0.804270 0.000000 0.500000
O O14 0.000000 0.677514 0.000000
#
# Coordination Sequence:
#
# PCOD9327771 Si02
#       6
#    16  16  16   8  16  16
#     4  11  20  41  70 104 145 177 226 292 360 426
#     4  10  24  43  68 103 136 178 232 296 355 416
#     4   9  17  36  64 100 136 176 222 276 341 414
#     4  10  21  44  69  94 126 172 240 278 333 418
#     4  11  24  47  70  96 136 184 237 292 353 417
#     4  11  23  41  67 101 140 183 230 285 351 429
#
# _framework density 22.948219999999999
#
# number of rings (size 3 to 8) (size 9 to 14) (size 15 to 20)
#    0.000    1.636    3.636    3.545    0.000    2.545 
#   22.909    0.455    0.000    0.000    0.000    0.000 
#    0.000    0.000    0.000    0.000    0.000    0.000 
#
# Total GULP energy -122591.664530 kJ/mol
# GULP energy per Si atom -5572.348388 kJ/mol
# Density = 2.289599 g / cm^3
# Si number density = 22.948220 Si / 1000 Ang^3
#
#
#
# Elastic Constant Matrix: (Units=GPa)
#
#
# Indices 1 2 3 4 5 6 
#
# 1 44.1845 20.1253 55.0488 0.0000 0.0000 0.0000
# 2 20.1253 131.9931 85.4452 0.0000 0.0000 0.0000
# 3 55.0488 85.4452 180.5080 0.0000 0.0000 0.0000
# 4 0.0000 0.0000 0.0000 37.2152 0.0000 0.0000
# 5 0.0000 0.0000 0.0000 0.0000 29.6740 0.0000
# 6 0.0000 0.0000 0.0000 0.0000 0.0000 13.8278
#
#
#
# Elastic Compliance Matrix: (Units=1/GPa)
#
#
# Indices 1 2 3 4 5 6 
#
# 1 0.037020 0.002399 -0.012426 0.000000 0.000000 0.000000
# 2 0.002399 0.011079 -0.005976 0.000000 0.000000 0.000000
# 3 -0.012426 -0.005976 0.012158 0.000000 0.000000 0.000000
# 4 0.000000 0.000000 0.000000 0.026871 0.000000 0.000000
# 5 0.000000 0.000000 0.000000 0.000000 0.033700 0.000000
# 6 0.000000 0.000000 0.000000 0.000000 0.000000 0.072318
#
#
# Mechanical properties :
#
#
# Convention : Reuss Voigt Hill
#
# Bulk Modulus (GPa) = 35.39513 75.32491 55.36002
# Shear Modulus (GPa) = 21.31576 29.21448 25.26512
#
# Velocity S-wave (km/s) = 3.05103 3.57187 3.32167
# Velocity P-wave (km/s) = 5.27912 7.06443 6.23599
#
# Compressibility (1/GPa) = 0.02825247
#
# Stress axis : x y z
#
# Youngs Moduli (GPa) = 27.01207 90.26217 82.24998
#
# Poissons Ratio (x) = -0.21654 1.02201
# Poissons Ratio (y) = -0.06480 0.49152
# Poissons Ratio (z) = 0.33564 0.53940
#
# Static dielectric constant tensor:
#      x y z
#    x 2.165430 0.000000 0.000000 
#    y 0.000000 2.031200 0.000000 
#    z 0.000000 0.000000 1.909430 
# 
# From -- ./inp_files/36082.got.cif
#   From: 2010.05.17/outbox.cif.g08.bks.cpg/sg22_19_cif.got.tgz:36082.got - 2010.06.03 23:40:54.
