data_PCOD9327429
_publ_section_title
;
Structure prediction by ZEFSAII (Michael W. Deem and Ramdas Pophale) SiO2 
 PCOD9327429
Probable space group: F 2 2 2
;
_chemical_formula_sum "Si O2"
_cell_formula_units_Z 88
_cell_length_a 24.556330
_cell_length_b 9.212101
_cell_length_c 17.541582
_cell_angle_alpha 90.000000
_cell_angle_beta 90.000000
_cell_angle_gamma 90.000000
_cell_volume 3968.175851
_symmetry_space_group_name_H-M "F 2 2 2"
_symmetry_group_IT_number 22
_symmetry_cell_setting 'orthorhombic'
loop_
_space_group_symop_operation_xyz
x,y,z
-x,-y,z
x,-y,-z
-x,y,-z
x,1/2+y,1/2+z
-x,1/2-y,1/2+z
x,1/2-y,1/2-z
-x,1/2+y,1/2-z
1/2+x,y,1/2+z
1/2-x,-y,1/2+z
1/2+x,-y,1/2-z
1/2-x,y,1/2-z
1/2+x,1/2+y,z
1/2-x,1/2-y,z
1/2+x,1/2-y,-z
1/2-x,1/2+y,-z
loop_
_atom_site_type_symbol
_atom_site_label
_atom_site_fract_x
_atom_site_fract_y
_atom_site_fract_z
Si Si1 0.474212 0.835656 0.170123
Si Si2 0.335026 0.009972 0.408057
Si Si3 0.250000 0.250000 0.423765
Si Si4 0.082076 0.284241 0.340823
Si Si5 0.656660 0.942897 0.073443
Si Si6 0.151217 0.290925 0.838549
O O1 0.469436 0.750000 0.250000
O O2 0.521037 0.741994 0.129168
O O3 0.412521 0.826875 0.140644
O O4 0.500000 0.000000 0.177716
O O5 0.288820 0.128187 0.384755
O O6 0.390224 0.065573 0.365901
O O7 0.339634 0.000000 0.500000
O O8 0.325602 0.847684 0.381303
O O9 0.294295 0.350190 0.463916
O O10 0.082970 0.250000 0.250000
O O11 0.119384 0.163635 0.379252
O O12 0.678868 0.062568 0.131825
O O13 0.625304 0.000000 0.000000
O O14 0.155026 0.250000 0.750000
#
# Coordination Sequence:
#
# PCOD9327429 Si02
#       6
#    16  16   8  16  16  16
#     4  10  21  37  64  95 129 178 215 243 304 390
#     4  11  24  43  65  94 124 165 215 265 319 379
#     4  10  24  44  67  84 119 176 212 248 326 406
#     4  10  21  40  64  91 132 169 207 250 314 376
#     4  11  22  41  65  91 121 162 212 262 315 376
#     4  11  23  40  65  97 128 160 214 265 305 367
#
# _framework density 22.176435999999999
#
# number of rings (size 3 to 8) (size 9 to 14) (size 15 to 20)
#    0.000    1.455    1.818    3.818    7.636    0.727 
#    0.000   22.727    0.000    0.000    0.000    0.000 
#    0.000    0.000    0.000    0.000    0.000    0.000 
#
# Total GULP energy -122564.981389 kJ/mol
# GULP energy per Si atom -5571.135518 kJ/mol
# Density = 2.212596 g / cm^3
# Si number density = 22.176436 Si / 1000 Ang^3
#
#
#
# Elastic Constant Matrix: (Units=GPa)
#
#
# Indices 1 2 3 4 5 6 
#
# 1 73.3749 13.6646 12.0126 0.0000 0.0000 0.0000
# 2 13.6646 82.1965 4.4224 0.0000 0.0000 0.0000
# 3 12.0126 4.4224 92.1648 0.0000 0.0000 0.0000
# 4 0.0000 0.0000 0.0000 34.8651 0.0000 0.0000
# 5 0.0000 0.0000 0.0000 0.0000 -4.5686 0.0000
# 6 0.0000 0.0000 0.0000 0.0000 0.0000 32.7336
#
#
#
# Elastic Compliance Matrix: (Units=1/GPa)
#
#
# Indices 1 2 3 4 5 6 
#
# 1 0.014343 -0.002290 -0.001760 0.000000 0.000000 0.000000
# 2 -0.002290 0.012563 -0.000304 0.000000 0.000000 0.000000
# 3 -0.001760 -0.000304 0.011094 0.000000 0.000000 0.000000
# 4 0.000000 0.000000 0.000000 0.028682 0.000000 0.000000
# 5 0.000000 0.000000 0.000000 0.000000 -0.218886 0.000000
# 6 0.000000 0.000000 0.000000 0.000000 0.000000 0.030550
#
#
# Mechanical properties :
#
#
# Convention : Reuss Voigt Hill
#
# Bulk Modulus (GPa) = 34.13814 34.21503 34.17659
# Shear Modulus (GPa) = -48.45796 27.11513 -10.67141
#
# Velocity S-wave (km/s) = -4.67959 3.50051 -2.19602
# Velocity P-wave (km/s) = 3.71090 5.63916 3.00245
#
# Compressibility (1/GPa) = 0.02929275
#
# Stress axis : x y z
#
# Youngs Moduli (GPa) = 69.71973 79.59881 90.13822
#
# Poissons Ratio (x) = 0.18226 0.15861
# Poissons Ratio (y) = 0.15964 0.02744
# Poissons Ratio (z) = 0.12268 0.02423
#
# Static dielectric constant tensor:
#      x y z
#    x 1.910620 0.000000 0.000000 
#    y 0.000000 1.850520 0.000000 
#    z 0.000000 0.000000 1.805740 
# 
# From -- ./inp_files/45238.got.cif
#   From: 2010.05.17/outbox.cif.g08.bks.cpg/sg22_23_cif.got.tgz:45238.got - 2010.06.03 23:40:54.
