data_PCOD9327381
_publ_section_title
;
Structure prediction by ZEFSAII (Michael W. Deem and Ramdas Pophale) SiO2 
 PCOD9327381
Probable space group: F 2 2 2
;
_chemical_formula_sum "Si O2"
_cell_formula_units_Z 64
_cell_length_a 15.041997
_cell_length_b 20.564255
_cell_length_c 9.352320
_cell_angle_alpha 90.000000
_cell_angle_beta 90.000000
_cell_angle_gamma 90.000000
_cell_volume 2892.929410
_symmetry_space_group_name_H-M "F 2 2 2"
_symmetry_group_IT_number 22
_symmetry_cell_setting 'orthorhombic'
loop_
_space_group_symop_operation_xyz
x,y,z
-x,-y,z
x,-y,-z
-x,y,-z
x,1/2+y,1/2+z
-x,1/2-y,1/2+z
x,1/2-y,1/2-z
-x,1/2+y,1/2-z
1/2+x,y,1/2+z
1/2-x,-y,1/2+z
1/2+x,-y,1/2-z
1/2-x,y,1/2-z
1/2+x,1/2+y,z
1/2-x,1/2-y,z
1/2+x,1/2-y,-z
1/2-x,1/2+y,-z
loop_
_atom_site_type_symbol
_atom_site_label
_atom_site_fract_x
_atom_site_fract_y
_atom_site_fract_z
Si Si1 0.590913 0.807565 0.069980
Si Si2 0.147094 0.061845 0.916495
Si Si3 0.640256 0.438956 0.406042
Si Si4 0.161630 0.173201 0.148082
O O1 0.583344 0.829596 0.234508
O O2 0.655465 0.745324 0.081050
O O3 0.500000 0.785189 0.000000
O O4 0.622876 0.870276 0.982754
O O5 0.253453 0.051820 0.898457
O O6 0.107763 0.065358 0.757403
O O7 0.144534 0.123122 0.022098
O O8 0.110287 0.000000 0.000000
O O9 0.605907 0.500000 0.500000
O O10 0.250000 0.160636 0.250000
#
# Coordination Sequence:
#
# PCOD9327381 Si02
#       4
#    16  16  16  16
#     4  11  24  40  64  91 130 178 218 271 334 391
#     4  10  21  36  66  99 126 164 217 279 328 389
#     4  10  21  38  62  97 132 167 215 273 333 394
#     4  11  23  43  69  95 131 177 223 274 332 399
#
# _framework density 22.122904999999999
#
# number of rings (size 3 to 8) (size 9 to 14) (size 15 to 20)
#    0.000    1.500    2.500    3.000    3.500    5.500 
#    0.000    2.500    0.000    5.250    0.000    0.000 
#    0.000    0.000    0.000    0.000    0.000    0.000 
#
# Total GULP energy -89246.979273 kJ/mol
# GULP energy per Si atom -5577.936205 kJ/mol
# Density = 2.207255 g / cm^3
# Si number density = 22.122905 Si / 1000 Ang^3
#
#
#
# Elastic Constant Matrix: (Units=GPa)
#
#
# Indices 1 2 3 4 5 6 
#
# 1 63.7637 4.8032 30.6666 0.0000 0.0000 0.0000
# 2 4.8032 185.8585 136.2689 0.0000 0.0000 0.0000
# 3 30.6666 136.2689 232.2148 0.0000 0.0000 0.0000
# 4 0.0000 0.0000 0.0000 16.6644 0.0000 0.0000
# 5 0.0000 0.0000 0.0000 0.0000 22.2878 0.0000
# 6 0.0000 0.0000 0.0000 0.0000 0.0000 0.9895
#
#
#
# Elastic Compliance Matrix: (Units=1/GPa)
#
#
# Indices 1 2 3 4 5 6 
#
# 1 0.017221 0.002145 -0.003533 0.000000 0.000000 0.000000
# 2 0.002145 0.009711 -0.005982 0.000000 0.000000 0.000000
# 3 -0.003533 -0.005982 0.008283 0.000000 0.000000 0.000000
# 4 0.000000 0.000000 0.000000 0.060008 0.000000 0.000000
# 5 0.000000 0.000000 0.000000 0.000000 0.044868 0.000000
# 6 0.000000 0.000000 0.000000 0.000000 0.000000 1.010562
#
#
# Mechanical properties :
#
#
# Convention : Reuss Voigt Hill
#
# Bulk Modulus (GPa) = 48.83904 91.70158 70.27031
# Shear Modulus (GPa) = 4.26542 28.66158 16.46350
#
# Velocity S-wave (km/s) = 1.39005 3.60330 2.73093
# Velocity P-wave (km/s) = 4.96996 7.67154 6.46348
#
# Compressibility (1/GPa) = 0.02047542
#
# Stress axis : x y z
#
# Youngs Moduli (GPa) = 58.07022 102.97816 120.72590
#
# Poissons Ratio (x) = -0.22093 0.42654
# Poissons Ratio (y) = -0.12458 0.72216
# Poissons Ratio (z) = 0.20517 0.61600
#
# Static dielectric constant tensor:
#      x y z
#    x 1.895140 0.000000 0.000000 
#    y 0.000000 1.815810 0.000000 
#    z 0.000000 0.000000 1.834960 
# 
# From -- ./inp_files/11161.got.cif
#   From: 2010.05.17/outbox.cif.g08.bks.cpg/sg22_6_cif.got.tgz:11161.got - 2010.06.03 23:40:54.
