data_PCOD9327565
_publ_section_title
;
Structure prediction by ZEFSAII (Michael W. Deem and Ramdas Pophale) SiO2 
 PCOD9327565
Probable space group: F 2 2 2
;
_chemical_formula_sum "Si O2"
_cell_formula_units_Z 64
_cell_length_a 11.206176
_cell_length_b 9.159152
_cell_length_c 24.685305
_cell_angle_alpha 90.000000
_cell_angle_beta 90.000000
_cell_angle_gamma 90.000000
_cell_volume 2533.676731
_symmetry_space_group_name_H-M "F 2 2 2"
_symmetry_group_IT_number 22
_symmetry_cell_setting 'orthorhombic'
loop_
_space_group_symop_operation_xyz
x,y,z
-x,-y,z
x,-y,-z
-x,y,-z
x,1/2+y,1/2+z
-x,1/2-y,1/2+z
x,1/2-y,1/2-z
-x,1/2+y,1/2-z
1/2+x,y,1/2+z
1/2-x,-y,1/2+z
1/2+x,-y,1/2-z
1/2-x,y,1/2-z
1/2+x,1/2+y,z
1/2-x,1/2-y,z
1/2+x,1/2-y,-z
1/2-x,1/2+y,-z
loop_
_atom_site_type_symbol
_atom_site_label
_atom_site_fract_x
_atom_site_fract_y
_atom_site_fract_z
Si Si1 0.348491 0.377106 0.148810
Si Si2 0.800975 0.482134 0.058458
Si Si3 0.104232 0.922301 0.248821
Si Si4 0.000099 0.740648 0.940788
O O1 0.250000 0.250000 0.159648
O O2 0.280956 0.488860 0.109203
O O3 0.394904 0.453340 0.201828
O O4 0.458344 0.323975 0.112061
O O5 0.900699 0.611034 0.055323
O O6 0.872395 0.333494 0.065382
O O7 0.739288 0.500000 0.000000
O O8 0.072666 0.750000 0.250000
O O9 0.250000 0.914965 0.250000
O O10 0.000000 0.000000 0.286863
O O11 0.000000 0.813865 0.000000
#
# Coordination Sequence:
#
# PCOD9327565 Si02
#       4
#    16  16  16  16
#     4  10  21  39  72 111 146 199 259 313 389 464
#     4   8  15  32  59  98 156 200 234 287 365 460
#     4  11  29  54  81 111 148 199 274 344 413 471
#     4   8  15  31  58  98 149 202 239 288 365 455
#
# _framework density 25.259736
#
# number of rings (size 3 to 8) (size 9 to 14) (size 15 to 20)
#    0.000    2.750    0.000    1.500    3.500    4.000 
#    9.000    0.000    5.500    0.000    0.000    0.000 
#    0.000    0.000    0.000    0.000    0.000    0.000 
#
# Total GULP energy -89213.791327 kJ/mol
# GULP energy per Si atom -5575.861958 kJ/mol
# Density = 2.520224 g / cm^3
# Si number density = 25.259736 Si / 1000 Ang^3
#
#
#
# Elastic Constant Matrix: (Units=GPa)
#
#
# Indices 1 2 3 4 5 6 
#
# 1 122.8405 65.8392 -11.4306 0.0000 0.0000 0.0000
# 2 65.8392 131.4810 38.8811 0.0000 0.0000 0.0000
# 3 -11.4306 38.8811 51.7060 0.0000 0.0000 0.0000
# 4 0.0000 0.0000 0.0000 19.1824 0.0000 0.0000
# 5 0.0000 0.0000 0.0000 0.0000 20.7789 0.0000
# 6 0.0000 0.0000 0.0000 0.0000 0.0000 58.7302
#
#
#
# Elastic Compliance Matrix: (Units=1/GPa)
#
#
# Indices 1 2 3 4 5 6 
#
# 1 0.015123 -0.011010 0.011622 0.000000 0.000000 0.000000
# 2 -0.011010 0.017796 -0.015816 0.000000 0.000000 0.000000
# 3 0.011622 -0.015816 0.033802 0.000000 0.000000 0.000000
# 4 0.000000 0.000000 0.000000 0.052131 0.000000 0.000000
# 5 0.000000 0.000000 0.000000 0.000000 0.048126 0.000000
# 6 0.000000 0.000000 0.000000 0.000000 0.000000 0.017027
#
#
# Mechanical properties :
#
#
# Convention : Reuss Voigt Hill
#
# Bulk Modulus (GPa) = 27.53713 54.73407 41.13560
# Shear Modulus (GPa) = 22.07345 33.92082 27.99713
#
# Velocity S-wave (km/s) = 2.95932 3.66851 3.33283
# Velocity P-wave (km/s) = 4.75416 6.29758 5.57949
#
# Compressibility (1/GPa) = 0.03631460
#
# Stress axis : x y z
#
# Youngs Moduli (GPa) = 66.12423 56.19311 29.58376
#
# Poissons Ratio (x) = 0.61867 -0.34383
# Poissons Ratio (y) = 0.72801 0.46789
# Poissons Ratio (z) = -0.76851 0.88874
#
# Static dielectric constant tensor:
#      x y z
#    x 3.265340 0.000000 0.000000 
#    y 0.000000 1.987850 0.000000 
#    z 0.000000 0.000000 1.938830 
# 
# From -- ./inp_files/55800.got.cif
#   From: 2010.05.17/outbox.cif.g08.bks.cpg/sg22_28_cif.got.tgz:55800.got - 2010.06.03 23:40:54.
