data_PCOD9327768
_publ_section_title
;
Structure prediction by ZEFSAII (Michael W. Deem and Ramdas Pophale) SiO2 
 PCOD9327768
Probable space group: F 2 2 2
;
_chemical_formula_sum "Si O2"
_cell_formula_units_Z 88
_cell_length_a 10.325734
_cell_length_b 14.441515
_cell_length_c 25.250284
_cell_angle_alpha 90.000000
_cell_angle_beta 90.000000
_cell_angle_gamma 90.000000
_cell_volume 3765.303222
_symmetry_space_group_name_H-M "F 2 2 2"
_symmetry_group_IT_number 22
_symmetry_cell_setting 'orthorhombic'
loop_
_space_group_symop_operation_xyz
x,y,z
-x,-y,z
x,-y,-z
-x,y,-z
x,1/2+y,1/2+z
-x,1/2-y,1/2+z
x,1/2-y,1/2-z
-x,1/2+y,1/2-z
1/2+x,y,1/2+z
1/2-x,-y,1/2+z
1/2+x,-y,1/2-z
1/2-x,y,1/2-z
1/2+x,1/2+y,z
1/2-x,1/2-y,z
1/2+x,1/2-y,-z
1/2-x,1/2+y,-z
loop_
_atom_site_type_symbol
_atom_site_label
_atom_site_fract_x
_atom_site_fract_y
_atom_site_fract_z
Si Si1 0.391027 0.922095 0.880287
Si Si2 0.046599 0.602430 0.600674
Si Si3 0.768300 0.357443 0.980991
Si Si4 0.240594 0.588834 0.407133
Si Si5 0.458224 0.251855 0.190070
Si Si6 0.750000 0.750000 0.832948
O O1 0.376884 0.868650 0.935820
O O2 0.418120 0.846417 0.835738
O O3 0.500000 0.000000 0.880799
O O4 0.263239 0.989137 0.879137
O O5 0.137579 0.608334 0.549130
O O6 0.000000 0.500000 0.618501
O O7 0.901808 0.631979 0.582903
O O8 0.090381 0.670278 0.648089
O O9 0.750000 0.250000 0.993951
O O10 0.798651 0.412838 0.034303
O O11 0.297852 0.664378 0.368257
O O12 0.408110 0.250000 0.250000
O O13 0.613906 0.274558 0.194669
#
# Coordination Sequence:
#
# PCOD9327768 Si02
#       6
#    16  16  16  16  16   8
#     4  12  25  44  67 106 149 179 238 300 353 439
#     4  11  24  44  68  98 140 184 249 295 339 435
#     4  12  24  43  68 104 147 195 231 284 359 430
#     4  11  23  41  70 100 145 185 231 285 356 425
#     4  11  25  46  73  97 137 188 246 306 369 411
#     4  10  21  44  66 102 134 184 235 298 338 444
#
# _framework density 23.371292
#
# number of rings (size 3 to 8) (size 9 to 14) (size 15 to 20)
#    0.000    0.727    6.364    1.364    0.000    2.909 
#    3.273    1.818    4.000    0.000    0.000    0.000 
#    0.000    0.000    0.000    0.000    0.000    0.000 
#
# Total GULP energy -122673.146724 kJ/mol
# GULP energy per Si atom -5576.052124 kJ/mol
# Density = 2.331810 g / cm^3
# Si number density = 23.371292 Si / 1000 Ang^3
#
#
#
# Elastic Constant Matrix: (Units=GPa)
#
#
# Indices 1 2 3 4 5 6 
#
# 1 82.1812 9.2296 19.5241 0.0000 0.0000 0.0000
# 2 9.2296 163.8525 66.0450 0.0000 0.0000 0.0000
# 3 19.5241 66.0450 159.0648 0.0000 0.0000 0.0000
# 4 0.0000 0.0000 0.0000 23.9691 0.0000 0.0000
# 5 0.0000 0.0000 0.0000 0.0000 6.2578 0.0000
# 6 0.0000 0.0000 0.0000 0.0000 0.0000 31.4172
#
#
#
# Elastic Compliance Matrix: (Units=1/GPa)
#
#
# Indices 1 2 3 4 5 6 
#
# 1 0.012535 -0.000103 -0.001496 0.000000 0.000000 0.000000
# 2 -0.000103 0.007331 -0.003031 0.000000 0.000000 0.000000
# 3 -0.001496 -0.003031 0.007729 0.000000 0.000000 0.000000
# 4 0.000000 0.000000 0.000000 0.041720 0.000000 0.000000
# 5 0.000000 0.000000 0.000000 0.000000 0.159799 0.000000
# 6 0.000000 0.000000 0.000000 0.000000 0.000000 0.031830
#
#
# Mechanical properties :
#
#
# Convention : Reuss Voigt Hill
#
# Bulk Modulus (GPa) = 54.54162 66.07733 60.30947
# Shear Modulus (GPa) = 18.09524 33.01548 25.55536
#
# Velocity S-wave (km/s) = 2.78555 3.76260 3.31032
# Velocity P-wave (km/s) = 5.80805 6.87099 6.36176
#
# Compressibility (1/GPa) = 0.01833462
#
# Stress axis : x y z
#
# Youngs Moduli (GPa) = 79.77556 136.41428 129.38513
#
# Poissons Ratio (x) = 0.01408 0.19353
# Poissons Ratio (y) = 0.00823 0.39217
# Poissons Ratio (z) = 0.11932 0.41348
#
# Static dielectric constant tensor:
#      x y z
#    x 2.287630 0.000000 0.000000 
#    y 0.000000 1.964560 0.000000 
#    z 0.000000 0.000000 1.834760 
# 
# From -- ./inp_files/48041.got.cif
#   From: 2010.05.17/outbox.cif.g08.bks.cpg/sg22_25_cif.got.tgz:48041.got - 2010.06.03 23:40:54.
