data_PCOD9327003
_publ_section_title
;
Structure prediction by ZEFSAII (Michael W. Deem and Ramdas Pophale) SiO2 
 PCOD9327003
Probable space group: F 2 2 2
;
_chemical_formula_sum "Si O2"
_cell_formula_units_Z 80
_cell_length_a 12.392887
_cell_length_b 10.834186
_cell_length_c 27.099739
_cell_angle_alpha 90.000000
_cell_angle_beta 90.000000
_cell_angle_gamma 90.000000
_cell_volume 3638.596397
_symmetry_space_group_name_H-M "F 2 2 2"
_symmetry_group_IT_number 22
_symmetry_cell_setting 'orthorhombic'
loop_
_space_group_symop_operation_xyz
x,y,z
-x,-y,z
x,-y,-z
-x,y,-z
x,1/2+y,1/2+z
-x,1/2-y,1/2+z
x,1/2-y,1/2-z
-x,1/2+y,1/2-z
1/2+x,y,1/2+z
1/2-x,-y,1/2+z
1/2+x,-y,1/2-z
1/2-x,y,1/2-z
1/2+x,1/2+y,z
1/2-x,1/2-y,z
1/2+x,1/2-y,-z
1/2-x,1/2+y,-z
loop_
_atom_site_type_symbol
_atom_site_label
_atom_site_fract_x
_atom_site_fract_y
_atom_site_fract_z
Si Si1 0.319017 0.135586 0.406114
Si Si2 0.348731 0.018174 0.942744
Si Si3 0.169429 0.562993 0.703502
Si Si4 0.503077 0.193780 0.102053
Si Si5 0.440794 0.189414 0.701746
O O1 0.250000 0.250000 0.427374
O O2 0.275029 0.013396 0.431655
O O3 0.292571 0.122948 0.347796
O O4 0.442262 0.178729 0.411017
O O5 0.417178 0.916084 0.910605
O O6 0.391708 0.151201 0.927098
O O7 0.372231 0.000000 0.000000
O O8 0.250000 0.568827 0.750000
O O9 0.136279 0.424042 0.688279
O O10 0.057114 0.631112 0.716110
O O11 0.536778 0.212722 0.158691
O O12 0.392903 0.250000 0.750000
#
# Coordination Sequence:
#
# PCOD9327003 Si02
#       5
#    16  16  16  16  16
#     4   9  20  37  58  86 118 158 208 259 305 378
#     4  10  20  37  65  96 117 163 220 262 312 374
#     4  10  23  37  58  85 122 162 207 254 308 374
#     4   9  19  37  60  81 126 159 202 259 312 368
#     4  10  23  38  56  89 121 163 207 251 312 382
#
# _framework density 21.986499999999999
#
# number of rings (size 3 to 8) (size 9 to 14) (size 15 to 20)
#    0.000    2.400    0.000    1.200   11.200    2.000 
#    0.000    8.000    0.000    0.000    0.000    0.000 
#    0.000    0.000    0.000    0.000    0.000    0.000 
#
# Total GULP energy -111479.477023 kJ/mol
# GULP energy per Si atom -5573.973851 kJ/mol
# Density = 2.193646 g / cm^3
# Si number density = 21.986500 Si / 1000 Ang^3
#
#
#
# Elastic Constant Matrix: (Units=GPa)
#
#
# Indices 1 2 3 4 5 6 
#
# 1 71.1724 34.5557 40.8424 0.0000 0.0000 0.0000
# 2 34.5557 64.1198 65.0099 0.0000 0.0000 0.0000
# 3 40.8424 65.0099 104.4028 0.0000 0.0000 0.0000
# 4 0.0000 0.0000 0.0000 20.6705 0.0000 0.0000
# 5 0.0000 0.0000 0.0000 0.0000 -20.0299 0.0000
# 6 0.0000 0.0000 0.0000 0.0000 0.0000 36.3608
#
#
#
# Elastic Compliance Matrix: (Units=1/GPa)
#
#
# Indices 1 2 3 4 5 6 
#
# 1 0.019352 -0.007469 -0.002920 0.000000 0.000000 0.000000
# 2 -0.007469 0.045185 -0.025214 0.000000 0.000000 0.000000
# 3 -0.002920 -0.025214 0.026421 0.000000 0.000000 0.000000
# 4 0.000000 0.000000 0.000000 0.048378 0.000000 0.000000
# 5 0.000000 0.000000 0.000000 0.000000 -0.049925 0.000000
# 6 0.000000 0.000000 0.000000 0.000000 0.000000 0.027502
#
#
# Mechanical properties :
#
#
# Convention : Reuss Voigt Hill
#
# Bulk Modulus (GPa) = 50.62674 57.83453 54.23064
# Shear Modulus (GPa) = 25.68005 14.01942 19.84974
#
# Velocity S-wave (km/s) = 3.42130 2.52789 3.00795
# Velocity P-wave (km/s) = 6.21959 5.90610 6.06487
#
# Compressibility (1/GPa) = 0.01975241
#
# Stress axis : x y z
#
# Youngs Moduli (GPa) = 51.67338 22.13108 37.84884
#
# Poissons Ratio (x) = 0.16530 0.11051
# Poissons Ratio (y) = 0.38596 0.95433
# Poissons Ratio (z) = 0.15087 0.55802
#
# Static dielectric constant tensor:
#      x y z
#    x 1.891670 0.000000 0.000000 
#    y 0.000000 1.851390 0.000000 
#    z 0.000000 0.000000 1.771520 
# 
# From -- ./inp_files/19849.got.cif
#   From: 2010.05.17/outbox.cif.g08.bks.cpg/sg22_10_cif.got.tgz:19849.got - 2010.06.03 23:40:54.
