data_PCOD9327557
_publ_section_title
;
Structure prediction by ZEFSAII (Michael W. Deem and Ramdas Pophale) SiO2 
 PCOD9327557
Probable space group: F 2 2 2
;
_chemical_formula_sum "Si O2"
_cell_formula_units_Z 92
_cell_length_a 24.782236
_cell_length_b 9.034716
_cell_length_c 19.361597
_cell_angle_alpha 90.000000
_cell_angle_beta 90.000000
_cell_angle_gamma 90.000000
_cell_volume 4335.070554
_symmetry_space_group_name_H-M "F 2 2 2"
_symmetry_group_IT_number 22
_symmetry_cell_setting 'orthorhombic'
loop_
_space_group_symop_operation_xyz
x,y,z
-x,-y,z
x,-y,-z
-x,y,-z
x,1/2+y,1/2+z
-x,1/2-y,1/2+z
x,1/2-y,1/2-z
-x,1/2+y,1/2-z
1/2+x,y,1/2+z
1/2-x,-y,1/2+z
1/2+x,-y,1/2-z
1/2-x,y,1/2-z
1/2+x,1/2+y,z
1/2-x,1/2-y,z
1/2+x,1/2-y,-z
1/2-x,1/2+y,-z
loop_
_atom_site_type_symbol
_atom_site_label
_atom_site_fract_x
_atom_site_fract_y
_atom_site_fract_z
Si Si1 0.500000 0.000000 0.914262
Si Si2 0.750000 0.750000 0.998925
Si Si3 0.846308 0.721819 0.412488
Si Si4 0.000000 0.000000 0.902471
Si Si5 0.317354 0.115328 0.621553
Si Si6 0.580995 0.756259 0.547355
Si Si7 0.750000 0.250000 0.250000
Si Si8 0.437722 0.744181 0.670517
O O1 0.453213 0.104054 0.949009
O O2 0.529341 0.117958 0.866806
O O3 0.796420 0.697191 0.051272
O O4 0.721933 0.640729 0.944584
O O5 0.831832 0.556782 0.387627
O O6 0.890955 0.722407 0.473369
O O7 0.875667 0.791145 0.347307
O O8 0.962420 0.884729 0.942036
O O9 0.041371 0.900689 0.858464
O O10 0.370649 0.215760 0.603375
O O11 0.288252 0.159731 0.694224
O O12 0.447940 0.750000 0.750000
#
# Coordination Sequence:
#
# PCOD9327557 Si02
#       8
#     8   8  16   8  16  16   4  16
#     4  10  25  43  62 104 143 177 224 292 338 416
#     4   9  20  41  63  94 125 154 220 288 347 378
#     4  11  23  43  69  94 129 176 228 282 348 418
#     4  10  21  39  68  92 127 179 222 276 324 430
#     4  10  21  44  70  99 128 180 225 288 342 425
#     4  10  21  41  69 100 134 174 229 284 349 406
#     4  10  24  44  72 106 134 172 242 292 348 410
#     4  11  24  42  61  93 136 181 225 270 344 414
#
# _framework density 21.222262000000001
#
# number of rings (size 3 to 8) (size 9 to 14) (size 15 to 20)
#    0.000    1.739    1.739    2.609    0.000    6.261 
#   25.043    0.000    0.000    0.000    0.000    0.000 
#    0.000    0.000    0.000    0.000    0.000    0.000 
#
# Total GULP energy -128269.148493 kJ/mol
# GULP energy per Si atom -5576.919500 kJ/mol
# Density = 2.117396 g / cm^3
# Si number density = 21.222262 Si / 1000 Ang^3
#
#
#
# Elastic Constant Matrix: (Units=GPa)
#
#
# Indices 1 2 3 4 5 6 
#
# 1 129.7543 51.5226 56.7485 0.0000 0.0000 0.0000
# 2 51.5226 107.3271 59.7355 0.0000 0.0000 0.0000
# 3 56.7485 59.7355 84.1392 0.0000 0.0000 0.0000
# 4 0.0000 0.0000 0.0000 13.7252 0.0000 0.0000
# 5 0.0000 0.0000 0.0000 0.0000 79.4402 0.0000
# 6 0.0000 0.0000 0.0000 0.0000 0.0000 31.1232
#
#
#
# Elastic Compliance Matrix: (Units=1/GPa)
#
#
# Indices 1 2 3 4 5 6 
#
# 1 0.011169 -0.001933 -0.006161 0.000000 0.000000 0.000000
# 2 -0.001933 0.015739 -0.009870 0.000000 0.000000 0.000000
# 3 -0.006161 -0.009870 0.023048 0.000000 0.000000 0.000000
# 4 0.000000 0.000000 0.000000 0.072859 0.000000 0.000000
# 5 0.000000 0.000000 0.000000 0.000000 0.012588 0.000000
# 6 0.000000 0.000000 0.000000 0.000000 0.000000 0.032130
#
#
# Mechanical properties :
#
#
# Convention : Reuss Voigt Hill
#
# Bulk Modulus (GPa) = 71.28747 73.02598 72.15672
# Shear Modulus (GPa) = 24.02280 35.07199 29.54739
#
# Velocity S-wave (km/s) = 3.36811 4.06963 3.73538
# Velocity P-wave (km/s) = 6.98494 7.52113 7.25799
#
# Compressibility (1/GPa) = 0.01402771
#
# Stress axis : x y z
#
# Youngs Moduli (GPa) = 89.53584 63.53784 43.38810
#
# Poissons Ratio (x) = 0.12280 0.26730
# Poissons Ratio (y) = 0.17304 0.42825
# Poissons Ratio (z) = 0.55161 0.62714
#
# Static dielectric constant tensor:
#      x y z
#    x 1.845900 0.000000 0.000000 
#    y 0.000000 1.759000 0.000000 
#    z 0.000000 0.000000 1.848400 
# 
# From -- ./inp_files/45759.got.cif
#   From: 2010.05.17/outbox.cif.g08.bks.cpg/sg22_23_cif.got.tgz:45759.got - 2010.06.03 23:40:54.
