data_PCOD9327841
_publ_section_title
;
Structure prediction by ZEFSAII (Michael W. Deem and Ramdas Pophale) SiO2 
 PCOD9327841
Probable space group: F 2 2 2
;
_chemical_formula_sum "Si O2"
_cell_formula_units_Z 96
_cell_length_a 20.865574
_cell_length_b 13.750699
_cell_length_c 14.232592
_cell_angle_alpha 90.000000
_cell_angle_beta 90.000000
_cell_angle_gamma 90.000000
_cell_volume 4083.561605
_symmetry_space_group_name_H-M "F 2 2 2"
_symmetry_group_IT_number 22
_symmetry_cell_setting 'orthorhombic'
loop_
_space_group_symop_operation_xyz
x,y,z
-x,-y,z
x,-y,-z
-x,y,-z
x,1/2+y,1/2+z
-x,1/2-y,1/2+z
x,1/2-y,1/2-z
-x,1/2+y,1/2-z
1/2+x,y,1/2+z
1/2-x,-y,1/2+z
1/2+x,-y,1/2-z
1/2-x,y,1/2-z
1/2+x,1/2+y,z
1/2-x,1/2-y,z
1/2+x,1/2-y,-z
1/2-x,1/2+y,-z
loop_
_atom_site_type_symbol
_atom_site_label
_atom_site_fract_x
_atom_site_fract_y
_atom_site_fract_z
Si Si1 0.185396 0.453517 0.803541
Si Si2 0.564955 0.394134 0.550685
Si Si3 0.118063 0.863380 0.741057
Si Si4 0.893149 0.331593 0.320747
Si Si5 0.980536 0.611590 0.392705
Si Si6 0.319934 0.786636 0.036557
O O1 0.250000 0.428947 0.750000
O O2 0.175218 0.569719 0.802625
O O3 0.126396 0.426770 0.735003
O O4 0.185689 0.382454 0.893947
O O5 0.576306 0.500000 0.500000
O O6 0.500000 0.360114 0.500000
O O7 0.562083 0.391066 0.663833
O O8 0.624696 0.324049 0.531602
O O9 0.135016 0.750000 0.750000
O O10 0.088756 0.880433 0.845770
O O11 0.870091 0.250000 0.250000
O O12 0.852175 0.306630 0.412084
O O13 0.968038 0.324612 0.336674
O O14 0.000000 0.500000 0.380949
O O15 0.000000 0.633517 0.500000
O O16 0.250000 0.750000 0.005003
#
# Coordination Sequence:
#
# PCOD9327841 Si02
#       6
#    16  16  16  16  16  16
#     4  11  22  45  70 101 143 188 254 315 386 453
#     4  11  27  47  76 111 157 210 260 321 402 480
#     4  12  28  46  70 106 150 202 248 314 398 480
#     4  10  22  37  70 103 132 178 235 311 369 436
#     4  11  25  44  68 101 142 188 242 306 386 461
#     4  11  23  44  76 110 139 190 268 328 374 461
#
# _framework density 23.508890000000001
#
# number of rings (size 3 to 8) (size 9 to 14) (size 15 to 20)
#    0.000    1.000    5.000    0.500   11.667    0.333 
#    3.000    0.000    7.333    0.000    0.000    0.000 
#    0.000    0.000    0.000    0.000    0.000    0.000 
#
# Total GULP energy -133686.081671 kJ/mol
# GULP energy per Si atom -5570.253403 kJ/mol
# Density = 2.345538 g / cm^3
# Si number density = 23.508890 Si / 1000 Ang^3
#
#
#
# Elastic Constant Matrix: (Units=GPa)
#
#
# Indices 1 2 3 4 5 6 
#
# 1 84.1641 8.0812 19.8131 0.0000 0.0000 0.0000
# 2 8.0812 101.7817 15.5505 0.0000 0.0000 0.0000
# 3 19.8131 15.5505 85.2152 0.0000 0.0000 0.0000
# 4 0.0000 0.0000 0.0000 21.4378 0.0000 0.0000
# 5 0.0000 0.0000 0.0000 0.0000 27.5795 0.0000
# 6 0.0000 0.0000 0.0000 0.0000 0.0000 40.4429
#
#
#
# Elastic Compliance Matrix: (Units=1/GPa)
#
#
# Indices 1 2 3 4 5 6 
#
# 1 0.012601 -0.000569 -0.002826 0.000000 0.000000 0.000000
# 2 -0.000569 0.010132 -0.001717 0.000000 0.000000 0.000000
# 3 -0.002826 -0.001717 0.012705 0.000000 0.000000 0.000000
# 4 0.000000 0.000000 0.000000 0.046647 0.000000 0.000000
# 5 0.000000 0.000000 0.000000 0.000000 0.036259 0.000000
# 6 0.000000 0.000000 0.000000 0.000000 0.000000 0.024726
#
#
# Mechanical properties :
#
#
# Convention : Reuss Voigt Hill
#
# Bulk Modulus (GPa) = 39.65747 39.78341 39.72044
# Shear Modulus (GPa) = 30.92156 33.07312 31.99734
#
# Velocity S-wave (km/s) = 3.63066 3.75485 3.69328
# Velocity P-wave (km/s) = 5.87208 5.97980 5.92618
#
# Compressibility (1/GPa) = 0.02521593
#
# Stress axis : x y z
#
# Youngs Moduli (GPa) = 79.35591 98.69327 78.70684
#
# Poissons Ratio (x) = 0.05613 0.22244
# Poissons Ratio (y) = 0.04513 0.13512
# Poissons Ratio (z) = 0.22427 0.16943
#
# Static dielectric constant tensor:
#      x y z
#    x 1.871640 0.000000 0.000000 
#    y 0.000000 2.080150 0.000000 
#    z 0.000000 0.000000 2.054860 
# 
# From -- ./inp_files/31531.got.cif
#   From: 2010.05.17/outbox.cif.g08.bks.cpg/sg22_16_cif.got.tgz:31531.got - 2010.06.03 23:40:54.
