data_PCOD9327446
_publ_section_title
;
Structure prediction by ZEFSAII (Michael W. Deem and Ramdas Pophale) SiO2 
 PCOD9327446
Probable space group: F 2 2 2
;
_chemical_formula_sum "Si O2"
_cell_formula_units_Z 68
_cell_length_a 23.257772
_cell_length_b 25.806791
_cell_length_c 4.833295
_cell_angle_alpha 90.000000
_cell_angle_beta 90.000000
_cell_angle_gamma 90.000000
_cell_volume 2900.984554
_symmetry_space_group_name_H-M "F 2 2 2"
_symmetry_group_IT_number 22
_symmetry_cell_setting 'orthorhombic'
loop_
_space_group_symop_operation_xyz
x,y,z
-x,-y,z
x,-y,-z
-x,y,-z
x,1/2+y,1/2+z
-x,1/2-y,1/2+z
x,1/2-y,1/2-z
-x,1/2+y,1/2-z
1/2+x,y,1/2+z
1/2-x,-y,1/2+z
1/2+x,-y,1/2-z
1/2-x,y,1/2-z
1/2+x,1/2+y,z
1/2-x,1/2-y,z
1/2+x,1/2-y,-z
1/2-x,1/2+y,-z
loop_
_atom_site_type_symbol
_atom_site_label
_atom_site_fract_x
_atom_site_fract_y
_atom_site_fract_z
Si Si1 0.364591 0.810776 0.775804
Si Si2 0.500000 0.000000 0.500000
Si Si3 0.397416 0.126917 0.698309
Si Si4 0.309068 0.549199 0.362570
Si Si5 0.000000 0.069349 0.500000
Si Si6 0.750000 0.365087 0.750000
O O1 0.372974 0.750000 0.750000
O O2 0.407940 0.843869 0.586535
O O3 0.301722 0.827570 0.657728
O O4 0.371708 0.830696 0.088098
O O5 0.471994 0.962810 0.737657
O O6 0.352079 0.079419 0.660795
O O7 0.451615 0.102106 0.847631
O O8 0.339710 0.500000 0.500000
O O9 0.250000 0.525654 0.250000
O O10 0.283337 0.595476 0.548772
#
# Coordination Sequence:
#
# PCOD9327446 Si02
#       6
#    16   4  16  16   8   8
#     4  11  23  42  68  98 131 180 233 288 351 414
#     4  10  24  42  72  96 132 180 240 274 344 420
#     4  11  25  43  68  96 140 178 231 290 345 411
#     4  11  21  37  59  95 138 182 220 269 347 427
#     4  11  24  48  66 101 138 183 238 292 345 414
#     4  10  21  38  58  94 140 178 221 280 340 422
#
# _framework density 23.44032
#
# number of rings (size 3 to 8) (size 9 to 14) (size 15 to 20)
#    0.000    1.176    3.529    2.471    3.294    0.000 
#    2.118    4.706    0.000    0.000    0.000    0.000 
#    0.000    0.000    0.000    0.000    0.000    0.000 
#
# Total GULP energy -94807.420286 kJ/mol
# GULP energy per Si atom -5576.907076 kJ/mol
# Density = 2.338697 g / cm^3
# Si number density = 23.440320 Si / 1000 Ang^3
#
#
#
# Elastic Constant Matrix: (Units=GPa)
#
#
# Indices 1 2 3 4 5 6 
#
# 1 66.3298 15.5513 3.6126 -0.0991 0.0840 0.2279
# 2 15.5513 122.5676 30.9372 -0.0184 0.0357 0.1334
# 3 3.6126 30.9372 111.5866 -0.0013 0.0604 0.1285
# 4 -0.0991 -0.0184 -0.0013 37.6702 0.0834 0.2210
# 5 0.0840 0.0357 0.0604 0.0834 29.1043 -0.1837
# 6 0.2279 0.1334 0.1285 0.2210 -0.1837 12.6001
#
#
#
# Elastic Compliance Matrix: (Units=1/GPa)
#
#
# Indices 1 2 3 4 5 6 
#
# 1 0.015540 -0.001983 0.000047 0.000042 -0.000044 -0.000262
# 2 -0.001983 0.009026 -0.002438 -0.000001 -0.000001 -0.000035
# 3 0.000047 -0.002438 0.009636 0.000000 -0.000018 -0.000074
# 4 0.000042 -0.000001 0.000000 0.026549 -0.000079 -0.000468
# 5 -0.000044 -0.000001 -0.000018 -0.000079 0.034363 0.000503
# 6 -0.000262 -0.000035 -0.000074 -0.000468 0.000503 0.079386
#
#
# Mechanical properties :
#
#
# Convention : Reuss Voigt Hill
#
# Bulk Modulus (GPa) = 39.28806 44.52072 41.90439
# Shear Modulus (GPa) = 26.07805 32.56711 29.32258
#
# Velocity S-wave (km/s) = 3.33908 3.73146 3.54071
# Velocity P-wave (km/s) = 5.62701 6.13184 5.88484
#
# Compressibility (1/GPa) = 0.02545302
#
# Stress axis : x y z
#
# Youngs Moduli (GPa) = 64.35166 110.79295 103.77545
#
# Poissons Ratio (x) = 0.21973 -0.00489
# Poissons Ratio (y) = 0.12762 0.25302
# Poissons Ratio (z) = -0.00303 0.27013
#
# Static dielectric constant tensor:
#      x y z
#    x 1.924470 0.000100 0.000200 
#    y 0.000100 1.897020 -0.000070 
#    z 0.000200 -0.000070 1.995550 
# 
# From -- ./inp_files/3838.got.cif
#   From: 2010.05.17/outbox.cif.g08.bks.cpg/sg22_2_cif.got.tgz:3838.got - 2010.06.03 23:40:54.
