data_PCOD9327308
_publ_section_title
;
Structure prediction by ZEFSAII (Michael W. Deem and Ramdas Pophale) SiO2 
 PCOD9327308
Probable space group: F 2 2 2
;
_chemical_formula_sum "Si O2"
_cell_formula_units_Z 88
_cell_length_a 14.682221
_cell_length_b 13.947360
_cell_length_c 22.479496
_cell_angle_alpha 90.000000
_cell_angle_beta 90.000000
_cell_angle_gamma 90.000000
_cell_volume 4603.311220
_symmetry_space_group_name_H-M "F 2 2 2"
_symmetry_group_IT_number 22
_symmetry_cell_setting 'orthorhombic'
loop_
_space_group_symop_operation_xyz
x,y,z
-x,-y,z
x,-y,-z
-x,y,-z
x,1/2+y,1/2+z
-x,1/2-y,1/2+z
x,1/2-y,1/2-z
-x,1/2+y,1/2-z
1/2+x,y,1/2+z
1/2-x,-y,1/2+z
1/2+x,-y,1/2-z
1/2-x,y,1/2-z
1/2+x,1/2+y,z
1/2-x,1/2-y,z
1/2+x,1/2-y,-z
1/2-x,1/2+y,-z
loop_
_atom_site_type_symbol
_atom_site_label
_atom_site_fract_x
_atom_site_fract_y
_atom_site_fract_z
Si Si1 0.830027 0.696241 0.867057
Si Si2 0.590565 0.044005 0.746243
Si Si3 0.498785 0.792565 0.682400
Si Si4 0.250000 0.901053 0.250000
Si Si5 0.332747 0.172575 0.150401
Si Si6 0.390410 0.497899 0.569854
O O1 0.750000 0.750000 0.901180
O O2 0.789216 0.657807 0.804797
O O3 0.862398 0.602435 0.900878
O O4 0.907763 0.772160 0.850441
O O5 0.542976 0.102962 0.693557
O O6 0.649339 0.116783 0.787023
O O7 0.500000 0.000000 0.778845
O O8 0.663653 0.964428 0.728864
O O9 0.507887 0.750000 0.750000
O O10 0.423968 0.734572 0.645729
O O11 0.250000 0.250000 0.150484
O O12 0.339074 0.086449 0.102678
O O13 0.500000 0.500000 0.576862
O O14 0.369742 0.500000 0.500000
#
# Coordination Sequence:
#
# PCOD9327308 Si02
#       6
#    16  16  16   8  16  16
#     4  12  23  39  61  92 127 163 204 257 313 378
#     4  11  21  35  57  87 130 171 197 238 303 379
#     4  10  21  34  54  87 127 162 194 242 302 375
#     4  12  21  34  59  90 126 166 203 242 305 386
#     4  11  21  38  60  89 124 158 203 257 310 365
#     4  11  24  45  69  88 115 166 222 267 306 359
#
# _framework density 19.116674
#
# number of rings (size 3 to 8) (size 9 to 14) (size 15 to 20)
#    0.000    0.909    3.636    6.273    0.000    3.273 
#    0.000    0.000    0.000    0.000    0.000    1.273 
#    0.000    0.000    0.000    0.000    0.000    0.000 
#
# Total GULP energy -122758.762190 kJ/mol
# GULP energy per Si atom -5579.943736 kJ/mol
# Density = 1.907316 g / cm^3
# Si number density = 19.116674 Si / 1000 Ang^3
#
#
#
# Elastic Constant Matrix: (Units=GPa)
#
#
# Indices 1 2 3 4 5 6 
#
# 1 141.5729 64.9049 30.7378 0.0000 0.0000 0.0000
# 2 64.9049 133.2420 46.5635 0.0000 0.0000 0.0000
# 3 30.7378 46.5635 69.4962 0.0000 0.0000 0.0000
# 4 0.0000 0.0000 0.0000 0.4006 0.0000 0.0000
# 5 0.0000 0.0000 0.0000 0.0000 11.6190 0.0000
# 6 0.0000 0.0000 0.0000 0.0000 0.0000 50.2308
#
#
#
# Elastic Compliance Matrix: (Units=1/GPa)
#
#
# Indices 1 2 3 4 5 6 
#
# 1 0.009196 -0.003993 -0.001392 0.000000 0.000000 0.000000
# 2 -0.003993 0.011534 -0.005962 0.000000 0.000000 0.000000
# 3 -0.001392 -0.005962 0.018999 0.000000 0.000000 0.000000
# 4 0.000000 0.000000 0.000000 2.496534 0.000000 0.000000
# 5 0.000000 0.000000 0.000000 0.000000 0.086066 0.000000
# 6 0.000000 0.000000 0.000000 0.000000 0.000000 0.019908
#
#
# Mechanical properties :
#
#
# Convention : Reuss Voigt Hill
#
# Bulk Modulus (GPa) = 58.69998 69.85817 64.27908
# Shear Modulus (GPa) = 1.87223 25.92374 13.89798
#
# Velocity S-wave (km/s) = 0.99071 3.68649 2.69923
# Velocity P-wave (km/s) = 5.66405 7.39883 6.58879
#
# Compressibility (1/GPa) = 0.01703578
#
# Stress axis : x y z
#
# Youngs Moduli (GPa) = 108.73711 86.70225 52.63372
#
# Poissons Ratio (x) = 0.34623 0.07326
# Poissons Ratio (y) = 0.43423 0.31378
# Poissons Ratio (z) = 0.15136 0.51688
#
# Static dielectric constant tensor:
#      x y z
#    x 1.710050 0.000000 0.000000 
#    y 0.000000 1.759220 0.000000 
#    z 0.000000 0.000000 1.638690 
# 
# From -- ./inp_files/48871.got.cif
#   From: 2010.05.17/outbox.cif.g08.bks.cpg/sg22_25_cif.got.tgz:48871.got - 2010.06.03 23:40:54.
