data_PCOD9327174
_publ_section_title
;
Structure prediction by ZEFSAII (Michael W. Deem and Ramdas Pophale) SiO2 
 PCOD9327174
Probable space group: F 2 2 2
;
_chemical_formula_sum "Si O2"
_cell_formula_units_Z 120
_cell_length_a 27.900045
_cell_length_b 10.007588
_cell_length_c 20.445311
_cell_angle_alpha 90.000000
_cell_angle_beta 90.000000
_cell_angle_gamma 90.000000
_cell_volume 5708.579355
_symmetry_space_group_name_H-M "F 2 2 2"
_symmetry_group_IT_number 22
_symmetry_cell_setting 'orthorhombic'
loop_
_space_group_symop_operation_xyz
x,y,z
-x,-y,z
x,-y,-z
-x,y,-z
x,1/2+y,1/2+z
-x,1/2-y,1/2+z
x,1/2-y,1/2-z
-x,1/2+y,1/2-z
1/2+x,y,1/2+z
1/2-x,-y,1/2+z
1/2+x,-y,1/2-z
1/2-x,y,1/2-z
1/2+x,1/2+y,z
1/2-x,1/2-y,z
1/2+x,1/2-y,-z
1/2-x,1/2+y,-z
loop_
_atom_site_type_symbol
_atom_site_label
_atom_site_fract_x
_atom_site_fract_y
_atom_site_fract_z
Si Si1 0.337900 0.925328 0.135972
Si Si2 0.856366 0.542317 0.722183
Si Si3 0.882607 0.750000 0.250000
Si Si4 0.533807 0.618142 0.794719
Si Si5 0.111776 0.345060 0.978152
Si Si6 0.240265 0.592687 0.326039
Si Si7 0.488546 0.748727 0.428715
Si Si8 0.087407 0.164170 0.386474
O O1 0.345455 0.876381 0.210347
O O2 0.347740 0.825118 0.076262
O O3 0.283074 0.976104 0.133400
O O4 0.379723 0.035926 0.128674
O O5 0.852887 0.385747 0.741802
O O6 0.910863 0.572761 0.703737
O O7 0.816008 0.566171 0.667745
O O8 0.912330 0.759813 0.317409
O O9 0.500000 0.500000 0.768055
O O10 0.530180 0.750000 0.750000
O O11 0.517320 0.653130 0.868022
O O12 0.061939 0.321803 0.941057
O O13 0.114612 0.500000 0.000000
O O14 0.111307 0.270137 0.048222
O O15 0.250000 0.557050 0.250000
O O16 0.250000 0.750000 0.334677
O O17 0.500000 0.810527 0.500000
O O18 0.532463 0.650399 0.409600
#
# Coordination Sequence:
#
# PCOD9327174 Si02
#       8
#    16  16   8  16  16  16  16  16
#     4   9  18  33  56  87 118 158 203 265 329 374
#     4  10  22  38  62  94 130 170 217 268 336 392
#     4  10  20  40  63  88 132 168 216 275 332 396
#     4  12  28  42  65  99 137 177 221 277 344 404
#     4   9  18  34  57  89 125 164 219 273 331 388
#     4   9  19  34  58  86 121 158 209 263 316 386
#     4  10  22  38  57  90 127 175 228 261 333 408
#     4   9  19  33  56  82 122 164 206 266 319 387
#
# _framework density 21.020990999999999
#
# number of rings (size 3 to 8) (size 9 to 14) (size 15 to 20)
#    0.000    2.267    0.000    1.600   11.200    6.400 
#    2.400    8.333    0.000    4.800   10.400    0.000 
#    0.000    0.000    0.000    0.000    0.000    0.000 
#
# Total GULP energy -167051.892321 kJ/mol
# GULP energy per Si atom -5568.396411 kJ/mol
# Density = 2.097315 g / cm^3
# Si number density = 21.020991 Si / 1000 Ang^3
#
#
#
# Elastic Constant Matrix: (Units=GPa)
#
#
# Indices 1 2 3 4 5 6 
#
# 1 149.9378 29.2851 48.6763 0.0000 0.0000 0.0000
# 2 29.2851 68.7689 26.8758 0.0000 0.0000 0.0000
# 3 48.6763 26.8758 122.0917 0.0000 0.0000 0.0000
# 4 0.0000 0.0000 0.0000 19.1963 0.0000 0.0000
# 5 0.0000 0.0000 0.0000 0.0000 30.3801 0.0000
# 6 0.0000 0.0000 0.0000 0.0000 0.0000 15.6577
#
#
#
# Elastic Compliance Matrix: (Units=1/GPa)
#
#
# Indices 1 2 3 4 5 6 
#
# 1 0.007997 -0.002363 -0.002668 0.000000 0.000000 0.000000
# 2 -0.002363 0.016608 -0.002714 0.000000 0.000000 0.000000
# 3 -0.002668 -0.002714 0.009852 0.000000 0.000000 0.000000
# 4 0.000000 0.000000 0.000000 0.052093 0.000000 0.000000
# 5 0.000000 0.000000 0.000000 0.000000 0.032916 0.000000
# 6 0.000000 0.000000 0.000000 0.000000 0.000000 0.063866
#
#
# Mechanical properties :
#
#
# Convention : Reuss Voigt Hill
#
# Bulk Modulus (GPa) = 52.72240 61.16367 56.94303
# Shear Modulus (GPa) = 24.37293 28.77756 26.57524
#
# Velocity S-wave (km/s) = 3.40877 3.70400 3.55945
# Velocity P-wave (km/s) = 6.37403 6.88858 6.63629
#
# Compressibility (1/GPa) = 0.01896727
#
# Stress axis : x y z
#
# Youngs Moduli (GPa) = 125.04467 60.21089 101.50463
#
# Poissons Ratio (x) = 0.14227 0.27084
# Poissons Ratio (y) = 0.29545 0.27548
# Poissons Ratio (z) = 0.33365 0.16341
#
# Static dielectric constant tensor:
#      x y z
#    x 1.818230 0.000000 0.000000 
#    y 0.000000 1.828720 0.000000 
#    z 0.000000 0.000000 1.853220 
# 
# From -- ./inp_files/45412.got.cif
#   From: 2010.05.17/outbox.cif.g08.bks.cpg/sg22_23_cif.got.tgz:45412.got - 2010.06.03 23:40:54.
