data_PCOD9327978
_publ_section_title
;
Structure prediction by ZEFSAII (Michael W. Deem and Ramdas Pophale) SiO2 
 PCOD9327978
Probable space group: F 2 2 2
;
_chemical_formula_sum "Si O2"
_cell_formula_units_Z 112
_cell_length_a 22.462937
_cell_length_b 15.256968
_cell_length_c 16.648634
_cell_angle_alpha 90.000000
_cell_angle_beta 90.000000
_cell_angle_gamma 90.000000
_cell_volume 5705.758428
_symmetry_space_group_name_H-M "F 2 2 2"
_symmetry_group_IT_number 22
_symmetry_cell_setting 'orthorhombic'
loop_
_space_group_symop_operation_xyz
x,y,z
-x,-y,z
x,-y,-z
-x,y,-z
x,1/2+y,1/2+z
-x,1/2-y,1/2+z
x,1/2-y,1/2-z
-x,1/2+y,1/2-z
1/2+x,y,1/2+z
1/2-x,-y,1/2+z
1/2+x,-y,1/2-z
1/2-x,y,1/2-z
1/2+x,1/2+y,z
1/2-x,1/2-y,z
1/2+x,1/2-y,-z
1/2-x,1/2+y,-z
loop_
_atom_site_type_symbol
_atom_site_label
_atom_site_fract_x
_atom_site_fract_y
_atom_site_fract_z
Si Si1 0.024167 0.401372 0.844917
Si Si2 0.679877 0.250000 0.561057
Si Si3 0.524166 0.098628 0.344919
Si Si4 0.435631 0.750000 0.654998
Si Si5 0.642130 0.589361 0.948983
Si Si6 0.750000 0.145122 0.154433
Si Si7 0.357869 0.910639 0.051018
O O1 0.039041 0.383503 0.749999
O O2 0.080573 0.392386 0.902887
O O3 0.000000 0.500000 0.849016
O O4 0.972238 0.335322 0.872510
O O5 0.750000 0.250000 0.579853
O O6 0.633137 0.250002 0.633082
O O7 0.662003 0.165484 0.509364
O O8 0.662004 0.334515 0.509363
O O9 0.472237 0.164678 0.372511
O O10 0.580571 0.107615 0.402889
O O11 0.500000 0.000000 0.349018
O O12 0.439877 0.750000 0.750000
O O13 0.693145 0.595160 0.881315
O O14 0.639648 0.500000 0.000000
O O15 0.750000 0.143165 0.250000
O O16 0.750000 0.250000 0.130822
O O17 0.693146 0.095158 0.118685
O O18 0.360351 0.000000 0.000000
#
# Coordination Sequence:
#
# PCOD9327978 Si02
#       7
#    16  16  16  16  16  16  16
#     4  10  22  41  63  93 125 161 211 261 316 383
#     4  12  25  42  61  91 130 164 218 263 317 380
#     4  10  22  41  63  93 125 161 211 261 316 383
#     4  10  23  42  65  88 123 169 212 262 317 379
#     4  12  23  40  66  94 132 167 206 268 326 375
#     4  11  23  42  66  95 128 172 220 264 317 375
#     4  12  23  40  66  94 132 167 206 268 326 375
#
# _framework density 19.629292
#
# number of rings (size 3 to 8) (size 9 to 14) (size 15 to 20)
#    0.000    1.000    2.857    3.857    0.000    5.429 
#    0.000    1.429    0.000    0.000    0.000    0.000 
#    0.000    0.000    0.000    0.000    0.000    0.000 
#
# Total GULP energy -156432.516097 kJ/mol
# GULP energy per Si atom -5586.875575 kJ/mol
# Density = 1.958461 g / cm^3
# Si number density = 19.629292 Si / 1000 Ang^3
#
#
#
# Elastic Constant Matrix: (Units=GPa)
#
#
# Indices 1 2 3 4 5 6 
#
# 1 196.4472 57.8392 61.0389 0.0000 0.0000 0.0000
# 2 57.8392 117.8211 33.3877 0.0000 0.0000 0.0000
# 3 61.0389 33.3877 52.6278 0.0000 0.0000 0.0000
# 4 0.0000 0.0000 0.0000 -48.9500 0.0000 0.0000
# 5 0.0000 0.0000 0.0000 0.0000 47.7191 0.0000
# 6 0.0000 0.0000 0.0000 0.0000 0.0000 22.7331
#
#
#
# Elastic Compliance Matrix: (Units=1/GPa)
#
#
# Indices 1 2 3 4 5 6 
#
# 1 0.008205 -0.001623 -0.008487 0.000000 0.000000 0.000000
# 2 -0.001623 0.010669 -0.004886 0.000000 0.000000 0.000000
# 3 -0.008487 -0.004886 0.031944 0.000000 0.000000 0.000000
# 4 0.000000 0.000000 0.000000 -0.020429 0.000000 0.000000
# 5 0.000000 0.000000 0.000000 0.000000 0.020956 0.000000
# 6 0.000000 0.000000 0.000000 0.000000 0.000000 0.043989
#
#
# Mechanical properties :
#
#
# Convention : Reuss Voigt Hill
#
# Bulk Modulus (GPa) = 48.01566 74.60307 61.30937
# Shear Modulus (GPa) = 37.80188 18.60914 28.20551
#
# Velocity S-wave (km/s) = 4.39314 3.08235 3.79477
# Velocity P-wave (km/s) = 7.08853 7.12435 7.10646
#
# Compressibility (1/GPa) = 0.02082654
#
# Stress axis : x y z
#
# Youngs Moduli (GPa) = 121.87196 93.73159 31.30430
#
# Poissons Ratio (x) = 0.15213 0.26568
# Poissons Ratio (y) = 0.19780 0.15295
# Poissons Ratio (z) = 1.03433 0.45797
#
# Static dielectric constant tensor:
#      x y z
#    x 1.685520 0.000000 0.000000 
#    y 0.000000 1.702520 0.000000 
#    z 0.000000 0.000000 1.702370 
# 
# From -- ./inp_files/32528.got.cif
#   From: 2010.05.17/outbox.cif.g08.bks.cpg/sg22_17_cif.got.tgz:32528.got - 2010.06.03 23:40:54.
