data_PCOD9327720
_publ_section_title
;
Structure prediction by ZEFSAII (Michael W. Deem and Ramdas Pophale) SiO2 
 PCOD9327720
Probable space group: F 2 2 2
;
_chemical_formula_sum "Si O2"
_cell_formula_units_Z 116
_cell_length_a 31.084430
_cell_length_b 11.181774
_cell_length_c 14.991605
_cell_angle_alpha 90.000000
_cell_angle_beta 90.000000
_cell_angle_gamma 90.000000
_cell_volume 5210.768141
_symmetry_space_group_name_H-M "F 2 2 2"
_symmetry_group_IT_number 22
_symmetry_cell_setting 'orthorhombic'
loop_
_space_group_symop_operation_xyz
x,y,z
-x,-y,z
x,-y,-z
-x,y,-z
x,1/2+y,1/2+z
-x,1/2-y,1/2+z
x,1/2-y,1/2-z
-x,1/2+y,1/2-z
1/2+x,y,1/2+z
1/2-x,-y,1/2+z
1/2+x,-y,1/2-z
1/2-x,y,1/2-z
1/2+x,1/2+y,z
1/2-x,1/2-y,z
1/2+x,1/2-y,-z
1/2-x,1/2+y,-z
loop_
_atom_site_type_symbol
_atom_site_label
_atom_site_fract_x
_atom_site_fract_y
_atom_site_fract_z
Si Si1 0.953528 0.469590 0.834498
Si Si2 0.853414 0.034880 0.895995
Si Si3 0.170050 0.999137 0.394665
Si Si4 0.064878 0.102138 0.849304
Si Si5 0.000000 0.000000 0.000000
Si Si6 0.891805 0.209965 0.613357
Si Si7 0.757177 0.614431 0.354708
Si Si8 0.102235 0.833722 0.403813
O O1 0.950917 0.529538 0.736836
O O2 0.936123 0.334803 0.842290
O O3 0.920831 0.539139 0.898072
O O4 0.000000 0.500000 0.869777
O O5 0.877933 0.156088 0.867664
O O6 0.804127 0.059759 0.871480
O O7 0.884661 0.934677 0.856541
O O8 0.853826 0.000000 0.000000
O O9 0.145516 0.116565 0.356268
O O10 0.220205 0.022991 0.384706
O O11 0.161440 0.000000 0.500000
O O12 0.148942 0.873061 0.364630
O O13 0.071066 0.244516 0.850661
O O14 0.033336 0.068316 0.932536
O O15 0.894995 0.209067 0.505429
O O16 0.750000 0.625903 0.250000
O O17 0.750000 0.750000 0.393517
#
# Coordination Sequence:
#
# PCOD9327720 Si02
#       8
#    16  16  16  16   4  16  16  16
#     4  11  25  42  66 101 136 178 233 294 357 428
#     4  12  24  43  70 101 133 182 234 287 350 428
#     4   9  19  40  65  91 129 173 220 274 335 407
#     4  12  25  44  67 102 137 186 235 293 361 426
#     4  12  24  48  72  92 148 184 236 300 358 444
#     4  10  21  42  69  99 129 179 230 283 351 419
#     4  11  24  39  66 102 137 174 225 287 349 417
#     4  10  22  43  68  94 136 183 228 284 355 422
#
# _framework density 22.261593000000001
#
# number of rings (size 3 to 8) (size 9 to 14) (size 15 to 20)
#    0.000    1.241    4.138    2.069    3.862    3.862 
#    2.483    0.690    0.000    0.828    0.000    0.000 
#    0.000    0.000    0.000    0.000    0.000    0.000 
#
# Total GULP energy -161685.584706 kJ/mol
# GULP energy per Si atom -5575.364990 kJ/mol
# Density = 2.221092 g / cm^3
# Si number density = 22.261593 Si / 1000 Ang^3
#
#
#
# Elastic Constant Matrix: (Units=GPa)
#
#
# Indices 1 2 3 4 5 6 
#
# 1 136.1499 29.2960 2.9338 0.0000 0.0000 0.0000
# 2 29.2960 69.0073 17.5854 0.0000 0.0000 0.0000
# 3 2.9338 17.5854 54.7430 0.0000 0.0000 0.0000
# 4 0.0000 0.0000 0.0000 25.3779 0.0000 0.0000
# 5 0.0000 0.0000 0.0000 0.0000 19.0077 0.0000
# 6 0.0000 0.0000 0.0000 0.0000 0.0000 33.2708
#
#
#
# Elastic Compliance Matrix: (Units=1/GPa)
#
#
# Indices 1 2 3 4 5 6 
#
# 1 0.008110 -0.003629 0.000731 0.000000 0.000000 0.000000
# 2 -0.003629 0.017407 -0.005397 0.000000 0.000000 0.000000
# 3 0.000731 -0.005397 0.019962 0.000000 0.000000 0.000000
# 4 0.000000 0.000000 0.000000 0.039404 0.000000 0.000000
# 5 0.000000 0.000000 0.000000 0.000000 0.052610 0.000000
# 6 0.000000 0.000000 0.000000 0.000000 0.000000 0.030056
#
#
# Mechanical properties :
#
#
# Convention : Reuss Voigt Hill
#
# Bulk Modulus (GPa) = 34.61605 39.94784 37.28194
# Shear Modulus (GPa) = 25.80369 29.53695 27.67032
#
# Velocity S-wave (km/s) = 3.40827 3.64649 3.52939
# Velocity P-wave (km/s) = 5.57421 5.97603 5.77861
#
# Compressibility (1/GPa) = 0.02888833
#
# Stress axis : x y z
#
# Youngs Moduli (GPa) = 123.30421 57.44679 50.09561
#
# Poissons Ratio (x) = 0.20849 -0.03663
# Poissons Ratio (y) = 0.44751 0.27038
# Poissons Ratio (z) = -0.09016 0.31006
#
# Static dielectric constant tensor:
#      x y z
#    x 1.930600 0.000000 0.000000 
#    y 0.000000 1.867780 0.000000 
#    z 0.000000 0.000000 1.846890 
# 
# From -- ./inp_files/40083.got.cif
#   From: 2010.05.17/outbox.cif.g08.bks.cpg/sg22_21_cif.got.tgz:40083.got - 2010.06.03 23:40:54.
