data_PCOD9327137
_publ_section_title
;
Structure prediction by ZEFSAII (Michael W. Deem and Ramdas Pophale) SiO2 
 PCOD9327137
Probable space group: F 2 2 2
;
_chemical_formula_sum "Si O2"
_cell_formula_units_Z 80
_cell_length_a 23.062547
_cell_length_b 27.443988
_cell_length_c 5.338136
_cell_angle_alpha 90.000000
_cell_angle_beta 90.000000
_cell_angle_gamma 90.000000
_cell_volume 3378.657147
_symmetry_space_group_name_H-M "F 2 2 2"
_symmetry_group_IT_number 22
_symmetry_cell_setting 'orthorhombic'
loop_
_space_group_symop_operation_xyz
x,y,z
-x,-y,z
x,-y,-z
-x,y,-z
x,1/2+y,1/2+z
-x,1/2-y,1/2+z
x,1/2-y,1/2-z
-x,1/2+y,1/2-z
1/2+x,y,1/2+z
1/2-x,-y,1/2+z
1/2+x,-y,1/2-z
1/2-x,y,1/2-z
1/2+x,1/2+y,z
1/2-x,1/2-y,z
1/2+x,1/2-y,-z
1/2-x,1/2+y,-z
loop_
_atom_site_type_symbol
_atom_site_label
_atom_site_fract_x
_atom_site_fract_y
_atom_site_fract_z
Si Si1 0.214221 0.810417 0.499114
Si Si2 0.318505 0.578812 0.396307
Si Si3 0.084111 0.778686 0.501798
Si Si4 0.564923 0.606471 0.449046
Si Si5 0.148411 0.551717 0.597682
O O1 0.250000 0.800182 0.250000
O O2 0.199872 0.867813 0.483948
O O3 0.153975 0.782121 0.501063
O O4 0.250000 0.802119 0.750000
O O5 0.389217 0.584475 0.354034
O O6 0.316975 0.454768 0.360263
O O7 0.303617 0.567914 0.109502
O O8 0.066680 0.750000 0.250000
O O9 0.064986 0.834992 0.522779
O O10 0.065851 0.750000 0.750000
O O11 0.500000 0.588867 0.500000
O O12 0.597255 0.588568 0.192593
O O13 0.125917 0.500000 0.500000
#
# Coordination Sequence:
#
# PCOD9327137 Si02
#       5
#    16  16  16  16  16
#     4  11  22  38  66  92 125 167 211 270 333 385
#     4   9  21  38  61  92 125 164 208 260 322 393
#     4  11  25  41  61  94 130 167 221 265 322 399
#     4   9  23  41  65  92 130 170 212 266 328 384
#     4  10  20  39  67  91 125 170 208 268 322 388
#
# _framework density 23.678048
#
# number of rings (size 3 to 8) (size 9 to 14) (size 15 to 20)
#    1.200    0.800    0.000    3.000    5.600    4.000 
#    0.000    3.000    0.000   12.000    0.000    0.000 
#    0.000    0.000    0.000    0.000    0.000    0.000 
#
# Total GULP energy -111556.385650 kJ/mol
# GULP energy per Si atom -5577.819283 kJ/mol
# Density = 2.362416 g / cm^3
# Si number density = 23.678048 Si / 1000 Ang^3
#
#
#
# Elastic Constant Matrix: (Units=GPa)
#
#
# Indices 1 2 3 4 5 6 
#
# 1 95.6988 -4.5005 29.4473 0.1190 -0.0485 -0.1038
# 2 -4.5005 119.0317 56.8683 0.0780 -0.0684 -0.0918
# 3 29.4473 56.8683 219.6080 0.1183 0.0052 -0.1055
# 4 0.1190 0.0780 0.1183 60.8590 -0.0458 -0.0844
# 5 -0.0485 -0.0684 0.0052 -0.0458 -17.7790 0.1480
# 6 -0.1038 -0.0918 -0.1055 -0.0844 0.1480 7.3116
#
#
#
# Elastic Compliance Matrix: (Units=1/GPa)
#
#
# Indices 1 2 3 4 5 6 
#
# 1 0.011069 0.001287 -0.001817 -0.000020 -0.000034 0.000148
# 2 0.001287 0.009737 -0.002694 -0.000010 -0.000041 0.000102
# 3 -0.001817 -0.002694 0.005495 -0.000004 0.000017 0.000019
# 4 -0.000020 -0.000010 -0.000004 0.016432 -0.000041 0.000190
# 5 -0.000034 -0.000041 0.000017 -0.000041 -0.056236 0.001137
# 6 0.000148 0.000102 0.000019 0.000190 0.001137 0.136752
#
#
# Mechanical properties :
#
#
# Convention : Reuss Voigt Hill
#
# Bulk Modulus (GPa) = 50.37204 66.44096 58.40650
# Shear Modulus (GPa) = 36.67967 33.57987 35.12977
#
# Velocity S-wave (km/s) = 3.94013 3.76997 3.85599
# Velocity P-wave (km/s) = 6.48224 6.86085 6.67423
#
# Compressibility (1/GPa) = 0.01985228
#
# Stress axis : x y z
#
# Youngs Moduli (GPa) = 90.33915 102.70225 181.98747
#
# Poissons Ratio (x) = -0.13217 0.33076
# Poissons Ratio (y) = -0.11626 0.49026
# Poissons Ratio (z) = 0.16419 0.27667
#
# Static dielectric constant tensor:
#      x y z
#    x 1.967020 0.000020 0.000070 
#    y 0.000020 1.909210 -0.000200 
#    z 0.000070 -0.000200 1.999580 
# 
# From -- ./inp_files/5596.got.cif
#   From: 2010.05.17/outbox.cif.g08.bks.cpg/sg22_3_cif.got.tgz:5596.got - 2010.06.03 23:40:54.
