data_PCOD9327764
_publ_section_title
;
Structure prediction by ZEFSAII (Michael W. Deem and Ramdas Pophale) SiO2 
 PCOD9327764
Probable space group: F 2 2 2
;
_chemical_formula_sum "Si O2"
_cell_formula_units_Z 36
_cell_length_a 11.411045
_cell_length_b 13.193573
_cell_length_c 8.378423
_cell_angle_alpha 90.000000
_cell_angle_beta 90.000000
_cell_angle_gamma 90.000000
_cell_volume 1261.392153
_symmetry_space_group_name_H-M "F 2 2 2"
_symmetry_group_IT_number 22
_symmetry_cell_setting 'orthorhombic'
loop_
_space_group_symop_operation_xyz
x,y,z
-x,-y,z
x,-y,-z
-x,y,-z
x,1/2+y,1/2+z
-x,1/2-y,1/2+z
x,1/2-y,1/2-z
-x,1/2+y,1/2-z
1/2+x,y,1/2+z
1/2-x,-y,1/2+z
1/2+x,-y,1/2-z
1/2-x,y,1/2-z
1/2+x,1/2+y,z
1/2-x,1/2-y,z
1/2+x,1/2-y,-z
1/2-x,1/2+y,-z
loop_
_atom_site_type_symbol
_atom_site_label
_atom_site_fract_x
_atom_site_fract_y
_atom_site_fract_z
Si Si1 0.415355 0.135602 0.722907
Si Si2 0.000000 0.000000 0.500000
Si Si3 0.183900 0.859807 0.901034
O O1 0.378294 0.250000 0.750000
O O2 0.335260 0.096410 0.578380
O O3 0.549680 0.145208 0.660555
O O4 0.425289 0.071635 0.883796
O O5 0.250000 0.907876 0.750000
O O6 0.250000 0.750000 0.918224
#
# Coordination Sequence:
#
# PCOD9327764 Si02
#       3
#    16   4  16
#     4  11  24  47  84 114 169 221 264 355 408 490
#     4  12  28  50  76 138 160 216 292 322 432 506
#     4  10  21  43  79 118 154 219 280 320 418 490
#
# _framework density 28.539895999999999
#
# number of rings (size 3 to 8) (size 9 to 14) (size 15 to 20)
#    0.000    1.333    4.444    2.667    0.000    4.444 
#    0.000    4.444    0.000    0.000    0.000    0.000 
#    0.000    0.000    0.000    0.000    0.000    0.000 
#
# Total GULP energy -50453.565083 kJ/mol
# GULP energy per Si atom -5605.951676 kJ/mol
# Density = 2.847494 g / cm^3
# Si number density = 28.539896 Si / 1000 Ang^3
#
#
#
# Elastic Constant Matrix: (Units=GPa)
#
#
# Indices 1 2 3 4 5 6 
#
# 1 225.6884 43.4585 100.1280 0.0000 0.0000 0.0000
# 2 43.4585 170.9639 140.5163 0.0000 0.0000 0.0000
# 3 100.1280 140.5163 366.6746 0.0000 0.0000 0.0000
# 4 0.0000 0.0000 0.0000 27.9889 0.0000 0.0000
# 5 0.0000 0.0000 0.0000 0.0000 62.9228 0.0000
# 6 0.0000 0.0000 0.0000 0.0000 0.0000 15.8954
#
#
#
# Elastic Compliance Matrix: (Units=1/GPa)
#
#
# Indices 1 2 3 4 5 6 
#
# 1 0.005047 -0.000219 -0.001294 0.000000 0.000000 0.000000
# 2 -0.000219 0.008548 -0.003216 0.000000 0.000000 0.000000
# 3 -0.001294 -0.003216 0.004313 0.000000 0.000000 0.000000
# 4 0.000000 0.000000 0.000000 0.035728 0.000000 0.000000
# 5 0.000000 0.000000 0.000000 0.000000 0.015892 0.000000
# 6 0.000000 0.000000 0.000000 0.000000 0.000000 0.062911
#
#
# Mechanical properties :
#
#
# Convention : Reuss Voigt Hill
#
# Bulk Modulus (GPa) = 118.34882 147.94807 133.14845
# Shear Modulus (GPa) = 34.55040 53.30968 43.93004
#
# Velocity S-wave (km/s) = 3.48314 4.32661 3.92758
# Velocity P-wave (km/s) = 7.59831 8.76989 8.20504
#
# Compressibility (1/GPa) = 0.00844960
#
# Stress axis : x y z
#
# Youngs Moduli (GPa) = 198.12538 116.98506 231.85566
#
# Poissons Ratio (x) = 0.02565 0.30008
# Poissons Ratio (y) = 0.04344 0.74563
# Poissons Ratio (z) = 0.25642 0.37621
#
# Static dielectric constant tensor:
#      x y z
#    x 2.166600 0.000000 0.000000 
#    y 0.000000 2.272510 0.000000 
#    z 0.000000 0.000000 2.204050 
# 
# From -- ./inp_files/8839.got.cif
#   From: 2010.05.17/outbox.cif.g08.bks.cpg/sg22_5_cif.got.tgz:8839.got - 2010.06.03 23:40:54.
