data_PCOD9327942
_publ_section_title
;
Structure prediction by ZEFSAII (Michael W. Deem and Ramdas Pophale) SiO2 
 PCOD9327942
Probable space group: F 2 2 2
;
_chemical_formula_sum "Si O2"
_cell_formula_units_Z 116
_cell_length_a 29.145018
_cell_length_b 24.627023
_cell_length_c 7.261414
_cell_angle_alpha 90.000000
_cell_angle_beta 90.000000
_cell_angle_gamma 90.000000
_cell_volume 5211.916413
_symmetry_space_group_name_H-M "F 2 2 2"
_symmetry_group_IT_number 22
_symmetry_cell_setting 'orthorhombic'
loop_
_space_group_symop_operation_xyz
x,y,z
-x,-y,z
x,-y,-z
-x,y,-z
x,1/2+y,1/2+z
-x,1/2-y,1/2+z
x,1/2-y,1/2-z
-x,1/2+y,1/2-z
1/2+x,y,1/2+z
1/2-x,-y,1/2+z
1/2+x,-y,1/2-z
1/2-x,y,1/2-z
1/2+x,1/2+y,z
1/2-x,1/2-y,z
1/2+x,1/2-y,-z
1/2-x,1/2+y,-z
loop_
_atom_site_type_symbol
_atom_site_label
_atom_site_fract_x
_atom_site_fract_y
_atom_site_fract_z
Si Si1 0.213217 0.938990 0.585436
Si Si2 0.250000 0.250000 0.750000
Si Si3 0.190617 0.840565 0.329951
Si Si4 0.464612 0.799921 0.150511
Si Si5 0.613954 0.593099 0.262701
Si Si6 0.878277 0.789921 0.419887
Si Si7 0.096551 0.386236 0.666621
Si Si8 0.052335 0.496448 0.724784
O O1 0.250000 0.933385 0.750000
O O2 0.216962 0.890976 0.429479
O O3 0.163852 0.928646 0.679751
O O4 0.216028 0.000000 0.500000
O O5 0.214745 0.201328 0.812935
O O6 0.171262 0.800118 0.488281
O O7 0.144393 0.865329 0.247300
O O8 0.489697 0.750000 0.250000
O O9 0.444393 0.844366 0.289569
O O10 0.500000 0.822625 0.000000
O O11 0.419070 0.773457 0.056781
O O12 0.606195 0.650113 0.359236
O O13 0.578018 0.547117 0.310001
O O14 0.607081 0.604026 0.046576
O O15 0.875079 0.750000 0.250000
O O16 0.080375 0.441856 0.759923
O O17 0.052632 0.500000 0.500000
O O18 0.000000 0.500000 0.781792
#
# Coordination Sequence:
#
# PCOD9327942 Si02
#       8
#    16   4  16  16  16  16  16  16
#     4  11  26  44  70 104 141 186 242 296 371 449
#     4  12  28  40  74  96 140 184 246 306 360 444
#     4  10  26  43  65 100 136 179 237 297 365 437
#     4  11  24  40  60  95 131 177 236 288 349 419
#     4  10  22  41  69  98 139 180 226 290 357 429
#     4  10  22  40  65  92 132 177 224 282 351 425
#     4  10  22  41  72  95 138 185 227 292 363 434
#     4   9  19  37  63  99 130 171 223 271 339 417
#
# _framework density 22.256686999999999
#
# number of rings (size 3 to 8) (size 9 to 14) (size 15 to 20)
#    0.000    1.793    0.000    2.069   10.621    2.759 
#    2.483    0.000    0.000    0.000    0.000    0.000 
#    0.000    0.000    0.000    0.000    0.000    0.000 
#
# Total GULP energy -161794.889380 kJ/mol
# GULP energy per Si atom -5579.134117 kJ/mol
# Density = 2.220603 g / cm^3
# Si number density = 22.256687 Si / 1000 Ang^3
#
#
#
# Elastic Constant Matrix: (Units=GPa)
#
#
# Indices 1 2 3 4 5 6 
#
# 1 101.8866 56.0496 18.9231 0.0213 -0.0009 0.0003
# 2 56.0496 154.4804 29.2503 0.0059 -0.0030 0.0029
# 3 18.9231 29.2503 80.0795 0.0242 -0.0016 0.0009
# 4 0.0213 0.0059 0.0242 97.0854 -0.0087 -0.0231
# 5 -0.0009 -0.0030 -0.0016 -0.0087 19.7984 -0.0006
# 6 0.0003 0.0029 0.0009 -0.0231 -0.0006 20.1422
#
#
#
# Elastic Compliance Matrix: (Units=1/GPa)
#
#
# Indices 1 2 3 4 5 6 
#
# 1 0.012403 -0.004238 -0.001383 -0.000002 0.000000 0.000000
# 2 -0.004238 0.008403 -0.002068 0.000001 0.000001 -0.000001
# 3 -0.001383 -0.002068 0.013570 -0.000003 0.000001 0.000000
# 4 -0.000002 0.000001 -0.000003 0.010300 0.000005 0.000012
# 5 0.000000 0.000001 0.000001 0.000005 0.050509 0.000002
# 6 0.000000 -0.000001 0.000000 0.000012 0.000002 0.049647
#
#
# Mechanical properties :
#
#
# Convention : Reuss Voigt Hill
#
# Bulk Modulus (GPa) = 52.63766 60.54360 56.59063
# Shear Modulus (GPa) = 30.02242 42.88677 36.45459
#
# Velocity S-wave (km/s) = 3.67674 4.39443 4.05151
# Velocity P-wave (km/s) = 6.45958 7.28076 6.88243
#
# Compressibility (1/GPa) = 0.01899781
#
# Stress axis : x y z
#
# Youngs Moduli (GPa) = 80.62380 119.01045 73.69418
#
# Poissons Ratio (x) = 0.50442 0.10190
# Poissons Ratio (y) = 0.34172 0.15237
# Poissons Ratio (z) = 0.11149 0.24607
#
# Static dielectric constant tensor:
#      x y z
#    x 1.829360 0.000000 0.000040 
#    y 0.000000 1.814680 -0.000020 
#    z 0.000040 -0.000020 2.050730 
# 
# From -- ./inp_files/14974.got.cif
#   From: 2010.05.17/outbox.cif.g08.bks.cpg/sg22_8_cif.got.tgz:14974.got - 2010.06.03 23:40:54.
