data_PCOD9327181
_publ_section_title
;
Structure prediction by ZEFSAII (Michael W. Deem and Ramdas Pophale) SiO2 
 PCOD9327181
Probable space group: F 2 2 2
;
_chemical_formula_sum "Si O2"
_cell_formula_units_Z 68
_cell_length_a 12.742329
_cell_length_b 14.171591
_cell_length_c 17.529841
_cell_angle_alpha 90.000000
_cell_angle_beta 90.000000
_cell_angle_gamma 90.000000
_cell_volume 3165.522472
_symmetry_space_group_name_H-M "F 2 2 2"
_symmetry_group_IT_number 22
_symmetry_cell_setting 'orthorhombic'
loop_
_space_group_symop_operation_xyz
x,y,z
-x,-y,z
x,-y,-z
-x,y,-z
x,1/2+y,1/2+z
-x,1/2-y,1/2+z
x,1/2-y,1/2-z
-x,1/2+y,1/2-z
1/2+x,y,1/2+z
1/2-x,-y,1/2+z
1/2+x,-y,1/2-z
1/2-x,y,1/2-z
1/2+x,1/2+y,z
1/2-x,1/2-y,z
1/2+x,1/2-y,-z
1/2-x,1/2+y,-z
loop_
_atom_site_type_symbol
_atom_site_label
_atom_site_fract_x
_atom_site_fract_y
_atom_site_fract_z
Si Si1 0.500000 0.500000 0.500000
Si Si2 0.750000 0.750000 0.401998
Si Si3 0.617430 0.586107 0.360792
Si Si4 0.500000 0.000000 0.263679
Si Si5 0.289827 0.423126 0.829672
Si Si6 0.124844 0.887751 0.012914
O O1 0.568080 0.565327 0.443598
O O2 0.672771 0.685273 0.354806
O O3 0.814664 0.676278 0.452855
O O4 0.529269 0.581769 0.295871
O O5 0.699980 0.500823 0.347232
O O6 0.601525 0.022420 0.312177
O O7 0.250000 0.376962 0.750000
O O8 0.323124 0.365141 0.904469
O O9 0.000000 0.872480 0.000000
O O10 0.143551 0.000000 0.000000
#
# Coordination Sequence:
#
# PCOD9327181 Si02
#       6
#     4   8  16   8  16  16
#     4  10  20  40  64  94 132 176 226 264 346 394
#     4  12  24  40  66 104 132 166 238 292 330 402
#     4  10  21  37  65  99 129 172 220 290 328 408
#     4   9  20  39  67  90 131 180 220 260 357 416
#     4  10  20  41  68  93 129 185 220 270 350 421
#     4  11  23  42  70  95 132 179 227 282 344 409
#
# _framework density 21.481446999999999
#
# number of rings (size 3 to 8) (size 9 to 14) (size 15 to 20)
#    0.000    1.647    2.353    2.824    1.647    0.000 
#    0.000    5.882    0.000    0.000    0.000    0.000 
#    0.000    0.000    0.000    0.000    0.000    0.000 
#
# Total GULP energy -94914.271267 kJ/mol
# GULP energy per Si atom -5583.192427 kJ/mol
# Density = 2.143255 g / cm^3
# Si number density = 21.481447 Si / 1000 Ang^3
#
#
#
# Elastic Constant Matrix: (Units=GPa)
#
#
# Indices 1 2 3 4 5 6 
#
# 1 102.9781 23.2697 17.8317 0.0000 0.0000 0.0000
# 2 23.2697 66.3164 2.2967 0.0000 0.0000 0.0000
# 3 17.8317 2.2967 72.2259 0.0000 0.0000 0.0000
# 4 0.0000 0.0000 0.0000 -4.1618 0.0000 0.0000
# 5 0.0000 0.0000 0.0000 0.0000 -84.9763 0.0000
# 6 0.0000 0.0000 0.0000 0.0000 0.0000 30.7517
#
#
#
# Elastic Compliance Matrix: (Units=1/GPa)
#
#
# Indices 1 2 3 4 5 6 
#
# 1 0.011014 -0.003775 -0.002599 0.000000 0.000000 0.000000
# 2 -0.003775 0.016389 0.000411 0.000000 0.000000 0.000000
# 3 -0.002599 0.000411 0.014474 0.000000 0.000000 0.000000
# 4 0.000000 0.000000 0.000000 -0.240283 0.000000 0.000000
# 5 0.000000 0.000000 0.000000 0.000000 -0.011768 0.000000
# 6 0.000000 0.000000 0.000000 0.000000 0.000000 0.032519
#
#
# Mechanical properties :
#
#
# Convention : Reuss Voigt Hill
#
# Bulk Modulus (GPa) = 33.38753 36.47965 34.93359
# Shear Modulus (GPa) = -32.10374 1.53087 -15.28643
#
# Velocity S-wave (km/s) = -3.87005 0.84510 -2.67050
# Velocity P-wave (km/s) = 2.09607 4.23923 2.60553
#
# Compressibility (1/GPa) = 0.02995130
#
# Stress axis : x y z
#
# Youngs Moduli (GPa) = 90.79513 61.01482 69.08902
#
# Poissons Ratio (x) = 0.23031 0.17957
# Poissons Ratio (y) = 0.34272 -0.02838
# Poissons Ratio (z) = 0.23599 -0.02506
#
# Static dielectric constant tensor:
#      x y z
#    x 1.838060 0.000000 0.000000 
#    y 0.000000 1.755840 0.000000 
#    z 0.000000 0.000000 1.850050 
# 
# From -- ./inp_files/19663.got.cif
#   From: 2010.05.17/outbox.cif.g08.bks.cpg/sg22_10_cif.got.tgz:19663.got - 2010.06.03 23:40:54.
