data_PCOD9327782
_publ_section_title
;
Structure prediction by ZEFSAII (Michael W. Deem and Ramdas Pophale) SiO2 
 PCOD9327782
Probable space group: F 2 2 2
;
_chemical_formula_sum "Si O2"
_cell_formula_units_Z 80
_cell_length_a 24.617198
_cell_length_b 12.912955
_cell_length_c 11.637131
_cell_angle_alpha 90.000000
_cell_angle_beta 90.000000
_cell_angle_gamma 90.000000
_cell_volume 3699.220163
_symmetry_space_group_name_H-M "F 2 2 2"
_symmetry_group_IT_number 22
_symmetry_cell_setting 'orthorhombic'
loop_
_space_group_symop_operation_xyz
x,y,z
-x,-y,z
x,-y,-z
-x,y,-z
x,1/2+y,1/2+z
-x,1/2-y,1/2+z
x,1/2-y,1/2-z
-x,1/2+y,1/2-z
1/2+x,y,1/2+z
1/2-x,-y,1/2+z
1/2+x,-y,1/2-z
1/2-x,y,1/2-z
1/2+x,1/2+y,z
1/2-x,1/2-y,z
1/2+x,1/2-y,-z
1/2-x,1/2+y,-z
loop_
_atom_site_type_symbol
_atom_site_label
_atom_site_fract_x
_atom_site_fract_y
_atom_site_fract_z
Si Si1 0.373689 0.531824 0.628612
Si Si2 0.426281 0.070329 0.688048
Si Si3 0.080127 0.848528 0.940858
Si Si4 0.308710 0.270157 0.384237
Si Si5 0.516654 0.151384 0.869685
O O1 0.385579 0.500000 0.500000
O O2 0.373486 0.446156 0.728893
O O3 0.324073 0.609238 0.613237
O O4 0.427218 0.596065 0.662659
O O5 0.424956 0.147237 0.579416
O O6 0.470844 0.112363 0.780497
O O7 0.430381 0.960905 0.616534
O O8 0.140608 0.801481 0.922458
O O9 0.037145 0.769649 0.884041
O O10 0.304581 0.250000 0.250000
O O11 0.250000 0.250000 0.439844
O O12 0.500000 0.121887 0.000000
#
# Coordination Sequence:
#
# PCOD9327782 Si02
#       5
#    16  16  16  16  16
#     4  11  22  41  64 100 141 176 233 290 341 430
#     4  11  23  44  66  98 140 186 237 279 349 416
#     4  10  25  45  68  99 142 184 233 300 344 424
#     4  10  21  45  74 100 132 180 236 298 363 415
#     4  11  24  40  63  96 138 190 228 275 339 417
#
# _framework density 21.626179
#
# number of rings (size 3 to 8) (size 9 to 14) (size 15 to 20)
#    0.000    1.400    4.000    0.600    0.000    5.600 
#    7.200    5.000    0.000    1.200    0.000    0.000 
#    0.000    0.000    0.000    0.000    0.000    0.000 
#
# Total GULP energy -111465.756677 kJ/mol
# GULP energy per Si atom -5573.287834 kJ/mol
# Density = 2.157696 g / cm^3
# Si number density = 21.626179 Si / 1000 Ang^3
#
#
#
# Elastic Constant Matrix: (Units=GPa)
#
#
# Indices 1 2 3 4 5 6 
#
# 1 141.5551 53.5056 43.4705 0.0000 0.0000 0.0000
# 2 53.5056 83.4192 42.6185 0.0000 0.0000 0.0000
# 3 43.4705 42.6185 175.9807 0.0000 0.0000 0.0000
# 4 0.0000 0.0000 0.0000 28.5872 0.0000 0.0000
# 5 0.0000 0.0000 0.0000 0.0000 18.6028 0.0000
# 6 0.0000 0.0000 0.0000 0.0000 0.0000 24.2228
#
#
#
# Elastic Compliance Matrix: (Units=1/GPa)
#
#
# Indices 1 2 3 4 5 6 
#
# 1 0.009474 -0.005570 -0.000991 0.000000 0.000000 0.000000
# 2 -0.005570 0.016955 -0.002730 0.000000 0.000000 0.000000
# 3 -0.000991 -0.002730 0.006589 0.000000 0.000000 0.000000
# 4 0.000000 0.000000 0.000000 0.034981 0.000000 0.000000
# 5 0.000000 0.000000 0.000000 0.000000 0.053755 0.000000
# 6 0.000000 0.000000 0.000000 0.000000 0.000000 0.041283
#
#
# Mechanical properties :
#
#
# Convention : Reuss Voigt Hill
#
# Bulk Modulus (GPa) = 69.27923 75.57158 72.42540
# Shear Modulus (GPa) = 26.81927 31.70659 29.26293
#
# Velocity S-wave (km/s) = 3.52537 3.83315 3.68248
# Velocity P-wave (km/s) = 6.97678 7.38993 7.18632
#
# Compressibility (1/GPa) = 0.01443434
#
# Stress axis : x y z
#
# Youngs Moduli (GPa) = 105.54803 58.97819 151.77948
#
# Poissons Ratio (x) = 0.32854 0.15046
# Poissons Ratio (y) = 0.58795 0.41439
# Poissons Ratio (z) = 0.10463 0.16102
#
# Static dielectric constant tensor:
#      x y z
#    x 1.858020 0.000000 0.000000 
#    y 0.000000 1.971390 0.000000 
#    z 0.000000 0.000000 1.784270 
# 
# From -- ./inp_files/32388.got.cif
#   From: 2010.05.17/outbox.cif.g08.bks.cpg/sg22_17_cif.got.tgz:32388.got - 2010.06.03 23:40:54.
