data_PCOD9327460
_publ_section_title
;
Structure prediction by ZEFSAII (Michael W. Deem and Ramdas Pophale) SiO2 
 PCOD9327460
Probable space group: F 2 2 2
;
_chemical_formula_sum "Si O2"
_cell_formula_units_Z 96
_cell_length_a 18.363507
_cell_length_b 8.870851
_cell_length_c 26.456251
_cell_angle_alpha 90.000000
_cell_angle_beta 90.000000
_cell_angle_gamma 90.000000
_cell_volume 4309.721553
_symmetry_space_group_name_H-M "F 2 2 2"
_symmetry_group_IT_number 22
_symmetry_cell_setting 'orthorhombic'
loop_
_space_group_symop_operation_xyz
x,y,z
-x,-y,z
x,-y,-z
-x,y,-z
x,1/2+y,1/2+z
-x,1/2-y,1/2+z
x,1/2-y,1/2-z
-x,1/2+y,1/2-z
1/2+x,y,1/2+z
1/2-x,-y,1/2+z
1/2+x,-y,1/2-z
1/2-x,y,1/2-z
1/2+x,1/2+y,z
1/2-x,1/2-y,z
1/2+x,1/2-y,-z
1/2-x,1/2+y,-z
loop_
_atom_site_type_symbol
_atom_site_label
_atom_site_fract_x
_atom_site_fract_y
_atom_site_fract_z
Si Si1 0.887790 0.047859 0.335909
Si Si2 0.986302 0.786215 0.894697
Si Si3 0.270066 0.089796 0.622617
Si Si4 0.831160 0.954316 0.772152
Si Si5 0.566296 0.280540 0.802346
Si Si6 0.387979 0.543963 0.941898
O O1 0.940241 0.140380 0.374457
O O2 0.807743 0.032645 0.359185
O O3 0.876874 0.101746 0.276942
O O4 0.914940 0.877954 0.327704
O O5 0.930947 0.898537 0.920884
O O6 0.013818 0.852460 0.842084
O O7 0.060324 0.810007 0.929672
O O8 0.250000 0.250000 0.596863
O O9 0.318213 0.126212 0.673467
O O10 0.313119 0.968355 0.589373
O O11 0.750000 0.970668 0.750000
O O12 0.866304 0.113557 0.788382
O O13 0.527424 0.250000 0.750000
O O14 0.376590 0.500000 0.000000
#
# Coordination Sequence:
#
# PCOD9327460 Si02
#       6
#    16  16  16  16  16  16
#     4  10  22  36  66 101 143 175 222 277 342 422
#     4  11  21  42  64  94 134 173 226 284 347 406
#     4  11  21  42  65  98 133 172 233 291 343 406
#     4   9  20  37  62  98 143 191 225 273 338 427
#     4  10  21  38  60  99 143 191 223 264 337 426
#     4  11  25  46  73  91 122 183 241 294 355 428
#
# _framework density 22.275220999999998
#
# number of rings (size 3 to 8) (size 9 to 14) (size 15 to 20)
#    0.000    1.667    3.333    1.500    0.000   12.000 
#    3.000    1.667    0.000    4.000    0.000    0.000 
#    0.000    0.000    0.000    0.000    0.000    0.000 
#
# Total GULP energy -133649.743342 kJ/mol
# GULP energy per Si atom -5568.739306 kJ/mol
# Density = 2.222452 g / cm^3
# Si number density = 22.275221 Si / 1000 Ang^3
#
#
#
# Elastic Constant Matrix: (Units=GPa)
#
#
# Indices 1 2 3 4 5 6 
#
# 1 109.3102 44.7947 46.9083 0.0000 0.0000 0.0000
# 2 44.7947 96.7858 33.7809 0.0000 0.0000 0.0000
# 3 46.9083 33.7809 135.1927 0.0000 0.0000 0.0000
# 4 0.0000 0.0000 0.0000 28.6927 0.0000 0.0000
# 5 0.0000 0.0000 0.0000 0.0000 5.0880 0.0000
# 6 0.0000 0.0000 0.0000 0.0000 0.0000 35.3423
#
#
#
# Elastic Compliance Matrix: (Units=1/GPa)
#
#
# Indices 1 2 3 4 5 6 
#
# 1 0.012399 -0.004642 -0.003142 0.000000 0.000000 0.000000
# 2 -0.004642 0.013057 -0.001652 0.000000 0.000000 0.000000
# 3 -0.003142 -0.001652 0.008900 0.000000 0.000000 0.000000
# 4 0.000000 0.000000 0.000000 0.034852 0.000000 0.000000
# 5 0.000000 0.000000 0.000000 0.000000 0.196542 0.000000
# 6 0.000000 0.000000 0.000000 0.000000 0.000000 0.028295
#
#
# Mechanical properties :
#
#
# Convention : Reuss Voigt Hill
#
# Bulk Modulus (GPa) = 64.58372 65.80626 65.19499
# Shear Modulus (GPa) = 15.71941 28.21157 21.96549
#
# Velocity S-wave (km/s) = 2.65936 3.56265 3.14362
# Velocity P-wave (km/s) = 6.20372 6.82128 6.51981
#
# Compressibility (1/GPa) = 0.01548378
#
# Stress axis : x y z
#
# Youngs Moduli (GPa) = 80.65254 76.58730 112.36063
#
# Poissons Ratio (x) = 0.35550 0.35306
# Poissons Ratio (y) = 0.37437 0.18562
# Poissons Ratio (z) = 0.25343 0.12652
#
# Static dielectric constant tensor:
#      x y z
#    x 1.899510 0.000000 0.000000 
#    y 0.000000 1.981660 0.000000 
#    z 0.000000 0.000000 1.834370 
# 
# From -- ./inp_files/53850.got.cif
#   From: 2010.05.17/outbox.cif.g08.bks.cpg/sg22_27_cif.got.tgz:53850.got - 2010.06.03 23:40:54.
