data_PCOD9327625
_publ_section_title
;
Structure prediction by ZEFSAII (Michael W. Deem and Ramdas Pophale) SiO2 
 PCOD9327625
Probable space group: F 2 2 2
;
_chemical_formula_sum "Si O2"
_cell_formula_units_Z 88
_cell_length_a 15.346525
_cell_length_b 23.491330
_cell_length_c 12.757877
_cell_angle_alpha 90.000000
_cell_angle_beta 90.000000
_cell_angle_gamma 90.000000
_cell_volume 4599.345849
_symmetry_space_group_name_H-M "F 2 2 2"
_symmetry_group_IT_number 22
_symmetry_cell_setting 'orthorhombic'
loop_
_space_group_symop_operation_xyz
x,y,z
-x,-y,z
x,-y,-z
-x,y,-z
x,1/2+y,1/2+z
-x,1/2-y,1/2+z
x,1/2-y,1/2-z
-x,1/2+y,1/2-z
1/2+x,y,1/2+z
1/2-x,-y,1/2+z
1/2+x,-y,1/2-z
1/2-x,y,1/2-z
1/2+x,1/2+y,z
1/2-x,1/2-y,z
1/2+x,1/2-y,-z
1/2-x,1/2+y,-z
loop_
_atom_site_type_symbol
_atom_site_label
_atom_site_fract_x
_atom_site_fract_y
_atom_site_fract_z
Si Si1 0.866650 0.567158 0.485389
Si Si2 0.274899 0.367341 0.369624
Si Si3 0.418653 0.253201 0.869487
Si Si4 0.022311 0.120318 0.847213
Si Si5 0.250000 0.250000 0.018815
Si Si6 0.518706 0.865216 0.114012
O O1 0.874046 0.500000 0.500000
O O2 0.773687 0.587223 0.443023
O O3 0.892925 0.595021 0.596027
O O4 0.938857 0.591545 0.403280
O O5 0.250000 0.377312 0.250000
O O6 0.244481 0.305735 0.409770
O O7 0.378193 0.366770 0.375828
O O8 0.384682 0.250000 0.750000
O O9 0.472851 0.312160 0.872694
O O10 0.480714 0.199110 0.887490
O O11 0.337054 0.249824 0.947596
O O12 0.019603 0.110176 0.722698
O O13 0.500000 0.891629 0.000000
#
# Coordination Sequence:
#
# PCOD9327625 Si02
#       6
#    16  16  16  16   8  16
#     4  11  24  44  71  94 125 174 238 281 325 389
#     4  12  25  41  65  99 134 172 219 276 334 402
#     4  10  22  36  62  97 138 177 211 264 331 406
#     4  10  21  40  68  95 128 174 225 272 322 394
#     4  12  22  38  64  98 140 176 216 258 342 412
#     4  11  23  40  64  99 142 168 208 269 343 401
#
# _framework density 19.133154999999999
#
# number of rings (size 3 to 8) (size 9 to 14) (size 15 to 20)
#    0.000    1.091    5.455    1.636    5.091    1.455 
#    0.000    2.727    0.000    0.000    0.000    0.000 
#    0.000    0.000    0.000    0.000    0.000    0.000 
#
# Total GULP energy -122860.850595 kJ/mol
# GULP energy per Si atom -5584.584118 kJ/mol
# Density = 1.908961 g / cm^3
# Si number density = 19.133155 Si / 1000 Ang^3
#
#
#
# Elastic Constant Matrix: (Units=GPa)
#
#
# Indices 1 2 3 4 5 6 
#
# 1 115.9142 15.3740 51.6491 0.0000 0.0000 0.0000
# 2 15.3740 76.2897 32.1231 0.0000 0.0000 0.0000
# 3 51.6491 32.1231 155.8918 0.0000 0.0000 0.0000
# 4 0.0000 0.0000 0.0000 -53.3855 0.0000 0.0000
# 5 0.0000 0.0000 0.0000 0.0000 23.9058 0.0000
# 6 0.0000 0.0000 0.0000 0.0000 0.0000 18.1193
#
#
#
# Elastic Compliance Matrix: (Units=1/GPa)
#
#
# Indices 1 2 3 4 5 6 
#
# 1 0.010154 -0.000690 -0.003222 0.000000 0.000000 0.000000
# 2 -0.000690 0.014400 -0.002739 0.000000 0.000000 0.000000
# 3 -0.003222 -0.002739 0.008047 0.000000 0.000000 0.000000
# 4 0.000000 0.000000 0.000000 -0.018732 0.000000 0.000000
# 5 0.000000 0.000000 0.000000 0.000000 0.041831 0.000000
# 6 0.000000 0.000000 0.000000 0.000000 0.000000 0.055190
#
#
# Mechanical properties :
#
#
# Convention : Reuss Voigt Hill
#
# Bulk Modulus (GPa) = 51.81373 60.70979 56.26176
# Shear Modulus (GPa) = 38.27775 14.32457 26.30116
#
# Velocity S-wave (km/s) = 4.47766 2.73917 3.71163
# Velocity P-wave (km/s) = 7.33975 6.46553 6.91647
#
# Compressibility (1/GPa) = 0.01929990
#
# Stress axis : x y z
#
# Youngs Moduli (GPa) = 98.48091 69.44386 124.27582
#
# Poissons Ratio (x) = 0.04789 0.40044
# Poissons Ratio (y) = 0.06791 0.34037
# Poissons Ratio (z) = 0.31732 0.19020
#
# Static dielectric constant tensor:
#      x y z
#    x 2.204590 0.000000 0.000000 
#    y 0.000000 1.659360 0.000000 
#    z 0.000000 0.000000 1.665440 
# 
# From -- ./inp_files/19957.got.cif
#   From: 2010.05.17/outbox.cif.g08.bks.cpg/sg22_10_cif.got.tgz:19957.got - 2010.06.03 23:40:54.
