data_PCOD9327551
_publ_section_title
;
Structure prediction by ZEFSAII (Michael W. Deem and Ramdas Pophale) SiO2 
 PCOD9327551
Probable space group: F 2 2 2
;
_chemical_formula_sum "Si O2"
_cell_formula_units_Z 60
_cell_length_a 10.683485
_cell_length_b 15.215633
_cell_length_c 18.288122
_cell_angle_alpha 90.000000
_cell_angle_beta 90.000000
_cell_angle_gamma 90.000000
_cell_volume 2972.843721
_symmetry_space_group_name_H-M "F 2 2 2"
_symmetry_group_IT_number 22
_symmetry_cell_setting 'orthorhombic'
loop_
_space_group_symop_operation_xyz
x,y,z
-x,-y,z
x,-y,-z
-x,y,-z
x,1/2+y,1/2+z
-x,1/2-y,1/2+z
x,1/2-y,1/2-z
-x,1/2+y,1/2-z
1/2+x,y,1/2+z
1/2-x,-y,1/2+z
1/2+x,-y,1/2-z
1/2-x,y,1/2-z
1/2+x,1/2+y,z
1/2-x,1/2-y,z
1/2+x,1/2-y,-z
1/2-x,1/2+y,-z
loop_
_atom_site_type_symbol
_atom_site_label
_atom_site_fract_x
_atom_site_fract_y
_atom_site_fract_z
Si Si1 0.570406 0.811766 0.627988
Si Si2 0.000000 0.500000 0.666302
Si Si3 0.652479 0.679401 0.361789
Si Si4 0.250000 0.750000 0.250000
Si Si5 0.250000 0.750000 0.497361
Si Si6 0.750000 0.960218 0.250000
O O1 0.499489 0.905270 0.625393
O O2 0.479552 0.728497 0.641481
O O3 0.665407 0.807448 0.695900
O O4 0.646675 0.793535 0.554156
O O5 0.129949 0.496365 0.711306
O O6 0.750000 0.750000 0.330589
O O7 0.690332 0.678032 0.447516
O O8 0.679227 0.594884 0.314092
#
# Coordination Sequence:
#
# PCOD9327551 Si02
#       6
#    16   8  16   4   8   8
#     4  11  21  39  60  93 120 157 202 247 306 354
#     4  12  24  36  63  92 131 152 192 264 312 358
#     4  10  21  39  66  84 112 163 208 241 280 367
#     4  10  22  36  60  86 128 160 200 252 286 364
#     4   9  22  38  62  91 116 158 206 249 290 356
#     4  12  24  42  61  95 118 162 206 247 309 360
#
# _framework density 20.182696
#
# number of rings (size 3 to 8) (size 9 to 14) (size 15 to 20)
#    0.800    0.533    2.667    3.600    0.000    2.133 
#    0.000   10.667    0.000    0.000    0.000    0.000 
#    0.000    0.000    0.000    0.000    0.000    0.000 
#
# Total GULP energy -83522.150126 kJ/mol
# GULP energy per Si atom -5568.143342 kJ/mol
# Density = 2.013676 g / cm^3
# Si number density = 20.182696 Si / 1000 Ang^3
#
#
#
# Elastic Constant Matrix: (Units=GPa)
#
#
# Indices 1 2 3 4 5 6 
#
# 1 124.0419 38.9097 44.4322 0.0000 0.0000 0.0000
# 2 38.9097 82.7347 40.2685 0.0000 0.0000 0.0000
# 3 44.4322 40.2685 128.2868 0.0000 0.0000 0.0000
# 4 0.0000 0.0000 0.0000 -3.8725 0.0000 0.0000
# 5 0.0000 0.0000 0.0000 0.0000 41.0643 0.0000
# 6 0.0000 0.0000 0.0000 0.0000 0.0000 25.4201
#
#
#
# Elastic Compliance Matrix: (Units=1/GPa)
#
#
# Indices 1 2 3 4 5 6 
#
# 1 0.010024 -0.003570 -0.002351 0.000000 0.000000 0.000000
# 2 -0.003570 0.015538 -0.003641 0.000000 0.000000 0.000000
# 3 -0.002351 -0.003641 0.009752 0.000000 0.000000 0.000000
# 4 0.000000 0.000000 0.000000 -0.258229 0.000000 0.000000
# 5 0.000000 0.000000 0.000000 0.000000 0.024352 0.000000
# 6 0.000000 0.000000 0.000000 0.000000 0.000000 0.039339
#
#
# Mechanical properties :
#
#
# Convention : Reuss Voigt Hill
#
# Bulk Modulus (GPa) = 61.76598 64.69824 63.23211
# Shear Modulus (GPa) = -37.11833 26.61924 -5.24954
#
# Velocity S-wave (km/s) = -4.29314 3.63563 -1.61451
# Velocity P-wave (km/s) = 2.46882 7.05334 5.28416
#
# Compressibility (1/GPa) = 0.01619014
#
# Stress axis : x y z
#
# Youngs Moduli (GPa) = 99.76285 64.35951 102.54084
#
# Poissons Ratio (x) = 0.22975 0.24110
# Poissons Ratio (y) = 0.35613 0.37333
# Poissons Ratio (z) = 0.23456 0.23432
#
# Static dielectric constant tensor:
#      x y z
#    x 1.718410 0.000000 0.000000 
#    y 0.000000 1.573390 0.000000 
#    z 0.000000 0.000000 1.725120 
# 
# From -- ./inp_files/19321.got.cif
#   From: 2010.05.17/outbox.cif.g08.bks.cpg/sg22_10_cif.got.tgz:19321.got - 2010.06.03 23:40:54.
