data_PCOD9327744
_publ_section_title
;
Structure prediction by ZEFSAII (Michael W. Deem and Ramdas Pophale) SiO2 
 PCOD9327744
Probable space group: F 2 2 2
;
_chemical_formula_sum "Si O2"
_cell_formula_units_Z 100
_cell_length_a 21.360382
_cell_length_b 12.897347
_cell_length_c 15.404463
_cell_angle_alpha 90.000000
_cell_angle_beta 90.000000
_cell_angle_gamma 90.000000
_cell_volume 4243.810306
_symmetry_space_group_name_H-M "F 2 2 2"
_symmetry_group_IT_number 22
_symmetry_cell_setting 'orthorhombic'
loop_
_space_group_symop_operation_xyz
x,y,z
-x,-y,z
x,-y,-z
-x,y,-z
x,1/2+y,1/2+z
-x,1/2-y,1/2+z
x,1/2-y,1/2-z
-x,1/2+y,1/2-z
1/2+x,y,1/2+z
1/2-x,-y,1/2+z
1/2+x,-y,1/2-z
1/2-x,y,1/2-z
1/2+x,1/2+y,z
1/2-x,1/2-y,z
1/2+x,1/2-y,-z
1/2-x,1/2+y,-z
loop_
_atom_site_type_symbol
_atom_site_label
_atom_site_fract_x
_atom_site_fract_y
_atom_site_fract_z
Si Si1 0.682568 0.455670 0.774520
Si Si2 0.846858 0.914697 0.925521
Si Si3 0.947966 0.229989 0.146854
Si Si4 0.187857 0.288155 0.034033
Si Si5 0.587876 0.212110 0.653828
Si Si6 0.159108 0.387413 0.871507
Si Si7 0.750000 0.250000 0.250000
O O1 0.750000 0.407669 0.750000
O O2 0.696253 0.542086 0.848512
O O3 0.631391 0.387677 0.826151
O O4 0.655825 0.509326 0.687116
O O5 0.909027 0.872411 0.878284
O O6 0.821682 0.812181 0.972082
O O7 0.856930 0.000000 0.000000
O O8 0.947682 0.250000 0.250000
O O9 0.908363 0.330305 0.114729
O O10 0.018538 0.209336 0.114202
O O11 0.250000 0.250000 0.082811
O O12 0.130366 0.289311 0.098737
O O13 0.188555 0.384497 0.968281
O O14 0.577306 0.250000 0.750000
O O15 0.202338 0.313368 0.811351
#
# Coordination Sequence:
#
# PCOD9327744 Si02
#       7
#    16  16  16  16  16  16   4
#     4  12  24  42  67 103 138 173 225 288 349 409
#     4  11  22  41  67 110 129 166 222 299 344 398
#     4  10  21  43  66  97 140 181 221 271 351 412
#     4  11  23  41  66  96 136 174 229 285 340 408
#     4  11  28  46  63  93 142 195 227 266 352 435
#     4  11  20  38  73 100 132 170 223 297 343 404
#     4  12  16  36  64 108 136 148 214 292 376 380
#
# _framework density 23.56373
#
# number of rings (size 3 to 8) (size 9 to 14) (size 15 to 20)
#    0.000    0.960    5.600    1.920    2.240    3.200 
#    2.880    0.800    0.000    0.000    0.000    4.480 
#    0.000    0.000    0.000    0.000    0.000    0.000 
#
# Total GULP energy -139534.611308 kJ/mol
# GULP energy per Si atom -5581.384452 kJ/mol
# Density = 2.351010 g / cm^3
# Si number density = 23.563730 Si / 1000 Ang^3
#
#
#
# Elastic Constant Matrix: (Units=GPa)
#
#
# Indices 1 2 3 4 5 6 
#
# 1 154.5550 22.1854 27.6393 0.0000 0.0000 0.0000
# 2 22.1854 88.0428 31.5301 0.0000 0.0000 0.0000
# 3 27.6393 31.5301 103.4670 0.0000 0.0000 0.0000
# 4 0.0000 0.0000 0.0000 48.1279 0.0000 0.0000
# 5 0.0000 0.0000 0.0000 0.0000 24.7601 0.0000
# 6 0.0000 0.0000 0.0000 0.0000 0.0000 19.5205
#
#
#
# Elastic Compliance Matrix: (Units=1/GPa)
#
#
# Indices 1 2 3 4 5 6 
#
# 1 0.006908 -0.001212 -0.001476 0.000000 0.000000 0.000000
# 2 -0.001212 0.012962 -0.003626 0.000000 0.000000 0.000000
# 3 -0.001476 -0.003626 0.011164 0.000000 0.000000 0.000000
# 4 0.000000 0.000000 0.000000 0.020778 0.000000 0.000000
# 5 0.000000 0.000000 0.000000 0.000000 0.040388 0.000000
# 6 0.000000 0.000000 0.000000 0.000000 0.000000 0.051228
#
#
# Mechanical properties :
#
#
# Convention : Reuss Voigt Hill
#
# Bulk Modulus (GPa) = 54.33070 56.53049 55.43060
# Shear Modulus (GPa) = 30.82758 36.12902 33.47830
#
# Velocity S-wave (km/s) = 3.62092 3.91992 3.77338
# Velocity P-wave (km/s) = 6.37090 6.67310 6.52375
#
# Compressibility (1/GPa) = 0.01840580
#
# Stress axis : x y z
#
# Youngs Moduli (GPa) = 144.75680 77.14742 89.57170
#
# Poissons Ratio (x) = 0.09352 0.13221
# Poissons Ratio (y) = 0.17547 0.32481
# Poissons Ratio (z) = 0.21366 0.27975
#
# Static dielectric constant tensor:
#      x y z
#    x 2.016890 0.000000 0.000000 
#    y 0.000000 2.070090 0.000000 
#    z 0.000000 0.000000 1.880950 
# 
# From -- ./inp_files/32465.got.cif
#   From: 2010.05.17/outbox.cif.g08.bks.cpg/sg22_17_cif.got.tgz:32465.got - 2010.06.03 23:40:54.
