data_PCOD9327139
_publ_section_title
;
Structure prediction by ZEFSAII (Michael W. Deem and Ramdas Pophale) SiO2 
 PCOD9327139
Probable space group: F 2 2 2
;
_chemical_formula_sum "Si O2"
_cell_formula_units_Z 104
_cell_length_a 15.942235
_cell_length_b 19.239272
_cell_length_c 14.543222
_cell_angle_alpha 90.000000
_cell_angle_beta 90.000000
_cell_angle_gamma 90.000000
_cell_volume 4460.653356
_symmetry_space_group_name_H-M "F 2 2 2"
_symmetry_group_IT_number 22
_symmetry_cell_setting 'orthorhombic'
loop_
_space_group_symop_operation_xyz
x,y,z
-x,-y,z
x,-y,-z
-x,y,-z
x,1/2+y,1/2+z
-x,1/2-y,1/2+z
x,1/2-y,1/2-z
-x,1/2+y,1/2-z
1/2+x,y,1/2+z
1/2-x,-y,1/2+z
1/2+x,-y,1/2-z
1/2-x,y,1/2-z
1/2+x,1/2+y,z
1/2-x,1/2-y,z
1/2+x,1/2-y,-z
1/2-x,1/2+y,-z
loop_
_atom_site_type_symbol
_atom_site_label
_atom_site_fract_x
_atom_site_fract_y
_atom_site_fract_z
Si Si1 0.451089 0.600302 0.721485
Si Si2 0.545744 0.390497 0.093486
Si Si3 0.106098 0.250000 0.250000
Si Si4 0.750000 0.750000 0.109615
Si Si5 0.927341 0.384126 0.073211
Si Si6 0.304338 0.592702 0.577543
Si Si7 0.845082 0.755995 0.858764
Si Si8 0.163629 0.000000 0.000000
O O1 0.479269 0.588615 0.826725
O O2 0.446778 0.684784 0.717502
O O3 0.529697 0.577523 0.658663
O O4 0.364122 0.580588 0.667862
O O5 0.605800 0.326684 0.121019
O O6 0.500000 0.368461 0.000000
O O7 0.605161 0.453443 0.064397
O O8 0.169483 0.226572 0.170148
O O9 0.718598 0.824856 0.072415
O O10 0.892919 0.310490 0.104150
O O11 0.856483 0.422587 0.015528
O O12 0.000000 0.371860 0.000000
O O13 0.221270 0.547542 0.566361
O O14 0.840118 0.750000 0.750000
O O15 0.750000 0.750000 0.895765
#
# Coordination Sequence:
#
# PCOD9327139 Si02
#       8
#    16  16   8   8  16  16  16   8
#     4  10  21  44  73 106 142 189 243 307 375 448
#     4  12  27  48  73 101 158 203 249 306 383 468
#     4   9  18  36  68 106 141 168 238 300 363 426
#     4   9  20  38  70 104 139 178 238 311 360 430
#     4  10  20  39  68 108 141 179 239 307 379 440
#     4  10  24  45  75 105 145 191 255 312 378 446
#     4  11  22  39  71 110 150 190 244 305 381 448
#     4  12  29  52  69 108 154 204 258 314 379 468
#
# _framework density 23.314971
#
# number of rings (size 3 to 8) (size 9 to 14) (size 15 to 20)
#    0.000    1.538    1.538    2.538    5.385    1.231 
#    0.000    8.077    1.692    0.000    0.000    0.000 
#    0.000    0.000    0.000    0.000    0.000    0.000 
#
# Total GULP energy -145304.146710 kJ/mol
# GULP energy per Si atom -5588.621027 kJ/mol
# Density = 2.326190 g / cm^3
# Si number density = 23.314971 Si / 1000 Ang^3
#
#
#
# Elastic Constant Matrix: (Units=GPa)
#
#
# Indices 1 2 3 4 5 6 
#
# 1 116.0788 50.7668 56.9042 0.0000 0.0000 0.0000
# 2 50.7668 110.2204 36.3473 0.0000 0.0000 0.0000
# 3 56.9042 36.3473 132.1550 0.0000 0.0000 0.0000
# 4 0.0000 0.0000 0.0000 -14.2596 0.0000 0.0000
# 5 0.0000 0.0000 0.0000 0.0000-1118.9852 0.0000
# 6 0.0000 0.0000 0.0000 0.0000 0.0000 52.3490
#
#
#
# Elastic Compliance Matrix: (Units=1/GPa)
#
#
# Indices 1 2 3 4 5 6 
#
# 1 0.012615 -0.004420 -0.004216 0.000000 0.000000 0.000000
# 2 -0.004420 0.011526 -0.001267 0.000000 0.000000 0.000000
# 3 -0.004216 -0.001267 0.009731 0.000000 0.000000 0.000000
# 4 0.000000 0.000000 0.000000 -0.070128 0.000000 0.000000
# 5 0.000000 0.000000 0.000000 0.000000 -0.000894 0.000000
# 6 0.000000 0.000000 0.000000 0.000000 0.000000 0.019103
#
#
# Mechanical properties :
#
#
# Convention : Reuss Voigt Hill
#
# Bulk Modulus (GPa) = 71.09460 71.83233 71.46346
# Shear Modulus (GPa) = 775.53353 -201.88344 286.82504
#
# Velocity S-wave (km/s) = 18.25802 -9.31545 11.10355
# Velocity P-wave (km/s) = 21.79526 9.21016 13.96793
#
# Compressibility (1/GPa) = 0.01406577
#
# Stress axis : x y z
#
# Youngs Moduli (GPa) = 79.27270 86.75790 102.76723
#
# Poissons Ratio (x) = 0.38346 0.43328
# Poissons Ratio (y) = 0.35038 0.13021
# Poissons Ratio (z) = 0.33422 0.10992
#
# Static dielectric constant tensor:
#      x y z
#    x 1.923650 0.000000 0.000000 
#    y 0.000000 1.860810 0.000000 
#    z 0.000000 0.000000 1.968230 
# 
# From -- ./inp_files/30819.got.cif
#   From: 2010.05.17/outbox.cif.g08.bks.cpg/sg22_16_cif.got.tgz:30819.got - 2010.06.03 23:40:54.
