data_PCOD9327635
_publ_section_title
;
Structure prediction by ZEFSAII (Michael W. Deem and Ramdas Pophale) SiO2 
 PCOD9327635
Probable space group: F 2 2 2
;
_chemical_formula_sum "Si O2"
_cell_formula_units_Z 44
_cell_length_a 19.775021
_cell_length_b 9.341785
_cell_length_c 9.775640
_cell_angle_alpha 90.000000
_cell_angle_beta 90.000000
_cell_angle_gamma 90.000000
_cell_volume 1805.893027
_symmetry_space_group_name_H-M "F 2 2 2"
_symmetry_group_IT_number 22
_symmetry_cell_setting 'orthorhombic'
loop_
_space_group_symop_operation_xyz
x,y,z
-x,-y,z
x,-y,-z
-x,y,-z
x,1/2+y,1/2+z
-x,1/2-y,1/2+z
x,1/2-y,1/2-z
-x,1/2+y,1/2-z
1/2+x,y,1/2+z
1/2-x,-y,1/2+z
1/2+x,-y,1/2-z
1/2-x,y,1/2-z
1/2+x,1/2+y,z
1/2-x,1/2-y,z
1/2+x,1/2-y,-z
1/2-x,1/2+y,-z
loop_
_atom_site_type_symbol
_atom_site_label
_atom_site_fract_x
_atom_site_fract_y
_atom_site_fract_z
Si Si1 0.638457 0.250000 0.750000
Si Si2 0.694105 0.546184 0.650059
Si Si3 0.570376 0.767298 0.961382
Si Si4 0.000000 0.000000 0.000000
O O1 0.675807 0.397919 0.723103
O O2 0.598922 0.270457 0.889938
O O3 0.721163 0.500000 0.500000
O O4 0.750000 0.609896 0.750000
O O5 0.627643 0.356019 0.381916
O O6 0.500000 0.845262 0.000000
O O7 0.544964 0.610768 0.909278
#
# Coordination Sequence:
#
# PCOD9327635 Si02
#       4
#     8  16  16   4
#     4  10  21  40  74 102 153 198 266 320 394 470
#     4  10  22  44  77 108 155 211 257 318 401 483
#     4   9  21  43  74 110 146 201 262 330 398 459
#     4   8  20  44  66 112 162 184 268 352 394 438
#
# _framework density 24.364677
#
# number of rings (size 3 to 8) (size 9 to 14) (size 15 to 20)
#    1.091    1.455    0.000    0.545    0.000    9.455 
#    3.273    0.000   48.000    2.182    0.000    0.000 
#    0.000    0.000    0.000    0.000    0.000    0.000 
#
# Total GULP energy -61298.750363 kJ/mol
# GULP energy per Si atom -5572.613669 kJ/mol
# Density = 2.430922 g / cm^3
# Si number density = 24.364677 Si / 1000 Ang^3
#
#
#
# Elastic Constant Matrix: (Units=GPa)
#
#
# Indices 1 2 3 4 5 6 
#
# 1 181.4888 99.6328 107.0077 0.0000 0.0000 0.0000
# 2 99.6328 213.6871 66.9842 0.0000 0.0000 0.0000
# 3 107.0077 66.9842 149.6884 0.0000 0.0000 0.0000
# 4 0.0000 0.0000 0.0000 10.8559 0.0000 0.0000
# 5 0.0000 0.0000 0.0000 0.0000 14.4640 0.0000
# 6 0.0000 0.0000 0.0000 0.0000 0.0000 4.0774
#
#
#
# Elastic Compliance Matrix: (Units=1/GPa)
#
#
# Indices 1 2 3 4 5 6 
#
# 1 0.011060 -0.003115 -0.006512 0.000000 0.000000 0.000000
# 2 -0.003115 0.006321 -0.000601 0.000000 0.000000 0.000000
# 3 -0.006512 -0.000601 0.011605 0.000000 0.000000 0.000000
# 4 0.000000 0.000000 0.000000 0.092116 0.000000 0.000000
# 5 0.000000 0.000000 0.000000 0.000000 0.069137 0.000000
# 6 0.000000 0.000000 0.000000 0.000000 0.000000 0.245253
#
#
# Mechanical properties :
#
#
# Convention : Reuss Voigt Hill
#
# Bulk Modulus (GPa) = 117.26524 121.34598 119.30561
# Shear Modulus (GPa) = 10.89818 23.96212 17.43015
#
# Velocity S-wave (km/s) = 2.11723 3.13945 2.67757
# Velocity P-wave (km/s) = 7.36278 7.94063 7.65716
#
# Compressibility (1/GPa) = 0.00852768
#
# Stress axis : x y z
#
# Youngs Moduli (GPa) = 90.41607 158.20722 86.16859
#
# Poissons Ratio (x) = 0.49287 0.56116
# Poissons Ratio (y) = 0.28168 0.05183
# Poissons Ratio (z) = 0.58882 0.09515
#
# Static dielectric constant tensor:
#      x y z
#    x 2.168320 0.000000 0.000000 
#    y 0.000000 2.044110 0.000000 
#    z 0.000000 0.000000 1.601140 
# 
# From -- ./inp_files/23331.got.cif
#   From: 2010.05.17/outbox.cif.g08.bks.cpg/sg22_12_cif.got.tgz:23331.got - 2010.06.03 23:40:54.
