data_PCOD9327126
_publ_section_title
;
Structure prediction by ZEFSAII (Michael W. Deem and Ramdas Pophale) SiO2 
 PCOD9327126
Probable space group: F 2 2 2
;
_chemical_formula_sum "Si O2"
_cell_formula_units_Z 92
_cell_length_a 24.455574
_cell_length_b 10.624700
_cell_length_c 17.458478
_cell_angle_alpha 90.000000
_cell_angle_beta 90.000000
_cell_angle_gamma 90.000000
_cell_volume 4536.291107
_symmetry_space_group_name_H-M "F 2 2 2"
_symmetry_group_IT_number 22
_symmetry_cell_setting 'orthorhombic'
loop_
_space_group_symop_operation_xyz
x,y,z
-x,-y,z
x,-y,-z
-x,y,-z
x,1/2+y,1/2+z
-x,1/2-y,1/2+z
x,1/2-y,1/2-z
-x,1/2+y,1/2-z
1/2+x,y,1/2+z
1/2-x,-y,1/2+z
1/2+x,-y,1/2-z
1/2-x,y,1/2-z
1/2+x,1/2+y,z
1/2-x,1/2-y,z
1/2+x,1/2-y,-z
1/2-x,1/2+y,-z
loop_
_atom_site_type_symbol
_atom_site_label
_atom_site_fract_x
_atom_site_fract_y
_atom_site_fract_z
Si Si1 0.415197 0.838996 0.401818
Si Si2 0.223851 0.009509 0.665378
Si Si3 0.000000 0.000000 0.000000
Si Si4 0.500000 0.000000 0.837957
Si Si5 0.700983 0.380712 0.049408
Si Si6 0.250000 0.250000 0.420957
Si Si7 0.532265 0.750000 0.750000
Si Si8 0.112174 0.052713 0.582109
O O1 0.357729 0.906578 0.414563
O O2 0.431834 0.818809 0.314353
O O3 0.403471 0.698097 0.429982
O O4 0.461919 0.912032 0.447431
O O5 0.250000 0.014072 0.750000
O O6 0.237736 0.870794 0.631019
O O7 0.255325 0.116237 0.616793
O O8 0.159836 0.034691 0.645999
O O9 0.501753 0.868400 0.790017
O O10 0.555320 0.006182 0.887903
O O11 0.718257 0.500000 0.000000
O O12 0.702006 0.273850 0.984007
O O13 0.130157 0.000000 0.500000
#
# Coordination Sequence:
#
# PCOD9327126 Si02
#       8
#    16  16   4   8  16   8   8  16
#     4  11  24  42  69  97 136 176 231 287 348 420
#     4  11  24  41  67 101 137 175 229 286 351 412
#     4  12  26  44  70 106 132 182 244 296 342 428
#     4  10  24  44  68  96 136 188 236 290 362 420
#     4  10  20  39  65  91 127 176 220 275 336 407
#     4  10  21  44  63  96 138 178 228 282 335 416
#     4  10  24  44  62  97 143 174 230 294 350 432
#     4  11  24  44  70 101 139 183 236 287 353 438
#
# _framework density 20.280885999999999
#
# number of rings (size 3 to 8) (size 9 to 14) (size 15 to 20)
#    0.000    1.391    0.870    4.696    9.739    0.000 
#    3.130    0.870    0.000    0.000    0.000    0.000 
#    0.000    0.000    0.000    0.000    0.000    0.000 
#
# Total GULP energy -128186.046161 kJ/mol
# GULP energy per Si atom -5573.306355 kJ/mol
# Density = 2.023473 g / cm^3
# Si number density = 20.280886 Si / 1000 Ang^3
#
#
#
# Elastic Constant Matrix: (Units=GPa)
#
#
# Indices 1 2 3 4 5 6 
#
# 1 145.0257 20.0813 62.3055 0.0000 0.0000 0.0000
# 2 20.0813 97.1647 50.9932 0.0000 0.0000 0.0000
# 3 62.3055 50.9932 146.3602 0.0000 0.0000 0.0000
# 4 0.0000 0.0000 0.0000 18.1421 0.0000 0.0000
# 5 0.0000 0.0000 0.0000 0.0000 35.3627 0.0000
# 6 0.0000 0.0000 0.0000 0.0000 0.0000 18.0707
#
#
#
# Elastic Compliance Matrix: (Units=1/GPa)
#
#
# Indices 1 2 3 4 5 6 
#
# 1 0.008441 0.000173 -0.003654 0.000000 0.000000 0.000000
# 2 0.000173 0.012598 -0.004463 0.000000 0.000000 0.000000
# 3 -0.003654 -0.004463 0.009943 0.000000 0.000000 0.000000
# 4 0.000000 0.000000 0.000000 0.055120 0.000000 0.000000
# 5 0.000000 0.000000 0.000000 0.000000 0.028278 0.000000
# 6 0.000000 0.000000 0.000000 0.000000 0.000000 0.055338
#
#
# Mechanical properties :
#
#
# Convention : Reuss Voigt Hill
#
# Bulk Modulus (GPa) = 66.24810 72.81227 69.53019
# Shear Modulus (GPa) = 26.22773 31.32647 28.77710
#
# Velocity S-wave (km/s) = 3.60004 3.93444 3.77095
# Velocity P-wave (km/s) = 7.07224 7.52460 7.30193
#
# Compressibility (1/GPa) = 0.01509477
#
# Stress axis : x y z
#
# Youngs Moduli (GPa) = 118.46900 79.37586 100.57606
#
# Poissons Ratio (x) = -0.01373 0.36746
# Poissons Ratio (y) = -0.02049 0.44887
# Poissons Ratio (z) = 0.43284 0.35425
#
# Static dielectric constant tensor:
#      x y z
#    x 1.750630 0.000000 0.000000 
#    y 0.000000 1.732150 0.000000 
#    z 0.000000 0.000000 1.729420 
# 
# From -- ./inp_files/38851.got.cif
#   From: 2010.05.17/outbox.cif.g08.bks.cpg/sg22_20_cif.got.tgz:38851.got - 2010.06.03 23:40:54.
