data_PCOD9327501
_publ_section_title
;
Structure prediction by ZEFSAII (Michael W. Deem and Ramdas Pophale) SiO2 
 PCOD9327501
Probable space group: F 2 2 2
;
_chemical_formula_sum "Si O2"
_cell_formula_units_Z 68
_cell_length_a 28.163364
_cell_length_b 21.949821
_cell_length_c 4.918832
_cell_angle_alpha 90.000000
_cell_angle_beta 90.000000
_cell_angle_gamma 90.000000
_cell_volume 3040.727494
_symmetry_space_group_name_H-M "F 2 2 2"
_symmetry_group_IT_number 22
_symmetry_cell_setting 'orthorhombic'
loop_
_space_group_symop_operation_xyz
x,y,z
-x,-y,z
x,-y,-z
-x,y,-z
x,1/2+y,1/2+z
-x,1/2-y,1/2+z
x,1/2-y,1/2-z
-x,1/2+y,1/2-z
1/2+x,y,1/2+z
1/2-x,-y,1/2+z
1/2+x,-y,1/2-z
1/2-x,y,1/2-z
1/2+x,1/2+y,z
1/2-x,1/2-y,z
1/2+x,1/2-y,-z
1/2-x,1/2+y,-z
loop_
_atom_site_type_symbol
_atom_site_label
_atom_site_fract_x
_atom_site_fract_y
_atom_site_fract_z
Si Si1 0.890265 0.910652 0.855613
Si Si2 0.750000 0.750000 0.750000
Si Si3 0.313792 0.500000 0.000000
Si Si4 0.825438 0.687050 0.359404
Si Si5 0.948571 0.430769 0.887409
Si Si6 0.250000 0.397175 0.250000
O O1 0.910885 0.893638 0.565079
O O2 0.862653 0.855479 0.993287
O O3 0.932525 0.927803 0.072619
O O4 0.852551 0.965837 0.809917
O O5 0.784691 0.709764 0.565417
O O6 0.278490 0.444592 0.063434
O O7 0.846316 0.750000 0.250000
O O8 0.793968 0.645375 0.153249
O O9 0.944665 0.500000 0.000000
O O10 0.000000 0.410664 0.000000
#
# Coordination Sequence:
#
# PCOD9327501 Si02
#       6
#    16   4   8  16  16   8
#     4  11  24  40  65  99 134 169 218 272 325 400
#     4  12  22  42  64  90 122 176 238 264 316 348
#     4  10  22  34  57  92 134 174 209 260 330 384
#     4  11  24  42  63  94 128 178 234 270 314 376
#     4  11  22  42  68  99 133 167 210 266 343 413
#     4  10  21  39  54  86 136 170 214 266 314 382
#
# _framework density 22.36307
#
# number of rings (size 3 to 8) (size 9 to 14) (size 15 to 20)
#    0.000    1.176    4.706    0.706    3.294    9.412 
#    0.000    0.000    0.000    2.824    0.000    0.000 
#    0.000    0.000    0.000    0.000    0.000    0.000 
#
# Total GULP energy -94740.981023 kJ/mol
# GULP energy per Si atom -5572.998884 kJ/mol
# Density = 2.231217 g / cm^3
# Si number density = 22.363070 Si / 1000 Ang^3
#
#
#
# Elastic Constant Matrix: (Units=GPa)
#
#
# Indices 1 2 3 4 5 6 
#
# 1 92.2696 16.3485 14.8491 -0.0208 -0.0157 -0.0077
# 2 16.3485 100.7323 -0.6145 0.1613 -0.0164 -0.0564
# 3 14.8491 -0.6145 77.1242 0.1974 -0.0380 -0.0161
# 4 -0.0208 0.1613 0.1974 19.8240 -0.0147 -0.0288
# 5 -0.0157 -0.0164 -0.0380 -0.0147 16.9036 -0.0032
# 6 -0.0077 -0.0564 -0.0161 -0.0288 -0.0032 20.2619
#
#
#
# Elastic Compliance Matrix: (Units=1/GPa)
#
#
# Indices 1 2 3 4 5 6 
#
# 1 0.011532 -0.001885 -0.002235 0.000050 0.000004 -0.000003
# 2 -0.001885 0.010236 0.000445 -0.000090 0.000009 0.000028
# 3 -0.002235 0.000445 0.013400 -0.000139 0.000028 0.000011
# 4 0.000050 -0.000090 -0.000139 0.050446 0.000044 0.000071
# 5 0.000004 0.000009 0.000028 0.000044 0.059159 0.000010
# 6 -0.000003 0.000028 0.000011 0.000071 0.000010 0.049354
#
#
# Mechanical properties :
#
#
# Convention : Reuss Voigt Hill
#
# Bulk Modulus (GPa) = 35.94994 36.81022 36.38008
# Shear Modulus (GPa) = 23.72463 27.36742 25.54603
#
# Velocity S-wave (km/s) = 3.26066 3.50205 3.38351
# Velocity P-wave (km/s) = 5.50330 5.73136 5.61849
#
# Compressibility (1/GPa) = 0.02781646
#
# Stress axis : x y z
#
# Youngs Moduli (GPa) = 86.71830 97.69298 74.62458
#
# Poissons Ratio (x) = 0.18418 0.16681
# Poissons Ratio (y) = 0.16349 -0.03319
# Poissons Ratio (z) = 0.19385 -0.04345
#
# Static dielectric constant tensor:
#      x y z
#    x 1.854380 0.000020 0.000020 
#    y 0.000020 1.912530 -0.000100 
#    z 0.000020 -0.000100 1.905220 
# 
# From -- ./inp_files/5417.got.cif
#   From: 2010.05.17/outbox.cif.g08.bks.cpg/sg22_3_cif.got.tgz:5417.got - 2010.06.03 23:40:54.
