data_PCOD9327595
_publ_section_title
;
Structure prediction by ZEFSAII (Michael W. Deem and Ramdas Pophale) SiO2 
 PCOD9327595
Probable space group: F 2 2 2
;
_chemical_formula_sum "Si O2"
_cell_formula_units_Z 112
_cell_length_a 13.903445
_cell_length_b 14.052048
_cell_length_c 26.849917
_cell_angle_alpha 90.000000
_cell_angle_beta 90.000000
_cell_angle_gamma 90.000000
_cell_volume 5245.718668
_symmetry_space_group_name_H-M "F 2 2 2"
_symmetry_group_IT_number 22
_symmetry_cell_setting 'orthorhombic'
loop_
_space_group_symop_operation_xyz
x,y,z
-x,-y,z
x,-y,-z
-x,y,-z
x,1/2+y,1/2+z
-x,1/2-y,1/2+z
x,1/2-y,1/2-z
-x,1/2+y,1/2-z
1/2+x,y,1/2+z
1/2-x,-y,1/2+z
1/2+x,-y,1/2-z
1/2-x,y,1/2-z
1/2+x,1/2+y,z
1/2-x,1/2-y,z
1/2+x,1/2-y,-z
1/2-x,1/2+y,-z
loop_
_atom_site_type_symbol
_atom_site_label
_atom_site_fract_x
_atom_site_fract_y
_atom_site_fract_z
Si Si1 0.346501 0.693987 0.940032
Si Si2 0.104065 0.008307 0.126166
Si Si3 0.084502 0.768251 0.307872
Si Si4 0.522112 0.844026 0.099823
Si Si5 0.262516 0.403663 0.807149
Si Si6 0.845958 0.080579 0.035683
Si Si7 0.629901 0.521092 0.557596
O O1 0.250000 0.750000 0.923763
O O2 0.371574 0.603525 0.905121
O O3 0.434739 0.764605 0.935460
O O4 0.333496 0.665922 0.997840
O O5 0.194778 0.988996 0.161198
O O6 0.095209 0.921178 0.086013
O O7 0.000000 0.000000 0.152632
O O8 0.053356 0.750000 0.250000
O O9 0.159658 0.855312 0.316824
O O10 0.155149 0.677379 0.315307
O O11 0.000121 0.794627 0.346756
O O12 0.424834 0.887281 0.077698
O O13 0.596398 0.933570 0.092940
O O14 0.250000 0.431318 0.750000
O O15 0.742121 0.043190 0.053970
O O16 0.889341 0.000000 0.000000
O O17 0.602914 0.500000 0.500000
#
# Coordination Sequence:
#
# PCOD9327595 Si02
#       7
#    16  16  16  16  16  16  16
#     4  11  24  41  60  87 132 178 212 263 322 395
#     4  11  22  40  63  91 132 165 215 267 320 398
#     4   9  19  37  65  98 124 157 216 287 328 387
#     4  11  20  36  65  93 127 165 218 274 331 376
#     4   9  19  40  67  91 126 167 211 268 338 389
#     4   9  20  40  57  82 129 170 206 251 315 380
#     4  10  21  40  63  93 137 169 217 274 316 404
#
# _framework density 21.350745
#
# number of rings (size 3 to 8) (size 9 to 14) (size 15 to 20)
#    0.000    2.000    0.000    6.000    0.000    3.714 
#   20.571    0.000   44.000    0.000    0.000    0.000 
#    0.000    0.000    0.000    0.000    0.000    0.000 
#
# Total GULP energy -155998.793809 kJ/mol
# GULP energy per Si atom -5571.385493 kJ/mol
# Density = 2.130215 g / cm^3
# Si number density = 21.350745 Si / 1000 Ang^3
#
#
#
# Elastic Constant Matrix: (Units=GPa)
#
#
# Indices 1 2 3 4 5 6 
#
# 1 82.5094 33.5110 47.4798 0.0000 0.0000 0.0000
# 2 33.5110 75.6968 42.4523 0.0000 0.0000 0.0000
# 3 47.4798 42.4523 108.2980 0.0000 0.0000 0.0000
# 4 0.0000 0.0000 0.0000 25.9293 0.0000 0.0000
# 5 0.0000 0.0000 0.0000 0.0000 33.8056 0.0000
# 6 0.0000 0.0000 0.0000 0.0000 0.0000 24.8965
#
#
#
# Elastic Compliance Matrix: (Units=1/GPa)
#
#
# Indices 1 2 3 4 5 6 
#
# 1 0.017261 -0.004355 -0.005860 0.000000 0.000000 0.000000
# 2 -0.004355 0.018032 -0.005159 0.000000 0.000000 0.000000
# 3 -0.005860 -0.005159 0.013825 0.000000 0.000000 0.000000
# 4 0.000000 0.000000 0.000000 0.038566 0.000000 0.000000
# 5 0.000000 0.000000 0.000000 0.000000 0.029581 0.000000
# 6 0.000000 0.000000 0.000000 0.000000 0.000000 0.040166
#
#
# Mechanical properties :
#
#
# Convention : Reuss Voigt Hill
#
# Bulk Modulus (GPa) = 54.43827 57.04337 55.74082
# Shear Modulus (GPa) = 25.73291 26.46368 26.09829
#
# Velocity S-wave (km/s) = 3.47543 3.52443 3.50002
# Velocity P-wave (km/s) = 6.45425 6.58312 6.51900
#
# Compressibility (1/GPa) = 0.01836943
#
# Stress axis : x y z
#
# Youngs Moduli (GPa) = 57.93447 55.45752 72.33029
#
# Poissons Ratio (x) = 0.24150 0.42389
# Poissons Ratio (y) = 0.25229 0.37316
# Poissons Ratio (z) = 0.33952 0.28612
#
# Static dielectric constant tensor:
#      x y z
#    x 1.832370 0.000000 0.000000 
#    y 0.000000 1.849990 0.000000 
#    z 0.000000 0.000000 1.811050 
# 
# From -- ./inp_files/48950.got.cif
#   From: 2010.05.17/outbox.cif.g08.bks.cpg/sg22_25_cif.got.tgz:48950.got - 2010.06.03 23:40:54.
