data_PCOD9327481
_publ_section_title
;
Structure prediction by ZEFSAII (Michael W. Deem and Ramdas Pophale) SiO2 
 PCOD9327481
Probable space group: F 2 2 2
;
_chemical_formula_sum "Si O2"
_cell_formula_units_Z 96
_cell_length_a 25.657419
_cell_length_b 14.265256
_cell_length_c 13.549218
_cell_angle_alpha 90.000000
_cell_angle_beta 90.000000
_cell_angle_gamma 90.000000
_cell_volume 4959.144542
_symmetry_space_group_name_H-M "F 2 2 2"
_symmetry_group_IT_number 22
_symmetry_cell_setting 'orthorhombic'
loop_
_space_group_symop_operation_xyz
x,y,z
-x,-y,z
x,-y,-z
-x,y,-z
x,1/2+y,1/2+z
-x,1/2-y,1/2+z
x,1/2-y,1/2-z
-x,1/2+y,1/2-z
1/2+x,y,1/2+z
1/2-x,-y,1/2+z
1/2+x,-y,1/2-z
1/2-x,y,1/2-z
1/2+x,1/2+y,z
1/2-x,1/2-y,z
1/2+x,1/2-y,-z
1/2-x,1/2+y,-z
loop_
_atom_site_type_symbol
_atom_site_label
_atom_site_fract_x
_atom_site_fract_y
_atom_site_fract_z
Si Si1 0.201296 0.641063 0.822042
Si Si2 0.644196 0.548386 0.697989
Si Si3 0.382375 0.500000 0.000000
Si Si4 0.056082 0.949858 0.803044
Si Si5 0.687044 0.856202 0.616549
Si Si6 0.105000 0.250000 0.250000
Si Si7 0.797071 0.143901 0.450162
O O1 0.250000 0.661474 0.750000
O O2 0.179377 0.542832 0.783156
O O3 0.149738 0.708880 0.824827
O O4 0.217894 0.635206 0.935837
O O5 0.587244 0.512014 0.722952
O O6 0.662033 0.627172 0.776335
O O7 0.654927 0.582683 0.587858
O O8 0.416842 0.465700 0.091141
O O9 0.346234 0.582451 0.041093
O O10 0.068672 0.839502 0.778709
O O11 0.000000 0.000000 0.807870
O O12 0.747045 0.888403 0.613076
O O13 0.689912 0.750084 0.579196
#
# Coordination Sequence:
#
# PCOD9327481 Si02
#       7
#    16  16   8  16  16   8  16
#     4  11  23  34  61  92 127 168 202 251 316 392
#     4  10  22  38  57  85 126 165 212 255 307 379
#     4  10  21  38  64  92 126 154 221 270 322 378
#     4  10  22  43  65  90 121 166 217 279 328 367
#     4  10  22  34  56  87 127 167 197 252 304 384
#     4  10  23  40  62  90 128 150 215 268 322 380
#     4  11  22  35  56  89 129 167 205 240 310 386
#
# _framework density 19.358176
#
# number of rings (size 3 to 8) (size 9 to 14) (size 15 to 20)
#    0.000    1.667    0.000    4.000   14.000    1.333 
#    6.000    0.000    0.000    7.000    0.000    0.000 
#    0.000    0.000    0.000    0.000    0.000    0.000 
#
# Total GULP energy -133761.525973 kJ/mol
# GULP energy per Si atom -5573.396916 kJ/mol
# Density = 1.931412 g / cm^3
# Si number density = 19.358176 Si / 1000 Ang^3
#
#
#
# Elastic Constant Matrix: (Units=GPa)
#
#
# Indices 1 2 3 4 5 6 
#
# 1 112.6620 77.6301 35.1615 0.0000 0.0000 0.0000
# 2 77.6301 89.0159 39.6292 0.0000 0.0000 0.0000
# 3 35.1615 39.6292 79.4194 0.0000 0.0000 0.0000
# 4 0.0000 0.0000 0.0000 21.1510 0.0000 0.0000
# 5 0.0000 0.0000 0.0000 0.0000 18.4498 0.0000
# 6 0.0000 0.0000 0.0000 0.0000 0.0000-1284.1380
#
#
#
# Elastic Compliance Matrix: (Units=1/GPa)
#
#
# Indices 1 2 3 4 5 6 
#
# 1 0.022244 -0.019303 -0.000216 0.000000 0.000000 0.000000
# 2 -0.019303 0.031192 -0.007019 0.000000 0.000000 0.000000
# 3 -0.000216 -0.007019 0.016189 0.000000 0.000000 0.000000
# 4 0.000000 0.000000 0.000000 0.047279 0.000000 0.000000
# 5 0.000000 0.000000 0.000000 0.000000 0.054201 0.000000
# 6 0.000000 0.000000 0.000000 0.000000 0.000000 -0.000779
#
#
# Mechanical properties :
#
#
# Convention : Reuss Voigt Hill
#
# Bulk Modulus (GPa) = 60.42137 65.10433 62.76285
# Shear Modulus (GPa) = 21.84170 -240.32901 -109.24365
#
# Velocity S-wave (km/s) = 3.36265 -11.15429 -7.52033
# Velocity P-wave (km/s) = 6.80857 11.49723 6.55094
#
# Compressibility (1/GPa) = 0.01655044
#
# Stress axis : x y z
#
# Youngs Moduli (GPa) = 44.95542 32.05913 61.76872
#
# Poissons Ratio (x) = 0.61883 0.01337
# Poissons Ratio (y) = 0.86776 0.43353
# Poissons Ratio (z) = 0.00973 0.22501
#
# Static dielectric constant tensor:
#      x y z
#    x 1.678580 0.000000 0.000000 
#    y 0.000000 1.738830 0.000000 
#    z 0.000000 0.000000 6.112480 
# 
# From -- ./inp_files/32475.got.cif
#   From: 2010.05.17/outbox.cif.g08.bks.cpg/sg22_17_cif.got.tgz:32475.got - 2010.06.03 23:40:54.
