data_PCOD9327277
_publ_section_title
;
Structure prediction by ZEFSAII (Michael W. Deem and Ramdas Pophale) SiO2 
 PCOD9327277
Probable space group: F 2 2 2
;
_chemical_formula_sum "Si O2"
_cell_formula_units_Z 72
_cell_length_a 7.633213
_cell_length_b 24.231135
_cell_length_c 16.498138
_cell_angle_alpha 90.000000
_cell_angle_beta 90.000000
_cell_angle_gamma 90.000000
_cell_volume 3051.518944
_symmetry_space_group_name_H-M "F 2 2 2"
_symmetry_group_IT_number 22
_symmetry_cell_setting 'orthorhombic'
loop_
_space_group_symop_operation_xyz
x,y,z
-x,-y,z
x,-y,-z
-x,y,-z
x,1/2+y,1/2+z
-x,1/2-y,1/2+z
x,1/2-y,1/2-z
-x,1/2+y,1/2-z
1/2+x,y,1/2+z
1/2-x,-y,1/2+z
1/2+x,-y,1/2-z
1/2-x,y,1/2-z
1/2+x,1/2+y,z
1/2-x,1/2-y,z
1/2+x,1/2-y,-z
1/2-x,1/2+y,-z
loop_
_atom_site_type_symbol
_atom_site_label
_atom_site_fract_x
_atom_site_fract_y
_atom_site_fract_z
Si Si1 0.000000 0.500000 0.500000
Si Si2 0.750000 0.750000 0.046848
Si Si3 0.911898 0.317117 0.814005
Si Si4 0.097714 0.919805 0.132351
Si Si5 0.485489 0.064360 0.810444
Si Si6 0.000000 0.336948 0.500000
Si Si7 0.750000 0.250000 0.250000
O O1 0.112687 0.464253 0.560895
O O2 0.883337 0.720071 0.107102
O O3 0.665542 0.702361 0.995147
O O4 0.750000 0.309095 0.750000
O O5 0.903500 0.382310 0.837098
O O6 0.100429 0.294893 0.781426
O O7 0.293151 0.914773 0.164477
O O8 0.992005 0.936608 0.212508
O O9 0.004575 0.870816 0.083456
O O10 0.500000 0.000000 0.837247
#
# Coordination Sequence:
#
# PCOD9327277 Si02
#       7
#     4   8  16  16  16   8   4
#     4  10  20  44  70  92 164 190 250 298 398 452
#     4  12  27  47  72 105 151 208 258 318 390 468
#     4  12  26  46  77 113 151 197 251 330 388 454
#     4  10  23  44  69 110 141 208 244 314 384 463
#     4  11  25  43  76 112 150 192 268 316 377 462
#     4  11  28  47  70 102 157 202 255 312 398 462
#     4  12  22  46  76 110 150 188 258 312 400 436
#
# _framework density 23.594805000000001
#
# number of rings (size 3 to 8) (size 9 to 14) (size 15 to 20)
#    0.000    0.889    3.333    2.667    9.333    3.556 
#    0.000    2.778    0.000    0.000    0.000    0.000 
#    0.000    0.000    0.000    0.000    0.000    0.000 
#
# Total GULP energy -100298.413912 kJ/mol
# GULP energy per Si atom -5572.134106 kJ/mol
# Density = 2.354110 g / cm^3
# Si number density = 23.594805 Si / 1000 Ang^3
#
#
#
# Elastic Constant Matrix: (Units=GPa)
#
#
# Indices 1 2 3 4 5 6 
#
# 1 88.2146 24.9591 7.9590 0.0000 0.0000 0.0000
# 2 24.9591 161.7197 17.8564 0.0000 0.0000 0.0000
# 3 7.9590 17.8564 68.0513 0.0000 0.0000 0.0000
# 4 0.0000 0.0000 0.0000 9.0216 0.0000 0.0000
# 5 0.0000 0.0000 0.0000 0.0000 28.0633 0.0000
# 6 0.0000 0.0000 0.0000 0.0000 0.0000 37.2980
#
#
#
# Elastic Compliance Matrix: (Units=1/GPa)
#
#
# Indices 1 2 3 4 5 6 
#
# 1 0.011911 -0.001735 -0.000938 0.000000 0.000000 0.000000
# 2 -0.001735 0.006621 -0.001534 0.000000 0.000000 0.000000
# 3 -0.000938 -0.001534 0.015207 0.000000 0.000000 0.000000
# 4 0.000000 0.000000 0.000000 0.110845 0.000000 0.000000
# 5 0.000000 0.000000 0.000000 0.000000 0.035634 0.000000
# 6 0.000000 0.000000 0.000000 0.000000 0.000000 0.026811
#
#
# Mechanical properties :
#
#
# Convention : Reuss Voigt Hill
#
# Bulk Modulus (GPa) = 39.48648 46.61497 43.05073
# Shear Modulus (GPa) = 22.33290 32.69067 27.51179
#
# Velocity S-wave (km/s) = 3.07989 3.72627 3.41839
# Velocity P-wave (km/s) = 5.42395 6.18974 5.81945
#
# Compressibility (1/GPa) = 0.02532512
#
# Stress axis : x y z
#
# Youngs Moduli (GPa) = 83.95288 151.04151 65.75880
#
# Poissons Ratio (x) = 0.26203 0.06168
# Poissons Ratio (y) = 0.14564 0.10090
# Poissons Ratio (z) = 0.07874 0.23175
#
# Static dielectric constant tensor:
#      x y z
#    x 1.925220 0.000000 0.000000 
#    y 0.000000 2.018500 0.000000 
#    z 0.000000 0.000000 1.726590 
# 
# From -- ./inp_files/27093.got.cif
#   From: 2010.05.17/outbox.cif.g08.bks.cpg/sg22_14_cif.got.tgz:27093.got - 2010.06.03 23:40:54.
