data_PCOD9327384
_publ_section_title
;
Structure prediction by ZEFSAII (Michael W. Deem and Ramdas Pophale) SiO2 
 PCOD9327384
Probable space group: F 2 2 2
;
_chemical_formula_sum "Si O2"
_cell_formula_units_Z 80
_cell_length_a 29.338032
_cell_length_b 15.633870
_cell_length_c 8.277383
_cell_angle_alpha 90.000000
_cell_angle_beta 90.000000
_cell_angle_gamma 90.000000
_cell_volume 3796.562249
_symmetry_space_group_name_H-M "F 2 2 2"
_symmetry_group_IT_number 22
_symmetry_cell_setting 'orthorhombic'
loop_
_space_group_symop_operation_xyz
x,y,z
-x,-y,z
x,-y,-z
-x,y,-z
x,1/2+y,1/2+z
-x,1/2-y,1/2+z
x,1/2-y,1/2-z
-x,1/2+y,1/2-z
1/2+x,y,1/2+z
1/2-x,-y,1/2+z
1/2+x,-y,1/2-z
1/2-x,y,1/2-z
1/2+x,1/2+y,z
1/2-x,1/2-y,z
1/2+x,1/2-y,-z
1/2-x,1/2+y,-z
loop_
_atom_site_type_symbol
_atom_site_label
_atom_site_fract_x
_atom_site_fract_y
_atom_site_fract_z
Si Si1 0.352261 0.147646 0.427121
Si Si2 0.696719 0.645221 0.752404
Si Si3 0.045924 0.593105 0.572727
Si Si4 0.042145 0.671327 0.881537
Si Si5 0.645773 0.152518 0.935576
O O1 0.325660 0.111791 0.581334
O O2 0.406324 0.139289 0.461049
O O3 0.345643 0.113567 0.243618
O O4 0.339695 0.247913 0.421570
O O5 0.692360 0.750000 0.750000
O O6 0.750000 0.624885 0.750000
O O7 0.671229 0.614461 0.589983
O O8 0.050358 0.500000 0.500000
O O9 0.037865 0.590501 0.763346
O O10 0.000000 0.633203 0.500000
O O11 0.043829 0.750000 0.750000
O O12 0.091311 0.659407 0.963247
O O13 0.000000 0.678229 0.000000
#
# Coordination Sequence:
#
# PCOD9327384 Si02
#       5
#    16  16  16  16  16
#     4   9  17  32  51  73 107 146 181 230 282 339
#     4   9  18  29  49  81 110 142 180 230 296 349
#     4  10  21  37  53  77 114 156 189 232 298 353
#     4  11  21  33  57  89 116 150 200 246 299 350
#     4   9  17  31  48  80 113 137 185 234 287 344
#
# _framework density 21.071694999999998
#
# number of rings (size 3 to 8) (size 9 to 14) (size 15 to 20)
#    0.000    2.400    4.000    0.600    2.800    1.600 
#    0.000    6.000    0.000    0.000   10.400    0.000 
#    0.000    0.000    0.000    0.000    0.000    0.000 
#
# Total GULP energy -111407.907220 kJ/mol
# GULP energy per Si atom -5570.395361 kJ/mol
# Density = 2.102373 g / cm^3
# Si number density = 21.071695 Si / 1000 Ang^3
#
#
#
# Elastic Constant Matrix: (Units=GPa)
#
#
# Indices 1 2 3 4 5 6 
#
# 1 152.2478 -4.5119 132.8469 0.0000 0.0000 0.0000
# 2 -4.5119 32.7719 21.3495 0.0000 0.0000 0.0000
# 3 132.8469 21.3495 186.3871 0.0000 0.0000 0.0000
# 4 0.0000 0.0000 0.0000 16.1730 0.0000 0.0000
# 5 0.0000 0.0000 0.0000 0.0000 42.1569 0.0000
# 6 0.0000 0.0000 0.0000 0.0000 0.0000 -9.8207
#
#
#
# Elastic Compliance Matrix: (Units=1/GPa)
#
#
# Indices 1 2 3 4 5 6 
#
# 1 0.022358 0.014545 -0.017602 0.000000 0.000000 0.000000
# 2 0.014545 0.042437 -0.015228 0.000000 0.000000 0.000000
# 3 -0.017602 -0.015228 0.019655 0.000000 0.000000 0.000000
# 4 0.000000 0.000000 0.000000 0.061831 0.000000 0.000000
# 5 0.000000 0.000000 0.000000 0.000000 0.023721 0.000000
# 6 0.000000 0.000000 0.000000 0.000000 0.000000 -0.101826
#
#
# Mechanical properties :
#
#
# Convention : Reuss Voigt Hill
#
# Bulk Modulus (GPa) = 20.88527 74.53065 47.70796
# Shear Modulus (GPa) = 41.42349 24.48333 32.95341
#
# Velocity S-wave (km/s) = 4.43858 3.41237 3.95887
# Velocity P-wave (km/s) = 6.01673 7.13951 6.60203
#
# Compressibility (1/GPa) = 0.04788064
#
# Stress axis : x y z
#
# Youngs Moduli (GPa) = 44.72705 23.56455 50.87807
#
# Poissons Ratio (x) = -0.34274 0.89553
# Poissons Ratio (y) = -0.65055 0.77475
# Poissons Ratio (z) = 0.78726 0.35883
#
# Static dielectric constant tensor:
#      x y z
#    x 1.738360 0.000000 0.000000 
#    y 0.000000 1.847340 0.000000 
#    z 0.000000 0.000000 1.814610 
# 
# From -- ./inp_files/14645.got.cif
#   From: 2010.05.17/outbox.cif.g08.bks.cpg/sg22_8_cif.got.tgz:14645.got - 2010.06.03 23:40:54.
