data_PCOD9327502
_publ_section_title
;
Structure prediction by ZEFSAII (Michael W. Deem and Ramdas Pophale) SiO2 
 PCOD9327502
Probable space group: F 2 2 2
;
_chemical_formula_sum "Si O2"
_cell_formula_units_Z 112
_cell_length_a 14.715211
_cell_length_b 23.303678
_cell_length_c 15.084424
_cell_angle_alpha 90.000000
_cell_angle_beta 90.000000
_cell_angle_gamma 90.000000
_cell_volume 5172.728637
_symmetry_space_group_name_H-M "F 2 2 2"
_symmetry_group_IT_number 22
_symmetry_cell_setting 'orthorhombic'
loop_
_space_group_symop_operation_xyz
x,y,z
-x,-y,z
x,-y,-z
-x,y,-z
x,1/2+y,1/2+z
-x,1/2-y,1/2+z
x,1/2-y,1/2-z
-x,1/2+y,1/2-z
1/2+x,y,1/2+z
1/2-x,-y,1/2+z
1/2+x,-y,1/2-z
1/2-x,y,1/2-z
1/2+x,1/2+y,z
1/2-x,1/2-y,z
1/2+x,1/2-y,-z
1/2-x,1/2+y,-z
loop_
_atom_site_type_symbol
_atom_site_label
_atom_site_fract_x
_atom_site_fract_y
_atom_site_fract_z
Si Si1 0.646032 0.100101 0.825329
Si Si2 0.444874 0.125489 0.846492
Si Si3 0.853618 0.243473 0.358306
Si Si4 0.521307 0.845894 0.639996
Si Si5 0.123985 0.439345 0.541374
Si Si6 0.669648 0.865182 0.371997
Si Si7 0.811275 0.477405 0.100836
O O1 0.549811 0.113480 0.870696
O O2 0.641784 0.102381 0.718901
O O3 0.723709 0.145344 0.856243
O O4 0.677316 0.035901 0.845796
O O5 0.397849 0.182829 0.883840
O O6 0.453360 0.139142 0.741316
O O7 0.383416 0.070670 0.870101
O O8 0.854573 0.250000 0.250000
O O9 0.750000 0.250000 0.387398
O O10 0.911889 0.296517 0.392691
O O11 0.544273 0.904187 0.587948
O O12 0.418063 0.823872 0.625863
O O13 0.098234 0.500000 0.500000
O O14 0.163283 0.401829 0.460728
O O15 0.209667 0.451359 0.606240
O O16 0.824095 0.500000 0.000000
#
# Coordination Sequence:
#
# PCOD9327502 Si02
#       7
#    16  16  16  16  16  16  16
#     4  10  21  39  58  84 123 161 206 253 302 373
#     4  10  22  37  64  93 117 163 207 251 313 366
#     4   9  18  38  63  93 123 156 202 260 308 364
#     4  10  22  37  64  92 125 157 205 255 309 370
#     4  11  22  38  57  90 124 162 197 248 315 371
#     4  10  21  39  57  83 124 163 201 248 303 369
#     4  11  22  39  57  88 123 160 198 255 307 366
#
# _framework density 21.652014999999999
#
# number of rings (size 3 to 8) (size 9 to 14) (size 15 to 20)
#    0.000    1.857    2.857    1.714    2.000    4.000 
#    0.000    0.714    6.286    6.000    0.000    0.000 
#    0.000    0.000    0.000    0.000    0.000    0.000 
#
# Total GULP energy -156179.035355 kJ/mol
# GULP energy per Si atom -5577.822691 kJ/mol
# Density = 2.160273 g / cm^3
# Si number density = 21.652015 Si / 1000 Ang^3
#
#
#
# Elastic Constant Matrix: (Units=GPa)
#
#
# Indices 1 2 3 4 5 6 
#
# 1 185.8603 55.5245 -4.2744 0.0000 0.0000 0.0000
# 2 55.5245 63.5117 -4.5216 0.0000 0.0000 0.0000
# 3 -4.2744 -4.5216 15.7670 0.0000 0.0000 0.0000
# 4 0.0000 0.0000 0.0000 8.2053 0.0000 0.0000
# 5 0.0000 0.0000 0.0000 0.0000 25.2659 0.0000
# 6 0.0000 0.0000 0.0000 0.0000 0.0000 25.9313
#
#
#
# Elastic Compliance Matrix: (Units=1/GPa)
#
#
# Indices 1 2 3 4 5 6 
#
# 1 0.007283 -0.006356 0.000152 0.000000 0.000000 0.000000
# 2 -0.006356 0.021621 0.004477 0.000000 0.000000 0.000000
# 3 0.000152 0.004477 0.064749 0.000000 0.000000 0.000000
# 4 0.000000 0.000000 0.000000 0.121872 0.000000 0.000000
# 5 0.000000 0.000000 0.000000 0.000000 0.039579 0.000000
# 6 0.000000 0.000000 0.000000 0.000000 0.000000 0.038563
#
#
# Mechanical properties :
#
#
# Convention : Reuss Voigt Hill
#
# Bulk Modulus (GPa) = 11.08681 39.84401 25.46541
# Shear Modulus (GPa) = 15.28179 26.44121 20.86150
#
# Velocity S-wave (km/s) = 2.65955 3.49834 3.10738
# Velocity P-wave (km/s) = 3.81609 5.89575 4.96600
#
# Compressibility (1/GPa) = 0.09019727
#
# Stress axis : x y z
#
# Youngs Moduli (GPa) = 137.31184 46.25227 15.44433
#
# Poissons Ratio (x) = 0.29398 -0.00234
# Poissons Ratio (y) = 0.87276 -0.06915
# Poissons Ratio (z) = -0.02081 -0.20708
#
# Static dielectric constant tensor:
#      x y z
#    x 1.874330 0.000000 0.000000 
#    y 0.000000 1.752060 0.000000 
#    z 0.000000 0.000000 1.822720 
# 
# From -- ./inp_files/29630.got.cif
#   From: 2010.05.17/outbox.cif.g08.bks.cpg/sg22_15_cif.got.tgz:29630.got - 2010.06.03 23:40:54.
