data_PCOD9327269
_publ_section_title
;
Structure prediction by ZEFSAII (Michael W. Deem and Ramdas Pophale) SiO2 
 PCOD9327269
Probable space group: F 2 2 2
;
_chemical_formula_sum "Si O2"
_cell_formula_units_Z 104
_cell_length_a 16.032855
_cell_length_b 11.431539
_cell_length_c 27.668064
_cell_angle_alpha 90.000000
_cell_angle_beta 90.000000
_cell_angle_gamma 90.000000
_cell_volume 5071.008503
_symmetry_space_group_name_H-M "F 2 2 2"
_symmetry_group_IT_number 22
_symmetry_cell_setting 'orthorhombic'
loop_
_space_group_symop_operation_xyz
x,y,z
-x,-y,z
x,-y,-z
-x,y,-z
x,1/2+y,1/2+z
-x,1/2-y,1/2+z
x,1/2-y,1/2-z
-x,1/2+y,1/2-z
1/2+x,y,1/2+z
1/2-x,-y,1/2+z
1/2+x,-y,1/2-z
1/2-x,y,1/2-z
1/2+x,1/2+y,z
1/2-x,1/2-y,z
1/2+x,1/2-y,-z
1/2-x,1/2+y,-z
loop_
_atom_site_type_symbol
_atom_site_label
_atom_site_fract_x
_atom_site_fract_y
_atom_site_fract_z
Si Si1 0.663957 0.781364 0.164804
Si Si2 0.212243 0.000000 0.500000
Si Si3 0.813587 0.841710 0.935660
Si Si4 0.888997 0.054786 0.877618
Si Si5 0.502375 0.304197 0.052907
Si Si6 0.532870 0.750000 0.250000
Si Si7 0.086399 0.928848 0.583417
Si Si8 0.000000 0.000000 0.788746
O O1 0.750000 0.750000 0.191718
O O2 0.665869 0.670283 0.128729
O O3 0.589588 0.769643 0.202902
O O4 0.637519 0.891525 0.131619
O O5 0.272428 0.108216 0.514948
O O6 0.151588 0.015857 0.454113
O O7 0.750000 0.750000 0.913020
O O8 0.901021 0.775578 0.940413
O O9 0.838517 0.955189 0.904806
O O10 0.921739 0.013862 0.825373
O O11 0.966916 0.107753 0.907474
O O12 0.447513 0.188601 0.057328
O O13 0.500000 0.358779 0.000000
O O14 0.489891 0.622875 0.240106
O O15 0.000000 0.000000 0.593250
#
# Coordination Sequence:
#
# PCOD9327269 Si02
#       8
#    16   8  16  16  16   8  16   8
#     4  10  22  40  65  95 125 165 213 273 334 395
#     4  12  25  40  53  88 134 172 212 268 309 372
#     4  12  23  35  57  87 118 163 213 263 313 363
#     4  10  21  40  61  86 128 163 209 269 313 386
#     4  11  21  36  58  84 118 173 220 253 303 374
#     4  10  23  40  72  98 129 162 216 278 345 404
#     4  11  23  40  60  86 132 177 219 263 318 385
#     4  10  20  44  65  98 124 161 216 270 330 404
#
# _framework density 20.508741000000001
#
# number of rings (size 3 to 8) (size 9 to 14) (size 15 to 20)
#    0.000    1.231    1.538    5.077    1.077    3.692 
#    0.000    1.538    0.000    0.000    0.000    0.000 
#    0.000    0.000    0.000    0.000    0.000    0.000 
#
# Total GULP energy -144877.498289 kJ/mol
# GULP energy per Si atom -5572.211473 kJ/mol
# Density = 2.046206 g / cm^3
# Si number density = 20.508741 Si / 1000 Ang^3
#
#
#
# Elastic Constant Matrix: (Units=GPa)
#
#
# Indices 1 2 3 4 5 6 
#
# 1 91.1673 26.8488 15.5886 0.0000 0.0000 0.0000
# 2 26.8488 95.4341 26.6231 0.0000 0.0000 0.0000
# 3 15.5886 26.6231 67.9078 0.0000 0.0000 0.0000
# 4 0.0000 0.0000 0.0000 22.7785 0.0000 0.0000
# 5 0.0000 0.0000 0.0000 0.0000 -4.1984 0.0000
# 6 0.0000 0.0000 0.0000 0.0000 0.0000 22.7052
#
#
#
# Elastic Compliance Matrix: (Units=1/GPa)
#
#
# Indices 1 2 3 4 5 6 
#
# 1 0.012117 -0.002956 -0.001623 0.000000 0.000000 0.000000
# 2 -0.002956 0.012486 -0.004217 0.000000 0.000000 0.000000
# 3 -0.001623 -0.004217 0.016751 0.000000 0.000000 0.000000
# 4 0.000000 0.000000 0.000000 0.043901 0.000000 0.000000
# 5 0.000000 0.000000 0.000000 0.000000 -0.238186 0.000000
# 6 0.000000 0.000000 0.000000 0.000000 0.000000 0.044043
#
#
# Mechanical properties :
#
#
# Convention : Reuss Voigt Hill
#
# Bulk Modulus (GPa) = 42.08058 43.62558 42.85308
# Shear Modulus (GPa) = -59.96992 20.62031 -19.67481
#
# Velocity S-wave (km/s) = -5.41338 3.17431 -3.10068
# Velocity P-wave (km/s) = 4.30232 5.89515 2.84982
#
# Compressibility (1/GPa) = 0.02376393
#
# Stress axis : x y z
#
# Youngs Moduli (GPa) = 82.52943 80.08689 59.69636
#
# Poissons Ratio (x) = 0.23676 0.09686
# Poissons Ratio (y) = 0.24398 0.25172
# Poissons Ratio (z) = 0.13390 0.33770
#
# Static dielectric constant tensor:
#      x y z
#    x 1.948220 0.000000 0.000000 
#    y 0.000000 1.779980 0.000000 
#    z 0.000000 0.000000 1.732640 
# 
# From -- ./inp_files/53618.got.cif
#   From: 2010.05.17/outbox.cif.g08.bks.cpg/sg22_27_cif.got.tgz:53618.got - 2010.06.03 23:40:54.
