data_PCOD9327665
_publ_section_title
;
Structure prediction by ZEFSAII (Michael W. Deem and Ramdas Pophale) SiO2 
 PCOD9327665
Probable space group: F 2 2 2
;
_chemical_formula_sum "Si O2"
_cell_formula_units_Z 116
_cell_length_a 11.700464
_cell_length_b 25.528153
_cell_length_c 17.992677
_cell_angle_alpha 90.000000
_cell_angle_beta 90.000000
_cell_angle_gamma 90.000000
_cell_volume 5374.254917
_symmetry_space_group_name_H-M "F 2 2 2"
_symmetry_group_IT_number 22
_symmetry_cell_setting 'orthorhombic'
loop_
_space_group_symop_operation_xyz
x,y,z
-x,-y,z
x,-y,-z
-x,y,-z
x,1/2+y,1/2+z
-x,1/2-y,1/2+z
x,1/2-y,1/2-z
-x,1/2+y,1/2-z
1/2+x,y,1/2+z
1/2-x,-y,1/2+z
1/2+x,-y,1/2-z
1/2-x,y,1/2-z
1/2+x,1/2+y,z
1/2-x,1/2-y,z
1/2+x,1/2-y,-z
1/2-x,1/2+y,-z
loop_
_atom_site_type_symbol
_atom_site_label
_atom_site_fract_x
_atom_site_fract_y
_atom_site_fract_z
Si Si1 0.614695 0.113909 0.540449
Si Si2 0.691406 0.546120 0.395537
Si Si3 0.024945 0.214689 0.585222
Si Si4 0.000000 0.000000 0.500000
Si Si5 0.050754 0.376214 0.180717
Si Si6 0.767669 0.834549 0.906856
Si Si7 0.819206 0.933576 0.674975
Si Si8 0.003908 0.181695 0.168464
O O1 0.500000 0.094537 0.500000
O O2 0.701786 0.067541 0.558483
O O3 0.673746 0.157242 0.486824
O O4 0.571169 0.142848 0.613937
O O5 0.582843 0.535866 0.449687
O O6 0.663281 0.590754 0.334910
O O7 0.706120 0.490995 0.355045
O O8 0.161303 0.205067 0.594442
O O9 0.000000 0.228440 0.500000
O O10 0.969129 0.159669 0.608183
O O11 0.977010 0.259332 0.639873
O O12 0.037826 0.336695 0.249640
O O13 0.951224 0.419690 0.189752
O O14 0.718669 0.891256 0.885591
O O15 0.867895 0.824017 0.847499
O O16 0.750000 0.924509 0.750000
#
# Coordination Sequence:
#
# PCOD9327665 Si02
#       8
#    16  16  16   4  16  16  16  16
#     4  10  24  44  68  99 145 189 232 293 355 432
#     4  12  25  43  71 100 139 184 237 284 362 415
#     4  11  23  39  70  99 130 178 237 291 356 422
#     4  12  24  44  74 104 136 172 238 302 332 436
#     4  11  24  42  65 101 136 182 230 293 351 421
#     4  10  21  41  67  96 136 176 227 293 351 414
#     4  11  22  41  66  99 136 175 233 289 341 422
#     4  11  23  43  62  96 139 180 230 285 354 427
#
# _framework density 21.584387
#
# number of rings (size 3 to 8) (size 9 to 14) (size 15 to 20)
#    0.000    1.103    2.759    3.724    4.828    0.000 
#    0.000   11.379    0.000    3.310    0.000    0.000 
#    0.000    0.000    0.000    0.000    0.000    0.000 
#
# Total GULP energy -162106.411800 kJ/mol
# GULP energy per Si atom -5589.876269 kJ/mol
# Density = 2.153526 g / cm^3
# Si number density = 21.584387 Si / 1000 Ang^3
#
#
#
# Elastic Constant Matrix: (Units=GPa)
#
#
# Indices 1 2 3 4 5 6 
#
# 1 77.4750 33.7106 25.2159 0.0000 0.0000 0.0000
# 2 33.7106 111.9602 29.2768 0.0000 0.0000 0.0000
# 3 25.2159 29.2768 89.0972 0.0000 0.0000 0.0000
# 4 0.0000 0.0000 0.0000 36.6142 0.0000 0.0000
# 5 0.0000 0.0000 0.0000 0.0000 20.5840 0.0000
# 6 0.0000 0.0000 0.0000 0.0000 0.0000 30.4710
#
#
#
# Elastic Compliance Matrix: (Units=1/GPa)
#
#
# Indices 1 2 3 4 5 6 
#
# 1 0.015620 -0.003880 -0.003146 0.000000 0.000000 0.000000
# 2 -0.003880 0.010735 -0.002429 0.000000 0.000000 0.000000
# 3 -0.003146 -0.002429 0.012912 0.000000 0.000000 0.000000
# 4 0.000000 0.000000 0.000000 0.027312 0.000000 0.000000
# 5 0.000000 0.000000 0.000000 0.000000 0.048581 0.000000
# 6 0.000000 0.000000 0.000000 0.000000 0.000000 0.032818
#
#
# Mechanical properties :
#
#
# Convention : Reuss Voigt Hill
#
# Bulk Modulus (GPa) = 49.12419 50.54879 49.83649
# Shear Modulus (GPa) = 28.78946 30.22244 29.50595
#
# Velocity S-wave (km/s) = 3.65610 3.74598 3.70131
# Velocity P-wave (km/s) = 6.37427 6.49460 6.43471
#
# Compressibility (1/GPa) = 0.02035657
#
# Stress axis : x y z
#
# Youngs Moduli (GPa) = 64.02210 93.14989 77.44612
#
# Poissons Ratio (x) = 0.36146 0.24361
# Poissons Ratio (y) = 0.24843 0.18814
# Poissons Ratio (z) = 0.20138 0.22629
#
# Static dielectric constant tensor:
#      x y z
#    x 1.803540 0.000000 0.000000 
#    y 0.000000 1.770520 0.000000 
#    z 0.000000 0.000000 1.789810 
# 
# From -- ./inp_files/36425.got.cif
#   From: 2010.05.17/outbox.cif.g08.bks.cpg/sg22_19_cif.got.tgz:36425.got - 2010.06.03 23:40:54.
