data_PCOD9327093
_publ_section_title
;
Structure prediction by ZEFSAII (Michael W. Deem and Ramdas Pophale) SiO2 
 PCOD9327093
Probable space group: F 2 2 2
;
_chemical_formula_sum "Si O2"
_cell_formula_units_Z 112
_cell_length_a 15.104352
_cell_length_b 14.547994
_cell_length_c 22.946976
_cell_angle_alpha 90.000000
_cell_angle_beta 90.000000
_cell_angle_gamma 90.000000
_cell_volume 5042.323123
_symmetry_space_group_name_H-M "F 2 2 2"
_symmetry_group_IT_number 22
_symmetry_cell_setting 'orthorhombic'
loop_
_space_group_symop_operation_xyz
x,y,z
-x,-y,z
x,-y,-z
-x,y,-z
x,1/2+y,1/2+z
-x,1/2-y,1/2+z
x,1/2-y,1/2-z
-x,1/2+y,1/2-z
1/2+x,y,1/2+z
1/2-x,-y,1/2+z
1/2+x,-y,1/2-z
1/2-x,y,1/2-z
1/2+x,1/2+y,z
1/2-x,1/2-y,z
1/2+x,1/2-y,-z
1/2-x,1/2+y,-z
loop_
_atom_site_type_symbol
_atom_site_label
_atom_site_fract_x
_atom_site_fract_y
_atom_site_fract_z
Si Si1 0.892774 0.898981 0.109256
Si Si2 0.720834 0.887605 0.494240
Si Si3 0.150432 0.358624 0.257901
Si Si4 0.143516 0.243873 0.680679
Si Si5 0.019447 0.393351 0.151263
Si Si6 0.915129 0.116550 0.091953
Si Si7 0.410870 0.892277 0.975739
O O1 0.811418 0.865899 0.070691
O O2 0.883103 0.878063 0.176975
O O3 0.982754 0.861621 0.080833
O O4 0.901622 0.008245 0.100690
O O5 0.651568 0.853941 0.541705
O O6 0.820199 0.853942 0.501102
O O7 0.721625 0.000000 0.500000
O O8 0.157915 0.250000 0.250000
O O9 0.250000 0.399167 0.250000
O O10 0.079454 0.386083 0.208988
O O11 0.135601 0.250000 0.750000
O O12 0.250000 0.250000 0.666904
O O13 0.106914 0.335500 0.652052
O O14 0.073477 0.164589 0.657846
O O15 0.079008 0.375047 0.093478
O O16 0.000000 0.500000 0.143358
O O17 0.500000 0.849919 0.000000
O O18 0.410808 0.000000 0.000000
#
# Coordination Sequence:
#
# PCOD9327093 Si02
#       7
#    16  16  16  16  16  16  16
#     4  10  20  38  68 100 132 172 226 282 351 425
#     4   9  19  35  66  98 133 169 224 284 345 418
#     4  11  25  43  66  98 139 176 227 292 354 423
#     4  11  27  46  66  99 147 188 231 297 355 422
#     4  12  25  43  73  97 135 189 240 288 360 429
#     4  10  21  39  67  96 135 177 224 283 350 421
#     4  10  20  39  62  96 129 170 228 292 331 406
#
# _framework density 22.211983
#
# number of rings (size 3 to 8) (size 9 to 14) (size 15 to 20)
#    0.000    1.571    1.429    3.429    6.000    4.000 
#    0.000    2.857    3.143    0.000    0.000    0.000 
#    0.000    0.000    0.000    0.000    0.000    0.000 
#
# Total GULP energy -156246.922881 kJ/mol
# GULP energy per Si atom -5580.247246 kJ/mol
# Density = 2.216143 g / cm^3
# Si number density = 22.211983 Si / 1000 Ang^3
#
#
#
# Elastic Constant Matrix: (Units=GPa)
#
#
# Indices 1 2 3 4 5 6 
#
# 1 187.1457 29.1859 60.0252 0.0000 0.0000 0.0000
# 2 29.1859 26.4579 1.1839 0.0000 0.0000 0.0000
# 3 60.0252 1.1839 137.4174 0.0000 0.0000 0.0000
# 4 0.0000 0.0000 0.0000 -50.5315 0.0000 0.0000
# 5 0.0000 0.0000 0.0000 0.0000 48.2342 0.0000
# 6 0.0000 0.0000 0.0000 0.0000 0.0000 11.9054
#
#
#
# Elastic Compliance Matrix: (Units=1/GPa)
#
#
# Indices 1 2 3 4 5 6 
#
# 1 0.007701 -0.008348 -0.003292 0.000000 0.000000 0.000000
# 2 -0.008348 0.046859 0.003243 0.000000 0.000000 0.000000
# 3 -0.003292 0.003243 0.008687 0.000000 0.000000 0.000000
# 4 0.000000 0.000000 0.000000 -0.019790 0.000000 0.000000
# 5 0.000000 0.000000 0.000000 0.000000 0.020732 0.000000
# 6 0.000000 0.000000 0.000000 0.000000 0.000000 0.083996
#
#
# Mechanical properties :
#
#
# Convention : Reuss Voigt Hill
#
# Bulk Modulus (GPa) = 21.52696 59.09009 40.30853
# Shear Modulus (GPa) = 27.70618 19.29668 23.50143
#
# Velocity S-wave (km/s) = 3.53562 2.95066 3.25630
# Velocity P-wave (km/s) = 5.13616 6.18620 5.68547
#
# Compressibility (1/GPa) = 0.04645339
#
# Stress axis : x y z
#
# Youngs Moduli (GPa) = 129.84981 21.34039 115.11250
#
# Poissons Ratio (x) = 0.17815 0.37895
# Poissons Ratio (y) = 1.08398 -0.37328
# Poissons Ratio (z) = 0.42747 -0.06920
#
# Static dielectric constant tensor:
#      x y z
#    x 1.901240 0.000000 0.000000 
#    y 0.000000 1.807540 0.000000 
#    z 0.000000 0.000000 1.547560 
# 
# From -- ./inp_files/48969.got.cif
#   From: 2010.05.17/outbox.cif.g08.bks.cpg/sg22_25_cif.got.tgz:48969.got - 2010.06.03 23:40:54.
