data_PCOD9327732
_publ_section_title
;
Structure prediction by ZEFSAII (Michael W. Deem and Ramdas Pophale) SiO2 
 PCOD9327732
Probable space group: F 2 2 2
;
_chemical_formula_sum "Si O2"
_cell_formula_units_Z 64
_cell_length_a 25.191211
_cell_length_b 10.208667
_cell_length_c 10.509774
_cell_angle_alpha 90.000000
_cell_angle_beta 90.000000
_cell_angle_gamma 90.000000
_cell_volume 2702.784753
_symmetry_space_group_name_H-M "F 2 2 2"
_symmetry_group_IT_number 22
_symmetry_cell_setting 'orthorhombic'
loop_
_space_group_symop_operation_xyz
x,y,z
-x,-y,z
x,-y,-z
-x,y,-z
x,1/2+y,1/2+z
-x,1/2-y,1/2+z
x,1/2-y,1/2-z
-x,1/2+y,1/2-z
1/2+x,y,1/2+z
1/2-x,-y,1/2+z
1/2+x,-y,1/2-z
1/2-x,y,1/2-z
1/2+x,1/2+y,z
1/2-x,1/2-y,z
1/2+x,1/2-y,-z
1/2-x,1/2+y,-z
loop_
_atom_site_type_symbol
_atom_site_label
_atom_site_fract_x
_atom_site_fract_y
_atom_site_fract_z
Si Si1 0.582684 0.926733 0.629464
Si Si2 0.406014 0.403815 0.380924
Si Si3 0.665700 0.250000 0.250000
Si Si4 0.289913 0.523735 0.642701
Si Si5 0.500000 0.732271 0.000000
O O1 0.626671 0.815288 0.648060
O O2 0.527578 0.855443 0.606343
O O3 0.595805 0.000000 0.500000
O O4 0.580417 0.020549 0.750895
O O5 0.406860 0.500000 0.500000
O O6 0.342257 0.382995 0.365438
O O7 0.452119 0.304794 0.424769
O O8 0.694646 0.375815 0.309531
O O9 0.268280 0.500000 0.500000
O O10 0.250000 0.574079 0.750000
#
# Coordination Sequence:
#
# PCOD9327732 Si02
#       5
#    16  16   8  16   8
#     4  11  25  41  65 101 137 182 237 283 338 422
#     4  10  24  43  65  98 137 182 228 280 346 420
#     4  10  23  46  68  96 142 184 225 288 362 416
#     4  10  21  42  74 102 131 179 234 289 353 416
#     4  12  24  42  68  96 144 188 222 278 352 414
#
# _framework density 23.679282000000001
#
# number of rings (size 3 to 8) (size 9 to 14) (size 15 to 20)
#    0.000    1.500    0.000    5.625    0.000   15.000 
#    0.000    0.000    0.000   24.000    0.000    1.750 
#    0.000    0.000    0.000    0.000    0.000    0.000 
#
# Total GULP energy -89389.533879 kJ/mol
# GULP energy per Si atom -5586.845867 kJ/mol
# Density = 2.362539 g / cm^3
# Si number density = 23.679282 Si / 1000 Ang^3
#
#
#
# Elastic Constant Matrix: (Units=GPa)
#
#
# Indices 1 2 3 4 5 6 
#
# 1 107.8878 39.4920 83.9107 0.0000 0.0000 0.0000
# 2 39.4920 51.5876 27.7144 0.0000 0.0000 0.0000
# 3 83.9107 27.7144 180.6796 0.0000 0.0000 0.0000
# 4 0.0000 0.0000 0.0000 -5.0257 0.0000 0.0000
# 5 0.0000 0.0000 0.0000 0.0000 60.5442 0.0000
# 6 0.0000 0.0000 0.0000 0.0000 0.0000 -9.9282
#
#
#
# Elastic Compliance Matrix: (Units=1/GPa)
#
#
# Indices 1 2 3 4 5 6 
#
# 1 0.018537 -0.010425 -0.007010 0.000000 0.000000 0.000000
# 2 -0.010425 0.026988 0.000702 0.000000 0.000000 0.000000
# 3 -0.007010 0.000702 0.008682 0.000000 0.000000 0.000000
# 4 0.000000 0.000000 0.000000 -0.198979 0.000000 0.000000
# 5 0.000000 0.000000 0.000000 0.000000 0.016517 0.000000
# 6 0.000000 0.000000 0.000000 0.000000 0.000000 -0.100723
#
#
# Mechanical properties :
#
#
# Convention : Reuss Voigt Hill
#
# Bulk Modulus (GPa) = 48.21186 71.37656 59.79421
# Shear Modulus (GPa) = -26.51127 21.72061 -2.39533
#
# Velocity S-wave (km/s) = -3.34967 3.03195 -1.00686
# Velocity P-wave (km/s) = 2.33328 6.51655 4.89437
#
# Compressibility (1/GPa) = 0.02074178
#
# Stress axis : x y z
#
# Youngs Moduli (GPa) = 53.94724 37.05370 115.17478
#
# Poissons Ratio (x) = 0.38627 0.80734
# Poissons Ratio (y) = 0.56238 -0.08082
# Poissons Ratio (z) = 0.37815 -0.02600
#
# Static dielectric constant tensor:
#      x y z
#    x 2.046970 0.000000 0.000000 
#    y 0.000000 1.877380 0.000000 
#    z 0.000000 0.000000 1.849110 
# 
# From -- ./inp_files/15343.got.cif
#   From: 2010.05.17/outbox.cif.g08.bks.cpg/sg22_8_cif.got.tgz:15343.got - 2010.06.03 23:40:54.
