data_PCOD9327859
_publ_section_title
;
Structure prediction by ZEFSAII (Michael W. Deem and Ramdas Pophale) SiO2 
 PCOD9327859
Probable space group: F 2 2 2
;
_chemical_formula_sum "Si O2"
_cell_formula_units_Z 64
_cell_length_a 8.645795
_cell_length_b 15.257362
_cell_length_c 22.391947
_cell_angle_alpha 90.000000
_cell_angle_beta 90.000000
_cell_angle_gamma 90.000000
_cell_volume 2953.767052
_symmetry_space_group_name_H-M "F 2 2 2"
_symmetry_group_IT_number 22
_symmetry_cell_setting 'orthorhombic'
loop_
_space_group_symop_operation_xyz
x,y,z
-x,-y,z
x,-y,-z
-x,y,-z
x,1/2+y,1/2+z
-x,1/2-y,1/2+z
x,1/2-y,1/2-z
-x,1/2+y,1/2-z
1/2+x,y,1/2+z
1/2-x,-y,1/2+z
1/2+x,-y,1/2-z
1/2-x,y,1/2-z
1/2+x,1/2+y,z
1/2-x,1/2-y,z
1/2+x,1/2-y,-z
1/2-x,1/2+y,-z
loop_
_atom_site_type_symbol
_atom_site_label
_atom_site_fract_x
_atom_site_fract_y
_atom_site_fract_z
Si Si1 0.106549 0.927889 0.381831
Si Si2 0.933868 0.264745 0.375397
Si Si3 0.500000 0.860378 0.500000
Si Si4 0.113134 0.418110 0.701240
Si Si5 0.739418 0.500000 0.500000
O O1 0.017033 0.836431 0.373229
O O2 0.278886 0.936375 0.355900
O O3 0.136980 0.953757 0.449886
O O4 0.000000 0.000000 0.351901
O O5 0.750000 0.250000 0.369321
O O6 0.964480 0.303906 0.440927
O O7 0.977086 0.330597 0.321356
O O8 0.356766 0.922400 0.518949
O O9 0.250000 0.401346 0.750000
O O10 0.000000 0.500000 0.713214
#
# Coordination Sequence:
#
# PCOD9327859 Si02
#       5
#    16  16   8  16   8
#     4  11  24  40  62  99 133 182 224 284 342 398
#     4  10  22  38  61  96 135 178 229 271 346 398
#     4  11  20  36  59  90 130 182 223 280 327 418
#     4  11  23  46  72  99 129 178 231 285 349 415
#     4  11  21  36  60  86 138 178 226 274 334 404
#
# _framework density 21.667248000000001
#
# number of rings (size 3 to 8) (size 9 to 14) (size 15 to 20)
#    0.000    1.250    5.000    2.625    3.500    4.500 
#    0.000    3.750    0.000    1.500    0.000    0.000 
#    0.000    0.000    0.000    0.000    0.000    0.000 
#
# Total GULP energy -89110.892287 kJ/mol
# GULP energy per Si atom -5569.430768 kJ/mol
# Density = 2.161793 g / cm^3
# Si number density = 21.667248 Si / 1000 Ang^3
#
#
#
# Elastic Constant Matrix: (Units=GPa)
#
#
# Indices 1 2 3 4 5 6 
#
# 1 34.2069 33.3614 5.8458 0.0000 0.0000 0.0000
# 2 33.3614 197.2153 57.8536 0.0000 0.0000 0.0000
# 3 5.8458 57.8536 105.2665 0.0000 0.0000 0.0000
# 4 0.0000 0.0000 0.0000 8.8659 0.0000 0.0000
# 5 0.0000 0.0000 0.0000 0.0000 29.3501 0.0000
# 6 0.0000 0.0000 0.0000 0.0000 0.0000 6.0478
#
#
#
# Elastic Compliance Matrix: (Units=1/GPa)
#
#
# Indices 1 2 3 4 5 6 
#
# 1 0.035227 -0.006420 0.001572 0.000000 0.000000 0.000000
# 2 -0.006420 0.007215 -0.003609 0.000000 0.000000 0.000000
# 3 0.001572 -0.003609 0.011396 0.000000 0.000000 0.000000
# 4 0.000000 0.000000 0.000000 0.112792 0.000000 0.000000
# 5 0.000000 0.000000 0.000000 0.000000 0.034071 0.000000
# 6 0.000000 0.000000 0.000000 0.000000 0.000000 0.165350
#
#
# Mechanical properties :
#
#
# Convention : Reuss Voigt Hill
#
# Bulk Modulus (GPa) = 27.08262 58.97892 43.03077
# Shear Modulus (GPa) = 12.64947 24.82794 18.73870
#
# Velocity S-wave (km/s) = 2.41883 3.38875 2.94401
# Velocity P-wave (km/s) = 4.50860 6.52617 5.60885
#
# Compressibility (1/GPa) = 0.03692405
#
# Stress axis : x y z
#
# Youngs Moduli (GPa) = 28.38749 138.59306 87.75130
#
# Poissons Ratio (x) = 0.88981 -0.13797
# Poissons Ratio (y) = 0.18226 0.31669
# Poissons Ratio (z) = -0.04463 0.50018
#
# Static dielectric constant tensor:
#      x y z
#    x 1.839150 0.000000 0.000000 
#    y 0.000000 1.986000 0.000000 
#    z 0.000000 0.000000 2.108530 
# 
# From -- ./inp_files/13433.got.cif
#   From: 2010.05.17/outbox.cif.g08.bks.cpg/sg22_7_cif.got.tgz:13433.got - 2010.06.03 23:40:54.
