data_PCOD9327473
_publ_section_title
;
Structure prediction by ZEFSAII (Michael W. Deem and Ramdas Pophale) SiO2 
 PCOD9327473
Probable space group: F 2 2 2
;
_chemical_formula_sum "Si O2"
_cell_formula_units_Z 88
_cell_length_a 11.869429
_cell_length_b 12.677534
_cell_length_c 25.098755
_cell_angle_alpha 90.000000
_cell_angle_beta 90.000000
_cell_angle_gamma 90.000000
_cell_volume 3776.737410
_symmetry_space_group_name_H-M "F 2 2 2"
_symmetry_group_IT_number 22
_symmetry_cell_setting 'orthorhombic'
loop_
_space_group_symop_operation_xyz
x,y,z
-x,-y,z
x,-y,-z
-x,y,-z
x,1/2+y,1/2+z
-x,1/2-y,1/2+z
x,1/2-y,1/2-z
-x,1/2+y,1/2-z
1/2+x,y,1/2+z
1/2-x,-y,1/2+z
1/2+x,-y,1/2-z
1/2-x,y,1/2-z
1/2+x,1/2+y,z
1/2-x,1/2-y,z
1/2+x,1/2-y,-z
1/2-x,1/2+y,-z
loop_
_atom_site_type_symbol
_atom_site_label
_atom_site_fract_x
_atom_site_fract_y
_atom_site_fract_z
Si Si1 0.983368 0.716172 0.864585
Si Si2 0.391531 0.559748 0.105619
Si Si3 0.847564 0.426353 0.067279
Si Si4 0.367037 0.474918 0.776019
Si Si5 0.641496 0.826430 0.040044
Si Si6 0.946232 0.750000 0.750000
O O1 0.917034 0.823222 0.875263
O O2 0.902585 0.616798 0.878456
O O3 0.016791 0.720212 0.802824
O O4 0.078609 0.721040 0.909071
O O5 0.500000 0.500000 0.082595
O O6 0.287068 0.572860 0.067114
O O7 0.360049 0.499896 0.160676
O O8 0.868275 0.548921 0.056354
O O9 0.890481 0.344406 0.022338
O O10 0.500000 0.500000 0.761359
O O11 0.250000 0.516891 0.750000
O O12 0.370417 0.350232 0.764165
O O13 0.750000 0.750000 0.036443
#
# Coordination Sequence:
#
# PCOD9327473 Si02
#       6
#    16  16  16  16  16   8
#     4  11  22  40  63  91 131 174 229 294 351 423
#     4  10  21  39  62  89 127 175 226 287 357 432
#     4  11  23  40  67 100 132 177 230 288 360 433
#     4  10  21  38  62  93 130 176 234 294 357 432
#     4  11  24  42  64  97 137 178 228 287 359 434
#     4  10  23  40  63  94 127 182 237 286 361 436
#
# _framework density 23.300533999999999
#
# number of rings (size 3 to 8) (size 9 to 14) (size 15 to 20)
#    0.000    1.455    0.000    5.182    0.000    7.273 
#    0.000    6.364    0.000    0.000    0.000    0.000 
#    0.000    0.000    0.000    0.000    0.000    0.000 
#
# Total GULP energy -122472.759433 kJ/mol
# GULP energy per Si atom -5566.943611 kJ/mol
# Density = 2.324750 g / cm^3
# Si number density = 23.300534 Si / 1000 Ang^3
#
#
#
# Elastic Constant Matrix: (Units=GPa)
#
#
# Indices 1 2 3 4 5 6 
#
# 1 105.9424 6.9634 55.9157 0.0000 0.0000 0.0000
# 2 6.9634 53.2953 10.0860 0.0000 0.0000 0.0000
# 3 55.9157 10.0860 126.2373 0.0000 0.0000 0.0000
# 4 0.0000 0.0000 0.0000 23.9154 0.0000 0.0000
# 5 0.0000 0.0000 0.0000 0.0000 -19.6081 0.0000
# 6 0.0000 0.0000 0.0000 0.0000 0.0000 39.2300
#
#
#
# Elastic Compliance Matrix: (Units=1/GPa)
#
#
# Indices 1 2 3 4 5 6 
#
# 1 0.012337 -0.000587 -0.005418 0.000000 0.000000 0.000000
# 2 -0.000587 0.019079 -0.001265 0.000000 0.000000 0.000000
# 3 -0.005418 -0.001265 0.010422 0.000000 0.000000 0.000000
# 4 0.000000 0.000000 0.000000 0.041814 0.000000 0.000000
# 5 0.000000 0.000000 0.000000 0.000000 -0.050999 0.000000
# 6 0.000000 0.000000 0.000000 0.000000 0.000000 0.025491
#
#
# Mechanical properties :
#
#
# Convention : Reuss Voigt Hill
#
# Bulk Modulus (GPa) = 36.62871 47.93390 42.28131
# Shear Modulus (GPa) = 61.13789 22.87480 42.00634
#
# Velocity S-wave (km/s) = 5.12794 3.13665 4.25055
# Velocity P-wave (km/s) = 7.12849 5.80817 6.50193
#
# Compressibility (1/GPa) = 0.02730099
#
# Stress axis : x y z
#
# Youngs Moduli (GPa) = 81.05640 52.41270 95.94759
#
# Poissons Ratio (x) = 0.03075 0.51982
# Poissons Ratio (y) = 0.04755 0.12133
# Poissons Ratio (z) = 0.43914 0.06628
#
# Static dielectric constant tensor:
#      x y z
#    x 1.980230 0.000000 0.000000 
#    y 0.000000 1.937290 0.000000 
#    z 0.000000 0.000000 1.923710 
# 
# From -- ./inp_files/32340.got.cif
#   From: 2010.05.17/outbox.cif.g08.bks.cpg/sg22_17_cif.got.tgz:32340.got - 2010.06.03 23:40:54.
