data_PCOD9327395
_publ_section_title
;
Structure prediction by ZEFSAII (Michael W. Deem and Ramdas Pophale) SiO2 
 PCOD9327395
Probable space group: F 2 2 2
;
_chemical_formula_sum "Si O2"
_cell_formula_units_Z 60
_cell_length_a 31.435128
_cell_length_b 13.219672
_cell_length_c 6.393328
_cell_angle_alpha 90.000000
_cell_angle_beta 90.000000
_cell_angle_gamma 90.000000
_cell_volume 2656.824691
_symmetry_space_group_name_H-M "F 2 2 2"
_symmetry_group_IT_number 22
_symmetry_cell_setting 'orthorhombic'
loop_
_space_group_symop_operation_xyz
x,y,z
-x,-y,z
x,-y,-z
-x,y,-z
x,1/2+y,1/2+z
-x,1/2-y,1/2+z
x,1/2-y,1/2-z
-x,1/2+y,1/2-z
1/2+x,y,1/2+z
1/2-x,-y,1/2+z
1/2+x,-y,1/2-z
1/2-x,y,1/2-z
1/2+x,1/2+y,z
1/2-x,1/2-y,z
1/2+x,1/2-y,-z
1/2-x,1/2+y,-z
loop_
_atom_site_type_symbol
_atom_site_label
_atom_site_fract_x
_atom_site_fract_y
_atom_site_fract_z
Si Si1 0.459704 0.108655 0.888694
Si Si2 0.210268 0.642444 0.869962
Si Si3 0.250000 0.750000 0.250000
Si Si4 0.935789 0.500000 0.500000
Si Si5 0.115511 0.136399 0.331867
O O1 0.461221 0.080694 0.645072
O O2 0.500000 0.163606 0.000000
O O3 0.413673 0.147042 0.960335
O O4 0.459984 0.000000 0.000000
O O5 0.206618 0.750000 0.750000
O O6 0.250000 0.589214 0.750000
O O7 0.163417 0.596583 0.863089
O O8 0.222814 0.676418 0.102001
O O9 0.907733 0.434674 0.661972
O O10 0.117559 0.250000 0.250000
#
# Coordination Sequence:
#
# PCOD9327395 Si02
#       5
#    16  16   4   8  16
#     4   9  20  38  59  87 114 156 203 241 306 367
#     4   8  16  30  52  85 114 148 203 241 297 365
#     4   8  14  28  52  78 116 152 182 256 298 330
#     4  10  22  41  64  80 126 164 192 260 311 356
#     4  10  21  37  59  91 120 156 206 251 302 381
#
# _framework density 22.583348000000001
#
# number of rings (size 3 to 8) (size 9 to 14) (size 15 to 20)
#    0.000    3.200    0.000    0.000    0.000   16.000 
#    4.800    0.000    8.800    0.000    0.000    0.000 
#    0.000    0.000    0.000    0.000    0.000    0.000 
#
# Total GULP energy -83516.992614 kJ/mol
# GULP energy per Si atom -5567.799508 kJ/mol
# Density = 2.253195 g / cm^3
# Si number density = 22.583348 Si / 1000 Ang^3
#
#
#
# Elastic Constant Matrix: (Units=GPa)
#
#
# Indices 1 2 3 4 5 6 
#
# 1 194.6693 10.8749 88.4497 0.0000 0.0000 0.0000
# 2 10.8749 50.5942 13.1458 0.0000 0.0000 0.0000
# 3 88.4497 13.1458 165.7262 0.0000 0.0000 0.0000
# 4 0.0000 0.0000 0.0000 18.0246 0.0000 0.0000
# 5 0.0000 0.0000 0.0000 0.0000 -20.7825 0.0000
# 6 0.0000 0.0000 0.0000 0.0000 0.0000 18.0221
#
#
#
# Elastic Compliance Matrix: (Units=1/GPa)
#
#
# Indices 1 2 3 4 5 6 
#
# 1 0.006795 -0.000529 -0.003585 0.000000 0.000000 0.000000
# 2 -0.000529 0.020222 -0.001322 0.000000 0.000000 0.000000
# 3 -0.003585 -0.001322 0.008052 0.000000 0.000000 0.000000
# 4 0.000000 0.000000 0.000000 0.055480 0.000000 0.000000
# 5 0.000000 0.000000 0.000000 0.000000 -0.048117 0.000000
# 6 0.000000 0.000000 0.000000 0.000000 0.000000 0.055487
#
#
# Mechanical properties :
#
#
# Convention : Reuss Voigt Hill
#
# Bulk Modulus (GPa) = 41.32492 70.65896 55.99194
# Shear Modulus (GPa) = 42.78744 22.95411 32.87078
#
# Velocity S-wave (km/s) = 4.35747 3.19159 3.81928
# Velocity P-wave (km/s) = 6.60722 6.70356 6.65556
#
# Compressibility (1/GPa) = 0.02419848
#
# Stress axis : x y z
#
# Youngs Moduli (GPa) = 147.16235 49.45049 124.19164
#
# Poissons Ratio (x) = 0.02617 0.44519
# Poissons Ratio (y) = 0.07788 0.16414
# Poissons Ratio (z) = 0.52753 0.06536
#
# Static dielectric constant tensor:
#      x y z
#    x 2.040710 0.000000 0.000000 
#    y 0.000000 1.894040 0.000000 
#    z 0.000000 0.000000 1.890260 
# 
# From -- ./inp_files/2790.got.cif
#   From: 2010.05.17/outbox.cif.g08.bks.cpg/sg22_2_cif.got.tgz:2790.got - 2010.06.03 23:40:54.
