data_PCOD9327588
_publ_section_title
;
Structure prediction by ZEFSAII (Michael W. Deem and Ramdas Pophale) SiO2 
 PCOD9327588
Probable space group: F 2 2 2
;
_chemical_formula_sum "Si O2"
_cell_formula_units_Z 112
_cell_length_a 16.681515
_cell_length_b 21.849290
_cell_length_c 15.539706
_cell_angle_alpha 90.000000
_cell_angle_beta 90.000000
_cell_angle_gamma 90.000000
_cell_volume 5663.900526
_symmetry_space_group_name_H-M "F 2 2 2"
_symmetry_group_IT_number 22
_symmetry_cell_setting 'orthorhombic'
loop_
_space_group_symop_operation_xyz
x,y,z
-x,-y,z
x,-y,-z
-x,y,-z
x,1/2+y,1/2+z
-x,1/2-y,1/2+z
x,1/2-y,1/2-z
-x,1/2+y,1/2-z
1/2+x,y,1/2+z
1/2-x,-y,1/2+z
1/2+x,-y,1/2-z
1/2-x,y,1/2-z
1/2+x,1/2+y,z
1/2-x,1/2-y,z
1/2+x,1/2-y,-z
1/2-x,1/2+y,-z
loop_
_atom_site_type_symbol
_atom_site_label
_atom_site_fract_x
_atom_site_fract_y
_atom_site_fract_z
Si Si1 0.154034 0.430731 0.501162
Si Si2 0.927363 0.180274 0.566473
Si Si3 0.834834 0.942058 0.445224
Si Si4 0.163712 0.408083 0.702674
Si Si5 0.918074 0.473918 0.774962
Si Si6 0.498588 0.648120 0.754756
Si Si7 0.068820 0.687771 0.571643
O O1 0.116075 0.500000 0.500000
O O2 0.241001 0.439870 0.460228
O O3 0.166099 0.406271 0.599093
O O4 0.113153 0.375702 0.448702
O O5 0.873003 0.123746 0.536369
O O6 0.964839 0.166918 0.661380
O O7 0.885757 0.247057 0.564826
O O8 0.000000 0.182146 0.500000
O O9 0.856455 0.954394 0.347173
O O10 0.866885 0.000000 0.500000
O O11 0.250000 0.401008 0.750000
O O12 0.126719 0.475008 0.721175
O O13 0.094351 0.363093 0.740184
O O14 0.953869 0.416387 0.725331
O O15 0.000000 0.500000 0.817801
O O16 0.471071 0.689242 0.834001
O O17 0.000000 0.688733 0.500000
#
# Coordination Sequence:
#
# PCOD9327588 Si02
#       7
#    16  16  16  16  16  16  16
#     4  11  23  38  63  95 131 172 207 260 321 378
#     4  10  24  39  66  89 121 168 208 264 312 375
#     4  10  22  37  60  95 124 160 207 261 313 367
#     4  11  21  35  59  90 131 166 205 263 320 385
#     4   9  20  35  57  89 122 166 209 255 312 367
#     4  10  21  40  63  90 120 162 214 263 316 373
#     4  11  22  43  62  89 125 166 214 255 309 381
#
# _framework density 19.774357999999999
#
# number of rings (size 3 to 8) (size 9 to 14) (size 15 to 20)
#    0.000    1.714    1.429    3.000    8.000    0.857 
#    0.000    2.143    0.000    5.143    0.000    0.000 
#    0.000    0.000    0.000    0.000    0.000    0.000 
#
# Total GULP energy -156033.469745 kJ/mol
# GULP energy per Si atom -5572.623919 kJ/mol
# Density = 1.972935 g / cm^3
# Si number density = 19.774358 Si / 1000 Ang^3
#
#
#
# Elastic Constant Matrix: (Units=GPa)
#
#
# Indices 1 2 3 4 5 6 
#
# 1 76.8600 42.7794 31.1346 0.0000 0.0000 0.0000
# 2 42.7794 145.8094 13.3983 0.0000 0.0000 0.0000
# 3 31.1346 13.3983 71.1968 0.0000 0.0000 0.0000
# 4 0.0000 0.0000 0.0000 78.3577 0.0000 0.0000
# 5 0.0000 0.0000 0.0000 0.0000 49.3100 0.0000
# 6 0.0000 0.0000 0.0000 0.0000 0.0000 -116.8083
#
#
#
# Elastic Compliance Matrix: (Units=1/GPa)
#
#
# Indices 1 2 3 4 5 6 
#
# 1 0.018611 -0.004795 -0.007236 0.000000 0.000000 0.000000
# 2 -0.004795 0.008215 0.000551 0.000000 0.000000 0.000000
# 3 -0.007236 0.000551 0.017106 0.000000 0.000000 0.000000
# 4 0.000000 0.000000 0.000000 0.012762 0.000000 0.000000
# 5 0.000000 0.000000 0.000000 0.000000 0.020280 0.000000
# 6 0.000000 0.000000 0.000000 0.000000 0.000000 -0.008561
#
#
# Mechanical properties :
#
#
# Convention : Reuss Voigt Hill
#
# Bulk Modulus (GPa) = 47.68507 52.05455 49.86981
# Shear Modulus (GPa) = 50.83165 15.94212 33.38689
#
# Velocity S-wave (km/s) = 5.07559 2.84245 4.11346
# Velocity P-wave (km/s) = 7.64956 6.09542 6.91628
#
# Compressibility (1/GPa) = 0.02097092
#
# Stress axis : x y z
#
# Youngs Moduli (GPa) = 53.73161 121.73508 58.45809
#
# Poissons Ratio (x) = 0.58377 0.42302
# Poissons Ratio (y) = 0.25766 -0.03222
# Poissons Ratio (z) = 0.38881 -0.06710
#
# Static dielectric constant tensor:
#      x y z
#    x 1.685350 0.000000 0.000000 
#    y 0.000000 1.445740 0.000000 
#    z 0.000000 0.000000 1.700780 
# 
# From -- ./inp_files/29612.got.cif
#   From: 2010.05.17/outbox.cif.g08.bks.cpg/sg22_15_cif.got.tgz:29612.got - 2010.06.03 23:40:54.
