data_PCOD9327356
_publ_section_title
;
Structure prediction by ZEFSAII (Michael W. Deem and Ramdas Pophale) SiO2 
 PCOD9327356
Probable space group: F 2 2 2
;
_chemical_formula_sum "Si O2"
_cell_formula_units_Z 96
_cell_length_a 9.876864
_cell_length_b 21.812471
_cell_length_c 21.045526
_cell_angle_alpha 90.000000
_cell_angle_beta 90.000000
_cell_angle_gamma 90.000000
_cell_volume 4534.023068
_symmetry_space_group_name_H-M "F 2 2 2"
_symmetry_group_IT_number 22
_symmetry_cell_setting 'orthorhombic'
loop_
_space_group_symop_operation_xyz
x,y,z
-x,-y,z
x,-y,-z
-x,y,-z
x,1/2+y,1/2+z
-x,1/2-y,1/2+z
x,1/2-y,1/2-z
-x,1/2+y,1/2-z
1/2+x,y,1/2+z
1/2-x,-y,1/2+z
1/2+x,-y,1/2-z
1/2-x,y,1/2-z
1/2+x,1/2+y,z
1/2-x,1/2-y,z
1/2+x,1/2-y,-z
1/2-x,1/2+y,-z
loop_
_atom_site_type_symbol
_atom_site_label
_atom_site_fract_x
_atom_site_fract_y
_atom_site_fract_z
Si Si1 0.108554 0.722565 0.554140
Si Si2 0.434476 0.182577 0.278491
Si Si3 0.503890 0.167363 0.861775
Si Si4 0.158400 0.495159 0.688801
Si Si5 0.213600 0.146871 0.823386
Si Si6 0.269054 0.886514 0.619978
O O1 0.250000 0.750000 0.531265
O O2 0.142154 0.652137 0.570553
O O3 0.000000 0.727750 0.500000
O O4 0.065290 0.768290 0.612206
O O5 0.411015 0.250000 0.250000
O O6 0.475299 0.149462 0.212661
O O7 0.565321 0.176979 0.325110
O O8 0.310806 0.152247 0.315983
O O9 0.340564 0.167075 0.866860
O O10 0.609540 0.120532 0.894511
O O11 0.250000 0.510072 0.750000
O O12 0.193172 0.425806 0.669509
O O13 0.189261 0.544671 0.634514
O O14 0.000000 0.500000 0.705281
O O15 0.250000 0.161279 0.750000
#
# Coordination Sequence:
#
# PCOD9327356 Si02
#       6
#    16  16  16  16  16  16
#     4  10  23  43  62  89 117 157 209 267 327 369
#     4  11  19  33  53  87 126 154 192 239 298 370
#     4  10  21  36  56  88 120 155 198 245 312 375
#     4  11  22  37  56  86 132 167 205 237 295 376
#     4   9  21  34  51  85 124 165 197 234 295 367
#     4  11  22  36  60  86 120 164 201 249 302 380
#
# _framework density 21.173249999999999
#
# number of rings (size 3 to 8) (size 9 to 14) (size 15 to 20)
#    0.000    1.667    3.333    1.500    4.667    5.000 
#    0.000    0.000    0.000    0.500    0.000    1.167 
#    0.000    0.000    0.000    0.000    0.000    0.000 
#
# Total GULP energy -133735.547662 kJ/mol
# GULP energy per Si atom -5572.314486 kJ/mol
# Density = 2.112506 g / cm^3
# Si number density = 21.173250 Si / 1000 Ang^3
#
#
#
# Elastic Constant Matrix: (Units=GPa)
#
#
# Indices 1 2 3 4 5 6 
#
# 1 171.0184 10.5144 25.0181 0.0000 0.0000 0.0000
# 2 10.5144 41.8090 -0.0952 0.0000 0.0000 0.0000
# 3 25.0181 -0.0952 37.3222 0.0000 0.0000 0.0000
# 4 0.0000 0.0000 0.0000 7.7895 0.0000 0.0000
# 5 0.0000 0.0000 0.0000 0.0000 30.3622 0.0000
# 6 0.0000 0.0000 0.0000 0.0000 0.0000 23.4152
#
#
#
# Elastic Compliance Matrix: (Units=1/GPa)
#
#
# Indices 1 2 3 4 5 6 
#
# 1 0.006598 -0.001669 -0.004427 0.000000 0.000000 0.000000
# 2 -0.001669 0.024341 0.001181 0.000000 0.000000 0.000000
# 3 -0.004427 0.001181 0.029764 0.000000 0.000000 0.000000
# 4 0.000000 0.000000 0.000000 0.128377 0.000000 0.000000
# 5 0.000000 0.000000 0.000000 0.000000 0.032936 0.000000
# 6 0.000000 0.000000 0.000000 0.000000 0.000000 0.042707
#
#
# Mechanical properties :
#
#
# Convention : Reuss Voigt Hill
#
# Bulk Modulus (GPa) = 19.65702 35.66935 27.66319
# Shear Modulus (GPa) = 17.15207 26.62754 21.88981
#
# Velocity S-wave (km/s) = 2.84928 3.55012 3.21883
# Velocity P-wave (km/s) = 4.48649 5.80409 5.18729
#
# Compressibility (1/GPa) = 0.05087242
#
# Stress axis : x y z
#
# Youngs Moduli (GPa) = 151.57164 41.08335 33.59749
#
# Poissons Ratio (x) = 0.06858 0.14873
# Poissons Ratio (y) = 0.25301 -0.03968
# Poissons Ratio (z) = 0.67097 -0.04852
#
# Static dielectric constant tensor:
#      x y z
#    x 1.841380 0.000000 0.000000 
#    y 0.000000 1.775960 0.000000 
#    z 0.000000 0.000000 1.783580 
# 
# From -- ./inp_files/47384.got.cif
#   From: 2010.05.17/outbox.cif.g08.bks.cpg/sg22_24_cif.got.tgz:47384.got - 2010.06.03 23:40:54.
