data_PCOD9327212
_publ_section_title
;
Structure prediction by ZEFSAII (Michael W. Deem and Ramdas Pophale) SiO2 
 PCOD9327212
Probable space group: F 2 2 2
;
_chemical_formula_sum "Si O2"
_cell_formula_units_Z 56
_cell_length_a 20.445276
_cell_length_b 4.741456
_cell_length_c 29.201649
_cell_angle_alpha 90.000000
_cell_angle_beta 90.000000
_cell_angle_gamma 90.000000
_cell_volume 2830.818850
_symmetry_space_group_name_H-M "F 2 2 2"
_symmetry_group_IT_number 22
_symmetry_cell_setting 'orthorhombic'
loop_
_space_group_symop_operation_xyz
x,y,z
-x,-y,z
x,-y,-z
-x,y,-z
x,1/2+y,1/2+z
-x,1/2-y,1/2+z
x,1/2-y,1/2-z
-x,1/2+y,1/2-z
1/2+x,y,1/2+z
1/2-x,-y,1/2+z
1/2+x,-y,1/2-z
1/2-x,y,1/2-z
1/2+x,1/2+y,z
1/2-x,1/2-y,z
1/2+x,1/2-y,-z
1/2-x,1/2+y,-z
loop_
_atom_site_type_symbol
_atom_site_label
_atom_site_fract_x
_atom_site_fract_y
_atom_site_fract_z
Si Si1 0.000000 0.000000 0.000000
Si Si2 0.250000 0.250000 0.969355
Si Si3 0.437314 0.680152 0.582948
Si Si4 0.250000 0.750000 0.750000
Si Si5 0.750000 0.750000 0.684052
Si Si6 0.648789 0.337093 0.105021
O O1 0.043729 0.197573 0.032830
O O2 0.302351 0.406408 0.936743
O O3 0.220432 0.500000 0.000000
O O4 0.500000 0.500000 0.598326
O O5 0.377785 0.467024 0.589933
O O6 0.413003 0.957720 0.608844
O O7 0.276670 0.513527 0.714138
O O8 0.691290 0.842248 0.650815
#
# Coordination Sequence:
#
# PCOD9327212 Si02
#       6
#     4   8  16   4   8  16
#     4  12  26  36  54  84 122 168 258 252 292 316
#     4  11  24  34  52  81 114 171 204 242 318 365
#     4  12  24  38  57  82 118 178 216 277 286 335
#     4  10  20  40  76  96 132 144 196 244 332 428
#     4  10  22  43  66 107 122 157 190 261 332 404
#     4  11  24  39  59  85 132 155 209 268 309 367
#
# _framework density 19.782261999999999
#
# number of rings (size 3 to 8) (size 9 to 14) (size 15 to 20)
#    0.000    0.857    2.857    3.857    6.000    4.571 
#    0.000    0.000    0.000    0.000    0.000   56.000 
#    0.000    0.000    0.000    0.000    0.000    0.000 
#
# Total GULP energy -77963.354110 kJ/mol
# GULP energy per Si atom -5568.811008 kJ/mol
# Density = 1.973724 g / cm^3
# Si number density = 19.782262 Si / 1000 Ang^3
#
#
#
# Elastic Constant Matrix: (Units=GPa)
#
#
# Indices 1 2 3 4 5 6 
#
# 1 52.5340 19.3104 33.0512 0.0114 -0.0631 -0.0646
# 2 19.3104 120.2332 35.1007 -0.0008 -0.1888 -0.0282
# 3 33.0512 35.1007 92.7015 0.0004 0.0089 0.0023
# 4 0.0114 -0.0008 0.0004 18.6592 0.0457 -0.0020
# 5 -0.0631 -0.1888 0.0089 0.0457 17.8354 0.0334
# 6 -0.0646 -0.0282 0.0023 -0.0020 0.0334 47.8670
#
#
#
# Elastic Compliance Matrix: (Units=1/GPa)
#
#
# Indices 1 2 3 4 5 6 
#
# 1 0.024803 -0.001576 -0.008246 -0.000015 0.000075 0.000033
# 2 -0.001576 0.009451 -0.003017 0.000001 0.000096 0.000004
# 3 -0.008246 -0.003017 0.014870 0.000005 -0.000068 -0.000014
# 4 -0.000015 0.000001 0.000005 0.053593 -0.000137 0.000002
# 5 0.000075 0.000096 -0.000068 -0.000137 0.056070 -0.000039
# 6 0.000033 0.000004 -0.000014 0.000002 -0.000039 0.020891
#
#
# Mechanical properties :
#
#
# Convention : Reuss Voigt Hill
#
# Bulk Modulus (GPa) = 42.65195 48.93259 45.79227
# Shear Modulus (GPa) = 23.45530 28.73941 26.09736
#
# Velocity S-wave (km/s) = 3.44710 3.81568 3.63606
# Velocity P-wave (km/s) = 6.11971 6.64845 6.38955
#
# Compressibility (1/GPa) = 0.02344558
#
# Stress axis : x y z
#
# Youngs Moduli (GPa) = 40.31795 105.80747 67.25102
#
# Poissons Ratio (x) = 0.16675 0.55457
# Poissons Ratio (y) = 0.06354 0.20288
# Poissons Ratio (z) = 0.33248 0.31919
#
# Static dielectric constant tensor:
#      x y z
#    x 1.656400 0.000180 -0.000010 
#    y 0.000180 1.423760 -0.000060 
#    z -0.000010 -0.000060 1.682540 
# 
# From -- ./inp_files/54060.got.cif
#   From: 2010.05.17/outbox.cif.g08.bks.cpg/sg22_28_cif.got.tgz:54060.got - 2010.06.03 23:40:54.
