data_PCOD9327694
_publ_section_title
;
Structure prediction by ZEFSAII (Michael W. Deem and Ramdas Pophale) SiO2 
 PCOD9327694
Probable space group: F 2 2 2
;
_chemical_formula_sum "Si O2"
_cell_formula_units_Z 104
_cell_length_a 7.455135
_cell_length_b 33.397013
_cell_length_c 20.653609
_cell_angle_alpha 90.000000
_cell_angle_beta 90.000000
_cell_angle_gamma 90.000000
_cell_volume 5142.319883
_symmetry_space_group_name_H-M "F 2 2 2"
_symmetry_group_IT_number 22
_symmetry_cell_setting 'orthorhombic'
loop_
_space_group_symop_operation_xyz
x,y,z
-x,-y,z
x,-y,-z
-x,y,-z
x,1/2+y,1/2+z
-x,1/2-y,1/2+z
x,1/2-y,1/2-z
-x,1/2+y,1/2-z
1/2+x,y,1/2+z
1/2-x,-y,1/2+z
1/2+x,-y,1/2-z
1/2-x,y,1/2-z
1/2+x,1/2+y,z
1/2-x,1/2-y,z
1/2+x,1/2-y,-z
1/2-x,1/2+y,-z
loop_
_atom_site_type_symbol
_atom_site_label
_atom_site_fract_x
_atom_site_fract_y
_atom_site_fract_z
Si Si1 0.000000 0.912296 0.500000
Si Si2 0.387646 0.634149 0.625779
Si Si3 0.533712 0.082251 0.760951
Si Si4 0.830212 0.793793 0.451182
Si Si5 0.214239 0.973416 0.061168
Si Si6 0.000000 0.652382 0.500000
Si Si7 0.995489 0.595152 0.618697
Si Si8 0.000000 0.500000 0.162855
O O1 0.041232 0.883864 0.559450
O O2 0.152283 0.940661 0.470541
O O3 0.493851 0.617692 0.687204
O O4 0.379945 0.681502 0.613942
O O5 0.194817 0.612325 0.628424
O O6 0.750000 0.079580 0.750000
O O7 0.433482 0.091631 0.693536
O O8 0.488551 0.039757 0.793717
O O9 0.750000 0.750000 0.438958
O O10 0.668330 0.820265 0.480889
O O11 0.000000 0.791436 0.500000
O O12 0.048480 0.948938 0.091297
O O13 0.326991 0.997613 0.115477
O O14 0.174971 0.000000 0.000000
O O15 0.064592 0.624913 0.439360
#
# Coordination Sequence:
#
# PCOD9327694 Si02
#       8
#     8  16  16  16  16   8  16   8
#     4  12  19  39  60  82 119 166 213 254 328 383
#     4  10  21  42  65  89 126 167 210 261 328 394
#     4  10  23  42  59  85 122 169 221 268 327 385
#     4  11  21  37  68 106 136 166 202 267 330 398
#     4  12  22  39  59  85 119 165 219 285 331 374
#     4  10  22  43  63 102 131 160 227 261 330 407
#     4  10  24  41  63  88 121 166 219 279 317 389
#     4  12  23  38  56  83 122 166 222 276 320 391
#
# _framework density 20.224333999999999
#
# number of rings (size 3 to 8) (size 9 to 14) (size 15 to 20)
#    0.000    1.231    4.615    1.846    2.154    1.231 
#    0.000    4.615    0.000   11.538    0.000    1.077 
#    0.000    0.000    0.000    0.000    0.000    0.000 
#
# Total GULP energy -145072.366867 kJ/mol
# GULP energy per Si atom -5579.706418 kJ/mol
# Density = 2.017830 g / cm^3
# Si number density = 20.224334 Si / 1000 Ang^3
#
#
#
# Elastic Constant Matrix: (Units=GPa)
#
#
# Indices 1 2 3 4 5 6 
#
# 1 45.7975 33.1802 7.6091 0.0000 0.0000 0.0000
# 2 33.1802 149.3275 86.6186 0.0000 0.0000 0.0000
# 3 7.6091 86.6186 161.4538 0.0000 0.0000 0.0000
# 4 0.0000 0.0000 0.0000 -2.3243 0.0000 0.0000
# 5 0.0000 0.0000 0.0000 0.0000 18.0836 0.0000
# 6 0.0000 0.0000 0.0000 0.0000 0.0000 31.1607
#
#
#
# Elastic Compliance Matrix: (Units=1/GPa)
#
#
# Indices 1 2 3 4 5 6 
#
# 1 0.026877 -0.007603 0.002812 0.000000 0.000000 0.000000
# 2 -0.007603 0.011873 -0.006012 0.000000 0.000000 0.000000
# 3 0.002812 -0.006012 0.009286 0.000000 0.000000 0.000000
# 4 0.000000 0.000000 0.000000 -0.430238 0.000000 0.000000
# 5 0.000000 0.000000 0.000000 0.000000 0.055299 0.000000
# 6 0.000000 0.000000 0.000000 0.000000 0.000000 0.032092
#
#
# Mechanical properties :
#
#
# Convention : Reuss Voigt Hill
#
# Bulk Modulus (GPa) = 37.83398 67.93273 52.88336
# Shear Modulus (GPa) = -18.91102 24.66205 2.87551
#
# Velocity S-wave (km/s) = -3.06120 3.49581 1.19369
# Velocity P-wave (km/s) = 2.50064 7.06801 5.30142
#
# Compressibility (1/GPa) = 0.02643126
#
# Stress axis : x y z
#
# Youngs Moduli (GPa) = 37.20722 84.22376 107.68553
#
# Poissons Ratio (x) = 0.64037 -0.30286
# Poissons Ratio (y) = 0.28290 0.64735
# Poissons Ratio (z) = -0.10464 0.50631
#
# Static dielectric constant tensor:
#      x y z
#    x 1.845200 0.000000 0.000000 
#    y 0.000000 1.712380 0.000000 
#    z 0.000000 0.000000 1.757480 
# 
# From -- ./inp_files/42122.got.cif
#   From: 2010.05.17/outbox.cif.g08.bks.cpg/sg22_22_cif.got.tgz:42122.got - 2010.06.03 23:40:54.
