data_PCOD9327583
_publ_section_title
;
Structure prediction by ZEFSAII (Michael W. Deem and Ramdas Pophale) SiO2 
 PCOD9327583
Probable space group: F 2 2 2
;
_chemical_formula_sum "Si O2"
_cell_formula_units_Z 96
_cell_length_a 15.278508
_cell_length_b 23.953915
_cell_length_c 14.223627
_cell_angle_alpha 90.000000
_cell_angle_beta 90.000000
_cell_angle_gamma 90.000000
_cell_volume 5205.564175
_symmetry_space_group_name_H-M "F 2 2 2"
_symmetry_group_IT_number 22
_symmetry_cell_setting 'orthorhombic'
loop_
_space_group_symop_operation_xyz
x,y,z
-x,-y,z
x,-y,-z
-x,y,-z
x,1/2+y,1/2+z
-x,1/2-y,1/2+z
x,1/2-y,1/2-z
-x,1/2+y,1/2-z
1/2+x,y,1/2+z
1/2-x,-y,1/2+z
1/2+x,-y,1/2-z
1/2-x,y,1/2-z
1/2+x,1/2+y,z
1/2-x,1/2-y,z
1/2+x,1/2-y,-z
1/2-x,1/2+y,-z
loop_
_atom_site_type_symbol
_atom_site_label
_atom_site_fract_x
_atom_site_fract_y
_atom_site_fract_z
Si Si1 0.100560 0.510499 0.207389
Si Si2 0.750000 0.575540 0.250000
Si Si3 0.753901 0.382181 0.955012
Si Si4 0.592394 0.178127 0.449522
Si Si5 0.145021 0.861295 0.254163
Si Si6 0.830303 0.000000 0.500000
Si Si7 0.594091 0.189380 0.047015
O O1 0.165631 0.464987 0.251839
O O2 0.130225 0.572409 0.235964
O O3 0.000000 0.500000 0.232484
O O4 0.113385 0.503888 0.094835
O O5 0.751942 0.612007 0.156672
O O6 0.772038 0.444397 0.993954
O O7 0.666518 0.356296 0.996660
O O8 0.833419 0.343756 0.988590
O O9 0.500000 0.167438 0.500000
O O10 0.599504 0.160496 0.340580
O O11 0.609860 0.244384 0.455486
O O12 0.250000 0.850121 0.250000
O O13 0.103953 0.832233 0.346158
O O14 0.500000 0.177998 0.000000
#
# Coordination Sequence:
#
# PCOD9327583 Si02
#       7
#    16   8  16  16  16   8  16
#     4  11  23  38  64  94 131 170 216 263 334 391
#     4  10  26  40  57  96 133 168 214 262 316 418
#     4  11  23  42  65  91 135 172 214 274 333 384
#     4  11  26  44  65  97 135 173 222 273 332 400
#     4  12  23  43  71  99 130 174 225 281 328 390
#     4  10  21  40  63 100 124 166 221 274 317 394
#     4  11  25  43  69 100 125 170 233 279 323 384
#
# _framework density 18.441804999999999
#
# number of rings (size 3 to 8) (size 9 to 14) (size 15 to 20)
#    0.000    1.000    4.167    1.250    9.333    0.667 
#    0.000    3.750    0.000    0.000    0.000    0.000 
#    0.000    0.000    0.000    0.000    0.000    0.000 
#
# Total GULP energy -134186.814194 kJ/mol
# GULP energy per Si atom -5591.117258 kJ/mol
# Density = 1.839983 g / cm^3
# Si number density = 18.441805 Si / 1000 Ang^3
#
#
#
# Elastic Constant Matrix: (Units=GPa)
#
#
# Indices 1 2 3 4 5 6 
#
# 1 146.4199 78.1774 84.8480 0.0000 0.0000 0.0000
# 2 78.1774 107.8829 76.4986 0.0000 0.0000 0.0000
# 3 84.8480 76.4986 137.9114 0.0000 0.0000 0.0000
# 4 0.0000 0.0000 0.0000 25.2095 0.0000 0.0000
# 5 0.0000 0.0000 0.0000 0.0000 25.4731 0.0000
# 6 0.0000 0.0000 0.0000 0.0000 0.0000 48.5162
#
#
#
# Elastic Compliance Matrix: (Units=1/GPa)
#
#
# Indices 1 2 3 4 5 6 
#
# 1 0.012590 -0.005985 -0.004426 0.000000 0.000000 0.000000
# 2 -0.005985 0.018124 -0.006371 0.000000 0.000000 0.000000
# 3 -0.004426 -0.006371 0.013508 0.000000 0.000000 0.000000
# 4 0.000000 0.000000 0.000000 0.039668 0.000000 0.000000
# 5 0.000000 0.000000 0.000000 0.000000 0.039257 0.000000
# 6 0.000000 0.000000 0.000000 0.000000 0.000000 0.020612
#
#
# Mechanical properties :
#
#
# Convention : Reuss Voigt Hill
#
# Bulk Modulus (GPa) = 93.82660 96.80692 95.31676
# Shear Modulus (GPa) = 27.64340 30.01912 28.83126
#
# Velocity S-wave (km/s) = 3.87583 4.03895 3.95823
# Velocity P-wave (km/s) = 8.42716 8.62310 8.52569
#
# Compressibility (1/GPa) = 0.01065796
#
# Stress axis : x y z
#
# Youngs Moduli (GPa) = 79.42834 55.17563 74.02964
#
# Poissons Ratio (x) = 0.33022 0.32766
# Poissons Ratio (y) = 0.47537 0.47165
# Poissons Ratio (z) = 0.35155 0.35153
#
# Static dielectric constant tensor:
#      x y z
#    x 1.620630 0.000000 0.000000 
#    y 0.000000 1.614260 0.000000 
#    z 0.000000 0.000000 1.631530 
# 
# From -- ./inp_files/29411.got.cif
#   From: 2010.05.17/outbox.cif.g08.bks.cpg/sg22_15_cif.got.tgz:29411.got - 2010.06.03 23:40:54.
