data_PCOD9327147
_publ_section_title
;
Structure prediction by ZEFSAII (Michael W. Deem and Ramdas Pophale) SiO2 
 PCOD9327147
Probable space group: F 2 2 2
;
_chemical_formula_sum "Si O2"
_cell_formula_units_Z 60
_cell_length_a 30.287489
_cell_length_b 14.405755
_cell_length_c 5.966190
_cell_angle_alpha 90.000000
_cell_angle_beta 90.000000
_cell_angle_gamma 90.000000
_cell_volume 2603.133095
_symmetry_space_group_name_H-M "F 2 2 2"
_symmetry_group_IT_number 22
_symmetry_cell_setting 'orthorhombic'
loop_
_space_group_symop_operation_xyz
x,y,z
-x,-y,z
x,-y,-z
-x,y,-z
x,1/2+y,1/2+z
-x,1/2-y,1/2+z
x,1/2-y,1/2-z
-x,1/2+y,1/2-z
1/2+x,y,1/2+z
1/2-x,-y,1/2+z
1/2+x,-y,1/2-z
1/2-x,y,1/2-z
1/2+x,1/2+y,z
1/2-x,1/2-y,z
1/2+x,1/2-y,-z
1/2-x,1/2+y,-z
loop_
_atom_site_type_symbol
_atom_site_label
_atom_site_fract_x
_atom_site_fract_y
_atom_site_fract_z
Si Si1 0.750000 0.750000 0.750000
Si Si2 0.124087 0.097460 0.386146
Si Si3 0.292741 0.149093 0.364619
Si Si4 0.606209 0.750000 0.750000
Si Si5 0.956469 0.157259 0.889839
O O1 0.719450 0.821112 0.612848
O O2 0.160789 0.104949 0.191438
O O3 0.129356 0.181240 0.568662
O O4 0.075222 0.102823 0.280112
O O5 0.130819 0.000000 0.500000
O O6 0.295196 0.250000 0.250000
O O7 0.250000 0.100609 0.250000
O O8 0.575297 0.813071 0.593211
O O9 0.970103 0.250000 0.750000
O O10 0.000000 0.114521 0.000000
#
# Coordination Sequence:
#
# PCOD9327147 Si02
#       5
#     4  16  16   8  16
#     4   8  18  38  72 102 132 180 244 296 334 434
#     4  11  25  42  68 104 145 185 236 296 362 428
#     4   9  19  38  70 100 132 181 232 286 354 419
#     4  10  22  43  70  97 136 180 229 298 339 432
#     4  10  20  39  70  99 132 183 234 287 352 416
#
# _framework density 23.049150000000001
#
# number of rings (size 3 to 8) (size 9 to 14) (size 15 to 20)
#    0.000    2.400    1.333    2.400    0.000   10.667 
#    0.000    4.000   35.200    0.000    0.000    0.000 
#    0.000    0.000    0.000    0.000    0.000    0.000 
#
# Total GULP energy -83750.807380 kJ/mol
# GULP energy per Si atom -5583.387159 kJ/mol
# Density = 2.299669 g / cm^3
# Si number density = 23.049150 Si / 1000 Ang^3
#
#
#
# Elastic Constant Matrix: (Units=GPa)
#
#
# Indices 1 2 3 4 5 6 
#
# 1 158.1626 52.9325 60.7951 0.0000 0.0000 0.0000
# 2 52.9325 62.3187 28.9733 0.0000 0.0000 0.0000
# 3 60.7951 28.9733 125.9220 -0.0001 0.0001 0.0000
# 4 0.0000 0.0000 -0.0001 16.2710 0.0000 0.0000
# 5 0.0000 0.0000 0.0001 0.0000 32.0897 0.0000
# 6 0.0000 0.0000 0.0000 0.0000 0.0000 -7.2282
#
#
#
# Elastic Compliance Matrix: (Units=1/GPa)
#
#
# Indices 1 2 3 4 5 6 
#
# 1 0.009847 -0.006890 -0.003168 0.000000 0.000000 0.000000
# 2 -0.006890 0.022790 -0.001917 0.000000 0.000000 0.000000
# 3 -0.003168 -0.001917 0.009912 0.000000 0.000000 0.000000
# 4 0.000000 0.000000 0.000000 0.061459 0.000000 0.000000
# 5 0.000000 0.000000 0.000000 0.000000 0.031163 0.000000
# 6 0.000000 0.000000 0.000000 0.000000 0.000000 -0.138347
#
#
# Mechanical properties :
#
#
# Convention : Reuss Voigt Hill
#
# Bulk Modulus (GPa) = 53.77158 70.20057 61.98608
# Shear Modulus (GPa) = 185.35503 21.80666 103.58084
#
# Velocity S-wave (km/s) = 8.97730 3.07920 6.71094
# Velocity P-wave (km/s) = 11.43834 6.57001 9.32739
#
# Compressibility (1/GPa) = 0.01859718
#
# Stress axis : x y z
#
# Youngs Moduli (GPa) = 101.55850 43.87802 100.88484
#
# Poissons Ratio (x) = 0.30234 0.31965
# Poissons Ratio (y) = 0.69978 0.19341
# Poissons Ratio (z) = 0.32179 0.08412
#
# Static dielectric constant tensor:
#      x y z
#    x 1.912900 0.000000 0.000000 
#    y 0.000000 1.968640 0.000000 
#    z 0.000000 0.000000 2.033260 
# 
# From -- ./inp_files/6103.got.cif
#   From: 2010.05.17/outbox.cif.g08.bks.cpg/sg22_4_cif.got.tgz:6103.got - 2010.06.03 23:40:54.
