data_PCOD9327324
_publ_section_title
;
Structure prediction by ZEFSAII (Michael W. Deem and Ramdas Pophale) SiO2 
 PCOD9327324
Probable space group: F 2 2 2
;
_chemical_formula_sum "Si O2"
_cell_formula_units_Z 108
_cell_length_a 22.687844
_cell_length_b 19.098630
_cell_length_c 13.702227
_cell_angle_alpha 90.000000
_cell_angle_beta 90.000000
_cell_angle_gamma 90.000000
_cell_volume 5937.267285
_symmetry_space_group_name_H-M "F 2 2 2"
_symmetry_group_IT_number 22
_symmetry_cell_setting 'orthorhombic'
loop_
_space_group_symop_operation_xyz
x,y,z
-x,-y,z
x,-y,-z
-x,y,-z
x,1/2+y,1/2+z
-x,1/2-y,1/2+z
x,1/2-y,1/2-z
-x,1/2+y,1/2-z
1/2+x,y,1/2+z
1/2-x,-y,1/2+z
1/2+x,-y,1/2-z
1/2-x,y,1/2-z
1/2+x,1/2+y,z
1/2-x,1/2-y,z
1/2+x,1/2-y,-z
1/2-x,1/2+y,-z
loop_
_atom_site_type_symbol
_atom_site_label
_atom_site_fract_x
_atom_site_fract_y
_atom_site_fract_z
Si Si1 0.000000 0.000000 0.000000
Si Si2 0.425244 0.119928 0.608673
Si Si3 0.250000 0.596254 0.250000
Si Si4 0.128714 0.828595 0.293545
Si Si5 0.250844 0.865948 0.859732
Si Si6 0.649391 0.752513 0.143165
Si Si7 0.561320 0.230662 0.030922
Si Si8 0.303514 0.069379 0.545916
O O1 0.038823 0.946231 0.066771
O O2 0.411776 0.122749 0.724117
O O3 0.453354 0.194785 0.582419
O O4 0.358762 0.120380 0.563557
O O5 0.194851 0.641893 0.211198
O O6 0.273753 0.558390 0.151879
O O7 0.100803 0.750795 0.561509
O O8 0.099727 0.817935 0.398287
O O9 0.250000 0.899367 0.750000
O O10 0.310740 0.821846 0.866689
O O11 0.196533 0.810712 0.860081
O O12 0.241018 0.907400 0.960331
O O13 0.621415 0.750000 0.250000
O O14 0.630525 0.250000 0.250000
O O15 0.500000 0.196900 0.000000
O O16 0.330976 0.000000 0.500000
#
# Coordination Sequence:
#
# PCOD9327324 Si02
#       8
#     4  16   8  16  16  16  16  16
#     4  12  20  40  56  72 114 148 192 226 262 324
#     4  10  21  35  55  79 105 147 190 227 275 328
#     4  10  21  36  56  80 108 149 190 224 294 348
#     4   9  20  36  56  85 113 142 183 232 291 345
#     4   9  18  33  54  77 109 139 177 228 275 332
#     4   9  18  32  53  81 105 141 178 215 279 337
#     4  11  20  34  54  82 118 143 179 235 288 344
#     4  11  21  34  52  77 109 142 185 233 271 329
#
# _framework density 18.190187000000002
#
# number of rings (size 3 to 8) (size 9 to 14) (size 15 to 20)
#    0.000    2.074    2.963    2.000    1.037    1.778 
#    0.000    0.000    0.000    1.778    0.000    0.000 
#    0.000    0.000    0.000    0.000    0.000    0.000 
#
# Total GULP energy -150311.466988 kJ/mol
# GULP energy per Si atom -5567.091370 kJ/mol
# Density = 1.814879 g / cm^3
# Si number density = 18.190187 Si / 1000 Ang^3
#
#
#
# Elastic Constant Matrix: (Units=GPa)
#
#
# Indices 1 2 3 4 5 6 
#
# 1 81.9807 9.4904 46.4257 0.0000 0.0000 0.0000
# 2 9.4904 34.5732 25.2089 0.0000 0.0000 0.0000
# 3 46.4257 25.2089 123.0503 0.0000 0.0000 0.0000
# 4 0.0000 0.0000 0.0000 15.9437 0.0000 0.0000
# 5 0.0000 0.0000 0.0000 0.0000 25.2236 0.0000
# 6 0.0000 0.0000 0.0000 0.0000 0.0000 8.9398
#
#
#
# Elastic Compliance Matrix: (Units=1/GPa)
#
#
# Indices 1 2 3 4 5 6 
#
# 1 0.015512 0.000011 -0.005855 0.000000 0.000000 0.000000
# 2 0.000011 0.034004 -0.006970 0.000000 0.000000 0.000000
# 3 -0.005855 -0.006970 0.011764 0.000000 0.000000 0.000000
# 4 0.000000 0.000000 0.000000 0.062721 0.000000 0.000000
# 5 0.000000 0.000000 0.000000 0.000000 0.039645 0.000000
# 6 0.000000 0.000000 0.000000 0.000000 0.000000 0.111859
#
#
# Mechanical properties :
#
#
# Convention : Reuss Voigt Hill
#
# Bulk Modulus (GPa) = 28.04967 44.65048 36.35008
# Shear Modulus (GPa) = 15.97358 20.58670 18.28014
#
# Velocity S-wave (km/s) = 2.96656 3.36780 3.17353
# Velocity P-wave (km/s) = 5.21418 6.30258 5.78404
#
# Compressibility (1/GPa) = 0.03565104
#
# Stress axis : x y z
#
# Youngs Moduli (GPa) = 64.46467 29.40868 85.00696
#
# Poissons Ratio (x) = -0.00032 0.49771
# Poissons Ratio (y) = -0.00070 0.59253
# Poissons Ratio (z) = 0.37743 0.20499
#
# Static dielectric constant tensor:
#      x y z
#    x 1.610750 0.000000 0.000000 
#    y 0.000000 1.643990 0.000000 
#    z 0.000000 0.000000 1.672720 
# 
# From -- ./inp_files/23992.got.cif
#   From: 2010.05.17/outbox.cif.g08.bks.cpg/sg22_12_cif.got.tgz:23992.got - 2010.06.03 23:40:54.
