data_PCOD9327166
_publ_section_title
;
Structure prediction by ZEFSAII (Michael W. Deem and Ramdas Pophale) SiO2 
 PCOD9327166
Probable space group: F 2 2 2
;
_chemical_formula_sum "Si O2"
_cell_formula_units_Z 80
_cell_length_a 23.574515
_cell_length_b 8.509045
_cell_length_c 19.265464
_cell_angle_alpha 90.000000
_cell_angle_beta 90.000000
_cell_angle_gamma 90.000000
_cell_volume 3864.586749
_symmetry_space_group_name_H-M "F 2 2 2"
_symmetry_group_IT_number 22
_symmetry_cell_setting 'orthorhombic'
loop_
_space_group_symop_operation_xyz
x,y,z
-x,-y,z
x,-y,-z
-x,y,-z
x,1/2+y,1/2+z
-x,1/2-y,1/2+z
x,1/2-y,1/2-z
-x,1/2+y,1/2-z
1/2+x,y,1/2+z
1/2-x,-y,1/2+z
1/2+x,-y,1/2-z
1/2-x,y,1/2-z
1/2+x,1/2+y,z
1/2-x,1/2-y,z
1/2+x,1/2-y,-z
1/2-x,1/2+y,-z
loop_
_atom_site_type_symbol
_atom_site_label
_atom_site_fract_x
_atom_site_fract_y
_atom_site_fract_z
Si Si1 0.750000 0.250000 0.924473
Si Si2 0.942962 0.437698 0.757097
Si Si3 0.918022 0.057387 0.891688
Si Si4 0.000000 0.768932 0.000000
Si Si5 0.913478 0.000000 0.500000
Si Si6 0.669862 0.000000 0.500000
Si Si7 0.145928 0.619578 0.864519
O O1 0.709168 0.358120 0.972436
O O2 0.787377 0.360667 0.874215
O O3 0.951489 0.250000 0.750000
O O4 0.938687 0.514343 0.680576
O O5 0.885347 0.461829 0.800287
O O6 0.000000 0.500000 0.793388
O O7 0.967855 0.131958 0.940036
O O8 0.874967 0.956688 0.938752
O O9 0.880026 0.204616 0.866346
O O10 0.048082 0.646812 0.023982
O O11 0.875882 0.955146 0.435220
#
# Coordination Sequence:
#
# PCOD9327166 Si02
#       7
#     8  16  16   8   8   8  16
#     4  10  20  40  61  84 111 152 202 260 286 324
#     4  10  22  37  55  83 123 154 187 230 296 360
#     4   9  20  34  52  85 116 150 183 230 299 355
#     4   9  18  29  54  84 122 154 182 232 292 362
#     4   9  17  30  55  86 115 156 199 231 286 346
#     4  10  21  37  59  84 112 146 207 240 296 346
#     4   9  19  35  56  83 113 152 200 239 283 341
#
# _framework density 20.700790000000001
#
# number of rings (size 3 to 8) (size 9 to 14) (size 15 to 20)
#    0.000    2.600    0.000    0.600   11.200    0.000 
#    0.000   14.500    0.000    0.000    0.000    8.400 
#    0.000    0.000    0.000    0.000    0.000    0.000 
#
# Total GULP energy -111438.182602 kJ/mol
# GULP energy per Si atom -5571.909130 kJ/mol
# Density = 2.065367 g / cm^3
# Si number density = 20.700790 Si / 1000 Ang^3
#
#
#
# Elastic Constant Matrix: (Units=GPa)
#
#
# Indices 1 2 3 4 5 6 
#
# 1 137.7670 29.9463 68.2178 0.0000 -0.0040 0.0000
# 2 29.9463 30.9299 4.8491 0.0000 -0.0105 0.0000
# 3 68.2178 4.8491 99.8361 0.0000 -0.0025 0.0000
# 4 0.0000 0.0000 0.0000 20.9588 -0.0034 0.0000
# 5 -0.0040 -0.0105 -0.0025 -0.003496738.4514 0.0056
# 6 0.0000 0.0000 0.0000 0.0000 0.0056 32.6339
#
#
#
# Elastic Compliance Matrix: (Units=1/GPa)
#
#
# Indices 1 2 3 4 5 6 
#
# 1 0.014696 -0.012752 -0.009423 0.000000 0.000000 0.000000
# 2 -0.012752 0.043644 0.006593 0.000000 0.000000 0.000000
# 3 -0.009423 0.006593 0.016135 0.000000 0.000000 0.000000
# 4 0.000000 0.000000 0.000000 0.047713 0.000000 0.000000
# 5 0.000000 0.000000 0.000000 0.000000 0.000010 0.000000
# 6 0.000000 0.000000 0.000000 0.000000 0.000000 0.030643
#
#
# Mechanical properties :
#
#
# Convention : Reuss Voigt Hill
#
# Bulk Modulus (GPa) = 23.08786 52.72881 37.90834
# Shear Modulus (GPa) = 25.19662 19369.44349 9697.32006
#
# Velocity S-wave (km/s) = 3.49260 96.83581 68.51778
# Velocity P-wave (km/s) = 5.23848 111.93046 79.23342
#
# Compressibility (1/GPa) = 0.04331281
#
# Stress axis : x y z
#
# Youngs Moduli (GPa) = 68.04496 22.91287 61.97879
#
# Poissons Ratio (x) = 0.29218 0.58400
# Poissons Ratio (y) = 0.86768 -0.40865
# Poissons Ratio (z) = 0.64115 -0.15107
#
# Static dielectric constant tensor:
#      x y z
#    x 1.787340 0.000000 0.000000 
#    y 0.000000 -4.460830 0.000000 
#    z 0.000000 0.000000 1.807060 
# 
# From -- ./inp_files/12590.got.cif
#   From: 2010.05.17/outbox.cif.g08.bks.cpg/sg22_7_cif.got.tgz:12590.got - 2010.06.03 23:40:54.
