data_PCOD9327731
_publ_section_title
;
Structure prediction by ZEFSAII (Michael W. Deem and Ramdas Pophale) SiO2 
 PCOD9327731
Probable space group: F 2 2 2
;
_chemical_formula_sum "Si O2"
_cell_formula_units_Z 52
_cell_length_a 5.594819
_cell_length_b 32.163626
_cell_length_c 13.660293
_cell_angle_alpha 90.000000
_cell_angle_beta 90.000000
_cell_angle_gamma 90.000000
_cell_volume 2458.165161
_symmetry_space_group_name_H-M "F 2 2 2"
_symmetry_group_IT_number 22
_symmetry_cell_setting 'orthorhombic'
loop_
_space_group_symop_operation_xyz
x,y,z
-x,-y,z
x,-y,-z
-x,y,-z
x,1/2+y,1/2+z
-x,1/2-y,1/2+z
x,1/2-y,1/2-z
-x,1/2+y,1/2-z
1/2+x,y,1/2+z
1/2-x,-y,1/2+z
1/2+x,-y,1/2-z
1/2-x,y,1/2-z
1/2+x,1/2+y,z
1/2-x,1/2-y,z
1/2+x,1/2-y,-z
1/2-x,1/2+y,-z
loop_
_atom_site_type_symbol
_atom_site_label
_atom_site_fract_x
_atom_site_fract_y
_atom_site_fract_z
Si Si1 0.999561 0.767395 0.637860
Si Si2 0.500000 0.656967 0.500000
Si Si3 0.000000 0.893090 0.000000
Si Si4 0.141749 0.457568 0.350966
Si Si5 0.000000 0.500000 0.000000
O O1 0.999503 0.750000 0.750000
O O2 0.250000 0.750000 0.600132
O O3 0.750000 0.750000 0.599600
O O4 0.996482 0.814706 0.599118
O O5 0.249004 0.632131 0.504000
O O6 0.987316 0.922999 0.905194
O O7 0.250000 0.441780 0.250000
O O8 0.339896 0.471506 0.429783
O O9 0.000000 0.500000 0.328567
#
# Coordination Sequence:
#
# PCOD9327731 Si02
#       5
#    16   8   8  16   4
#     4  10  21  42  73  98 129 183 244 280 340 442
#     4  12  25  45  71 104 149 184 227 306 377 417
#     4  12  27  47  68 112 154 184 229 313 380 419
#     4  12  25  44  76 101 141 205 256 297 353 442
#     4  12  20  44  76 100 134 186 272 296 344 420
#
# _framework density 21.153988999999999
#
# number of rings (size 3 to 8) (size 9 to 14) (size 15 to 20)
#    0.000    0.615    4.615    3.692    0.000    0.000 
#   16.615    0.000    0.000    0.000    0.000    0.000 
#    0.000    0.000    0.000    0.000    0.000    0.000 
#
# Total GULP energy -72476.786571 kJ/mol
# GULP energy per Si atom -5575.137429 kJ/mol
# Density = 2.110584 g / cm^3
# Si number density = 21.153989 Si / 1000 Ang^3
#
#
#
# Elastic Constant Matrix: (Units=GPa)
#
#
# Indices 1 2 3 4 5 6 
#
# 1 172.8684 54.6926 26.2431 0.0000 0.0000 0.0000
# 2 54.6926 113.6596 41.3522 0.0000 0.0000 0.0000
# 3 26.2431 41.3522 172.8659 0.0000 0.0000 0.0000
# 4 0.0000 0.0000 0.0000 -33.8068 0.0000 0.0000
# 5 0.0000 0.0000 0.0000 0.0000 -39.4456 0.0000
# 6 0.0000 0.0000 0.0000 0.0000 0.0000 74.3878
#
#
#
# Elastic Compliance Matrix: (Units=1/GPa)
#
#
# Indices 1 2 3 4 5 6 
#
# 1 0.006835 -0.003189 -0.000275 0.000000 0.000000 0.000000
# 2 -0.003189 0.011125 -0.002177 0.000000 0.000000 0.000000
# 3 -0.000275 -0.002177 0.006347 0.000000 0.000000 0.000000
# 4 0.000000 0.000000 0.000000 -0.029580 0.000000 0.000000
# 5 0.000000 0.000000 0.000000 0.000000 -0.025351 0.000000
# 6 0.000000 0.000000 0.000000 0.000000 0.000000 0.013443
#
#
# Mechanical properties :
#
#
# Convention : Reuss Voigt Hill
#
# Bulk Modulus (GPa) = 76.77239 78.21886 77.49562
# Shear Modulus (GPa) = -3212.61738 22.70082 -1594.95828
#
# Velocity S-wave (km/s) = -39.01254 3.27941 -27.48840
# Velocity P-wave (km/s) = 44.64229 7.16907 31.15717
#
# Compressibility (1/GPa) = 0.01302552
#
# Stress axis : x y z
#
# Youngs Moduli (GPa) = 146.29547 89.88826 157.54624
#
# Poissons Ratio (x) = 0.28667 0.04329
# Poissons Ratio (y) = 0.46657 0.34299
# Poissons Ratio (z) = 0.04020 0.19569
#
# Static dielectric constant tensor:
#      x y z
#    x 1.783790 0.000000 0.000000 
#    y 0.000000 1.781960 0.000000 
#    z 0.000000 0.000000 1.692570 
# 
# From -- ./inp_files/1948.got.cif
#   From: 2010.05.17/outbox.cif.g08.bks.cpg/sg22_1_cif.got.tgz:1948.got - 2010.06.03 23:40:54.
