data_PCOD9327418
_publ_section_title
;
Structure prediction by ZEFSAII (Michael W. Deem and Ramdas Pophale) SiO2 
 PCOD9327418
Probable space group: F 2 2 2
;
_chemical_formula_sum "Si O2"
_cell_formula_units_Z 68
_cell_length_a 9.161067
_cell_length_b 20.775451
_cell_length_c 19.558851
_cell_angle_alpha 90.000000
_cell_angle_beta 90.000000
_cell_angle_gamma 90.000000
_cell_volume 3722.544156
_symmetry_space_group_name_H-M "F 2 2 2"
_symmetry_group_IT_number 22
_symmetry_cell_setting 'orthorhombic'
loop_
_space_group_symop_operation_xyz
x,y,z
-x,-y,z
x,-y,-z
-x,y,-z
x,1/2+y,1/2+z
-x,1/2-y,1/2+z
x,1/2-y,1/2-z
-x,1/2+y,1/2-z
1/2+x,y,1/2+z
1/2-x,-y,1/2+z
1/2+x,-y,1/2-z
1/2-x,y,1/2-z
1/2+x,1/2+y,z
1/2-x,1/2-y,z
1/2+x,1/2-y,-z
1/2-x,1/2+y,-z
loop_
_atom_site_type_symbol
_atom_site_label
_atom_site_fract_x
_atom_site_fract_y
_atom_site_fract_z
Si Si1 0.088355 0.397359 0.605520
Si Si2 0.145078 0.158971 0.686296
Si Si3 0.923753 0.432657 0.740390
Si Si4 0.583825 0.247252 0.435425
Si Si5 0.000000 0.500000 0.500000
O O1 0.245121 0.385828 0.641747
O O2 0.042956 0.326978 0.577835
O O3 0.092053 0.451809 0.547886
O O4 0.971415 0.418852 0.662355
O O5 0.250000 0.178792 0.750000
O O6 0.086632 0.214730 0.636370
O O7 0.006822 0.121413 0.715796
O O8 0.750000 0.434394 0.750000
O O9 0.000000 0.500000 0.759311
O O10 0.500000 0.275697 0.500000
O O11 0.750000 0.250000 0.458290
#
# Coordination Sequence:
#
# PCOD9327418 Si02
#       5
#    16  16  16  16   4
#     4  10  21  37  62  86 118 163 200 242 303 367
#     4   9  21  41  61  87 120 164 208 251 302 365
#     4  11  22  38  61  88 117 155 202 256 306 365
#     4  10  21  38  59  89 125 163 200 249 305 364
#     4  12  20  36  64  90 120 160 202 240 300 380
#
# _framework density 18.267075999999999
#
# number of rings (size 3 to 8) (size 9 to 14) (size 15 to 20)
#    0.000    1.882    2.353    2.118    0.000   12.706 
#    0.000    1.176    0.000    1.412    0.000    0.000 
#    0.000    0.000    0.000    0.000    0.000    0.000 
#
# Total GULP energy -94767.685026 kJ/mol
# GULP energy per Si atom -5574.569707 kJ/mol
# Density = 1.822550 g / cm^3
# Si number density = 18.267076 Si / 1000 Ang^3
#
#
#
# Elastic Constant Matrix: (Units=GPa)
#
#
# Indices 1 2 3 4 5 6 
#
# 1 107.0122 53.3935 51.4309 0.0000 0.0000 0.0000
# 2 53.3935 121.4609 71.8725 0.0000 0.0000 0.0000
# 3 51.4309 71.8725 132.0304 0.0000 0.0000 0.0000
# 4 0.0000 0.0000 0.0000 120.1493 0.0000 0.0000
# 5 0.0000 0.0000 0.0000 0.0000 14.4926 0.0000
# 6 0.0000 0.0000 0.0000 0.0000 0.0000 14.4559
#
#
#
# Elastic Compliance Matrix: (Units=1/GPa)
#
#
# Indices 1 2 3 4 5 6 
#
# 1 0.012635 -0.003897 -0.002800 0.000000 0.000000 0.000000
# 2 -0.003897 0.013347 -0.005748 0.000000 0.000000 0.000000
# 3 -0.002800 -0.005748 0.011794 0.000000 0.000000 0.000000
# 4 0.000000 0.000000 0.000000 0.008323 0.000000 0.000000
# 5 0.000000 0.000000 0.000000 0.000000 0.069001 0.000000
# 6 0.000000 0.000000 0.000000 0.000000 0.000000 0.069176
#
#
# Mechanical properties :
#
#
# Convention : Reuss Voigt Hill
#
# Bulk Modulus (GPa) = 77.60593 79.32191 78.46392
# Shear Modulus (GPa) = 23.42343 42.07336 32.74839
#
# Velocity S-wave (km/s) = 3.58477 4.80441 4.23869
# Velocity P-wave (km/s) = 7.72725 8.61941 8.18549
#
# Compressibility (1/GPa) = 0.01288561
#
# Stress axis : x y z
#
# Youngs Moduli (GPa) = 79.14448 74.92081 84.79114
#
# Poissons Ratio (x) = 0.29199 0.23744
# Poissons Ratio (y) = 0.30845 0.48735
# Poissons Ratio (z) = 0.22163 0.43062
#
# Static dielectric constant tensor:
#      x y z
#    x 1.572240 0.000000 0.000000 
#    y 0.000000 1.692290 0.000000 
#    z 0.000000 0.000000 1.676320 
# 
# From -- ./inp_files/11242.got.cif
#   From: 2010.05.17/outbox.cif.g08.bks.cpg/sg22_6_cif.got.tgz:11242.got - 2010.06.03 23:40:54.
