data_PCOD9327914
_publ_section_title
;
Structure prediction by ZEFSAII (Michael W. Deem and Ramdas Pophale) SiO2 
 PCOD9327914
Probable space group: F 2 2 2
;
_chemical_formula_sum "Si O2"
_cell_formula_units_Z 104
_cell_length_a 19.860578
_cell_length_b 17.519719
_cell_length_c 16.042443
_cell_angle_alpha 90.000000
_cell_angle_beta 90.000000
_cell_angle_gamma 90.000000
_cell_volume 5581.996048
_symmetry_space_group_name_H-M "F 2 2 2"
_symmetry_group_IT_number 22
_symmetry_cell_setting 'orthorhombic'
loop_
_space_group_symop_operation_xyz
x,y,z
-x,-y,z
x,-y,-z
-x,y,-z
x,1/2+y,1/2+z
-x,1/2-y,1/2+z
x,1/2-y,1/2-z
-x,1/2+y,1/2-z
1/2+x,y,1/2+z
1/2-x,-y,1/2+z
1/2+x,-y,1/2-z
1/2-x,y,1/2-z
1/2+x,1/2+y,z
1/2-x,1/2-y,z
1/2+x,1/2-y,-z
1/2-x,1/2+y,-z
loop_
_atom_site_type_symbol
_atom_site_label
_atom_site_fract_x
_atom_site_fract_y
_atom_site_fract_z
Si Si1 0.090603 0.749265 0.850084
Si Si2 0.187630 0.307743 0.607028
Si Si3 0.136076 0.068639 0.617802
Si Si4 0.250000 0.397648 0.750000
Si Si5 0.289453 0.667328 0.926862
Si Si6 0.156011 0.097035 0.422722
Si Si7 0.439029 0.780912 0.155608
O O1 0.093435 0.750000 0.750000
O O2 0.140478 0.816472 0.880586
O O3 0.119786 0.671228 0.887662
O O4 0.012205 0.746036 0.874618
O O5 0.250000 0.250000 0.607780
O O6 0.197035 0.351538 0.693013
O O7 0.193877 0.353967 0.522005
O O8 0.119387 0.260671 0.604568
O O9 0.200449 0.068319 0.679713
O O10 0.155136 0.095014 0.523658
O O11 0.079610 0.128956 0.648861
O O12 0.119435 0.979373 0.608367
O O13 0.250000 0.750000 0.926018
O O14 0.234347 0.606930 0.894993
O O15 0.433245 0.750000 0.250000
#
# Coordination Sequence:
#
# PCOD9327914 Si02
#       7
#    16  16  16   8  16  16  16
#     4  10  23  38  57  78 114 164 203 241 283 343
#     4  11  17  30  56  83 113 137 179 240 292 342
#     4  11  22  35  60  90 125 149 183 246 307 358
#     4  12  19  32  56  92 107 144 176 230 309 336
#     4   9  18  34  56  79 109 146 198 244 271 337
#     4  10  22  40  56  87 121 153 197 238 295 353
#     4  11  20  34  55  88 121 146 197 242 290 354
#
# _framework density 18.631328
#
# number of rings (size 3 to 8) (size 9 to 14) (size 15 to 20)
#    0.000    1.538    4.615    2.077    0.000    7.077 
#    0.000    1.538    0.000    0.000    0.000    0.000 
#    0.000    0.000    0.000    0.000    0.000    0.000 
#
# Total GULP energy -144767.359385 kJ/mol
# GULP energy per Si atom -5567.975361 kJ/mol
# Density = 1.858892 g / cm^3
# Si number density = 18.631328 Si / 1000 Ang^3
#
#
#
# Elastic Constant Matrix: (Units=GPa)
#
#
# Indices 1 2 3 4 5 6 
#
# 1 121.3670 14.0621 20.2935 0.0000 0.0000 0.0000
# 2 14.0621 48.0570 13.7894 0.0000 0.0000 0.0000
# 3 20.2935 13.7894 61.3114 0.0000 0.0000 0.0000
# 4 0.0000 0.0000 0.0000 6.5216 0.0000 0.0000
# 5 0.0000 0.0000 0.0000 0.0000 70.1730 0.0000
# 6 0.0000 0.0000 0.0000 0.0000 0.0000 12.3950
#
#
#
# Elastic Compliance Matrix: (Units=1/GPa)
#
#
# Indices 1 2 3 4 5 6 
#
# 1 0.008878 -0.001876 -0.002517 0.000000 0.000000 0.000000
# 2 -0.001876 0.022640 -0.004471 0.000000 0.000000 0.000000
# 3 -0.002517 -0.004471 0.018149 0.000000 0.000000 0.000000
# 4 0.000000 0.000000 0.000000 0.153337 0.000000 0.000000
# 5 0.000000 0.000000 0.000000 0.000000 0.014250 0.000000
# 6 0.000000 0.000000 0.000000 0.000000 0.000000 0.080678
#
#
# Mechanical properties :
#
#
# Convention : Reuss Voigt Hill
#
# Bulk Modulus (GPa) = 31.30869 36.33616 33.82243
# Shear Modulus (GPa) = 15.32307 29.99061 22.65684
#
# Velocity S-wave (km/s) = 2.87093 4.01644 3.49099
# Velocity P-wave (km/s) = 5.27545 6.40735 5.86876
#
# Compressibility (1/GPa) = 0.03194002
#
# Stress axis : x y z
#
# Youngs Moduli (GPa) = 112.64339 44.16880 55.10024
#
# Poissons Ratio (x) = 0.08284 0.13866
# Poissons Ratio (y) = 0.21127 0.24636
# Poissons Ratio (z) = 0.28347 0.19749
#
# Static dielectric constant tensor:
#      x y z
#    x 1.676600 0.000000 0.000000 
#    y 0.000000 1.662000 0.000000 
#    z 0.000000 0.000000 1.677190 
# 
# From -- ./inp_files/38111.got.cif
#   From: 2010.05.17/outbox.cif.g08.bks.cpg/sg22_20_cif.got.tgz:38111.got - 2010.06.03 23:40:54.
