data_PCOD9327349
_publ_section_title
;
Structure prediction by ZEFSAII (Michael W. Deem and Ramdas Pophale) SiO2 
 PCOD9327349
Probable space group: F 2 2 2
;
_chemical_formula_sum "Si O2"
_cell_formula_units_Z 104
_cell_length_a 28.761500
_cell_length_b 9.470553
_cell_length_c 18.988521
_cell_angle_alpha 90.000000
_cell_angle_beta 90.000000
_cell_angle_gamma 90.000000
_cell_volume 5172.232158
_symmetry_space_group_name_H-M "F 2 2 2"
_symmetry_group_IT_number 22
_symmetry_cell_setting 'orthorhombic'
loop_
_space_group_symop_operation_xyz
x,y,z
-x,-y,z
x,-y,-z
-x,y,-z
x,1/2+y,1/2+z
-x,1/2-y,1/2+z
x,1/2-y,1/2-z
-x,1/2+y,1/2-z
1/2+x,y,1/2+z
1/2-x,-y,1/2+z
1/2+x,-y,1/2-z
1/2-x,y,1/2-z
1/2+x,1/2+y,z
1/2-x,1/2-y,z
1/2+x,1/2-y,-z
1/2-x,1/2+y,-z
loop_
_atom_site_type_symbol
_atom_site_label
_atom_site_fract_x
_atom_site_fract_y
_atom_site_fract_z
Si Si1 0.949750 0.750000 0.250000
Si Si2 0.601247 0.774486 0.453957
Si Si3 0.047246 0.041503 0.370936
Si Si4 0.444110 0.017377 0.356487
Si Si5 0.794227 0.840226 0.900739
Si Si6 0.394931 0.735938 0.377764
Si Si7 0.295040 0.660448 0.927204
O O1 0.971555 0.859495 0.306272
O O2 0.926482 0.865501 0.199354
O O3 0.576221 0.642282 0.420306
O O4 0.574230 0.915232 0.429244
O O5 0.600036 0.753733 0.537505
O O6 0.652966 0.779534 0.420757
O O7 0.080597 0.909088 0.353990
O O8 0.000000 0.000000 0.408847
O O9 0.500000 0.000000 0.354422
O O10 0.421960 0.866340 0.343405
O O11 0.750000 0.750000 0.877377
O O12 0.839922 0.764126 0.869878
O O13 0.793693 0.008596 0.888759
O O14 0.792915 0.843476 0.986813
O O15 0.250000 0.750000 0.904761
#
# Coordination Sequence:
#
# PCOD9327349 Si02
#       7
#     8  16  16  16  16  16  16
#     4  10  24  44  58  78 109 142 211 256 282 326
#     4  10  21  36  53  88 129 152 187 225 284 364
#     4  11  24  39  58  84 115 154 196 241 288 337
#     4  11  22  37  60  82 112 152 191 239 288 338
#     4   9  18  31  50  83 116 151 197 231 268 332
#     4  11  21  35  58  88 122 154 186 235 286 350
#     4   9  17  31  52  77 117 163 190 222 274 332
#
# _framework density 20.107372999999999
#
# number of rings (size 3 to 8) (size 9 to 14) (size 15 to 20)
#    0.000    1.846    1.538    3.231    2.154    4.308 
#    0.000    0.000    0.000    0.000    0.000   20.462 
#    0.000    0.000    0.000    0.000    0.000    0.000 
#
# Total GULP energy -144753.361064 kJ/mol
# GULP energy per Si atom -5567.436964 kJ/mol
# Density = 2.006161 g / cm^3
# Si number density = 20.107373 Si / 1000 Ang^3
#
#
#
# Elastic Constant Matrix: (Units=GPa)
#
#
# Indices 1 2 3 4 5 6 
#
# 1 168.4955 73.2598 14.4640 0.0000 0.0000 0.0000
# 2 73.2598 141.6161 10.0989 0.0000 0.0000 0.0000
# 3 14.4640 10.0989 33.9982 0.0000 0.0000 0.0000
# 4 0.0000 0.0000 0.0000 28.9535 0.0000 0.0000
# 5 0.0000 0.0000 0.0000 0.0000 -0.6064 0.0000
# 6 0.0000 0.0000 0.0000 0.0000 0.0000 32.7247
#
#
#
# Elastic Compliance Matrix: (Units=1/GPa)
#
#
# Indices 1 2 3 4 5 6 
#
# 1 0.007811 -0.003886 -0.002169 0.000000 0.000000 0.000000
# 2 -0.003886 0.009147 -0.001064 0.000000 0.000000 0.000000
# 3 -0.002169 -0.001064 0.030652 0.000000 0.000000 0.000000
# 4 0.000000 0.000000 0.000000 0.034538 0.000000 0.000000
# 5 0.000000 0.000000 0.000000 0.000000 -1.649171 0.000000
# 6 0.000000 0.000000 0.000000 0.000000 0.000000 0.030558
#
#
# Mechanical properties :
#
#
# Convention : Reuss Voigt Hill
#
# Bulk Modulus (GPa) = 29.96433 59.97280 44.96857
# Shear Modulus (GPa) = -3.30884 28.63351 12.66234
#
# Velocity S-wave (km/s) = -1.28420 3.77773 2.51218
# Velocity P-wave (km/s) = 3.56870 6.99423 5.55225
#
# Compressibility (1/GPa) = 0.03337301
#
# Stress axis : x y z
#
# Youngs Moduli (GPa) = 128.03184 109.32043 32.62434
#
# Poissons Ratio (x) = 0.42480 0.07075
# Poissons Ratio (y) = 0.49751 0.03471
# Poissons Ratio (z) = 0.27765 0.11632
#
# Static dielectric constant tensor:
#      x y z
#    x 1.706340 0.000000 0.000000 
#    y 0.000000 1.723270 0.000000 
#    z 0.000000 0.000000 1.769120 
# 
# From -- ./inp_files/50729.got.cif
#   From: 2010.05.17/outbox.cif.g08.bks.cpg/sg22_26_cif.got.tgz:50729.got - 2010.06.03 23:40:54.
