data_PCOD9327177
_publ_section_title
;
Structure prediction by ZEFSAII (Michael W. Deem and Ramdas Pophale) SiO2 
 PCOD9327177
Probable space group: F 2 2 2
;
_chemical_formula_sum "Si O2"
_cell_formula_units_Z 72
_cell_length_a 9.590119
_cell_length_b 15.319614
_cell_length_c 23.436800
_cell_angle_alpha 90.000000
_cell_angle_beta 90.000000
_cell_angle_gamma 90.000000
_cell_volume 3443.262501
_symmetry_space_group_name_H-M "F 2 2 2"
_symmetry_group_IT_number 22
_symmetry_cell_setting 'orthorhombic'
loop_
_space_group_symop_operation_xyz
x,y,z
-x,-y,z
x,-y,-z
-x,y,-z
x,1/2+y,1/2+z
-x,1/2-y,1/2+z
x,1/2-y,1/2-z
-x,1/2+y,1/2-z
1/2+x,y,1/2+z
1/2-x,-y,1/2+z
1/2+x,-y,1/2-z
1/2-x,y,1/2-z
1/2+x,1/2+y,z
1/2-x,1/2-y,z
1/2+x,1/2-y,-z
1/2-x,1/2+y,-z
loop_
_atom_site_type_symbol
_atom_site_label
_atom_site_fract_x
_atom_site_fract_y
_atom_site_fract_z
Si Si1 0.500000 0.500000 0.603929
Si Si2 0.500000 0.000000 0.357343
Si Si3 0.712767 0.563275 0.050919
Si Si4 0.250000 0.250000 0.415395
Si Si5 0.395630 0.652112 0.216417
Si Si6 0.493308 0.321575 0.332196
O O1 0.366909 0.529768 0.567579
O O2 0.540898 0.586555 0.640264
O O3 0.390623 0.050111 0.396419
O O4 0.585918 0.066061 0.319127
O O5 0.713501 0.667785 0.044116
O O6 0.666225 0.500000 0.000000
O O7 0.367298 0.287519 0.371803
O O8 0.250000 0.651592 0.250000
O O9 0.518695 0.656010 0.264494
O O10 0.410510 0.735474 0.174896
#
# Coordination Sequence:
#
# PCOD9327177 Si02
#       6
#     8   8  16   8  16  16
#     4  10  22  42  70  96 134 172 230 284 348 398
#     4  12  24  44  66 100 142 182 224 288 338 404
#     4  11  24  46  68  98 131 179 237 288 345 402
#     4  10  22  45  68  96 132 180 223 280 348 402
#     4  11  23  38  64  99 138 177 221 269 339 412
#     4  10  20  40  63  97 133 175 213 275 330 422
#
# _framework density 20.910401
#
# number of rings (size 3 to 8) (size 9 to 14) (size 15 to 20)
#    0.000    1.333    2.222    4.000    0.000    3.556 
#    4.000    2.222    0.000    0.000    0.000    0.000 
#    0.000    0.000    0.000    0.000    0.000    0.000 
#
# Total GULP energy -100313.254376 kJ/mol
# GULP energy per Si atom -5572.958576 kJ/mol
# Density = 2.086281 g / cm^3
# Si number density = 20.910401 Si / 1000 Ang^3
#
#
#
# Elastic Constant Matrix: (Units=GPa)
#
#
# Indices 1 2 3 4 5 6 
#
# 1 65.9246 28.5566 10.2927 0.0000 0.0000 0.0000
# 2 28.5566 212.8733 55.4608 0.0000 0.0000 0.0000
# 3 10.2927 55.4608 62.5283 0.0000 0.0000 0.0000
# 4 0.0000 0.0000 0.0000 34.6580 0.0000 0.0000
# 5 0.0000 0.0000 0.0000 0.0000 22.5163 0.0000
# 6 0.0000 0.0000 0.0000 0.0000 0.0000 27.8556
#
#
#
# Elastic Compliance Matrix: (Units=1/GPa)
#
#
# Indices 1 2 3 4 5 6 
#
# 1 0.016149 -0.001917 -0.000958 0.000000 0.000000 0.000000
# 2 -0.001917 0.006337 -0.005305 0.000000 0.000000 0.000000
# 3 -0.000958 -0.005305 0.020856 0.000000 0.000000 0.000000
# 4 0.000000 0.000000 0.000000 0.028853 0.000000 0.000000
# 5 0.000000 0.000000 0.000000 0.000000 0.044412 0.000000
# 6 0.000000 0.000000 0.000000 0.000000 0.000000 0.035899
#
#
# Mechanical properties :
#
#
# Convention : Reuss Voigt Hill
#
# Bulk Modulus (GPa) = 37.06233 58.88294 47.97263
# Shear Modulus (GPa) = 28.11191 33.47373 30.79282
#
# Velocity S-wave (km/s) = 3.67058 4.00536 3.84162
# Velocity P-wave (km/s) = 5.97721 7.04353 6.53217
#
# Compressibility (1/GPa) = 0.02698158
#
# Stress axis : x y z
#
# Youngs Moduli (GPa) = 61.92448 157.80516 47.94781
#
# Poissons Ratio (x) = 0.30246 0.04594
# Poissons Ratio (y) = 0.11869 0.25437
# Poissons Ratio (z) = 0.05933 0.83718
#
# Static dielectric constant tensor:
#      x y z
#    x 1.860730 0.000000 0.000000 
#    y 0.000000 1.751680 0.000000 
#    z 0.000000 0.000000 1.765150 
# 
# From -- ./inp_files/51694.got.cif
#   From: 2010.05.17/outbox.cif.g08.bks.cpg/sg22_26_cif.got.tgz:51694.got - 2010.06.03 23:40:54.
