data_PCOD9327205
_publ_section_title
;
Structure prediction by ZEFSAII (Michael W. Deem and Ramdas Pophale) SiO2 
 PCOD9327205
Probable space group: F 2 2 2
;
_chemical_formula_sum "Si O2"
_cell_formula_units_Z 60
_cell_length_a 24.299379
_cell_length_b 15.222791
_cell_length_c 6.498960
_cell_angle_alpha 90.000000
_cell_angle_beta 90.000000
_cell_angle_gamma 90.000000
_cell_volume 2403.993691
_symmetry_space_group_name_H-M "F 2 2 2"
_symmetry_group_IT_number 22
_symmetry_cell_setting 'orthorhombic'
loop_
_space_group_symop_operation_xyz
x,y,z
-x,-y,z
x,-y,-z
-x,y,-z
x,1/2+y,1/2+z
-x,1/2-y,1/2+z
x,1/2-y,1/2-z
-x,1/2+y,1/2-z
1/2+x,y,1/2+z
1/2-x,-y,1/2+z
1/2+x,-y,1/2-z
1/2-x,y,1/2-z
1/2+x,1/2+y,z
1/2-x,1/2-y,z
1/2+x,1/2-y,-z
1/2-x,1/2+y,-z
loop_
_atom_site_type_symbol
_atom_site_label
_atom_site_fract_x
_atom_site_fract_y
_atom_site_fract_z
Si Si1 0.390098 0.154129 0.311379
Si Si2 0.014376 0.345661 0.761000
Si Si3 0.500000 0.000000 0.500000
Si Si4 0.199038 0.416896 0.634304
Si Si5 0.869010 0.000000 0.500000
O O1 0.370077 0.250000 0.250000
O O2 0.455313 0.166960 0.355097
O O3 0.346584 0.126152 0.485433
O O4 0.393198 0.082011 0.129684
O O5 0.044100 0.250000 0.750000
O O6 0.034184 0.438200 0.660101
O O7 0.000000 0.359629 0.000000
O O8 0.221228 0.500000 0.500000
O O9 0.250000 0.368865 0.750000
O O10 0.165193 0.452863 0.824304
#
# Coordination Sequence:
#
# PCOD9327205 Si02
#       5
#    16  16   4  16   8
#     4  10  25  43  66 100 142 182 235 294 353 427
#     4  11  25  47  69 105 147 190 244 302 357 436
#     4  12  26  40  74 100 140 200 238 294 376 428
#     4  10  20  40  70  99 133 181 229 288 352 425
#     4  10  22  40  68  94 134 182 224 288 350 424
#
# _framework density 24.958469999999998
#
# number of rings (size 3 to 8) (size 9 to 14) (size 15 to 20)
#    0.000    1.600    2.667    0.400    9.333    1.067 
#    0.000    4.000    0.000    0.000    0.000    0.000 
#    0.000    0.000    0.000    0.000    0.000    0.000 
#
# Total GULP energy -83553.948732 kJ/mol
# GULP energy per Si atom -5570.263249 kJ/mol
# Density = 2.490166 g / cm^3
# Si number density = 24.958470 Si / 1000 Ang^3
#
#
#
# Elastic Constant Matrix: (Units=GPa)
#
#
# Indices 1 2 3 4 5 6 
#
# 1 120.9621 40.1862 35.3666 0.0000 0.0000 0.0000
# 2 40.1862 160.1048 82.7155 0.0000 0.0000 0.0000
# 3 35.3666 82.7155 139.7576 0.0000 0.0000 0.0000
# 4 0.0000 0.0000 0.0000 46.1166 0.0000 0.0000
# 5 0.0000 0.0000 0.0000 0.0000 29.6643 0.0000
# 6 0.0000 0.0000 0.0000 0.0000 0.0000 29.2275
#
#
#
# Elastic Compliance Matrix: (Units=1/GPa)
#
#
# Indices 1 2 3 4 5 6 
#
# 1 0.009202 -0.001594 -0.001385 0.000000 0.000000 0.000000
# 2 -0.001594 0.009273 -0.005085 0.000000 0.000000 0.000000
# 3 -0.001385 -0.005085 0.010515 0.000000 0.000000 0.000000
# 4 0.000000 0.000000 0.000000 0.021684 0.000000 0.000000
# 5 0.000000 0.000000 0.000000 0.000000 0.033711 0.000000
# 6 0.000000 0.000000 0.000000 0.000000 0.000000 0.034214
#
#
# Mechanical properties :
#
#
# Convention : Reuss Voigt Hill
#
# Bulk Modulus (GPa) = 77.74909 81.92901 79.83905
# Shear Modulus (GPa) = 35.96757 38.50543 37.23650
#
# Velocity S-wave (km/s) = 3.80030 3.93209 3.86675
# Velocity P-wave (km/s) = 7.10460 7.31522 7.21068
#
# Compressibility (1/GPa) = 0.01286189
#
# Stress axis : x y z
#
# Youngs Moduli (GPa) = 108.67691 107.83981 95.10004
#
# Poissons Ratio (x) = 0.17190 0.13173
# Poissons Ratio (y) = 0.17323 0.48357
# Poissons Ratio (z) = 0.15053 0.54835
#
# Static dielectric constant tensor:
#      x y z
#    x 2.019880 0.000000 0.000000 
#    y 0.000000 2.204720 0.000000 
#    z 0.000000 0.000000 2.071060 
# 
# From -- ./inp_files/5249.got.cif
#   From: 2010.05.17/outbox.cif.g08.bks.cpg/sg22_3_cif.got.tgz:5249.got - 2010.06.03 23:40:54.
