data_PCOD9327321
_publ_section_title
;
Structure prediction by ZEFSAII (Michael W. Deem and Ramdas Pophale) SiO2 
 PCOD9327321
Probable space group: F 2 2 2
;
_chemical_formula_sum "Si O2"
_cell_formula_units_Z 80
_cell_length_a 26.060472
_cell_length_b 14.931637
_cell_length_c 9.871946
_cell_angle_alpha 90.000000
_cell_angle_beta 90.000000
_cell_angle_gamma 90.000000
_cell_volume 3841.426002
_symmetry_space_group_name_H-M "F 2 2 2"
_symmetry_group_IT_number 22
_symmetry_cell_setting 'orthorhombic'
loop_
_space_group_symop_operation_xyz
x,y,z
-x,-y,z
x,-y,-z
-x,y,-z
x,1/2+y,1/2+z
-x,1/2-y,1/2+z
x,1/2-y,1/2-z
-x,1/2+y,1/2-z
1/2+x,y,1/2+z
1/2-x,-y,1/2+z
1/2+x,-y,1/2-z
1/2-x,y,1/2-z
1/2+x,1/2+y,z
1/2-x,1/2-y,z
1/2+x,1/2-y,-z
1/2-x,1/2+y,-z
loop_
_atom_site_type_symbol
_atom_site_label
_atom_site_fract_x
_atom_site_fract_y
_atom_site_fract_z
Si Si1 0.636096 0.355356 0.098670
Si Si2 0.363904 0.144643 0.901330
Si Si3 0.250000 0.413648 0.591505
Si Si4 0.952451 0.359617 0.595266
Si Si5 0.547549 0.859617 0.095266
O O1 0.624315 0.250000 0.108187
O O2 0.626660 0.393892 0.250000
O O3 0.696353 0.363854 0.066897
O O4 0.599308 0.390281 0.980768
O O5 0.303647 0.136145 0.933103
O O6 0.400692 0.109719 0.019232
O O7 0.250000 0.500000 0.500000
O O8 0.250000 0.437275 0.750000
O O9 0.952436 0.250000 0.601255
O O10 0.956613 0.391278 0.750000
O O11 0.000000 0.385350 0.500000
O O12 0.500000 0.885350 0.000000
#
# Coordination Sequence:
#
# PCOD9327321 Si02
#       5
#    16  16  16  16  16
#     4   9  17  31  51  73  97 127 164 202 238 281
#     4   9  17  31  51  73  97 127 164 202 238 281
#     4  10  21  35  51  71  97 130 164 200 244 290
#     4   9  16  26  43  70 101 129 157 193 239 287
#     4   9  16  26  43  70 101 129 157 193 239 287
#
# _framework density 20.825597999999999
#
# number of rings (size 3 to 8) (size 9 to 14) (size 15 to 20)
#    0.000    2.800    0.000    1.800    0.000    8.800 
#    0.000    0.000    0.000    7.200    0.000    8.400 
#    0.000    0.000    0.000    0.000    0.000    0.000 
#
# Total GULP energy -111554.258872 kJ/mol
# GULP energy per Si atom -5577.712944 kJ/mol
# Density = 2.077820 g / cm^3
# Si number density = 20.825598 Si / 1000 Ang^3
#
#
#
# Elastic Constant Matrix: (Units=GPa)
#
#
# Indices 1 2 3 4 5 6 
#
# 1 153.1218 -8.1735 132.1748 0.0000 0.0000 0.0000
# 2 -8.1735 24.6069 14.1393 0.0000 0.0000 0.0000
# 3 132.1748 14.1393 182.4524 0.0000 0.0000 0.0000
# 4 0.0000 0.0000 0.0000 13.5427 0.0000 0.0000
# 5 0.0000 0.0000 0.0000 0.0000 40.3490 0.0000
# 6 0.0000 0.0000 0.0000 0.0000 0.0000 -33.4677
#
#
#
# Elastic Compliance Matrix: (Units=1/GPa)
#
#
# Indices 1 2 3 4 5 6 
#
# 1 0.023286 0.018240 -0.018283 0.000000 0.000000 0.000000
# 2 0.018240 0.056821 -0.017617 0.000000 0.000000 0.000000
# 3 -0.018283 -0.017617 0.020091 0.000000 0.000000 0.000000
# 4 0.000000 0.000000 0.000000 0.073840 0.000000 0.000000
# 5 0.000000 0.000000 0.000000 0.000000 0.024784 0.000000
# 6 0.000000 0.000000 0.000000 0.000000 0.000000 -0.029880
#
#
# Mechanical properties :
#
#
# Convention : Reuss Voigt Hill
#
# Bulk Modulus (GPa) = 15.41358 70.71803 43.06581
# Shear Modulus (GPa) = 22.13491 18.88750 20.51121
#
# Velocity S-wave (km/s) = 3.26371 3.01481 3.14172
# Velocity P-wave (km/s) = 4.64970 6.79336 5.82106
#
# Compressibility (1/GPa) = 0.06487786
#
# Stress axis : x y z
#
# Youngs Moduli (GPa) = 42.94409 17.59928 49.77401
#
# Poissons Ratio (x) = -0.32101 0.91001
# Poissons Ratio (y) = -0.78331 0.87688
# Poissons Ratio (z) = 0.78514 0.31005
#
# Static dielectric constant tensor:
#      x y z
#    x 1.770740 0.000000 0.000000 
#    y 0.000000 1.752760 0.000000 
#    z 0.000000 0.000000 1.734130 
# 
# From -- ./inp_files/15488.got.cif
#   From: 2010.05.17/outbox.cif.g08.bks.cpg/sg22_8_cif.got.tgz:15488.got - 2010.06.03 23:40:54.
