data_PCOD9327410
_publ_section_title
;
Structure prediction by ZEFSAII (Michael W. Deem and Ramdas Pophale) SiO2 
 PCOD9327410
Probable space group: F 2 2 2
;
_chemical_formula_sum "Si O2"
_cell_formula_units_Z 116
_cell_length_a 32.624608
_cell_length_b 11.177170
_cell_length_c 15.955088
_cell_angle_alpha 90.000000
_cell_angle_beta 90.000000
_cell_angle_gamma 90.000000
_cell_volume 5818.035441
_symmetry_space_group_name_H-M "F 2 2 2"
_symmetry_group_IT_number 22
_symmetry_cell_setting 'orthorhombic'
loop_
_space_group_symop_operation_xyz
x,y,z
-x,-y,z
x,-y,-z
-x,y,-z
x,1/2+y,1/2+z
-x,1/2-y,1/2+z
x,1/2-y,1/2-z
-x,1/2+y,1/2-z
1/2+x,y,1/2+z
1/2-x,-y,1/2+z
1/2+x,-y,1/2-z
1/2-x,y,1/2-z
1/2+x,1/2+y,z
1/2-x,1/2-y,z
1/2+x,1/2-y,-z
1/2-x,1/2+y,-z
loop_
_atom_site_type_symbol
_atom_site_label
_atom_site_fract_x
_atom_site_fract_y
_atom_site_fract_z
Si Si1 0.791136 0.173343 0.567956
Si Si2 0.750000 0.250000 0.250000
Si Si3 0.872108 0.725225 0.150510
Si Si4 0.542606 0.029342 0.300807
Si Si5 0.194128 0.597476 0.123401
Si Si6 0.602311 0.538221 0.657200
Si Si7 0.547494 0.317407 0.923138
Si Si8 0.036024 0.768596 0.390724
O O1 0.750000 0.250000 0.575763
O O2 0.827562 0.244677 0.612892
O O3 0.801309 0.152790 0.469752
O O4 0.791524 0.041422 0.611590
O O5 0.778019 0.332611 0.189872
O O6 0.871968 0.750000 0.250000
O O7 0.886059 0.591460 0.121985
O O8 0.906862 0.801194 0.107524
O O9 0.582917 0.005004 0.247176
O O10 0.545506 0.168179 0.322347
O O11 0.500000 0.000000 0.252523
O O12 0.537747 0.945017 0.381980
O O13 0.146379 0.603091 0.152594
O O14 0.565936 0.617971 0.616609
O O15 0.513684 0.221976 0.887586
O O16 0.544575 0.297904 0.021428
#
# Coordination Sequence:
#
# PCOD9327410 Si02
#       8
#    16   4  16  16  16  16  16  16
#     4  10  22  46  71  94 131 173 218 263 337 410
#     4  12  24  44  74 100 138 164 204 286 336 400
#     4  11  23  39  64  91 129 170 218 276 325 388
#     4  10  21  37  61  88 126 170 217 263 316 383
#     4  10  24  43  69 103 134 169 211 277 343 399
#     4  11  23  39  62  95 130 166 213 267 328 387
#     4  10  21  40  58  88 127 168 223 264 322 386
#     4  10  22  36  61  88 125 175 213 269 324 385
#
# _framework density 19.938002999999998
#
# number of rings (size 3 to 8) (size 9 to 14) (size 15 to 20)
#    0.000    1.655    2.069    1.655    3.862    5.793 
#    0.000    1.379    3.034    0.000    0.000    0.000 
#    0.000    0.000    0.000    0.000    0.000    0.000 
#
# Total GULP energy -161600.335811 kJ/mol
# GULP energy per Si atom -5572.425373 kJ/mol
# Density = 1.989262 g / cm^3
# Si number density = 19.938003 Si / 1000 Ang^3
#
#
#
# Elastic Constant Matrix: (Units=GPa)
#
#
# Indices 1 2 3 4 5 6 
#
# 1 141.9079 56.7271 43.6634 0.0000 0.0000 0.0000
# 2 56.7271 72.4637 35.3276 0.0000 0.0000 0.0000
# 3 43.6634 35.3276 81.3381 0.0000 0.0000 0.0000
# 4 0.0000 0.0000 0.0000 38.4832 0.0000 0.0000
# 5 0.0000 0.0000 0.0000 0.0000 25.6072 0.0000
# 6 0.0000 0.0000 0.0000 0.0000 0.0000 42.4843
#
#
#
# Elastic Compliance Matrix: (Units=1/GPa)
#
#
# Indices 1 2 3 4 5 6 
#
# 1 0.010695 -0.007070 -0.002670 0.000000 0.000000 0.000000
# 2 -0.007070 0.022181 -0.005839 0.000000 0.000000 0.000000
# 3 -0.002670 -0.005839 0.016264 0.000000 0.000000 0.000000
# 4 0.000000 0.000000 0.000000 0.025985 0.000000 0.000000
# 5 0.000000 0.000000 0.000000 0.000000 0.039051 0.000000
# 6 0.000000 0.000000 0.000000 0.000000 0.000000 0.023538
#
#
# Mechanical properties :
#
#
# Convention : Reuss Voigt Hill
#
# Bulk Modulus (GPa) = 55.61292 63.01620 59.31456
# Shear Modulus (GPa) = 28.59315 31.98106 30.28711
#
# Velocity S-wave (km/s) = 3.79106 4.00937 3.90175
# Velocity P-wave (km/s) = 6.86414 7.28753 7.07900
#
# Compressibility (1/GPa) = 0.01798143
#
# Stress axis : x y z
#
# Youngs Moduli (GPa) = 93.50329 45.08274 61.48695
#
# Poissons Ratio (x) = 0.31876 0.16418
# Poissons Ratio (y) = 0.66111 0.35899
# Poissons Ratio (z) = 0.24967 0.26322
#
# Static dielectric constant tensor:
#      x y z
#    x 1.654870 0.000000 0.000000 
#    y 0.000000 1.639260 0.000000 
#    z 0.000000 0.000000 1.730300 
# 
# From -- ./inp_files/40074.got.cif
#   From: 2010.05.17/outbox.cif.g08.bks.cpg/sg22_21_cif.got.tgz:40074.got - 2010.06.03 23:40:54.
