data_PCOD9327376
_publ_section_title
;
Structure prediction by ZEFSAII (Michael W. Deem and Ramdas Pophale) SiO2 
 PCOD9327376
Probable space group: F 2 2 2
;
_chemical_formula_sum "Si O2"
_cell_formula_units_Z 96
_cell_length_a 18.621995
_cell_length_b 10.597173
_cell_length_c 21.118830
_cell_angle_alpha 90.000000
_cell_angle_beta 90.000000
_cell_angle_gamma 90.000000
_cell_volume 4167.600527
_symmetry_space_group_name_H-M "F 2 2 2"
_symmetry_group_IT_number 22
_symmetry_cell_setting 'orthorhombic'
loop_
_space_group_symop_operation_xyz
x,y,z
-x,-y,z
x,-y,-z
-x,y,-z
x,1/2+y,1/2+z
-x,1/2-y,1/2+z
x,1/2-y,1/2-z
-x,1/2+y,1/2-z
1/2+x,y,1/2+z
1/2-x,-y,1/2+z
1/2+x,-y,1/2-z
1/2-x,y,1/2-z
1/2+x,1/2+y,z
1/2-x,1/2-y,z
1/2+x,1/2-y,-z
1/2-x,1/2+y,-z
loop_
_atom_site_type_symbol
_atom_site_label
_atom_site_fract_x
_atom_site_fract_y
_atom_site_fract_z
Si Si1 0.428791 0.731361 0.539053
Si Si2 0.911001 0.002634 0.393133
Si Si3 0.507832 0.863093 0.339593
Si Si4 0.155804 0.148538 0.803362
Si Si5 0.171407 0.758741 0.062779
Si Si6 0.866041 0.108268 0.742622
O O1 0.500000 0.703660 0.500000
O O2 0.390185 0.600417 0.554397
O O3 0.453254 0.782201 0.607126
O O4 0.380337 0.813021 0.491856
O O5 0.872177 0.134301 0.411153
O O6 0.881665 0.947755 0.326681
O O7 0.000000 0.000000 0.390304
O O8 0.429300 0.826566 0.316189
O O9 0.557841 0.877725 0.278796
O O10 0.500000 0.000000 0.370486
O O11 0.176186 0.250000 0.750000
O O12 0.186366 0.163013 0.873420
O O13 0.170730 0.007274 0.779520
O O14 0.250000 0.750000 0.032998
O O15 0.834491 0.250000 0.750000
#
# Coordination Sequence:
#
# PCOD9327376 Si02
#       6
#    16  16  16  16  16  16
#     4  12  23  42  72 106 144 196 258 312 369 449
#     4  12  22  42  77 106 144 189 256 318 375 448
#     4  10  21  36  64 110 146 181 234 314 385 434
#     4  11  21  40  68 102 142 189 238 305 381 454
#     4  12  28  47  69 107 149 198 252 312 379 456
#     4  11  22  38  66 109 147 177 239 324 385 434
#
# _framework density 23.034835999999999
#
# number of rings (size 3 to 8) (size 9 to 14) (size 15 to 20)
#    0.000    0.667    6.667    2.500    0.000    0.667 
#    0.000    6.667    0.000    1.000    0.000    0.000 
#    0.000    0.000    0.000    0.000    0.000    0.000 
#
# Total GULP energy -133977.430288 kJ/mol
# GULP energy per Si atom -5582.392929 kJ/mol
# Density = 2.298241 g / cm^3
# Si number density = 23.034836 Si / 1000 Ang^3
#
#
#
# Elastic Constant Matrix: (Units=GPa)
#
#
# Indices 1 2 3 4 5 6 
#
# 1 94.0299 17.9907 27.9370 0.0000 0.0000 0.0000
# 2 17.9907 113.1697 9.4177 0.0000 0.0000 0.0000
# 3 27.9370 9.4177 105.9080 0.0000 0.0000 0.0000
# 4 0.0000 0.0000 0.0000 3.5824 0.0000 0.0000
# 5 0.0000 0.0000 0.0000 0.0000 -16.6986 0.0000
# 6 0.0000 0.0000 0.0000 0.0000 0.0000 -10.0644
#
#
#
# Elastic Compliance Matrix: (Units=1/GPa)
#
#
# Indices 1 2 3 4 5 6 
#
# 1 0.011832 -0.001633 -0.002976 0.000000 0.000000 0.000000
# 2 -0.001633 0.009128 -0.000381 0.000000 0.000000 0.000000
# 3 -0.002976 -0.000381 0.010261 0.000000 0.000000 0.000000
# 4 0.000000 0.000000 0.000000 0.279142 0.000000 0.000000
# 5 0.000000 0.000000 0.000000 0.000000 -0.059885 0.000000
# 6 0.000000 0.000000 0.000000 0.000000 0.000000 -0.099360
#
#
# Mechanical properties :
#
#
# Convention : Reuss Voigt Hill
#
# Bulk Modulus (GPa) = 47.07993 47.08872 47.08432
# Shear Modulus (GPa) = 29.73069 12.54803 21.13936
#
# Velocity S-wave (km/s) = 3.59651 2.33650 3.03266
# Velocity P-wave (km/s) = 6.14243 5.26932 5.72255
#
# Compressibility (1/GPa) = 0.02124047
#
# Stress axis : x y z
#
# Youngs Moduli (GPa) = 84.52000 109.55761 97.45662
#
# Poissons Ratio (x) = 0.17893 0.29001
# Poissons Ratio (y) = 0.13804 0.03711
# Poissons Ratio (z) = 0.25151 0.04172
#
# Static dielectric constant tensor:
#      x y z
#    x 1.861310 0.000000 0.000000 
#    y 0.000000 1.959580 0.000000 
#    z 0.000000 0.000000 1.899460 
# 
# From -- ./inp_files/44782.got.cif
#   From: 2010.05.17/outbox.cif.g08.bks.cpg/sg22_23_cif.got.tgz:44782.got - 2010.06.03 23:40:54.
