data_PCOD9327400
_publ_section_title
;
Structure prediction by ZEFSAII (Michael W. Deem and Ramdas Pophale) SiO2 
 PCOD9327400
Probable space group: F 2 2 2
;
_chemical_formula_sum "Si O2"
_cell_formula_units_Z 104
_cell_length_a 27.747771
_cell_length_b 21.069769
_cell_length_c 8.569098
_cell_angle_alpha 90.000000
_cell_angle_beta 90.000000
_cell_angle_gamma 90.000000
_cell_volume 5009.829959
_symmetry_space_group_name_H-M "F 2 2 2"
_symmetry_group_IT_number 22
_symmetry_cell_setting 'orthorhombic'
loop_
_space_group_symop_operation_xyz
x,y,z
-x,-y,z
x,-y,-z
-x,y,-z
x,1/2+y,1/2+z
-x,1/2-y,1/2+z
x,1/2-y,1/2-z
-x,1/2+y,1/2-z
1/2+x,y,1/2+z
1/2-x,-y,1/2+z
1/2+x,-y,1/2-z
1/2-x,y,1/2-z
1/2+x,1/2+y,z
1/2-x,1/2-y,z
1/2+x,1/2-y,-z
1/2-x,1/2+y,-z
loop_
_atom_site_type_symbol
_atom_site_label
_atom_site_fract_x
_atom_site_fract_y
_atom_site_fract_z
Si Si1 0.344526 0.250000 0.750000
Si Si2 0.922712 0.786924 0.006189
Si Si3 0.940393 0.340601 0.840100
Si Si4 0.474919 0.903052 0.339135
Si Si5 0.303171 0.113523 0.805822
Si Si6 0.138299 0.431908 0.072321
Si Si7 0.882153 0.019251 0.175631
O O1 0.377656 0.235069 0.598251
O O2 0.313515 0.187616 0.784548
O O3 0.950116 0.723647 0.064702
O O4 0.915161 0.821711 0.173666
O O5 0.950691 0.836777 0.896976
O O6 0.903165 0.380576 0.942396
O O7 0.985718 0.382887 0.788642
O O8 0.500000 0.926717 0.500000
O O9 0.434441 0.951638 0.279225
O O10 0.250000 0.097097 0.750000
O O11 0.343390 0.074212 0.709664
O O12 0.314729 0.092500 0.983792
O O13 0.138921 0.454903 0.248592
O O14 0.124517 0.500000 0.000000
O O15 0.888333 0.000000 0.000000
#
# Coordination Sequence:
#
# PCOD9327400 Si02
#       7
#     8  16  16  16  16  16  16
#     4  12  21  42  72  94 128 168 222 278 357 400
#     4  10  21  37  65  96 133 181 223 274 326 399
#     4  10  21  40  63  95 138 180 223 272 327 383
#     4  10  21  37  60 100 135 182 227 264 321 390
#     4  11  25  46  69  97 126 166 218 286 352 407
#     4  10  23  43  64  95 132 171 223 274 326 393
#     4  11  23  42  69  96 136 181 229 272 326 393
#
# _framework density 20.759186
#
# number of rings (size 3 to 8) (size 9 to 14) (size 15 to 20)
#    0.000    1.538    3.077    2.077    0.000    7.692 
#    0.000    8.462    0.000    0.000    0.000    0.000 
#    0.000    0.000    0.000    0.000    0.000    0.000 
#
# Total GULP energy -145074.124694 kJ/mol
# GULP energy per Si atom -5579.774027 kJ/mol
# Density = 2.071194 g / cm^3
# Si number density = 20.759186 Si / 1000 Ang^3
#
#
#
# Elastic Constant Matrix: (Units=GPa)
#
#
# Indices 1 2 3 4 5 6 
#
# 1 111.1078 32.9435 34.9671 -0.0001 0.0000 0.0000
# 2 32.9435 105.2736 16.0378 -0.0002 0.0001 0.0000
# 3 34.9671 16.0378 68.3092 -0.0012 0.0004 -0.0002
# 4 -0.0001 -0.0002 -0.0012 15.2214 0.0002 0.0000
# 5 0.0000 0.0001 0.0004 0.0002 22.3291 0.0000
# 6 0.0000 0.0000 -0.0002 0.0000 0.0000 8.8482
#
#
#
# Elastic Compliance Matrix: (Units=1/GPa)
#
#
# Indices 1 2 3 4 5 6 
#
# 1 0.011470 -0.002795 -0.005215 0.000000 0.000000 0.000000
# 2 -0.002795 0.010532 -0.001042 0.000000 0.000000 0.000000
# 3 -0.005215 -0.001042 0.017554 0.000001 0.000000 0.000000
# 4 0.000000 0.000000 0.000001 0.065697 -0.000001 0.000000
# 5 0.000000 0.000000 0.000000 -0.000001 0.044785 0.000000
# 6 0.000000 0.000000 0.000000 0.000000 0.000000 0.113018
#
#
# Mechanical properties :
#
#
# Convention : Reuss Voigt Hill
#
# Bulk Modulus (GPa) = 46.61654 50.28748 48.45201
# Shear Modulus (GPa) = 17.34239 22.66256 20.00248
#
# Velocity S-wave (km/s) = 2.89348 3.30765 3.10747
# Velocity P-wave (km/s) = 5.80238 6.23412 6.02212
#
# Compressibility (1/GPa) = 0.02145161
#
# Stress axis : x y z
#
# Youngs Moduli (GPa) = 87.18155 94.94482 56.96795
#
# Poissons Ratio (x) = 0.26536 0.29711
# Poissons Ratio (y) = 0.24366 0.05937
# Poissons Ratio (z) = 0.45469 0.09895
#
# Static dielectric constant tensor:
#      x y z
#    x 1.717150 0.000000 0.000000 
#    y 0.000000 1.796320 0.000000 
#    z 0.000000 0.000000 1.956570 
# 
# From -- ./inp_files/15647.got.cif
#   From: 2010.05.17/outbox.cif.g08.bks.cpg/sg22_8_cif.got.tgz:15647.got - 2010.06.03 23:40:54.
