data_PCOD9327462
_publ_section_title
;
Structure prediction by ZEFSAII (Michael W. Deem and Ramdas Pophale) SiO2 
 PCOD9327462
Probable space group: F 2 2 2
;
_chemical_formula_sum "Si O2"
_cell_formula_units_Z 72
_cell_length_a 15.615863
_cell_length_b 10.899752
_cell_length_c 18.582194
_cell_angle_alpha 90.000000
_cell_angle_beta 90.000000
_cell_angle_gamma 90.000000
_cell_volume 3162.857290
_symmetry_space_group_name_H-M "F 2 2 2"
_symmetry_group_IT_number 22
_symmetry_cell_setting 'orthorhombic'
loop_
_space_group_symop_operation_xyz
x,y,z
-x,-y,z
x,-y,-z
-x,y,-z
x,1/2+y,1/2+z
-x,1/2-y,1/2+z
x,1/2-y,1/2-z
-x,1/2+y,1/2-z
1/2+x,y,1/2+z
1/2-x,-y,1/2+z
1/2+x,-y,1/2-z
1/2-x,y,1/2-z
1/2+x,1/2+y,z
1/2-x,1/2-y,z
1/2+x,1/2-y,-z
1/2-x,1/2+y,-z
loop_
_atom_site_type_symbol
_atom_site_label
_atom_site_fract_x
_atom_site_fract_y
_atom_site_fract_z
Si Si1 0.604096 0.376580 0.715280
Si Si2 0.154085 0.500000 0.500000
Si Si3 0.705195 0.128907 0.921943
Si Si4 0.901025 0.860551 0.706318
Si Si5 0.589152 0.730843 0.540667
O O1 0.637487 0.250000 0.750000
O O2 0.627062 0.390393 0.631268
O O3 0.502270 0.371238 0.724811
O O4 0.636530 0.511376 0.737140
O O5 0.217823 0.464281 0.434616
O O6 0.103907 0.377652 0.525784
O O7 0.750000 0.250000 0.892286
O O8 0.664740 0.162177 0.998414
O O9 0.861058 0.750000 0.750000
O O10 0.903684 0.818344 0.622294
O O11 0.500000 0.700779 0.500000
#
# Coordination Sequence:
#
# PCOD9327462 Si02
#       5
#    16   8  16  16  16
#     4  10  21  40  62  92 125 169 216 267 332 389
#     4  10  23  38  61  98 136 172 212 282 339 390
#     4  10  21  38  61  89 126 168 215 266 326 393
#     4  10  22  39  63  96 127 164 215 280 326 382
#     4  11  21  40  65  96 128 173 227 272 329 398
#
# _framework density 22.764226000000001
#
# number of rings (size 3 to 8) (size 9 to 14) (size 15 to 20)
#    0.000    1.778    2.222    1.667    0.000    4.000 
#    8.000    0.000    0.000   15.333    0.000    0.000 
#    0.000    0.000    0.000    0.000    0.000    0.000 
#
# Total GULP energy -100201.509101 kJ/mol
# GULP energy per Si atom -5566.750506 kJ/mol
# Density = 2.271241 g / cm^3
# Si number density = 22.764226 Si / 1000 Ang^3
#
#
#
# Elastic Constant Matrix: (Units=GPa)
#
#
# Indices 1 2 3 4 5 6 
#
# 1 49.1827 13.4725 -3.0190 0.0000 0.0000 0.0000
# 2 13.4725 174.0874 51.6334 0.0000 0.0000 0.0000
# 3 -3.0190 51.6334 81.1595 0.0000 0.0000 0.0000
# 4 0.0000 0.0000 0.0000 1.8329 0.0000 0.0000
# 5 0.0000 0.0000 0.0000 0.0000 1.3277 0.0000
# 6 0.0000 0.0000 0.0000 0.0000 0.0000 8.1900
#
#
#
# Elastic Compliance Matrix: (Units=1/GPa)
#
#
# Indices 1 2 3 4 5 6 
#
# 1 0.021100 -0.002300 0.002248 0.000000 0.000000 0.000000
# 2 -0.002300 0.007331 -0.004749 0.000000 0.000000 0.000000
# 3 0.002248 -0.004749 0.015427 0.000000 0.000000 0.000000
# 4 0.000000 0.000000 0.000000 0.545569 0.000000 0.000000
# 5 0.000000 0.000000 0.000000 0.000000 0.753173 0.000000
# 6 0.000000 0.000000 0.000000 0.000000 0.000000 0.122100
#
#
# Mechanical properties :
#
#
# Convention : Reuss Voigt Hill
#
# Bulk Modulus (GPa) = 29.19240 47.62260 38.40750
# Shear Modulus (GPa) = 3.36537 18.42631 10.89584
#
# Velocity S-wave (km/s) = 1.21720 2.84815 2.19015
# Velocity P-wave (km/s) = 3.85059 5.63749 4.82744
#
# Compressibility (1/GPa) = 0.03425549
#
# Stress axis : x y z
#
# Youngs Moduli (GPa) = 47.39271 136.40954 64.82304
#
# Poissons Ratio (x) = 0.31370 -0.14572
# Poissons Ratio (y) = 0.10899 0.30787
# Poissons Ratio (z) = -0.10654 0.64787
#
# Static dielectric constant tensor:
#      x y z
#    x 1.811900 0.000000 0.000000 
#    y 0.000000 2.063560 0.000000 
#    z 0.000000 0.000000 1.981990 
# 
# From -- ./inp_files/21092.got.cif
#   From: 2010.05.17/outbox.cif.g08.bks.cpg/sg22_11_cif.got.tgz:21092.got - 2010.06.03 23:40:54.
