data_PCOD9327622
_publ_section_title
;
Structure prediction by ZEFSAII (Michael W. Deem and Ramdas Pophale) SiO2 
 PCOD9327622
Probable space group: F 2 2 2
;
_chemical_formula_sum "Si O2"
_cell_formula_units_Z 88
_cell_length_a 21.268554
_cell_length_b 24.850960
_cell_length_c 8.230221
_cell_angle_alpha 90.000000
_cell_angle_beta 90.000000
_cell_angle_gamma 90.000000
_cell_volume 4350.033802
_symmetry_space_group_name_H-M "F 2 2 2"
_symmetry_group_IT_number 22
_symmetry_cell_setting 'orthorhombic'
loop_
_space_group_symop_operation_xyz
x,y,z
-x,-y,z
x,-y,-z
-x,y,-z
x,1/2+y,1/2+z
-x,1/2-y,1/2+z
x,1/2-y,1/2-z
-x,1/2+y,1/2-z
1/2+x,y,1/2+z
1/2-x,-y,1/2+z
1/2+x,-y,1/2-z
1/2-x,y,1/2-z
1/2+x,1/2+y,z
1/2-x,1/2-y,z
1/2+x,1/2-y,-z
1/2-x,1/2+y,-z
loop_
_atom_site_type_symbol
_atom_site_label
_atom_site_fract_x
_atom_site_fract_y
_atom_site_fract_z
Si Si1 0.497246 0.650671 0.306962
Si Si2 0.820572 0.270259 0.930718
Si Si3 0.920651 0.450242 0.112498
Si Si4 0.180630 0.515147 0.684115
Si Si5 0.408012 0.750000 0.250000
Si Si6 0.366418 0.878186 0.826137
O O1 0.500000 0.663796 0.500000
O O2 0.469867 0.589390 0.297779
O O3 0.452483 0.696780 0.233650
O O4 0.569856 0.648067 0.252216
O O5 0.841111 0.250000 0.750000
O O6 0.750000 0.250000 0.962748
O O7 0.820228 0.333697 0.895979
O O8 0.865526 0.256992 0.085379
O O9 0.870216 0.477493 0.228567
O O10 0.941594 0.500000 0.000000
O O11 0.888384 0.410514 0.984939
O O12 0.179642 0.500000 0.500000
O O13 0.250000 0.505342 0.750000
O O14 0.163337 0.577560 0.710498
#
# Coordination Sequence:
#
# PCOD9327622 Si02
#       6
#    16  16  16  16   8  16
#     4  10  21  40  68 101 138 182 231 292 357 423
#     4  11  26  46  67 102 140 192 241 297 355 420
#     4   9  19  40  66  94 127 177 221 277 355 413
#     4  11  24  43  67  99 133 180 234 294 360 432
#     4  12  23  46  72 104 141 192 248 288 360 444
#     4  10  22  44  66  97 140 176 230 291 358 415
#
# _framework density 20.229728000000001
#
# number of rings (size 3 to 8) (size 9 to 14) (size 15 to 20)
#    0.000    1.636    3.636    1.909    3.818    9.818 
#    3.273    3.636    0.000    0.000    0.000    0.000 
#    0.000    0.000    0.000    0.000    0.000    0.000 
#
# Total GULP energy -122672.049803 kJ/mol
# GULP energy per Si atom -5576.002264 kJ/mol
# Density = 2.018368 g / cm^3
# Si number density = 20.229728 Si / 1000 Ang^3
#
#
#
# Elastic Constant Matrix: (Units=GPa)
#
#
# Indices 1 2 3 4 5 6 
#
# 1 140.7789 71.7035 57.2225 -0.0002 0.0002 0.0045
# 2 71.7035 143.3372 31.4696 -0.0002 0.0003 -0.0014
# 3 57.2225 31.4696 108.9218 0.0000 -0.0009 -0.0072
# 4 -0.0002 -0.0002 0.0000 20.8656 -0.0002 -0.0042
# 5 0.0002 0.0003 -0.0009 -0.0002 39.2406 0.0055
# 6 0.0045 -0.0014 -0.0072 -0.0042 0.0055 -732.5506
#
#
#
# Elastic Compliance Matrix: (Units=1/GPa)
#
#
# Indices 1 2 3 4 5 6 
#
# 1 0.011358 -0.004668 -0.004618 0.000000 0.000000 0.000000
# 2 -0.004668 0.009367 -0.000254 0.000000 0.000000 0.000000
# 3 -0.004618 -0.000254 0.011681 0.000000 0.000000 0.000000
# 4 0.000000 0.000000 0.000000 0.047926 0.000000 0.000000
# 5 0.000000 0.000000 0.000000 0.000000 0.025484 0.000000
# 6 0.000000 0.000000 0.000000 0.000000 0.000000 -0.001365
#
#
# Mechanical properties :
#
#
# Convention : Reuss Voigt Hill
#
# Bulk Modulus (GPa) = 75.04498 79.31436 77.17967
# Shear Modulus (GPa) = 39.07072 -118.97939 -39.95434
#
# Velocity S-wave (km/s) = 4.39948 -7.67736 -4.44895
# Velocity P-wave (km/s) = 7.93626 6.26874 3.44144
#
# Compressibility (1/GPa) = 0.01332534
#
# Stress axis : x y z
#
# Youngs Moduli (GPa) = 88.04316 106.75302 85.61194
#
# Poissons Ratio (x) = 0.49831 0.39539
# Poissons Ratio (y) = 0.41097 0.02176
# Poissons Ratio (z) = 0.40662 0.02713
#
# Static dielectric constant tensor:
#      x y z
#    x 1.735250 0.000000 0.000000 
#    y 0.000000 1.678210 -0.000010 
#    z 0.000000 -0.000010 2.347040 
# 
# From -- ./inp_files/12648.got.cif
#   From: 2010.05.17/outbox.cif.g08.bks.cpg/sg22_7_cif.got.tgz:12648.got - 2010.06.03 23:40:54.
