data_PCOD9327687
_publ_section_title
;
Structure prediction by ZEFSAII (Michael W. Deem and Ramdas Pophale) SiO2 
 PCOD9327687
Probable space group: F 2 2 2
;
_chemical_formula_sum "Si O2"
_cell_formula_units_Z 60
_cell_length_a 19.014081
_cell_length_b 5.291010
_cell_length_c 26.259749
_cell_angle_alpha 90.000000
_cell_angle_beta 90.000000
_cell_angle_gamma 90.000000
_cell_volume 2641.827719
_symmetry_space_group_name_H-M "F 2 2 2"
_symmetry_group_IT_number 22
_symmetry_cell_setting 'orthorhombic'
loop_
_space_group_symop_operation_xyz
x,y,z
-x,-y,z
x,-y,-z
-x,y,-z
x,1/2+y,1/2+z
-x,1/2-y,1/2+z
x,1/2-y,1/2-z
-x,1/2+y,1/2-z
1/2+x,y,1/2+z
1/2-x,-y,1/2+z
1/2+x,-y,1/2-z
1/2-x,y,1/2-z
1/2+x,1/2+y,z
1/2-x,1/2-y,z
1/2+x,1/2-y,-z
1/2-x,1/2+y,-z
loop_
_atom_site_type_symbol
_atom_site_label
_atom_site_fract_x
_atom_site_fract_y
_atom_site_fract_z
Si Si1 0.168850 0.249472 0.156322
Si Si2 0.000000 0.000000 0.000000
Si Si3 0.115204 0.360436 0.049635
Si Si4 0.500000 0.000000 0.881709
Si Si5 0.084595 0.744763 0.309453
O O1 0.250000 0.250000 0.171739
O O2 0.164054 0.252407 0.094031
O O3 0.130270 0.501967 0.176986
O O4 0.130003 0.999164 0.175826
O O5 0.944669 0.163984 0.967746
O O6 0.065618 0.548769 0.081321
O O7 0.145952 0.500000 0.000000
O O8 0.487134 0.226672 0.842123
O O9 0.068464 0.750000 0.250000
#
# Coordination Sequence:
#
# PCOD9327687 Si02
#       5
#    16   4  16   8  16
#     4  11  26  46  66  99 138 180 238 287 337 417
#     4  12  18  36  70  86 136 162 230 262 358 408
#     4  11  22  39  63  95 128 181 214 279 340 411
#     4  10  21  42  63  98 140 159 225 276 348 408
#     4  11  25  44  72 101 134 181 226 291 360 416
#
# _framework density 22.711549000000002
#
# number of rings (size 3 to 8) (size 9 to 14) (size 15 to 20)
#    0.000    1.067    2.667    3.200    3.733   10.667 
#    2.400    0.000    0.000    0.000    0.000    0.000 
#    0.000    0.000    0.000    0.000    0.000    0.000 
#
# Total GULP energy -83631.849874 kJ/mol
# GULP energy per Si atom -5575.456658 kJ/mol
# Density = 2.265986 g / cm^3
# Si number density = 22.711549 Si / 1000 Ang^3
#
#
#
# Elastic Constant Matrix: (Units=GPa)
#
#
# Indices 1 2 3 4 5 6 
#
# 1 62.3387 21.3306 -16.0567 0.0003 0.0007 0.0039
# 2 21.3306 141.3632 23.9451 0.0008 0.0055 0.0087
# 3 -16.0567 23.9451 144.3052 0.0002 -0.0020 0.0008
# 4 0.0003 0.0008 0.0002 28.7240 0.0008 0.0003
# 5 0.0007 0.0055 -0.0020 0.0008 -72.0037 -0.0043
# 6 0.0039 0.0087 0.0008 0.0003 -0.0043 26.3225
#
#
#
# Elastic Compliance Matrix: (Units=1/GPa)
#
#
# Indices 1 2 3 4 5 6 
#
# 1 0.017743 -0.003099 0.002488 0.000000 0.000000 -0.000002
# 2 -0.003099 0.007820 -0.001642 0.000000 0.000001 -0.000002
# 3 0.002488 -0.001642 0.007479 0.000000 0.000000 0.000000
# 4 0.000000 0.000000 0.000000 0.034814 0.000000 0.000000
# 5 0.000000 0.000001 0.000000 0.000000 -0.013888 -0.000002
# 6 -0.000002 -0.000002 0.000000 0.000000 -0.000002 0.037990
#
#
# Mechanical properties :
#
#
# Convention : Reuss Voigt Hill
#
# Bulk Modulus (GPa) = 35.04325 45.16058 40.10191
# Shear Modulus (GPa) = 47.18088 17.86111 32.52099
#
# Velocity S-wave (km/s) = 4.56279 2.80738 3.78817
# Velocity P-wave (km/s) = 6.57434 5.51689 6.06869
#
# Compressibility (1/GPa) = 0.02853617
#
# Stress axis : x y z
#
# Youngs Moduli (GPa) = 56.36135 127.88136 133.70488
#
# Poissons Ratio (x) = 0.39627 -0.33271
# Poissons Ratio (y) = 0.17465 0.21959
# Poissons Ratio (z) = -0.14025 0.21003
#
# Static dielectric constant tensor:
#      x y z
#    x 1.894740 0.000000 0.000000 
#    y 0.000000 2.701000 0.000000 
#    z 0.000000 0.000000 1.945860 
# 
# From -- ./inp_files/3542.got.cif
#   From: 2010.05.17/outbox.cif.g08.bks.cpg/sg22_2_cif.got.tgz:3542.got - 2010.06.03 23:40:54.
