data_PCOD9327450
_publ_section_title
;
Structure prediction by ZEFSAII (Michael W. Deem and Ramdas Pophale) SiO2 
 PCOD9327450
Probable space group: F 2 2 2
;
_chemical_formula_sum "Si O2"
_cell_formula_units_Z 72
_cell_length_a 7.274174
_cell_length_b 13.634946
_cell_length_c 28.428997
_cell_angle_alpha 90.000000
_cell_angle_beta 90.000000
_cell_angle_gamma 90.000000
_cell_volume 2819.672348
_symmetry_space_group_name_H-M "F 2 2 2"
_symmetry_group_IT_number 22
_symmetry_cell_setting 'orthorhombic'
loop_
_space_group_symop_operation_xyz
x,y,z
-x,-y,z
x,-y,-z
-x,y,-z
x,1/2+y,1/2+z
-x,1/2-y,1/2+z
x,1/2-y,1/2-z
-x,1/2+y,1/2-z
1/2+x,y,1/2+z
1/2-x,-y,1/2+z
1/2+x,-y,1/2-z
1/2-x,y,1/2-z
1/2+x,1/2+y,z
1/2-x,1/2-y,z
1/2+x,1/2-y,-z
1/2-x,1/2+y,-z
loop_
_atom_site_type_symbol
_atom_site_label
_atom_site_fract_x
_atom_site_fract_y
_atom_site_fract_z
Si Si1 0.010061 0.825048 0.324189
Si Si2 0.522991 0.366106 0.946049
Si Si3 0.500000 0.000000 0.000000
Si Si4 0.250000 0.250000 0.250000
Si Si5 0.545868 0.860033 0.071623
Si Si6 0.094441 0.100890 0.843462
O O1 0.000030 0.707273 0.335514
O O2 0.211213 0.872948 0.318663
O O3 0.879135 0.823984 0.279792
O O4 0.955207 0.875688 0.372812
O O5 0.490329 0.249768 0.941073
O O6 0.741823 0.378545 0.939686
O O7 0.410565 0.407073 0.900852
O O8 0.500000 0.396211 0.000000
O O9 0.581711 0.925529 0.961822
O O10 0.000000 0.000000 0.826528
#
# Coordination Sequence:
#
# PCOD9327450 Si02
#       6
#    16  16   4   4  16  16
#     4  10  24  47  73 105 152 202 275 339 416 502
#     4  10  21  38  59  93 149 204 258 312 382 484
#     4  12  24  36  70 108 150 208 246 304 412 478
#     4  12  24  54  84 104 152 232 268 354 452 470
#     4  10  23  39  61 102 146 198 253 318 389 491
#     4  10  23  42  70 109 150 202 265 342 411 490
#
# _framework density 25.534882
#
# number of rings (size 3 to 8) (size 9 to 14) (size 15 to 20)
#    0.000    1.778    1.111    2.667    6.222    4.000 
#    0.000    2.222    0.000    0.000    0.000    0.000 
#    0.000    0.000    0.000    0.000    0.000    0.000 
#
# Total GULP energy -100378.344403 kJ/mol
# GULP energy per Si atom -5576.574689 kJ/mol
# Density = 2.547676 g / cm^3
# Si number density = 25.534882 Si / 1000 Ang^3
#
#
#
# Elastic Constant Matrix: (Units=GPa)
#
#
# Indices 1 2 3 4 5 6 
#
# 1 77.1592 34.6672 55.9375 0.0000 0.0000 0.0000
# 2 34.6672 171.2187 35.1129 0.0000 0.0000 0.0000
# 3 55.9375 35.1129 144.9751 0.0000 0.0000 0.0000
# 4 0.0000 0.0000 0.0000 17.7555 0.0000 0.0000
# 5 0.0000 0.0000 0.0000 0.0000 53.1991 0.0000
# 6 0.0000 0.0000 0.0000 0.0000 0.0000 10.2278
#
#
#
# Elastic Compliance Matrix: (Units=1/GPa)
#
#
# Indices 1 2 3 4 5 6 
#
# 1 0.018927 -0.002457 -0.006708 0.000000 0.000000 0.000000
# 2 -0.002457 0.006465 -0.000618 0.000000 0.000000 0.000000
# 3 -0.006708 -0.000618 0.009636 0.000000 0.000000 0.000000
# 4 0.000000 0.000000 0.000000 0.056320 0.000000 0.000000
# 5 0.000000 0.000000 0.000000 0.000000 0.018797 0.000000
# 6 0.000000 0.000000 0.000000 0.000000 0.000000 0.097773
#
#
# Mechanical properties :
#
#
# Convention : Reuss Voigt Hill
#
# Bulk Modulus (GPa) = 64.67261 71.64310 68.15786
# Shear Modulus (GPa) = 21.49277 34.07883 27.78580
#
# Velocity S-wave (km/s) = 2.90436 3.65718 3.30229
# Velocity P-wave (km/s) = 6.05221 6.77873 6.42574
#
# Compressibility (1/GPa) = 0.01546250
#
# Stress axis : x y z
#
# Youngs Moduli (GPa) = 52.83504 154.68899 103.78252
#
# Poissons Ratio (x) = 0.38000 0.69615
# Poissons Ratio (y) = 0.12979 0.06412
# Poissons Ratio (z) = 0.35441 0.09558
#
# Static dielectric constant tensor:
#      x y z
#    x 2.123830 0.000000 0.000000 
#    y 0.000000 2.075620 0.000000 
#    z 0.000000 0.000000 2.047350 
# 
# From -- ./inp_files/55445.got.cif
#   From: 2010.05.17/outbox.cif.g08.bks.cpg/sg22_28_cif.got.tgz:55445.got - 2010.06.03 23:40:54.
