data_PCOD9327593
_publ_section_title
;
Structure prediction by ZEFSAII (Michael W. Deem and Ramdas Pophale) SiO2 
 PCOD9327593
Probable space group: F 2 2 2
;
_chemical_formula_sum "Si O2"
_cell_formula_units_Z 112
_cell_length_a 28.772583
_cell_length_b 14.249844
_cell_length_c 15.068223
_cell_angle_alpha 90.000000
_cell_angle_beta 90.000000
_cell_angle_gamma 90.000000
_cell_volume 6178.044047
_symmetry_space_group_name_H-M "F 2 2 2"
_symmetry_group_IT_number 22
_symmetry_cell_setting 'orthorhombic'
loop_
_space_group_symop_operation_xyz
x,y,z
-x,-y,z
x,-y,-z
-x,y,-z
x,1/2+y,1/2+z
-x,1/2-y,1/2+z
x,1/2-y,1/2-z
-x,1/2+y,1/2-z
1/2+x,y,1/2+z
1/2-x,-y,1/2+z
1/2+x,-y,1/2-z
1/2-x,y,1/2-z
1/2+x,1/2+y,z
1/2-x,1/2-y,z
1/2+x,1/2-y,-z
1/2-x,1/2+y,-z
loop_
_atom_site_type_symbol
_atom_site_label
_atom_site_fract_x
_atom_site_fract_y
_atom_site_fract_z
Si Si1 0.350204 0.941272 0.089710
Si Si2 0.604763 0.749227 0.854857
Si Si3 0.601681 0.956611 0.252089
Si Si4 0.348091 0.060841 0.588293
Si Si5 0.000000 0.500000 0.188876
Si Si6 0.750802 0.860907 0.643093
Si Si7 0.572908 0.750000 0.250000
Si Si8 0.502498 0.204261 0.105595
O O1 0.378766 0.844150 0.097097
O O2 0.297361 0.910637 0.108886
O O3 0.371877 0.005441 0.166210
O O4 0.354389 0.000000 0.000000
O O5 0.619829 0.750000 0.750000
O O6 0.625934 0.660903 0.905790
O O7 0.549295 0.747877 0.858709
O O8 0.601782 0.844790 0.254376
O O9 0.627934 0.001182 0.334350
O O10 0.547518 0.988713 0.244897
O O11 0.294585 0.086247 0.607673
O O12 0.352545 0.000000 0.500000
O O13 0.995710 0.406349 0.129930
O O14 0.750000 0.864471 0.750000
O O15 0.750000 0.750000 0.618180
O O16 0.540245 0.755728 0.162684
O O17 0.500000 0.216947 0.000000
#
# Coordination Sequence:
#
# PCOD9327593 Si02
#       8
#    16  16  16  16   8  16   8  16
#     4  12  25  40  72 103 129 167 226 280 331 393
#     4  12  22  44  67 100 130 175 233 283 322 390
#     4  11  24  43  62  95 134 180 217 274 332 396
#     4  12  26  42  70  98 136 174 217 273 340 403
#     4  10  21  40  63  92 130 172 223 276 333 378
#     4  11  21  44  73 103 130 168 219 279 335 393
#     4  10  26  42  58  87 138 177 214 270 334 396
#     4  11  23  37  63  91 128 170 226 281 327 385
#
# _framework density 18.128715
#
# number of rings (size 3 to 8) (size 9 to 14) (size 15 to 20)
#    0.000    0.714    6.429    0.643    8.000    0.000 
#    0.000    0.357    0.000    0.857    0.000    0.000 
#    0.000    0.000    0.000    0.000    0.000    0.000 
#
# Total GULP energy -156487.873503 kJ/mol
# GULP energy per Si atom -5588.852625 kJ/mol
# Density = 1.808745 g / cm^3
# Si number density = 18.128715 Si / 1000 Ang^3
#
#
#
# Elastic Constant Matrix: (Units=GPa)
#
#
# Indices 1 2 3 4 5 6 
#
# 1 90.9159 53.4085 34.7444 0.0000 0.0000 0.0000
# 2 53.4085 164.1617 70.5958 0.0000 0.0000 0.0000
# 3 34.7444 70.5958 138.1740 0.0000 0.0000 0.0000
# 4 0.0000 0.0000 0.0000 28.5927 0.0000 0.0000
# 5 0.0000 0.0000 0.0000 0.0000 37.6953 0.0000
# 6 0.0000 0.0000 0.0000 0.0000 0.0000 43.9084
#
#
#
# Elastic Compliance Matrix: (Units=1/GPa)
#
#
# Indices 1 2 3 4 5 6 
#
# 1 0.013840 -0.003853 -0.001512 0.000000 0.000000 0.000000
# 2 -0.003853 0.008879 -0.003568 0.000000 0.000000 0.000000
# 3 -0.001512 -0.003568 0.009440 0.000000 0.000000 0.000000
# 4 0.000000 0.000000 0.000000 0.034974 0.000000 0.000000
# 5 0.000000 0.000000 0.000000 0.000000 0.026529 0.000000
# 6 0.000000 0.000000 0.000000 0.000000 0.000000 0.022775
#
#
# Mechanical properties :
#
#
# Convention : Reuss Voigt Hill
#
# Bulk Modulus (GPa) = 69.95357 78.97213 74.46285
# Shear Modulus (GPa) = 35.95404 37.67280 36.81342
#
# Velocity S-wave (km/s) = 4.45822 4.56353 4.51118
# Velocity P-wave (km/s) = 8.07291 8.45129 8.26426
#
# Compressibility (1/GPa) = 0.01429520
#
# Stress axis : x y z
#
# Youngs Moduli (GPa) = 72.25359 112.62165 105.92913
#
# Poissons Ratio (x) = 0.43389 0.16014
# Poissons Ratio (y) = 0.27837 0.37794
# Poissons Ratio (z) = 0.10923 0.40182
#
# Static dielectric constant tensor:
#      x y z
#    x 1.628100 0.000000 0.000000 
#    y 0.000000 1.629540 0.000000 
#    z 0.000000 0.000000 1.253550 
# 
# From -- ./inp_files/29786.got.cif
#   From: 2010.05.17/outbox.cif.g08.bks.cpg/sg22_15_cif.got.tgz:29786.got - 2010.06.03 23:40:54.
