data_PCOD9327661
_publ_section_title
;
Structure prediction by ZEFSAII (Michael W. Deem and Ramdas Pophale) SiO2 
 PCOD9327661
Probable space group: F 2 2 2
;
_chemical_formula_sum "Si O2"
_cell_formula_units_Z 68
_cell_length_a 16.352520
_cell_length_b 8.872670
_cell_length_c 22.792205
_cell_angle_alpha 90.000000
_cell_angle_beta 90.000000
_cell_angle_gamma 90.000000
_cell_volume 3306.932730
_symmetry_space_group_name_H-M "F 2 2 2"
_symmetry_group_IT_number 22
_symmetry_cell_setting 'orthorhombic'
loop_
_space_group_symop_operation_xyz
x,y,z
-x,-y,z
x,-y,-z
-x,y,-z
x,1/2+y,1/2+z
-x,1/2-y,1/2+z
x,1/2-y,1/2-z
-x,1/2+y,1/2-z
1/2+x,y,1/2+z
1/2-x,-y,1/2+z
1/2+x,-y,1/2-z
1/2-x,y,1/2-z
1/2+x,1/2+y,z
1/2-x,1/2-y,z
1/2+x,1/2-y,-z
1/2-x,1/2+y,-z
loop_
_atom_site_type_symbol
_atom_site_label
_atom_site_fract_x
_atom_site_fract_y
_atom_site_fract_z
Si Si1 0.841233 0.305234 0.049188
Si Si2 0.750000 0.750000 0.750000
Si Si3 0.429594 0.289282 0.185196
Si Si4 0.663603 0.158131 0.921875
Si Si5 0.890212 0.636494 0.664836
O O1 0.750000 0.250000 0.039645
O O2 0.830805 0.477783 0.070384
O O3 0.877453 0.201241 0.099752
O O4 0.878445 0.293498 0.983788
O O5 0.811758 0.664594 0.705993
O O6 0.398140 0.250000 0.250000
O O7 0.390578 0.187689 0.135006
O O8 0.407259 0.459419 0.167407
O O9 0.527801 0.280046 0.186371
O O10 0.750000 0.250000 0.914773
#
# Coordination Sequence:
#
# PCOD9327661 Si02
#       5
#    16   4  16  16  16
#     4  10  21  41  66  95 128 177 231 272 326 395
#     4  12  24  44  70  96 122 184 220 252 332 400
#     4  11  26  43  62 100 138 168 216 278 336 390
#     4  10  23  40  65  96 134 176 223 279 331 392
#     4  11  25  42  69  97 130 175 218 276 332 397
#
# _framework density 20.562861999999999
#
# number of rings (size 3 to 8) (size 9 to 14) (size 15 to 20)
#    0.000    1.412    2.353    1.412    3.294    5.176 
#    0.000    4.706    0.000    0.000    0.000    0.000 
#    0.000    0.000    0.000    0.000    0.000    0.000 
#
# Total GULP energy -94855.160202 kJ/mol
# GULP energy per Si atom -5579.715306 kJ/mol
# Density = 2.051606 g / cm^3
# Si number density = 20.562862 Si / 1000 Ang^3
#
#
#
# Elastic Constant Matrix: (Units=GPa)
#
#
# Indices 1 2 3 4 5 6 
#
# 1 75.5475 25.0397 43.5937 0.0000 0.0000 0.0000
# 2 25.0397 55.0508 68.0443 0.0000 0.0000 0.0000
# 3 43.5937 68.0443 193.1509 0.0000 0.0000 0.0000
# 4 0.0000 0.0000 0.0000 17.0244 0.0000 0.0000
# 5 0.0000 0.0000 0.0000 0.0000 23.9482 0.0000
# 6 0.0000 0.0000 0.0000 0.0000 0.0000 26.0749
#
#
#
# Elastic Compliance Matrix: (Units=1/GPa)
#
#
# Indices 1 2 3 4 5 6 
#
# 1 0.015951 -0.004969 -0.001850 0.000000 0.000000 0.000000
# 2 -0.004969 0.033723 -0.010759 0.000000 0.000000 0.000000
# 3 -0.001850 -0.010759 0.009385 0.000000 0.000000 0.000000
# 4 0.000000 0.000000 0.000000 0.058739 0.000000 0.000000
# 5 0.000000 0.000000 0.000000 0.000000 0.041757 0.000000
# 6 0.000000 0.000000 0.000000 0.000000 0.000000 0.038351
#
#
# Mechanical properties :
#
#
# Convention : Reuss Voigt Hill
#
# Bulk Modulus (GPa) = 41.83344 66.34494 54.08919
# Shear Modulus (GPa) = 20.74438 25.88093 23.31265
#
# Velocity S-wave (km/s) = 3.17965 3.55156 3.37074
# Velocity P-wave (km/s) = 5.81967 7.01089 6.44287
#
# Compressibility (1/GPa) = 0.02390432
#
# Stress axis : x y z
#
# Youngs Moduli (GPa) = 62.69222 29.65307 106.55438
#
# Poissons Ratio (x) = 0.14735 0.19707
# Poissons Ratio (y) = 0.31153 1.14639
# Poissons Ratio (z) = 0.11595 0.31903
#
# Static dielectric constant tensor:
#      x y z
#    x 1.740900 0.000000 0.000000 
#    y 0.000000 1.714000 0.000000 
#    z 0.000000 0.000000 1.784520 
# 
# From -- ./inp_files/11244.got.cif
#   From: 2010.05.17/outbox.cif.g08.bks.cpg/sg22_6_cif.got.tgz:11244.got - 2010.06.03 23:40:54.
