data_PCOD9327530
_publ_section_title
;
Structure prediction by ZEFSAII (Michael W. Deem and Ramdas Pophale) SiO2 
 PCOD9327530
Probable space group: F 2 2 2
;
_chemical_formula_sum "Si O2"
_cell_formula_units_Z 52
_cell_length_a 19.275951
_cell_length_b 22.418460
_cell_length_c 5.261542
_cell_angle_alpha 90.000000
_cell_angle_beta 90.000000
_cell_angle_gamma 90.000000
_cell_volume 2273.707693
_symmetry_space_group_name_H-M "F 2 2 2"
_symmetry_group_IT_number 22
_symmetry_cell_setting 'orthorhombic'
loop_
_space_group_symop_operation_xyz
x,y,z
-x,-y,z
x,-y,-z
-x,y,-z
x,1/2+y,1/2+z
-x,1/2-y,1/2+z
x,1/2-y,1/2-z
-x,1/2+y,1/2-z
1/2+x,y,1/2+z
1/2-x,-y,1/2+z
1/2+x,-y,1/2-z
1/2-x,y,1/2-z
1/2+x,1/2+y,z
1/2-x,1/2-y,z
1/2+x,1/2-y,-z
1/2-x,1/2+y,-z
loop_
_atom_site_type_symbol
_atom_site_label
_atom_site_fract_x
_atom_site_fract_y
_atom_site_fract_z
Si Si1 0.542375 0.822117 0.248535
Si Si2 0.831805 0.470065 0.253970
Si Si3 0.186593 0.644707 0.562656
Si Si4 0.250000 0.750000 0.250000
O O1 0.500000 0.839067 0.500000
O O2 0.548848 0.750000 0.250000
O O3 0.618634 0.849021 0.266994
O O4 0.500000 0.839830 0.000000
O O5 0.865459 0.500000 0.500000
O O6 0.750000 0.486793 0.250000
O O7 0.829066 0.400652 0.331012
O O8 0.861220 0.500000 0.000000
O O9 0.250000 0.626549 0.750000
O O10 0.205120 0.707324 0.430777
#
# Coordination Sequence:
#
# PCOD9327530 Si02
#       4
#    16  16  16   4
#     4  10  24  42  64  96 146 194 237 278 348 441
#     4  10  21  39  63  96 135 180 233 287 350 417
#     4  12  25  42  69 106 151 187 238 305 363 428
#     4  12  26  36  68 114 156 184 236 306 382 416
#
# _framework density 22.870132000000002
#
# number of rings (size 3 to 8) (size 9 to 14) (size 15 to 20)
#    0.000    1.231    1.538    5.077   10.769    0.000 
#    0.000    0.000    0.000    0.923    0.000   21.538 
#    0.000    0.000    0.000    0.000    0.000    0.000 
#
# Total GULP energy -72689.997837 kJ/mol
# GULP energy per Si atom -5591.538295 kJ/mol
# Density = 2.281808 g / cm^3
# Si number density = 22.870132 Si / 1000 Ang^3
#
#
#
# Elastic Constant Matrix: (Units=GPa)
#
#
# Indices 1 2 3 4 5 6 
#
# 1 144.9496 25.1897 76.0593 -0.0082 0.0056 -0.0432
# 2 25.1897 130.3957 69.6610 -0.0036 0.0057 -0.0354
# 3 76.0593 69.6610 220.2877 -0.0132 0.0113 -0.0207
# 4 -0.0082 -0.0036 -0.0132 33.2876 0.0159 0.0035
# 5 0.0056 0.0057 0.0113 0.0159 29.1547 0.0148
# 6 -0.0432 -0.0354 -0.0207 0.0035 0.0148 1.6028
#
#
#
# Elastic Compliance Matrix: (Units=1/GPa)
#
#
# Indices 1 2 3 4 5 6 
#
# 1 0.008426 -0.000088 -0.002881 0.000001 -0.000001 0.000188
# 2 -0.000088 0.009229 -0.002888 0.000000 -0.000001 0.000164
# 3 -0.002881 -0.002888 0.006448 0.000002 -0.000001 -0.000058
# 4 0.000001 0.000000 0.000002 0.030041 -0.000016 -0.000065
# 5 -0.000001 -0.000001 -0.000001 -0.000016 0.034300 -0.000316
# 6 0.000188 0.000164 -0.000058 -0.000065 -0.000316 0.623931
#
#
# Mechanical properties :
#
#
# Convention : Reuss Voigt Hill
#
# Bulk Modulus (GPa) = 80.72706 93.05032 86.88869
# Shear Modulus (GPa) = 6.86607 34.45723 20.66165
#
# Velocity S-wave (km/s) = 1.73456 3.88577 3.00898
# Velocity P-wave (km/s) = 6.27585 7.80429 7.08143
#
# Compressibility (1/GPa) = 0.01238742
#
# Stress axis : x y z
#
# Youngs Moduli (GPa) = 118.67570 108.35565 155.09635
#
# Poissons Ratio (x) = 0.00958 0.44689
# Poissons Ratio (y) = 0.01049 0.44790
# Poissons Ratio (z) = 0.34195 0.31292
#
# Static dielectric constant tensor:
#      x y z
#    x 1.817300 0.000010 0.000030 
#    y 0.000010 1.897700 0.000000 
#    z 0.000030 0.000000 1.916620 
# 
# From -- ./inp_files/3304.got.cif
#   From: 2010.05.17/outbox.cif.g08.bks.cpg/sg22_2_cif.got.tgz:3304.got - 2010.06.03 23:40:54.
