data_PCOD9327994
_publ_section_title
;
Structure prediction by ZEFSAII (Michael W. Deem and Ramdas Pophale) SiO2 
 PCOD9327994
Probable space group: F 2 2 2
;
_chemical_formula_sum "Si O2"
_cell_formula_units_Z 72
_cell_length_a 10.789582
_cell_length_b 15.559474
_cell_length_c 17.466586
_cell_angle_alpha 90.000000
_cell_angle_beta 90.000000
_cell_angle_gamma 90.000000
_cell_volume 2932.294311
_symmetry_space_group_name_H-M "F 2 2 2"
_symmetry_group_IT_number 22
_symmetry_cell_setting 'orthorhombic'
loop_
_space_group_symop_operation_xyz
x,y,z
-x,-y,z
x,-y,-z
-x,y,-z
x,1/2+y,1/2+z
-x,1/2-y,1/2+z
x,1/2-y,1/2-z
-x,1/2+y,1/2-z
1/2+x,y,1/2+z
1/2-x,-y,1/2+z
1/2+x,-y,1/2-z
1/2-x,y,1/2-z
1/2+x,1/2+y,z
1/2-x,1/2-y,z
1/2+x,1/2-y,-z
1/2-x,1/2+y,-z
loop_
_atom_site_type_symbol
_atom_site_label
_atom_site_fract_x
_atom_site_fract_y
_atom_site_fract_z
Si Si1 0.876821 0.800192 0.586476
Si Si2 0.749659 0.588867 0.467732
Si Si3 0.000000 0.167536 0.000000
Si Si4 0.112230 0.400727 0.764501
Si Si5 0.356756 0.403517 0.203252
O O1 0.750000 0.750000 0.609101
O O2 0.840891 0.840306 0.503372
O O3 0.911433 0.873287 0.647591
O O4 0.984458 0.731312 0.571804
O O5 0.700482 0.500000 0.500000
O O6 0.794557 0.586755 0.380127
O O7 0.880993 0.608740 0.507265
O O8 0.250000 0.364923 0.750000
O O9 0.125858 0.501628 0.742612
O O10 0.995603 0.367815 0.714729
O O11 0.250000 0.355684 0.250000
#
# Coordination Sequence:
#
# PCOD9327994 Si02
#       5
#    16  16   8  16  16
#     4  10  24  45  68  98 140 188 232 287 357 431
#     4  11  23  42  76 101 131 188 248 292 339 424
#     4  10  25  42  69  96 144 178 238 282 361 420
#     4  10  22  41  66  99 142 179 227 286 351 418
#     4  10  23  40  68 105 141 170 233 304 350 401
#
# _framework density 24.554151999999998
#
# number of rings (size 3 to 8) (size 9 to 14) (size 15 to 20)
#    0.000    1.778    0.000    3.000   15.556    0.444 
#    0.000    0.000    0.000    0.000    0.000    0.000 
#    0.000    0.000    0.000    0.000    0.000    0.000 
#
# Total GULP energy -100293.460895 kJ/mol
# GULP energy per Si atom -5571.858939 kJ/mol
# Density = 2.449827 g / cm^3
# Si number density = 24.554152 Si / 1000 Ang^3
#
#
#
# Elastic Constant Matrix: (Units=GPa)
#
#
# Indices 1 2 3 4 5 6 
#
# 1 105.5819 0.9282 20.5067 0.0000 0.0000 0.0000
# 2 0.9282 66.4091 43.1623 0.0000 0.0000 0.0000
# 3 20.5067 43.1623 141.8329 0.0000 0.0000 0.0000
# 4 0.0000 0.0000 0.0000 45.7152 0.0000 0.0000
# 5 0.0000 0.0000 0.0000 0.0000 -0.3472 0.0000
# 6 0.0000 0.0000 0.0000 0.0000 0.0000 -3.6747
#
#
#
# Elastic Compliance Matrix: (Units=1/GPa)
#
#
# Indices 1 2 3 4 5 6 
#
# 1 0.009796 0.000977 -0.001714 0.000000 0.000000 0.000000
# 2 0.000977 0.018868 -0.005883 0.000000 0.000000 0.000000
# 3 -0.001714 -0.005883 0.009089 0.000000 0.000000 0.000000
# 4 0.000000 0.000000 0.000000 0.021875 0.000000 0.000000
# 5 0.000000 0.000000 0.000000 0.000000 -2.880090 0.000000
# 6 0.000000 0.000000 0.000000 0.000000 0.000000 -0.272129
#
#
# Mechanical properties :
#
#
# Convention : Reuss Voigt Hill
#
# Bulk Modulus (GPa) = 40.79532 49.22426 45.00979
# Shear Modulus (GPa) = -1.62804 24.95377 11.66287
#
# Velocity S-wave (km/s) = -0.81516 3.19137 2.18178
# Velocity P-wave (km/s) = 3.97046 5.80263 4.97167
#
# Compressibility (1/GPa) = 0.02451262
#
# Stress axis : x y z
#
# Youngs Moduli (GPa) = 102.08721 52.99907 110.02728
#
# Poissons Ratio (x) = -0.05177 0.18853
# Poissons Ratio (y) = -0.09972 0.64731
# Poissons Ratio (z) = 0.17493 0.31180
#
# Static dielectric constant tensor:
#      x y z
#    x 1.979740 0.000000 0.000000 
#    y 0.000000 1.986720 0.000000 
#    z 0.000000 0.000000 2.020650 
# 
# From -- ./inp_files/35857.got.cif
#   From: 2010.05.17/outbox.cif.g08.bks.cpg/sg22_18_cif.got.tgz:35857.got - 2010.06.03 23:40:54.
