data_PCOD9327342
_publ_section_title
;
Structure prediction by ZEFSAII (Michael W. Deem and Ramdas Pophale) SiO2 
 PCOD9327342
Probable space group: F 2 2 2
;
_chemical_formula_sum "Si O2"
_cell_formula_units_Z 104
_cell_length_a 9.397711
_cell_length_b 18.556259
_cell_length_c 28.191366
_cell_angle_alpha 90.000000
_cell_angle_beta 90.000000
_cell_angle_gamma 90.000000
_cell_volume 4916.189681
_symmetry_space_group_name_H-M "F 2 2 2"
_symmetry_group_IT_number 22
_symmetry_cell_setting 'orthorhombic'
loop_
_space_group_symop_operation_xyz
x,y,z
-x,-y,z
x,-y,-z
-x,y,-z
x,1/2+y,1/2+z
-x,1/2-y,1/2+z
x,1/2-y,1/2-z
-x,1/2+y,1/2-z
1/2+x,y,1/2+z
1/2-x,-y,1/2+z
1/2+x,-y,1/2-z
1/2-x,y,1/2-z
1/2+x,1/2+y,z
1/2-x,1/2-y,z
1/2+x,1/2-y,-z
1/2-x,1/2+y,-z
loop_
_atom_site_type_symbol
_atom_site_label
_atom_site_fract_x
_atom_site_fract_y
_atom_site_fract_z
Si Si1 0.273617 0.107620 0.902404
Si Si2 0.793541 0.621504 0.113037
Si Si3 0.153012 0.903170 0.796033
Si Si4 0.020184 0.113294 0.054302
Si Si5 0.985212 0.785869 0.555277
Si Si6 0.823508 0.923602 0.800079
Si Si7 0.000000 0.000000 0.397238
O O1 0.115422 0.086092 0.917062
O O2 0.339452 0.181058 0.923439
O O3 0.264631 0.106224 0.845178
O O4 0.384282 0.048899 0.923047
O O5 0.713364 0.643114 0.160458
O O6 0.670923 0.594383 0.077234
O O7 0.887283 0.679651 0.085717
O O8 0.903754 0.558874 0.128808
O O9 0.250000 0.888797 0.750000
O O10 0.983302 0.892863 0.795198
O O11 0.168186 0.989407 0.806156
O O12 0.002286 0.200182 0.057273
O O13 0.000000 0.091758 0.000000
O O14 0.000000 0.807003 0.500000
O O15 0.750000 0.909488 0.750000
#
# Coordination Sequence:
#
# PCOD9327342 Si02
#       7
#    16  16  16  16  16  16   8
#     4  11  21  39  64  90 129 158 202 259 308 363
#     4  11  21  39  64  90 129 158 202 259 308 363
#     4  10  21  35  61  91 124 163 203 242 301 376
#     4  11  23  42  65  88 115 165 222 259 297 359
#     4  10  23  41  64  90 117 164 222 259 301 355
#     4  10  21  35  61  91 124 163 203 242 301 376
#     4  10  24  36  59  88 130 162 190 242 319 380
#
# _framework density 21.154593999999999
#
# number of rings (size 3 to 8) (size 9 to 14) (size 15 to 20)
#    0.000    1.538    3.077    1.846    4.308    3.077 
#    0.000   14.615    0.000    5.538    0.000    0.000 
#    0.000    0.000    0.000    0.000    0.000    0.000 
#
# Total GULP energy -145076.196540 kJ/mol
# GULP energy per Si atom -5579.853713 kJ/mol
# Density = 2.110645 g / cm^3
# Si number density = 21.154594 Si / 1000 Ang^3
#
#
#
# Elastic Constant Matrix: (Units=GPa)
#
#
# Indices 1 2 3 4 5 6 
#
# 1 123.0545 17.8884 28.5370 0.0000 0.0000 0.0000
# 2 17.8884 45.0577 15.9564 0.0000 0.0000 0.0000
# 3 28.5370 15.9564 126.2111 0.0000 0.0000 0.0000
# 4 0.0000 0.0000 0.0000 16.0036 0.0000 0.0000
# 5 0.0000 0.0000 0.0000 0.0000 32.2368 0.0000
# 6 0.0000 0.0000 0.0000 0.0000 0.0000 27.4583
#
#
#
# Elastic Compliance Matrix: (Units=1/GPa)
#
#
# Indices 1 2 3 4 5 6 
#
# 1 0.008939 -0.002966 -0.001646 0.000000 0.000000 0.000000
# 2 -0.002966 0.024218 -0.002391 0.000000 0.000000 0.000000
# 3 -0.001646 -0.002391 0.008598 0.000000 0.000000 0.000000
# 4 0.000000 0.000000 0.000000 0.062486 0.000000 0.000000
# 5 0.000000 0.000000 0.000000 0.000000 0.031020 0.000000
# 6 0.000000 0.000000 0.000000 0.000000 0.000000 0.036419
#
#
# Mechanical properties :
#
#
# Convention : Reuss Voigt Hill
#
# Bulk Modulus (GPa) = 36.03817 46.56520 41.30169
# Shear Modulus (GPa) = 25.64930 30.60251 28.12591
#
# Velocity S-wave (km/s) = 3.48583 3.80756 3.65024
# Velocity P-wave (km/s) = 5.76836 6.43348 6.10998
#
# Compressibility (1/GPa) = 0.02774836
#
# Stress axis : x y z
#
# Youngs Moduli (GPa) = 111.86395 41.29138 116.30921
#
# Poissons Ratio (x) = 0.12247 0.19148
# Poissons Ratio (y) = 0.33179 0.27812
# Poissons Ratio (z) = 0.18416 0.09873
#
# Static dielectric constant tensor:
#      x y z
#    x 1.682050 0.000000 0.000000 
#    y 0.000000 1.811360 0.000000 
#    z 0.000000 0.000000 1.754610 
# 
# From -- ./inp_files/12948.got.cif
#   From: 2010.05.17/outbox.cif.g08.bks.cpg/sg22_7_cif.got.tgz:12948.got - 2010.06.03 23:40:54.
