data_PCOD9327346
_publ_section_title
;
Structure prediction by ZEFSAII (Michael W. Deem and Ramdas Pophale) SiO2 
 PCOD9327346
Probable space group: F 2 2 2
;
_chemical_formula_sum "Si O2"
_cell_formula_units_Z 56
_cell_length_a 5.343695
_cell_length_b 27.799170
_cell_length_c 16.032762
_cell_angle_alpha 90.000000
_cell_angle_beta 90.000000
_cell_angle_gamma 90.000000
_cell_volume 2381.671376
_symmetry_space_group_name_H-M "F 2 2 2"
_symmetry_group_IT_number 22
_symmetry_cell_setting 'orthorhombic'
loop_
_space_group_symop_operation_xyz
x,y,z
-x,-y,z
x,-y,-z
-x,y,-z
x,1/2+y,1/2+z
-x,1/2-y,1/2+z
x,1/2-y,1/2-z
-x,1/2+y,1/2-z
1/2+x,y,1/2+z
1/2-x,-y,1/2+z
1/2+x,-y,1/2-z
1/2-x,y,1/2-z
1/2+x,1/2+y,z
1/2-x,1/2-y,z
1/2+x,1/2-y,-z
1/2-x,1/2+y,-z
loop_
_atom_site_type_symbol
_atom_site_label
_atom_site_fract_x
_atom_site_fract_y
_atom_site_fract_z
Si Si1 0.020812 0.891401 0.099695
Si Si2 0.515073 0.944257 0.102034
Si Si3 0.741468 0.192317 0.655011
Si Si4 0.500000 0.716827 0.500000
O O1 0.270207 0.916106 0.131697
O O2 0.770487 0.918764 0.130384
O O3 0.999629 0.835305 0.121346
O O4 0.000000 0.895573 0.000000
O O5 0.500000 0.000000 0.126641
O O6 0.500000 0.943328 0.000000
O O7 0.750000 0.175446 0.750000
O O8 0.750000 0.250000 0.659521
O O9 0.942733 0.184241 0.581027
O O10 0.750000 0.750000 0.512350
#
# Coordination Sequence:
#
# PCOD9327346 Si02
#       4
#    16  16  16   8
#     4  10  21  35  62  94 131 173 220 276 338 406
#     4   9  18  35  60  94 130 165 216 278 340 412
#     4  10  24  44  67 100 141 189 237 288 347 417
#     4  10  24  44  72  94 135 192 243 296 352 412
#
# _framework density 23.512899999999998
#
# number of rings (size 3 to 8) (size 9 to 14) (size 15 to 20)
#    0.000    2.286    0.000    0.857   14.000    3.429 
#    0.000   21.429    0.000    3.429    0.000    0.000 
#    0.000    0.000    0.000    0.000    0.000    0.000 
#
# Total GULP energy -78132.890995 kJ/mol
# GULP energy per Si atom -5580.920785 kJ/mol
# Density = 2.345938 g / cm^3
# Si number density = 23.512900 Si / 1000 Ang^3
#
#
#
# Elastic Constant Matrix: (Units=GPa)
#
#
# Indices 1 2 3 4 5 6 
#
# 1 191.8086 86.7885 35.9731 0.0000 0.0000 0.0000
# 2 86.7885 143.1116 5.8475 0.0000 0.0000 0.0000
# 3 35.9731 5.8475 110.4088 0.0000 0.0000 0.0000
# 4 0.0000 0.0000 0.0000 -201.5512 0.0000 0.0000
# 5 0.0000 0.0000 0.0000 0.0000 0.6277 0.0000
# 6 0.0000 0.0000 0.0000 0.0000 0.0000 47.5821
#
#
#
# Elastic Compliance Matrix: (Units=1/GPa)
#
#
# Indices 1 2 3 4 5 6 
#
# 1 0.007714 -0.004585 -0.002271 0.000000 0.000000 0.000000
# 2 -0.004585 0.009728 0.000979 0.000000 0.000000 0.000000
# 3 -0.002271 0.000979 0.009745 0.000000 0.000000 0.000000
# 4 0.000000 0.000000 0.000000 -0.004962 0.000000 0.000000
# 5 0.000000 0.000000 0.000000 0.000000 1.593133 0.000000
# 6 0.000000 0.000000 0.000000 0.000000 0.000000 0.021016
#
#
# Mechanical properties :
#
#
# Convention : Reuss Voigt Hill
#
# Bulk Modulus (GPa) = 64.79489 78.06081 71.42785
# Shear Modulus (GPa) = 3.02430 -9.55363 -3.26466
#
# Velocity S-wave (km/s) = 1.13535 -2.01791 -1.17961
# Velocity P-wave (km/s) = 5.41624 5.27655 5.34685
#
# Compressibility (1/GPa) = 0.01543332
#
# Stress axis : x y z
#
# Youngs Moduli (GPa) = 129.63226 102.79269 102.61469
#
# Poissons Ratio (x) = 0.47134 0.23299
# Poissons Ratio (y) = 0.59441 -0.10044
# Poissons Ratio (z) = 0.29434 -0.10061
#
# Static dielectric constant tensor:
#      x y z
#    x 1.893250 0.000000 0.000000 
#    y 0.000000 2.000130 0.000000 
#    z 0.000000 0.000000 1.935890 
# 
# From -- ./inp_files/34097.got.cif
#   From: 2010.05.17/outbox.cif.g08.bks.cpg/sg22_18_cif.got.tgz:34097.got - 2010.06.03 23:40:54.
