data_PCOD9327873
_publ_section_title
;
Structure prediction by ZEFSAII (Michael W. Deem and Ramdas Pophale) SiO2 
 PCOD9327873
Probable space group: F 2 2 2
;
_chemical_formula_sum "Si O2"
_cell_formula_units_Z 68
_cell_length_a 25.938777
_cell_length_b 6.073481
_cell_length_c 19.518918
_cell_angle_alpha 90.000000
_cell_angle_beta 90.000000
_cell_angle_gamma 90.000000
_cell_volume 3074.984367
_symmetry_space_group_name_H-M "F 2 2 2"
_symmetry_group_IT_number 22
_symmetry_cell_setting 'orthorhombic'
loop_
_space_group_symop_operation_xyz
x,y,z
-x,-y,z
x,-y,-z
-x,y,-z
x,1/2+y,1/2+z
-x,1/2-y,1/2+z
x,1/2-y,1/2-z
-x,1/2+y,1/2-z
1/2+x,y,1/2+z
1/2-x,-y,1/2+z
1/2+x,-y,1/2-z
1/2-x,y,1/2-z
1/2+x,1/2+y,z
1/2-x,1/2-y,z
1/2+x,1/2-y,-z
1/2-x,1/2+y,-z
loop_
_atom_site_type_symbol
_atom_site_label
_atom_site_fract_x
_atom_site_fract_y
_atom_site_fract_z
Si Si1 0.669661 0.926830 0.691184
Si Si2 0.581294 0.250000 0.750000
Si Si3 0.250000 0.750000 0.750000
Si Si4 0.570613 0.000000 0.500000
Si Si5 0.452699 0.150675 0.106911
Si Si6 0.856128 0.132939 0.436648
O O1 0.677204 0.750000 0.750000
O O2 0.670980 0.781163 0.621716
O O3 0.617992 0.064090 0.713370
O O4 0.714733 0.103520 0.700225
O O5 0.545446 0.176448 0.812039
O O6 0.544168 0.871562 0.437544
O O7 0.606302 0.811058 0.530275
O O8 0.500000 0.000000 0.083280
O O9 0.396038 0.041268 0.096598
O O10 0.829035 0.000000 0.500000
#
# Coordination Sequence:
#
# PCOD9327873 Si02
#       6
#    16   8   4   8  16  16
#     4  11  21  43  68 103 136 169 232 283 351 429
#     4  11  22  39  64  98 132 184 224 295 352 407
#     4  10  26  36  72 114 128 176 218 302 356 428
#     4  10  22  43  60  92 128 184 226 290 330 408
#     4  11  24  39  62  96 135 182 240 283 348 395
#     4  10  22  38  66  98 129 183 226 276 343 411
#
# _framework density 22.113931999999998
#
# number of rings (size 3 to 8) (size 9 to 14) (size 15 to 20)
#    0.000    1.412    4.706    0.353    0.000    8.000 
#    0.000    0.000    0.000    0.000   30.588    0.000 
#    0.000    0.000    0.000    0.000    0.000    0.000 
#
# Total GULP energy -94805.570174 kJ/mol
# GULP energy per Si atom -5576.798246 kJ/mol
# Density = 2.206360 g / cm^3
# Si number density = 22.113932 Si / 1000 Ang^3
#
#
#
# Elastic Constant Matrix: (Units=GPa)
#
#
# Indices 1 2 3 4 5 6 
#
# 1 56.0515 37.5590 34.7017 -0.0001 0.0001 0.0001
# 2 37.5590 133.4329 73.5521 -0.0006 0.0003 0.0002
# 3 34.7017 73.5521 182.5886 -0.0001 0.0001 0.0000
# 4 -0.0001 -0.0006 -0.0001 50.4788 0.0001 0.0001
# 5 0.0001 0.0003 0.0001 0.0001 5.2301 -0.0001
# 6 0.0001 0.0002 0.0000 0.0001 -0.0001 21.1736
#
#
#
# Elastic Compliance Matrix: (Units=1/GPa)
#
#
# Indices 1 2 3 4 5 6 
#
# 1 0.022676 -0.005151 -0.002235 0.000000 0.000000 0.000000
# 2 -0.005151 0.010804 -0.003373 0.000000 -0.000001 0.000000
# 3 -0.002235 -0.003373 0.007260 0.000000 0.000000 0.000000
# 4 0.000000 0.000000 0.000000 0.019810 0.000000 0.000000
# 5 0.000000 -0.000001 0.000000 0.000000 0.191201 0.000001
# 6 0.000000 0.000000 0.000000 0.000000 0.000001 0.047229
#
#
# Mechanical properties :
#
#
# Convention : Reuss Voigt Hill
#
# Bulk Modulus (GPa) = 52.02302 73.74429 62.88365
# Shear Modulus (GPa) = 15.29498 30.46051 22.87775
#
# Velocity S-wave (km/s) = 2.63277 3.71541 3.21992
# Velocity P-wave (km/s) = 5.72870 7.19899 6.50552
#
# Compressibility (1/GPa) = 0.01922226
#
# Stress axis : x y z
#
# Youngs Moduli (GPa) = 44.09983 92.56128 137.73612
#
# Poissons Ratio (x) = 0.47679 0.30779
# Poissons Ratio (y) = 0.22716 0.46459
# Poissons Ratio (z) = 0.09855 0.31221
#
# Static dielectric constant tensor:
#      x y z
#    x 1.847090 0.000000 0.000000 
#    y 0.000000 1.740400 0.000000 
#    z 0.000000 0.000000 1.840500 
# 
# From -- ./inp_files/5432.got.cif
#   From: 2010.05.17/outbox.cif.g08.bks.cpg/sg22_3_cif.got.tgz:5432.got - 2010.06.03 23:40:54.
