data_PCOD9327741
_publ_section_title
;
Structure prediction by ZEFSAII (Michael W. Deem and Ramdas Pophale) SiO2 
 PCOD9327741
Probable space group: F 2 2 2
;
_chemical_formula_sum "Si O2"
_cell_formula_units_Z 104
_cell_length_a 26.041646
_cell_length_b 7.920221
_cell_length_c 22.384672
_cell_angle_alpha 90.000000
_cell_angle_beta 90.000000
_cell_angle_gamma 90.000000
_cell_volume 4616.963764
_symmetry_space_group_name_H-M "F 2 2 2"
_symmetry_group_IT_number 22
_symmetry_cell_setting 'orthorhombic'
loop_
_space_group_symop_operation_xyz
x,y,z
-x,-y,z
x,-y,-z
-x,y,-z
x,1/2+y,1/2+z
-x,1/2-y,1/2+z
x,1/2-y,1/2-z
-x,1/2+y,1/2-z
1/2+x,y,1/2+z
1/2-x,-y,1/2+z
1/2+x,-y,1/2-z
1/2-x,y,1/2-z
1/2+x,1/2+y,z
1/2-x,1/2-y,z
1/2+x,1/2-y,-z
1/2-x,1/2+y,-z
loop_
_atom_site_type_symbol
_atom_site_label
_atom_site_fract_x
_atom_site_fract_y
_atom_site_fract_z
Si Si1 0.250000 0.497808 0.250000
Si Si2 0.790525 0.620692 0.627517
Si Si3 0.600373 0.722418 0.820590
Si Si4 0.555932 0.481668 0.605319
Si Si5 0.329844 0.352962 0.048009
Si Si6 0.913121 0.635374 0.353053
Si Si7 0.639932 0.500000 0.500000
Si Si8 0.663332 0.250000 0.750000
O O1 0.228096 0.593070 0.305596
O O2 0.297700 0.389220 0.274645
O O3 0.750000 0.750000 0.598426
O O4 0.847612 0.696217 0.639134
O O5 0.790759 0.436043 0.596174
O O6 0.611900 0.750000 0.750000
O O7 0.568824 0.550044 0.834416
O O8 0.569534 0.881723 0.844418
O O9 0.500000 0.500000 0.576859
O O10 0.553197 0.300528 0.638523
O O11 0.601135 0.509095 0.556677
O O12 0.383314 0.365134 0.083843
O O13 0.327307 0.169181 0.016788
O O14 0.330003 0.500000 0.000000
O O15 0.871378 0.677947 0.302114
#
# Coordination Sequence:
#
# PCOD9327741 Si02
#       8
#     8  16  16  16  16  16   8   8
#     4  11  21  36  64 102 137 179 250 291 341 408
#     4  11  23  39  66 103 144 185 246 296 344 432
#     4  11  22  42  65  94 139 189 222 283 364 426
#     4  11  25  43  69 104 130 178 241 298 360 430
#     4  10  21  43  65  99 134 186 227 283 365 421
#     4  10  22  40  66  94 138 173 230 288 360 426
#     4  10  21  44  78  94 136 180 236 304 362 427
#     4  11  20  38  62  98 134 186 232 298 337 418
#
# _framework density 22.525625999999999
#
# number of rings (size 3 to 8) (size 9 to 14) (size 15 to 20)
#    0.000    1.385    3.077    4.154    2.154    0.615 
#    4.154    1.538    1.692    4.615    0.000    0.000 
#    0.000    0.000    0.000    0.000    0.000    0.000 
#
# Total GULP energy -144990.482517 kJ/mol
# GULP energy per Si atom -5576.557020 kJ/mol
# Density = 2.247436 g / cm^3
# Si number density = 22.525626 Si / 1000 Ang^3
#
#
#
# Elastic Constant Matrix: (Units=GPa)
#
#
# Indices 1 2 3 4 5 6 
#
# 1 54.7784 37.0419 11.4568 -0.0002 0.0002 0.0000
# 2 37.0419 178.0058 42.4240 -0.0005 0.0004 0.0000
# 3 11.4568 42.4240 88.1949 0.0000 0.0000 0.0000
# 4 -0.0002 -0.0005 0.0000 414.7902 -0.0016 0.0001
# 5 0.0002 0.0004 0.0000 -0.0016 82.3059 -0.0001
# 6 0.0000 0.0000 0.0000 0.0001 -0.0001 9.0782
#
#
#
# Elastic Compliance Matrix: (Units=1/GPa)
#
#
# Indices 1 2 3 4 5 6 
#
# 1 0.021285 -0.004258 -0.000717 0.000000 0.000000 0.000000
# 2 -0.004258 0.007197 -0.002909 0.000000 0.000000 0.000000
# 3 -0.000717 -0.002909 0.012831 0.000000 0.000000 0.000000
# 4 0.000000 0.000000 0.000000 0.002411 0.000000 0.000000
# 5 0.000000 0.000000 0.000000 0.000000 0.012150 0.000000
# 6 0.000000 0.000000 0.000000 0.000000 0.000000 0.110155
#
#
# Mechanical properties :
#
#
# Convention : Reuss Voigt Hill
#
# Bulk Modulus (GPa) = 39.14630 55.86938 47.50784
# Shear Modulus (GPa) = 26.27279 116.57195 71.42237
#
# Velocity S-wave (km/s) = 3.41889 7.20161 5.63702
# Velocity P-wave (km/s) = 5.74468 9.69574 7.96896
#
# Compressibility (1/GPa) = 0.02554520
#
# Stress axis : x y z
#
# Youngs Moduli (GPa) = 46.98169 138.94245 77.93726
#
# Poissons Ratio (x) = 0.59168 0.05584
# Poissons Ratio (y) = 0.20007 0.22671
# Poissons Ratio (z) = 0.03366 0.40416
#
# Static dielectric constant tensor:
#      x y z
#    x 1.621230 0.000000 0.000000 
#    y 0.000000 1.950820 0.000000 
#    z 0.000000 0.000000 1.869570 
# 
# From -- ./inp_files/45824.got.cif
#   From: 2010.05.17/outbox.cif.g08.bks.cpg/sg22_23_cif.got.tgz:45824.got - 2010.06.03 23:40:54.
