data_PCOD9327316
_publ_section_title
;
Structure prediction by ZEFSAII (Michael W. Deem and Ramdas Pophale) SiO2 
 PCOD9327316
Probable space group: F 2 2 2
;
_chemical_formula_sum "Si O2"
_cell_formula_units_Z 108
_cell_length_a 14.576731
_cell_length_b 31.009245
_cell_length_c 12.197289
_cell_angle_alpha 90.000000
_cell_angle_beta 90.000000
_cell_angle_gamma 90.000000
_cell_volume 5513.338351
_symmetry_space_group_name_H-M "F 2 2 2"
_symmetry_group_IT_number 22
_symmetry_cell_setting 'orthorhombic'
loop_
_space_group_symop_operation_xyz
x,y,z
-x,-y,z
x,-y,-z
-x,y,-z
x,1/2+y,1/2+z
-x,1/2-y,1/2+z
x,1/2-y,1/2-z
-x,1/2+y,1/2-z
1/2+x,y,1/2+z
1/2-x,-y,1/2+z
1/2+x,-y,1/2-z
1/2-x,y,1/2-z
1/2+x,1/2+y,z
1/2-x,1/2-y,z
1/2+x,1/2-y,-z
1/2-x,1/2+y,-z
loop_
_atom_site_type_symbol
_atom_site_label
_atom_site_fract_x
_atom_site_fract_y
_atom_site_fract_z
Si Si1 0.537343 0.208207 0.824387
Si Si2 0.859733 0.785918 0.536514
Si Si3 0.000000 0.000000 0.500000
Si Si4 0.625004 0.053307 0.170764
Si Si5 0.526881 0.868384 0.706511
Si Si6 0.807464 0.306634 0.362271
Si Si7 0.500000 0.579761 0.000000
Si Si8 0.681331 0.534706 0.908209
O O1 0.521428 0.250000 0.750000
O O2 0.446758 0.198072 0.895913
O O3 0.545844 0.164736 0.756684
O O4 0.616263 0.218443 0.910214
O O5 0.843832 0.738738 0.590357
O O6 0.773745 0.817197 0.553469
O O7 0.936465 0.028664 0.418726
O O8 0.572749 0.096245 0.213120
O O9 0.644219 0.025310 0.283302
O O10 0.726314 0.061834 0.119466
O O11 0.611077 0.839546 0.658586
O O12 0.479539 0.892130 0.606160
O O13 0.750000 0.300770 0.250000
O O14 0.591706 0.554715 0.965845
O O15 0.711594 0.500000 0.000000
#
# Coordination Sequence:
#
# PCOD9327316 Si02
#       8
#    16  16   4  16  16  16   8  16
#     4  11  21  36  58  89 127 165 213 270 325 388
#     4  10  21  34  59  88 109 167 220 265 318 375
#     4  12  24  48  70 104 144 172 222 262 348 410
#     4  10  25  42  70 103 135 177 216 272 330 407
#     4  11  24  40  64  96 130 167 218 271 327 389
#     4  11  20  37  62  85 115 161 220 269 308 391
#     4  10  25  36  66  99 132 168 211 274 318 397
#     4  10  21  44  71 102 130 175 220 266 324 399
#
# _framework density 19.588857000000001
#
# number of rings (size 3 to 8) (size 9 to 14) (size 15 to 20)
#    0.000    1.481    3.704    1.111   10.370    1.185 
#    0.000    1.481    0.000    3.556    0.000    0.000 
#    0.000    0.000    0.000    0.000    0.000    0.000 
#
# Total GULP energy -150363.470202 kJ/mol
# GULP energy per Si atom -5569.017415 kJ/mol
# Density = 1.954427 g / cm^3
# Si number density = 19.588857 Si / 1000 Ang^3
#
#
#
# Elastic Constant Matrix: (Units=GPa)
#
#
# Indices 1 2 3 4 5 6 
#
# 1 80.5891 15.7668 52.5264 0.0000 0.0000 0.0000
# 2 15.7668 61.3924 45.7583 0.0000 0.0000 0.0000
# 3 52.5264 45.7583 110.3431 0.0000 0.0000 0.0000
# 4 0.0000 0.0000 0.0000 -243.9152 0.0000 0.0000
# 5 0.0000 0.0000 0.0000 0.0000 39.3021 0.0000
# 6 0.0000 0.0000 0.0000 0.0000 0.0000 -7.2660
#
#
#
# Elastic Compliance Matrix: (Units=1/GPa)
#
#
# Indices 1 2 3 4 5 6 
#
# 1 0.018271 0.002591 -0.009772 0.000000 0.000000 0.000000
# 2 0.002591 0.023943 -0.011162 0.000000 0.000000 0.000000
# 3 -0.009772 -0.011162 0.018343 0.000000 0.000000 0.000000
# 4 0.000000 0.000000 0.000000 -0.004100 0.000000 0.000000
# 5 0.000000 0.000000 0.000000 0.000000 0.025444 0.000000
# 6 0.000000 0.000000 0.000000 0.000000 0.000000 -0.137627
#
#
# Mechanical properties :
#
#
# Convention : Reuss Voigt Hill
#
# Bulk Modulus (GPa) = 41.89234 53.38084 47.63659
# Shear Modulus (GPa) = -451.15394 -33.15760 -242.15577
#
# Velocity S-wave (km/s) = -15.19248 -4.11868 -11.13048
# Velocity P-wave (km/s) = 16.92089 2.16605 11.86644
#
# Compressibility (1/GPa) = 0.02387071
#
# Stress axis : x y z
#
# Youngs Moduli (GPa) = 54.73197 41.76581 54.51576
#
# Poissons Ratio (x) = -0.10822 0.53273
# Poissons Ratio (y) = -0.14182 0.60853
# Poissons Ratio (z) = 0.53484 0.46621
#
# Static dielectric constant tensor:
#      x y z
#    x 1.732420 0.000000 0.000000 
#    y 0.000000 1.724760 0.000000 
#    z 0.000000 0.000000 1.759780 
# 
# From -- ./inp_files/20341.got.cif
#   From: 2010.05.17/outbox.cif.g08.bks.cpg/sg22_11_cif.got.tgz:20341.got - 2010.06.03 23:40:54.
