data_PCOD9327725
_publ_section_title
;
Structure prediction by ZEFSAII (Michael W. Deem and Ramdas Pophale) SiO2 
 PCOD9327725
Probable space group: F 2 2 2
;
_chemical_formula_sum "Si O2"
_cell_formula_units_Z 56
_cell_length_a 13.620026
_cell_length_b 34.631366
_cell_length_c 5.270019
_cell_angle_alpha 90.000000
_cell_angle_beta 90.000000
_cell_angle_gamma 90.000000
_cell_volume 2485.763117
_symmetry_space_group_name_H-M "F 2 2 2"
_symmetry_group_IT_number 22
_symmetry_cell_setting 'orthorhombic'
loop_
_space_group_symop_operation_xyz
x,y,z
-x,-y,z
x,-y,-z
-x,y,-z
x,1/2+y,1/2+z
-x,1/2-y,1/2+z
x,1/2-y,1/2-z
-x,1/2+y,1/2-z
1/2+x,y,1/2+z
1/2-x,-y,1/2+z
1/2+x,-y,1/2-z
1/2-x,y,1/2-z
1/2+x,1/2+y,z
1/2-x,1/2-y,z
1/2+x,1/2-y,-z
1/2-x,1/2+y,-z
loop_
_atom_site_type_symbol
_atom_site_label
_atom_site_fract_x
_atom_site_fract_y
_atom_site_fract_z
Si Si1 0.613377 0.276313 0.501343
Si Si2 0.632416 0.475491 0.250416
Si Si3 0.750000 0.665175 0.750000
Si Si4 0.438151 0.387886 0.753053
O O1 0.500000 0.291759 0.500000
O O2 0.619130 0.250000 0.250000
O O3 0.700237 0.307302 0.463492
O O4 0.624660 0.250000 0.750000
O O5 0.608310 0.500000 0.500000
O O6 0.750000 0.469751 0.250000
O O7 0.585422 0.433441 0.254918
O O8 0.608168 0.500000 0.000000
O O9 0.659678 0.636759 0.799371
O O10 0.500000 0.378808 0.500000
O O11 0.500000 0.379457 0.000000
#
# Coordination Sequence:
#
# PCOD9327725 Si02
#       4
#    16  16   8  16
#     4  10  24  47  76 106 136 178 235 287 348 429
#     4  10  21  42  71 101 140 190 247 301 354 415
#     4  12  27  50  74 106 152 190 226 302 364 426
#     4  12  28  46  71 108 146 195 246 292 361 431
#
# _framework density 22.528293999999999
#
# number of rings (size 3 to 8) (size 9 to 14) (size 15 to 20)
#    0.000    1.143    1.429    3.000    0.000   14.857 
#    0.000    2.857    0.000    0.000    0.000    0.000 
#    0.000    0.000    0.000    0.000    0.000    0.000 
#
# Total GULP energy -78343.132235 kJ/mol
# GULP energy per Si atom -5595.938017 kJ/mol
# Density = 2.247702 g / cm^3
# Si number density = 22.528294 Si / 1000 Ang^3
#
#
#
# Elastic Constant Matrix: (Units=GPa)
#
#
# Indices 1 2 3 4 5 6 
#
# 1 225.1168 92.9273 94.4515 -0.0131 0.0000 0.0005
# 2 92.9273 157.7191 86.1217 -0.0137 -0.0004 0.0003
# 3 94.4515 86.1217 213.2401 -0.1537 -0.0029 0.0024
# 4 -0.0131 -0.0137 -0.1537 -380.4612 0.0366 -0.0753
# 5 0.0000 -0.0004 -0.0029 0.0366 177.9624 -0.0006
# 6 0.0005 0.0003 0.0024 -0.0753 -0.0006 112.1156
#
#
#
# Elastic Compliance Matrix: (Units=1/GPa)
#
#
# Indices 1 2 3 4 5 6 
#
# 1 0.006294 -0.002805 -0.001655 0.000001 0.000000 0.000000
# 2 -0.002805 0.009384 -0.002548 0.000001 0.000000 0.000000
# 3 -0.001655 -0.002548 0.006452 -0.000002 0.000000 0.000000
# 4 0.000001 0.000001 -0.000002 -0.002628 0.000001 -0.000002
# 5 0.000000 0.000000 0.000000 0.000001 0.005619 0.000000
# 6 0.000000 0.000000 0.000000 -0.000002 0.000000 0.008919
#
#
# Mechanical properties :
#
#
# Convention : Reuss Voigt Hill
#
# Bulk Modulus (GPa) = 123.23164 127.00855 125.12010
# Shear Modulus (GPa) = 98.50165 3.42841 50.96503
#
# Velocity S-wave (km/s) = 6.61955 1.23496 4.76149
# Velocity P-wave (km/s) = 10.64163 7.65070 9.26762
#
# Compressibility (1/GPa) = 0.00811480
#
# Stress axis : x y z
#
# Youngs Moduli (GPa) = 158.87039 106.56338 154.99976
#
# Poissons Ratio (x) = 0.29889 0.25656
# Poissons Ratio (y) = 0.44560 0.39488
# Poissons Ratio (z) = 0.26297 0.27148
#
# Static dielectric constant tensor:
#      x y z
#    x 2.145260 -0.000010 -0.000040 
#    y -0.000010 1.823090 0.000000 
#    z -0.000040 0.000000 1.768920 
# 
# From -- ./inp_files/1872.got.cif
#   From: 2010.05.17/outbox.cif.g08.bks.cpg/sg22_1_cif.got.tgz:1872.got - 2010.06.03 23:40:54.
