data_PCOD9327971
_publ_section_title
;
Structure prediction by ZEFSAII (Michael W. Deem and Ramdas Pophale) SiO2 
 PCOD9327971
Probable space group: F 2 2 2
;
_chemical_formula_sum "Si O2"
_cell_formula_units_Z 56
_cell_length_a 5.782764
_cell_length_b 13.909284
_cell_length_c 29.079624
_cell_angle_alpha 90.000000
_cell_angle_beta 90.000000
_cell_angle_gamma 90.000000
_cell_volume 2338.993582
_symmetry_space_group_name_H-M "F 2 2 2"
_symmetry_group_IT_number 22
_symmetry_cell_setting 'orthorhombic'
loop_
_space_group_symop_operation_xyz
x,y,z
-x,-y,z
x,-y,-z
-x,y,-z
x,1/2+y,1/2+z
-x,1/2-y,1/2+z
x,1/2-y,1/2-z
-x,1/2+y,1/2-z
1/2+x,y,1/2+z
1/2-x,-y,1/2+z
1/2+x,-y,1/2-z
1/2-x,y,1/2-z
1/2+x,1/2+y,z
1/2-x,1/2-y,z
1/2+x,1/2-y,-z
1/2-x,1/2+y,-z
loop_
_atom_site_type_symbol
_atom_site_label
_atom_site_fract_x
_atom_site_fract_y
_atom_site_fract_z
Si Si1 0.750000 0.750000 0.161885
Si Si2 0.752834 0.888726 0.517154
Si Si3 0.086163 0.394213 0.790491
Si Si4 0.391064 0.895066 0.381671
O O1 0.617635 0.823706 0.195107
O O2 0.577908 0.686897 0.130363
O O3 0.500000 0.853640 0.500000
O O4 0.748366 0.875909 0.571959
O O5 0.000000 0.850026 0.500000
O O6 0.754176 0.000000 0.500000
O O7 0.250000 0.358134 0.750000
O O8 0.232428 0.402995 0.837059
O O9 0.000000 0.500000 0.776844
O O10 0.500000 0.000000 0.388936
#
# Coordination Sequence:
#
# PCOD9327971 Si02
#       4
#     8  16  16  16
#     4  12  30  51  84 116 168 210 280 342 419 500
#     4  10  22  40  78 121 155 220 273 332 417 486
#     4  12  29  53  81 118 161 214 273 340 424 502
#     4  12  25  49  83 119 159 217 274 343 416 500
#
# _framework density 23.941922000000002
#
# number of rings (size 3 to 8) (size 9 to 14) (size 15 to 20)
#    0.000    0.571    5.714    1.714    8.000    3.429 
#    0.000    0.000    6.286    0.000    0.000    0.000 
#    0.000    0.000    0.000    0.000    0.000    0.000 
#
# Total GULP energy -78448.279167 kJ/mol
# GULP energy per Si atom -5603.448512 kJ/mol
# Density = 2.388743 g / cm^3
# Si number density = 23.941922 Si / 1000 Ang^3
#
#
#
# Elastic Constant Matrix: (Units=GPa)
#
#
# Indices 1 2 3 4 5 6 
#
# 1 163.9152 51.8561 65.4278 0.0000 0.0000 0.0000
# 2 51.8561 172.6021 15.5970 0.0000 0.0000 0.0000
# 3 65.4278 15.5970 187.0704 0.0000 0.0000 0.0000
# 4 0.0000 0.0000 0.0000 6.2290 0.0000 0.0000
# 5 0.0000 0.0000 0.0000 0.0000 47.2084 0.0000
# 6 0.0000 0.0000 0.0000 0.0000 0.0000 -147.0927
#
#
#
# Elastic Compliance Matrix: (Units=1/GPa)
#
#
# Indices 1 2 3 4 5 6 
#
# 1 0.007784 -0.002109 -0.002547 0.000000 0.000000 0.000000
# 2 -0.002109 0.006409 0.000203 0.000000 0.000000 0.000000
# 3 -0.002547 0.000203 0.006219 0.000000 0.000000 0.000000
# 4 0.000000 0.000000 0.000000 0.160540 0.000000 0.000000
# 5 0.000000 0.000000 0.000000 0.000000 0.021183 0.000000
# 6 0.000000 0.000000 0.000000 0.000000 0.000000 -0.006798
#
#
# Mechanical properties :
#
#
# Convention : Reuss Voigt Hill
#
# Bulk Modulus (GPa) = 86.89516 87.70551 87.30033
# Shear Modulus (GPa) = 24.02952 7.31605 15.67279
#
# Velocity S-wave (km/s) = 3.17149 1.74997 2.56132
# Velocity P-wave (km/s) = 7.05579 6.38712 6.72976
#
# Compressibility (1/GPa) = 0.01150812
#
# Stress axis : x y z
#
# Youngs Moduli (GPa) = 128.46301 156.03521 160.78788
#
# Poissons Ratio (x) = 0.32901 0.40949
# Poissons Ratio (y) = 0.27087 -0.03266
# Poissons Ratio (z) = 0.32717 -0.03170
#
# Static dielectric constant tensor:
#      x y z
#    x 1.925130 0.000000 0.000000 
#    y 0.000000 1.956070 0.000000 
#    z 0.000000 0.000000 1.841690 
# 
# From -- ./inp_files/1878.got.cif
#   From: 2010.05.17/outbox.cif.g08.bks.cpg/sg22_1_cif.got.tgz:1878.got - 2010.06.03 23:40:54.
