data_PCOD9327468
_publ_section_title
;
Structure prediction by ZEFSAII (Michael W. Deem and Ramdas Pophale) SiO2 
 PCOD9327468
Probable space group: F 2 2 2
;
_chemical_formula_sum "Si O2"
_cell_formula_units_Z 92
_cell_length_a 20.581058
_cell_length_b 14.081177
_cell_length_c 15.777676
_cell_angle_alpha 90.000000
_cell_angle_beta 90.000000
_cell_angle_gamma 90.000000
_cell_volume 4572.457606
_symmetry_space_group_name_H-M "F 2 2 2"
_symmetry_group_IT_number 22
_symmetry_cell_setting 'orthorhombic'
loop_
_space_group_symop_operation_xyz
x,y,z
-x,-y,z
x,-y,-z
-x,y,-z
x,1/2+y,1/2+z
-x,1/2-y,1/2+z
x,1/2-y,1/2-z
-x,1/2+y,1/2-z
1/2+x,y,1/2+z
1/2-x,-y,1/2+z
1/2+x,-y,1/2-z
1/2-x,y,1/2-z
1/2+x,1/2+y,z
1/2-x,1/2-y,z
1/2+x,1/2-y,-z
1/2-x,1/2+y,-z
loop_
_atom_site_type_symbol
_atom_site_label
_atom_site_fract_x
_atom_site_fract_y
_atom_site_fract_z
Si Si1 0.320198 0.749494 0.416109
Si Si2 0.944709 0.421486 0.616393
Si Si3 0.186860 0.031673 0.913795
Si Si4 0.066007 0.292272 0.040915
Si Si5 0.250000 0.456708 0.250000
Si Si6 0.386862 0.142668 0.217325
Si Si7 0.250000 0.250000 0.750000
O O1 0.250000 0.750000 0.463032
O O2 0.336822 0.860564 0.408912
O O3 0.376879 0.705346 0.471061
O O4 0.300934 0.710115 0.322072
O O5 0.875438 0.463682 0.588971
O O6 0.948867 0.317029 0.573393
O O7 0.936257 0.407998 0.717661
O O8 0.000000 0.500000 0.597648
O O9 0.230458 0.016217 0.831957
O O10 0.222312 0.000000 0.000000
O O11 0.088283 0.351901 0.122009
O O12 0.000000 0.328155 0.000000
O O13 0.314591 0.398635 0.273384
O O14 0.382848 0.250000 0.250000
#
# Coordination Sequence:
#
# PCOD9327468 Si02
#       7
#    16  16  16  16   8  16   4
#     4  10  22  39  60  86 124 158 205 247 298 357
#     4  10  21  38  62  84 117 150 195 251 293 349
#     4  11  21  36  58  92 114 150 202 246 304 348
#     4  11  22  38  60  93 120 156 198 244 301 368
#     4  10  22  36  63  83 122 152 196 254 292 356
#     4   9  21  39  58  90 114 155 195 237 305 356
#     4   8  22  40  56  86 118 168 200 240 302 356
#
# _framework density 20.120470000000001
#
# number of rings (size 3 to 8) (size 9 to 14) (size 15 to 20)
#    0.522    1.391    1.739    1.826    2.435    0.000 
#    7.826    0.000    0.000    0.000    0.000    0.000 
#    0.000    0.000    0.000    0.000    0.000    0.000 
#
# Total GULP energy -128131.629303 kJ/mol
# GULP energy per Si atom -5570.940404 kJ/mol
# Density = 2.007467 g / cm^3
# Si number density = 20.120470 Si / 1000 Ang^3
#
#
#
# Elastic Constant Matrix: (Units=GPa)
#
#
# Indices 1 2 3 4 5 6 
#
# 1 102.8330 -2.4286 71.7605 0.0000 0.0000 0.0000
# 2 -2.4286 31.7562 17.7057 0.0000 0.0000 0.0000
# 3 71.7605 17.7057 187.2920 0.0000 0.0000 0.0000
# 4 0.0000 0.0000 0.0000 12.6091 0.0000 0.0000
# 5 0.0000 0.0000 0.0000 0.0000 22.4276 0.0000
# 6 0.0000 0.0000 0.0000 0.0000 0.0000 -18.9446
#
#
#
# Elastic Compliance Matrix: (Units=1/GPa)
#
#
# Indices 1 2 3 4 5 6 
#
# 1 0.013790 0.004223 -0.005683 0.000000 0.000000 0.000000
# 2 0.004223 0.034535 -0.004883 0.000000 0.000000 0.000000
# 3 -0.005683 -0.004883 0.007978 0.000000 0.000000 0.000000
# 4 0.000000 0.000000 0.000000 0.079308 0.000000 0.000000
# 5 0.000000 0.000000 0.000000 0.000000 0.044588 0.000000
# 6 0.000000 0.000000 0.000000 0.000000 0.000000 -0.052786
#
#
# Mechanical properties :
#
#
# Convention : Reuss Voigt Hill
#
# Bulk Modulus (GPa) = 22.92624 55.10628 39.01626
# Shear Modulus (GPa) = 32.33350 18.87465 25.60408
#
# Velocity S-wave (km/s) = 4.01308 3.06614 3.57114
# Velocity P-wave (km/s) = 5.73518 6.32317 6.03634
#
# Compressibility (1/GPa) = 0.04361815
#
# Stress axis : x y z
#
# Youngs Moduli (GPa) = 72.51688 28.95592 125.34151
#
# Poissons Ratio (x) = -0.12228 0.71229
# Poissons Ratio (y) = -0.30624 0.61202
# Poissons Ratio (z) = 0.41210 0.14139
#
# Static dielectric constant tensor:
#      x y z
#    x 1.702970 0.000000 0.000000 
#    y 0.000000 1.753940 0.000000 
#    z 0.000000 0.000000 1.786830 
# 
# From -- ./inp_files/31660.got.cif
#   From: 2010.05.17/outbox.cif.g08.bks.cpg/sg22_16_cif.got.tgz:31660.got - 2010.06.03 23:40:54.
