data_PCOD9327969
_publ_section_title
;
Structure prediction by ZEFSAII (Michael W. Deem and Ramdas Pophale) SiO2 
 PCOD9327969
Probable space group: F 2 2 2
;
_chemical_formula_sum "Si O2"
_cell_formula_units_Z 88
_cell_length_a 15.335334
_cell_length_b 28.528969
_cell_length_c 9.211847
_cell_angle_alpha 90.000000
_cell_angle_beta 90.000000
_cell_angle_gamma 90.000000
_cell_volume 4030.194746
_symmetry_space_group_name_H-M "F 2 2 2"
_symmetry_group_IT_number 22
_symmetry_cell_setting 'orthorhombic'
loop_
_space_group_symop_operation_xyz
x,y,z
-x,-y,z
x,-y,-z
-x,y,-z
x,1/2+y,1/2+z
-x,1/2-y,1/2+z
x,1/2-y,1/2-z
-x,1/2+y,1/2-z
1/2+x,y,1/2+z
1/2-x,-y,1/2+z
1/2+x,-y,1/2-z
1/2-x,y,1/2-z
1/2+x,1/2+y,z
1/2-x,1/2-y,z
1/2+x,1/2-y,-z
1/2-x,1/2+y,-z
loop_
_atom_site_type_symbol
_atom_site_label
_atom_site_fract_x
_atom_site_fract_y
_atom_site_fract_z
Si Si1 0.750000 0.929958 0.250000
Si Si2 0.265545 0.000000 0.000000
Si Si3 0.444999 0.701059 0.307254
Si Si4 0.750000 0.065912 0.250000
Si Si5 0.811956 0.205683 0.556373
Si Si6 0.334866 0.352333 0.915285
Si Si7 0.395233 0.854384 0.727502
O O1 0.774634 0.961501 0.110439
O O2 0.664270 0.898085 0.222043
O O3 0.299822 0.965466 0.128419
O O4 0.484472 0.750000 0.250000
O O5 0.399606 0.709964 0.461022
O O6 0.368568 0.686865 0.194876
O O7 0.510806 0.657063 0.294743
O O8 0.681872 0.099646 0.330939
O O9 0.750000 0.250000 0.546512
O O10 0.756953 0.163606 0.483647
O O11 0.840843 0.190478 0.716126
O O12 0.397547 0.356052 0.054081
#
# Coordination Sequence:
#
# PCOD9327969 Si02
#       7
#     8   8  16   8  16  16  16
#     4  11  22  44  71 110 132 182 231 302 364 443
#     4  10  22  40  76 106 132 166 250 296 368 450
#     4  12  27  43  65 101 147 194 238 291 353 415
#     4  11  20  40  73 106 134 178 233 306 366 439
#     4  12  24  43  66  98 140 196 251 296 334 413
#     4  12  23  43  69  97 137 190 239 290 357 421
#     4  12  26  42  66 103 144 181 237 293 360 421
#
# _framework density 21.835172
#
# number of rings (size 3 to 8) (size 9 to 14) (size 15 to 20)
#    0.000    0.364    7.273    1.091    2.545    2.182 
#    0.000    0.000    0.000    6.545    0.000    0.000 
#    0.000    0.000    0.000    0.000    0.000    0.000 
#
# Total GULP energy -122678.907691 kJ/mol
# GULP energy per Si atom -5576.313986 kJ/mol
# Density = 2.178547 g / cm^3
# Si number density = 21.835172 Si / 1000 Ang^3
#
#
#
# Elastic Constant Matrix: (Units=GPa)
#
#
# Indices 1 2 3 4 5 6 
#
# 1 79.4933 25.9999 22.0961 0.0000 0.0000 0.0000
# 2 25.9999 118.3516 56.6035 0.0000 0.0000 0.0000
# 3 22.0961 56.6035 140.4669 0.0000 0.0000 0.0000
# 4 0.0000 0.0000 0.0000 50.7045 0.0000 0.0000
# 5 0.0000 0.0000 0.0000 0.0000 21.4165 0.0000
# 6 0.0000 0.0000 0.0000 0.0000 0.0000 -7.6053
#
#
#
# Elastic Compliance Matrix: (Units=1/GPa)
#
#
# Indices 1 2 3 4 5 6 
#
# 1 0.013706 -0.002453 -0.001168 0.000000 0.000000 0.000000
# 2 -0.002453 0.010905 -0.004009 0.000000 0.000000 0.000000
# 3 -0.001168 -0.004009 0.008918 0.000000 0.000000 0.000000
# 4 0.000000 0.000000 0.000000 0.019722 0.000000 0.000000
# 5 0.000000 0.000000 0.000000 0.000000 0.046693 0.000000
# 6 0.000000 0.000000 0.000000 0.000000 0.000000 -0.131487
#
#
# Mechanical properties :
#
#
# Convention : Reuss Voigt Hill
#
# Bulk Modulus (GPa) = 54.72882 60.85675 57.79279
# Shear Modulus (GPa) = -490.51826 28.47729 -231.02048
#
# Velocity S-wave (km/s) = -15.00445 3.61528 -10.29717
# Velocity P-wave (km/s) = 16.58491 6.73487 10.71683
#
# Compressibility (1/GPa) = 0.01827191
#
# Stress axis : x y z
#
# Youngs Moduli (GPa) = 72.95840 91.69745 112.13036
#
# Poissons Ratio (x) = 0.22490 0.13094
# Poissons Ratio (y) = 0.17894 0.44950
# Poissons Ratio (z) = 0.08520 0.36759
#
# Static dielectric constant tensor:
#      x y z
#    x 1.832980 0.000000 0.000000 
#    y 0.000000 1.816790 0.000000 
#    z 0.000000 0.000000 1.876370 
# 
# From -- ./inp_files/11814.got.cif
#   From: 2010.05.17/outbox.cif.g08.bks.cpg/sg22_6_cif.got.tgz:11814.got - 2010.06.03 23:40:54.
