data_PCOD9327778
_publ_section_title
;
Structure prediction by ZEFSAII (Michael W. Deem and Ramdas Pophale) SiO2 
 PCOD9327778
Probable space group: F 2 2 2
;
_chemical_formula_sum "Si O2"
_cell_formula_units_Z 92
_cell_length_a 18.880877
_cell_length_b 22.620392
_cell_length_c 9.306054
_cell_angle_alpha 90.000000
_cell_angle_beta 90.000000
_cell_angle_gamma 90.000000
_cell_volume 3974.549023
_symmetry_space_group_name_H-M "F 2 2 2"
_symmetry_group_IT_number 22
_symmetry_cell_setting 'orthorhombic'
loop_
_space_group_symop_operation_xyz
x,y,z
-x,-y,z
x,-y,-z
-x,y,-z
x,1/2+y,1/2+z
-x,1/2-y,1/2+z
x,1/2-y,1/2-z
-x,1/2+y,1/2-z
1/2+x,y,1/2+z
1/2-x,-y,1/2+z
1/2+x,-y,1/2-z
1/2-x,y,1/2-z
1/2+x,1/2+y,z
1/2-x,1/2-y,z
1/2+x,1/2-y,-z
1/2-x,1/2+y,-z
loop_
_atom_site_type_symbol
_atom_site_label
_atom_site_fract_x
_atom_site_fract_y
_atom_site_fract_z
Si Si1 0.500000 0.500000 0.000000
Si Si2 0.750000 0.750000 0.510680
Si Si3 0.986584 0.709717 0.362099
Si Si4 0.343044 0.856419 0.965168
Si Si5 0.208072 0.069383 0.008421
Si Si6 0.912471 0.904258 0.194845
Si Si7 0.356128 0.334715 0.804479
O O1 0.454956 0.458235 0.113601
O O2 0.701816 0.703012 0.421464
O O3 0.697237 0.789179 0.613286
O O4 0.948815 0.750000 0.250000
O O5 0.063844 0.687442 0.321396
O O6 0.000000 0.749253 0.500000
O O7 0.940854 0.652676 0.389032
O O8 0.354790 0.841261 0.133040
O O9 0.287564 0.909639 0.980486
O O10 0.406361 0.881204 0.861681
O O11 0.168236 0.087771 0.152638
O O12 0.166744 0.103280 0.879017
O O13 0.202581 0.000000 0.000000
#
# Coordination Sequence:
#
# PCOD9327778 Si02
#       7
#     4   8  16  16  16  16  16
#     4  12  24  56  80  90 152 224 258 296 384 468
#     4  10  21  44  77 110 159 202 227 304 403 476
#     4  12  27  45  73 107 146 197 246 300 371 452
#     4  11  25  40  75 116 144 183 253 311 372 443
#     4  11  23  47  74 100 146 191 243 302 377 446
#     4  12  26  47  76 104 140 202 256 304 369 450
#     4  11  23  46  73 106 149 202 238 294 389 453
#
# _framework density 23.147279999999999
#
# number of rings (size 3 to 8) (size 9 to 14) (size 15 to 20)
#    0.000    0.696    3.478    4.696    4.870    2.783 
#    0.000    3.478    3.826    0.000    0.000    0.000 
#    0.000    0.000    0.000    0.000    0.000    0.000 
#
# Total GULP energy -128109.998271 kJ/mol
# GULP energy per Si atom -5569.999925 kJ/mol
# Density = 2.309460 g / cm^3
# Si number density = 23.147280 Si / 1000 Ang^3
#
#
#
# Elastic Constant Matrix: (Units=GPa)
#
#
# Indices 1 2 3 4 5 6 
#
# 1 53.8650 25.0751 9.7205 0.0000 0.0000 0.0000
# 2 25.0751 155.0793 44.0467 0.0000 0.0000 0.0000
# 3 9.7205 44.0467 104.9129 0.0000 0.0000 0.0000
# 4 0.0000 0.0000 0.0000 23.0788 0.0000 0.0000
# 5 0.0000 0.0000 0.0000 0.0000 34.5928 0.0000
# 6 0.0000 0.0000 0.0000 0.0000 0.0000 -0.9529
#
#
#
# Elastic Compliance Matrix: (Units=1/GPa)
#
#
# Indices 1 2 3 4 5 6 
#
# 1 0.020106 -0.003090 -0.000565 0.000000 0.000000 0.000000
# 2 -0.003090 0.007796 -0.002987 0.000000 0.000000 0.000000
# 3 -0.000565 -0.002987 0.010838 0.000000 0.000000 0.000000
# 4 0.000000 0.000000 0.000000 0.043330 0.000000 0.000000
# 5 0.000000 0.000000 0.000000 0.000000 0.028908 0.000000
# 6 0.000000 0.000000 0.000000 0.000000 0.000000 -1.049455
#
#
# Mechanical properties :
#
#
# Convention : Reuss Voigt Hill
#
# Bulk Modulus (GPa) = 39.28532 52.39354 45.83943
# Shear Modulus (GPa) = -5.45431 27.01140 10.77855
#
# Velocity S-wave (km/s) = -1.53671 3.41975 2.16024
# Velocity P-wave (km/s) = 3.72292 6.18683 5.10573
#
# Compressibility (1/GPa) = 0.02545480
#
# Stress axis : x y z
#
# Youngs Moduli (GPa) = 49.73745 128.26503 92.26689
#
# Poissons Ratio (x) = 0.39638 0.05217
# Poissons Ratio (y) = 0.15370 0.27559
# Poissons Ratio (z) = 0.02812 0.38311
#
# Static dielectric constant tensor:
#      x y z
#    x 1.941420 0.000000 0.000000 
#    y 0.000000 1.862130 0.000000 
#    z 0.000000 0.000000 2.062610 
# 
# From -- ./inp_files/12710.got.cif
#   From: 2010.05.17/outbox.cif.g08.bks.cpg/sg22_7_cif.got.tgz:12710.got - 2010.06.03 23:40:54.
