data_PCOD9327388
_publ_section_title
;
Structure prediction by ZEFSAII (Michael W. Deem and Ramdas Pophale) SiO2 
 PCOD9327388
Probable space group: F 2 2 2
;
_chemical_formula_sum "Si O2"
_cell_formula_units_Z 72
_cell_length_a 22.385561
_cell_length_b 5.575134
_cell_length_c 25.824840
_cell_angle_alpha 90.000000
_cell_angle_beta 90.000000
_cell_angle_gamma 90.000000
_cell_volume 3223.004652
_symmetry_space_group_name_H-M "F 2 2 2"
_symmetry_group_IT_number 22
_symmetry_cell_setting 'orthorhombic'
loop_
_space_group_symop_operation_xyz
x,y,z
-x,-y,z
x,-y,-z
-x,y,-z
x,1/2+y,1/2+z
-x,1/2-y,1/2+z
x,1/2-y,1/2-z
-x,1/2+y,1/2-z
1/2+x,y,1/2+z
1/2-x,-y,1/2+z
1/2+x,-y,1/2-z
1/2-x,y,1/2-z
1/2+x,1/2+y,z
1/2-x,1/2-y,z
1/2+x,1/2-y,-z
1/2-x,1/2+y,-z
loop_
_atom_site_type_symbol
_atom_site_label
_atom_site_fract_x
_atom_site_fract_y
_atom_site_fract_z
Si Si1 0.886531 0.499998 0.604460
Si Si2 0.571581 0.500000 0.219808
Si Si3 0.748137 1.000000 0.610265
Si Si4 0.213919 0.000000 0.500000
Si Si5 0.071319 0.999998 0.442766
O O1 0.893141 0.500000 0.666144
O O2 0.818245 0.500000 0.586889
O O3 0.914938 0.746954 0.584083
O O4 0.914937 0.253040 0.584084
O O5 0.500000 0.500000 0.208416
O O6 0.583738 0.750000 0.250000
O O7 0.583738 0.250000 0.250000
O O8 0.750000 0.750000 0.640295
O O9 0.797466 1.000000 0.564168
O O10 0.750000 0.250000 0.640295
O O11 0.250000 0.250000 0.500000
O O12 0.102804 0.000000 0.500000
O O13 0.000000 0.000000 0.448828
#
# Coordination Sequence:
#
# PCOD9327388 Si02
#       5
#    16  16  16   8  16
#     4  12  23  39  65  86 119 165 201 244 302 364
#     4  10  21  38  62  90 116 145 194 255 307 356
#     4  10  21  37  55  83 116 155 200 251 290 338
#     4   8  16  30  48  70 101 140 187 234 276 312
#     4  11  24  39  57  88 127 161 198 238 289 369
#
# _framework density 22.339403999999998
#
# number of rings (size 3 to 8) (size 9 to 14) (size 15 to 20)
#    0.000    1.556    0.000    5.333    3.111    3.556 
#    4.000    0.000    0.000    4.000    0.000    0.000 
#    0.000    0.000    0.000    0.000    0.000    0.000 
#
# Total GULP energy -100217.880358 kJ/mol
# GULP energy per Si atom -5567.660020 kJ/mol
# Density = 2.228856 g / cm^3
# Si number density = 22.339404 Si / 1000 Ang^3
#
#
#
# Elastic Constant Matrix: (Units=GPa)
#
#
# Indices 1 2 3 4 5 6 
#
# 1 51.2414 26.4659 27.3318 -0.0001 -0.0001 -0.0039
# 2 26.4659 268.0583 53.8812 0.0011 -0.0008 -0.0059
# 3 27.3318 53.8812 110.8545 0.0005 -0.0002 0.0001
# 4 -0.0001 0.0011 0.0005 26.1822 -0.0005 -0.0008
# 5 -0.0001 -0.0008 -0.0002 -0.0005 18.1581 0.0003
# 6 -0.0039 -0.0059 0.0001 -0.0008 0.0003 20.9225
#
#
#
# Elastic Compliance Matrix: (Units=1/GPa)
#
#
# Indices 1 2 3 4 5 6 
#
# 1 0.022839 -0.001245 -0.005026 0.000000 0.000000 0.000004
# 2 -0.001245 0.004202 -0.001736 0.000000 0.000000 0.000001
# 3 -0.005026 -0.001736 0.011104 0.000000 0.000000 -0.000001
# 4 0.000000 0.000000 0.000000 0.038194 0.000001 0.000001
# 5 0.000000 0.000000 0.000000 0.000001 0.055072 -0.000001
# 6 0.000004 0.000001 -0.000001 0.000001 -0.000001 0.047796
#
#
# Mechanical properties :
#
#
# Convention : Reuss Voigt Hill
#
# Bulk Modulus (GPa) = 45.18296 71.72355 58.45325
# Shear Modulus (GPa) = 24.67954 34.55090 29.61522
#
# Velocity S-wave (km/s) = 3.32739 3.93699 3.64496
# Velocity P-wave (km/s) = 5.91875 7.26929 6.62851
#
# Compressibility (1/GPa) = 0.02213224
#
# Stress axis : x y z
#
# Youngs Moduli (GPa) = 43.78429 237.96506 90.06026
#
# Poissons Ratio (x) = 0.29619 0.45266
# Poissons Ratio (y) = 0.05450 0.15631
# Poissons Ratio (z) = 0.22007 0.41303
#
# Static dielectric constant tensor:
#      x y z
#    x 1.831020 0.000000 0.000000 
#    y 0.000000 1.897670 0.000000 
#    z 0.000000 0.000000 1.797490 
# 
# From -- ./inp_files/50359.got.cif
#   From: 2010.05.17/outbox.cif.g08.bks.cpg/sg22_26_cif.got.tgz:50359.got - 2010.06.03 23:40:54.
