data_PCOD9327464
_publ_section_title
;
Structure prediction by ZEFSAII (Michael W. Deem and Ramdas Pophale) SiO2 
 PCOD9327464
Probable space group: F 2 2 2
;
_chemical_formula_sum "Si O2"
_cell_formula_units_Z 64
_cell_length_a 21.701060
_cell_length_b 18.053184
_cell_length_c 7.377484
_cell_angle_alpha 90.000000
_cell_angle_beta 90.000000
_cell_angle_gamma 90.000000
_cell_volume 2890.300730
_symmetry_space_group_name_H-M "F 2 2 2"
_symmetry_group_IT_number 22
_symmetry_cell_setting 'orthorhombic'
loop_
_space_group_symop_operation_xyz
x,y,z
-x,-y,z
x,-y,-z
-x,y,-z
x,1/2+y,1/2+z
-x,1/2-y,1/2+z
x,1/2-y,1/2-z
-x,1/2+y,1/2-z
1/2+x,y,1/2+z
1/2-x,-y,1/2+z
1/2+x,-y,1/2-z
1/2-x,y,1/2-z
1/2+x,1/2+y,z
1/2-x,1/2-y,z
1/2+x,1/2-y,-z
1/2-x,1/2+y,-z
loop_
_atom_site_type_symbol
_atom_site_label
_atom_site_fract_x
_atom_site_fract_y
_atom_site_fract_z
Si Si1 0.818530 0.430141 0.769684
Si Si2 0.435106 0.975087 0.209756
Si Si3 0.359053 0.848884 0.123905
Si Si4 0.813524 0.795138 0.993573
O O1 0.750000 0.462526 0.750000
O O2 0.874548 0.483583 0.715102
O O3 0.820845 0.356114 0.647162
O O4 0.829077 0.403928 0.976984
O O5 0.500000 0.000000 0.291675
O O6 0.420303 0.888095 0.199543
O O7 0.437842 0.000000 0.000000
O O8 0.317190 0.834800 0.299175
O O9 0.364611 0.769829 0.024003
O O10 0.750000 0.750000 0.018600
#
# Coordination Sequence:
#
# PCOD9327464 Si02
#       4
#    16  16  16  16
#     4  11  22  36  64  96 125 165 215 266 328 385
#     4   9  21  44  68  89 131 178 221 268 324 387
#     4  10  21  38  61  90 125 172 207 260 324 385
#     4  11  22  35  61  95 133 163 204 268 330 384
#
# _framework density 22.143025999999999
#
# number of rings (size 3 to 8) (size 9 to 14) (size 15 to 20)
#    0.000    1.750    2.500    2.250    0.000    3.000 
#    4.500    2.500   44.000    0.000    0.000    0.000 
#    0.000    0.000    0.000    0.000    0.000    0.000 
#
# Total GULP energy -89338.903828 kJ/mol
# GULP energy per Si atom -5583.681489 kJ/mol
# Density = 2.209263 g / cm^3
# Si number density = 22.143026 Si / 1000 Ang^3
#
#
#
# Elastic Constant Matrix: (Units=GPa)
#
#
# Indices 1 2 3 4 5 6 
#
# 1 159.0728 68.5341 14.3650 0.0000 0.0000 0.0000
# 2 68.5341 102.2574 10.7563 -0.0001 0.0000 0.0000
# 3 14.3650 10.7563 93.9721 -0.0001 -0.0001 -0.0001
# 4 0.0000 -0.0001 -0.0001 23.3665 0.0000 0.0000
# 5 0.0000 0.0000 -0.0001 0.0000 11.2662 0.0000
# 6 0.0000 0.0000 -0.0001 0.0000 0.0000 18.4007
#
#
#
# Elastic Compliance Matrix: (Units=1/GPa)
#
#
# Indices 1 2 3 4 5 6 
#
# 1 0.008882 -0.005881 -0.000685 0.000000 0.000000 0.000000
# 2 -0.005881 0.013792 -0.000680 0.000000 0.000000 0.000000
# 3 -0.000685 -0.000680 0.010824 0.000000 0.000000 0.000000
# 4 0.000000 0.000000 0.000000 0.042796 0.000000 0.000000
# 5 0.000000 0.000000 0.000000 0.000000 0.088761 0.000000
# 6 0.000000 0.000000 0.000000 0.000000 0.000000 0.054346
#
#
# Mechanical properties :
#
#
# Convention : Reuss Voigt Hill
#
# Bulk Modulus (GPa) = 52.61010 60.29036 56.45023
# Shear Modulus (GPa) = 20.81364 28.04980 24.43172
#
# Velocity S-wave (km/s) = 3.06921 3.56301 3.32529
# Velocity P-wave (km/s) = 6.03083 6.64933 6.34761
#
# Compressibility (1/GPa) = 0.01900776
#
# Stress axis : x y z
#
# Youngs Moduli (GPa) = 112.58888 72.50539 92.38806
#
# Poissons Ratio (x) = 0.42638 0.06325
# Poissons Ratio (y) = 0.66210 0.06280
# Poissons Ratio (z) = 0.07708 0.04928
#
# Static dielectric constant tensor:
#      x y z
#    x 1.860580 0.000000 0.000000 
#    y 0.000000 1.878110 0.000000 
#    z 0.000000 0.000000 1.854470 
# 
# From -- ./inp_files/11141.got.cif
#   From: 2010.05.17/outbox.cif.g08.bks.cpg/sg22_6_cif.got.tgz:11141.got - 2010.06.03 23:40:54.
