data_PCOD9327617
_publ_section_title
;
Structure prediction by ZEFSAII (Michael W. Deem and Ramdas Pophale) SiO2 
 PCOD9327617
Probable space group: F 2 2 2
;
_chemical_formula_sum "Si O2"
_cell_formula_units_Z 80
_cell_length_a 11.149238
_cell_length_b 24.739904
_cell_length_c 13.916257
_cell_angle_alpha 90.000000
_cell_angle_beta 90.000000
_cell_angle_gamma 90.000000
_cell_volume 3838.536167
_symmetry_space_group_name_H-M "F 2 2 2"
_symmetry_group_IT_number 22
_symmetry_cell_setting 'orthorhombic'
loop_
_space_group_symop_operation_xyz
x,y,z
-x,-y,z
x,-y,-z
-x,y,-z
x,1/2+y,1/2+z
-x,1/2-y,1/2+z
x,1/2-y,1/2-z
-x,1/2+y,1/2-z
1/2+x,y,1/2+z
1/2-x,-y,1/2+z
1/2+x,-y,1/2-z
1/2-x,y,1/2-z
1/2+x,1/2+y,z
1/2-x,1/2-y,z
1/2+x,1/2-y,-z
1/2-x,1/2+y,-z
loop_
_atom_site_type_symbol
_atom_site_label
_atom_site_fract_x
_atom_site_fract_y
_atom_site_fract_z
Si Si1 0.750000 0.393087 0.250000
Si Si2 0.510700 0.436590 0.181855
Si Si3 0.744321 0.805734 0.017326
Si Si4 0.101338 0.296219 0.828947
Si Si5 0.865303 0.639814 0.183901
Si Si6 0.000000 0.639543 0.500000
O O1 0.652066 0.427476 0.196371
O O2 0.826762 0.351583 0.188169
O O3 0.500000 0.500000 0.165757
O O4 0.432945 0.413088 0.272155
O O5 0.478045 0.398196 0.092458
O O6 0.750000 0.750000 0.079185
O O7 0.684585 0.855345 0.075515
O O8 0.877518 0.825845 0.986810
O O9 0.651804 0.785259 0.934646
O O10 0.126294 0.250000 0.750000
O O11 0.964492 0.313039 0.814541
O O12 0.750000 0.649157 0.250000
#
# Coordination Sequence:
#
# PCOD9327617 Si02
#       6
#     8  16  16  16  16   8
#     4  10  21  40  66  98 128 170 237 282 346 420
#     4  11  25  46  74  97 132 186 240 305 363 414
#     4  12  27  42  67 105 146 187 226 284 357 432
#     4  11  24  42  69  98 140 191 232 281 346 429
#     4  11  26  44  67 101 145 178 236 295 354 422
#     4  12  25  48  68 104 138 182 243 298 348 438
#
# _framework density 20.841279
#
# number of rings (size 3 to 8) (size 9 to 14) (size 15 to 20)
#    0.000    0.800    4.000    2.400    9.800    0.000 
#    0.000    0.000    0.000    4.800    0.000    0.000 
#    0.000    0.000    0.000    0.000    0.000    0.000 
#
# Total GULP energy -111450.263645 kJ/mol
# GULP energy per Si atom -5572.513182 kJ/mol
# Density = 2.079384 g / cm^3
# Si number density = 20.841279 Si / 1000 Ang^3
#
#
#
# Elastic Constant Matrix: (Units=GPa)
#
#
# Indices 1 2 3 4 5 6 
#
# 1 162.4275 59.3447 31.8109 0.0000 0.0000 0.0000
# 2 59.3447 134.9759 42.7256 0.0000 0.0000 0.0000
# 3 31.8109 42.7256 76.4525 0.0000 0.0000 0.0000
# 4 0.0000 0.0000 0.0000 11.0655 0.0000 0.0000
# 5 0.0000 0.0000 0.0000 0.0000 37.6540 0.0000
# 6 0.0000 0.0000 0.0000 0.0000 0.0000 25.4204
#
#
#
# Elastic Compliance Matrix: (Units=1/GPa)
#
#
# Indices 1 2 3 4 5 6 
#
# 1 0.007483 -0.002800 -0.001549 0.000000 0.000000 0.000000
# 2 -0.002800 0.010048 -0.004451 0.000000 0.000000 0.000000
# 3 -0.001549 -0.004451 0.016212 0.000000 0.000000 0.000000
# 4 0.000000 0.000000 0.000000 0.090371 0.000000 0.000000
# 5 0.000000 0.000000 0.000000 0.000000 0.026558 0.000000
# 6 0.000000 0.000000 0.000000 0.000000 0.000000 0.039338
#
#
# Mechanical properties :
#
#
# Convention : Reuss Voigt Hill
#
# Bulk Modulus (GPa) = 61.94050 71.29095 66.61572
# Shear Modulus (GPa) = 23.47527 30.82631 27.15079
#
# Velocity S-wave (km/s) = 3.35980 3.85008 3.61327
# Velocity P-wave (km/s) = 6.69594 7.35153 7.03138
#
# Compressibility (1/GPa) = 0.01614453
#
# Stress axis : x y z
#
# Youngs Moduli (GPa) = 133.63924 99.51738 61.68353
#
# Poissons Ratio (x) = 0.27862 0.09554
# Poissons Ratio (y) = 0.37415 0.27454
# Poissons Ratio (z) = 0.20699 0.44292
#
# Static dielectric constant tensor:
#      x y z
#    x 1.909220 0.000000 0.000000 
#    y 0.000000 1.744130 0.000000 
#    z 0.000000 0.000000 1.852580 
# 
# From -- ./inp_files/28126.got.cif
#   From: 2010.05.17/outbox.cif.g08.bks.cpg/sg22_15_cif.got.tgz:28126.got - 2010.06.03 23:40:54.
