data_PCOD9327417
_publ_section_title
;
Structure prediction by ZEFSAII (Michael W. Deem and Ramdas Pophale) SiO2 
 PCOD9327417
Probable space group: F 2 2 2
;
_chemical_formula_sum "Si O2"
_cell_formula_units_Z 88
_cell_length_a 18.070884
_cell_length_b 11.389310
_cell_length_c 20.525378
_cell_angle_alpha 90.000000
_cell_angle_beta 90.000000
_cell_angle_gamma 90.000000
_cell_volume 4224.428617
_symmetry_space_group_name_H-M "F 2 2 2"
_symmetry_group_IT_number 22
_symmetry_cell_setting 'orthorhombic'
loop_
_space_group_symop_operation_xyz
x,y,z
-x,-y,z
x,-y,-z
-x,y,-z
x,1/2+y,1/2+z
-x,1/2-y,1/2+z
x,1/2-y,1/2-z
-x,1/2+y,1/2-z
1/2+x,y,1/2+z
1/2-x,-y,1/2+z
1/2+x,-y,1/2-z
1/2-x,y,1/2-z
1/2+x,1/2+y,z
1/2-x,1/2-y,z
1/2+x,1/2-y,-z
1/2-x,1/2+y,-z
loop_
_atom_site_type_symbol
_atom_site_label
_atom_site_fract_x
_atom_site_fract_y
_atom_site_fract_z
Si Si1 0.250000 0.250000 0.615218
Si Si2 0.500000 0.000000 0.149813
Si Si3 0.500000 0.712929 0.500000
Si Si4 0.101049 0.119673 0.246090
Si Si5 0.496184 0.126089 0.623586
Si Si6 0.650790 0.371133 0.209496
Si Si7 0.370068 0.086602 0.950461
O O1 0.281051 0.145657 0.660802
O O2 0.316109 0.312269 0.576056
O O3 0.463152 0.096933 0.198877
O O4 0.571076 0.043660 0.106448
O O5 0.502897 0.782095 0.566727
O O6 0.427074 0.637162 0.502995
O O7 0.136562 0.250000 0.250000
O O8 0.061546 0.126577 0.175940
O O9 0.147626 0.997455 0.245575
O O10 0.422720 0.135319 0.666199
O O11 0.500000 0.000000 0.590119
O O12 0.650987 0.250000 0.250000
O O13 0.325875 0.000000 0.000000
#
# Coordination Sequence:
#
# PCOD9327417 Si02
#       7
#     8   8   8  16  16  16  16
#     4  12  27  46  68  98 146 191 248 298 380 452
#     4  12  21  42  78  99 146 180 254 300 350 443
#     4  12  20  42  72  94 138 180 252 292 352 438
#     4  11  23  37  68 112 142 177 234 310 359 414
#     4  10  21  37  62 106 139 177 228 295 361 416
#     4  11  22  42  68 101 142 191 234 281 366 447
#     4  12  26  45  69 105 132 195 247 309 362 438
#
# _framework density 20.831220999999999
#
# number of rings (size 3 to 8) (size 9 to 14) (size 15 to 20)
#    0.000    0.727    6.364    3.273    0.000    0.000 
#    6.545    0.000    0.000    7.636    0.000    0.000 
#    0.000    0.000    0.000    0.000    0.000    0.000 
#
# Total GULP energy -122566.531972 kJ/mol
# GULP energy per Si atom -5571.205999 kJ/mol
# Density = 2.078381 g / cm^3
# Si number density = 20.831221 Si / 1000 Ang^3
#
#
#
# Elastic Constant Matrix: (Units=GPa)
#
#
# Indices 1 2 3 4 5 6 
#
# 1 62.4888 25.8525 8.3143 0.0000 0.0000 0.0000
# 2 25.8525 136.6552 42.0395 0.0000 0.0000 0.0000
# 3 8.3143 42.0395 71.3844 0.0000 0.0000 0.0000
# 4 0.0000 0.0000 0.0000 21.6729 0.0000 0.0000
# 5 0.0000 0.0000 0.0000 0.0000 24.7442 0.0000
# 6 0.0000 0.0000 0.0000 0.0000 0.0000 15.9545
#
#
#
# Elastic Compliance Matrix: (Units=1/GPa)
#
#
# Indices 1 2 3 4 5 6 
#
# 1 0.017362 -0.003252 -0.000107 0.000000 0.000000 0.000000
# 2 -0.003252 0.009546 -0.005243 0.000000 0.000000 0.000000
# 3 -0.000107 -0.005243 0.017109 0.000000 0.000000 0.000000
# 4 0.000000 0.000000 0.000000 0.046141 0.000000 0.000000
# 5 0.000000 0.000000 0.000000 0.000000 0.040414 0.000000
# 6 0.000000 0.000000 0.000000 0.000000 0.000000 0.062678
#
#
# Mechanical properties :
#
#
# Convention : Reuss Voigt Hill
#
# Bulk Modulus (GPa) = 37.29503 46.99345 42.14424
# Shear Modulus (GPa) = 22.79039 25.42912 24.10976
#
# Velocity S-wave (km/s) = 3.31123 3.49767 3.40573
# Velocity P-wave (km/s) = 5.70625 6.23857 5.97834
#
# Compressibility (1/GPa) = 0.02681322
#
# Stress axis : x y z
#
# Youngs Moduli (GPa) = 57.59580 104.75903 58.44945
#
# Poissons Ratio (x) = 0.34064 0.00627
# Poissons Ratio (y) = 0.18728 0.30645
# Poissons Ratio (z) = 0.00618 0.54924
#
# Static dielectric constant tensor:
#      x y z
#    x 1.758320 0.000000 0.000000 
#    y 0.000000 1.890590 0.000000 
#    z 0.000000 0.000000 1.757340 
# 
# From -- ./inp_files/38809.got.cif
#   From: 2010.05.17/outbox.cif.g08.bks.cpg/sg22_20_cif.got.tgz:38809.got - 2010.06.03 23:40:54.
