data_PCOD9327270
_publ_section_title
;
Structure prediction by ZEFSAII (Michael W. Deem and Ramdas Pophale) SiO2 
 PCOD9327270
Probable space group: F 2 2 2
;
_chemical_formula_sum "Si O2"
_cell_formula_units_Z 60
_cell_length_a 19.510939
_cell_length_b 15.495855
_cell_length_c 9.301431
_cell_angle_alpha 90.000000
_cell_angle_beta 90.000000
_cell_angle_gamma 90.000000
_cell_volume 2812.182386
_symmetry_space_group_name_H-M "F 2 2 2"
_symmetry_group_IT_number 22
_symmetry_cell_setting 'orthorhombic'
loop_
_space_group_symop_operation_xyz
x,y,z
-x,-y,z
x,-y,-z
-x,y,-z
x,1/2+y,1/2+z
-x,1/2-y,1/2+z
x,1/2-y,1/2-z
-x,1/2+y,1/2-z
1/2+x,y,1/2+z
1/2-x,-y,1/2+z
1/2+x,-y,1/2-z
1/2-x,y,1/2-z
1/2+x,1/2+y,z
1/2-x,1/2-y,z
1/2+x,1/2-y,-z
1/2-x,1/2+y,-z
loop_
_atom_site_type_symbol
_atom_site_label
_atom_site_fract_x
_atom_site_fract_y
_atom_site_fract_z
Si Si1 0.357637 0.859003 0.579099
Si Si2 0.962993 0.419472 0.152244
Si Si3 0.330940 0.953820 0.285777
Si Si4 0.750000 0.250000 0.750000
Si Si5 0.967277 0.250000 0.750000
O O1 0.348885 0.885491 0.412721
O O2 0.293229 0.809717 0.644545
O O3 0.418892 0.793813 0.626311
O O4 0.355398 0.951870 0.659541
O O5 0.881676 0.432236 0.154087
O O6 0.000000 0.500000 0.232428
O O7 0.984030 0.328642 0.213488
O O8 0.000000 0.417998 0.000000
O O9 0.250000 0.953673 0.250000
#
# Coordination Sequence:
#
# PCOD9327270 Si02
#       5
#    16  16  16   4   8
#     4  10  23  41  73 101 141 185 237 297 361 438
#     4  11  26  46  71 102 142 190 240 296 359 433
#     4  11  24  46  71 108 142 188 238 306 368 432
#     4  10  20  44  66 108 142 194 222 290 374 448
#     4  11  24  47  69 100 135 188 240 292 345 434
#
# _framework density 21.335743000000001
#
# number of rings (size 3 to 8) (size 9 to 14) (size 15 to 20)
#    0.000    1.333    4.000    0.000    3.733    8.533 
#    0.000    0.000    0.000    0.000    0.000    0.000 
#    0.000    0.000    0.000    0.000    0.000    0.000 
#
# Total GULP energy -83616.076799 kJ/mol
# GULP energy per Si atom -5574.405120 kJ/mol
# Density = 2.128718 g / cm^3
# Si number density = 21.335743 Si / 1000 Ang^3
#
#
#
# Elastic Constant Matrix: (Units=GPa)
#
#
# Indices 1 2 3 4 5 6 
#
# 1 166.4288 42.9178 39.2626 0.0000 0.0000 0.0000
# 2 42.9178 150.1554 25.8316 0.0000 0.0000 0.0000
# 3 39.2626 25.8316 63.1799 0.0000 0.0000 0.0000
# 4 0.0000 0.0000 0.0000 26.2737 0.0000 0.0000
# 5 0.0000 0.0000 0.0000 0.0000 16.2591 0.0000
# 6 0.0000 0.0000 0.0000 0.0000 0.0000 21.2168
#
#
#
# Elastic Compliance Matrix: (Units=1/GPa)
#
#
# Indices 1 2 3 4 5 6 
#
# 1 0.007307 -0.001406 -0.003966 0.000000 0.000000 0.000000
# 2 -0.001406 0.007434 -0.002166 0.000000 0.000000 0.000000
# 3 -0.003966 -0.002166 0.019178 0.000000 0.000000 0.000000
# 4 0.000000 0.000000 0.000000 0.038061 0.000000 0.000000
# 5 0.000000 0.000000 0.000000 0.000000 0.061504 0.000000
# 6 0.000000 0.000000 0.000000 0.000000 0.000000 0.047132
#
#
# Mechanical properties :
#
#
# Convention : Reuss Voigt Hill
#
# Bulk Modulus (GPa) = 53.06881 66.19869 59.63375
# Shear Modulus (GPa) = 24.75581 30.86672 27.81126
#
# Velocity S-wave (km/s) = 3.41001 3.80770 3.61433
# Velocity P-wave (km/s) = 6.35857 7.10112 6.74008
#
# Compressibility (1/GPa) = 0.01884346
#
# Stress axis : x y z
#
# Youngs Moduli (GPa) = 136.85914 134.51241 52.14362
#
# Poissons Ratio (x) = 0.18915 0.20679
# Poissons Ratio (y) = 0.19245 0.11293
# Poissons Ratio (z) = 0.54276 0.29131
#
# Static dielectric constant tensor:
#      x y z
#    x 1.794420 0.000000 0.000000 
#    y 0.000000 1.430400 0.000000 
#    z 0.000000 0.000000 1.847810 
# 
# From -- ./inp_files/20805.got.cif
#   From: 2010.05.17/outbox.cif.g08.bks.cpg/sg22_11_cif.got.tgz:20805.got - 2010.06.03 23:40:54.
