data_PCOD9327594
_publ_section_title
;
Structure prediction by ZEFSAII (Michael W. Deem and Ramdas Pophale) SiO2 
 PCOD9327594
Probable space group: F 2 2 2
;
_chemical_formula_sum "Si O2"
_cell_formula_units_Z 92
_cell_length_a 22.894154
_cell_length_b 7.641206
_cell_length_c 21.765811
_cell_angle_alpha 90.000000
_cell_angle_beta 90.000000
_cell_angle_gamma 90.000000
_cell_volume 3807.688055
_symmetry_space_group_name_H-M "F 2 2 2"
_symmetry_group_IT_number 22
_symmetry_cell_setting 'orthorhombic'
loop_
_space_group_symop_operation_xyz
x,y,z
-x,-y,z
x,-y,-z
-x,y,-z
x,1/2+y,1/2+z
-x,1/2-y,1/2+z
x,1/2-y,1/2-z
-x,1/2+y,1/2-z
1/2+x,y,1/2+z
1/2-x,-y,1/2+z
1/2+x,-y,1/2-z
1/2-x,y,1/2-z
1/2+x,1/2+y,z
1/2-x,1/2-y,z
1/2+x,1/2-y,-z
1/2-x,1/2+y,-z
loop_
_atom_site_type_symbol
_atom_site_label
_atom_site_fract_x
_atom_site_fract_y
_atom_site_fract_z
Si Si1 0.409647 0.118649 0.095582
Si Si2 0.500000 0.500000 0.000000
Si Si3 0.965745 0.732444 0.601638
Si Si4 0.863301 0.905658 0.830767
Si Si5 0.739486 0.951287 0.395584
Si Si6 0.669871 0.994644 0.800816
Si Si7 0.323651 0.500000 0.500000
O O1 0.464553 0.243344 0.105742
O O2 0.437406 0.922895 0.093556
O O3 0.369343 0.115415 0.155376
O O4 0.368182 0.130555 0.035835
O O5 0.459314 0.378377 0.959381
O O6 0.931076 0.629726 0.654298
O O7 0.850369 0.011765 0.768822
O O8 0.839741 0.709278 0.818262
O O9 0.826780 0.986589 0.887418
O O10 0.750000 0.750000 0.413922
O O11 0.780059 0.055809 0.444444
O O12 0.765636 0.970217 0.326467
#
# Coordination Sequence:
#
# PCOD9327594 Si02
#       7
#    16   4  16  16  16  16   8
#     4   9  19  41  65  87 117 171 225 262 324 398
#     4  12  24  36  52  88 124 156 200 266 340 380
#     4  10  22  38  62  88 122 163 213 273 324 393
#     4  10  21  40  63  93 127 169 221 272 334 396
#     4  11  24  38  61  98 135 172 219 275 335 403
#     4   9  20  40  65  88 124 173 216 266 330 404
#     4  10  22  38  62  88 124 170 216 264 318 394
#
# _framework density 24.161643999999999
#
# number of rings (size 3 to 8) (size 9 to 14) (size 15 to 20)
#    0.000    2.087    0.000    2.087    0.000   13.217 
#    0.000    6.957    0.000    0.000    0.000    0.000 
#    0.000    0.000    0.000    0.000    0.000    0.000 
#
# Total GULP energy -128421.934328 kJ/mol
# GULP energy per Si atom -5583.562362 kJ/mol
# Density = 2.410665 g / cm^3
# Si number density = 24.161644 Si / 1000 Ang^3
#
#
#
# Elastic Constant Matrix: (Units=GPa)
#
#
# Indices 1 2 3 4 5 6 
#
# 1 145.4406 32.5385 66.2206 0.0000 0.0000 0.0000
# 2 32.5385 73.1462 20.5235 0.0000 0.0000 0.0000
# 3 66.2206 20.5235 131.3176 0.0000 0.0000 0.0000
# 4 0.0000 0.0000 0.0000 22.2240 0.0000 0.0000
# 5 0.0000 0.0000 0.0000 0.0000 22.9105 0.0000
# 6 0.0000 0.0000 0.0000 0.0000 0.0000 26.3118
#
#
#
# Elastic Compliance Matrix: (Units=1/GPa)
#
#
# Indices 1 2 3 4 5 6 
#
# 1 0.009523 -0.003021 -0.004330 0.000000 0.000000 0.000000
# 2 -0.003021 0.015257 -0.000861 0.000000 0.000000 0.000000
# 3 -0.004330 -0.000861 0.009933 0.000000 0.000000 0.000000
# 4 0.000000 0.000000 0.000000 0.044996 0.000000 0.000000
# 5 0.000000 0.000000 0.000000 0.000000 0.043648 0.000000
# 6 0.000000 0.000000 0.000000 0.000000 0.000000 0.038006
#
#
# Mechanical properties :
#
#
# Convention : Reuss Voigt Hill
#
# Bulk Modulus (GPa) = 54.67904 65.38553 60.03228
# Shear Modulus (GPa) = 27.19101 29.66405 28.42753
#
# Velocity S-wave (km/s) = 3.35831 3.50770 3.43382
# Velocity P-wave (km/s) = 6.14144 6.59741 6.37350
#
# Compressibility (1/GPa) = 0.01828854
#
# Stress axis : x y z
#
# Youngs Moduli (GPa) = 105.00721 65.54450 100.67194
#
# Poissons Ratio (x) = 0.19803 0.43592
# Poissons Ratio (y) = 0.31726 0.08667
# Poissons Ratio (z) = 0.45469 0.05643
#
# Static dielectric constant tensor:
#      x y z
#    x 2.003200 0.000000 0.000000 
#    y 0.000000 1.968440 0.000000 
#    z 0.000000 0.000000 1.931060 
# 
# From -- ./inp_files/45256.got.cif
#   From: 2010.05.17/outbox.cif.g08.bks.cpg/sg22_23_cif.got.tgz:45256.got - 2010.06.03 23:40:54.
