data_PCOD9327572
_publ_section_title
;
Structure prediction by ZEFSAII (Michael W. Deem and Ramdas Pophale) SiO2 
 PCOD9327572
Probable space group: F 2 2 2
;
_chemical_formula_sum "Si O2"
_cell_formula_units_Z 96
_cell_length_a 21.128518
_cell_length_b 10.334874
_cell_length_c 21.073822
_cell_angle_alpha 90.000000
_cell_angle_beta 90.000000
_cell_angle_gamma 90.000000
_cell_volume 4601.691812
_symmetry_space_group_name_H-M "F 2 2 2"
_symmetry_group_IT_number 22
_symmetry_cell_setting 'orthorhombic'
loop_
_space_group_symop_operation_xyz
x,y,z
-x,-y,z
x,-y,-z
-x,y,-z
x,1/2+y,1/2+z
-x,1/2-y,1/2+z
x,1/2-y,1/2-z
-x,1/2+y,1/2-z
1/2+x,y,1/2+z
1/2-x,-y,1/2+z
1/2+x,-y,1/2-z
1/2-x,y,1/2-z
1/2+x,1/2+y,z
1/2-x,1/2-y,z
1/2+x,1/2-y,-z
1/2-x,1/2+y,-z
loop_
_atom_site_type_symbol
_atom_site_label
_atom_site_fract_x
_atom_site_fract_y
_atom_site_fract_z
Si Si1 0.879766 0.745714 0.909953
Si Si2 0.524886 0.178044 0.312210
Si Si3 0.598210 0.922413 0.273115
Si Si4 0.154583 0.462849 0.135545
Si Si5 0.198511 0.510115 0.363785
Si Si6 0.177605 0.279905 0.457209
O O1 0.947792 0.773654 0.878361
O O2 0.869158 0.593278 0.898797
O O3 0.830444 0.845828 0.874450
O O4 0.869093 0.776102 0.983415
O O5 0.550456 0.250000 0.250000
O O6 0.449239 0.182958 0.303800
O O7 0.558598 0.042927 0.299452
O O8 0.664919 0.933073 0.306961
O O9 0.613119 0.936367 0.198700
O O10 0.227332 0.502470 0.149512
O O11 0.158948 0.334532 0.091897
O O12 0.181487 0.420160 0.424314
O O13 0.250000 0.250000 0.479472
#
# Coordination Sequence:
#
# PCOD9327572 Si02
#       6
#    16  16  16  16  16  16
#     4  11  21  39  64  92 125 170 215 263 314 380
#     4  10  21  40  61  85 118 164 214 262 313 362
#     4  10  22  38  61  89 123 165 210 264 318 377
#     4  11  21  37  63  98 129 162 207 268 329 379
#     4  10  22  37  62  94 130 169 208 258 324 389
#     4  10  22  38  58  93 135 172 204 253 329 395
#
# _framework density 20.861892999999998
#
# number of rings (size 3 to 8) (size 9 to 14) (size 15 to 20)
#    0.000    1.667    1.667    3.000    2.333    2.667 
#    0.000    5.000    0.000    4.000    0.000    0.000 
#    0.000    0.000    0.000    0.000    0.000    0.000 
#
# Total GULP energy -133632.308665 kJ/mol
# GULP energy per Si atom -5568.012861 kJ/mol
# Density = 2.081441 g / cm^3
# Si number density = 20.861893 Si / 1000 Ang^3
#
#
#
# Elastic Constant Matrix: (Units=GPa)
#
#
# Indices 1 2 3 4 5 6 
#
# 1 29.0774 9.7269 3.7563 0.0000 0.0000 0.0000
# 2 9.7269 66.4538 -10.5214 0.0000 0.0000 0.0000
# 3 3.7563 -10.5214 55.8901 0.0000 0.0000 0.0000
# 4 0.0000 0.0000 0.0000 20.0392 0.0000 0.0000
# 5 0.0000 0.0000 0.0000 0.0000 -59.1894 0.0000
# 6 0.0000 0.0000 0.0000 0.0000 0.0000 24.0282
#
#
#
# Elastic Compliance Matrix: (Units=1/GPa)
#
#
# Indices 1 2 3 4 5 6 
#
# 1 0.036851 -0.005964 -0.003599 0.000000 0.000000 0.000000
# 2 -0.005964 0.016475 0.003502 0.000000 0.000000 0.000000
# 3 -0.003599 0.003502 0.018793 0.000000 0.000000 0.000000
# 4 0.000000 0.000000 0.000000 0.049902 0.000000 0.000000
# 5 0.000000 0.000000 0.000000 0.000000 -0.016895 0.000000
# 6 0.000000 0.000000 0.000000 0.000000 0.000000 0.041618
#
#
# Mechanical properties :
#
#
# Convention : Reuss Voigt Hill
#
# Bulk Modulus (GPa) = 16.66713 17.48276 17.07495
# Shear Modulus (GPa) = 27.95388 6.87288 17.41338
#
# Velocity S-wave (km/s) = 3.66450 1.81704 2.89225
# Velocity P-wave (km/s) = 5.09032 3.57779 4.39954
#
# Compressibility (1/GPa) = 0.05999832
#
# Stress axis : x y z
#
# Youngs Moduli (GPa) = 27.13636 60.69625 53.20999
#
# Poissons Ratio (x) = 0.36198 0.19152
# Poissons Ratio (y) = 0.16183 -0.18636
# Poissons Ratio (z) = 0.09767 -0.21258
#
# Static dielectric constant tensor:
#      x y z
#    x 1.844560 0.000000 0.000000 
#    y 0.000000 1.901660 0.000000 
#    z 0.000000 0.000000 1.735080 
# 
# From -- ./inp_files/44785.got.cif
#   From: 2010.05.17/outbox.cif.g08.bks.cpg/sg22_23_cif.got.tgz:44785.got - 2010.06.03 23:40:54.
